data_PCOD9525045
_publ_section_title
;
Structure prediction by ZEFSAII (Michael W. Deem and Ramdas Pophale) SiO2 
 PCOD9525045
Probable space group: I B A M
;
_chemical_formula_sum "Si O2"
_cell_formula_units_Z 128
_cell_length_a 20.568834
_cell_length_b 20.762829
_cell_length_c 14.107130
_cell_angle_alpha 90.000000
_cell_angle_beta 90.000000
_cell_angle_gamma 90.000000
_cell_volume 6024.692270
_symmetry_space_group_name_H-M "I B A M"
_symmetry_group_IT_number 72
_symmetry_cell_setting 'orthorhombic'
loop_
_space_group_symop_operation_xyz
x,y,z
-x,-y,z
x,-y,1/2-z
-x,y,1/2-z
-x,-y,-z
x,y,-z
-x,y,1/2+z
x,-y,1/2+z
1/2+x,1/2+y,1/2+z
1/2-x,1/2-y,1/2+z
1/2+x,1/2-y,-z
1/2-x,1/2+y,-z
1/2-x,1/2-y,1/2-z
1/2+x,1/2+y,1/2-z
1/2-x,1/2+y,z
1/2+x,1/2-y,z
loop_
_atom_site_type_symbol
_atom_site_label
_atom_site_fract_x
_atom_site_fract_y
_atom_site_fract_z
Si Si1 0.950971 0.911702 0.384613
Si Si2 0.920958 0.562714 0.633737
Si Si3 0.588295 0.225043 0.112066
Si Si4 0.568195 0.080919 0.140723
Si Si5 0.903056 0.954412 0.115632
Si Si6 0.185305 0.837131 0.383525
Si Si7 0.444847 0.266411 0.883496
Si Si8 0.829812 0.321922 0.892402
O O1 0.949616 0.911541 0.500000
O O2 0.934542 0.840019 0.353720
O O3 0.025710 0.926828 0.358672
O O4 0.905365 0.970864 0.353335
O O5 0.908746 0.488937 0.605181
O O6 0.927262 0.570374 0.746813
O O7 0.863808 0.608783 0.602390
O O8 0.993474 0.585234 0.604715
O O9 0.602043 0.149030 0.122524
O O10 0.640842 0.276806 0.146004
O O11 0.515561 0.241039 0.147330
O O12 0.585220 0.237214 0.000000
O O13 0.848166 0.904291 0.146816
O O14 0.900784 0.955137 0.000000
O O15 0.187284 0.839295 0.500000
O O16 0.258822 0.827599 0.348196
O O17 0.385807 0.222474 0.848030
O O18 0.444702 0.263742 0.000000
O O19 0.819884 0.297389 0.000000
#
# Coordination Sequence:
#
# PCOD9525045 Si02
#       8
#    16  16  16  16  16  16  16  16
#     4   8  12  19  35  57  81 111 152 192 222 261
#     4   9  18  33  49  69  94 120 156 200 242 286
#     4  10  17  28  47  71  95 122 158 196 233 280
#     4   9  18  32  51  70  91 120 156 203 245 272
#     4   8  12  20  35  56  82 116 151 183 223 271
#     4   9  17  28  41  63  98 130 153 188 240 285
#     4   9  15  24  39  62  89 118 152 191 229 268
#     4  10  19  30  45  67  98 130 154 188 240 290
#
# _framework density 21.245898
#
# number of rings (size 3 to 8) (size 9 to 14) (size 15 to 20)
#    0.000    3.000    2.500    1.500    0.000    0.500 
#    0.000    3.125    0.000    4.500    0.000    0.000 
#    0.000    0.000    2.000    0.000    0.000    0.000 
#
# Total GULP energy -356986.823744 kJ/mol
# GULP energy per Si atom -5577.919121 kJ/mol
# Density = 2.119754 g / cm^3
# Si number density = 21.245898 Si / 1000 Ang^3
#
#
#
# Elastic Constant Matrix: (Units=GPa)
#
#
# Indices 1 2 3 4 5 6 
#
# 1 148.6208 102.6731 3.8560 0.0000 0.0000 0.0000
# 2 102.6731 184.9368 -13.1928 0.0000 0.0000 0.0000
# 3 3.8560 -13.1928 60.1650 0.0000 0.0000 0.0000
# 4 0.0000 0.0000 0.0000 13.4216 0.0000 0.0000
# 5 0.0000 0.0000 0.0000 0.0000 4.1812 0.0000
# 6 0.0000 0.0000 0.0000 0.0000 0.0000 26.5740
#
#
#
# Elastic Compliance Matrix: (Units=1/GPa)
#
#
# Indices 1 2 3 4 5 6 
#
# 1 0.011172 -0.006353 -0.002109 0.000000 0.000000 0.000000
# 2 -0.006353 0.009106 0.002404 0.000000 0.000000 0.000000
# 3 -0.002109 0.002404 0.017283 0.000000 0.000000 0.000000
# 4 0.000000 0.000000 0.000000 0.074507 0.000000 0.000000
# 5 0.000000 0.000000 0.000000 0.000000 0.239166 0.000000
# 6 0.000000 0.000000 0.000000 0.000000 0.000000 0.037631
#
#
# Mechanical properties :
#
#
# Convention : Reuss Voigt Hill
#
# Bulk Modulus (GPa) = 39.30090 64.48835 51.89462
# Shear Modulus (GPa) = 12.21113 28.86111 20.53612
#
# Velocity S-wave (km/s) = 2.40000 3.68969 3.11238
# Velocity P-wave (km/s) = 5.12038 6.96929 6.11511
#
# Compressibility (1/GPa) = 0.02544471
#
# Stress axis : x y z
#
# Youngs Moduli (GPa) = 89.50816 109.82021 57.85949
#
# Poissons Ratio (x) = 0.69769 0.12203
# Poissons Ratio (y) = 0.56865 -0.13909
# Poissons Ratio (z) = 0.18878 -0.26399
#
# Static dielectric constant tensor:
#      x y z
#    x 1.725050 0.000000 0.000000 
#    y 0.000000 1.772530 0.000000 
#    z 0.000000 0.000000 1.856560 
# 
# From -- ./inp_files/45544.got.cif
#   From: 2010.05.17/outbox.cif.g08.bks.cpg/sg72_23_cif.got.tgz:45544.got - 2010.06.03 17:03:01.
