data_PCOD9525599
_publ_section_title
;
Structure prediction by ZEFSAII (Michael W. Deem and Ramdas Pophale) SiO2 
 PCOD9525599
Probable space group: I B A M
;
_chemical_formula_sum "Si O2"
_cell_formula_units_Z 80
_cell_length_a 13.279658
_cell_length_b 10.397424
_cell_length_c 24.208977
_cell_angle_alpha 90.000000
_cell_angle_beta 90.000000
_cell_angle_gamma 90.000000
_cell_volume 3342.635975
_symmetry_space_group_name_H-M "I B A M"
_symmetry_group_IT_number 72
_symmetry_cell_setting 'orthorhombic'
loop_
_space_group_symop_operation_xyz
x,y,z
-x,-y,z
x,-y,1/2-z
-x,y,1/2-z
-x,-y,-z
x,y,-z
-x,y,1/2+z
x,-y,1/2+z
1/2+x,1/2+y,1/2+z
1/2-x,1/2-y,1/2+z
1/2+x,1/2-y,-z
1/2-x,1/2+y,-z
1/2-x,1/2-y,1/2-z
1/2+x,1/2+y,1/2-z
1/2-x,1/2+y,z
1/2+x,1/2-y,z
loop_
_atom_site_type_symbol
_atom_site_label
_atom_site_fract_x
_atom_site_fract_y
_atom_site_fract_z
Si Si1 0.538667 0.851773 0.500000
Si Si2 0.120232 0.983408 0.118049
Si Si3 0.727047 0.952958 0.808836
Si Si4 0.078859 0.382267 0.881082
Si Si5 0.434330 0.731201 0.302910
Si Si6 0.095302 0.097718 0.500000
O O1 0.599545 0.833471 0.443036
O O2 0.449836 0.743150 0.500000
O O3 0.500000 0.000000 0.500000
O O4 0.127870 0.875778 0.165254
O O5 0.151707 0.936367 0.057157
O O6 0.189140 0.092729 0.146501
O O7 0.000000 0.000000 0.115070
O O8 0.643651 0.846557 0.791776
O O9 0.767699 0.000000 0.750000
O O10 0.667040 0.060087 0.844191
O O11 0.000000 0.500000 0.887727
O O12 0.015410 0.280520 0.846969
O O13 0.500000 0.691088 0.250000
O O14 0.000000 0.000000 0.500000
#
# Coordination Sequence:
#
# PCOD9525599 Si02
#       6
#     8  16  16  16  16   8
#     4  10  18  37  72 100 125 173 247 296 346 414
#     4  11  27  45  67  95 141 188 232 283 362 434
#     4  11  24  41  65 103 140 176 237 288 349 430
#     4   9  19  36  64  98 129 170 223 296 349 398
#     4  11  22  41  70  97 136 182 227 293 357 422
#     4  10  22  47  66  92 139 193 225 282 366 430
#
# _framework density 23.933205999999998
#
# number of rings (size 3 to 8) (size 9 to 14) (size 15 to 20)
#    0.000    1.600    4.000    0.000    2.800    3.200 
#    0.000    2.000    0.000    0.000    0.000    0.000 
#    0.000    0.000    0.000    0.000    0.000    0.000 
#
# Total GULP energy -223306.543701 kJ/mol
# GULP energy per Si atom -5582.663593 kJ/mol
# Density = 2.387873 g / cm^3
# Si number density = 23.933206 Si / 1000 Ang^3
#
#
#
# Elastic Constant Matrix: (Units=GPa)
#
#
# Indices 1 2 3 4 5 6 
#
# 1 94.0479 1.1885 48.4082 0.0000 0.0000 0.0000
# 2 1.1885 39.3060 16.7479 0.0000 0.0000 0.0000
# 3 48.4082 16.7479 240.2616 0.0000 0.0000 0.0000
# 4 0.0000 0.0000 0.0000 19.5373 0.0000 0.0000
# 5 0.0000 0.0000 0.0000 0.0000 317.2567 0.0000
# 6 0.0000 0.0000 0.0000 0.0000 0.0000 28.4937
#
#
#
# Elastic Compliance Matrix: (Units=1/GPa)
#
#
# Indices 1 2 3 4 5 6 
#
# 1 0.011881 0.000681 -0.002441 0.000000 0.000000 0.000000
# 2 0.000681 0.026259 -0.001968 0.000000 0.000000 0.000000
# 3 -0.002441 -0.001968 0.004791 0.000000 0.000000 0.000000
# 4 0.000000 0.000000 0.000000 0.051184 0.000000 0.000000
# 5 0.000000 0.000000 0.000000 0.000000 0.003152 0.000000
# 6 0.000000 0.000000 0.000000 0.000000 0.000000 0.035095
#
#
# Mechanical properties :
#
#
# Convention : Reuss Voigt Hill
#
# Bulk Modulus (GPa) = 28.18865 56.25609 42.22237
# Shear Modulus (GPa) = 32.97199 93.54226 63.25712
#
# Velocity S-wave (km/s) = 3.71572 6.25856 5.14666
# Velocity P-wave (km/s) = 5.49658 8.70532 7.27994
#
# Compressibility (1/GPa) = 0.03547527
#
# Stress axis : x y z
#
# Youngs Moduli (GPa) = 84.16929 38.08191 208.71817
#
# Poissons Ratio (x) = -0.02593 0.50953
# Poissons Ratio (y) = -0.05731 0.41068
# Poissons Ratio (z) = 0.20548 0.07493
#
# Static dielectric constant tensor:
#      x y z
#    x 1.853130 0.000000 0.000000 
#    y 0.000000 1.709220 0.000000 
#    z 0.000000 0.000000 1.908180 
# 
# From -- ./inp_files/44090.got.cif
#   From: 2010.05.17/outbox.cif.g08.bks.cpg/sg72_23_cif.got.tgz:44090.got - 2010.06.03 17:03:01.
