data_PCOD9525178
_publ_section_title
;
Structure prediction by ZEFSAII (Michael W. Deem and Ramdas Pophale) SiO2 
 PCOD9525178
Probable space group: I B A M
;
_chemical_formula_sum "Si O2"
_cell_formula_units_Z 96
_cell_length_a 16.124639
_cell_length_b 21.007691
_cell_length_c 10.907863
_cell_angle_alpha 90.000000
_cell_angle_beta 90.000000
_cell_angle_gamma 90.000000
_cell_volume 3694.945150
_symmetry_space_group_name_H-M "I B A M"
_symmetry_group_IT_number 72
_symmetry_cell_setting 'orthorhombic'
loop_
_space_group_symop_operation_xyz
x,y,z
-x,-y,z
x,-y,1/2-z
-x,y,1/2-z
-x,-y,-z
x,y,-z
-x,y,1/2+z
x,-y,1/2+z
1/2+x,1/2+y,1/2+z
1/2-x,1/2-y,1/2+z
1/2+x,1/2-y,-z
1/2-x,1/2+y,-z
1/2-x,1/2-y,1/2-z
1/2+x,1/2+y,1/2-z
1/2-x,1/2+y,z
1/2+x,1/2-y,z
loop_
_atom_site_type_symbol
_atom_site_label
_atom_site_fract_x
_atom_site_fract_y
_atom_site_fract_z
Si Si1 0.649540 0.254439 0.768802
Si Si2 0.798687 0.118675 0.000000
Si Si3 0.462419 0.569918 0.128609
Si Si4 0.883734 0.615730 0.769196
Si Si5 0.868290 0.539247 0.000000
Si Si6 0.384193 0.108679 0.000000
Si Si7 0.313560 0.609131 0.773050
Si Si8 0.154460 0.253510 0.500000
O O1 0.750000 0.250000 0.750000
O O2 0.616598 0.188107 0.821972
O O3 0.648472 0.324240 0.825121
O O4 0.611357 0.256315 0.630919
O O5 0.839563 0.105294 0.130046
O O6 0.780280 0.195169 0.000000
O O7 0.717048 0.077281 0.000000
O O8 0.500000 0.500000 0.123351
O O9 0.500000 0.601361 0.250000
O O10 0.363911 0.559380 0.148561
O O11 0.479458 0.602926 0.000000
O O12 0.926657 0.614992 0.635061
O O13 0.785744 0.604689 0.731143
O O14 0.907000 0.564056 0.871688
O O15 0.855588 0.464197 0.000000
O O16 0.323774 0.171351 0.000000
#
# Coordination Sequence:
#
# PCOD9525178 Si02
#       8
#    16   8  16  16   8   8  16   8
#     4   8  14  26  45  70  92 115 149 202 259 318
#     4   8  16  30  49  71  91 114 160 212 264 308
#     4  10  23  42  53  67  90 125 173 227 277 310
#     4   9  18  30  45  70  97 122 155 210 257 313
#     4  10  18  30  38  65  98 129 157 195 255 304
#     4  10  18  28  42  61  94 127 161 197 242 302
#     4   9  17  32  52  71  87 122 164 213 273 316
#     4   8  14  26  42  59  90 124 153 190 244 308
#
# _framework density 25.981439999999999
#
# number of rings (size 3 to 8) (size 9 to 14) (size 15 to 20)
#    0.000    3.000    0.000    1.500    2.333    0.000 
#   15.000    0.000    0.000    0.000    0.000    0.000 
#    0.000    0.000    0.000    0.000    0.000   45.000 
#
# Total GULP energy -267285.110102 kJ/mol
# GULP energy per Si atom -5568.439794 kJ/mol
# Density = 2.592230 g / cm^3
# Si number density = 25.981440 Si / 1000 Ang^3
#
#
#
# Elastic Constant Matrix: (Units=GPa)
#
#
# Indices 1 2 3 4 5 6 
#
# 1 76.6701 21.1233 1.4429 0.0000 0.0000 0.0000
# 2 21.1233 158.2666 3.3369 0.0000 0.0000 0.0000
# 3 1.4429 3.3369 150.3483 0.0000 0.0000 0.0000
# 4 0.0000 0.0000 0.0000 33.5734 0.0000 0.0000
# 5 0.0000 0.0000 0.0000 0.0000 -52.4552 0.0000
# 6 0.0000 0.0000 0.0000 0.0000 0.0000 17.1420
#
#
#
# Elastic Compliance Matrix: (Units=1/GPa)
#
#
# Indices 1 2 3 4 5 6 
#
# 1 0.013542 -0.001806 -0.000090 0.000000 0.000000 0.000000
# 2 -0.001806 0.006562 -0.000128 0.000000 0.000000 0.000000
# 3 -0.000090 -0.000128 0.006655 0.000000 0.000000 0.000000
# 4 0.000000 0.000000 0.000000 0.029786 0.000000 0.000000
# 5 0.000000 0.000000 0.000000 0.000000 -0.019064 0.000000
# 6 0.000000 0.000000 0.000000 0.000000 0.000000 0.058336
#
#
# Mechanical properties :
#
#
# Convention : Reuss Voigt Hill
#
# Bulk Modulus (GPa) = 44.03027 48.56569 46.29798
# Shear Modulus (GPa) = 46.53985 23.61085 35.07535
#
# Velocity S-wave (km/s) = 4.23693 3.01783 3.67824
# Velocity P-wave (km/s) = 6.39680 5.55663 5.99146
#
# Compressibility (1/GPa) = 0.02271165
#
# Stress axis : x y z
#
# Youngs Moduli (GPa) = 73.84427 152.38949 150.26451
#
# Poissons Ratio (x) = 0.27514 0.01351
# Poissons Ratio (y) = 0.13333 0.01928
# Poissons Ratio (z) = 0.00664 0.01955
#
# Static dielectric constant tensor:
#      x y z
#    x 2.162160 0.000000 0.000000 
#    y 0.000000 2.078950 0.000000 
#    z 0.000000 0.000000 2.145420 
# 
# From -- ./inp_files/14879.got.cif
#   From: 2010.05.17/outbox.cif.g08.bks.cpg/sg72_8_cif.got.tgz:14879.got - 2010.06.03 17:03:01.
