data_PCOD9525078
_publ_section_title
;
Structure prediction by ZEFSAII (Michael W. Deem and Ramdas Pophale) SiO2 
 PCOD9525078
Probable space group: I B A M
;
_chemical_formula_sum "Si O2"
_cell_formula_units_Z 56
_cell_length_a 25.887086
_cell_length_b 5.525707
_cell_length_c 18.928941
_cell_angle_alpha 90.000000
_cell_angle_beta 90.000000
_cell_angle_gamma 90.000000
_cell_volume 2707.679998
_symmetry_space_group_name_H-M "I B A M"
_symmetry_group_IT_number 72
_symmetry_cell_setting 'orthorhombic'
loop_
_space_group_symop_operation_xyz
x,y,z
-x,-y,z
x,-y,1/2-z
-x,y,1/2-z
-x,-y,-z
x,y,-z
-x,y,1/2+z
x,-y,1/2+z
1/2+x,1/2+y,1/2+z
1/2-x,1/2-y,1/2+z
1/2+x,1/2-y,-z
1/2-x,1/2+y,-z
1/2-x,1/2-y,1/2-z
1/2+x,1/2+y,1/2-z
1/2-x,1/2+y,z
1/2+x,1/2-y,z
loop_
_atom_site_type_symbol
_atom_site_label
_atom_site_fract_x
_atom_site_fract_y
_atom_site_fract_z
Si Si1 0.968695 0.752521 0.583556
Si Si2 0.269234 0.041089 0.112488
Si Si3 0.872215 0.625515 0.678052
Si Si4 0.204102 0.000000 0.750000
O O1 0.956048 0.767042 0.500000
O O2 0.917920 0.727913 0.630975
O O3 0.000000 0.500000 0.593904
O O4 0.000000 0.000000 0.600955
O O5 0.258300 0.305870 0.078986
O O6 0.329880 0.987103 0.128396
O O7 0.240714 0.093039 0.187840
O O8 0.892507 0.500000 0.750000
O O9 0.835050 0.825041 0.710741
#
# Coordination Sequence:
#
# PCOD9525078 Si02
#       4
#    16  16  16   8
#     4  10  25  47  63  79 115 167 207 247 305 362
#     4  10  17  30  50  83 122 157 177 219 295 371
#     4  11  20  34  61  91 118 151 201 246 300 347
#     4  10  18  32  51  90 131 152 176 230 308 366
#
# _framework density 20.681912000000001
#
# number of rings (size 3 to 8) (size 9 to 14) (size 15 to 20)
#    0.000    1.714    4.286    1.714    4.000    0.571 
#    0.000    0.000    0.000    6.857    0.000    0.000 
#    0.000    0.000    0.000    0.000    0.000    0.000 
#
# Total GULP energy -155890.582275 kJ/mol
# GULP energy per Si atom -5567.520796 kJ/mol
# Density = 2.063484 g / cm^3
# Si number density = 20.681912 Si / 1000 Ang^3
#
#
#
# Elastic Constant Matrix: (Units=GPa)
#
#
# Indices 1 2 3 4 5 6 
#
# 1 127.1062 53.9747 76.5718 0.0000 0.0000 0.0000
# 2 53.9747 130.8411 39.9274 0.0000 0.0000 0.0000
# 3 76.5718 39.9274 92.8248 0.0000 0.0000 0.0000
# 4 0.0000 0.0000 0.0000 -22.5831 0.0000 0.0000
# 5 0.0000 0.0000 0.0000 0.0000 279.8814 0.0000
# 6 0.0000 0.0000 0.0000 0.0000 0.0000 28.9944
#
#
#
# Elastic Compliance Matrix: (Units=1/GPa)
#
#
# Indices 1 2 3 4 5 6 
#
# 1 0.016653 -0.003082 -0.012412 0.000000 0.000000 0.000000
# 2 -0.003082 0.009368 -0.001487 0.000000 0.000000 0.000000
# 3 -0.012412 -0.001487 0.021651 0.000000 0.000000 0.000000
# 4 0.000000 0.000000 0.000000 -0.044281 0.000000 0.000000
# 5 0.000000 0.000000 0.000000 0.000000 0.003573 0.000000
# 6 0.000000 0.000000 0.000000 0.000000 0.000000 0.034489
#
#
# Mechanical properties :
#
#
# Convention : Reuss Voigt Hill
#
# Bulk Modulus (GPa) = 72.93585 76.85776 74.89680
# Shear Modulus (GPa) = 62.51075 69.27843 65.89459
#
# Velocity S-wave (km/s) = 5.50368 5.79395 5.65068
# Velocity P-wave (km/s) = 8.70226 9.05551 8.88064
#
# Compressibility (1/GPa) = 0.01371068
#
# Stress axis : x y z
#
# Youngs Moduli (GPa) = 60.04768 106.74473 46.18708
#
# Poissons Ratio (x) = 0.32902 0.57326
# Poissons Ratio (y) = 0.18509 0.06868
# Poissons Ratio (z) = 0.74529 0.15872
#
# Static dielectric constant tensor:
#      x y z
#    x 1.704560 0.000000 0.000000 
#    y 0.000000 2.005270 0.000000 
#    z 0.000000 0.000000 1.763440 
# 
# From -- ./inp_files/26898.got.cif
#   From: 2010.05.17/outbox.cif.g08.bks.cpg/sg72_14_cif.got.tgz:26898.got - 2010.06.03 17:03:01.
