data_PCOD9525960
_publ_section_title
;
Structure prediction by ZEFSAII (Michael W. Deem and Ramdas Pophale) SiO2 
 PCOD9525960
Probable space group: I B A M
;
_chemical_formula_sum "Si O2"
_cell_formula_units_Z 64
_cell_length_a 9.639030
_cell_length_b 43.492092
_cell_length_c 8.581578
_cell_angle_alpha 90.000000
_cell_angle_beta 90.000000
_cell_angle_gamma 90.000000
_cell_volume 3597.582684
_symmetry_space_group_name_H-M "I B A M"
_symmetry_group_IT_number 72
_symmetry_cell_setting 'orthorhombic'
loop_
_space_group_symop_operation_xyz
x,y,z
-x,-y,z
x,-y,1/2-z
-x,y,1/2-z
-x,-y,-z
x,y,-z
-x,y,1/2+z
x,-y,1/2+z
1/2+x,1/2+y,1/2+z
1/2-x,1/2-y,1/2+z
1/2+x,1/2-y,-z
1/2-x,1/2+y,-z
1/2-x,1/2-y,1/2-z
1/2+x,1/2+y,1/2-z
1/2-x,1/2+y,z
1/2+x,1/2-y,z
loop_
_atom_site_type_symbol
_atom_site_label
_atom_site_fract_x
_atom_site_fract_y
_atom_site_fract_z
Si Si1 0.657583 0.912050 0.812202
Si Si2 0.844217 0.033005 0.185920
Si Si3 0.657226 0.222451 0.312772
Si Si4 0.343006 0.844750 0.687509
O O1 0.500000 0.914205 0.750000
O O2 0.748318 0.939384 0.743621
O O3 0.715447 0.878068 0.765332
O O4 0.656149 0.913957 0.000000
O O5 0.000000 0.037350 0.250000
O O6 0.794199 0.000000 0.250000
O O7 0.848008 0.031929 0.000000
O O8 0.500000 0.225010 0.250000
O O9 0.653651 0.223634 0.500000
O O10 0.750000 0.250000 0.250000
O O11 0.715091 0.188553 0.264188
O O12 0.500000 0.844749 0.750000
O O13 0.346133 0.844769 0.500000
#
# Coordination Sequence:
#
# PCOD9525960 Si02
#       4
#    16  16  16  16
#     4  10  19  34  55  81 107 134 169 213 257 303
#     4  11  22  38  57  78 104 138 173 209 253 306
#     4  10  19  33  52  76 103 136 173 213 257 306
#     4   8  16  30  50  73 101 133 168 207 254 305
#
# _framework density 17.789724
#
# number of rings (size 3 to 8) (size 9 to 14) (size 15 to 20)
#    0.000    2.250    0.000    4.500    0.000    2.500 
#    0.000    3.750    0.000    0.000    0.000    0.000 
#    0.000    0.000    0.000    0.000    0.000    0.000 
#
# Total GULP energy -178339.637691 kJ/mol
# GULP energy per Si atom -5573.113678 kJ/mol
# Density = 1.774923 g / cm^3
# Si number density = 17.789724 Si / 1000 Ang^3
#
#
#
# Elastic Constant Matrix: (Units=GPa)
#
#
# Indices 1 2 3 4 5 6 
#
# 1 46.9667 78.7109 27.3960 -0.0131 -0.0004 0.0012
# 2 78.7109 240.9248 66.9746 -0.0456 -0.0146 -0.0105
# 3 27.3960 66.9746 90.9136 -0.0300 -0.0054 -0.0066
# 4 -0.0131 -0.0456 -0.0300 26.1916 -0.0181 -0.0144
# 5 -0.0004 -0.0146 -0.0054 -0.0181 27.7414 -0.0071
# 6 0.0012 -0.0105 -0.0066 -0.0144 -0.0071 33.0515
#
#
#
# Elastic Compliance Matrix: (Units=1/GPa)
#
#
# Indices 1 2 3 4 5 6 
#
# 1 0.048006 -0.014666 -0.003662 -0.000006 -0.000008 -0.000007
# 2 -0.014666 0.009700 -0.002726 0.000006 0.000004 0.000003
# 3 -0.003662 -0.002726 0.014112 0.000010 0.000001 0.000002
# 4 -0.000006 0.000006 0.000010 0.038180 0.000025 0.000017
# 5 -0.000008 0.000004 0.000001 0.000025 0.036047 0.000008
# 6 -0.000007 0.000003 0.000002 0.000017 0.000008 0.030256
#
#
# Mechanical properties :
#
#
# Convention : Reuss Voigt Hill
#
# Bulk Modulus (GPa) = 33.66006 80.55202 57.10604
# Shear Modulus (GPa) = 21.89986 31.11179 26.50582
#
# Velocity S-wave (km/s) = 3.51242 4.18648 3.86418
# Velocity P-wave (km/s) = 5.95077 8.29139 7.21661
#
# Compressibility (1/GPa) = 0.02970880
#
# Stress axis : x y z
#
# Youngs Moduli (GPa) = 20.83081 103.09398 70.86406
#
# Poissons Ratio (x) = 1.51194 0.25952
# Poissons Ratio (y) = 0.30550 0.19320
# Poissons Ratio (z) = 0.07629 0.28108
#
# Static dielectric constant tensor:
#      x y z
#    x 1.558070 0.000000 0.000000 
#    y 0.000000 1.663980 0.000000 
#    z 0.000000 0.000000 1.599630 
# 
# From -- ./inp_files/2613.got.cif
#   From: 2010.05.17/outbox.cif.g08.bks.cpg/sg72_2_cif.got.tgz:2613.got - 2010.06.03 17:03:01.
