data_PCOD9525698
_publ_section_title
;
Structure prediction by ZEFSAII (Michael W. Deem and Ramdas Pophale) SiO2 
 PCOD9525698
Probable space group: I B A M
;
_chemical_formula_sum "Si O2"
_cell_formula_units_Z 96
_cell_length_a 20.028524
_cell_length_b 16.123074
_cell_length_c 11.501109
_cell_angle_alpha 90.000000
_cell_angle_beta 90.000000
_cell_angle_gamma 90.000000
_cell_volume 3713.953927
_symmetry_space_group_name_H-M "I B A M"
_symmetry_group_IT_number 72
_symmetry_cell_setting 'orthorhombic'
loop_
_space_group_symop_operation_xyz
x,y,z
-x,-y,z
x,-y,1/2-z
-x,y,1/2-z
-x,-y,-z
x,y,-z
-x,y,1/2+z
x,-y,1/2+z
1/2+x,1/2+y,1/2+z
1/2-x,1/2-y,1/2+z
1/2+x,1/2-y,-z
1/2-x,1/2+y,-z
1/2-x,1/2-y,1/2-z
1/2+x,1/2+y,1/2-z
1/2-x,1/2+y,z
1/2+x,1/2-y,z
loop_
_atom_site_type_symbol
_atom_site_label
_atom_site_fract_x
_atom_site_fract_y
_atom_site_fract_z
Si Si1 0.265010 0.300939 0.625256
Si Si2 0.638395 0.400668 0.249535
Si Si3 0.418116 0.401894 0.000000
Si Si4 0.108560 0.316613 0.374944
Si Si5 0.660018 0.998626 0.624309
Si Si6 0.575447 0.399444 0.000000
Si Si7 0.609983 0.814947 0.625194
O O1 0.277640 0.342515 0.500000
O O2 0.289694 0.361387 0.725448
O O3 0.186317 0.287912 0.627874
O O4 0.314355 0.222321 0.626063
O O5 0.637263 0.500000 0.250000
O O6 0.611412 0.373085 0.375698
O O7 0.600556 0.372088 0.129681
O O8 0.496613 0.387409 0.000000
O O9 0.409057 0.501889 0.000000
O O10 0.079481 0.291358 0.500000
O O11 0.116350 0.417217 0.377107
O O12 0.078930 0.292857 0.250072
O O13 0.698230 0.997373 0.500000
O O14 0.617196 0.914477 0.623904
O O15 0.695136 0.000000 0.750000
O O16 0.580517 0.789208 0.500000
#
# Coordination Sequence:
#
# PCOD9525698 Si02
#       7
#    16  16   8  16  16   8  16
#     4  10  19  31  43  57  86 117 138 172 222 263
#     4  10  19  31  46  65  88 111 139 173 213 252
#     4   9  18  30  48  72  83 102 141 177 198 241
#     4   9  17  29  43  58  78 108 148 188 222 250
#     4   8  14  25  41  57  72  94 137 182 210 241
#     4   9  16  32  52  64  85 110 135 169 208 247
#     4   9  17  29  43  58  76 107 148 179 210 259
#
# _framework density 25.848462999999999
#
# number of rings (size 3 to 8) (size 9 to 14) (size 15 to 20)
#    0.000    2.833    0.833    1.000    0.000    4.000 
#    3.000    0.000    0.000    0.000    0.000    0.000 
#    0.000    0.000    0.000    0.000    0.000   45.000 
#
# Total GULP energy -267748.093868 kJ/mol
# GULP energy per Si atom -5578.085289 kJ/mol
# Density = 2.578963 g / cm^3
# Si number density = 25.848463 Si / 1000 Ang^3
#
#
#
# Elastic Constant Matrix: (Units=GPa)
#
#
# Indices 1 2 3 4 5 6 
#
# 1 61.2667 2.1425 59.1897 0.0000 0.0000 0.0000
# 2 2.1425 83.4537 53.1951 0.0000 0.0000 0.0000
# 3 59.1897 53.1951 347.3604 0.0000 0.0000 0.0000
# 4 0.0000 0.0000 0.0000 50.2149 0.0000 0.0000
# 5 0.0000 0.0000 0.0000 0.0000 7.9415 0.0000
# 6 0.0000 0.0000 0.0000 0.0000 0.0000 11.4162
#
#
#
# Elastic Compliance Matrix: (Units=1/GPa)
#
#
# Indices 1 2 3 4 5 6 
#
# 1 0.019784 0.001818 -0.003650 0.000000 0.000000 0.000000
# 2 0.001818 0.013446 -0.002369 0.000000 0.000000 0.000000
# 3 -0.003650 -0.002369 0.003864 0.000000 0.000000 0.000000
# 4 0.000000 0.000000 0.000000 0.019914 0.000000 0.000000
# 5 0.000000 0.000000 0.000000 0.000000 0.125921 0.000000
# 6 0.000000 0.000000 0.000000 0.000000 0.000000 0.087595
#
#
# Mechanical properties :
#
#
# Convention : Reuss Voigt Hill
#
# Bulk Modulus (GPa) = 34.85100 80.12615 57.48858
# Shear Modulus (GPa) = 17.33166 39.08475 28.20821
#
# Velocity S-wave (km/s) = 2.59223 3.89276 3.30705
# Velocity P-wave (km/s) = 4.74043 7.16034 6.07215
#
# Compressibility (1/GPa) = 0.02869358
#
# Stress axis : x y z
#
# Youngs Moduli (GPa) = 50.54466 74.37126 258.82896
#
# Poissons Ratio (x) = -0.13524 0.94466
# Poissons Ratio (y) = -0.09191 0.61317
# Poissons Ratio (z) = 0.18447 0.17619
#
# Static dielectric constant tensor:
#      x y z
#    x 1.929510 0.000000 0.000000 
#    y 0.000000 2.080150 0.000000 
#    z 0.000000 0.000000 2.132040 
# 
# From -- ./inp_files/15544.got.cif
#   From: 2010.05.17/outbox.cif.g08.bks.cpg/sg72_8_cif.got.tgz:15544.got - 2010.06.03 17:03:01.
