data_PCOD9525486
_publ_section_title
;
Structure prediction by ZEFSAII (Michael W. Deem and Ramdas Pophale) SiO2 
 PCOD9525486
Probable space group: I B A M
;
_chemical_formula_sum "Si O2"
_cell_formula_units_Z 88
_cell_length_a 22.984143
_cell_length_b 8.254191
_cell_length_c 19.126055
_cell_angle_alpha 90.000000
_cell_angle_beta 90.000000
_cell_angle_gamma 90.000000
_cell_volume 3628.509208
_symmetry_space_group_name_H-M "I B A M"
_symmetry_group_IT_number 72
_symmetry_cell_setting 'orthorhombic'
loop_
_space_group_symop_operation_xyz
x,y,z
-x,-y,z
x,-y,1/2-z
-x,y,1/2-z
-x,-y,-z
x,y,-z
-x,y,1/2+z
x,-y,1/2+z
1/2+x,1/2+y,1/2+z
1/2-x,1/2-y,1/2+z
1/2+x,1/2-y,-z
1/2-x,1/2+y,-z
1/2-x,1/2-y,1/2-z
1/2+x,1/2+y,1/2-z
1/2-x,1/2+y,z
1/2+x,1/2-y,z
loop_
_atom_site_type_symbol
_atom_site_label
_atom_site_fract_x
_atom_site_fract_y
_atom_site_fract_z
Si Si1 0.422744 0.114586 0.684770
Si Si2 0.160881 0.835069 0.379344
Si Si3 0.481786 0.329311 0.136541
Si Si4 0.380135 0.151125 0.916637
Si Si5 0.437242 0.650682 0.000000
Si Si6 0.263167 0.020460 0.417605
O O1 0.376972 0.263539 0.684255
O O2 0.486678 0.187097 0.678001
O O3 0.412093 0.000000 0.750000
O O4 0.410471 0.011694 0.613825
O O5 0.113208 0.865485 0.439148
O O6 0.205595 0.982966 0.373604
O O7 0.203035 0.686414 0.402570
O O8 0.500000 0.500000 0.168306
O O9 0.414306 0.292638 0.123376
O O10 0.512476 0.328561 0.060752
O O11 0.312260 0.118252 0.904813
O O12 0.388631 0.165054 0.000000
O O13 0.247601 0.016433 0.500000
#
# Coordination Sequence:
#
# PCOD9525486 Si02
#       6
#    16  16  16  16   8  16
#     4  10  24  44  65  88 127 175 231 273 337 409
#     4  10  20  36  59  87 126 172 216 270 324 390
#     4  11  23  38  62  95 129 163 216 276 343 397
#     4  10  22  38  61  91 129 173 217 265 334 425
#     4  10  19  34  55  90 131 166 201 258 335 398
#     4  10  18  33  54  88 123 159 213 259 328 387
#
# _framework density 24.252383999999999
#
# number of rings (size 3 to 8) (size 9 to 14) (size 15 to 20)
#    0.000    1.818    2.727    0.818    7.636    5.091 
#    3.273    5.455    0.000    0.000    0.000    0.000 
#    0.000    0.000    0.000    0.000    0.000    0.909 
#
# Total GULP energy -245074.078111 kJ/mol
# GULP energy per Si atom -5569.865412 kJ/mol
# Density = 2.419718 g / cm^3
# Si number density = 24.252384 Si / 1000 Ang^3
#
#
#
# Elastic Constant Matrix: (Units=GPa)
#
#
# Indices 1 2 3 4 5 6 
#
# 1 109.1264 1.9462 5.4512 0.0000 0.0000 0.0000
# 2 1.9462 57.7285 0.0693 0.0000 0.0000 0.0000
# 3 5.4512 0.0693 67.3992 0.0000 0.0000 0.0000
# 4 0.0000 0.0000 0.0000 -1.0998 0.0000 0.0000
# 5 0.0000 0.0000 0.0000 0.0000 8.9984 0.0000
# 6 0.0000 0.0000 0.0000 0.0000 0.0000 41.0764
#
#
#
# Elastic Compliance Matrix: (Units=1/GPa)
#
#
# Indices 1 2 3 4 5 6 
#
# 1 0.009206 -0.000309 -0.000744 0.000000 0.000000 0.000000
# 2 -0.000309 0.017333 0.000007 0.000000 0.000000 0.000000
# 3 -0.000744 0.000007 0.014897 0.000000 0.000000 0.000000
# 4 0.000000 0.000000 0.000000 -0.909251 0.000000 0.000000
# 5 0.000000 0.000000 0.000000 0.000000 0.111130 0.000000
# 6 0.000000 0.000000 0.000000 0.000000 0.000000 0.024345
#
#
# Mechanical properties :
#
#
# Convention : Reuss Voigt Hill
#
# Bulk Modulus (GPa) = 25.41727 27.68750 26.55239
# Shear Modulus (GPa) = -6.97222 24.91416 8.97097
#
# Velocity S-wave (km/s) = -1.69738 3.20861 1.92537
# Velocity P-wave (km/s) = 2.58101 5.01678 3.98934
#
# Compressibility (1/GPa) = 0.03934332
#
# Stress axis : x y z
#
# Youngs Moduli (GPa) = 108.62025 57.69379 67.12685
#
# Poissons Ratio (x) = 0.01786 0.04996
# Poissons Ratio (y) = 0.03362 -0.00048
# Poissons Ratio (z) = 0.08084 -0.00042
#
# Static dielectric constant tensor:
#      x y z
#    x 1.915760 0.000000 0.000000 
#    y 0.000000 2.126060 0.000000 
#    z 0.000000 0.000000 1.864930 
# 
# From -- ./inp_files/40178.got.cif
#   From: 2010.05.17/outbox.cif.g08.bks.cpg/sg72_21_cif.got.tgz:40178.got - 2010.06.03 17:03:01.
