data_PCOD9525705
_publ_section_title
;
Structure prediction by ZEFSAII (Michael W. Deem and Ramdas Pophale) SiO2 
 PCOD9525705
Probable space group: I B A M
;
_chemical_formula_sum "Si O2"
_cell_formula_units_Z 88
_cell_length_a 18.766045
_cell_length_b 28.168025
_cell_length_c 9.840956
_cell_angle_alpha 90.000000
_cell_angle_beta 90.000000
_cell_angle_gamma 90.000000
_cell_volume 5201.953203
_symmetry_space_group_name_H-M "I B A M"
_symmetry_group_IT_number 72
_symmetry_cell_setting 'orthorhombic'
loop_
_space_group_symop_operation_xyz
x,y,z
-x,-y,z
x,-y,1/2-z
-x,y,1/2-z
-x,-y,-z
x,y,-z
-x,y,1/2+z
x,-y,1/2+z
1/2+x,1/2+y,1/2+z
1/2-x,1/2-y,1/2+z
1/2+x,1/2-y,-z
1/2-x,1/2+y,-z
1/2-x,1/2-y,1/2-z
1/2+x,1/2+y,1/2-z
1/2-x,1/2+y,z
1/2+x,1/2-y,z
loop_
_atom_site_type_symbol
_atom_site_label
_atom_site_fract_x
_atom_site_fract_y
_atom_site_fract_z
Si Si1 0.500000 0.876835 0.250000
Si Si2 0.775825 0.134665 0.156852
Si Si3 0.180021 0.761890 0.160478
Si Si4 0.096627 0.458999 0.352000
Si Si5 0.266832 0.453574 0.660108
Si Si6 0.124016 0.687125 0.346515
O O1 0.550987 0.911831 0.165865
O O2 0.446253 0.844462 0.164927
O O3 0.825661 0.181204 0.170034
O O4 0.793382 0.093623 0.263250
O O5 0.694654 0.154494 0.177063
O O6 0.779152 0.117513 0.000000
O O7 0.250000 0.750000 0.250000
O O8 0.122633 0.728536 0.233873
O O9 0.188069 0.750420 0.000000
O O10 0.076639 0.500000 0.250000
O O11 0.085940 0.479514 0.500000
O O12 0.180603 0.449173 0.334906
O O13 0.285668 0.500000 0.750000
O O14 0.286545 0.457200 0.500000
O O15 0.131917 0.706373 0.500000
#
# Coordination Sequence:
#
# PCOD9525705 Si02
#       6
#     8  16  16  16  16  16
#     4  12  21  34  48  66  90 122 161 202 238 278
#     4   9  17  32  49  66  86 114 148 189 234 280
#     4   9  18  32  50  69  89 112 145 190 236 283
#     4  10  22  35  46  61  83 118 161 201 239 276
#     4  10  19  31  46  66  89 118 152 192 233 276
#     4  10  21  33  47  67  90 118 154 196 239 281
#
# _framework density 16.916723000000001
#
# number of rings (size 3 to 8) (size 9 to 14) (size 15 to 20)
#    0.000    2.182    1.818    3.000    0.000    8.000 
#    0.000    0.000    0.000    0.000    0.000    0.000 
#    0.000    0.000    0.000    0.818    0.000   12.364 
#
# Total GULP energy -245111.590772 kJ/mol
# GULP energy per Si atom -5570.717972 kJ/mol
# Density = 1.687822 g / cm^3
# Si number density = 16.916723 Si / 1000 Ang^3
#
#
#
# Elastic Constant Matrix: (Units=GPa)
#
#
# Indices 1 2 3 4 5 6 
#
# 1 12.6877 16.7074 10.1358 0.0000 0.0000 0.0000
# 2 16.7074 102.9064 84.8088 0.0000 0.0000 0.0000
# 3 10.1358 84.8088 153.3629 0.0000 0.0002 0.0000
# 4 0.0000 0.0000 0.0000 33.2776 0.0000 0.0000
# 5 0.0000 0.0000 0.0002 0.0000 34.3272 0.0000
# 6 0.0000 0.0000 0.0000 0.0000 0.0000 23.0129
#
#
#
# Elastic Compliance Matrix: (Units=1/GPa)
#
#
# Indices 1 2 3 4 5 6 
#
# 1 0.101864 -0.020193 0.004434 0.000000 0.000000 0.000000
# 2 -0.020193 0.021857 -0.010753 0.000000 0.000000 0.000000
# 3 0.004434 -0.010753 0.012174 0.000000 0.000000 0.000000
# 4 0.000000 0.000000 0.000000 0.030050 0.000000 0.000000
# 5 0.000000 0.000000 0.000000 0.000000 0.029131 0.000000
# 6 0.000000 0.000000 0.000000 0.000000 0.000000 0.043454
#
#
# Mechanical properties :
#
#
# Convention : Reuss Voigt Hill
#
# Bulk Modulus (GPa) = 12.06660 54.69568 33.38114
# Shear Modulus (GPa) = 15.66528 28.61054 22.13791
#
# Velocity S-wave (km/s) = 3.04636 4.11695 3.62144
# Velocity P-wave (km/s) = 4.41839 7.41630 6.10425
#
# Compressibility (1/GPa) = 0.08287340
#
# Stress axis : x y z
#
# Youngs Moduli (GPa) = 9.81699 45.75093 82.14551
#
# Poissons Ratio (x) = 0.92383 -0.36425
# Poissons Ratio (y) = 0.19823 0.88327
# Poissons Ratio (z) = -0.04353 0.49194
#
# Static dielectric constant tensor:
#      x y z
#    x 1.584230 0.000000 0.000000 
#    y 0.000000 1.593250 0.000000 
#    z 0.000000 0.000000 1.595480 
# 
# From -- ./inp_files/6290.got.cif
#   From: 2010.05.17/outbox.cif.g08.bks.cpg/sg72_4_cif.got.tgz:6290.got - 2010.06.03 17:03:01.
