data_PCOD9525240
_publ_section_title
;
Structure prediction by ZEFSAII (Michael W. Deem and Ramdas Pophale) SiO2 
 PCOD9525240
Probable space group: I B A M
;
_chemical_formula_sum "Si O2"
_cell_formula_units_Z 96
_cell_length_a 23.368704
_cell_length_b 16.003626
_cell_length_c 11.512605
_cell_angle_alpha 90.000000
_cell_angle_beta 90.000000
_cell_angle_gamma 90.000000
_cell_volume 4305.530056
_symmetry_space_group_name_H-M "I B A M"
_symmetry_group_IT_number 72
_symmetry_cell_setting 'orthorhombic'
loop_
_space_group_symop_operation_xyz
x,y,z
-x,-y,z
x,-y,1/2-z
-x,y,1/2-z
-x,-y,-z
x,y,-z
-x,y,1/2+z
x,-y,1/2+z
1/2+x,1/2+y,1/2+z
1/2-x,1/2-y,1/2+z
1/2+x,1/2-y,-z
1/2-x,1/2+y,-z
1/2-x,1/2-y,1/2-z
1/2+x,1/2+y,1/2-z
1/2-x,1/2+y,z
1/2+x,1/2-y,z
loop_
_atom_site_type_symbol
_atom_site_label
_atom_site_fract_x
_atom_site_fract_y
_atom_site_fract_z
Si Si1 0.116313 0.042460 0.369883
Si Si2 0.721547 0.425897 0.132489
Si Si3 0.136045 0.201085 0.245413
Si Si4 0.527355 0.883414 0.129000
Si Si5 0.482602 0.693464 0.128712
Si Si6 0.842374 0.628296 0.366171
O O1 0.095020 0.019325 0.500000
O O2 0.113719 0.141626 0.350625
O O3 0.092211 0.000000 0.250000
O O4 0.182379 0.009028 0.366713
O O5 0.688105 0.353543 0.198570
O O6 0.788239 0.429156 0.163510
O O7 0.719903 0.398490 0.000000
O O8 0.085127 0.208610 0.151299
O O9 0.156015 0.290630 0.286048
O O10 0.500000 0.910984 0.250000
O O11 0.516873 0.782083 0.129173
O O12 0.593791 0.907899 0.138312
O O13 0.505792 0.908730 0.000000
O O14 0.500000 0.649000 0.250000
O O15 0.490012 0.655852 0.000000
O O16 0.835987 0.656148 0.500000
#
# Coordination Sequence:
#
# PCOD9525240 Si02
#       6
#    16  16  16  16  16  16
#     4   9  19  34  53  73 101 140 181 220 263 321
#     4   9  19  33  47  70 103 140 179 219 269 325
#     4  11  18  30  51  77 105 141 180 222 272 319
#     4   9  16  29  46  70 103 141 173 210 258 310
#     4  10  19  31  49  76 110 146 182 225 271 316
#     4  10  18  29  48  74 105 140 178 219 266 322
#
# _framework density 22.296907000000001
#
# number of rings (size 3 to 8) (size 9 to 14) (size 15 to 20)
#    0.000    2.333    3.333    1.500    0.000    1.333 
#    0.000    0.000    0.000    9.500    0.000   16.333 
#    0.000    6.000    0.000   65.000    8.333    0.000 
#
# Total GULP energy -267241.522640 kJ/mol
# GULP energy per Si atom -5567.531722 kJ/mol
# Density = 2.224616 g / cm^3
# Si number density = 22.296907 Si / 1000 Ang^3
#
#
#
# Elastic Constant Matrix: (Units=GPa)
#
#
# Indices 1 2 3 4 5 6 
#
# 1 96.8013 -1.1927 43.7620 0.0000 0.0000 0.0000
# 2 -1.1927 46.1335 31.4128 0.0000 0.0000 0.0000
# 3 43.7620 31.4128 198.4377 0.0000 0.0000 0.0000
# 4 0.0000 0.0000 0.0000 74.8283 0.0000 0.0000
# 5 0.0000 0.0000 0.0000 0.0000 29.4412 0.0000
# 6 0.0000 0.0000 0.0000 0.0000 0.0000 17.6060
#
#
#
# Elastic Compliance Matrix: (Units=1/GPa)
#
#
# Indices 1 2 3 4 5 6 
#
# 1 0.011689 0.002306 -0.002943 0.000000 0.000000 0.000000
# 2 0.002306 0.024750 -0.004426 0.000000 0.000000 0.000000
# 3 -0.002943 -0.004426 0.006389 0.000000 0.000000 0.000000
# 4 0.000000 0.000000 0.000000 0.013364 0.000000 0.000000
# 5 0.000000 0.000000 0.000000 0.000000 0.033966 0.000000
# 6 0.000000 0.000000 0.000000 0.000000 0.000000 0.056799
#
#
# Mechanical properties :
#
#
# Convention : Reuss Voigt Hill
#
# Bulk Modulus (GPa) = 30.57954 54.37076 42.47515
# Shear Modulus (GPa) = 29.76470 42.20111 35.98290
#
# Velocity S-wave (km/s) = 3.65763 4.35522 4.02158
# Velocity P-wave (km/s) = 5.61980 7.05184 6.37615
#
# Compressibility (1/GPa) = 0.03270160
#
# Stress axis : x y z
#
# Youngs Moduli (GPa) = 85.54834 40.40422 156.51665
#
# Poissons Ratio (x) = -0.09318 0.46062
# Poissons Ratio (y) = -0.19728 0.69282
# Poissons Ratio (z) = 0.25176 0.17885
#
# Static dielectric constant tensor:
#      x y z
#    x 1.896610 0.000000 0.000000 
#    y 0.000000 1.794240 0.000000 
#    z 0.000000 0.000000 1.876810 
# 
# From -- ./inp_files/13891.got.cif
#   From: 2010.05.17/outbox.cif.g08.bks.cpg/sg72_7_cif.got.tgz:13891.got - 2010.06.03 17:03:01.
