data_PCOD9525084
_publ_section_title
;
Structure prediction by ZEFSAII (Michael W. Deem and Ramdas Pophale) SiO2 
 PCOD9525084
Probable space group: I B A M
;
_chemical_formula_sum "Si O2"
_cell_formula_units_Z 72
_cell_length_a 7.939034
_cell_length_b 23.717622
_cell_length_c 19.034502
_cell_angle_alpha 90.000000
_cell_angle_beta 90.000000
_cell_angle_gamma 90.000000
_cell_volume 3584.101696
_symmetry_space_group_name_H-M "I B A M"
_symmetry_group_IT_number 72
_symmetry_cell_setting 'orthorhombic'
loop_
_space_group_symop_operation_xyz
x,y,z
-x,-y,z
x,-y,1/2-z
-x,y,1/2-z
-x,-y,-z
x,y,-z
-x,y,1/2+z
x,-y,1/2+z
1/2+x,1/2+y,1/2+z
1/2-x,1/2-y,1/2+z
1/2+x,1/2-y,-z
1/2-x,1/2+y,-z
1/2-x,1/2-y,1/2-z
1/2+x,1/2+y,1/2-z
1/2-x,1/2+y,z
1/2+x,1/2-y,z
loop_
_atom_site_type_symbol
_atom_site_label
_atom_site_fract_x
_atom_site_fract_y
_atom_site_fract_z
Si Si1 0.288857 0.901561 0.154385
Si Si2 0.114946 0.912022 0.354222
Si Si3 0.373171 0.920003 0.000000
Si Si4 0.788831 0.500000 0.250000
Si Si5 0.742407 0.459173 0.000000
Si Si6 0.299472 0.685675 0.763134
O O1 0.308087 0.849304 0.206325
O O2 0.086625 0.910097 0.151292
O O3 0.369313 0.956847 0.192043
O O4 0.347692 0.890735 0.075201
O O5 0.161015 0.934175 0.430510
O O6 0.205163 0.852266 0.334491
O O7 0.182376 0.956838 0.297491
O O8 0.562772 0.941929 0.000000
O O9 0.244676 0.973088 0.000000
O O10 0.500000 0.682998 0.750000
O O11 0.250000 0.750000 0.750000
#
# Coordination Sequence:
#
# PCOD9525084 Si02
#       6
#    16  16   8   8   8  16
#     4  10  19  34  57  81 105 141 184 221 262 320
#     4  10  19  34  57  81 105 141 184 221 262 320
#     4  11  23  35  48  79 120 149 174 212 271 332
#     4  10  17  30  55  82 103 132 179 226 263 308
#     4  11  23  35  48  79 120 149 174 212 271 332
#     4   9  20  37  59  84 107 136 183 229 269 318
#
# _framework density 20.088716999999999
#
# number of rings (size 3 to 8) (size 9 to 14) (size 15 to 20)
#    0.000    2.000    2.222    4.000    0.000    2.667 
#    0.000    5.556    0.000    0.000    0.000    0.000 
#    0.000    0.000    0.000    0.000    0.000    0.000 
#
# Total GULP energy -200815.881750 kJ/mol
# GULP energy per Si atom -5578.218937 kJ/mol
# Density = 2.004299 g / cm^3
# Si number density = 20.088717 Si / 1000 Ang^3
#
#
#
# Elastic Constant Matrix: (Units=GPa)
#
#
# Indices 1 2 3 4 5 6 
#
# 1 36.0234 18.4110 21.7974 0.0000 0.0000 0.0000
# 2 18.4110 105.3596 23.8393 0.0000 0.0000 0.0000
# 3 21.7974 23.8393 132.9635 0.0000 0.0000 0.0000
# 4 0.0000 0.0000 0.0000 15.6304 0.0000 0.0000
# 5 0.0000 0.0000 0.0000 0.0000 17.4449 0.0000
# 6 0.0000 0.0000 0.0000 0.0000 0.0000 29.5356
#
#
#
# Elastic Compliance Matrix: (Units=1/GPa)
#
#
# Indices 1 2 3 4 5 6 
#
# 1 0.032928 -0.004724 -0.004551 0.000000 0.000000 0.000000
# 2 -0.004724 0.010570 -0.001121 0.000000 0.000000 0.000000
# 3 -0.004551 -0.001121 0.008468 0.000000 0.000000 0.000000
# 4 0.000000 0.000000 0.000000 0.063978 0.000000 0.000000
# 5 0.000000 0.000000 0.000000 0.000000 0.057323 0.000000
# 6 0.000000 0.000000 0.000000 0.000000 0.000000 0.033857
#
#
# Mechanical properties :
#
#
# Convention : Reuss Voigt Hill
#
# Bulk Modulus (GPa) = 32.07769 44.71577 38.39673
# Shear Modulus (GPa) = 20.98120 26.54210 23.76165
#
# Velocity S-wave (km/s) = 3.23527 3.63884 3.44297
# Velocity P-wave (km/s) = 5.47345 6.32157 5.91274
#
# Compressibility (1/GPa) = 0.03117432
#
# Stress axis : x y z
#
# Youngs Moduli (GPa) = 30.36925 94.60359 118.09339
#
# Poissons Ratio (x) = 0.44693 0.53745
# Poissons Ratio (y) = 0.14347 0.13235
# Poissons Ratio (z) = 0.13821 0.10602
#
# Static dielectric constant tensor:
#      x y z
#    x 1.801390 0.000000 0.000000 
#    y 0.000000 1.755840 0.000000 
#    z 0.000000 0.000000 1.723930 
# 
# From -- ./inp_files/28003.got.cif
#   From: 2010.05.17/outbox.cif.g08.bks.cpg/sg72_15_cif.got.tgz:28003.got - 2010.06.03 17:03:01.
