data_PCOD9525547
_publ_section_title
;
Structure prediction by ZEFSAII (Michael W. Deem and Ramdas Pophale) SiO2 
 PCOD9525547
Probable space group: I B A M
;
_chemical_formula_sum "Si O2"
_cell_formula_units_Z 96
_cell_length_a 14.396963
_cell_length_b 15.418131
_cell_length_c 23.051909
_cell_angle_alpha 90.000000
_cell_angle_beta 90.000000
_cell_angle_gamma 90.000000
_cell_volume 5116.930477
_symmetry_space_group_name_H-M "I B A M"
_symmetry_group_IT_number 72
_symmetry_cell_setting 'orthorhombic'
loop_
_space_group_symop_operation_xyz
x,y,z
-x,-y,z
x,-y,1/2-z
-x,y,1/2-z
-x,-y,-z
x,y,-z
-x,y,1/2+z
x,-y,1/2+z
1/2+x,1/2+y,1/2+z
1/2-x,1/2-y,1/2+z
1/2+x,1/2-y,-z
1/2-x,1/2+y,-z
1/2-x,1/2-y,1/2-z
1/2+x,1/2+y,1/2-z
1/2-x,1/2+y,z
1/2+x,1/2-y,z
loop_
_atom_site_type_symbol
_atom_site_label
_atom_site_fract_x
_atom_site_fract_y
_atom_site_fract_z
Si Si1 0.445941 0.424409 0.371622
Si Si2 0.634154 0.254172 0.930252
Si Si3 0.669545 0.804790 0.125437
Si Si4 0.075922 0.175184 0.710678
Si Si5 0.720099 0.422803 0.208685
Si Si6 0.000036 0.599661 0.930629
O O1 0.500000 0.500000 0.405123
O O2 0.423475 0.337384 0.406988
O O3 0.514362 0.400255 0.318391
O O4 0.349569 0.454367 0.342342
O O5 0.737844 0.268297 0.905415
O O6 0.582281 0.165425 0.910511
O O7 0.636693 0.255105 0.000000
O O8 0.616772 0.728388 0.157982
O O9 0.701199 0.870299 0.176073
O O10 0.597552 0.854503 0.084368
O O11 0.157987 0.141008 0.751433
O O12 0.000000 0.225325 0.750000
O O13 0.751478 0.500000 0.250000
O O14 0.000000 0.500000 0.908434
O O15 0.990186 0.595022 0.000000
#
# Coordination Sequence:
#
# PCOD9525547 Si02
#       6
#    16  16  16  16  16  16
#     4  10  18  34  61  85 116 154 190 238 300 356
#     4  10  22  40  63  89 116 151 200 249 296 357
#     4  11  22  39  61  86 118 159 197 248 295 350
#     4  10  20  35  57  83 115 156 194 228 292 349
#     4  10  20  33  54  87 118 153 195 236 288 356
#     4  10  22  43  65  86 119 160 200 249 308 361
#
# _framework density 18.761247999999998
#
# number of rings (size 3 to 8) (size 9 to 14) (size 15 to 20)
#    0.000    1.833    3.333    1.000    0.000    1.667 
#    3.000    0.000    0.000    0.000    0.000    0.000 
#    0.000    0.000    0.000    0.000    0.000    0.000 
#
# Total GULP energy -267566.586377 kJ/mol
# GULP energy per Si atom -5574.303883 kJ/mol
# Density = 1.871855 g / cm^3
# Si number density = 18.761248 Si / 1000 Ang^3
#
#
#
# Elastic Constant Matrix: (Units=GPa)
#
#
# Indices 1 2 3 4 5 6 
#
# 1 84.3097 47.5244 11.9819 0.0000 0.0000 0.0000
# 2 47.5244 97.8186 23.1951 0.0000 0.0000 0.0000
# 3 11.9819 23.1951 42.4671 0.0000 0.0000 0.0000
# 4 0.0000 0.0000 0.0000 31.4416 0.0000 0.0000
# 5 0.0000 0.0000 0.0000 0.0000 25.7940 0.0000
# 6 0.0000 0.0000 0.0000 0.0000 0.0000 -0.7402
#
#
#
# Elastic Compliance Matrix: (Units=1/GPa)
#
#
# Indices 1 2 3 4 5 6 
#
# 1 0.016338 -0.007863 -0.000315 0.000000 0.000000 0.000000
# 2 -0.007863 0.015528 -0.006263 0.000000 0.000000 0.000000
# 3 -0.000315 -0.006263 0.027057 0.000000 0.000000 0.000000
# 4 0.000000 0.000000 0.000000 0.031805 0.000000 0.000000
# 5 0.000000 0.000000 0.000000 0.000000 0.038769 0.000000
# 6 0.000000 0.000000 0.000000 0.000000 0.000000 -1.351024
#
#
# Mechanical properties :
#
#
# Convention : Reuss Voigt Hill
#
# Bulk Modulus (GPa) = 33.28693 43.33311 38.31002
# Shear Modulus (GPa) = -4.22786 20.75868 8.26541
#
# Velocity S-wave (km/s) = -1.50280 3.32997 2.10122
# Velocity P-wave (km/s) = 3.84314 6.15891 5.13332
#
# Compressibility (1/GPa) = 0.03004182
#
# Stress axis : x y z
#
# Youngs Moduli (GPa) = 61.20654 64.39858 36.95866
#
# Poissons Ratio (x) = 0.50637 0.01164
# Poissons Ratio (y) = 0.48127 0.23147
# Poissons Ratio (z) = 0.01928 0.40332
#
# Static dielectric constant tensor:
#      x y z
#    x 1.654470 0.000000 0.000000 
#    y 0.000000 1.701700 0.000000 
#    z 0.000000 0.000000 1.645180 
# 
# From -- ./inp_files/38005.got.cif
#   From: 2010.05.17/outbox.cif.g08.bks.cpg/sg72_20_cif.got.tgz:38005.got - 2010.06.03 17:03:01.
