data_PCOD9525373
_publ_section_title
;
Structure prediction by ZEFSAII (Michael W. Deem and Ramdas Pophale) SiO2 
 PCOD9525373
Probable space group: I B A M
;
_chemical_formula_sum "Si O2"
_cell_formula_units_Z 116
_cell_length_a 28.062101
_cell_length_b 27.354953
_cell_length_c 8.284715
_cell_angle_alpha 90.000000
_cell_angle_beta 90.000000
_cell_angle_gamma 90.000000
_cell_volume 6359.657529
_symmetry_space_group_name_H-M "I B A M"
_symmetry_group_IT_number 72
_symmetry_cell_setting 'orthorhombic'
loop_
_space_group_symop_operation_xyz
x,y,z
-x,-y,z
x,-y,1/2-z
-x,y,1/2-z
-x,-y,-z
x,y,-z
-x,y,1/2+z
x,-y,1/2+z
1/2+x,1/2+y,1/2+z
1/2-x,1/2-y,1/2+z
1/2+x,1/2-y,-z
1/2-x,1/2+y,-z
1/2-x,1/2-y,1/2-z
1/2+x,1/2+y,1/2-z
1/2-x,1/2+y,z
1/2+x,1/2-y,z
loop_
_atom_site_type_symbol
_atom_site_label
_atom_site_fract_x
_atom_site_fract_y
_atom_site_fract_z
Si Si1 0.208061 0.311708 0.185644
Si Si2 0.000000 0.500000 0.750000
Si Si3 0.212047 0.051934 0.812398
Si Si4 0.053810 0.319575 0.695138
Si Si5 0.685500 0.925708 0.311745
Si Si6 0.577824 0.928319 0.305548
Si Si7 0.130892 0.241555 0.313359
Si Si8 0.309500 0.341560 0.308500
O O1 0.188023 0.366801 0.200136
O O2 0.176938 0.276489 0.294805
O O3 0.263192 0.315709 0.231997
O O4 0.203050 0.295541 0.000000
O O5 0.959882 0.540483 0.701318
O O6 0.269177 0.054908 0.784344
O O7 0.190837 0.102659 0.743290
O O8 0.194578 0.000000 0.750000
O O9 0.202224 0.052669 0.000000
O O10 0.056926 0.323584 0.500000
O O11 0.070077 0.371132 0.770917
O O12 0.087711 0.275041 0.749240
O O13 0.000000 0.310893 0.750000
O O14 0.692569 0.938590 0.500000
O O15 0.632395 0.941110 0.264041
O O16 0.569755 0.937335 0.500000
O O17 0.122058 0.230860 0.500000
O O18 0.144641 0.191161 0.227630
O O19 0.301494 0.343261 0.500000
#
# Coordination Sequence:
#
# PCOD9525373 Si02
#       8
#    16   4  16  16  16  16  16  16
#     4  10  18  31  52  76 104 138 172 214 263 317
#     4  12  26  36  56  82  98 132 178 240 292 324
#     4  10  21  36  54  77 105 140 178 214 258 308
#     4  11  24  40  60  80 103 135 176 222 274 329
#     4   9  19  34  52  73  98 134 176 219 268 320
#     4  11  23  40  56  74 100 131 175 228 284 331
#     4  11  22  35  53  79 106 137 173 216 267 320
#     4  10  21  35  52  77 108 141 176 215 256 314
#
# _framework density 18.239975000000001
#
# number of rings (size 3 to 8) (size 9 to 14) (size 15 to 20)
#    0.000    1.655    2.069    2.690    0.966    4.966 
#    0.000    0.000    0.000    0.000    0.000    0.000 
#    0.000    0.552    0.000    6.069    0.000    4.414 
#
# Total GULP energy -323559.628907 kJ/mol
# GULP energy per Si atom -5578.614291 kJ/mol
# Density = 1.819846 g / cm^3
# Si number density = 18.239975 Si / 1000 Ang^3
#
#
#
# Elastic Constant Matrix: (Units=GPa)
#
#
# Indices 1 2 3 4 5 6 
#
# 1 61.6237 50.7008 3.8073 0.0000 0.0000 0.0000
# 2 50.7008 100.5233 7.7219 0.0000 0.0000 0.0000
# 3 3.8073 7.7219 22.8600 0.0000 0.0000 0.0000
# 4 0.0000 0.0000 0.0000 19.0238 0.0000 0.0000
# 5 0.0000 0.0000 0.0000 0.0000 11.7703 0.0000
# 6 0.0000 0.0000 0.0000 0.0000 0.0000 -2.7999
#
#
#
# Elastic Compliance Matrix: (Units=1/GPa)
#
#
# Indices 1 2 3 4 5 6 
#
# 1 0.027738 -0.013999 0.000109 0.000000 0.000000 0.000000
# 2 -0.013999 0.017278 -0.003505 0.000000 0.000000 0.000000
# 3 0.000109 -0.003505 0.044910 0.000000 0.000000 0.000000
# 4 0.000000 0.000000 0.000000 0.052566 0.000000 0.000000
# 5 0.000000 0.000000 0.000000 0.000000 0.084960 0.000000
# 6 0.000000 0.000000 0.000000 0.000000 0.000000 -0.357154
#
#
# Mechanical properties :
#
#
# Convention : Reuss Voigt Hill
#
# Bulk Modulus (GPa) = 18.13663 34.38522 26.26093
# Shear Modulus (GPa) = -65.33061 13.78395 -25.77333
#
# Velocity S-wave (km/s) = -5.99125 2.75198 -3.76308
# Velocity P-wave (km/s) = 6.15590 5.38427 2.11006
#
# Compressibility (1/GPa) = 0.05513702
#
# Stress axis : x y z
#
# Youngs Moduli (GPa) = 36.05140 57.87820 22.26662
#
# Poissons Ratio (x) = 0.81022 -0.00243
# Poissons Ratio (y) = 0.50467 0.07804
# Poissons Ratio (z) = -0.00393 0.20285
#
# Static dielectric constant tensor:
#      x y z
#    x 1.607860 0.000000 0.000000 
#    y 0.000000 1.678380 0.000000 
#    z 0.000000 0.000000 1.759940 
# 
# From -- ./inp_files/8719.got.cif
#   From: 2010.05.17/outbox.cif.g08.bks.cpg/sg72_5_cif.got.tgz:8719.got - 2010.06.03 17:03:01.
