data_PCOD9525162
_publ_section_title
;
Structure prediction by ZEFSAII (Michael W. Deem and Ramdas Pophale) SiO2 
 PCOD9525162
Probable space group: I B A M
;
_chemical_formula_sum "Si O2"
_cell_formula_units_Z 80
_cell_length_a 18.963200
_cell_length_b 18.131018
_cell_length_c 13.033273
_cell_angle_alpha 90.000000
_cell_angle_beta 90.000000
_cell_angle_gamma 90.000000
_cell_volume 4481.127560
_symmetry_space_group_name_H-M "I B A M"
_symmetry_group_IT_number 72
_symmetry_cell_setting 'orthorhombic'
loop_
_space_group_symop_operation_xyz
x,y,z
-x,-y,z
x,-y,1/2-z
-x,y,1/2-z
-x,-y,-z
x,y,-z
-x,y,1/2+z
x,-y,1/2+z
1/2+x,1/2+y,1/2+z
1/2-x,1/2-y,1/2+z
1/2+x,1/2-y,-z
1/2-x,1/2+y,-z
1/2-x,1/2-y,1/2-z
1/2+x,1/2+y,1/2-z
1/2-x,1/2+y,z
1/2+x,1/2-y,z
loop_
_atom_site_type_symbol
_atom_site_label
_atom_site_fract_x
_atom_site_fract_y
_atom_site_fract_z
Si Si1 0.333176 0.721686 0.621233
Si Si2 0.148198 0.541486 0.878668
Si Si3 0.238134 0.648381 0.768406
Si Si4 0.886941 0.371317 0.378061
Si Si5 0.041276 0.326893 0.376253
O O1 0.328874 0.701840 0.500000
O O2 0.309494 0.660774 0.704749
O O3 0.279458 0.789977 0.645772
O O4 0.410609 0.755426 0.644316
O O5 0.217572 0.570465 0.819520
O O6 0.119569 0.459542 0.859743
O O7 0.087725 0.600725 0.851738
O O8 0.161914 0.546640 0.000000
O O9 0.178755 0.661900 0.681270
O O10 0.880263 0.360395 0.500000
O O11 0.960732 0.336470 0.341711
O O12 0.035962 0.328701 0.500000
#
# Coordination Sequence:
#
# PCOD9525162 Si02
#       5
#    16  16  16  16  16
#     4   9  18  31  43  56  80 117 161 203 236 270
#     4   9  17  28  41  61  90 119 149 187 230 279
#     4  10  18  28  43  61  83 116 157 193 232 277
#     4  10  18  27  42  65  91 118 151 188 227 278
#     4   8  15  28  43  59  85 123 158 189 229 275
#
# _framework density 17.852649
#
# number of rings (size 3 to 8) (size 9 to 14) (size 15 to 20)
#    0.000    2.800    0.000    3.600    0.000    5.600 
#    0.000    4.000    0.000    0.000    0.000    2.800 
#    0.000    0.000    0.000   88.200    0.000  763.400 
#
# Total GULP energy -222798.804388 kJ/mol
# GULP energy per Si atom -5569.970110 kJ/mol
# Density = 1.781202 g / cm^3
# Si number density = 17.852649 Si / 1000 Ang^3
#
#
#
# Elastic Constant Matrix: (Units=GPa)
#
#
# Indices 1 2 3 4 5 6 
#
# 1 75.1052 42.0338 35.0969 0.0000 0.0000 0.0000
# 2 42.0338 28.2637 22.7800 0.0000 0.0000 0.0000
# 3 35.0969 22.7800 89.6233 0.0000 0.0000 0.0000
# 4 0.0000 0.0000 0.0000 31.7742 0.0000 0.0000
# 5 0.0000 0.0000 0.0000 0.0000 31.3628 0.0000
# 6 0.0000 0.0000 0.0000 0.0000 0.0000 22.5963
#
#
#
# Elastic Compliance Matrix: (Units=1/GPa)
#
#
# Indices 1 2 3 4 5 6 
#
# 1 0.079545 -0.117204 -0.001360 0.000000 0.000000 0.000000
# 2 -0.117204 0.217188 -0.009306 0.000000 0.000000 0.000000
# 3 -0.001360 -0.009306 0.014056 0.000000 0.000000 0.000000
# 4 0.000000 0.000000 0.000000 0.031472 0.000000 0.000000
# 5 0.000000 0.000000 0.000000 0.000000 0.031885 0.000000
# 6 0.000000 0.000000 0.000000 0.000000 0.000000 0.044255
#
#
# Mechanical properties :
#
#
# Convention : Reuss Voigt Hill
#
# Bulk Modulus (GPa) = 18.16571 43.64596 30.90584
# Shear Modulus (GPa) = 7.22032 23.35208 15.28620
#
# Velocity S-wave (km/s) = 2.01325 3.62061 2.92934
# Velocity P-wave (km/s) = 3.94990 6.47915 5.36568
#
# Compressibility (1/GPa) = 0.05504876
#
# Stress axis : x y z
#
# Youngs Moduli (GPa) = 12.57147 4.60431 71.14508
#
# Poissons Ratio (x) = 0.53964 0.09675
# Poissons Ratio (y) = 1.47343 0.66210
# Poissons Ratio (z) = 0.01710 0.04285
#
# Static dielectric constant tensor:
#      x y z
#    x 1.622530 0.000000 0.000000 
#    y 0.000000 1.628970 0.000000 
#    z 0.000000 0.000000 1.734900 
# 
# From -- ./inp_files/21578.got.cif
#   From: 2010.05.17/outbox.cif.g08.bks.cpg/sg72_11_cif.got.tgz:21578.got - 2010.06.03 17:03:01.
