data_PCOD9525118
_publ_section_title
;
Structure prediction by ZEFSAII (Michael W. Deem and Ramdas Pophale) SiO2 
 PCOD9525118
Probable space group: I B A M
;
_chemical_formula_sum "Si O2"
_cell_formula_units_Z 64
_cell_length_a 9.892784
_cell_length_b 20.556660
_cell_length_c 16.995111
_cell_angle_alpha 90.000000
_cell_angle_beta 90.000000
_cell_angle_gamma 90.000000
_cell_volume 3456.169912
_symmetry_space_group_name_H-M "I B A M"
_symmetry_group_IT_number 72
_symmetry_cell_setting 'orthorhombic'
loop_
_space_group_symop_operation_xyz
x,y,z
-x,-y,z
x,-y,1/2-z
-x,y,1/2-z
-x,-y,-z
x,y,-z
-x,y,1/2+z
x,-y,1/2+z
1/2+x,1/2+y,1/2+z
1/2-x,1/2-y,1/2+z
1/2+x,1/2-y,-z
1/2-x,1/2+y,-z
1/2-x,1/2-y,1/2-z
1/2+x,1/2+y,1/2-z
1/2-x,1/2+y,z
1/2+x,1/2-y,z
loop_
_atom_site_type_symbol
_atom_site_label
_atom_site_fract_x
_atom_site_fract_y
_atom_site_fract_z
Si Si1 0.630600 0.781683 0.197089
Si Si2 0.660769 0.483501 0.339721
Si Si3 0.545535 0.647758 0.843136
Si Si4 0.240373 0.889029 0.410779
O O1 0.500000 0.796296 0.250000
O O2 0.750000 0.750000 0.250000
O O3 0.590583 0.721012 0.141826
O O4 0.678097 0.844776 0.150418
O O5 0.500000 0.500000 0.347158
O O6 0.697537 0.500000 0.250000
O O7 0.661386 0.406474 0.354587
O O8 0.742466 0.533777 0.392837
O O9 0.500000 0.643168 0.750000
O O10 0.415616 0.630924 0.894881
O O11 0.279676 0.875937 0.500000
#
# Coordination Sequence:
#
# PCOD9525118 Si02
#       4
#    16  16  16  16
#     4  11  20  38  61  85 117 163 208 245 294 376
#     4   9  14  29  54  83 116 153 197 245 291 354
#     4  10  17  33  60  86 118 157 210 245 293 365
#     4  11  22  34  55  94 125 147 197 265 310 346
#
# _framework density 18.517607999999999
#
# number of rings (size 3 to 8) (size 9 to 14) (size 15 to 20)
#    0.000    1.750   10.000    0.000    0.000    5.500 
#    0.000    0.000    0.000    6.750    0.000    7.000 
#    0.000    0.000    0.000    0.000    0.000    0.000 
#
# Total GULP energy -178313.862171 kJ/mol
# GULP energy per Si atom -5572.308193 kJ/mol
# Density = 1.847546 g / cm^3
# Si number density = 18.517608 Si / 1000 Ang^3
#
#
#
# Elastic Constant Matrix: (Units=GPa)
#
#
# Indices 1 2 3 4 5 6 
#
# 1 55.7566 28.5899 31.9921 0.0000 0.0000 0.0000
# 2 28.5899 127.9422 27.4355 0.0000 0.0000 0.0000
# 3 31.9921 27.4355 71.1902 0.0000 0.0000 0.0000
# 4 0.0000 0.0000 0.0000 19.1226 0.0000 0.0000
# 5 0.0000 0.0000 0.0000 0.0000 16.9832 0.0000
# 6 0.0000 0.0000 0.0000 0.0000 0.0000 24.9120
#
#
#
# Elastic Compliance Matrix: (Units=1/GPa)
#
#
# Indices 1 2 3 4 5 6 
#
# 1 0.025558 -0.003541 -0.010121 0.000000 0.000000 0.000000
# 2 -0.003541 0.009011 -0.001881 0.000000 0.000000 0.000000
# 3 -0.010121 -0.001881 0.019320 0.000000 0.000000 0.000000
# 4 0.000000 0.000000 0.000000 0.052294 0.000000 0.000000
# 5 0.000000 0.000000 0.000000 0.000000 0.058882 0.000000
# 6 0.000000 0.000000 0.000000 0.000000 0.000000 0.040141
#
#
# Mechanical properties :
#
#
# Convention : Reuss Voigt Hill
#
# Bulk Modulus (GPa) = 43.85467 47.88042 45.86755
# Shear Modulus (GPa) = 20.50081 23.32833 21.91457
#
# Velocity S-wave (km/s) = 3.33092 3.55320 3.44386
# Velocity P-wave (km/s) = 6.20705 6.53808 6.37471
#
# Compressibility (1/GPa) = 0.02280259
#
# Stress axis : x y z
#
# Youngs Moduli (GPa) = 39.12690 110.97924 51.75958
#
# Poissons Ratio (x) = 0.39296 0.52385
# Poissons Ratio (y) = 0.13854 0.09738
# Poissons Ratio (z) = 0.39600 0.20879
#
# Static dielectric constant tensor:
#      x y z
#    x 1.649130 0.000000 0.000000 
#    y 0.000000 1.716740 0.000000 
#    z 0.000000 0.000000 1.655140 
# 
# From -- ./inp_files/29129.got.cif
#   From: 2010.05.17/outbox.cif.g08.bks.cpg/sg72_15_cif.got.tgz:29129.got - 2010.06.03 17:03:01.
