data_PCOD9525209
_publ_section_title
;
Structure prediction by ZEFSAII (Michael W. Deem and Ramdas Pophale) SiO2 
 PCOD9525209
Probable space group: I B A M
;
_chemical_formula_sum "Si O2"
_cell_formula_units_Z 68
_cell_length_a 18.185936
_cell_length_b 5.664279
_cell_length_c 30.183285
_cell_angle_alpha 90.000000
_cell_angle_beta 90.000000
_cell_angle_gamma 90.000000
_cell_volume 3109.186689
_symmetry_space_group_name_H-M "I B A M"
_symmetry_group_IT_number 72
_symmetry_cell_setting 'orthorhombic'
loop_
_space_group_symop_operation_xyz
x,y,z
-x,-y,z
x,-y,1/2-z
-x,y,1/2-z
-x,-y,-z
x,y,-z
-x,y,1/2+z
x,-y,1/2+z
1/2+x,1/2+y,1/2+z
1/2-x,1/2-y,1/2+z
1/2+x,1/2-y,-z
1/2-x,1/2+y,-z
1/2-x,1/2-y,1/2-z
1/2+x,1/2+y,1/2-z
1/2-x,1/2+y,z
1/2+x,1/2-y,z
loop_
_atom_site_type_symbol
_atom_site_label
_atom_site_fract_x
_atom_site_fract_y
_atom_site_fract_z
Si Si1 0.291418 0.166196 0.947059
Si Si2 0.918606 0.139328 0.335207
Si Si3 0.105188 0.638454 0.129880
Si Si4 0.500000 0.500000 0.250000
Si Si5 0.748082 0.372491 0.190292
O O1 0.249957 0.916028 0.935896
O O2 0.367658 0.164006 0.920321
O O3 0.301244 0.166188 0.000000
O O4 0.936697 0.875697 0.353956
O O5 0.948673 0.145511 0.284287
O O6 0.829763 0.128108 0.334610
O O7 0.931575 0.385531 0.360338
O O8 0.181618 0.631206 0.157850
O O9 0.749712 0.122444 0.213385
#
# Coordination Sequence:
#
# PCOD9525209 Si02
#       5
#    16  16  16   4  16
#     4  10  18  28  51  90 130 155 176 215 265 334
#     4  10  22  36  57  75 106 146 182 238 286 333
#     4  10  18  35  57  82 111 149 182 213 278 347
#     4  12  28  46  56  82 106 134 204 260 292 330
#     4   8  14  28  50  74  96 129 167 202 257 328
#
# _framework density 21.870668999999999
#
# number of rings (size 3 to 8) (size 9 to 14) (size 15 to 20)
#    0.000    2.353    0.000    5.647    0.000    2.824 
#    0.000   10.588    0.000    0.000    0.000    4.941 
#    0.000    0.000    0.000    0.000    0.000    0.000 
#
# Total GULP energy -189377.276451 kJ/mol
# GULP energy per Si atom -5569.919896 kJ/mol
# Density = 2.182089 g / cm^3
# Si number density = 21.870669 Si / 1000 Ang^3
#
#
#
# Elastic Constant Matrix: (Units=GPa)
#
#
# Indices 1 2 3 4 5 6 
#
# 1 62.6819 45.5594 18.4013 0.0000 0.0000 0.0000
# 2 45.5594 254.2369 66.1086 0.0000 0.0000 0.0000
# 3 18.4013 66.1086 84.0113 0.0000 0.0000 0.0000
# 4 0.0000 0.0000 0.0000 29.7016 0.0000 0.0000
# 5 0.0000 0.0000 0.0000 0.0000 37.0776 0.0000
# 6 0.0000 0.0000 0.0000 0.0000 0.0000 50.6163
#
#
#
# Elastic Compliance Matrix: (Units=1/GPa)
#
#
# Indices 1 2 3 4 5 6 
#
# 1 0.018562 -0.002853 -0.001821 0.000000 0.000000 0.000000
# 2 -0.002853 0.005384 -0.003612 0.000000 0.000000 0.000000
# 3 -0.001821 -0.003612 0.015144 0.000000 0.000000 0.000000
# 4 0.000000 0.000000 0.000000 0.033668 0.000000 0.000000
# 5 0.000000 0.000000 0.000000 0.000000 0.026970 0.000000
# 6 0.000000 0.000000 0.000000 0.000000 0.000000 0.019756
#
#
# Mechanical properties :
#
#
# Convention : Reuss Voigt Hill
#
# Bulk Modulus (GPa) = 44.40700 73.45207 58.92954
# Shear Modulus (GPa) = 34.82844 41.53649 38.18247
#
# Velocity S-wave (km/s) = 3.99491 4.36269 4.18285
# Velocity P-wave (km/s) = 6.45194 7.68343 7.09446
#
# Compressibility (1/GPa) = 0.02251897
#
# Stress axis : x y z
#
# Youngs Moduli (GPa) = 53.87468 185.74694 66.03317
#
# Poissons Ratio (x) = 0.52990 0.12023
# Poissons Ratio (y) = 0.15369 0.23848
# Poissons Ratio (z) = 0.09809 0.67084
#
# Static dielectric constant tensor:
#      x y z
#    x 1.912540 0.000000 0.000000 
#    y 0.000000 1.851400 0.000000 
#    z 0.000000 0.000000 1.764810 
# 
# From -- ./inp_files/49274.got.cif
#   From: 2010.05.17/outbox.cif.g08.bks.cpg/sg72_25_cif.got.tgz:49274.got - 2010.06.03 17:03:01.
