data_PCOD9525070
_publ_section_title
;
Structure prediction by ZEFSAII (Michael W. Deem and Ramdas Pophale) SiO2 
 PCOD9525070
Probable space group: I B A M
;
_chemical_formula_sum "Si O2"
_cell_formula_units_Z 128
_cell_length_a 21.310497
_cell_length_b 23.060656
_cell_length_c 17.405353
_cell_angle_alpha 90.000000
_cell_angle_beta 90.000000
_cell_angle_gamma 90.000000
_cell_volume 8553.582951
_symmetry_space_group_name_H-M "I B A M"
_symmetry_group_IT_number 72
_symmetry_cell_setting 'orthorhombic'
loop_
_space_group_symop_operation_xyz
x,y,z
-x,-y,z
x,-y,1/2-z
-x,y,1/2-z
-x,-y,-z
x,y,-z
-x,y,1/2+z
x,-y,1/2+z
1/2+x,1/2+y,1/2+z
1/2-x,1/2-y,1/2+z
1/2+x,1/2-y,-z
1/2-x,1/2+y,-z
1/2-x,1/2-y,1/2-z
1/2+x,1/2+y,1/2-z
1/2-x,1/2+y,z
1/2+x,1/2-y,z
loop_
_atom_site_type_symbol
_atom_site_label
_atom_site_fract_x
_atom_site_fract_y
_atom_site_fract_z
Si Si1 0.429203 0.759945 0.773319
Si Si2 0.161630 0.044875 0.314475
Si Si3 0.104100 0.128578 0.808345
Si Si4 0.731148 0.359857 0.591565
Si Si5 0.210310 0.176944 0.912503
Si Si6 0.565993 0.532349 0.587818
Si Si7 0.138855 0.301805 0.084979
Si Si8 0.197792 0.255937 0.681013
O O1 0.500000 0.773112 0.750000
O O2 0.424004 0.691225 0.791605
O O3 0.411091 0.796849 0.848282
O O4 0.370740 0.768560 0.714837
O O5 0.119996 0.091400 0.266859
O O6 0.209633 0.082385 0.364836
O O7 0.187543 0.000000 0.250000
O O8 0.117501 0.007201 0.370077
O O9 0.168828 0.137802 0.856162
O O10 0.060513 0.090959 0.863614
O O11 0.716642 0.360637 0.500000
O O12 0.805441 0.347396 0.599149
O O13 0.698977 0.304465 0.633717
O O14 0.174146 0.239112 0.914960
O O15 0.276154 0.193506 0.873922
O O16 0.214746 0.155645 0.000000
O O17 0.500000 0.500000 0.588531
O O18 0.584101 0.544326 0.500000
O O19 0.112418 0.310778 0.000000
O O20 0.250000 0.250000 0.750000
#
# Coordination Sequence:
#
# PCOD9525070 Si02
#       8
#    16  16  16  16  16  16  16  16
#     4  11  21  30  47  73  99 127 161 199 243 292
#     4  10  20  31  45  67  90 120 159 211 247 270
#     4  10  19  31  49  64  89 126 167 201 243 281
#     4  10  17  29  51  71  89 124 165 203 243 286
#     4   9  16  28  48  70  88 115 157 200 238 286
#     4  10  22  35  45  60  90 132 170 208 246 282
#     4   8  16  30  47  68  93 122 154 191 241 297
#     4  11  16  30  47  69  95 122 161 199 239 288
#
# _framework density 14.964489
#
# number of rings (size 3 to 8) (size 9 to 14) (size 15 to 20)
#    0.000    2.125    5.000    1.875    1.750    2.250 
#    0.000    1.250    0.000    0.000    0.000    0.000 
#    0.000    0.500    0.000    2.750    1.000    0.000 
#
# Total GULP energy -356510.339271 kJ/mol
# GULP energy per Si atom -5570.474051 kJ/mol
# Density = 1.493043 g / cm^3
# Si number density = 14.964489 Si / 1000 Ang^3
#
#
#
# Elastic Constant Matrix: (Units=GPa)
#
#
# Indices 1 2 3 4 5 6 
#
# 1 79.9044 2.6527 41.3430 0.0000 0.0000 0.0000
# 2 2.6527 15.5673 4.9275 0.0000 0.0000 0.0000
# 3 41.3430 4.9275 89.1966 0.0000 0.0000 0.0000
# 4 0.0000 0.0000 0.0000 20.4591 0.0000 0.0000
# 5 0.0000 0.0000 0.0000 0.0000 22.6487 0.0000
# 6 0.0000 0.0000 0.0000 0.0000 0.0000 17.3336
#
#
#
# Elastic Compliance Matrix: (Units=1/GPa)
#
#
# Indices 1 2 3 4 5 6 
#
# 1 0.016466 -0.000397 -0.007610 0.000000 0.000000 0.000000
# 2 -0.000397 0.065390 -0.003428 0.000000 0.000000 0.000000
# 3 -0.007610 -0.003428 0.014928 0.000000 0.000000 0.000000
# 4 0.000000 0.000000 0.000000 0.048878 0.000000 0.000000
# 5 0.000000 0.000000 0.000000 0.000000 0.044153 0.000000
# 6 0.000000 0.000000 0.000000 0.000000 0.000000 0.057691
#
#
# Mechanical properties :
#
#
# Convention : Reuss Voigt Hill
#
# Bulk Modulus (GPa) = 13.52947 31.39052 22.45999
# Shear Modulus (GPa) = 16.94838 21.13795 19.04317
#
# Velocity S-wave (km/s) = 3.36902 3.76246 3.57116
# Velocity P-wave (km/s) = 4.91878 6.31640 5.66089
#
# Compressibility (1/GPa) = 0.07391272
#
# Stress axis : x y z
#
# Youngs Moduli (GPa) = 60.73283 15.29290 66.98902
#
# Poissons Ratio (x) = 0.00607 0.50978
# Poissons Ratio (y) = 0.02411 0.22966
# Poissons Ratio (z) = 0.46217 0.05243
#
# Static dielectric constant tensor:
#      x y z
#    x 1.487110 0.000000 0.000000 
#    y 0.000000 1.489370 0.000000 
#    z 0.000000 0.000000 1.536800 
# 
# From -- ./inp_files/33001.got.cif
#   From: 2010.05.17/outbox.cif.g08.bks.cpg/sg72_17_cif.got.tgz:33001.got - 2010.06.03 17:03:01.
