data_PCOD9525939
_publ_section_title
;
Structure prediction by ZEFSAII (Michael W. Deem and Ramdas Pophale) SiO2 
 PCOD9525939
Probable space group: I B A M
;
_chemical_formula_sum "Si O2"
_cell_formula_units_Z 80
_cell_length_a 5.049311
_cell_length_b 33.019771
_cell_length_c 31.094389
_cell_angle_alpha 90.000000
_cell_angle_beta 90.000000
_cell_angle_gamma 90.000000
_cell_volume 5184.277084
_symmetry_space_group_name_H-M "I B A M"
_symmetry_group_IT_number 72
_symmetry_cell_setting 'orthorhombic'
loop_
_space_group_symop_operation_xyz
x,y,z
-x,-y,z
x,-y,1/2-z
-x,y,1/2-z
-x,-y,-z
x,y,-z
-x,y,1/2+z
x,-y,1/2+z
1/2+x,1/2+y,1/2+z
1/2-x,1/2-y,1/2+z
1/2+x,1/2-y,-z
1/2-x,1/2+y,-z
1/2-x,1/2-y,1/2-z
1/2+x,1/2+y,1/2-z
1/2-x,1/2+y,z
1/2+x,1/2-y,z
loop_
_atom_site_type_symbol
_atom_site_label
_atom_site_fract_x
_atom_site_fract_y
_atom_site_fract_z
Si Si1 0.763412 0.026826 0.949944
Si Si2 0.500000 0.279448 0.250000
Si Si3 0.104129 0.834883 0.574515
Si Si4 0.009987 0.220487 0.344574
Si Si5 0.795621 0.275761 0.000000
Si Si6 0.591537 0.885102 0.448966
O O1 0.692411 0.071184 0.932845
O O2 0.500000 0.000000 0.949411
O O3 0.840614 0.034592 0.000000
O O4 0.000000 0.000000 0.930512
O O5 0.250000 0.250000 0.250000
O O6 0.502898 0.299645 0.203090
O O7 0.039282 0.812357 0.618788
O O8 0.220101 0.801776 0.541535
O O9 0.333469 0.868830 0.575621
O O10 0.835080 0.854346 0.556487
O O11 0.786600 0.255521 0.348603
O O12 0.600923 0.237088 0.000000
O O13 0.521608 0.888122 0.500000
#
# Coordination Sequence:
#
# PCOD9525939 Si02
#       6
#    16   8  16  16   8  16
#     4   9  17  29  46  64  81 109 149 186 217 259
#     4   8  16  30  50  66  82 106 143 194 239 274
#     4  12  21  32  45  63  89 122 152 192 227 265
#     4  10  19  33  48  66  86 114 155 194 232 272
#     4  12  22  32  42  56  80 120 160 188 212 248
#     4  11  20  33  45  63  91 121 151 185 227 268
#
# _framework density 15.431274999999999
#
# number of rings (size 3 to 8) (size 9 to 14) (size 15 to 20)
#    0.000    1.600    2.000    4.800    0.000    3.200 
#    0.000    0.000    0.000    0.000    0.000    0.000 
#    0.000    0.000    0.000   13.500    0.000    1.200 
#
# Total GULP energy -223078.340446 kJ/mol
# GULP energy per Si atom -5576.958511 kJ/mol
# Density = 1.539615 g / cm^3
# Si number density = 15.431275 Si / 1000 Ang^3
#
#
#
# Elastic Constant Matrix: (Units=GPa)
#
#
# Indices 1 2 3 4 5 6 
#
# 1 60.7245 0.7674 -4.2980 0.0000 0.0000 0.0000
# 2 0.7674 56.4725 29.0274 0.0000 0.0000 0.0000
# 3 -4.2980 29.0274 74.7256 0.0000 0.0000 0.0000
# 4 0.0000 0.0000 0.0000 5.4473 0.0000 0.0000
# 5 0.0000 0.0000 0.0000 0.0000 12.8553 0.0000
# 6 0.0000 0.0000 0.0000 0.0000 0.0000 26.5848
#
#
#
# Elastic Compliance Matrix: (Units=1/GPa)
#
#
# Indices 1 2 3 4 5 6 
#
# 1 0.016571 -0.000894 0.001300 0.000000 0.000000 0.000000
# 2 -0.000894 0.022174 -0.008665 0.000000 0.000000 0.000000
# 3 0.001300 -0.008665 0.016823 0.000000 0.000000 0.000000
# 4 0.000000 0.000000 0.000000 0.183579 0.000000 0.000000
# 5 0.000000 0.000000 0.000000 0.000000 0.077789 0.000000
# 6 0.000000 0.000000 0.000000 0.000000 0.000000 0.037616
#
#
# Mechanical properties :
#
#
# Convention : Reuss Voigt Hill
#
# Bulk Modulus (GPa) = 25.60717 26.99067 26.29892
# Shear Modulus (GPa) = 13.01796 20.07251 16.54523
#
# Velocity S-wave (km/s) = 2.90765 3.61053 3.27798
# Velocity P-wave (km/s) = 5.28232 5.90848 5.60415
#
# Compressibility (1/GPa) = 0.03905156
#
# Stress axis : x y z
#
# Youngs Moduli (GPa) = 60.34587 45.09849 59.44253
#
# Poissons Ratio (x) = 0.04030 -0.07729
# Poissons Ratio (y) = 0.05392 0.51506
# Poissons Ratio (z) = -0.07846 0.39077
#
# Static dielectric constant tensor:
#      x y z
#    x 1.534570 0.000000 0.000000 
#    y 0.000000 1.524920 0.000000 
#    z 0.000000 0.000000 1.525970 
# 
# From -- ./inp_files/46761.got.cif
#   From: 2010.05.17/outbox.cif.g08.bks.cpg/sg72_24_cif.got.tgz:46761.got - 2010.06.03 17:03:01.
