data_PCOD9525741
_publ_section_title
;
Structure prediction by ZEFSAII (Michael W. Deem and Ramdas Pophale) SiO2 
 PCOD9525741
Probable space group: I B A M
;
_chemical_formula_sum "Si O2"
_cell_formula_units_Z 104
_cell_length_a 23.095094
_cell_length_b 13.954209
_cell_length_c 18.505634
_cell_angle_alpha 90.000000
_cell_angle_beta 90.000000
_cell_angle_gamma 90.000000
_cell_volume 5963.880409
_symmetry_space_group_name_H-M "I B A M"
_symmetry_group_IT_number 72
_symmetry_cell_setting 'orthorhombic'
loop_
_space_group_symop_operation_xyz
x,y,z
-x,-y,z
x,-y,1/2-z
-x,y,1/2-z
-x,-y,-z
x,y,-z
-x,y,1/2+z
x,-y,1/2+z
1/2+x,1/2+y,1/2+z
1/2-x,1/2-y,1/2+z
1/2+x,1/2-y,-z
1/2-x,1/2+y,-z
1/2-x,1/2-y,1/2-z
1/2+x,1/2+y,1/2-z
1/2-x,1/2+y,z
1/2+x,1/2-y,z
loop_
_atom_site_type_symbol
_atom_site_label
_atom_site_fract_x
_atom_site_fract_y
_atom_site_fract_z
Si Si1 0.057784 0.447692 0.127582
Si Si2 0.153818 0.346753 0.500000
Si Si3 0.278897 0.744934 0.000000
Si Si4 0.619581 0.137271 0.654689
Si Si5 0.270215 0.113223 0.757287
Si Si6 0.057582 0.259605 0.780217
Si Si7 0.352748 0.929240 0.000000
Si Si8 0.677200 0.726271 0.660036
O O1 0.091311 0.533506 0.167782
O O2 0.040890 0.358317 0.177650
O O3 0.104022 0.414939 0.067730
O O4 0.000000 0.500000 0.097977
O O5 0.211017 0.281670 0.500000
O O6 0.116040 0.334044 0.428342
O O7 0.168708 0.460825 0.500000
O O8 0.299866 0.855777 0.000000
O O9 0.304460 0.708541 0.922887
O O10 0.686344 0.132598 0.676433
O O11 0.590668 0.211029 0.707776
O O12 0.299225 0.168688 0.688613
O O13 0.209905 0.158297 0.782516
O O14 0.266231 0.000000 0.750000
O O15 0.108271 0.215538 0.829444
O O16 0.000000 0.209243 0.750000
#
# Coordination Sequence:
#
# PCOD9525741 Si02
#       8
#    16   8   8  16  16  16   8  16
#     4  11  19  31  49  76 107 152 185 215 263 336
#     4  10  22  35  49  74 109 151 179 230 277 323
#     4  12  20  37  53  76 115 146 183 226 282 328
#     4  10  19  31  49  74 105 142 183 217 266 326
#     4  10  20  36  56  78 109 142 185 234 278 326
#     4  11  20  33  50  75 109 145 183 223 271 325
#     4  10  23  34  50  78 114 146 188 224 269 329
#     4  10  22  35  55  82 109 147 184 229 277 335
#
# _framework density 17.438310999999999
#
# number of rings (size 3 to 8) (size 9 to 14) (size 15 to 20)
#    0.000    1.538    4.615    2.538    2.154    0.000 
#    0.000    0.769    0.000    0.462    0.000    0.000 
#    0.000    1.231    0.000    3.692    0.000    0.000 
#
# Total GULP energy -289666.861996 kJ/mol
# GULP energy per Si atom -5570.516577 kJ/mol
# Density = 1.739862 g / cm^3
# Si number density = 17.438311 Si / 1000 Ang^3
#
#
#
# Elastic Constant Matrix: (Units=GPa)
#
#
# Indices 1 2 3 4 5 6 
#
# 1 74.3798 19.7208 -0.6138 0.0000 0.0000 0.0000
# 2 19.7208 32.5443 8.3818 0.0000 0.0000 0.0000
# 3 -0.6138 8.3818 89.2363 0.0000 0.0000 0.0000
# 4 0.0000 0.0000 0.0000 13.6944 0.0000 0.0000
# 5 0.0000 0.0000 0.0000 0.0000 20.2765 0.0000
# 6 0.0000 0.0000 0.0000 0.0000 0.0000 25.1590
#
#
#
# Elastic Compliance Matrix: (Units=1/GPa)
#
#
# Indices 1 2 3 4 5 6 
#
# 1 0.016114 -0.010036 0.001054 0.000000 0.000000 0.000000
# 2 -0.010036 0.037740 -0.003614 0.000000 0.000000 0.000000
# 3 0.001054 -0.003614 0.011553 0.000000 0.000000 0.000000
# 4 0.000000 0.000000 0.000000 0.073022 0.000000 0.000000
# 5 0.000000 0.000000 0.000000 0.000000 0.049318 0.000000
# 6 0.000000 0.000000 0.000000 0.000000 0.000000 0.039747
#
#
# Mechanical properties :
#
#
# Convention : Reuss Voigt Hill
#
# Bulk Modulus (GPa) = 24.86699 27.90422 26.38560
# Shear Modulus (GPa) = 18.79053 23.07077 20.93065
#
# Velocity S-wave (km/s) = 3.28616 3.64124 3.46825
# Velocity P-wave (km/s) = 5.35625 5.80643 5.58587
#
# Compressibility (1/GPa) = 0.04021396
#
# Stress axis : x y z
#
# Youngs Moduli (GPa) = 62.05738 26.49738 86.55846
#
# Poissons Ratio (x) = 0.26593 -0.09119
# Poissons Ratio (y) = 0.62281 0.31281
# Poissons Ratio (z) = -0.06538 0.09576
#
# Static dielectric constant tensor:
#      x y z
#    x 1.643410 0.000000 0.000000 
#    y 0.000000 1.594740 0.000000 
#    z 0.000000 0.000000 1.622720 
# 
# From -- ./inp_files/30846.got.cif
#   From: 2010.05.17/outbox.cif.g08.bks.cpg/sg72_16_cif.got.tgz:30846.got - 2010.06.03 17:03:01.
