data_PCOD9525926
_publ_section_title
;
Structure prediction by ZEFSAII (Michael W. Deem and Ramdas Pophale) SiO2 
 PCOD9525926
Probable space group: I B A M
;
_chemical_formula_sum "Si O2"
_cell_formula_units_Z 80
_cell_length_a 32.489242
_cell_length_b 12.002321
_cell_length_c 10.363722
_cell_angle_alpha 90.000000
_cell_angle_beta 90.000000
_cell_angle_gamma 90.000000
_cell_volume 4041.295168
_symmetry_space_group_name_H-M "I B A M"
_symmetry_group_IT_number 72
_symmetry_cell_setting 'orthorhombic'
loop_
_space_group_symop_operation_xyz
x,y,z
-x,-y,z
x,-y,1/2-z
-x,y,1/2-z
-x,-y,-z
x,y,-z
-x,y,1/2+z
x,-y,1/2+z
1/2+x,1/2+y,1/2+z
1/2-x,1/2-y,1/2+z
1/2+x,1/2-y,-z
1/2-x,1/2+y,-z
1/2-x,1/2-y,1/2-z
1/2+x,1/2+y,1/2-z
1/2-x,1/2+y,z
1/2+x,1/2-y,z
loop_
_atom_site_type_symbol
_atom_site_label
_atom_site_fract_x
_atom_site_fract_y
_atom_site_fract_z
Si Si1 0.467489 0.827983 0.854208
Si Si2 0.544497 0.563732 0.362596
Si Si3 0.189502 0.781485 0.353193
Si Si4 0.374708 0.906980 0.852052
Si Si5 0.260540 0.406045 0.150985
O O1 0.500000 0.866939 0.750000
O O2 0.461890 0.694053 0.838027
O O3 0.423275 0.884356 0.840834
O O4 0.482767 0.845887 0.000000
O O5 0.500000 0.500000 0.372028
O O6 0.567499 0.500000 0.250000
O O7 0.565511 0.552227 0.500000
O O8 0.187372 0.829374 0.500000
O O9 0.148769 0.709030 0.330361
O O10 0.226797 0.691897 0.355436
O O11 0.200308 0.861440 0.233619
O O12 0.362101 0.000000 0.750000
O O13 0.365379 0.941294 0.000000
O O14 0.243857 0.500000 0.250000
O O15 0.267831 0.438370 0.000000
#
# Coordination Sequence:
#
# PCOD9525926 Si02
#       5
#    16  16  16  16  16
#     4  10  20  34  53  77 104 136 176 224 272 318
#     4   9  15  26  47  72  95 121 157 203 252 306
#     4   9  19  36  56  80 111 147 185 226 272 325
#     4  10  22  39  57  77 106 142 180 226 278 329
#     4  10  19  32  56  86 114 146 183 224 271 324
#
# _framework density 19.795632999999999
#
# number of rings (size 3 to 8) (size 9 to 14) (size 15 to 20)
#    0.000    2.400    2.000    1.200    0.000    2.800 
#    0.000    3.000    0.000    2.400    0.000    0.000 
#    0.000    0.000    0.000    0.000    0.000    0.000 
#
# Total GULP energy -222811.722484 kJ/mol
# GULP energy per Si atom -5570.293062 kJ/mol
# Density = 1.975058 g / cm^3
# Si number density = 19.795633 Si / 1000 Ang^3
#
#
#
# Elastic Constant Matrix: (Units=GPa)
#
#
# Indices 1 2 3 4 5 6 
#
# 1 42.3572 -6.6372 30.4132 0.0000 0.0000 0.0000
# 2 -6.6372 46.8978 27.8536 0.0000 0.0000 0.0000
# 3 30.4132 27.8536 159.1989 0.0000 0.0000 0.0000
# 4 0.0000 0.0000 0.0000 11.8917 0.0000 0.0000
# 5 0.0000 0.0000 0.0000 0.0000 10.2940 0.0000
# 6 0.0000 0.0000 0.0000 0.0000 0.0000 8.2628
#
#
#
# Elastic Compliance Matrix: (Units=1/GPa)
#
#
# Indices 1 2 3 4 5 6 
#
# 1 0.030171 0.008585 -0.007266 0.000000 0.000000 0.000000
# 2 0.008585 0.026239 -0.006231 0.000000 0.000000 0.000000
# 3 -0.007266 -0.006231 0.008760 0.000000 0.000000 0.000000
# 4 0.000000 0.000000 0.000000 0.084093 0.000000 0.000000
# 5 0.000000 0.000000 0.000000 0.000000 0.097144 0.000000
# 6 0.000000 0.000000 0.000000 0.000000 0.000000 0.121024
#
#
# Mechanical properties :
#
#
# Convention : Reuss Voigt Hill
#
# Bulk Modulus (GPa) = 18.06797 39.07924 28.57360
# Shear Modulus (GPa) = 12.63575 19.21130 15.92353
#
# Velocity S-wave (km/s) = 2.52922 3.11864 2.83926
# Velocity P-wave (km/s) = 4.20432 5.72294 5.02137
#
# Compressibility (1/GPa) = 0.05534656
#
# Stress axis : x y z
#
# Youngs Moduli (GPa) = 33.14428 38.11167 114.15924
#
# Poissons Ratio (x) = -0.32720 0.82948
# Poissons Ratio (y) = -0.28456 0.71131
# Poissons Ratio (z) = 0.24083 0.23747
#
# Static dielectric constant tensor:
#      x y z
#    x 1.695440 0.000000 0.000000 
#    y 0.000000 1.741560 0.000000 
#    z 0.000000 0.000000 1.765200 
# 
# From -- ./inp_files/16724.got.cif
#   From: 2010.05.17/outbox.cif.g08.bks.cpg/sg72_9_cif.got.tgz:16724.got - 2010.06.03 17:03:01.
