data_PCOD9525149
_publ_section_title
;
Structure prediction by ZEFSAII (Michael W. Deem and Ramdas Pophale) SiO2 
 PCOD9525149
Probable space group: I B A M
;
_chemical_formula_sum "Si O2"
_cell_formula_units_Z 96
_cell_length_a 23.407396
_cell_length_b 9.109197
_cell_length_c 17.336845
_cell_angle_alpha 90.000000
_cell_angle_beta 90.000000
_cell_angle_gamma 90.000000
_cell_volume 3696.606845
_symmetry_space_group_name_H-M "I B A M"
_symmetry_group_IT_number 72
_symmetry_cell_setting 'orthorhombic'
loop_
_space_group_symop_operation_xyz
x,y,z
-x,-y,z
x,-y,1/2-z
-x,y,1/2-z
-x,-y,-z
x,y,-z
-x,y,1/2+z
x,-y,1/2+z
1/2+x,1/2+y,1/2+z
1/2-x,1/2-y,1/2+z
1/2+x,1/2-y,-z
1/2-x,1/2+y,-z
1/2-x,1/2-y,1/2-z
1/2+x,1/2+y,1/2-z
1/2-x,1/2+y,z
1/2+x,1/2-y,z
loop_
_atom_site_type_symbol
_atom_site_label
_atom_site_fract_x
_atom_site_fract_y
_atom_site_fract_z
Si Si1 0.329633 0.987893 0.333645
Si Si2 0.892593 0.161752 0.747612
Si Si3 0.168240 0.475984 0.500000
Si Si4 0.562817 0.314931 0.915054
Si Si5 0.781435 0.800110 0.000000
Si Si6 0.217360 0.191588 0.163794
Si Si7 0.571894 0.669804 0.084726
O O1 0.281388 0.862382 0.329029
O O2 0.359471 0.000000 0.250000
O O3 0.361171 0.979063 0.415996
O O4 0.290156 0.134102 0.338589
O O5 0.914244 0.238797 0.668387
O O6 0.826323 0.141912 0.728175
O O7 0.901518 0.221795 0.833747
O O8 0.921028 0.000000 0.750000
O O9 0.206550 0.626634 0.500000
O O10 0.214795 0.344353 0.500000
O O11 0.494910 0.289172 0.913688
O O12 0.572844 0.491298 0.915492
O O13 0.583851 0.259507 0.000000
O O14 0.804681 0.863538 0.919979
O O15 0.595231 0.716090 0.000000
#
# Coordination Sequence:
#
# PCOD9525149 Si02
#       7
#    16  16   8  16   8  16  16
#     4  10  19  34  53  68  95 127 170 210 252 301
#     4  10  18  26  41  66  96 123 166 204 245 286
#     4   8  16  30  48  70  84 116 155 201 249 295
#     4   8  14  24  41  64  91 126 159 192 242 298
#     4   8  16  30  46  66  92 117 157 205 245 290
#     4  10  20  32  50  72  96 131 170 210 252 294
#     4   8  14  26  41  60  92 130 160 190 238 302
#
# _framework density 25.969763
#
# number of rings (size 3 to 8) (size 9 to 14) (size 15 to 20)
#    0.000    3.000    0.000    2.500    1.167    2.000 
#    0.000    0.000    3.667    0.000    0.000    0.000 
#    0.000    2.667    0.000   10.333    0.000   20.333 
#
# Total GULP energy -267862.822769 kJ/mol
# GULP energy per Si atom -5580.475474 kJ/mol
# Density = 2.591065 g / cm^3
# Si number density = 25.969763 Si / 1000 Ang^3
#
#
#
# Elastic Constant Matrix: (Units=GPa)
#
#
# Indices 1 2 3 4 5 6 
#
# 1 69.4617 11.9051 62.3161 0.0000 0.0000 0.0000
# 2 11.9051 55.5869 40.9723 0.0000 0.0000 0.0000
# 3 62.3161 40.9723 373.1590 0.0000 0.0000 0.0000
# 4 0.0000 0.0000 0.0000 38.9372 0.0000 0.0000
# 5 0.0000 0.0000 0.0000 0.0000 46.7919 0.0000
# 6 0.0000 0.0000 0.0000 0.0000 0.0000 10.8659
#
#
#
# Elastic Compliance Matrix: (Units=1/GPa)
#
#
# Indices 1 2 3 4 5 6 
#
# 1 0.017078 -0.001692 -0.002666 0.000000 0.000000 0.000000
# 2 -0.001692 0.019742 -0.001885 0.000000 0.000000 0.000000
# 3 -0.002666 -0.001885 0.003332 0.000000 0.000000 0.000000
# 4 0.000000 0.000000 0.000000 0.025682 0.000000 0.000000
# 5 0.000000 0.000000 0.000000 0.000000 0.021371 0.000000
# 6 0.000000 0.000000 0.000000 0.000000 0.000000 0.092031
#
#
# Mechanical properties :
#
#
# Convention : Reuss Voigt Hill
#
# Bulk Modulus (GPa) = 36.14693 80.95496 58.55094
# Shear Modulus (GPa) = 24.88235 44.85328 34.86782
#
# Velocity S-wave (km/s) = 3.09872 4.16039 3.66817
# Velocity P-wave (km/s) = 5.17222 7.37014 6.36674
#
# Compressibility (1/GPa) = 0.02766487
#
# Stress axis : x y z
#
# Youngs Moduli (GPa) = 58.55343 50.65418 300.11690
#
# Poissons Ratio (x) = 0.08573 0.80017
# Poissons Ratio (y) = 0.09910 0.56571
# Poissons Ratio (z) = 0.15612 0.09548
#
# Static dielectric constant tensor:
#      x y z
#    x 1.997540 0.000000 0.000000 
#    y 0.000000 2.090630 0.000000 
#    z 0.000000 0.000000 2.170900 
# 
# From -- ./inp_files/33902.got.cif
#   From: 2010.05.17/outbox.cif.g08.bks.cpg/sg72_17_cif.got.tgz:33902.got - 2010.06.03 17:03:01.
