data_PCOD9525399
_publ_section_title
;
Structure prediction by ZEFSAII (Michael W. Deem and Ramdas Pophale) SiO2 
 PCOD9525399
Probable space group: I B A M
;
_chemical_formula_sum "Si O2"
_cell_formula_units_Z 128
_cell_length_a 21.870846
_cell_length_b 17.921165
_cell_length_c 18.116432
_cell_angle_alpha 90.000000
_cell_angle_beta 90.000000
_cell_angle_gamma 90.000000
_cell_volume 7100.754361
_symmetry_space_group_name_H-M "I B A M"
_symmetry_group_IT_number 72
_symmetry_cell_setting 'orthorhombic'
loop_
_space_group_symop_operation_xyz
x,y,z
-x,-y,z
x,-y,1/2-z
-x,y,1/2-z
-x,-y,-z
x,y,-z
-x,y,1/2+z
x,-y,1/2+z
1/2+x,1/2+y,1/2+z
1/2-x,1/2-y,1/2+z
1/2+x,1/2-y,-z
1/2-x,1/2+y,-z
1/2-x,1/2-y,1/2-z
1/2+x,1/2+y,1/2-z
1/2-x,1/2+y,z
1/2+x,1/2-y,z
loop_
_atom_site_type_symbol
_atom_site_label
_atom_site_fract_x
_atom_site_fract_y
_atom_site_fract_z
Si Si1 0.713507 0.259296 0.582706
Si Si2 0.304901 0.834931 0.192893
Si Si3 0.413195 0.118156 0.586438
Si Si4 0.974575 0.332847 0.827036
Si Si5 0.396321 0.049384 0.913923
Si Si6 0.763010 0.414962 0.082590
Si Si7 0.691771 0.416017 0.771319
Si Si8 0.375709 0.280729 0.203286
O O1 0.721828 0.288022 0.500000
O O2 0.767680 0.282935 0.636653
O O3 0.713067 0.170068 0.580127
O O4 0.652819 0.288979 0.621928
O O5 0.357646 0.870149 0.142947
O O6 0.254432 0.889215 0.229401
O O7 0.336180 0.783697 0.255137
O O8 0.398633 0.132790 0.500000
O O9 0.469506 0.167643 0.615477
O O10 0.429041 0.030387 0.592247
O O11 0.924761 0.388490 0.861659
O O12 0.942473 0.254441 0.806824
O O13 0.000000 0.364264 0.750000
O O14 0.324035 0.038853 0.897740
O O15 0.400675 0.073210 0.000000
O O16 0.710442 0.417461 0.142952
O O17 0.743036 0.436193 0.000000
O O18 0.675541 0.500000 0.750000
O O19 0.640157 0.355796 0.748290
#
# Coordination Sequence:
#
# PCOD9525399 Si02
#       8
#    16  16  16  16  16  16  16  16
#     4  10  18  31  56  81 107 147 184 225 276 332
#     4  11  19  36  54  83 118 144 184 232 280 346
#     4  11  24  37  53  81 115 151 190 239 286 335
#     4  12  23  37  54  74 104 152 195 236 273 329
#     4  10  21  37  53  77 116 152 189 230 275 340
#     4  10  18  32  56  83 114 153 189 222 281 353
#     4  11  21  36  59  87 118 153 186 238 299 352
#     4  11  21  38  54  80 114 146 196 238 274 340
#
# _framework density 18.026254000000002
#
# number of rings (size 3 to 8) (size 9 to 14) (size 15 to 20)
#    0.000    1.250    5.000    2.625    0.000    2.500 
#    0.000    2.500    0.000    0.375    0.000    0.000 
#    0.000    1.000    0.000    0.000    0.000    0.000 
#
# Total GULP energy -357076.639848 kJ/mol
# GULP energy per Si atom -5579.322498 kJ/mol
# Density = 1.798523 g / cm^3
# Si number density = 18.026254 Si / 1000 Ang^3
#
#
#
# Elastic Constant Matrix: (Units=GPa)
#
#
# Indices 1 2 3 4 5 6 
#
# 1 61.3969 35.1306 28.1747 0.0000 0.0000 0.0000
# 2 35.1306 80.1038 22.6983 0.0000 0.0000 0.0000
# 3 28.1747 22.6983 87.4786 0.0000 0.0000 0.0000
# 4 0.0000 0.0000 0.0000 14.0545 0.0000 0.0000
# 5 0.0000 0.0000 0.0000 0.0000 16.0739 0.0000
# 6 0.0000 0.0000 0.0000 0.0000 0.0000 16.0219
#
#
#
# Elastic Compliance Matrix: (Units=1/GPa)
#
#
# Indices 1 2 3 4 5 6 
#
# 1 0.023870 -0.008948 -0.005366 0.000000 0.000000 0.000000
# 2 -0.008948 0.016829 -0.001485 0.000000 0.000000 0.000000
# 3 -0.005366 -0.001485 0.013545 0.000000 0.000000 0.000000
# 4 0.000000 0.000000 0.000000 0.071151 0.000000 0.000000
# 5 0.000000 0.000000 0.000000 0.000000 0.062213 0.000000
# 6 0.000000 0.000000 0.000000 0.000000 0.000000 0.062415
#
#
# Mechanical properties :
#
#
# Convention : Reuss Voigt Hill
#
# Bulk Modulus (GPa) = 44.15790 44.55404 44.35597
# Shear Modulus (GPa) = 17.29096 18.76178 18.02637
#
# Velocity S-wave (km/s) = 3.10047 3.22965 3.16572
# Velocity P-wave (km/s) = 6.11284 6.21911 6.16621
#
# Compressibility (1/GPa) = 0.02264601
#
# Stress axis : x y z
#
# Youngs Moduli (GPa) = 41.89391 59.42224 73.82852
#
# Poissons Ratio (x) = 0.53170 0.39617
# Poissons Ratio (y) = 0.37486 0.10961
# Poissons Ratio (z) = 0.22481 0.08822
#
# Static dielectric constant tensor:
#      x y z
#    x 1.664040 0.000000 0.000000 
#    y 0.000000 1.626530 0.000000 
#    z 0.000000 0.000000 1.640790 
# 
# From -- ./inp_files/33535.got.cif
#   From: 2010.05.17/outbox.cif.g08.bks.cpg/sg72_17_cif.got.tgz:33535.got - 2010.06.03 17:03:01.
