data_PCOD9525612
_publ_section_title
;
Structure prediction by ZEFSAII (Michael W. Deem and Ramdas Pophale) SiO2 
 PCOD9525612
Probable space group: I B A M
;
_chemical_formula_sum "Si O2"
_cell_formula_units_Z 112
_cell_length_a 22.523216
_cell_length_b 18.538135
_cell_length_c 15.661721
_cell_angle_alpha 90.000000
_cell_angle_beta 90.000000
_cell_angle_gamma 90.000000
_cell_volume 6539.370223
_symmetry_space_group_name_H-M "I B A M"
_symmetry_group_IT_number 72
_symmetry_cell_setting 'orthorhombic'
loop_
_space_group_symop_operation_xyz
x,y,z
-x,-y,z
x,-y,1/2-z
-x,y,1/2-z
-x,-y,-z
x,y,-z
-x,y,1/2+z
x,-y,1/2+z
1/2+x,1/2+y,1/2+z
1/2-x,1/2-y,1/2+z
1/2+x,1/2-y,-z
1/2-x,1/2+y,-z
1/2-x,1/2-y,1/2-z
1/2+x,1/2+y,1/2-z
1/2-x,1/2+y,z
1/2+x,1/2-y,z
loop_
_atom_site_type_symbol
_atom_site_label
_atom_site_fract_x
_atom_site_fract_y
_atom_site_fract_z
Si Si1 0.166560 0.296348 0.903063
Si Si2 0.211557 0.753629 0.836256
Si Si3 0.066956 0.007620 0.148368
Si Si4 0.663072 0.610112 0.100056
Si Si5 0.294482 0.054493 0.603746
Si Si6 0.353928 0.358357 0.603039
Si Si7 0.781297 0.396164 0.103406
O O1 0.236569 0.274630 0.903990
O O2 0.168062 0.376586 0.863383
O O3 0.137502 0.224059 0.864667
O O4 0.144652 0.303508 0.000000
O O5 0.250000 0.750000 0.750000
O O6 0.164365 0.817546 0.843346
O O7 0.188168 0.674774 0.858807
O O8 0.109634 0.944606 0.114500
O O9 0.065461 0.000000 0.250000
O O10 0.096684 0.084305 0.127622
O O11 0.000000 0.000000 0.114927
O O12 0.725110 0.570109 0.121587
O O13 0.664258 0.629629 0.000000
O O14 0.299988 0.055363 0.500000
O O15 0.306390 0.973142 0.632828
O O16 0.352232 0.354087 0.500000
O O17 0.288470 0.387569 0.628836
O O18 0.783661 0.394207 0.000000
#
# Coordination Sequence:
#
# PCOD9525612 Si02
#       7
#    16  16  16  16  16  16  16
#     4   8  15  27  42  61  85 111 144 181 222 282
#     4  10  19  26  40  66  89 120 155 187 231 285
#     4  11  24  35  46  66  92 124 166 216 254 281
#     4  10  19  32  47  63  91 127 164 202 241 288
#     4   8  13  24  43  65  86 113 146 180 222 275
#     4   9  16  29  48  62  81 116 154 191 232 282
#     4   9  15  26  43  63  89 119 151 182 224 284
#
# _framework density 17.127032
#
# number of rings (size 3 to 8) (size 9 to 14) (size 15 to 20)
#    0.000    2.714    1.429    3.429    4.000    1.143 
#    0.000    2.143    0.000    0.000    0.000    0.000 
#    0.000    1.143    0.000   11.714    0.000    1.714 
#
# Total GULP energy -311756.302008 kJ/mol
# GULP energy per Si atom -5567.076822 kJ/mol
# Density = 1.708805 g / cm^3
# Si number density = 17.127032 Si / 1000 Ang^3
#
#
#
# Elastic Constant Matrix: (Units=GPa)
#
#
# Indices 1 2 3 4 5 6 
#
# 1 42.5106 37.1449 3.8693 0.0000 0.0000 0.0000
# 2 37.1449 204.1761 19.4488 0.0000 0.0000 0.0000
# 3 3.8693 19.4488 39.8683 0.0000 0.0000 0.0000
# 4 0.0000 0.0000 0.0000 9.0022 0.0000 0.0000
# 5 0.0000 0.0000 0.0000 0.0000 12.0687 0.0000
# 6 0.0000 0.0000 0.0000 0.0000 0.0000 12.2952
#
#
#
# Elastic Compliance Matrix: (Units=1/GPa)
#
#
# Indices 1 2 3 4 5 6 
#
# 1 0.027972 -0.005066 -0.000244 0.000000 0.000000 0.000000
# 2 -0.005066 0.006054 -0.002462 0.000000 0.000000 0.000000
# 3 -0.000244 -0.002462 0.026307 0.000000 0.000000 0.000000
# 4 0.000000 0.000000 0.000000 0.111084 0.000000 0.000000
# 5 0.000000 0.000000 0.000000 0.000000 0.082859 0.000000
# 6 0.000000 0.000000 0.000000 0.000000 0.000000 0.081332
#
#
# Mechanical properties :
#
#
# Convention : Reuss Voigt Hill
#
# Bulk Modulus (GPa) = 22.32580 45.27567 33.80073
# Shear Modulus (GPa) = 13.65820 21.74602 17.70211
#
# Velocity S-wave (km/s) = 2.82700 3.56714 3.21842
# Velocity P-wave (km/s) = 4.87028 6.59231 5.79561
#
# Compressibility (1/GPa) = 0.04479124
#
# Stress axis : x y z
#
# Youngs Moduli (GPa) = 35.75011 165.18623 38.01266
#
# Poissons Ratio (x) = 0.83677 0.00926
# Poissons Ratio (y) = 0.18110 0.09357
# Poissons Ratio (z) = 0.00871 0.40662
#
# Static dielectric constant tensor:
#      x y z
#    x 1.538620 0.000000 0.000000 
#    y 0.000000 1.671320 0.000000 
#    z 0.000000 0.000000 1.649970 
# 
# From -- ./inp_files/31929.got.cif
#   From: 2010.05.17/outbox.cif.g08.bks.cpg/sg72_16_cif.got.tgz:31929.got - 2010.06.03 17:03:01.
