data_PCOD9525091
_publ_section_title
;
Structure prediction by ZEFSAII (Michael W. Deem and Ramdas Pophale) SiO2 
 PCOD9525091
Probable space group: I B A M
;
_chemical_formula_sum "Si O2"
_cell_formula_units_Z 80
_cell_length_a 26.005783
_cell_length_b 10.073607
_cell_length_c 17.568717
_cell_angle_alpha 90.000000
_cell_angle_beta 90.000000
_cell_angle_gamma 90.000000
_cell_volume 4602.512592
_symmetry_space_group_name_H-M "I B A M"
_symmetry_group_IT_number 72
_symmetry_cell_setting 'orthorhombic'
loop_
_space_group_symop_operation_xyz
x,y,z
-x,-y,z
x,-y,1/2-z
-x,y,1/2-z
-x,-y,-z
x,y,-z
-x,y,1/2+z
x,-y,1/2+z
1/2+x,1/2+y,1/2+z
1/2-x,1/2-y,1/2+z
1/2+x,1/2-y,-z
1/2-x,1/2+y,-z
1/2-x,1/2-y,1/2-z
1/2+x,1/2+y,1/2-z
1/2-x,1/2+y,z
1/2+x,1/2-y,z
loop_
_atom_site_type_symbol
_atom_site_label
_atom_site_fract_x
_atom_site_fract_y
_atom_site_fract_z
Si Si1 0.180293 0.919851 0.642174
Si Si2 0.059336 0.345350 0.231435
Si Si3 0.150288 0.809609 0.805742
Si Si4 0.874542 0.668562 0.085931
Si Si5 0.796637 0.541623 0.339428
O O1 0.177754 0.853018 0.726604
O O2 0.155429 0.808634 0.589710
O O3 0.239147 0.958972 0.627898
O O4 0.148394 0.056225 0.646036
O O5 0.070013 0.500000 0.250000
O O6 0.095880 0.252189 0.281964
O O7 0.077908 0.324432 0.144743
O O8 0.000000 0.320029 0.250000
O O9 0.182350 0.691343 0.842974
O O10 0.834987 0.558486 0.118342
O O11 0.889801 0.637516 0.000000
O O12 0.795204 0.500000 0.250000
#
# Coordination Sequence:
#
# PCOD9525091 Si02
#       5
#    16  16  16  16  16
#     4  10  20  30  55  83 115 150 183 228 273 322
#     4  10  19  37  63  83 103 137 193 244 279 329
#     4  10  17  31  54  86 104 137 194 243 263 308
#     4  11  23  38  53  82 123 152 179 231 297 340
#     4  12  17  33  58  85 111 152 201 230 257 323
#
# _framework density 17.381810000000002
#
# number of rings (size 3 to 8) (size 9 to 14) (size 15 to 20)
#    0.000    1.400    8.000    1.800    0.000    0.800 
#    0.000   11.000    0.000    1.200    0.000    0.000 
#    0.000    0.000    0.000    0.000    0.000    0.000 
#
# Total GULP energy -223182.450039 kJ/mol
# GULP energy per Si atom -5579.561251 kJ/mol
# Density = 1.734225 g / cm^3
# Si number density = 17.381810 Si / 1000 Ang^3
#
#
#
# Elastic Constant Matrix: (Units=GPa)
#
#
# Indices 1 2 3 4 5 6 
#
# 1 128.6336 44.7911 41.8584 0.0000 0.0000 0.0000
# 2 44.7911 127.6141 25.6601 0.0000 0.0000 0.0000
# 3 41.8584 25.6601 69.7720 0.0000 0.0000 0.0000
# 4 0.0000 0.0000 0.0000 6.7634 0.0000 0.0000
# 5 0.0000 0.0000 0.0000 0.0000 6.0271 0.0000
# 6 0.0000 0.0000 0.0000 0.0000 0.0000 10.3943
#
#
#
# Elastic Compliance Matrix: (Units=1/GPa)
#
#
# Indices 1 2 3 4 5 6 
#
# 1 0.010394 -0.002586 -0.005285 0.000000 0.000000 0.000000
# 2 -0.002586 0.009105 -0.001797 0.000000 0.000000 0.000000
# 3 -0.005285 -0.001797 0.018164 0.000000 0.000000 0.000000
# 4 0.000000 0.000000 0.000000 0.147855 0.000000 0.000000
# 5 0.000000 0.000000 0.000000 0.000000 0.165916 0.000000
# 6 0.000000 0.000000 0.000000 0.000000 0.000000 0.096206
#
#
# Mechanical properties :
#
#
# Convention : Reuss Voigt Hill
#
# Bulk Modulus (GPa) = 54.56287 61.18210 57.87248
# Shear Modulus (GPa) = 10.56893 18.88431 14.72662
#
# Velocity S-wave (km/s) = 2.46853 3.29970 2.91390
# Velocity P-wave (km/s) = 6.29157 7.05639 6.68493
#
# Compressibility (1/GPa) = 0.01832748
#
# Stress axis : x y z
#
# Youngs Moduli (GPa) = 96.20890 109.82932 55.05402
#
# Poissons Ratio (x) = 0.28397 0.29095
# Poissons Ratio (y) = 0.24875 0.09896
# Poissons Ratio (z) = 0.50845 0.19741
#
# Static dielectric constant tensor:
#      x y z
#    x 1.584200 0.000000 0.000000 
#    y 0.000000 1.602890 0.000000 
#    z 0.000000 0.000000 1.598840 
# 
# From -- ./inp_files/33764.got.cif
#   From: 2010.05.17/outbox.cif.g08.bks.cpg/sg72_17_cif.got.tgz:33764.got - 2010.06.03 17:03:01.
