data_PCOD9525505
_publ_section_title
;
Structure prediction by ZEFSAII (Michael W. Deem and Ramdas Pophale) SiO2 
 PCOD9525505
Probable space group: I B A M
;
_chemical_formula_sum "Si O2"
_cell_formula_units_Z 64
_cell_length_a 23.988372
_cell_length_b 7.967694
_cell_length_c 15.668688
_cell_angle_alpha 90.000000
_cell_angle_beta 90.000000
_cell_angle_gamma 90.000000
_cell_volume 2994.787795
_symmetry_space_group_name_H-M "I B A M"
_symmetry_group_IT_number 72
_symmetry_cell_setting 'orthorhombic'
loop_
_space_group_symop_operation_xyz
x,y,z
-x,-y,z
x,-y,1/2-z
-x,y,1/2-z
-x,-y,-z
x,y,-z
-x,y,1/2+z
x,-y,1/2+z
1/2+x,1/2+y,1/2+z
1/2-x,1/2-y,1/2+z
1/2+x,1/2-y,-z
1/2-x,1/2+y,-z
1/2-x,1/2-y,1/2-z
1/2+x,1/2+y,1/2-z
1/2-x,1/2+y,z
1/2+x,1/2-y,z
loop_
_atom_site_type_symbol
_atom_site_label
_atom_site_fract_x
_atom_site_fract_y
_atom_site_fract_z
Si Si1 0.334677 0.642280 0.134772
Si Si2 0.720563 0.011008 0.144695
Si Si3 0.941774 0.075641 0.098074
Si Si4 0.373990 0.824372 0.299791
O O1 0.308121 0.822193 0.108737
O O2 0.282980 0.520558 0.116478
O O3 0.391688 0.561802 0.101533
O O4 0.348646 0.690962 0.232963
O O5 0.725179 0.000000 0.250000
O O6 0.674384 0.867457 0.132099
O O7 0.924305 0.233713 0.154560
O O8 0.949160 0.126739 0.000000
O O9 0.000000 0.000000 0.128905
O O10 0.387733 0.000000 0.250000
#
# Coordination Sequence:
#
# PCOD9525505 Si02
#       4
#    16  16  16  16
#     4  10  18  33  59  88 117 152 195 239 289 353
#     4   9  16  30  57  91 120 145 184 244 303 343
#     4  11  24  41  58  81 120 163 197 238 294 346
#     4   9  19  37  63  91 116 150 197 245 289 345
#
# _framework density 21.370462
#
# number of rings (size 3 to 8) (size 9 to 14) (size 15 to 20)
#    0.000    2.750    0.000    6.750    0.000    2.000 
#    0.000   20.000    0.000   12.000    0.000    0.000 
#    0.000    0.000    0.000    0.000    0.000    0.000 
#
# Total GULP energy -178223.263951 kJ/mol
# GULP energy per Si atom -5569.476998 kJ/mol
# Density = 2.132182 g / cm^3
# Si number density = 21.370462 Si / 1000 Ang^3
#
#
#
# Elastic Constant Matrix: (Units=GPa)
#
#
# Indices 1 2 3 4 5 6 
#
# 1 188.8878 72.0344 27.6111 0.0000 0.0000 0.0000
# 2 72.0344 132.1469 29.2636 0.0000 0.0000 0.0000
# 3 27.6111 29.2636 30.4157 0.0000 0.0000 0.0000
# 4 0.0000 0.0000 0.0000 3.2747 0.0000 0.0000
# 5 0.0000 0.0000 0.0000 0.0000 46.2955 0.0000
# 6 0.0000 0.0000 0.0000 0.0000 0.0000 40.9098
#
#
#
# Elastic Compliance Matrix: (Units=1/GPa)
#
#
# Indices 1 2 3 4 5 6 
#
# 1 0.006947 -0.003038 -0.003384 0.000000 0.000000 0.000000
# 2 -0.003038 0.010944 -0.007772 0.000000 0.000000 0.000000
# 3 -0.003384 -0.007772 0.043428 0.000000 0.000000 0.000000
# 4 0.000000 0.000000 0.000000 0.305369 0.000000 0.000000
# 5 0.000000 0.000000 0.000000 0.000000 0.021600 0.000000
# 6 0.000000 0.000000 0.000000 0.000000 0.000000 0.024444
#
#
# Mechanical properties :
#
#
# Convention : Reuss Voigt Hill
#
# Bulk Modulus (GPa) = 30.36628 67.69650 49.03139
# Shear Modulus (GPa) = 11.05957 32.93209 21.99583
#
# Velocity S-wave (km/s) = 2.27737 3.92983 3.21169
# Velocity P-wave (km/s) = 4.59951 7.23449 6.06190
#
# Compressibility (1/GPa) = 0.03293127
#
# Stress axis : x y z
#
# Youngs Moduli (GPa) = 143.94181 91.37178 23.02686
#
# Poissons Ratio (x) = 0.27755 0.07792
# Poissons Ratio (y) = 0.43724 0.17897
# Poissons Ratio (z) = 0.48711 0.71016
#
# Static dielectric constant tensor:
#      x y z
#    x 1.784230 0.000000 0.000000 
#    y 0.000000 1.844030 0.000000 
#    z 0.000000 0.000000 1.836280 
# 
# From -- ./inp_files/32207.got.cif
#   From: 2010.05.17/outbox.cif.g08.bks.cpg/sg72_17_cif.got.tgz:32207.got - 2010.06.03 17:03:01.
