data_PCOD9525957
_publ_section_title
;
Structure prediction by ZEFSAII (Michael W. Deem and Ramdas Pophale) SiO2 
 PCOD9525957
Probable space group: I B A M
;
_chemical_formula_sum "Si O2"
_cell_formula_units_Z 116
_cell_length_a 26.825518
_cell_length_b 26.704243
_cell_length_c 9.506485
_cell_angle_alpha 90.000000
_cell_angle_beta 90.000000
_cell_angle_gamma 90.000000
_cell_volume 6810.019500
_symmetry_space_group_name_H-M "I B A M"
_symmetry_group_IT_number 72
_symmetry_cell_setting 'orthorhombic'
loop_
_space_group_symop_operation_xyz
x,y,z
-x,-y,z
x,-y,1/2-z
-x,y,1/2-z
-x,-y,-z
x,y,-z
-x,y,1/2+z
x,-y,1/2+z
1/2+x,1/2+y,1/2+z
1/2-x,1/2-y,1/2+z
1/2+x,1/2-y,-z
1/2-x,1/2+y,-z
1/2-x,1/2-y,1/2-z
1/2+x,1/2+y,1/2-z
1/2-x,1/2+y,z
1/2+x,1/2-y,z
loop_
_atom_site_type_symbol
_atom_site_label
_atom_site_fract_x
_atom_site_fract_y
_atom_site_fract_z
Si Si1 0.450086 0.793030 0.167995
Si Si2 0.685014 0.550496 0.167409
Si Si3 0.082722 0.821170 0.665133
Si Si4 0.853205 0.324152 0.163861
Si Si5 0.926876 0.914527 0.339689
Si Si6 0.323011 0.291125 0.839521
Si Si7 0.000000 0.000000 0.250000
Si Si8 0.235175 0.637588 0.665677
O O1 0.500000 0.807790 0.250000
O O2 0.442953 0.732831 0.186751
O O3 0.403045 0.819240 0.243068
O O4 0.451808 0.802578 0.000000
O O5 0.695954 0.500000 0.250000
O O6 0.629006 0.568641 0.203088
O O7 0.726397 0.592684 0.196527
O O8 0.685166 0.541419 0.000000
O O9 0.085815 0.830485 0.500000
O O10 0.058158 0.868421 0.741054
O O11 0.137347 0.814648 0.733410
O O12 0.829297 0.268304 0.167092
O O13 0.813014 0.360186 0.236565
O O14 0.863222 0.336075 0.000000
O O15 0.925294 0.896575 0.500000
O O16 0.963403 0.961992 0.330813
O O17 0.268273 0.312337 0.812751
O O18 0.335827 0.307121 0.000000
O O19 0.221390 0.635437 0.500000
#
# Coordination Sequence:
#
# PCOD9525957 Si02
#       8
#    16  16  16  16  16  16   4  16
#     4  10  21  37  54  76 106 142 178 215 257 308
#     4  10  21  38  57  75  99 135 174 221 277 330
#     4  10  21  34  52  76  99 130 175 219 264 319
#     4  10  20  32  51  79 108 138 173 215 258 311
#     4  11  23  40  56  71  97 130 172 228 287 334
#     4   9  17  32  51  73 104 138 170 209 263 317
#     4  12  26  40  56  78  90 128 184 242 292 328
#     4  10  19  33  52  74 103 139 172 211 268 324
#
# _framework density 17.033725
#
# number of rings (size 3 to 8) (size 9 to 14) (size 15 to 20)
#    0.000    1.931    2.069    1.862    0.966    4.966 
#    0.000    0.000    0.000    0.000    0.000    0.000 
#    0.000    0.552    0.000    5.793    0.000    3.172 
#
# Total GULP energy -323668.630039 kJ/mol
# GULP energy per Si atom -5580.493621 kJ/mol
# Density = 1.699496 g / cm^3
# Si number density = 17.033725 Si / 1000 Ang^3
#
#
#
# Elastic Constant Matrix: (Units=GPa)
#
#
# Indices 1 2 3 4 5 6 
#
# 1 120.1175 37.8428 72.7538 0.0000 0.0000 0.0000
# 2 37.8428 39.4128 29.5915 0.0000 0.0000 0.0000
# 3 72.7538 29.5915 84.7577 0.0000 0.0000 0.0000
# 4 0.0000 0.0000 0.0000 21.1079 0.0000 0.0000
# 5 0.0000 0.0000 0.0000 0.0000 7.8156 0.0000
# 6 0.0000 0.0000 0.0000 0.0000 0.0000 24.3623
#
#
#
# Elastic Compliance Matrix: (Units=1/GPa)
#
#
# Indices 1 2 3 4 5 6 
#
# 1 0.019104 -0.008174 -0.013545 0.000000 0.000000 0.000000
# 2 -0.008174 0.037883 -0.006210 0.000000 0.000000 0.000000
# 3 -0.013545 -0.006210 0.025593 0.000000 0.000000 0.000000
# 4 0.000000 0.000000 0.000000 0.047376 0.000000 0.000000
# 5 0.000000 0.000000 0.000000 0.000000 0.127950 0.000000
# 6 0.000000 0.000000 0.000000 0.000000 0.000000 0.041047
#
#
# Mechanical properties :
#
#
# Convention : Reuss Voigt Hill
#
# Bulk Modulus (GPa) = 37.42083 58.29602 47.85842
# Shear Modulus (GPa) = 13.74692 17.59715 15.67203
#
# Velocity S-wave (km/s) = 2.84393 3.21764 3.03654
# Velocity P-wave (km/s) = 5.72715 6.93559 6.36014
#
# Compressibility (1/GPa) = 0.02672308
#
# Stress axis : x y z
#
# Youngs Moduli (GPa) = 52.34435 26.39704 39.07304
#
# Poissons Ratio (x) = 0.21576 0.52924
# Poissons Ratio (y) = 0.42784 0.24265
# Poissons Ratio (z) = 0.70900 0.16393
#
# Static dielectric constant tensor:
#      x y z
#    x 1.586460 0.000000 0.000000 
#    y 0.000000 1.568590 0.000000 
#    z 0.000000 0.000000 1.577380 
# 
# From -- ./inp_files/7320.got.cif
#   From: 2010.05.17/outbox.cif.g08.bks.cpg/sg72_4_cif.got.tgz:7320.got - 2010.06.03 17:03:01.
