data_PCOD9525996
_publ_section_title
;
Structure prediction by ZEFSAII (Michael W. Deem and Ramdas Pophale) SiO2 
 PCOD9525996
Probable space group: I B A M
;
_chemical_formula_sum "Si O2"
_cell_formula_units_Z 96
_cell_length_a 23.438060
_cell_length_b 8.492004
_cell_length_c 24.143572
_cell_angle_alpha 90.000000
_cell_angle_beta 90.000000
_cell_angle_gamma 90.000000
_cell_volume 4805.442393
_symmetry_space_group_name_H-M "I B A M"
_symmetry_group_IT_number 72
_symmetry_cell_setting 'orthorhombic'
loop_
_space_group_symop_operation_xyz
x,y,z
-x,-y,z
x,-y,1/2-z
-x,y,1/2-z
-x,-y,-z
x,y,-z
-x,y,1/2+z
x,-y,1/2+z
1/2+x,1/2+y,1/2+z
1/2-x,1/2-y,1/2+z
1/2+x,1/2-y,-z
1/2-x,1/2+y,-z
1/2-x,1/2-y,1/2-z
1/2+x,1/2+y,1/2-z
1/2-x,1/2+y,z
1/2+x,1/2-y,z
loop_
_atom_site_type_symbol
_atom_site_label
_atom_site_fract_x
_atom_site_fract_y
_atom_site_fract_z
Si Si1 0.930601 0.317004 0.250389
Si Si2 0.162907 0.492248 0.067267
Si Si3 0.620294 0.496413 0.065636
Si Si4 0.076822 0.694347 0.373072
Si Si5 0.537861 0.659270 0.854865
Si Si6 0.272976 0.684397 0.433218
O O1 0.913625 0.500000 0.250000
O O2 0.907506 0.261315 0.309612
O O3 0.921625 0.212784 0.195861
O O4 0.000000 0.314195 0.250000
O O5 0.106337 0.461788 0.103247
O O6 0.208862 0.356735 0.083622
O O7 0.195433 0.654111 0.081489
O O8 0.152751 0.488781 0.000000
O O9 0.599571 0.328618 0.086441
O O10 0.576469 0.617483 0.093156
O O11 0.684084 0.543904 0.082755
O O12 0.617598 0.504276 0.000000
O O13 0.008317 0.707117 0.370609
O O14 0.500000 0.500000 0.841101
O O15 0.269898 0.686492 0.500000
#
# Coordination Sequence:
#
# PCOD9525996 Si02
#       6
#    16  16  16  16  16  16
#     4   9  19  35  54  77 107 143 190 232 267 318
#     4  10  19  33  54  80 110 144 186 232 281 334
#     4  10  20  34  53  82 116 148 181 224 277 337
#     4  10  20  32  54  82 108 145 185 229 278 324
#     4   9  20  35  56  81 111 147 187 227 276 333
#     4   9  19  34  53  78 110 149 188 226 273 334
#
# _framework density 19.977349
#
# number of rings (size 3 to 8) (size 9 to 14) (size 15 to 20)
#    0.000    2.500    0.000    1.500    2.333   14.000 
#    0.000    0.000    0.000    4.000    0.000    0.000 
#    0.000    0.000    0.000    0.000    0.000    0.000 
#
# Total GULP energy -267441.466190 kJ/mol
# GULP energy per Si atom -5571.697212 kJ/mol
# Density = 1.993188 g / cm^3
# Si number density = 19.977349 Si / 1000 Ang^3
#
#
#
# Elastic Constant Matrix: (Units=GPa)
#
#
# Indices 1 2 3 4 5 6 
#
# 1 31.1885 -1.8655 28.2020 0.0000 0.0000 0.0000
# 2 -1.8655 38.8190 17.9328 0.0000 0.0000 0.0000
# 3 28.2020 17.9328 92.5789 0.0000 0.0000 0.0000
# 4 0.0000 0.0000 0.0000 16.8662 0.0000 0.0000
# 5 0.0000 0.0000 0.0000 0.0000 -2.8503 0.0000
# 6 0.0000 0.0000 0.0000 0.0000 0.0000 25.6694
#
#
#
# Elastic Compliance Matrix: (Units=1/GPa)
#
#
# Indices 1 2 3 4 5 6 
#
# 1 0.047443 0.009837 -0.016358 0.000000 0.000000 0.000000
# 2 0.009837 0.030332 -0.008872 0.000000 0.000000 0.000000
# 3 -0.016358 -0.008872 0.017503 0.000000 0.000000 0.000000
# 4 0.000000 0.000000 0.000000 0.059290 0.000000 0.000000
# 5 0.000000 0.000000 0.000000 0.000000 -0.350841 0.000000
# 6 0.000000 0.000000 0.000000 0.000000 0.000000 0.038957
#
#
# Mechanical properties :
#
#
# Convention : Reuss Voigt Hill
#
# Bulk Modulus (GPa) = 15.50591 27.90278 21.70434
# Shear Modulus (GPa) = -47.60376 15.82486 -15.88945
#
# Velocity S-wave (km/s) = -4.88678 2.81755 -2.82330
# Velocity P-wave (km/s) = 4.90532 4.95806 0.50996
#
# Compressibility (1/GPa) = 0.06449154
#
# Stress axis : x y z
#
# Youngs Moduli (GPa) = 21.07808 32.96878 57.13284
#
# Poissons Ratio (x) = -0.32430 0.93456
# Poissons Ratio (y) = -0.20733 0.50687
# Poissons Ratio (z) = 0.34479 0.29249
#
# Static dielectric constant tensor:
#      x y z
#    x 1.703220 0.000000 0.000000 
#    y 0.000000 1.822670 0.000000 
#    z 0.000000 0.000000 1.722230 
# 
# From -- ./inp_files/42418.got.cif
#   From: 2010.05.17/outbox.cif.g08.bks.cpg/sg72_22_cif.got.tgz:42418.got - 2010.06.03 17:03:01.
