data_PCOD9525833
_publ_section_title
;
Structure prediction by ZEFSAII (Michael W. Deem and Ramdas Pophale) SiO2 
 PCOD9525833
Probable space group: I B A M
;
_chemical_formula_sum "Si O2"
_cell_formula_units_Z 112
_cell_length_a 22.504314
_cell_length_b 14.967241
_cell_length_c 14.508891
_cell_angle_alpha 90.000000
_cell_angle_beta 90.000000
_cell_angle_gamma 90.000000
_cell_volume 4886.993355
_symmetry_space_group_name_H-M "I B A M"
_symmetry_group_IT_number 72
_symmetry_cell_setting 'orthorhombic'
loop_
_space_group_symop_operation_xyz
x,y,z
-x,-y,z
x,-y,1/2-z
-x,y,1/2-z
-x,-y,-z
x,y,-z
-x,y,1/2+z
x,-y,1/2+z
1/2+x,1/2+y,1/2+z
1/2-x,1/2-y,1/2+z
1/2+x,1/2-y,-z
1/2-x,1/2+y,-z
1/2-x,1/2-y,1/2-z
1/2+x,1/2+y,1/2-z
1/2-x,1/2+y,z
1/2+x,1/2-y,z
loop_
_atom_site_type_symbol
_atom_site_label
_atom_site_fract_x
_atom_site_fract_y
_atom_site_fract_z
Si Si1 0.042583 0.623934 0.889101
Si Si2 0.913093 0.347086 0.607259
Si Si3 0.384144 0.702434 0.388596
Si Si4 0.359543 0.664474 0.886477
Si Si5 0.931343 0.011690 0.112424
Si Si6 0.773464 0.685700 0.604655
Si Si7 0.156083 0.515336 0.849419
O O1 0.063374 0.725785 0.875038
O O2 0.092307 0.564273 0.841229
O O3 0.975237 0.614310 0.856786
O O4 0.047437 0.602602 0.000000
O O5 0.926408 0.330477 0.500000
O O6 0.894712 0.252013 0.647321
O O7 0.860128 0.418651 0.611415
O O8 0.377581 0.696803 0.500000
O O9 0.402638 0.604924 0.355560
O O10 0.322822 0.747572 0.353723
O O11 0.391920 0.573245 0.860152
O O12 0.291656 0.674653 0.854196
O O13 0.359219 0.665154 0.000000
O O14 0.931683 0.014269 0.000000
O O15 0.000000 0.000000 0.140586
O O16 0.763860 0.717531 0.500000
O O17 0.803664 0.587779 0.600495
O O18 0.183484 0.500000 0.750000
#
# Coordination Sequence:
#
# PCOD9525833 Si02
#       7
#    16  16  16  16  16  16  16
#     4   9  17  31  51  75 103 133 167 209 259 315
#     4  10  19  32  51  75 103 134 166 207 262 313
#     4   8  14  25  43  66  95 130 160 195 248 300
#     4   9  18  30  48  75 102 131 169 210 251 303
#     4   9  15  24  42  72 105 129 155 200 255 304
#     4   9  18  34  52  73 102 134 174 216 252 299
#     4  11  22  34  50  75 103 137 175 211 255 307
#
# _framework density 22.917977
#
# number of rings (size 3 to 8) (size 9 to 14) (size 15 to 20)
#    0.000    2.714    0.000    3.429    0.000    6.857 
#    0.000    5.000    0.000    0.000    0.000    0.000 
#    0.000    9.143    0.000    0.000    0.000    0.000 
#
# Total GULP energy -312686.637918 kJ/mol
# GULP energy per Si atom -5583.689963 kJ/mol
# Density = 2.286581 g / cm^3
# Si number density = 22.917977 Si / 1000 Ang^3
#
#
#
# Elastic Constant Matrix: (Units=GPa)
#
#
# Indices 1 2 3 4 5 6 
#
# 1 93.5965 14.1272 1.3692 0.0000 0.0000 0.0000
# 2 14.1272 117.1899 -3.3777 0.0000 0.0000 0.0000
# 3 1.3692 -3.3777 59.1480 0.0000 0.0000 0.0000
# 4 0.0000 0.0000 0.0000 -633.1383 0.0000 0.0000
# 5 0.0000 0.0000 0.0000 0.0000 31.5494 0.0000
# 6 0.0000 0.0000 0.0000 0.0000 0.0000 14.5933
#
#
#
# Elastic Compliance Matrix: (Units=1/GPa)
#
#
# Indices 1 2 3 4 5 6 
#
# 1 0.010889 -0.001322 -0.000328 0.000000 0.000000 0.000000
# 2 -0.001322 0.008708 0.000528 0.000000 0.000000 0.000000
# 3 -0.000328 0.000528 0.016944 0.000000 0.000000 0.000000
# 4 0.000000 0.000000 0.000000 -0.001579 0.000000 0.000000
# 5 0.000000 0.000000 0.000000 0.000000 0.031696 0.000000
# 6 0.000000 0.000000 0.000000 0.000000 0.000000 0.068524
#
#
# Mechanical properties :
#
#
# Convention : Reuss Voigt Hill
#
# Bulk Modulus (GPa) = 29.15685 32.68575 30.92130
# Shear Modulus (GPa) = 33.58908 -100.21140 -33.31116
#
# Velocity S-wave (km/s) = 3.83250 -6.61975 -3.81661
# Velocity P-wave (km/s) = 5.68629 6.64342 2.42911
#
# Compressibility (1/GPa) = 0.03429726
#
# Stress axis : x y z
#
# Youngs Moduli (GPa) = 91.84000 114.84031 59.01629
#
# Poissons Ratio (x) = 0.15182 0.01933
# Poissons Ratio (y) = 0.12142 -0.03115
# Poissons Ratio (z) = 0.03008 -0.06062
#
# Static dielectric constant tensor:
#      x y z
#    x 1.827750 0.000000 0.000000 
#    y 0.000000 1.823490 0.000000 
#    z 0.000000 0.000000 1.949290 
# 
# From -- ./inp_files/25231.got.cif
#   From: 2010.05.17/outbox.cif.g08.bks.cpg/sg72_13_cif.got.tgz:25231.got - 2010.06.03 17:03:01.
