data_PCOD9525004
_publ_section_title
;
Structure prediction by ZEFSAII (Michael W. Deem and Ramdas Pophale) SiO2 
 PCOD9525004
Probable space group: I B A M
;
_chemical_formula_sum "Si O2"
_cell_formula_units_Z 80
_cell_length_a 17.083975
_cell_length_b 16.708336
_cell_length_c 15.480531
_cell_angle_alpha 90.000000
_cell_angle_beta 90.000000
_cell_angle_gamma 90.000000
_cell_volume 4418.836990
_symmetry_space_group_name_H-M "I B A M"
_symmetry_group_IT_number 72
_symmetry_cell_setting 'orthorhombic'
loop_
_space_group_symop_operation_xyz
x,y,z
-x,-y,z
x,-y,1/2-z
-x,y,1/2-z
-x,-y,-z
x,y,-z
-x,y,1/2+z
x,-y,1/2+z
1/2+x,1/2+y,1/2+z
1/2-x,1/2-y,1/2+z
1/2+x,1/2-y,-z
1/2-x,1/2+y,-z
1/2-x,1/2-y,1/2-z
1/2+x,1/2+y,1/2-z
1/2-x,1/2+y,z
1/2+x,1/2-y,z
loop_
_atom_site_type_symbol
_atom_site_label
_atom_site_fract_x
_atom_site_fract_y
_atom_site_fract_z
Si Si1 0.748513 0.554093 0.903247
Si Si2 0.585913 0.480480 0.851589
Si Si3 0.816646 0.685053 0.226029
Si Si4 0.185899 0.624568 0.094478
Si Si5 0.862537 0.806522 0.097219
O O1 0.657530 0.529560 0.892988
O O2 0.776297 0.613483 0.828126
O O3 0.794509 0.469718 0.897593
O O4 0.760889 0.588143 0.000000
O O5 0.500000 0.500000 0.885832
O O6 0.588516 0.500000 0.750000
O O7 0.599318 0.386858 0.866667
O O8 0.750000 0.750000 0.250000
O O9 0.852001 0.654265 0.316405
O O10 0.872932 0.732581 0.161317
O O11 0.270184 0.669578 0.092201
O O12 0.148434 0.638684 0.000000
O O13 0.889118 0.789784 0.000000
#
# Coordination Sequence:
#
# PCOD9525004 Si02
#       5
#    16  16  16  16  16
#     4  10  18  28  43  63  87 120 159 191 229 278
#     4  10  19  31  46  63  88 125 165 196 223 265
#     4  10  17  26  41  59  86 115 148 190 234 277
#     4   8  15  26  40  58  82 112 146 184 226 277
#     4   9  17  28  41  60  85 116 152 188 228 269
#
# _framework density 18.104310000000002
#
# number of rings (size 3 to 8) (size 9 to 14) (size 15 to 20)
#    0.000    2.600    0.000    6.600    0.000    2.400 
#    0.000    0.000    0.000    0.000    0.000    0.000 
#    0.000    0.000    0.000  126.000    0.000  543.000 
#
# Total GULP energy -222771.090177 kJ/mol
# GULP energy per Si atom -5569.277254 kJ/mol
# Density = 1.806310 g / cm^3
# Si number density = 18.104310 Si / 1000 Ang^3
#
#
#
# Elastic Constant Matrix: (Units=GPa)
#
#
# Indices 1 2 3 4 5 6 
#
# 1 18.1290 17.3791 19.7753 0.0000 0.0000 0.0000
# 2 17.3791 78.2043 75.9946 0.0000 0.0000 0.0000
# 3 19.7753 75.9946 181.9559 0.0000 0.0000 0.0000
# 4 0.0000 0.0000 0.0000 -327.1252 0.0000 0.0000
# 5 0.0000 0.0000 0.0000 0.0000 2.2642 0.0000
# 6 0.0000 0.0000 0.0000 0.0000 0.0000 1.3562
#
#
#
# Elastic Compliance Matrix: (Units=1/GPa)
#
#
# Indices 1 2 3 4 5 6 
#
# 1 0.070473 -0.013832 -0.001882 0.000000 0.000000 0.000000
# 2 -0.013832 0.024237 -0.008619 0.000000 0.000000 0.000000
# 3 -0.001882 -0.008619 0.009300 0.000000 0.000000 0.000000
# 4 0.000000 0.000000 0.000000 -0.003057 0.000000 0.000000
# 5 0.000000 0.000000 0.000000 0.000000 0.441661 0.000000
# 6 0.000000 0.000000 0.000000 0.000000 0.000000 0.737346
#
#
# Mechanical properties :
#
#
# Convention : Reuss Voigt Hill
#
# Bulk Modulus (GPa) = 18.06912 56.06525 37.06719
# Shear Modulus (GPa) = 3.71175 -53.69162 -24.98993
#
# Velocity S-wave (km/s) = 1.43341 -5.45171 -3.71931
# Velocity P-wave (km/s) = 3.56956 2.93140 1.44025
#
# Compressibility (1/GPa) = 0.05534304
#
# Stress axis : x y z
#
# Youngs Moduli (GPa) = 14.18985 41.26008 107.52424
#
# Poissons Ratio (x) = 0.57071 0.20238
# Poissons Ratio (y) = 0.19627 0.92677
# Poissons Ratio (z) = 0.02671 0.35563
#
# Static dielectric constant tensor:
#      x y z
#    x 1.581680 0.000000 0.000000 
#    y 0.000000 1.615370 0.000000 
#    z 0.000000 0.000000 1.701700 
# 
# From -- ./inp_files/21561.got.cif
#   From: 2010.05.17/outbox.cif.g08.bks.cpg/sg72_11_cif.got.tgz:21561.got - 2010.06.03 17:03:01.
