data_PCOD9525839
_publ_section_title
;
Structure prediction by ZEFSAII (Michael W. Deem and Ramdas Pophale) SiO2 
 PCOD9525839
Probable space group: I B A M
;
_chemical_formula_sum "Si O2"
_cell_formula_units_Z 68
_cell_length_a 40.622255
_cell_length_b 5.354363
_cell_length_c 13.759280
_cell_angle_alpha 90.000000
_cell_angle_beta 90.000000
_cell_angle_gamma 90.000000
_cell_volume 2992.730072
_symmetry_space_group_name_H-M "I B A M"
_symmetry_group_IT_number 72
_symmetry_cell_setting 'orthorhombic'
loop_
_space_group_symop_operation_xyz
x,y,z
-x,-y,z
x,-y,1/2-z
-x,y,1/2-z
-x,-y,-z
x,y,-z
-x,y,1/2+z
x,-y,1/2+z
1/2+x,1/2+y,1/2+z
1/2-x,1/2-y,1/2+z
1/2+x,1/2-y,-z
1/2-x,1/2+y,-z
1/2-x,1/2-y,1/2-z
1/2+x,1/2+y,1/2-z
1/2-x,1/2+y,z
1/2+x,1/2-y,z
loop_
_atom_site_type_symbol
_atom_site_label
_atom_site_fract_x
_atom_site_fract_y
_atom_site_fract_z
Si Si1 0.062576 0.242373 0.691912
Si Si2 0.732517 0.167273 0.881444
Si Si3 0.660202 0.647996 0.380669
Si Si4 0.371196 0.144444 0.889140
Si Si5 0.500000 0.500000 0.750000
O O1 0.061782 0.500000 0.750000
O O2 0.090275 0.287162 0.612240
O O3 0.075374 0.000000 0.750000
O O4 0.024342 0.161724 0.681528
O O5 0.757786 0.386867 0.851278
O O6 0.696397 0.259803 0.852631
O O7 0.732921 0.161823 0.000000
O O8 0.659518 0.631371 0.500000
O O9 0.649726 0.373284 0.346505
O O10 0.635290 0.868031 0.349083
O O11 0.359879 0.125296 0.000000
#
# Coordination Sequence:
#
# PCOD9525839 Si02
#       5
#    16  16  16  16   4
#     4  10  20  36  57  78 102 134 171 201 254 298
#     4   9  15  23  37  59  92 135 173 201 242 302
#     4   9  17  28  43  68 104 137 166 209 261 296
#     4  10  19  32  51  76 106 136 166 209 258 302
#     4   8  22  36  60  76 102 136 160 208 254 288
#
# _framework density 22.721727000000001
#
# number of rings (size 3 to 8) (size 9 to 14) (size 15 to 20)
#    0.706    1.882    0.000    3.176    0.000    5.647 
#    0.000    0.588    0.000    1.412    0.000    0.000 
#    0.000   65.882    0.000    0.000    0.000    0.000 
#
# Total GULP energy -189560.483190 kJ/mol
# GULP energy per Si atom -5575.308329 kJ/mol
# Density = 2.267001 g / cm^3
# Si number density = 22.721727 Si / 1000 Ang^3
#
#
#
# Elastic Constant Matrix: (Units=GPa)
#
#
# Indices 1 2 3 4 5 6 
#
# 1 105.8468 41.9357 -4.2351 0.0000 0.0000 0.0000
# 2 41.9357 177.2762 21.9711 0.0000 0.0000 0.0000
# 3 -4.2351 21.9711 39.5698 0.0000 0.0000 0.0000
# 4 0.0000 0.0000 0.0000 27.6317 0.0000 0.0000
# 5 0.0000 0.0000 0.0000 0.0000 27.0016 0.0000
# 6 0.0000 0.0000 0.0000 0.0000 0.0000 -11.4086
#
#
#
# Elastic Compliance Matrix: (Units=1/GPa)
#
#
# Indices 1 2 3 4 5 6 
#
# 1 0.010694 -0.002869 0.002738 0.000000 0.000000 0.000000
# 2 -0.002869 0.006827 -0.004098 0.000000 0.000000 0.000000
# 3 0.002738 -0.004098 0.027840 0.000000 0.000000 0.000000
# 4 0.000000 0.000000 0.000000 0.036190 0.000000 0.000000
# 5 0.000000 0.000000 0.000000 0.000000 0.037035 0.000000
# 6 0.000000 0.000000 0.000000 0.000000 0.000000 -0.087653
#
#
# Mechanical properties :
#
#
# Convention : Reuss Voigt Hill
#
# Bulk Modulus (GPa) = 27.09839 49.11517 38.10678
# Shear Modulus (GPa) = 96.72441 26.17967 61.45204
#
# Velocity S-wave (km/s) = 6.53158 3.39807 5.20617
# Velocity P-wave (km/s) = 8.29663 6.08759 7.27643
#
# Compressibility (1/GPa) = 0.03690256
#
# Stress axis : x y z
#
# Youngs Moduli (GPa) = 93.51207 146.46686 35.91929
#
# Poissons Ratio (x) = 0.42021 -0.09833
# Poissons Ratio (y) = 0.26828 0.14720
# Poissons Ratio (z) = -0.25599 0.60022
#
# Static dielectric constant tensor:
#      x y z
#    x 1.838850 0.000000 0.000000 
#    y 0.000000 1.820600 0.000000 
#    z 0.000000 0.000000 1.904460 
# 
# From -- ./inp_files/40996.got.cif
#   From: 2010.05.17/outbox.cif.g08.bks.cpg/sg72_21_cif.got.tgz:40996.got - 2010.06.03 17:03:01.
