data_PCOD9525048
_publ_section_title
;
Structure prediction by ZEFSAII (Michael W. Deem and Ramdas Pophale) SiO2 
 PCOD9525048
Probable space group: I B A M
;
_chemical_formula_sum "Si O2"
_cell_formula_units_Z 128
_cell_length_a 21.944092
_cell_length_b 20.737366
_cell_length_c 18.210383
_cell_angle_alpha 90.000000
_cell_angle_beta 90.000000
_cell_angle_gamma 90.000000
_cell_volume 8286.865461
_symmetry_space_group_name_H-M "I B A M"
_symmetry_group_IT_number 72
_symmetry_cell_setting 'orthorhombic'
loop_
_space_group_symop_operation_xyz
x,y,z
-x,-y,z
x,-y,1/2-z
-x,y,1/2-z
-x,-y,-z
x,y,-z
-x,y,1/2+z
x,-y,1/2+z
1/2+x,1/2+y,1/2+z
1/2-x,1/2-y,1/2+z
1/2+x,1/2-y,-z
1/2-x,1/2+y,-z
1/2-x,1/2-y,1/2-z
1/2+x,1/2+y,1/2-z
1/2-x,1/2+y,z
1/2+x,1/2-y,z
loop_
_atom_site_type_symbol
_atom_site_label
_atom_site_fract_x
_atom_site_fract_y
_atom_site_fract_z
Si Si1 0.641389 0.875630 0.324189
Si Si2 0.241187 0.634632 0.080278
Si Si3 0.071410 0.486930 0.912285
Si Si4 0.436292 0.212932 0.213168
Si Si5 0.262031 0.425111 0.737097
Si Si6 0.600410 0.868489 0.084087
Si Si7 0.214267 0.261580 0.864948
Si Si8 0.670621 0.306006 0.713454
O O1 0.603353 0.930988 0.365283
O O2 0.599276 0.836408 0.267328
O O3 0.699348 0.903175 0.278213
O O4 0.670096 0.821760 0.379064
O O5 0.256286 0.591674 0.150834
O O6 0.170246 0.654415 0.088912
O O7 0.280984 0.699749 0.083694
O O8 0.247235 0.603328 0.000000
O O9 0.102063 0.555964 0.895964
O O10 0.000000 0.500000 0.895994
O O11 0.076697 0.473667 0.000000
O O12 0.500000 0.228809 0.250000
O O13 0.440916 0.173211 0.137666
O O14 0.395519 0.276523 0.200017
O O15 0.271454 0.500000 0.750000
O O16 0.316333 0.380485 0.768960
O O17 0.579251 0.864540 0.000000
O O18 0.282304 0.287616 0.850715
O O19 0.193046 0.231928 0.786602
#
# Coordination Sequence:
#
# PCOD9525048 Si02
#       8
#    16  16  16  16  16  16  16  16
#     4  10  19  30  47  70  95 121 163 200 231 276
#     4  10  17  28  48  71  96 124 156 193 241 295
#     4  10  21  34  43  58  93 134 161 191 231 276
#     4  11  19  30  49  70  89 120 160 199 236 278
#     4  10  18  31  51  70  95 125 157 198 241 286
#     4  10  19  31  45  62  91 125 157 192 232 280
#     4   8  14  28  45  64  92 120 145 198 238 274
#     4   8  15  29  45  66  91 113 151 195 237 276
#
# _framework density 15.44613
#
# number of rings (size 3 to 8) (size 9 to 14) (size 15 to 20)
#    0.000    2.375    2.500    3.000    0.000    0.500 
#    0.000    1.250    0.000    4.875    0.000    0.000 
#    0.000    0.000    0.000   11.250    0.000    0.000 
#
# Total GULP energy -356358.795918 kJ/mol
# GULP energy per Si atom -5568.106186 kJ/mol
# Density = 1.541097 g / cm^3
# Si number density = 15.446130 Si / 1000 Ang^3
#
#
#
# Elastic Constant Matrix: (Units=GPa)
#
#
# Indices 1 2 3 4 5 6 
#
# 1 56.8476 46.2088 15.4017 0.0000 0.0000 0.0000
# 2 46.2088 100.7647 33.9537 0.0000 0.0000 0.0000
# 3 15.4017 33.9537 60.2586 0.0000 0.0000 0.0000
# 4 0.0000 0.0000 0.0000 14.5602 0.0000 0.0000
# 5 0.0000 0.0000 0.0000 0.0000 15.5866 0.0000
# 6 0.0000 0.0000 0.0000 0.0000 0.0000 20.9501
#
#
#
# Elastic Compliance Matrix: (Units=1/GPa)
#
#
# Indices 1 2 3 4 5 6 
#
# 1 0.028045 -0.012894 0.000097 0.000000 0.000000 0.000000
# 2 -0.012894 0.018178 -0.006947 0.000000 0.000000 0.000000
# 3 0.000097 -0.006947 0.020485 0.000000 0.000000 0.000000
# 4 0.000000 0.000000 0.000000 0.068680 0.000000 0.000000
# 5 0.000000 0.000000 0.000000 0.000000 0.064158 0.000000
# 6 0.000000 0.000000 0.000000 0.000000 0.000000 0.047732
#
#
# Mechanical properties :
#
#
# Convention : Reuss Voigt Hill
#
# Bulk Modulus (GPa) = 36.73720 45.44437 41.09078
# Shear Modulus (GPa) = 16.90103 18.37314 17.63709
#
# Velocity S-wave (km/s) = 3.31145 3.45265 3.38279
# Velocity P-wave (km/s) = 6.20134 6.73643 6.47441
#
# Compressibility (1/GPa) = 0.02722037
#
# Stress axis : x y z
#
# Youngs Moduli (GPa) = 35.65645 55.01203 48.81671
#
# Poissons Ratio (x) = 0.70931 -0.00473
# Poissons Ratio (y) = 0.45975 0.33913
# Poissons Ratio (z) = -0.00346 0.38217
#
# Static dielectric constant tensor:
#      x y z
#    x 1.526400 0.000000 0.000000 
#    y 0.000000 1.528050 0.000000 
#    z 0.000000 0.000000 1.536860 
# 
# From -- ./inp_files/32962.got.cif
#   From: 2010.05.17/outbox.cif.g08.bks.cpg/sg72_17_cif.got.tgz:32962.got - 2010.06.03 17:03:01.
