data_PCOD9525616
_publ_section_title
;
Structure prediction by ZEFSAII (Michael W. Deem and Ramdas Pophale) SiO2 
 PCOD9525616
Probable space group: I B A M
;
_chemical_formula_sum "Si O2"
_cell_formula_units_Z 80
_cell_length_a 23.644253
_cell_length_b 29.191305
_cell_length_c 9.045216
_cell_angle_alpha 90.000000
_cell_angle_beta 90.000000
_cell_angle_gamma 90.000000
_cell_volume 6243.067789
_symmetry_space_group_name_H-M "I B A M"
_symmetry_group_IT_number 72
_symmetry_cell_setting 'orthorhombic'
loop_
_space_group_symop_operation_xyz
x,y,z
-x,-y,z
x,-y,1/2-z
-x,y,1/2-z
-x,-y,-z
x,y,-z
-x,y,1/2+z
x,-y,1/2+z
1/2+x,1/2+y,1/2+z
1/2-x,1/2-y,1/2+z
1/2+x,1/2-y,-z
1/2-x,1/2+y,-z
1/2-x,1/2-y,1/2-z
1/2+x,1/2+y,1/2-z
1/2-x,1/2+y,z
1/2+x,1/2-y,z
loop_
_atom_site_type_symbol
_atom_site_label
_atom_site_fract_x
_atom_site_fract_y
_atom_site_fract_z
Si Si1 0.626808 0.859531 0.824494
Si Si2 0.668808 0.721650 0.330221
Si Si3 0.731447 0.820917 0.330904
Si Si4 0.061021 0.452551 0.323307
Si Si5 0.060955 0.275286 0.178423
O O1 0.690438 0.852409 0.766295
O O2 0.602309 0.909941 0.796520
O O3 0.587859 0.822273 0.741025
O O4 0.624372 0.850429 0.000000
O O5 0.668168 0.705870 0.500000
O O6 0.701107 0.770850 0.328569
O O7 0.706186 0.687682 0.232795
O O8 0.605507 0.734930 0.282584
O O9 0.732661 0.836478 0.500000
O O10 0.080944 0.500000 0.250000
O O11 0.054309 0.458198 0.500000
O O12 0.000000 0.442537 0.250000
O O13 0.000000 0.268356 0.250000
O O14 0.058000 0.277965 0.000000
#
# Coordination Sequence:
#
# PCOD9525616 Si02
#       5
#    16  16  16  16  16
#     4  10  19  29  41  56  73  94 121 154 190 225
#     4   8  15  26  37  51  72  95 119 147 180 217
#     4   9  16  25  39  56  71  91 118 149 184 217
#     4  10  20  31  43  56  71  94 121 152 190 228
#     4  10  19  28  39  55  74  98 125 154 187 219
#
# _framework density 12.814213000000001
#
# number of rings (size 3 to 8) (size 9 to 14) (size 15 to 20)
#    0.000    2.600    0.000    4.800    0.000   10.400 
#    0.000    0.000    0.000    0.000    0.000    0.000 
#    0.000    0.000    0.000    0.000    0.000    1.000 
#
# Total GULP energy -222807.950430 kJ/mol
# GULP energy per Si atom -5570.198761 kJ/mol
# Density = 1.278505 g / cm^3
# Si number density = 12.814213 Si / 1000 Ang^3
#
#
#
# Elastic Constant Matrix: (Units=GPa)
#
#
# Indices 1 2 3 4 5 6 
#
# 1 102.6460 45.2753 52.9600 0.0000 0.0000 0.0000
# 2 45.2753 44.7796 37.5320 0.0000 0.0000 0.0000
# 3 52.9600 37.5320 74.2132 0.0000 0.0000 0.0000
# 4 0.0000 0.0000 0.0000 14.9905 0.0000 0.0000
# 5 0.0000 0.0000 0.0000 0.0000 21.7720 0.0000
# 6 0.0000 0.0000 0.0000 0.0000 0.0000 18.6823
#
#
#
# Elastic Compliance Matrix: (Units=1/GPa)
#
#
# Indices 1 2 3 4 5 6 
#
# 1 0.019380 -0.013891 -0.006805 0.000000 0.000000 0.000000
# 2 -0.013891 0.048719 -0.014726 0.000000 0.000000 0.000000
# 3 -0.006805 -0.014726 0.025778 0.000000 0.000000 0.000000
# 4 0.000000 0.000000 0.000000 0.066709 0.000000 0.000000
# 5 0.000000 0.000000 0.000000 0.000000 0.045931 0.000000
# 6 0.000000 0.000000 0.000000 0.000000 0.000000 0.053527
#
#
# Mechanical properties :
#
#
# Convention : Reuss Voigt Hill
#
# Bulk Modulus (GPa) = 43.41479 54.79704 49.10591
# Shear Modulus (GPa) = 14.76819 16.81372 15.79096
#
# Velocity S-wave (km/s) = 3.39851 3.62624 3.51422
# Velocity P-wave (km/s) = 7.02521 7.77100 7.40749
#
# Compressibility (1/GPa) = 0.02303363
#
# Stress axis : x y z
#
# Youngs Moduli (GPa) = 51.59832 20.52585 38.79276
#
# Poissons Ratio (x) = 0.28513 0.26398
# Poissons Ratio (y) = 0.71678 0.57125
# Poissons Ratio (z) = 0.35112 0.30225
#
# Static dielectric constant tensor:
#      x y z
#    x 1.424630 0.000000 0.000000 
#    y 0.000000 1.392720 0.000000 
#    z 0.000000 0.000000 1.431670 
# 
# From -- ./inp_files/6244.got.cif
#   From: 2010.05.17/outbox.cif.g08.bks.cpg/sg72_4_cif.got.tgz:6244.got - 2010.06.03 17:03:01.
