data_PCOD9525858
_publ_section_title
;
Structure prediction by ZEFSAII (Michael W. Deem and Ramdas Pophale) SiO2 
 PCOD9525858
Probable space group: I B A M
;
_chemical_formula_sum "Si O2"
_cell_formula_units_Z 76
_cell_length_a 14.850873
_cell_length_b 11.264385
_cell_length_c 25.631872
_cell_angle_alpha 90.000000
_cell_angle_beta 90.000000
_cell_angle_gamma 90.000000
_cell_volume 4287.852085
_symmetry_space_group_name_H-M "I B A M"
_symmetry_group_IT_number 72
_symmetry_cell_setting 'orthorhombic'
loop_
_space_group_symop_operation_xyz
x,y,z
-x,-y,z
x,-y,1/2-z
-x,y,1/2-z
-x,-y,-z
x,y,-z
-x,y,1/2+z
x,-y,1/2+z
1/2+x,1/2+y,1/2+z
1/2-x,1/2-y,1/2+z
1/2+x,1/2-y,-z
1/2-x,1/2+y,-z
1/2-x,1/2-y,1/2-z
1/2+x,1/2+y,1/2-z
1/2-x,1/2+y,z
1/2+x,1/2-y,z
loop_
_atom_site_type_symbol
_atom_site_label
_atom_site_fract_x
_atom_site_fract_y
_atom_site_fract_z
Si Si1 0.000000 0.500000 0.750000
Si Si2 0.907729 0.428504 0.500000
Si Si3 0.379096 0.893317 0.112133
Si Si4 0.604428 0.526263 0.000000
Si Si5 0.437445 0.143927 0.155970
Si Si6 0.762802 0.362359 0.000000
Si Si7 0.683808 0.313116 0.592536
O O1 0.061336 0.415336 0.713342
O O2 0.901451 0.357535 0.552978
O O3 0.824466 0.519709 0.500000
O O4 0.000000 0.500000 0.500000
O O5 0.456328 0.831694 0.146278
O O6 0.273901 0.867851 0.118504
O O7 0.402682 0.032924 0.120244
O O8 0.500000 0.500000 0.000000
O O9 0.633785 0.596734 0.947190
O O10 0.661612 0.406477 0.000000
O O11 0.379041 0.254518 0.136804
O O12 0.785164 0.288270 0.051605
#
# Coordination Sequence:
#
# PCOD9525858 Si02
#       7
#     4   8  16   8  16   8  16
#     4   8  20  40  60  78 110 118 180 276 264 314
#     4  12  14  29  48  71 105 140 178 213 244 295
#     4  10  19  32  52  76 108 138 180 225 250 324
#     4  11  24  34  44  80 125 148 174 220 255 310
#     4  10  20  37  56  80  99 139 182 229 292 310
#     4  11  20  33  45  77 120 144 181 209 244 319
#     4  11  20  34  55  77 108 155 181 210 271 334
#
# _framework density 17.724492000000001
#
# number of rings (size 3 to 8) (size 9 to 14) (size 15 to 20)
#    0.000    1.684    6.316    0.632    2.947    0.842 
#    0.000    4.211    0.000    0.000    0.000    0.000 
#    0.000    0.000    0.000    0.000    0.000    0.000 
#
# Total GULP energy -211636.853920 kJ/mol
# GULP energy per Si atom -5569.390893 kJ/mol
# Density = 1.768415 g / cm^3
# Si number density = 17.724492 Si / 1000 Ang^3
#
#
#
# Elastic Constant Matrix: (Units=GPa)
#
#
# Indices 1 2 3 4 5 6 
#
# 1 152.3727 34.1186 28.2895 0.0000 0.0000 0.0000
# 2 34.1186 39.2349 23.8603 0.0000 0.0000 0.0000
# 3 28.2895 23.8603 84.1751 0.0000 0.0000 0.0000
# 4 0.0000 0.0000 0.0000 9.1422 0.0000 0.0000
# 5 0.0000 0.0000 0.0000 0.0000 9.8258 0.0000
# 6 0.0000 0.0000 0.0000 0.0000 0.0000 37.6388
#
#
#
# Elastic Compliance Matrix: (Units=1/GPa)
#
#
# Indices 1 2 3 4 5 6 
#
# 1 0.008204 -0.006594 -0.000888 0.000000 0.000000 0.000000
# 2 -0.006594 0.036097 -0.008016 0.000000 0.000000 0.000000
# 3 -0.000888 -0.008016 0.014451 0.000000 0.000000 0.000000
# 4 0.000000 0.000000 0.000000 0.109382 0.000000 0.000000
# 5 0.000000 0.000000 0.000000 0.000000 0.101773 0.000000
# 6 0.000000 0.000000 0.000000 0.000000 0.000000 0.026568
#
#
# Mechanical properties :
#
#
# Convention : Reuss Voigt Hill
#
# Bulk Modulus (GPa) = 36.02925 49.81327 42.92126
# Shear Modulus (GPa) = 14.84900 23.95566 19.40233
#
# Velocity S-wave (km/s) = 2.89756 3.68034 3.31216
# Velocity P-wave (km/s) = 5.61836 6.79890 6.23663
#
# Compressibility (1/GPa) = 0.02775523
#
# Stress axis : x y z
#
# Youngs Moduli (GPa) = 121.88705 27.70338 69.20132
#
# Poissons Ratio (x) = 0.18269 0.06145
# Poissons Ratio (y) = 0.80377 0.55470
# Poissons Ratio (z) = 0.10824 0.22206
#
# Static dielectric constant tensor:
#      x y z
#    x 1.654630 0.000000 0.000000 
#    y 0.000000 1.646790 0.000000 
#    z 0.000000 0.000000 1.618300 
# 
# From -- ./inp_files/43173.got.cif
#   From: 2010.05.17/outbox.cif.g08.bks.cpg/sg72_22_cif.got.tgz:43173.got - 2010.06.03 17:03:01.
