data_PCOD9525415
_publ_section_title
;
Structure prediction by ZEFSAII (Michael W. Deem and Ramdas Pophale) SiO2 
 PCOD9525415
Probable space group: I B A M
;
_chemical_formula_sum "Si O2"
_cell_formula_units_Z 128
_cell_length_a 23.294967
_cell_length_b 11.935810
_cell_length_c 26.393160
_cell_angle_alpha 90.000000
_cell_angle_beta 90.000000
_cell_angle_gamma 90.000000
_cell_volume 7338.467699
_symmetry_space_group_name_H-M "I B A M"
_symmetry_group_IT_number 72
_symmetry_cell_setting 'orthorhombic'
loop_
_space_group_symop_operation_xyz
x,y,z
-x,-y,z
x,-y,1/2-z
-x,y,1/2-z
-x,-y,-z
x,y,-z
-x,y,1/2+z
x,-y,1/2+z
1/2+x,1/2+y,1/2+z
1/2-x,1/2-y,1/2+z
1/2+x,1/2-y,-z
1/2-x,1/2+y,-z
1/2-x,1/2-y,1/2-z
1/2+x,1/2+y,1/2-z
1/2-x,1/2+y,z
1/2+x,1/2-y,z
loop_
_atom_site_type_symbol
_atom_site_label
_atom_site_fract_x
_atom_site_fract_y
_atom_site_fract_z
Si Si1 0.823640 0.413399 0.881322
Si Si2 0.785506 0.008863 0.059062
Si Si3 0.950765 0.353498 0.603649
Si Si4 0.933465 0.602567 0.559564
Si Si5 0.606718 0.936837 0.299413
Si Si6 0.654991 0.723601 0.559872
Si Si7 0.763790 0.192404 0.876517
Si Si8 0.726169 0.870750 0.270760
O O1 0.774391 0.476358 0.913312
O O2 0.870495 0.368929 0.921061
O O3 0.858123 0.481052 0.838223
O O4 0.791035 0.308050 0.858367
O O5 0.830431 0.907848 0.064788
O O6 0.803977 0.122735 0.085919
O O7 0.774505 0.024874 0.000000
O O8 0.938628 0.470201 0.573615
O O9 0.937788 0.377088 0.662846
O O10 0.905371 0.264218 0.582406
O O11 0.017013 0.333114 0.590568
O O12 0.941344 0.618199 0.500000
O O13 0.657182 0.859027 0.276821
O O14 0.582222 0.000000 0.250000
O O15 0.658609 0.752525 0.500000
O O16 0.705685 0.781331 0.592218
O O17 0.751449 0.121921 0.827020
O O18 0.750000 0.750000 0.250000
O O19 0.735469 0.000000 0.250000
#
# Coordination Sequence:
#
# PCOD9525415 Si02
#       8
#    16  16  16  16  16  16  16  16
#     4  10  20  34  49  73 106 136 172 217 268 312
#     4  10  20  31  47  73 102 133 170 209 264 327
#     4  10  18  32  50  71 100 132 173 216 264 315
#     4  10  19  31  51  76 100 133 175 214 259 320
#     4  10  19  33  49  74 104 136 172 218 269 320
#     4  10  19  30  48  72 102 135 167 212 265 317
#     4  11  19  32  50  72 103 137 170 215 264 328
#     4  11  22  34  54  78 108 144 180 221 270 322
#
# _framework density 17.442333000000001
#
# number of rings (size 3 to 8) (size 9 to 14) (size 15 to 20)
#    0.000    1.750    2.500    4.500    1.750    1.500 
#    0.000    5.000    0.000    0.750    0.000    2.625 
#    0.000    1.000    0.000    0.000    0.000    0.000 
#
# Total GULP energy -356349.993416 kJ/mol
# GULP energy per Si atom -5567.968647 kJ/mol
# Density = 1.740263 g / cm^3
# Si number density = 17.442333 Si / 1000 Ang^3
#
#
#
# Elastic Constant Matrix: (Units=GPa)
#
#
# Indices 1 2 3 4 5 6 
#
# 1 56.1331 6.9631 9.9546 0.0000 0.0000 0.0000
# 2 6.9631 55.8522 18.9685 0.0000 0.0000 0.0000
# 3 9.9546 18.9685 97.0063 0.0000 0.0000 0.0000
# 4 0.0000 0.0000 0.0000 24.4434 0.0000 0.0000
# 5 0.0000 0.0000 0.0000 0.0000 23.1729 0.0000
# 6 0.0000 0.0000 0.0000 0.0000 0.0000 14.3492
#
#
#
# Elastic Compliance Matrix: (Units=1/GPa)
#
#
# Indices 1 2 3 4 5 6 
#
# 1 0.018305 -0.001761 -0.001534 0.000000 0.000000 0.000000
# 2 -0.001761 0.019347 -0.003602 0.000000 0.000000 0.000000
# 3 -0.001534 -0.003602 0.011170 0.000000 0.000000 0.000000
# 4 0.000000 0.000000 0.000000 0.040911 0.000000 0.000000
# 5 0.000000 0.000000 0.000000 0.000000 0.043154 0.000000
# 6 0.000000 0.000000 0.000000 0.000000 0.000000 0.069690
#
#
# Mechanical properties :
#
#
# Convention : Reuss Voigt Hill
#
# Bulk Modulus (GPa) = 28.54868 31.19598 29.87233
# Shear Modulus (GPa) = 21.92506 23.93346 22.92926
#
# Velocity S-wave (km/s) = 3.54927 3.70827 3.62964
# Velocity P-wave (km/s) = 5.76189 6.02155 5.89315
#
# Compressibility (1/GPa) = 0.03502789
#
# Stress axis : x y z
#
# Youngs Moduli (GPa) = 54.62892 51.68644 89.52188
#
# Poissons Ratio (x) = 0.09103 0.13733
# Poissons Ratio (y) = 0.09621 0.32250
# Poissons Ratio (z) = 0.08381 0.18620
#
# Static dielectric constant tensor:
#      x y z
#    x 1.602620 0.000000 0.000000 
#    y 0.000000 1.635080 0.000000 
#    z 0.000000 0.000000 1.621380 
# 
# From -- ./inp_files/45824.got.cif
#   From: 2010.05.17/outbox.cif.g08.bks.cpg/sg72_23_cif.got.tgz:45824.got - 2010.06.03 17:03:01.
