data_PCOD9525529
_publ_section_title
;
Structure prediction by ZEFSAII (Michael W. Deem and Ramdas Pophale) SiO2 
 PCOD9525529
Probable space group: I B A M
;
_chemical_formula_sum "Si O2"
_cell_formula_units_Z 96
_cell_length_a 11.780765
_cell_length_b 23.128236
_cell_length_c 18.930758
_cell_angle_alpha 90.000000
_cell_angle_beta 90.000000
_cell_angle_gamma 90.000000
_cell_volume 5158.031699
_symmetry_space_group_name_H-M "I B A M"
_symmetry_group_IT_number 72
_symmetry_cell_setting 'orthorhombic'
loop_
_space_group_symop_operation_xyz
x,y,z
-x,-y,z
x,-y,1/2-z
-x,y,1/2-z
-x,-y,-z
x,y,-z
-x,y,1/2+z
x,-y,1/2+z
1/2+x,1/2+y,1/2+z
1/2-x,1/2-y,1/2+z
1/2+x,1/2-y,-z
1/2-x,1/2+y,-z
1/2-x,1/2-y,1/2-z
1/2+x,1/2+y,1/2-z
1/2-x,1/2+y,z
1/2+x,1/2-y,z
loop_
_atom_site_type_symbol
_atom_site_label
_atom_site_fract_x
_atom_site_fract_y
_atom_site_fract_z
Si Si1 0.472905 0.564393 0.666599
Si Si2 0.074234 0.226048 0.680671
Si Si3 0.488402 0.932301 0.835883
Si Si4 0.680952 0.151484 0.337860
Si Si5 0.249063 0.376489 0.183163
Si Si6 0.908217 0.167551 0.583481
O O1 0.500000 0.500000 0.645056
O O2 0.500000 0.571325 0.750000
O O3 0.340304 0.576742 0.659004
O O4 0.541125 0.610334 0.620571
O O5 0.114722 0.291462 0.687864
O O6 0.184418 0.184518 0.670048
O O7 0.000000 0.209169 0.750000
O O8 0.987492 0.217622 0.616132
O O9 0.500000 0.931634 0.750000
O O10 0.591927 0.894972 0.866669
O O11 0.371501 0.896518 0.848573
O O12 0.500000 0.000000 0.856811
O O13 0.735866 0.123562 0.267904
O O14 0.779003 0.171273 0.390563
O O15 0.916378 0.165400 0.500000
#
# Coordination Sequence:
#
# PCOD9525529 Si02
#       6
#    16  16  16  16  16  16
#     4  10  20  35  63  90 116 150 199 253 300 347
#     4  11  21  37  63  89 114 151 203 257 300 347
#     4   9  20  31  52  88 121 150 182 235 301 357
#     4  11  21  35  60  83 119 153 192 246 307 357
#     4  10  18  34  56  91 117 145 188 251 303 344
#     4  11  24  40  56  84 122 159 199 242 300 366
#
# _framework density 18.611750000000001
#
# number of rings (size 3 to 8) (size 9 to 14) (size 15 to 20)
#    0.000    1.667    3.333    3.000    4.667    2.333 
#    0.000    0.000    0.000    1.500    0.000    0.000 
#    0.000    0.000    0.000    0.000    0.000    0.000 
#
# Total GULP energy -267612.834840 kJ/mol
# GULP energy per Si atom -5575.267393 kJ/mol
# Density = 1.856939 g / cm^3
# Si number density = 18.611750 Si / 1000 Ang^3
#
#
#
# Elastic Constant Matrix: (Units=GPa)
#
#
# Indices 1 2 3 4 5 6 
#
# 1 120.8141 39.3737 15.6482 0.0000 0.0000 0.0000
# 2 39.3737 87.7039 -8.1261 0.0000 0.0000 0.0000
# 3 15.6482 -8.1261 54.0780 0.0000 0.0000 0.0000
# 4 0.0000 0.0000 0.0000 6.5794 0.0000 0.0000
# 5 0.0000 0.0000 0.0000 0.0000 11.5539 0.0000
# 6 0.0000 0.0000 0.0000 0.0000 0.0000 -22.6291
#
#
#
# Elastic Compliance Matrix: (Units=1/GPa)
#
#
# Indices 1 2 3 4 5 6 
#
# 1 0.010400 -0.005018 -0.003763 0.000000 0.000000 0.000000
# 2 -0.005018 0.013984 0.003553 0.000000 0.000000 0.000000
# 3 -0.003763 0.003553 0.020115 0.000000 0.000000 0.000000
# 4 0.000000 0.000000 0.000000 0.151990 0.000000 0.000000
# 5 0.000000 0.000000 0.000000 0.000000 0.086551 0.000000
# 6 0.000000 0.000000 0.000000 0.000000 0.000000 -0.044191
#
#
# Mechanical properties :
#
#
# Convention : Reuss Voigt Hill
#
# Bulk Modulus (GPa) = 29.37464 39.59863 34.48664
# Shear Modulus (GPa) = 19.18271 13.48085 16.33178
#
# Velocity S-wave (km/s) = 3.21390 2.69424 2.96547
# Velocity P-wave (km/s) = 5.43961 5.56784 5.50410
#
# Compressibility (1/GPa) = 0.03404297
#
# Stress axis : x y z
#
# Youngs Moduli (GPa) = 96.15508 71.51121 49.71489
#
# Poissons Ratio (x) = 0.35881 0.18709
# Poissons Ratio (y) = 0.48247 -0.17665
# Poissons Ratio (z) = 0.36186 -0.25409
#
# Static dielectric constant tensor:
#      x y z
#    x 1.683550 0.000000 0.000000 
#    y 0.000000 1.655970 0.000000 
#    z 0.000000 0.000000 1.599800 
# 
# From -- ./inp_files/29464.got.cif
#   From: 2010.05.17/outbox.cif.g08.bks.cpg/sg72_15_cif.got.tgz:29464.got - 2010.06.03 17:03:01.
