data_PCOD9525444
_publ_section_title
;
Structure prediction by ZEFSAII (Michael W. Deem and Ramdas Pophale) SiO2 
 PCOD9525444
Probable space group: I B A M
;
_chemical_formula_sum "Si O2"
_cell_formula_units_Z 104
_cell_length_a 16.558339
_cell_length_b 12.184219
_cell_length_c 25.292746
_cell_angle_alpha 90.000000
_cell_angle_beta 90.000000
_cell_angle_gamma 90.000000
_cell_volume 5102.822347
_symmetry_space_group_name_H-M "I B A M"
_symmetry_group_IT_number 72
_symmetry_cell_setting 'orthorhombic'
loop_
_space_group_symop_operation_xyz
x,y,z
-x,-y,z
x,-y,1/2-z
-x,y,1/2-z
-x,-y,-z
x,y,-z
-x,y,1/2+z
x,-y,1/2+z
1/2+x,1/2+y,1/2+z
1/2-x,1/2-y,1/2+z
1/2+x,1/2-y,-z
1/2-x,1/2+y,-z
1/2-x,1/2-y,1/2-z
1/2+x,1/2+y,1/2-z
1/2-x,1/2+y,z
1/2+x,1/2-y,z
loop_
_atom_site_type_symbol
_atom_site_label
_atom_site_fract_x
_atom_site_fract_y
_atom_site_fract_z
Si Si1 0.782188 0.836672 0.500000
Si Si2 0.777933 0.261914 0.389227
Si Si3 0.048683 0.360427 0.913612
Si Si4 0.160157 0.134996 0.692619
Si Si5 0.632164 0.997728 0.000000
Si Si6 0.354786 0.384750 0.312275
Si Si7 0.564880 0.763017 0.000000
Si Si8 0.505345 0.785417 0.190708
O O1 0.763843 0.771755 0.554221
O O2 0.719881 0.941440 0.500000
O O3 0.879779 0.845317 0.500000
O O4 0.867628 0.301246 0.401152
O O5 0.732068 0.339184 0.347461
O O6 0.792182 0.148461 0.358265
O O7 0.080591 0.460763 0.949288
O O8 0.007239 0.370601 0.856736
O O9 0.992257 0.282625 0.949568
O O10 0.184108 0.136708 0.754492
O O11 0.090398 0.224177 0.684006
O O12 0.125866 0.012876 0.683382
O O13 0.625319 0.867895 0.000000
O O14 0.435032 0.308759 0.312751
O O15 0.500000 0.831825 0.250000
#
# Coordination Sequence:
#
# PCOD9525444 Si02
#       8
#     8  16  16  16   8  16   8  16
#     4  10  22  36  54  82 106 134 182 231 277 326
#     4  10  20  34  51  77 112 141 179 235 278 324
#     4   9  18  33  52  76 106 143 181 216 265 326
#     4  10  18  32  54  79 107 144 186 227 278 332
#     4   9  20  37  57  79 106 139 182 233 271 321
#     4   9  19  33  52  78 109 144 182 228 278 335
#     4  11  20  37  63  79 102 149 187 220 274 333
#     4   9  17  31  53  79 109 145 183 224 274 332
#
# _framework density 20.380877999999999
#
# number of rings (size 3 to 8) (size 9 to 14) (size 15 to 20)
#    0.000    2.462    0.000    3.231    0.000    4.308 
#    0.000    1.538    0.000    1.846    0.000   12.923 
#    0.000    0.000    0.000    0.000    0.000    0.000 
#
# Total GULP energy -289679.360614 kJ/mol
# GULP energy per Si atom -5570.756935 kJ/mol
# Density = 2.033449 g / cm^3
# Si number density = 20.380878 Si / 1000 Ang^3
#
#
#
# Elastic Constant Matrix: (Units=GPa)
#
#
# Indices 1 2 3 4 5 6 
#
# 1 98.5195 16.9257 38.9707 0.0000 0.0000 0.0000
# 2 16.9257 46.0677 24.3809 0.0000 0.0000 0.0000
# 3 38.9707 24.3809 125.0066 0.0000 0.0000 0.0000
# 4 0.0000 0.0000 0.0000 10.3625 0.0000 0.0000
# 5 0.0000 0.0000 0.0000 0.0000 32.4286 0.0000
# 6 0.0000 0.0000 0.0000 0.0000 0.0000 29.5246
#
#
#
# Elastic Compliance Matrix: (Units=1/GPa)
#
#
# Indices 1 2 3 4 5 6 
#
# 1 0.011867 -0.002679 -0.003177 0.000000 0.000000 0.000000
# 2 -0.002679 0.024810 -0.004004 0.000000 0.000000 0.000000
# 3 -0.003177 -0.004004 0.009771 0.000000 0.000000 0.000000
# 4 0.000000 0.000000 0.000000 0.096502 0.000000 0.000000
# 5 0.000000 0.000000 0.000000 0.000000 0.030837 0.000000
# 6 0.000000 0.000000 0.000000 0.000000 0.000000 0.033870
#
#
# Mechanical properties :
#
#
# Convention : Reuss Voigt Hill
#
# Bulk Modulus (GPa) = 37.41227 47.79426 42.60326
# Shear Modulus (GPa) = 21.16076 27.08423 24.12249
#
# Velocity S-wave (km/s) = 3.22571 3.64937 3.44406
# Velocity P-wave (km/s) = 5.68067 6.42329 6.06336
#
# Compressibility (1/GPa) = 0.02672920
#
# Stress axis : x y z
#
# Youngs Moduli (GPa) = 84.26566 40.30572 102.34407
#
# Poissons Ratio (x) = 0.10796 0.32516
# Poissons Ratio (y) = 0.22572 0.40977
# Poissons Ratio (z) = 0.26773 0.16138
#
# Static dielectric constant tensor:
#      x y z
#    x 1.740110 0.000000 0.000000 
#    y 0.000000 1.724570 0.000000 
#    z 0.000000 0.000000 1.779250 
# 
# From -- ./inp_files/44953.got.cif
#   From: 2010.05.17/outbox.cif.g08.bks.cpg/sg72_23_cif.got.tgz:44953.got - 2010.06.03 17:03:01.
