data_PCOD9525269
_publ_section_title
;
Structure prediction by ZEFSAII (Michael W. Deem and Ramdas Pophale) SiO2 
 PCOD9525269
Probable space group: I B A M
;
_chemical_formula_sum "Si O2"
_cell_formula_units_Z 104
_cell_length_a 24.190966
_cell_length_b 20.513001
_cell_length_c 9.654686
_cell_angle_alpha 90.000000
_cell_angle_beta 90.000000
_cell_angle_gamma 90.000000
_cell_volume 4790.938170
_symmetry_space_group_name_H-M "I B A M"
_symmetry_group_IT_number 72
_symmetry_cell_setting 'orthorhombic'
loop_
_space_group_symop_operation_xyz
x,y,z
-x,-y,z
x,-y,1/2-z
-x,y,1/2-z
-x,-y,-z
x,y,-z
-x,y,1/2+z
x,-y,1/2+z
1/2+x,1/2+y,1/2+z
1/2-x,1/2-y,1/2+z
1/2+x,1/2-y,-z
1/2-x,1/2+y,-z
1/2-x,1/2-y,1/2-z
1/2+x,1/2+y,1/2-z
1/2-x,1/2+y,z
1/2+x,1/2-y,z
loop_
_atom_site_type_symbol
_atom_site_label
_atom_site_fract_x
_atom_site_fract_y
_atom_site_fract_z
Si Si1 0.446962 0.090883 0.339564
Si Si2 0.099762 0.936485 0.663376
Si Si3 0.067569 0.169186 0.645046
Si Si4 0.000000 0.716970 0.750000
Si Si5 0.685829 0.261926 0.654536
Si Si6 0.340335 0.109455 0.164354
Si Si7 0.279702 0.378464 0.335218
O O1 0.500000 0.066934 0.250000
O O2 0.446350 0.069634 0.500000
O O3 0.459019 0.168895 0.331437
O O4 0.389569 0.081340 0.257874
O O5 0.093617 0.944719 0.500000
O O6 0.063791 0.876741 0.722129
O O7 0.164369 0.918182 0.694062
O O8 0.085491 0.000000 0.750000
O O9 0.057869 0.133078 0.500000
O O10 0.031708 0.233895 0.652088
O O11 0.129423 0.196730 0.645620
O O12 0.711359 0.262847 0.500000
O O13 0.665948 0.188087 0.684315
O O14 0.718820 0.307322 0.762584
O O15 0.278143 0.086382 0.200678
O O16 0.351757 0.098559 0.000000
O O17 0.278665 0.368325 0.500000
#
# Coordination Sequence:
#
# PCOD9525269 Si02
#       7
#    16  16  16   8  16  16  16
#     4  10  20  31  46  67  97 137 174 202 232 274
#     4  10  21  38  56  75  96 124 163 209 262 310
#     4  10  19  33  52  73  97 129 166 207 250 293
#     4  10  20  32  51  70 100 130 175 202 244 288
#     4   9  16  28  44  65  96 130 158 188 235 290
#     4  10  18  30  45  67 101 132 161 198 237 281
#     4   9  19  31  47  71  96 123 158 200 243 294
#
# _framework density 21.707647999999999
#
# number of rings (size 3 to 8) (size 9 to 14) (size 15 to 20)
#    0.462    1.846    1.538    1.846    0.000    3.077 
#    0.000    0.385    0.000    1.846    0.000    0.000 
#    0.000    0.615    0.000    7.077    0.000    2.154 
#
# Total GULP energy -289834.188197 kJ/mol
# GULP energy per Si atom -5573.734388 kJ/mol
# Density = 2.165824 g / cm^3
# Si number density = 21.707648 Si / 1000 Ang^3
#
#
#
# Elastic Constant Matrix: (Units=GPa)
#
#
# Indices 1 2 3 4 5 6 
#
# 1 90.4976 -2.3262 36.7842 0.0000 0.0000 0.0000
# 2 -2.3262 70.3752 21.5498 0.0000 0.0000 0.0000
# 3 36.7842 21.5498 100.7024 0.0000 0.0000 0.0000
# 4 0.0000 0.0000 0.0000 4.5092 0.0000 0.0000
# 5 0.0000 0.0000 0.0000 0.0000 14.9231 0.0000
# 6 0.0000 0.0000 0.0000 0.0000 0.0000 -0.1526
#
#
#
# Elastic Compliance Matrix: (Units=1/GPa)
#
#
# Indices 1 2 3 4 5 6 
#
# 1 0.013249 0.002054 -0.005279 0.000000 0.000000 0.000000
# 2 0.002054 0.015525 -0.004073 0.000000 0.000000 0.000000
# 3 -0.005279 -0.004073 0.012730 0.000000 0.000000 0.000000
# 4 0.000000 0.000000 0.000000 0.221769 0.000000 0.000000
# 5 0.000000 0.000000 0.000000 0.000000 0.067010 0.000000
# 6 0.000000 0.000000 0.000000 0.000000 0.000000 -6.553940
#
#
# Mechanical properties :
#
#
# Convention : Reuss Voigt Hill
#
# Bulk Modulus (GPa) = 37.16258 41.51006 39.33632
# Shear Modulus (GPa) = -0.80644 17.56043 8.37700
#
# Velocity S-wave (km/s) = -0.61017 2.84729 1.96657
# Velocity P-wave (km/s) = 4.08171 5.47478 4.82875
#
# Compressibility (1/GPa) = 0.02690879
#
# Stress axis : x y z
#
# Youngs Moduli (GPa) = 75.47990 64.41411 78.55419
#
# Poissons Ratio (x) = -0.13233 0.41469
# Poissons Ratio (y) = -0.15507 0.31992
# Poissons Ratio (z) = 0.39846 0.26233
#
# Static dielectric constant tensor:
#      x y z
#    x 1.869500 0.000000 0.000000 
#    y 0.000000 1.777940 0.000000 
#    z 0.000000 0.000000 1.808640 
# 
# From -- ./inp_files/7176.got.cif
#   From: 2010.05.17/outbox.cif.g08.bks.cpg/sg72_4_cif.got.tgz:7176.got - 2010.06.03 17:03:01.
