data_PCOD9525127
_publ_section_title
;
Structure prediction by ZEFSAII (Michael W. Deem and Ramdas Pophale) SiO2 
 PCOD9525127
Probable space group: I B A M
;
_chemical_formula_sum "Si O2"
_cell_formula_units_Z 64
_cell_length_a 10.908149
_cell_length_b 17.252249
_cell_length_c 14.817254
_cell_angle_alpha 90.000000
_cell_angle_beta 90.000000
_cell_angle_gamma 90.000000
_cell_volume 2788.460552
_symmetry_space_group_name_H-M "I B A M"
_symmetry_group_IT_number 72
_symmetry_cell_setting 'orthorhombic'
loop_
_space_group_symop_operation_xyz
x,y,z
-x,-y,z
x,-y,1/2-z
-x,y,1/2-z
-x,-y,-z
x,y,-z
-x,y,1/2+z
x,-y,1/2+z
1/2+x,1/2+y,1/2+z
1/2-x,1/2-y,1/2+z
1/2+x,1/2-y,-z
1/2-x,1/2+y,-z
1/2-x,1/2-y,1/2-z
1/2+x,1/2+y,1/2-z
1/2-x,1/2+y,z
1/2+x,1/2-y,z
loop_
_atom_site_type_symbol
_atom_site_label
_atom_site_fract_x
_atom_site_fract_y
_atom_site_fract_z
Si Si1 0.189375 0.955941 0.500000
Si Si2 0.393471 0.808882 0.890644
Si Si3 0.639209 0.985069 0.355177
Si Si4 0.940471 0.876707 0.500000
Si Si5 0.153262 0.736129 0.102736
O O1 0.084415 0.892437 0.500000
O O2 0.273175 0.959354 0.411808
O O3 0.123208 0.040407 0.500000
O O4 0.342547 0.894500 0.874118
O O5 0.289299 0.748045 0.857628
O O6 0.533688 0.804092 0.854772
O O7 0.401017 0.798436 0.000000
O O8 0.500000 0.000000 0.383763
O O9 0.652727 0.000000 0.250000
O O10 0.899000 0.823172 0.416657
O O11 0.168911 0.703609 0.000000
#
# Coordination Sequence:
#
# PCOD9525127 Si02
#       5
#     8  16  16   8  16
#     4  11  19  37  61  87 125 162 200 253 312 355
#     4  10  17  34  59  91 121 154 199 254 313 364
#     4  11  23  38  59  88 126 164 208 255 304 379
#     4   9  18  31  59  93 119 153 206 248 300 379
#     4   8  16  30  54  89 118 151 195 254 298 367
#
# _framework density 22.951730999999999
#
# number of rings (size 3 to 8) (size 9 to 14) (size 15 to 20)
#    0.750    1.500    3.750    0.375    0.000    2.000 
#    0.000    2.500    0.000   13.500    0.000    0.000 
#    0.000    0.000    0.000    0.000    0.000    0.000 
#
# Total GULP energy -178565.069159 kJ/mol
# GULP energy per Si atom -5580.158411 kJ/mol
# Density = 2.289949 g / cm^3
# Si number density = 22.951731 Si / 1000 Ang^3
#
#
#
# Elastic Constant Matrix: (Units=GPa)
#
#
# Indices 1 2 3 4 5 6 
#
# 1 157.3232 12.8928 17.6421 0.0000 0.0000 0.0000
# 2 12.8928 57.0338 -3.6230 0.0000 0.0000 0.0000
# 3 17.6421 -3.6230 39.7846 0.0000 0.0000 0.0000
# 4 0.0000 0.0000 0.0000 3.2846 0.0000 0.0000
# 5 0.0000 0.0000 0.0000 0.0000 -29.2088 0.0000
# 6 0.0000 0.0000 0.0000 0.0000 0.0000 49.5057
#
#
#
# Elastic Compliance Matrix: (Units=1/GPa)
#
#
# Indices 1 2 3 4 5 6 
#
# 1 0.006859 -0.001754 -0.003201 0.000000 0.000000 0.000000
# 2 -0.001754 0.018084 0.002425 0.000000 0.000000 0.000000
# 3 -0.003201 0.002425 0.026776 0.000000 0.000000 0.000000
# 4 0.000000 0.000000 0.000000 0.304449 0.000000 0.000000
# 5 0.000000 0.000000 0.000000 0.000000 -0.034236 0.000000
# 6 0.000000 0.000000 0.000000 0.000000 0.000000 0.020200
#
#
# Mechanical properties :
#
#
# Convention : Reuss Voigt Hill
#
# Bulk Modulus (GPa) = 21.43278 34.21838 27.82558
# Shear Modulus (GPa) = 13.78379 19.86495 16.82437
#
# Velocity S-wave (km/s) = 2.45328 2.94515 2.71039
# Velocity P-wave (km/s) = 4.16932 5.14844 4.68453
#
# Compressibility (1/GPa) = 0.04665750
#
# Stress axis : x y z
#
# Youngs Moduli (GPa) = 145.79242 55.29762 37.34723
#
# Poissons Ratio (x) = 0.09699 0.11956
# Poissons Ratio (y) = 0.25570 -0.09055
# Poissons Ratio (z) = 0.46673 -0.13407
#
# Static dielectric constant tensor:
#      x y z
#    x 1.921260 0.000000 0.000000 
#    y 0.000000 1.910380 0.000000 
#    z 0.000000 0.000000 1.839950 
# 
# From -- ./inp_files/19769.got.cif
#   From: 2010.05.17/outbox.cif.g08.bks.cpg/sg72_10_cif.got.tgz:19769.got - 2010.06.03 17:03:01.
