data_PCOD9525236
_publ_section_title
;
Structure prediction by ZEFSAII (Michael W. Deem and Ramdas Pophale) SiO2 
 PCOD9525236
Probable space group: I B A M
;
_chemical_formula_sum "Si O2"
_cell_formula_units_Z 80
_cell_length_a 18.088151
_cell_length_b 15.197205
_cell_length_c 15.924137
_cell_angle_alpha 90.000000
_cell_angle_beta 90.000000
_cell_angle_gamma 90.000000
_cell_volume 4377.375491
_symmetry_space_group_name_H-M "I B A M"
_symmetry_group_IT_number 72
_symmetry_cell_setting 'orthorhombic'
loop_
_space_group_symop_operation_xyz
x,y,z
-x,-y,z
x,-y,1/2-z
-x,y,1/2-z
-x,-y,-z
x,y,-z
-x,y,1/2+z
x,-y,1/2+z
1/2+x,1/2+y,1/2+z
1/2-x,1/2-y,1/2+z
1/2+x,1/2-y,-z
1/2-x,1/2+y,-z
1/2-x,1/2-y,1/2-z
1/2+x,1/2+y,1/2-z
1/2-x,1/2+y,z
1/2+x,1/2-y,z
loop_
_atom_site_type_symbol
_atom_site_label
_atom_site_fract_x
_atom_site_fract_y
_atom_site_fract_z
Si Si1 0.500000 0.500000 0.630421
Si Si2 0.790080 0.669393 0.356688
Si Si3 0.628845 0.500000 0.750000
Si Si4 0.776509 0.094332 0.000000
Si Si5 0.883554 0.731427 0.500000
Si Si6 0.248687 0.628946 0.319047
Si Si7 0.491936 0.643821 0.000000
Si Si8 0.320642 0.399027 0.500000
O O1 0.571061 0.532438 0.681033
O O2 0.520336 0.414878 0.577267
O O3 0.860577 0.677924 0.417135
O O4 0.799717 0.622462 0.266413
O O5 0.765801 0.768710 0.334418
O O6 0.726037 0.629331 0.417122
O O7 0.678848 0.424992 0.709425
O O8 0.729901 0.095147 0.087069
O O9 0.823287 0.004619 0.000000
O O10 0.830009 0.180536 0.000000
O O11 0.967057 0.764152 0.500000
O O12 0.402838 0.641265 0.000000
#
# Coordination Sequence:
#
# PCOD9525236 Si02
#       8
#     8  16   8   8   8  16   8   8
#     4  10  20  28  42  72 106 136 164 194 236 293
#     4   9  19  32  46  67 100 135 167 212 253 286
#     4  11  20  30  46  72 102 135 170 200 240 305
#     4  10  18  29  48  72  96 129 170 204 240 301
#     4   9  18  31  46  68  98 133 168 201 246 296
#     4  10  18  31  48  66  95 131 170 209 247 284
#     4  11  18  30  48  68 102 141 170 198 236 299
#     4  11  20  31  50  76 106 139 172 203 246 298
#
# _framework density 18.275791000000002
#
# number of rings (size 3 to 8) (size 9 to 14) (size 15 to 20)
#    0.000    2.000    0.000    7.800    0.000    0.000 
#    0.000    0.000    0.000    0.000    0.000    0.000 
#    0.000   88.000    0.000    4.800    0.000    0.400 
#
# Total GULP energy -222682.697791 kJ/mol
# GULP energy per Si atom -5567.067445 kJ/mol
# Density = 1.823419 g / cm^3
# Si number density = 18.275791 Si / 1000 Ang^3
#
#
#
# Elastic Constant Matrix: (Units=GPa)
#
#
# Indices 1 2 3 4 5 6 
#
# 1 43.8784 23.7730 39.5605 0.0000 0.0000 0.0000
# 2 23.7730 39.2946 27.9489 0.0000 0.0000 0.0000
# 3 39.5605 27.9489 171.9763 0.0000 0.0000 0.0000
# 4 0.0000 0.0000 0.0000 32.2939 0.0000 0.0000
# 5 0.0000 0.0000 0.0000 0.0000 11.5516 0.0000
# 6 0.0000 0.0000 0.0000 0.0000 0.0000 26.5994
#
#
#
# Elastic Compliance Matrix: (Units=1/GPa)
#
#
# Indices 1 2 3 4 5 6 
#
# 1 0.038281 -0.019105 -0.005701 0.000000 0.000000 0.000000
# 2 -0.019105 0.038310 -0.001831 0.000000 0.000000 0.000000
# 3 -0.005701 -0.001831 0.007424 0.000000 0.000000 0.000000
# 4 0.000000 0.000000 0.000000 0.030966 0.000000 0.000000
# 5 0.000000 0.000000 0.000000 0.000000 0.086568 0.000000
# 6 0.000000 0.000000 0.000000 0.000000 0.000000 0.037595
#
#
# Mechanical properties :
#
#
# Convention : Reuss Voigt Hill
#
# Bulk Modulus (GPa) = 32.53063 48.63489 40.58276
# Shear Modulus (GPa) = 16.51994 25.01343 20.76668
#
# Velocity S-wave (km/s) = 3.00980 3.70356 3.37455
# Velocity P-wave (km/s) = 5.46964 6.70507 6.11861
#
# Compressibility (1/GPa) = 0.03074026
#
# Stress axis : x y z
#
# Youngs Moduli (GPa) = 26.12235 26.10306 134.70174
#
# Poissons Ratio (x) = 0.49870 0.76796
# Poissons Ratio (y) = 0.49907 0.24666
# Poissons Ratio (z) = 0.14893 0.04780
#
# Static dielectric constant tensor:
#      x y z
#    x 1.606120 0.000000 0.000000 
#    y 0.000000 1.637100 0.000000 
#    z 0.000000 0.000000 1.759890 
# 
# From -- ./inp_files/31443.got.cif
#   From: 2010.05.17/outbox.cif.g08.bks.cpg/sg72_16_cif.got.tgz:31443.got - 2010.06.03 17:03:01.
