data_PCOD9525068
_publ_section_title
;
Structure prediction by ZEFSAII (Michael W. Deem and Ramdas Pophale) SiO2 
 PCOD9525068
Probable space group: I B A M
;
_chemical_formula_sum "Si O2"
_cell_formula_units_Z 116
_cell_length_a 27.274112
_cell_length_b 22.329849
_cell_length_c 9.014625
_cell_angle_alpha 90.000000
_cell_angle_beta 90.000000
_cell_angle_gamma 90.000000
_cell_volume 5490.148240
_symmetry_space_group_name_H-M "I B A M"
_symmetry_group_IT_number 72
_symmetry_cell_setting 'orthorhombic'
loop_
_space_group_symop_operation_xyz
x,y,z
-x,-y,z
x,-y,1/2-z
-x,y,1/2-z
-x,-y,-z
x,y,-z
-x,y,1/2+z
x,-y,1/2+z
1/2+x,1/2+y,1/2+z
1/2-x,1/2-y,1/2+z
1/2+x,1/2-y,-z
1/2-x,1/2+y,-z
1/2-x,1/2-y,1/2-z
1/2+x,1/2+y,1/2-z
1/2-x,1/2+y,z
1/2+x,1/2-y,z
loop_
_atom_site_type_symbol
_atom_site_label
_atom_site_fract_x
_atom_site_fract_y
_atom_site_fract_z
Si Si1 0.143198 0.064245 0.174599
Si Si2 0.500000 0.000000 0.750000
Si Si3 0.579579 0.097697 0.831264
Si Si4 0.048057 0.932661 0.822084
Si Si5 0.275904 0.637374 0.325154
Si Si6 0.825902 0.623756 0.332456
Si Si7 0.449684 0.765605 0.825126
Si Si8 0.353727 0.263360 0.164997
O O1 0.098219 0.094936 0.262159
O O2 0.192389 0.097793 0.213664
O O3 0.148668 0.000000 0.250000
O O4 0.133038 0.060082 0.000000
O O5 0.461927 0.953457 0.825796
O O6 0.626883 0.087692 0.727522
O O7 0.557493 0.163057 0.790310
O O8 0.597584 0.103138 0.000000
O O9 0.000000 0.903951 0.750000
O O10 0.049286 0.000000 0.750000
O O11 0.045659 0.935815 0.000000
O O12 0.281883 0.622333 0.500000
O O13 0.220234 0.626638 0.277278
O O14 0.302940 0.701729 0.303175
O O15 0.812742 0.604521 0.500000
O O16 0.842076 0.693079 0.339261
O O17 0.500000 0.745409 0.750000
O O18 0.400344 0.732451 0.772196
O O19 0.454586 0.759581 0.000000
O O20 0.369562 0.282847 0.000000
#
# Coordination Sequence:
#
# PCOD9525068 Si02
#       8
#    16   4  16  16  16  16  16  16
#     4  11  22  38  58  82 113 151 194 237 290 354
#     4  12  22  40  64  94 130 164 224 266 314 360
#     4  10  22  38  59  88 121 163 207 256 310 365
#     4  10  17  29  50  77 106 139 180 225 272 323
#     4  11  22  39  62  88 119 154 196 248 304 365
#     4  10  21  39  62  89 120 155 198 249 304 364
#     4  10  19  34  57  85 121 162 204 251 309 373
#     4   9  20  37  60  89 119 153 196 248 305 367
#
# _framework density 21.128755000000002
#
# number of rings (size 3 to 8) (size 9 to 14) (size 15 to 20)
#    0.000    1.793    0.690    5.586    0.000    3.310 
#    1.241    0.690    0.000    3.310    0.000    0.000 
#    0.000    0.000    0.000    0.000    0.000    0.000 
#
# Total GULP energy -323481.588661 kJ/mol
# GULP energy per Si atom -5577.268770 kJ/mol
# Density = 2.108067 g / cm^3
# Si number density = 21.128755 Si / 1000 Ang^3
#
#
#
# Elastic Constant Matrix: (Units=GPa)
#
#
# Indices 1 2 3 4 5 6 
#
# 1 119.3212 6.7940 54.9147 0.0000 0.0000 0.0000
# 2 6.7940 55.1234 15.0067 0.0000 0.0000 0.0000
# 3 54.9147 15.0067 127.7673 0.0000 0.0000 0.0000
# 4 0.0000 0.0000 0.0000 12.3222 0.0000 0.0000
# 5 0.0000 0.0000 0.0000 0.0000 43.4923 0.0000
# 6 0.0000 0.0000 0.0000 0.0000 0.0000 27.6721
#
#
#
# Elastic Compliance Matrix: (Units=1/GPa)
#
#
# Indices 1 2 3 4 5 6 
#
# 1 0.010448 -0.000067 -0.004482 0.000000 0.000000 0.000000
# 2 -0.000067 0.018741 -0.002172 0.000000 0.000000 0.000000
# 3 -0.004482 -0.002172 0.010008 0.000000 0.000000 0.000000
# 4 0.000000 0.000000 0.000000 0.081155 0.000000 0.000000
# 5 0.000000 0.000000 0.000000 0.000000 0.022993 0.000000
# 6 0.000000 0.000000 0.000000 0.000000 0.000000 0.036137
#
#
# Mechanical properties :
#
#
# Convention : Reuss Voigt Hill
#
# Bulk Modulus (GPa) = 38.83094 50.62697 44.72896
# Shear Modulus (GPa) = 24.81272 31.73042 28.27157
#
# Velocity S-wave (km/s) = 3.43061 3.87947 3.66192
# Velocity P-wave (km/s) = 5.84040 6.63929 6.25262
#
# Compressibility (1/GPa) = 0.02575266
#
# Stress axis : x y z
#
# Youngs Moduli (GPa) = 95.71652 53.35953 99.91571
#
# Poissons Ratio (x) = 0.00360 0.44787
# Poissons Ratio (y) = 0.00645 0.21704
# Poissons Ratio (z) = 0.42905 0.11591
#
# Static dielectric constant tensor:
#      x y z
#    x 1.841710 0.000000 0.000000 
#    y 0.000000 1.822870 0.000000 
#    z 0.000000 0.000000 1.713200 
# 
# From -- ./inp_files/8413.got.cif
#   From: 2010.05.17/outbox.cif.g08.bks.cpg/sg72_5_cif.got.tgz:8413.got - 2010.06.03 17:03:01.
