data_PCOD9525752
_publ_section_title
;
Structure prediction by ZEFSAII (Michael W. Deem and Ramdas Pophale) SiO2 
 PCOD9525752
Probable space group: I B A M
;
_chemical_formula_sum "Si O2"
_cell_formula_units_Z 80
_cell_length_a 18.468733
_cell_length_b 28.044989
_cell_length_c 8.658720
_cell_angle_alpha 90.000000
_cell_angle_beta 90.000000
_cell_angle_gamma 90.000000
_cell_volume 4484.830901
_symmetry_space_group_name_H-M "I B A M"
_symmetry_group_IT_number 72
_symmetry_cell_setting 'orthorhombic'
loop_
_space_group_symop_operation_xyz
x,y,z
-x,-y,z
x,-y,1/2-z
-x,y,1/2-z
-x,-y,-z
x,y,-z
-x,y,1/2+z
x,-y,1/2+z
1/2+x,1/2+y,1/2+z
1/2-x,1/2-y,1/2+z
1/2+x,1/2-y,-z
1/2-x,1/2+y,-z
1/2-x,1/2-y,1/2-z
1/2+x,1/2+y,1/2-z
1/2-x,1/2+y,z
1/2+x,1/2-y,z
loop_
_atom_site_type_symbol
_atom_site_label
_atom_site_fract_x
_atom_site_fract_y
_atom_site_fract_z
Si Si1 0.924540 0.084664 0.815410
Si Si2 0.871880 0.816084 0.814686
Si Si3 0.231560 0.049578 0.314731
Si Si4 0.577556 0.788862 0.685960
Si Si5 0.219527 0.653637 0.312907
O O1 0.912783 0.139062 0.759754
O O2 0.851961 0.057412 0.762845
O O3 0.000000 0.065973 0.750000
O O4 0.926713 0.083837 0.000000
O O5 0.904846 0.765494 0.765835
O O6 0.788560 0.820153 0.760915
O O7 0.875799 0.819843 0.000000
O O8 0.231559 0.047336 0.500000
O O9 0.273557 0.097835 0.270090
O O10 0.259972 0.000000 0.250000
O O11 0.500000 0.803701 0.750000
O O12 0.575071 0.789528 0.500000
O O13 0.644410 0.822275 0.733961
O O14 0.226481 0.656857 0.500000
#
# Coordination Sequence:
#
# PCOD9525752 Si02
#       5
#    16  16  16  16  16
#     4  10  20  33  48  70 102 137 167 202 242 284
#     4  10  19  31  50  76 102 134 170 201 234 282
#     4   9  19  34  52  71  93 123 161 205 252 295
#     4  10  21  34  50  74 104 133 164 201 243 288
#     4   9  19  36  53  72 100 132 163 202 246 289
#
# _framework density 17.837907000000001
#
# number of rings (size 3 to 8) (size 9 to 14) (size 15 to 20)
#    0.000    2.400    0.000    3.600    0.000    8.400 
#    0.000    2.000    0.000    0.600    0.000    4.200 
#    0.000    0.000    0.000    0.000    0.000    0.000 
#
# Total GULP energy -223260.444157 kJ/mol
# GULP energy per Si atom -5581.511104 kJ/mol
# Density = 1.779731 g / cm^3
# Si number density = 17.837907 Si / 1000 Ang^3
#
#
#
# Elastic Constant Matrix: (Units=GPa)
#
#
# Indices 1 2 3 4 5 6 
#
# 1 69.6267 15.1952 4.1117 0.0000 0.0000 0.0000
# 2 15.1952 63.9923 4.9112 0.0000 0.0000 0.0000
# 3 4.1117 4.9112 13.1038 -0.0001 -0.0002 0.0000
# 4 0.0000 0.0000 -0.0001 23.8195 0.0000 0.0000
# 5 0.0000 0.0000 -0.0002 0.0000 28.0375 0.0000
# 6 0.0000 0.0000 0.0000 0.0000 0.0000 1.0900
#
#
#
# Elastic Compliance Matrix: (Units=1/GPa)
#
#
# Indices 1 2 3 4 5 6 
#
# 1 0.015305 -0.003362 -0.003542 0.000000 0.000000 0.000000
# 2 -0.003362 0.016828 -0.005252 0.000000 0.000000 0.000000
# 3 -0.003542 -0.005252 0.079394 0.000000 0.000001 0.000001
# 4 0.000000 0.000000 0.000000 0.041982 0.000000 0.000000
# 5 0.000000 0.000000 0.000001 0.000000 0.035667 0.000000
# 6 0.000000 0.000000 0.000001 0.000000 0.000000 0.917420
#
#
# Mechanical properties :
#
#
# Convention : Reuss Voigt Hill
#
# Bulk Modulus (GPa) = 11.46607 21.68433 16.57520
# Shear Modulus (GPa) = 4.31041 18.75638 11.53340
#
# Velocity S-wave (km/s) = 1.55617 3.24619 2.54553
# Velocity P-wave (km/s) = 3.10979 5.12182 4.23697
#
# Compressibility (1/GPa) = 0.08721383
#
# Stress axis : x y z
#
# Youngs Moduli (GPa) = 65.33685 59.42335 12.59543
#
# Poissons Ratio (x) = 0.19981 0.04462
# Poissons Ratio (y) = 0.21969 0.06615
# Poissons Ratio (z) = 0.23144 0.31210
#
# Static dielectric constant tensor:
#      x y z
#    x 1.603370 0.000000 0.000000 
#    y 0.000000 1.608480 0.000000 
#    z 0.000000 0.000000 1.605720 
# 
# From -- ./inp_files/4760.got.cif
#   From: 2010.05.17/outbox.cif.g08.bks.cpg/sg72_3_cif.got.tgz:4760.got - 2010.06.03 17:03:01.
