data_PCOD9525443
_publ_section_title
;
Structure prediction by ZEFSAII (Michael W. Deem and Ramdas Pophale) SiO2 
 PCOD9525443
Probable space group: I B A M
;
_chemical_formula_sum "Si O2"
_cell_formula_units_Z 96
_cell_length_a 30.176454
_cell_length_b 10.579824
_cell_length_c 14.844112
_cell_angle_alpha 90.000000
_cell_angle_beta 90.000000
_cell_angle_gamma 90.000000
_cell_volume 4739.154536
_symmetry_space_group_name_H-M "I B A M"
_symmetry_group_IT_number 72
_symmetry_cell_setting 'orthorhombic'
loop_
_space_group_symop_operation_xyz
x,y,z
-x,-y,z
x,-y,1/2-z
-x,y,1/2-z
-x,-y,-z
x,y,-z
-x,y,1/2+z
x,-y,1/2+z
1/2+x,1/2+y,1/2+z
1/2-x,1/2-y,1/2+z
1/2+x,1/2-y,-z
1/2-x,1/2+y,-z
1/2-x,1/2-y,1/2-z
1/2+x,1/2+y,1/2-z
1/2-x,1/2+y,z
1/2+x,1/2-y,z
loop_
_atom_site_type_symbol
_atom_site_label
_atom_site_fract_x
_atom_site_fract_y
_atom_site_fract_z
Si Si1 0.881348 0.482233 0.855311
Si Si2 0.281666 0.959180 0.604563
Si Si3 0.524897 0.372692 0.110723
Si Si4 0.383013 0.727400 0.104294
Si Si5 0.025923 0.376577 0.391955
Si Si6 0.284020 0.755831 0.111361
O O1 0.875178 0.500000 0.750000
O O2 0.834352 0.436063 0.892217
O O3 0.892905 0.621654 0.893695
O O4 0.922447 0.391028 0.871329
O O5 0.268436 0.967477 0.500000
O O6 0.252436 0.844883 0.641461
O O7 0.275183 0.100482 0.642686
O O8 0.500000 0.500000 0.138143
O O9 0.575343 0.348990 0.143050
O O10 0.496410 0.251705 0.139952
O O11 0.526370 0.372749 0.000000
O O12 0.333423 0.716183 0.142666
O O13 0.379663 0.688916 0.000000
O O14 0.021424 0.377245 0.500000
O O15 0.000000 0.500000 0.357155
O O16 0.285194 0.761070 0.000000
#
# Coordination Sequence:
#
# PCOD9525443 Si02
#       6
#    16  16  16  16  16  16
#     4  11  21  32  50  76 103 133 176 211 249 296
#     4   9  17  33  52  75 101 130 165 211 259 301
#     4   9  17  30  50  78 105 128 161 204 255 309
#     4   9  16  32  53  72 101 137 165 202 259 308
#     4  10  18  32  54  77  99 130 168 209 254 300
#     4   8  15  28  51  75  98 126 163 204 249 295
#
# _framework density 20.256777
#
# number of rings (size 3 to 8) (size 9 to 14) (size 15 to 20)
#    0.000    2.667    1.667    2.500    0.000    0.333 
#    3.000    3.333    0.000    2.000    0.000    0.000 
#    0.000    0.000    0.000    0.000    0.000    0.000 
#
# Total GULP energy -267706.683410 kJ/mol
# GULP energy per Si atom -5577.222571 kJ/mol
# Density = 2.021067 g / cm^3
# Si number density = 20.256777 Si / 1000 Ang^3
#
#
#
# Elastic Constant Matrix: (Units=GPa)
#
#
# Indices 1 2 3 4 5 6 
#
# 1 144.4312 98.9740 -14.7705 0.0000 0.0000 0.0000
# 2 98.9740 119.3985 -6.3986 0.0000 0.0000 0.0000
# 3 -14.7705 -6.3986 32.0230 0.0000 0.0000 0.0000
# 4 0.0000 0.0000 0.0000 -17.8302 0.0000 0.0000
# 5 0.0000 0.0000 0.0000 0.0000 -8.8626 0.0000
# 6 0.0000 0.0000 0.0000 0.0000 0.0000 41.7422
#
#
#
# Elastic Compliance Matrix: (Units=1/GPa)
#
#
# Indices 1 2 3 4 5 6 
#
# 1 0.016790 -0.013649 0.005017 0.000000 0.000000 0.000000
# 2 -0.013649 0.019562 -0.002387 0.000000 0.000000 0.000000
# 3 0.005017 -0.002387 0.033065 0.000000 0.000000 0.000000
# 4 0.000000 0.000000 0.000000 -0.056085 0.000000 0.000000
# 5 0.000000 0.000000 0.000000 0.000000 -0.112834 0.000000
# 6 0.000000 0.000000 0.000000 0.000000 0.000000 0.023957
#
#
# Mechanical properties :
#
#
# Convention : Reuss Voigt Hill
#
# Bulk Modulus (GPa) = 21.10655 50.16249 35.63452
# Shear Modulus (GPa) = -132.57441 17.54640 -57.51401
#
# Velocity S-wave (km/s) = -8.09870 2.94632 -5.33424
# Velocity P-wave (km/s) = 8.77553 6.03253 4.50658
#
# Compressibility (1/GPa) = 0.04737865
#
# Stress axis : x y z
#
# Youngs Moduli (GPa) = 59.55911 51.12049 30.24373
#
# Poissons Ratio (x) = 0.69775 -0.15174
# Poissons Ratio (y) = 0.81293 0.07219
# Poissons Ratio (z) = -0.29881 0.12202
#
# Static dielectric constant tensor:
#      x y z
#    x 1.669360 0.000000 0.000000 
#    y 0.000000 1.708440 0.000000 
#    z 0.000000 0.000000 1.740900 
# 
# From -- ./inp_files/40842.got.cif
#   From: 2010.05.17/outbox.cif.g08.bks.cpg/sg72_21_cif.got.tgz:40842.got - 2010.06.03 17:03:01.
