data_PCOD9525645
_publ_section_title
;
Structure prediction by ZEFSAII (Michael W. Deem and Ramdas Pophale) SiO2 
 PCOD9525645
Probable space group: I B A M
;
_chemical_formula_sum "Si O2"
_cell_formula_units_Z 112
_cell_length_a 28.549821
_cell_length_b 15.390510
_cell_length_c 15.298247
_cell_angle_alpha 90.000000
_cell_angle_beta 90.000000
_cell_angle_gamma 90.000000
_cell_volume 6721.993214
_symmetry_space_group_name_H-M "I B A M"
_symmetry_group_IT_number 72
_symmetry_cell_setting 'orthorhombic'
loop_
_space_group_symop_operation_xyz
x,y,z
-x,-y,z
x,-y,1/2-z
-x,y,1/2-z
-x,-y,-z
x,y,-z
-x,y,1/2+z
x,-y,1/2+z
1/2+x,1/2+y,1/2+z
1/2-x,1/2-y,1/2+z
1/2+x,1/2-y,-z
1/2-x,1/2+y,-z
1/2-x,1/2-y,1/2-z
1/2+x,1/2+y,1/2-z
1/2-x,1/2+y,z
1/2+x,1/2-y,z
loop_
_atom_site_type_symbol
_atom_site_label
_atom_site_fract_x
_atom_site_fract_y
_atom_site_fract_z
Si Si1 0.236448 0.184967 0.402236
Si Si2 0.606801 0.930565 0.864396
Si Si3 0.295838 0.407653 0.273493
Si Si4 0.504857 0.101078 0.400207
Si Si5 0.663072 0.738711 0.601681
Si Si6 0.910696 0.624889 0.166381
Si Si7 0.286650 0.111803 0.903563
O O1 0.226434 0.149769 0.500000
O O2 0.216374 0.136244 0.318937
O O3 0.292273 0.196573 0.392071
O O4 0.218058 0.283998 0.399111
O O5 0.560268 0.881386 0.898687
O O6 0.604846 0.902506 0.763108
O O7 0.658831 0.909992 0.895536
O O8 0.598603 0.033146 0.882939
O O9 0.318219 0.500000 0.250000
O O10 0.325556 0.341785 0.334157
O O11 0.247608 0.423771 0.328442
O O12 0.488768 0.110783 0.500000
O O13 0.465955 0.146224 0.340511
O O14 0.500000 0.000000 0.373171
O O15 0.660105 0.711120 0.500000
O O16 0.618900 0.795446 0.630151
O O17 0.269729 0.083871 0.000000
#
# Coordination Sequence:
#
# PCOD9525645 Si02
#       7
#    16  16  16  16  16  16  16
#     4   9  19  34  50  67  93 125 161 207 258 302
#     4  10  19  29  47  70 102 134 175 210 247 293
#     4  11  22  34  51  70  98 126 168 219 260 305
#     4   9  17  29  42  65  99 134 170 210 244 287
#     4  10  20  35  51  70  97 133 171 213 258 311
#     4  10  19  30  48  69  98 139 176 205 249 299
#     4  10  20  33  49  70  97 131 167 208 253 306
#
# _framework density 16.661725000000001
#
# number of rings (size 3 to 8) (size 9 to 14) (size 15 to 20)
#    0.000    2.143    0.000    6.000    4.000    4.571 
#    0.000    0.000    0.000    0.000    0.000    0.000 
#    0.000    9.143    0.000   21.000    0.000    0.429 
#
# Total GULP energy -311940.667945 kJ/mol
# GULP energy per Si atom -5570.369070 kJ/mol
# Density = 1.662380 g / cm^3
# Si number density = 16.661725 Si / 1000 Ang^3
#
#
#
# Elastic Constant Matrix: (Units=GPa)
#
#
# Indices 1 2 3 4 5 6 
#
# 1 82.0046 25.3480 20.0347 0.0000 0.0000 0.0000
# 2 25.3480 44.1499 38.6821 0.0000 0.0000 0.0000
# 3 20.0347 38.6821 109.6235 0.0000 0.0000 0.0000
# 4 0.0000 0.0000 0.0000 2.3644 0.0000 0.0000
# 5 0.0000 0.0000 0.0000 0.0000 41.2646 0.0000
# 6 0.0000 0.0000 0.0000 0.0000 0.0000 42.8712
#
#
#
# Elastic Compliance Matrix: (Units=1/GPa)
#
#
# Indices 1 2 3 4 5 6 
#
# 1 0.014839 -0.008893 0.000426 0.000000 0.000000 0.000000
# 2 -0.008893 0.038116 -0.011824 0.000000 0.000000 0.000000
# 3 0.000426 -0.011824 0.013217 0.000000 0.000000 0.000000
# 4 0.000000 0.000000 0.000000 0.422945 0.000000 0.000000
# 5 0.000000 0.000000 0.000000 0.000000 0.024234 0.000000
# 6 0.000000 0.000000 0.000000 0.000000 0.000000 0.023326
#
#
# Mechanical properties :
#
#
# Convention : Reuss Voigt Hill
#
# Bulk Modulus (GPa) = 39.07926 44.87863 41.97894
# Shear Modulus (GPa) = 8.53551 27.41425 17.97488
#
# Velocity S-wave (km/s) = 2.26582 4.06068 3.28809
# Velocity P-wave (km/s) = 5.50915 6.99851 6.29801
#
# Compressibility (1/GPa) = 0.02558902
#
# Stress axis : x y z
#
# Youngs Moduli (GPa) = 67.38905 26.23578 75.66199
#
# Poissons Ratio (x) = 0.23331 -0.03223
# Poissons Ratio (y) = 0.59929 0.89466
# Poissons Ratio (z) = -0.02871 0.31022
#
# Static dielectric constant tensor:
#      x y z
#    x 1.596050 0.000000 0.000000 
#    y 0.000000 1.552740 0.000000 
#    z 0.000000 0.000000 1.622880 
# 
# From -- ./inp_files/25974.got.cif
#   From: 2010.05.17/outbox.cif.g08.bks.cpg/sg72_13_cif.got.tgz:25974.got - 2010.06.03 17:03:01.
