data_PCOD9525073
_publ_section_title
;
Structure prediction by ZEFSAII (Michael W. Deem and Ramdas Pophale) SiO2 
 PCOD9525073
Probable space group: I B A M
;
_chemical_formula_sum "Si O2"
_cell_formula_units_Z 72
_cell_length_a 5.581721
_cell_length_b 20.753834
_cell_length_c 26.924406
_cell_angle_alpha 90.000000
_cell_angle_beta 90.000000
_cell_angle_gamma 90.000000
_cell_volume 3118.980030
_symmetry_space_group_name_H-M "I B A M"
_symmetry_group_IT_number 72
_symmetry_cell_setting 'orthorhombic'
loop_
_space_group_symop_operation_xyz
x,y,z
-x,-y,z
x,-y,1/2-z
-x,y,1/2-z
-x,-y,-z
x,y,-z
-x,y,1/2+z
x,-y,1/2+z
1/2+x,1/2+y,1/2+z
1/2-x,1/2-y,1/2+z
1/2+x,1/2-y,-z
1/2-x,1/2+y,-z
1/2-x,1/2-y,1/2-z
1/2+x,1/2+y,1/2-z
1/2-x,1/2+y,z
1/2+x,1/2-y,z
loop_
_atom_site_type_symbol
_atom_site_label
_atom_site_fract_x
_atom_site_fract_y
_atom_site_fract_z
Si Si1 0.110041 0.401618 0.799900
Si Si2 0.257633 0.067062 0.596242
Si Si3 0.507555 0.771481 0.653663
Si Si4 0.760020 0.079005 0.441864
Si Si5 0.500000 0.688293 0.250000
O O1 0.203752 0.444902 0.844929
O O2 0.961770 0.345483 0.829081
O O3 0.317735 0.359357 0.776057
O O4 0.000000 0.431066 0.750000
O O5 0.495548 0.101774 0.574939
O O6 0.001609 0.100643 0.586615
O O7 0.248286 0.997988 0.569147
O O8 0.271130 0.739953 0.628699
O O9 0.572461 0.734625 0.705235
O O10 0.792153 0.090405 0.500000
#
# Coordination Sequence:
#
# PCOD9525073 Si02
#       5
#    16  16  16  16   8
#     4  11  20  31  49  76 118 146 178 217 243 301
#     4  10  21  32  59  83 101 133 181 216 268 330
#     4  10  17  30  47  68  97 153 182 206 244 283
#     4  10  20  42  61  76 101 129 171 243 288 314
#     4  10  18  32  48  67 106 167 176 206 246 284
#
# _framework density 23.084468999999999
#
# number of rings (size 3 to 8) (size 9 to 14) (size 15 to 20)
#    0.000    1.778    3.333    4.667    3.111    0.000 
#    0.000    2.222    0.000    0.000    0.000    0.000 
#    0.000  120.889    0.000    0.000    0.000    0.000 
#
# Total GULP energy -200486.677883 kJ/mol
# GULP energy per Si atom -5569.074386 kJ/mol
# Density = 2.303193 g / cm^3
# Si number density = 23.084469 Si / 1000 Ang^3
#
#
#
# Elastic Constant Matrix: (Units=GPa)
#
#
# Indices 1 2 3 4 5 6 
#
# 1 188.6485 7.2856 46.7345 0.0000 0.0000 0.0000
# 2 7.2856 34.6589 1.8974 0.0000 0.0000 0.0000
# 3 46.7345 1.8974 128.5678 0.0000 0.0000 0.0000
# 4 0.0000 0.0000 0.0000 4.5420 0.0000 0.0000
# 5 0.0000 0.0000 0.0000 0.0000 37.2038 0.0000
# 6 0.0000 0.0000 0.0000 0.0000 0.0000 -4.7482
#
#
#
# Elastic Compliance Matrix: (Units=1/GPa)
#
#
# Indices 1 2 3 4 5 6 
#
# 1 0.005868 -0.001118 -0.002117 0.000000 0.000000 0.000000
# 2 -0.001118 0.029089 -0.000023 0.000000 0.000000 0.000000
# 3 -0.002117 -0.000023 0.008548 0.000000 0.000000 0.000000
# 4 0.000000 0.000000 0.000000 0.220168 0.000000 0.000000
# 5 0.000000 0.000000 0.000000 0.000000 0.026879 0.000000
# 6 0.000000 0.000000 0.000000 0.000000 0.000000 -0.210608
#
#
# Mechanical properties :
#
#
# Convention : Reuss Voigt Hill
#
# Bulk Modulus (GPa) = 27.03415 51.52334 39.27875
# Shear Modulus (GPa) = 50.61284 27.13003 38.87144
#
# Velocity S-wave (km/s) = 4.68750 3.43191 4.10796
# Velocity P-wave (km/s) = 6.40572 6.17025 6.28909
#
# Compressibility (1/GPa) = 0.03699025
#
# Stress axis : x y z
#
# Youngs Moduli (GPa) = 170.40414 34.37742 116.98987
#
# Poissons Ratio (x) = 0.03842 0.24763
# Poissons Ratio (y) = 0.19046 0.00269
# Poissons Ratio (z) = 0.36069 0.00079
#
# Static dielectric constant tensor:
#      x y z
#    x 2.116030 0.000000 0.000000 
#    y 0.000000 2.001950 0.000000 
#    z 0.000000 0.000000 1.887680 
# 
# From -- ./inp_files/41452.got.cif
#   From: 2010.05.17/outbox.cif.g08.bks.cpg/sg72_21_cif.got.tgz:41452.got - 2010.06.03 17:03:01.
