data_PCOD9525139
_publ_section_title
;
Structure prediction by ZEFSAII (Michael W. Deem and Ramdas Pophale) SiO2 
 PCOD9525139
Probable space group: I B A M
;
_chemical_formula_sum "Si O2"
_cell_formula_units_Z 104
_cell_length_a 9.724609
_cell_length_b 26.323059
_cell_length_c 22.101421
_cell_angle_alpha 90.000000
_cell_angle_beta 90.000000
_cell_angle_gamma 90.000000
_cell_volume 5657.553937
_symmetry_space_group_name_H-M "I B A M"
_symmetry_group_IT_number 72
_symmetry_cell_setting 'orthorhombic'
loop_
_space_group_symop_operation_xyz
x,y,z
-x,-y,z
x,-y,1/2-z
-x,y,1/2-z
-x,-y,-z
x,y,-z
-x,y,1/2+z
x,-y,1/2+z
1/2+x,1/2+y,1/2+z
1/2-x,1/2-y,1/2+z
1/2+x,1/2-y,-z
1/2-x,1/2+y,-z
1/2-x,1/2-y,1/2-z
1/2+x,1/2+y,1/2-z
1/2-x,1/2+y,z
1/2+x,1/2-y,z
loop_
_atom_site_type_symbol
_atom_site_label
_atom_site_fract_x
_atom_site_fract_y
_atom_site_fract_z
Si Si1 0.284927 0.361972 0.162259
Si Si2 0.494093 0.558165 0.129689
Si Si3 0.629351 0.847128 0.000000
Si Si4 0.022914 0.338050 0.634404
Si Si5 0.192070 0.140064 0.194036
Si Si6 0.608623 0.411892 0.000000
Si Si7 0.003525 0.222071 0.631158
Si Si8 0.092893 0.796190 0.500000
O O1 0.362802 0.411205 0.135843
O O2 0.123599 0.361560 0.150253
O O3 0.310484 0.358765 0.234025
O O4 0.359044 0.311887 0.134908
O O5 0.500000 0.500000 0.149060
O O6 0.390256 0.591478 0.169784
O O7 0.438613 0.561235 0.060943
O O8 0.548258 0.843817 0.937552
O O9 0.729298 0.897013 0.000000
O O10 0.242115 0.698386 0.000000
O O11 0.020904 0.278868 0.654309
O O12 0.154266 0.361385 0.668120
O O13 0.112084 0.188878 0.165942
O O14 0.543215 0.355085 0.000000
O O15 0.957172 0.227506 0.561745
#
# Coordination Sequence:
#
# PCOD9525139 Si02
#       8
#    16  16   8  16  16   8  16   8
#     4  11  25  36  59  92 117 155 208 246 282 352
#     4  11  22  42  70  90 111 149 202 254 304 357
#     4  10  19  38  61  81 123 169 184 238 316 345
#     4  12  23  37  59  88 125 163 195 240 296 354
#     4  11  22  42  57  82 128 162 192 245 300 348
#     4  10  17  39  69  86 116 152 191 248 313 349
#     4  11  21  37  60  86 119 163 208 240 283 348
#     4  10  17  37  62  81 120 162 198 243 293 345
#
# _framework density 18.382504000000001
#
# number of rings (size 3 to 8) (size 9 to 14) (size 15 to 20)
#    0.462    0.615    6.154    3.923    0.000    6.154 
#    0.000    0.769    0.000    2.769    0.000    0.000 
#    0.000    0.000    0.000    0.000    0.000    0.000 
#
# Total GULP energy -290400.193287 kJ/mol
# GULP energy per Si atom -5584.619102 kJ/mol
# Density = 1.834066 g / cm^3
# Si number density = 18.382504 Si / 1000 Ang^3
#
#
#
# Elastic Constant Matrix: (Units=GPa)
#
#
# Indices 1 2 3 4 5 6 
#
# 1 125.7878 47.0121 23.0258 0.0000 0.0000 0.0000
# 2 47.0121 111.2553 10.1613 0.0000 0.0000 0.0000
# 3 23.0258 10.1613 105.2914 0.0000 0.0000 0.0000
# 4 0.0000 0.0000 0.0000 -7.2407 0.0000 0.0000
# 5 0.0000 0.0000 0.0000 0.0000 43.2130 0.0000
# 6 0.0000 0.0000 0.0000 0.0000 0.0000 4.2698
#
#
#
# Elastic Compliance Matrix: (Units=1/GPa)
#
#
# Indices 1 2 3 4 5 6 
#
# 1 0.009750 -0.003960 -0.001750 0.000000 0.000000 0.000000
# 2 -0.003960 0.010677 -0.000164 0.000000 0.000000 0.000000
# 3 -0.001750 -0.000164 0.009896 0.000000 0.000000 0.000000
# 4 0.000000 0.000000 0.000000 -0.138108 0.000000 0.000000
# 5 0.000000 0.000000 0.000000 0.000000 0.023141 0.000000
# 6 0.000000 0.000000 0.000000 0.000000 0.000000 0.234206
#
#
# Mechanical properties :
#
#
# Convention : Reuss Voigt Hill
#
# Bulk Modulus (GPa) = 53.83919 55.85924 54.84922
# Shear Modulus (GPa) = 29.85028 25.52408 27.68718
#
# Velocity S-wave (km/s) = 4.03406 3.73030 3.88515
# Velocity P-wave (km/s) = 7.14493 7.00047 7.07307
#
# Compressibility (1/GPa) = 0.01857383
#
# Stress axis : x y z
#
# Youngs Moduli (GPa) = 102.56016 93.66099 101.05060
#
# Poissons Ratio (x) = 0.37092 0.17685
# Poissons Ratio (y) = 0.40617 0.01660
# Poissons Ratio (z) = 0.17949 0.01539
#
# Static dielectric constant tensor:
#      x y z
#    x 1.635220 0.000000 0.000000 
#    y 0.000000 1.621630 0.000000 
#    z 0.000000 0.000000 1.642470 
# 
# From -- ./inp_files/36197.got.cif
#   From: 2010.05.17/outbox.cif.g08.bks.cpg/sg72_19_cif.got.tgz:36197.got - 2010.06.03 17:03:01.
