data_PCOD9525328
_publ_section_title
;
Structure prediction by ZEFSAII (Michael W. Deem and Ramdas Pophale) SiO2 
 PCOD9525328
Probable space group: I B A M
;
_chemical_formula_sum "Si O2"
_cell_formula_units_Z 68
_cell_length_a 21.186020
_cell_length_b 9.227353
_cell_length_c 20.776646
_cell_angle_alpha 90.000000
_cell_angle_beta 90.000000
_cell_angle_gamma 90.000000
_cell_volume 4061.644918
_symmetry_space_group_name_H-M "I B A M"
_symmetry_group_IT_number 72
_symmetry_cell_setting 'orthorhombic'
loop_
_space_group_symop_operation_xyz
x,y,z
-x,-y,z
x,-y,1/2-z
-x,y,1/2-z
-x,-y,-z
x,y,-z
-x,y,1/2+z
x,-y,1/2+z
1/2+x,1/2+y,1/2+z
1/2-x,1/2-y,1/2+z
1/2+x,1/2-y,-z
1/2-x,1/2+y,-z
1/2-x,1/2-y,1/2-z
1/2+x,1/2+y,1/2-z
1/2-x,1/2+y,z
1/2+x,1/2-y,z
loop_
_atom_site_type_symbol
_atom_site_label
_atom_site_fract_x
_atom_site_fract_y
_atom_site_fract_z
Si Si1 0.688039 0.591272 0.078143
Si Si2 0.059431 0.591179 0.625026
Si Si3 0.816576 0.428512 0.921844
Si Si4 0.063655 0.919086 0.577753
Si Si5 0.500000 0.000000 0.750000
O O1 0.752384 0.510862 0.097220
O O2 0.686446 0.759642 0.096987
O O3 0.626078 0.504402 0.100066
O O4 0.687248 0.589509 0.000000
O O5 0.123010 0.506426 0.608335
O O6 0.063040 0.753215 0.599366
O O7 0.000000 0.500000 0.596437
O O8 0.043384 0.590688 0.701114
O O9 0.821978 0.436057 0.000000
O O10 0.064391 0.920830 0.500000
O O11 0.000000 0.000000 0.599106
#
# Coordination Sequence:
#
# PCOD9525328 Si02
#       5
#    16  16  16  16   4
#     4   9  18  30  47  82 119 140 163 201 261 333
#     4  10  20  36  54  71 101 142 177 225 266 301
#     4  10  18  30  53  80 110 143 170 207 267 326
#     4  10  19  31  52  84 114 135 166 212 265 329
#     4   8  24  40  52  72  96 140 192 238 256 296
#
# _framework density 16.741985
#
# number of rings (size 3 to 8) (size 9 to 14) (size 15 to 20)
#    0.706    1.647    0.000    3.529    0.000    7.529 
#    0.000    0.588    0.000    5.647    0.000    0.000 
#    0.000    0.000    0.000    0.000    0.000    0.000 
#
# Total GULP energy -189420.214360 kJ/mol
# GULP energy per Si atom -5571.182775 kJ/mol
# Density = 1.670388 g / cm^3
# Si number density = 16.741985 Si / 1000 Ang^3
#
#
#
# Elastic Constant Matrix: (Units=GPa)
#
#
# Indices 1 2 3 4 5 6 
#
# 1 204.2067 121.8136 30.5509 0.0000 0.0000 0.0000
# 2 121.8136 189.2284 20.0526 0.0000 0.0000 0.0000
# 3 30.5509 20.0526 22.8282 0.0000 0.0000 0.0000
# 4 0.0000 0.0000 0.0000 5.3306 0.0000 0.0000
# 5 0.0000 0.0000 0.0000 0.0000 14.8745 0.0000
# 6 0.0000 0.0000 0.0000 0.0000 0.0000 37.2834
#
#
#
# Elastic Compliance Matrix: (Units=1/GPa)
#
#
# Indices 1 2 3 4 5 6 
#
# 1 0.009029 -0.004997 -0.007694 0.000000 0.000000 0.000000
# 2 -0.004997 0.008592 -0.000860 0.000000 0.000000 0.000000
# 3 -0.007694 -0.000860 0.054858 0.000000 0.000000 0.000000
# 4 0.000000 0.000000 0.000000 0.187596 0.000000 0.000000
# 5 0.000000 0.000000 0.000000 0.000000 0.067229 0.000000
# 6 0.000000 0.000000 0.000000 0.000000 0.000000 0.026822
#
#
# Mechanical properties :
#
#
# Convention : Reuss Voigt Hill
#
# Bulk Modulus (GPa) = 22.03763 84.56638 53.30201
# Shear Modulus (GPa) = 12.61496 27.75410 20.18453
#
# Velocity S-wave (km/s) = 2.74796 4.07597 3.47598
# Velocity P-wave (km/s) = 4.82287 8.53069 6.92938
#
# Compressibility (1/GPa) = 0.04537693
#
# Stress axis : x y z
#
# Youngs Moduli (GPa) = 110.75656 116.38085 18.22884
#
# Poissons Ratio (x) = 0.58154 0.14025
# Poissons Ratio (y) = 0.55344 0.01568
# Poissons Ratio (z) = 0.85215 0.10014
#
# Static dielectric constant tensor:
#      x y z
#    x 1.563890 0.000000 0.000000 
#    y 0.000000 1.541380 0.000000 
#    z 0.000000 0.000000 1.548970 
# 
# From -- ./inp_files/32271.got.cif
#   From: 2010.05.17/outbox.cif.g08.bks.cpg/sg72_17_cif.got.tgz:32271.got - 2010.06.03 17:03:01.
