data_PCOD9525302
_publ_section_title
;
Structure prediction by ZEFSAII (Michael W. Deem and Ramdas Pophale) SiO2 
 PCOD9525302
Probable space group: I B A M
;
_chemical_formula_sum "Si O2"
_cell_formula_units_Z 112
_cell_length_a 18.719948
_cell_length_b 19.912628
_cell_length_c 15.070163
_cell_angle_alpha 90.000000
_cell_angle_beta 90.000000
_cell_angle_gamma 90.000000
_cell_volume 5617.604606
_symmetry_space_group_name_H-M "I B A M"
_symmetry_group_IT_number 72
_symmetry_cell_setting 'orthorhombic'
loop_
_space_group_symop_operation_xyz
x,y,z
-x,-y,z
x,-y,1/2-z
-x,y,1/2-z
-x,-y,-z
x,y,-z
-x,y,1/2+z
x,-y,1/2+z
1/2+x,1/2+y,1/2+z
1/2-x,1/2-y,1/2+z
1/2+x,1/2-y,-z
1/2-x,1/2+y,-z
1/2-x,1/2-y,1/2-z
1/2+x,1/2+y,1/2-z
1/2-x,1/2+y,z
1/2+x,1/2-y,z
loop_
_atom_site_type_symbol
_atom_site_label
_atom_site_fract_x
_atom_site_fract_y
_atom_site_fract_z
Si Si1 0.939839 0.447735 0.108367
Si Si2 0.391455 0.710479 0.601434
Si Si3 0.172381 0.694073 0.656958
Si Si4 0.270384 0.185876 0.856746
Si Si5 0.209551 0.903468 0.897893
Si Si6 0.219210 0.466846 0.394955
Si Si7 0.008506 0.306979 0.891453
O O1 0.861635 0.468097 0.141406
O O2 0.000000 0.500000 0.136080
O O3 0.964172 0.373356 0.134433
O O4 0.937200 0.447940 0.000000
O O5 0.408671 0.692740 0.500000
O O6 0.333736 0.771280 0.597918
O O7 0.349932 0.646859 0.643351
O O8 0.462982 0.742690 0.640615
O O9 0.200742 0.768100 0.632297
O O10 0.201624 0.683038 0.756010
O O11 0.216791 0.638975 0.602290
O O12 0.088418 0.688737 0.644635
O O13 0.257895 0.110346 0.886950
O O14 0.229291 0.975456 0.856934
O O15 0.187382 0.913937 0.000000
O O16 0.213928 0.482181 0.500000
O O17 0.012057 0.305753 0.000000
#
# Coordination Sequence:
#
# PCOD9525302 Si02
#       7
#    16  16  16  16  16  16  16
#     4   9  16  26  43  69 100 128 158 197 249 310
#     4   9  17  32  51  71  97 132 174 215 256 308
#     4  10  21  33  48  72 102 135 170 211 258 309
#     4  10  20  34  49  70 101 135 172 209 253 311
#     4   9  18  32  51  72  97 132 175 216 256 310
#     4  10  18  31  52  74  97 133 173 211 256 305
#     4  10  18  30  50  74 100 134 171 213 262 307
#
# _framework density 19.937324
#
# number of rings (size 3 to 8) (size 9 to 14) (size 15 to 20)
#    0.000    2.429    1.429    1.714    0.000    5.143 
#    0.000    0.000    0.000    0.857    0.000    4.000 
#    0.000    6.857    0.000    0.286    0.000    0.000 
#
# Total GULP energy -312290.612887 kJ/mol
# GULP energy per Si atom -5576.618087 kJ/mol
# Density = 1.989195 g / cm^3
# Si number density = 19.937324 Si / 1000 Ang^3
#
#
#
# Elastic Constant Matrix: (Units=GPa)
#
#
# Indices 1 2 3 4 5 6 
#
# 1 47.7863 23.1217 -3.6668 0.0000 0.0000 0.0000
# 2 23.1217 112.2972 -5.3291 0.0000 0.0000 0.0000
# 3 -3.6668 -5.3291 30.7910 0.0000 0.0000 0.0000
# 4 0.0000 0.0000 0.0000 101.8179 0.0000 0.0000
# 5 0.0000 0.0000 0.0000 0.0000 9.3910 0.0000
# 6 0.0000 0.0000 0.0000 0.0000 0.0000 31.1597
#
#
#
# Elastic Compliance Matrix: (Units=1/GPa)
#
#
# Indices 1 2 3 4 5 6 
#
# 1 0.023359 -0.004716 0.001965 0.000000 0.000000 0.000000
# 2 -0.004716 0.009931 0.001157 0.000000 0.000000 0.000000
# 3 0.001965 0.001157 0.032911 0.000000 0.000000 0.000000
# 4 0.000000 0.000000 0.000000 0.009821 0.000000 0.000000
# 5 0.000000 0.000000 0.000000 0.000000 0.106485 0.000000
# 6 0.000000 0.000000 0.000000 0.000000 0.000000 0.032093
#
#
# Mechanical properties :
#
#
# Convention : Reuss Voigt Hill
#
# Bulk Modulus (GPa) = 15.86944 24.34735 20.10840
# Shear Modulus (GPa) = 20.93866 40.25696 30.59781
#
# Velocity S-wave (km/s) = 3.24423 4.49840 3.92177
# Velocity P-wave (km/s) = 4.69152 6.26253 5.53306
#
# Compressibility (1/GPa) = 0.06301419
#
# Stress axis : x y z
#
# Youngs Moduli (GPa) = 42.80938 100.69534 30.38465
#
# Poissons Ratio (x) = 0.47492 -0.05972
# Poissons Ratio (y) = 0.20190 -0.03516
# Poissons Ratio (z) = -0.08414 -0.11652
#
# Static dielectric constant tensor:
#      x y z
#    x 1.688790 0.000000 0.000000 
#    y 0.000000 1.741120 0.000000 
#    z 0.000000 0.000000 1.779120 
# 
# From -- ./inp_files/39200.got.cif
#   From: 2010.05.17/outbox.cif.g08.bks.cpg/sg72_20_cif.got.tgz:39200.got - 2010.06.03 17:03:01.
