data_PCOD9525288
_publ_section_title
;
Structure prediction by ZEFSAII (Michael W. Deem and Ramdas Pophale) SiO2 
 PCOD9525288
Probable space group: I B A M
;
_chemical_formula_sum "Si O2"
_cell_formula_units_Z 80
_cell_length_a 6.929153
_cell_length_b 17.957787
_cell_length_c 28.214553
_cell_angle_alpha 90.000000
_cell_angle_beta 90.000000
_cell_angle_gamma 90.000000
_cell_volume 3510.800416
_symmetry_space_group_name_H-M "I B A M"
_symmetry_group_IT_number 72
_symmetry_cell_setting 'orthorhombic'
loop_
_space_group_symop_operation_xyz
x,y,z
-x,-y,z
x,-y,1/2-z
-x,y,1/2-z
-x,-y,-z
x,y,-z
-x,y,1/2+z
x,-y,1/2+z
1/2+x,1/2+y,1/2+z
1/2-x,1/2-y,1/2+z
1/2+x,1/2-y,-z
1/2-x,1/2+y,-z
1/2-x,1/2-y,1/2-z
1/2+x,1/2+y,1/2-z
1/2-x,1/2+y,z
1/2+x,1/2-y,z
loop_
_atom_site_type_symbol
_atom_site_label
_atom_site_fract_x
_atom_site_fract_y
_atom_site_fract_z
Si Si1 0.180031 0.543363 0.091265
Si Si2 0.730876 0.913634 0.259325
Si Si3 0.816036 0.609125 0.947835
Si Si4 0.837557 0.323792 0.649286
Si Si5 0.788754 0.150648 0.661966
O O1 0.260629 0.474672 0.061109
O O2 0.332662 0.585808 0.123900
O O3 0.000000 0.500000 0.119351
O O4 0.049909 0.596715 0.057820
O O5 0.500000 0.908630 0.250000
O O6 0.765395 0.872026 0.309421
O O7 0.825963 0.870708 0.215770
O O8 0.780263 0.000000 0.250000
O O9 0.757757 0.658089 0.902787
O O10 0.767707 0.636570 0.000000
O O11 0.848439 0.235319 0.655149
O O12 0.058210 0.348820 0.653222
#
# Coordination Sequence:
#
# PCOD9525288 Si02
#       5
#    16  16  16  16  16
#     4   7  14  26  48  69  84 114 161 198 214 256
#     4   9  17  28  49  70  89 120 160 195 222 265
#     4   8  14  27  46  67  89 116 155 197 227 253
#     4  10  19  30  45  70  98 122 149 188 236 279
#     4  10  18  30  48  72  97 119 149 189 237 279
#
# _framework density 22.786826999999999
#
# number of rings (size 3 to 8) (size 9 to 14) (size 15 to 20)
#    1.200    1.800    0.000    3.000    2.800    0.000 
#    0.000    5.000    0.000    6.000    0.000    1.400 
#    0.000    0.000    0.000    0.000    0.000    0.000 
#
# Total GULP energy -222677.965524 kJ/mol
# GULP energy per Si atom -5566.949138 kJ/mol
# Density = 2.273496 g / cm^3
# Si number density = 22.786827 Si / 1000 Ang^3
#
#
#
# Elastic Constant Matrix: (Units=GPa)
#
#
# Indices 1 2 3 4 5 6 
#
# 1 41.8907 -20.4893 -3.9966 0.0000 0.0000 0.0000
# 2 -20.4893 119.8457 86.0364 0.0000 0.0000 0.0000
# 3 -3.9966 86.0364 209.3851 0.0000 0.0000 0.0000
# 4 0.0000 0.0000 0.0000 18.2700 0.0000 0.0000
# 5 0.0000 0.0000 0.0000 0.0000 1.2130 0.0000
# 6 0.0000 0.0000 0.0000 0.0000 0.0000 17.5371
#
#
#
# Elastic Compliance Matrix: (Units=1/GPa)
#
#
# Indices 1 2 3 4 5 6 
#
# 1 0.026588 0.005931 -0.001929 0.000000 0.000000 0.000000
# 2 0.005931 0.013158 -0.005293 0.000000 0.000000 0.000000
# 3 -0.001929 -0.005293 0.006914 0.000000 0.000000 0.000000
# 4 0.000000 0.000000 0.000000 0.054735 0.000000 0.000000
# 5 0.000000 0.000000 0.000000 0.000000 0.824422 0.000000
# 6 0.000000 0.000000 0.000000 0.000000 0.000000 0.057022
#
#
# Mechanical properties :
#
#
# Convention : Reuss Voigt Hill
#
# Bulk Modulus (GPa) = 22.68787 54.91362 38.80074
# Shear Modulus (GPa) = 4.99942 28.04208 16.52075
#
# Velocity S-wave (km/s) = 1.48282 3.51184 2.69553
# Velocity P-wave (km/s) = 3.59303 6.37143 5.17228
#
# Compressibility (1/GPa) = 0.04407642
#
# Stress axis : x y z
#
# Youngs Moduli (GPa) = 37.61039 75.99838 144.63079
#
# Poissons Ratio (x) = -0.45073 0.27906
# Poissons Ratio (y) = -0.22306 0.76560
# Poissons Ratio (z) = 0.07257 0.40230
#
# Static dielectric constant tensor:
#      x y z
#    x 1.970580 0.000000 0.000000 
#    y 0.000000 2.014190 0.000000 
#    z 0.000000 0.000000 1.872200 
# 
# From -- ./inp_files/51353.got.cif
#   From: 2010.05.17/outbox.cif.g08.bks.cpg/sg72_26_cif.got.tgz:51353.got - 2010.06.03 17:03:01.
