data_PCOD9525185
_publ_section_title
;
Structure prediction by ZEFSAII (Michael W. Deem and Ramdas Pophale) SiO2 
 PCOD9525185
Probable space group: I B A M
;
_chemical_formula_sum "Si O2"
_cell_formula_units_Z 100
_cell_length_a 11.750193
_cell_length_b 15.003504
_cell_length_c 31.581689
_cell_angle_alpha 90.000000
_cell_angle_beta 90.000000
_cell_angle_gamma 90.000000
_cell_volume 5567.664418
_symmetry_space_group_name_H-M "I B A M"
_symmetry_group_IT_number 72
_symmetry_cell_setting 'orthorhombic'
loop_
_space_group_symop_operation_xyz
x,y,z
-x,-y,z
x,-y,1/2-z
-x,y,1/2-z
-x,-y,-z
x,y,-z
-x,y,1/2+z
x,-y,1/2+z
1/2+x,1/2+y,1/2+z
1/2-x,1/2-y,1/2+z
1/2+x,1/2-y,-z
1/2-x,1/2+y,-z
1/2-x,1/2-y,1/2-z
1/2+x,1/2+y,1/2-z
1/2-x,1/2+y,z
1/2+x,1/2-y,z
loop_
_atom_site_type_symbol
_atom_site_label
_atom_site_fract_x
_atom_site_fract_y
_atom_site_fract_z
Si Si1 0.707051 0.752351 0.379297
Si Si2 0.323353 0.853183 0.547636
Si Si3 0.420454 0.834292 0.952623
Si Si4 0.300633 0.460869 0.045824
Si Si5 0.108683 0.097780 0.826347
Si Si6 0.636755 0.414327 0.633465
Si Si7 0.000000 0.000000 0.750000
O O1 0.794500 0.710842 0.413591
O O2 0.601823 0.774132 0.411157
O O3 0.676657 0.684356 0.341705
O O4 0.765293 0.841327 0.361138
O O5 0.308995 0.813830 0.500000
O O6 0.455950 0.878972 0.550687
O O7 0.240528 0.937709 0.550582
O O8 0.316016 0.903480 0.952104
O O9 0.418602 0.791101 0.000000
O O10 0.378777 0.428954 0.083558
O O11 0.353435 0.447411 0.000000
O O12 0.982437 0.110489 0.845782
O O13 0.079364 0.064063 0.778969
O O14 0.166631 0.011292 0.847839
#
# Coordination Sequence:
#
# PCOD9525185 Si02
#       7
#    16  16  16  16  16  16   4
#     4  11  19  31  53  75 103 135 179 219 252 299
#     4  10  18  28  43  67 100 141 181 217 252 287
#     4   9  18  29  43  67 104 144 179 212 250 292
#     4   9  16  29  46  68  99 139 181 217 251 292
#     4  10  20  39  57  78 104 129 166 211 263 327
#     4   9  19  34  52  75 104 137 170 215 255 300
#     4   8  20  40  64  76 102 136 156 200 276 328
#
# _framework density 17.960851000000002
#
# number of rings (size 3 to 8) (size 9 to 14) (size 15 to 20)
#    0.000    2.560    1.600    1.920    0.000    2.560 
#    0.000    6.400    0.000    0.000    0.000    0.000 
#    0.000   16.640    0.000    0.000    0.000    0.000 
#
# Total GULP energy -278395.719481 kJ/mol
# GULP energy per Si atom -5567.914390 kJ/mol
# Density = 1.791997 g / cm^3
# Si number density = 17.960851 Si / 1000 Ang^3
#
#
#
# Elastic Constant Matrix: (Units=GPa)
#
#
# Indices 1 2 3 4 5 6 
#
# 1 38.2177 13.5927 24.5573 0.0000 0.0000 0.0000
# 2 13.5927 81.5468 39.0393 0.0000 0.0000 0.0000
# 3 24.5573 39.0393 103.5784 0.0000 0.0000 0.0000
# 4 0.0000 0.0000 0.0000 20.5429 0.0000 0.0000
# 5 0.0000 0.0000 0.0000 0.0000 11.7320 0.0000
# 6 0.0000 0.0000 0.0000 0.0000 0.0000 21.3833
#
#
#
# Elastic Compliance Matrix: (Units=1/GPa)
#
#
# Indices 1 2 3 4 5 6 
#
# 1 0.031139 -0.002021 -0.006621 0.000000 0.000000 0.000000
# 2 -0.002021 0.015094 -0.005210 0.000000 0.000000 0.000000
# 3 -0.006621 -0.005210 0.013188 0.000000 0.000000 0.000000
# 4 0.000000 0.000000 0.000000 0.048679 0.000000 0.000000
# 5 0.000000 0.000000 0.000000 0.000000 0.085237 0.000000
# 6 0.000000 0.000000 0.000000 0.000000 0.000000 0.046765
#
#
# Mechanical properties :
#
#
# Convention : Reuss Voigt Hill
#
# Bulk Modulus (GPa) = 31.52835 41.96906 36.74870
# Shear Modulus (GPa) = 17.96119 20.47521 19.21820
#
# Velocity S-wave (km/s) = 3.16574 3.38004 3.27464
# Velocity P-wave (km/s) = 5.56368 6.21696 5.89937
#
# Compressibility (1/GPa) = 0.03171749
#
# Stress axis : x y z
#
# Youngs Moduli (GPa) = 32.11400 66.25204 75.82672
#
# Poissons Ratio (x) = 0.13387 0.50206
# Poissons Ratio (y) = 0.06489 0.39505
# Poissons Ratio (z) = 0.21263 0.34517
#
# Static dielectric constant tensor:
#      x y z
#    x 1.614990 0.000000 0.000000 
#    y 0.000000 1.662710 0.000000 
#    z 0.000000 0.000000 1.636840 
# 
# From -- ./inp_files/51421.got.cif
#   From: 2010.05.17/outbox.cif.g08.bks.cpg/sg72_26_cif.got.tgz:51421.got - 2010.06.03 17:03:01.
