data_PCOD9525440
_publ_section_title
;
Structure prediction by ZEFSAII (Michael W. Deem and Ramdas Pophale) SiO2 
 PCOD9525440
Probable space group: I B A M
;
_chemical_formula_sum "Si O2"
_cell_formula_units_Z 60
_cell_length_a 14.259658
_cell_length_b 8.218228
_cell_length_c 26.513308
_cell_angle_alpha 90.000000
_cell_angle_beta 90.000000
_cell_angle_gamma 90.000000
_cell_volume 3107.071250
_symmetry_space_group_name_H-M "I B A M"
_symmetry_group_IT_number 72
_symmetry_cell_setting 'orthorhombic'
loop_
_space_group_symop_operation_xyz
x,y,z
-x,-y,z
x,-y,1/2-z
-x,y,1/2-z
-x,-y,-z
x,y,-z
-x,y,1/2+z
x,-y,1/2+z
1/2+x,1/2+y,1/2+z
1/2-x,1/2-y,1/2+z
1/2+x,1/2-y,-z
1/2-x,1/2+y,-z
1/2-x,1/2-y,1/2-z
1/2+x,1/2+y,1/2-z
1/2-x,1/2+y,z
1/2+x,1/2-y,z
loop_
_atom_site_type_symbol
_atom_site_label
_atom_site_fract_x
_atom_site_fract_y
_atom_site_fract_z
Si Si1 0.799579 0.512091 0.373269
Si Si2 0.335704 0.274054 0.443096
Si Si3 0.377808 0.324581 0.166982
Si Si4 0.000000 0.000000 0.250000
Si Si5 0.000000 0.000000 0.416185
O O1 0.745251 0.624625 0.414332
O O2 0.853893 0.378858 0.406430
O O3 0.721096 0.418826 0.340168
O O4 0.858740 0.633452 0.338612
O O5 0.308421 0.226197 0.500000
O O6 0.425862 0.389860 0.445030
O O7 0.433663 0.387633 0.215372
O O8 0.439875 0.381898 0.119605
#
# Coordination Sequence:
#
# PCOD9525440 Si02
#       5
#    16  16  16   4   8
#     4   9  19  34  54  77 112 143 178 222 268 314
#     4  10  18  32  53  80 110 150 187 217 257 319
#     4   9  19  36  55  78 105 141 175 223 275 322
#     4  10  20  36  62  82 106 136 178 224 280 344
#     4   9  19  33  51  76 114 144 177 227 271 299
#
# _framework density 19.310789
#
# number of rings (size 3 to 8) (size 9 to 14) (size 15 to 20)
#    0.000    2.667    0.000    1.200    0.000    2.133 
#    0.000    5.333    0.000   25.600    0.000    0.000 
#    0.000    0.000    0.000    0.000    0.000    0.000 
#
# Total GULP energy -167300.058411 kJ/mol
# GULP energy per Si atom -5576.668614 kJ/mol
# Density = 1.926684 g / cm^3
# Si number density = 19.310789 Si / 1000 Ang^3
#
#
#
# Elastic Constant Matrix: (Units=GPa)
#
#
# Indices 1 2 3 4 5 6 
#
# 1 58.5933 36.8231 35.3909 0.0000 0.0000 0.0000
# 2 36.8231 112.3507 49.2138 0.0000 0.0000 0.0000
# 3 35.3909 49.2138 112.8466 0.0000 0.0000 0.0000
# 4 0.0000 0.0000 0.0000 13.1180 0.0000 0.0000
# 5 0.0000 0.0000 0.0000 0.0000 0.0646 0.0000
# 6 0.0000 0.0000 0.0000 0.0000 0.0000 18.6854
#
#
#
# Elastic Compliance Matrix: (Units=1/GPa)
#
#
# Indices 1 2 3 4 5 6 
#
# 1 0.023551 -0.005542 -0.004969 0.000000 0.000000 0.000000
# 2 -0.005542 0.012307 -0.003629 0.000000 0.000000 0.000000
# 3 -0.004969 -0.003629 0.012003 0.000000 0.000000 0.000000
# 4 0.000000 0.000000 0.000000 0.076231 0.000000 0.000000
# 5 0.000000 0.000000 0.000000 0.000000 15.470987 0.000000
# 6 0.000000 0.000000 0.000000 0.000000 0.000000 0.053518
#
#
# Mechanical properties :
#
#
# Convention : Reuss Voigt Hill
#
# Bulk Modulus (GPa) = 51.07255 58.51622 54.79439
# Shear Modulus (GPa) = 0.31881 17.19780 8.75831
#
# Velocity S-wave (km/s) = 0.40676 2.98750 2.13197
# Velocity P-wave (km/s) = 5.16969 6.50141 5.87341
#
# Compressibility (1/GPa) = 0.01957999
#
# Stress axis : x y z
#
# Youngs Moduli (GPa) = 42.46064 81.25572 83.31514
#
# Poissons Ratio (x) = 0.45034 0.41400
# Poissons Ratio (y) = 0.23533 0.30235
# Poissons Ratio (z) = 0.21099 0.29488
#
# Static dielectric constant tensor:
#      x y z
#    x 1.686070 0.000000 0.000000 
#    y 0.000000 1.690420 0.000000 
#    z 0.000000 0.000000 1.649450 
# 
# From -- ./inp_files/41847.got.cif
#   From: 2010.05.17/outbox.cif.g08.bks.cpg/sg72_21_cif.got.tgz:41847.got - 2010.06.03 17:03:01.
