data_PCOD9525122
_publ_section_title
;
Structure prediction by ZEFSAII (Michael W. Deem and Ramdas Pophale) SiO2 
 PCOD9525122
Probable space group: I B A M
;
_chemical_formula_sum "Si O2"
_cell_formula_units_Z 116
_cell_length_a 8.381930
_cell_length_b 23.113561
_cell_length_c 30.751113
_cell_angle_alpha 90.000000
_cell_angle_beta 90.000000
_cell_angle_gamma 90.000000
_cell_volume 5957.605327
_symmetry_space_group_name_H-M "I B A M"
_symmetry_group_IT_number 72
_symmetry_cell_setting 'orthorhombic'
loop_
_space_group_symop_operation_xyz
x,y,z
-x,-y,z
x,-y,1/2-z
-x,y,1/2-z
-x,-y,-z
x,y,-z
-x,y,1/2+z
x,-y,1/2+z
1/2+x,1/2+y,1/2+z
1/2-x,1/2-y,1/2+z
1/2+x,1/2-y,-z
1/2-x,1/2+y,-z
1/2-x,1/2-y,1/2-z
1/2+x,1/2+y,1/2-z
1/2-x,1/2+y,z
1/2+x,1/2-y,z
loop_
_atom_site_type_symbol
_atom_site_label
_atom_site_fract_x
_atom_site_fract_y
_atom_site_fract_z
Si Si1 0.664277 0.463358 0.547318
Si Si2 0.676741 0.938877 0.907669
Si Si3 0.006754 0.661926 0.949059
Si Si4 0.336971 0.721260 0.550917
Si Si5 0.044631 0.093231 0.700889
Si Si6 0.000000 0.500000 0.750000
Si Si7 0.488720 0.627975 0.607405
Si Si8 0.742010 0.012477 0.316120
O O1 0.500000 0.500000 0.546122
O O2 0.685905 0.434838 0.500000
O O3 0.795572 0.511892 0.556345
O O4 0.635900 0.418196 0.586063
O O5 0.538305 0.894437 0.920054
O O6 0.672152 0.975235 0.863271
O O7 0.838310 0.899997 0.902429
O O8 0.141284 0.710751 0.940443
O O9 0.838358 0.694344 0.942410
O O10 0.018346 0.645575 0.000000
O O11 0.379348 0.713268 0.500000
O O12 0.457281 0.686076 0.581202
O O13 0.041962 0.134963 0.658985
O O14 0.000000 0.113563 0.750000
O O15 0.900177 0.049862 0.689488
O O16 0.202569 0.052686 0.696324
O O17 0.886649 0.465327 0.781910
#
# Coordination Sequence:
#
# PCOD9525122 Si02
#       8
#    16  16  16  16  16   4  16  16
#     4   9  16  27  46  74 109 144 179 214 263 332
#     4  10  19  33  50  79 109 145 185 227 278 332
#     4  10  21  37  56  78 110 148 191 238 283 330
#     4  10  21  37  56  81 108 144 192 240 283 334
#     4  10  17  34  53  75 106 146 184 228 267 337
#     4  12  20  30  48  76 102 146 180 224 280 314
#     4  10  19  31  55  80 106 144 188 229 283 330
#     4  10  19  31  50  74 108 141 181 222 273 326
#
# _framework density 19.470911000000001
#
# number of rings (size 3 to 8) (size 9 to 14) (size 15 to 20)
#    0.000    2.069    2.759    2.069    0.000    3.862 
#    0.000    0.000    0.000    2.483    1.793    2.897 
#    0.000    0.000    0.000    0.000    0.000    0.000 
#
# Total GULP energy -323323.656484 kJ/mol
# GULP energy per Si atom -5574.545801 kJ/mol
# Density = 1.942659 g / cm^3
# Si number density = 19.470911 Si / 1000 Ang^3
#
#
#
# Elastic Constant Matrix: (Units=GPa)
#
#
# Indices 1 2 3 4 5 6 
#
# 1 66.3104 16.4820 23.0741 0.0000 0.0000 0.0000
# 2 16.4820 54.1340 32.6845 0.0000 0.0000 0.0000
# 3 23.0741 32.6845 119.6667 0.0000 0.0000 0.0000
# 4 0.0000 0.0000 0.0000 -3.7802 0.0000 0.0000
# 5 0.0000 0.0000 0.0000 0.0000 2.4652 0.0000
# 6 0.0000 0.0000 0.0000 0.0000 0.0000 30.3205
#
#
#
# Elastic Compliance Matrix: (Units=1/GPa)
#
#
# Indices 1 2 3 4 5 6 
#
# 1 0.016787 -0.003780 -0.002204 0.000000 0.000000 0.000000
# 2 -0.003780 0.022972 -0.005545 0.000000 0.000000 0.000000
# 3 -0.002204 -0.005545 0.010296 0.000000 0.000000 0.000000
# 4 0.000000 0.000000 0.000000 -0.264539 0.000000 0.000000
# 5 0.000000 0.000000 0.000000 0.000000 0.405642 0.000000
# 6 0.000000 0.000000 0.000000 0.000000 0.000000 0.032981
#
#
# Mechanical properties :
#
#
# Convention : Reuss Voigt Hill
#
# Bulk Modulus (GPa) = 37.04358 42.73247 39.88803
# Shear Modulus (GPa) = 19.51621 16.99248 18.25435
#
# Velocity S-wave (km/s) = 3.16939 2.95737 3.06521
# Velocity P-wave (km/s) = 5.69735 5.80137 5.74959
#
# Compressibility (1/GPa) = 0.02699523
#
# Stress axis : x y z
#
# Youngs Moduli (GPa) = 59.56897 43.53175 97.12317
#
# Poissons Ratio (x) = 0.16456 0.21410
# Poissons Ratio (y) = 0.22518 0.53858
# Poissons Ratio (z) = 0.13132 0.24140
#
# Static dielectric constant tensor:
#      x y z
#    x 1.758100 0.000000 0.000000 
#    y 0.000000 1.670630 0.000000 
#    z 0.000000 0.000000 1.723630 
# 
# From -- ./inp_files/50986.got.cif
#   From: 2010.05.17/outbox.cif.g08.bks.cpg/sg72_26_cif.got.tgz:50986.got - 2010.06.03 17:03:01.
