data_PCOD9525188
_publ_section_title
;
Structure prediction by ZEFSAII (Michael W. Deem and Ramdas Pophale) SiO2 
 PCOD9525188
Probable space group: I B A M
;
_chemical_formula_sum "Si O2"
_cell_formula_units_Z 112
_cell_length_a 17.658528
_cell_length_b 21.430477
_cell_length_c 17.947703
_cell_angle_alpha 90.000000
_cell_angle_beta 90.000000
_cell_angle_gamma 90.000000
_cell_volume 6791.961418
_symmetry_space_group_name_H-M "I B A M"
_symmetry_group_IT_number 72
_symmetry_cell_setting 'orthorhombic'
loop_
_space_group_symop_operation_xyz
x,y,z
-x,-y,z
x,-y,1/2-z
-x,y,1/2-z
-x,-y,-z
x,y,-z
-x,y,1/2+z
x,-y,1/2+z
1/2+x,1/2+y,1/2+z
1/2-x,1/2-y,1/2+z
1/2+x,1/2-y,-z
1/2-x,1/2+y,-z
1/2-x,1/2-y,1/2-z
1/2+x,1/2+y,1/2-z
1/2-x,1/2+y,z
1/2+x,1/2-y,z
loop_
_atom_site_type_symbol
_atom_site_label
_atom_site_fract_x
_atom_site_fract_y
_atom_site_fract_z
Si Si1 0.252624 0.177073 0.336351
Si Si2 0.396842 0.287575 0.087770
Si Si3 0.711477 0.325282 0.173546
Si Si4 0.646886 0.856246 0.088352
Si Si5 0.096078 0.663510 0.587769
Si Si6 0.043016 0.788892 0.670647
Si Si7 0.483592 0.926688 0.664510
O O1 0.170875 0.175429 0.373746
O O2 0.272763 0.250863 0.331362
O O3 0.245228 0.152828 0.252533
O O4 0.319161 0.148107 0.385216
O O5 0.385932 0.213491 0.106788
O O6 0.477554 0.311366 0.115299
O O7 0.389393 0.291688 0.000000
O O8 0.764294 0.354899 0.110077
O O9 0.620225 0.329358 0.173029
O O10 0.599212 0.905085 0.137135
O O11 0.636795 0.866264 0.000000
O O12 0.093946 0.678658 0.500000
O O13 0.068208 0.722164 0.637062
O O14 0.040367 0.607991 0.608557
O O15 0.000000 0.782833 0.750000
O O16 0.500000 0.906344 0.750000
O O17 0.500000 0.000000 0.661005
#
# Coordination Sequence:
#
# PCOD9525188 Si02
#       7
#    16  16  16  16  16  16  16
#     4   9  17  29  44  64  90 126 164 199 237 284
#     4  10  18  28  44  67  96 127 162 202 240 285
#     4   9  18  29  45  65  90 127 164 197 237 286
#     4  10  20  33  48  67  94 128 163 203 247 287
#     4  11  21  31  47  68  94 128 164 204 245 285
#     4  11  19  29  46  69  97 130 167 197 238 289
#     4  11  23  37  53  71  92 125 168 206 244 288
#
# _framework density 16.490082000000001
#
# number of rings (size 3 to 8) (size 9 to 14) (size 15 to 20)
#    0.000    1.857    2.857    2.571    2.000    5.143 
#    0.000    0.000    0.000    0.000    0.000    0.000 
#    0.000    1.143    0.857    4.000    1.143    0.000 
#
# Total GULP energy -312066.925154 kJ/mol
# GULP energy per Si atom -5572.623663 kJ/mol
# Density = 1.645255 g / cm^3
# Si number density = 16.490082 Si / 1000 Ang^3
#
#
#
# Elastic Constant Matrix: (Units=GPa)
#
#
# Indices 1 2 3 4 5 6 
#
# 1 125.9651 13.5092 29.7084 0.0000 0.0000 0.0000
# 2 13.5092 15.7292 14.3327 0.0000 0.0000 0.0000
# 3 29.7084 14.3327 69.0218 0.0000 0.0000 0.0000
# 4 0.0000 0.0000 0.0000 10.0610 0.0000 0.0000
# 5 0.0000 0.0000 0.0000 0.0000 16.3369 0.0000
# 6 0.0000 0.0000 0.0000 0.0000 0.0000 4.1583
#
#
#
# Elastic Compliance Matrix: (Units=1/GPa)
#
#
# Indices 1 2 3 4 5 6 
#
# 1 0.009178 -0.005283 -0.002854 0.000000 0.000000 0.000000
# 2 -0.005283 0.081454 -0.014641 0.000000 0.000000 0.000000
# 3 -0.002854 -0.014641 0.018757 0.000000 0.000000 0.000000
# 4 0.000000 0.000000 0.000000 0.099394 0.000000 0.000000
# 5 0.000000 0.000000 0.000000 0.000000 0.061211 0.000000
# 6 0.000000 0.000000 0.000000 0.000000 0.000000 0.240482
#
#
# Mechanical properties :
#
#
# Convention : Reuss Voigt Hill
#
# Bulk Modulus (GPa) = 15.66535 36.20188 25.93362
# Shear Modulus (GPa) = 8.66089 16.32228 12.49159
#
# Velocity S-wave (km/s) = 2.29425 3.14956 2.75530
# Velocity P-wave (km/s) = 4.06677 5.93529 5.08755
#
# Compressibility (1/GPa) = 0.06383516
#
# Stress axis : x y z
#
# Youngs Moduli (GPa) = 108.95329 12.27690 53.31459
#
# Poissons Ratio (x) = 0.06485 0.15214
# Poissons Ratio (y) = 0.57556 0.78055
# Poissons Ratio (z) = 0.31090 0.17974
#
# Static dielectric constant tensor:
#      x y z
#    x 1.602180 0.000000 0.000000 
#    y 0.000000 1.528060 0.000000 
#    z 0.000000 0.000000 1.576620 
# 
# From -- ./inp_files/31903.got.cif
#   From: 2010.05.17/outbox.cif.g08.bks.cpg/sg72_16_cif.got.tgz:31903.got - 2010.06.03 17:03:01.
