data_PCOD9525180
_publ_section_title
;
Structure prediction by ZEFSAII (Michael W. Deem and Ramdas Pophale) SiO2 
 PCOD9525180
Probable space group: I B A M
;
_chemical_formula_sum "Si O2"
_cell_formula_units_Z 84
_cell_length_a 18.562527
_cell_length_b 5.588107
_cell_length_c 36.475087
_cell_angle_alpha 90.000000
_cell_angle_beta 90.000000
_cell_angle_gamma 90.000000
_cell_volume 3783.538418
_symmetry_space_group_name_H-M "I B A M"
_symmetry_group_IT_number 72
_symmetry_cell_setting 'orthorhombic'
loop_
_space_group_symop_operation_xyz
x,y,z
-x,-y,z
x,-y,1/2-z
-x,y,1/2-z
-x,-y,-z
x,y,-z
-x,y,1/2+z
x,-y,1/2+z
1/2+x,1/2+y,1/2+z
1/2-x,1/2-y,1/2+z
1/2+x,1/2-y,-z
1/2-x,1/2+y,-z
1/2-x,1/2-y,1/2-z
1/2+x,1/2+y,1/2-z
1/2-x,1/2+y,z
1/2+x,1/2-y,z
loop_
_atom_site_type_symbol
_atom_site_label
_atom_site_fract_x
_atom_site_fract_y
_atom_site_fract_z
Si Si1 0.500000 0.000000 0.750000
Si Si2 0.922569 0.728202 0.316631
Si Si3 0.102973 0.629997 0.957408
Si Si4 0.415126 0.726858 0.845175
Si Si5 0.747339 0.106170 0.409419
Si Si6 0.903509 0.131454 0.431380
O O1 0.448824 0.162629 0.775620
O O2 0.885631 0.487980 0.332863
O O3 0.999463 0.750802 0.337339
O O4 0.888424 0.989546 0.323387
O O5 0.174958 0.606567 0.932896
O O6 0.069448 0.366155 0.952366
O O7 0.066989 0.871276 0.941842
O O8 0.117489 0.669533 0.000000
O O9 0.408257 0.678883 0.888099
O O10 0.748453 0.356443 0.388138
O O11 0.816229 0.109451 0.436648
#
# Coordination Sequence:
#
# PCOD9525180 Si02
#       6
#     4  16  16  16  16  16
#     4   8  16  30  48  74  96 118 134 158 212 258
#     4   9  18  29  48  68  92 115 136 167 203 253
#     4  10  19  29  42  62  85 111 143 186 236 270
#     4   9  17  29  42  66  87 117 147 165 206 254
#     4   8  16  26  38  57  80 110 134 172 221 262
#     4  10  18  28  43  59  85 114 144 181 212 267
#
# _framework density 22.201439000000001
#
# number of rings (size 3 to 8) (size 9 to 14) (size 15 to 20)
#    0.000    3.048    0.000    1.714    0.000   12.952 
#    0.000    0.000    0.000    0.000    0.000   53.333 
#    0.000    0.000    0.000  817.714    0.000    0.000 
#
# Total GULP energy -233971.988117 kJ/mol
# GULP energy per Si atom -5570.761622 kJ/mol
# Density = 2.215091 g / cm^3
# Si number density = 22.201439 Si / 1000 Ang^3
#
#
#
# Elastic Constant Matrix: (Units=GPa)
#
#
# Indices 1 2 3 4 5 6 
#
# 1 48.1520 14.3192 0.7240 0.0000 0.0000 0.0000
# 2 14.3192 268.7285 38.1289 0.0000 0.0000 0.0000
# 3 0.7240 38.1289 105.9944 0.0000 0.0000 0.0000
# 4 0.0000 0.0000 0.0000 -4.1810 0.0000 0.0000
# 5 0.0000 0.0000 0.0000 0.0000 16.0003 0.0000
# 6 0.0000 0.0000 0.0000 0.0000 0.0000 22.4652
#
#
#
# Elastic Compliance Matrix: (Units=1/GPa)
#
#
# Indices 1 2 3 4 5 6 
#
# 1 0.021110 -0.001164 0.000274 0.000000 0.000000 0.000000
# 2 -0.001164 0.003986 -0.001426 0.000000 0.000000 0.000000
# 3 0.000274 -0.001426 0.009945 0.000000 0.000000 0.000000
# 4 0.000000 0.000000 0.000000 -0.239179 0.000000 0.000000
# 5 0.000000 0.000000 0.000000 0.000000 0.062499 0.000000
# 6 0.000000 0.000000 0.000000 0.000000 0.000000 0.044513
#
#
# Mechanical properties :
#
#
# Convention : Reuss Voigt Hill
#
# Bulk Modulus (GPa) = 32.88350 58.80212 45.84281
# Shear Modulus (GPa) = -60.70938 31.50376 -14.60281
#
# Velocity S-wave (km/s) = -5.23490 3.77104 -2.56743
# Velocity P-wave (km/s) = 4.65782 6.74568 3.45029
#
# Compressibility (1/GPa) = 0.03041039
#
# Stress axis : x y z
#
# Youngs Moduli (GPa) = 47.37197 250.90742 100.54831
#
# Poissons Ratio (x) = 0.29200 -0.02759
# Poissons Ratio (y) = 0.05513 0.14336
# Poissons Ratio (z) = -0.01300 0.35773
#
# Static dielectric constant tensor:
#      x y z
#    x 1.942880 0.000000 0.000000 
#    y 0.000000 1.980650 0.000000 
#    z 0.000000 0.000000 1.743730 
# 
# From -- ./inp_files/52550.got.cif
#   From: 2010.05.17/outbox.cif.g08.bks.cpg/sg72_27_cif.got.tgz:52550.got - 2010.06.03 17:03:01.
