data_PCOD9525189
_publ_section_title
;
Structure prediction by ZEFSAII (Michael W. Deem and Ramdas Pophale) SiO2 
 PCOD9525189
Probable space group: I B A M
;
_chemical_formula_sum "Si O2"
_cell_formula_units_Z 72
_cell_length_a 17.024556
_cell_length_b 28.188620
_cell_length_c 9.178096
_cell_angle_alpha 90.000000
_cell_angle_beta 90.000000
_cell_angle_gamma 90.000000
_cell_volume 4404.556704
_symmetry_space_group_name_H-M "I B A M"
_symmetry_group_IT_number 72
_symmetry_cell_setting 'orthorhombic'
loop_
_space_group_symop_operation_xyz
x,y,z
-x,-y,z
x,-y,1/2-z
-x,y,1/2-z
-x,-y,-z
x,y,-z
-x,y,1/2+z
x,-y,1/2+z
1/2+x,1/2+y,1/2+z
1/2-x,1/2-y,1/2+z
1/2+x,1/2-y,-z
1/2-x,1/2+y,-z
1/2-x,1/2-y,1/2-z
1/2+x,1/2+y,1/2-z
1/2-x,1/2+y,z
1/2+x,1/2-y,z
loop_
_atom_site_type_symbol
_atom_site_label
_atom_site_fract_x
_atom_site_fract_y
_atom_site_fract_z
Si Si1 0.375883 0.536230 0.000000
Si Si2 0.443540 0.431760 0.000000
Si Si3 0.896641 0.175636 0.500000
Si Si4 0.232466 0.150707 0.500000
Si Si5 0.000000 0.271488 0.750000
Si Si6 0.567787 0.293394 0.500000
Si Si7 0.155785 0.895585 0.745476
Si Si8 0.610549 0.210793 0.000000
O O1 0.335084 0.558680 0.858003
O O2 0.391953 0.480530 0.000000
O O3 0.464788 0.557307 0.000000
O O4 0.416550 0.405851 0.146299
O O5 0.863128 0.148353 0.639748
O O6 0.878019 0.231690 0.500000
O O7 0.991323 0.172595 0.500000
O O8 0.152357 0.182432 0.500000
O O9 0.225148 0.118477 0.644487
O O10 0.308399 0.183290 0.500000
O O11 0.052923 0.238720 0.643291
O O12 0.942219 0.299288 0.642524
#
# Coordination Sequence:
#
# PCOD9525189 Si02
#       8
#     8   8   8   8   8   8  16   8
#     4  10  20  33  45  64  97 136 182 207 246 280
#     4  10  20  31  48  65  92 141 178 213 236 288
#     4   9  20  32  47  65  97 130 171 209 247 288
#     4  11  22  30  49  70  99 124 163 215 266 286
#     4   8  18  34  50  62  86 124 170 198 240 308
#     4  10  18  28  44  68  88 126 161 203 254 287
#     4  10  21  30  44  71  93 130 169 218 241 276
#     4  10  20  38  49  70  92 127 165 209 259 315
#
# _framework density 16.346708
#
# number of rings (size 3 to 8) (size 9 to 14) (size 15 to 20)
#    0.000    2.444    0.000    4.000    9.333    5.333 
#    0.000    3.333    0.000    0.000    0.000    0.000 
#    0.000    0.000    0.000   48.000    0.000    7.111 
#
# Total GULP energy -200809.134100 kJ/mol
# GULP energy per Si atom -5578.031503 kJ/mol
# Density = 1.630950 g / cm^3
# Si number density = 16.346708 Si / 1000 Ang^3
#
#
#
# Elastic Constant Matrix: (Units=GPa)
#
#
# Indices 1 2 3 4 5 6 
#
# 1 60.7887 38.0070 35.0856 0.0000 0.0002 0.0000
# 2 38.0070 62.5761 36.8071 0.0000 0.0000 0.0000
# 3 35.0856 36.8071 133.6604 0.0008 0.0000 0.0001
# 4 0.0000 0.0000 0.0008 12.6536 0.0000 0.0000
# 5 0.0002 0.0000 0.0000 0.0000 9.0948 -0.0001
# 6 0.0000 0.0000 0.0001 0.0000 -0.0001 23.0835
#
#
#
# Elastic Compliance Matrix: (Units=1/GPa)
#
#
# Indices 1 2 3 4 5 6 
#
# 1 0.027580 -0.014908 -0.003135 0.000000 0.000000 0.000000
# 2 -0.014908 0.027127 -0.003557 0.000000 0.000000 0.000000
# 3 -0.003135 -0.003557 0.009284 -0.000001 0.000000 0.000000
# 4 0.000000 0.000000 -0.000001 0.079029 0.000000 0.000000
# 5 0.000000 0.000000 0.000000 0.000000 0.109953 0.000000
# 6 0.000000 0.000000 0.000000 0.000000 0.000000 0.043321
#
#
# Mechanical properties :
#
#
# Convention : Reuss Voigt Hill
#
# Bulk Modulus (GPa) = 48.09306 52.98050 50.53678
# Shear Modulus (GPa) = 14.43318 18.77475 16.60396
#
# Velocity S-wave (km/s) = 2.97466 3.39268 3.19052
# Velocity P-wave (km/s) = 6.42515 6.91577 6.67497
#
# Compressibility (1/GPa) = 0.02079302
#
# Stress axis : x y z
#
# Youngs Moduli (GPa) = 36.25755 36.86308 107.71261
#
# Poissons Ratio (x) = 0.54955 0.33763
# Poissons Ratio (y) = 0.54052 0.38313
# Poissons Ratio (z) = 0.11365 0.13112
#
# Static dielectric constant tensor:
#      x y z
#    x 1.509290 0.000000 0.000000 
#    y 0.000000 1.586500 0.000000 
#    z 0.000000 0.000000 1.604680 
# 
# From -- ./inp_files/4739.got.cif
#   From: 2010.05.17/outbox.cif.g08.bks.cpg/sg72_3_cif.got.tgz:4739.got - 2010.06.03 17:03:01.
