data_PCOD9525384
_publ_section_title
;
Structure prediction by ZEFSAII (Michael W. Deem and Ramdas Pophale) SiO2 
 PCOD9525384
Probable space group: I B A M
;
_chemical_formula_sum "Si O2"
_cell_formula_units_Z 104
_cell_length_a 23.199561
_cell_length_b 15.220649
_cell_length_c 14.755867
_cell_angle_alpha 90.000000
_cell_angle_beta 90.000000
_cell_angle_gamma 90.000000
_cell_volume 5210.479241
_symmetry_space_group_name_H-M "I B A M"
_symmetry_group_IT_number 72
_symmetry_cell_setting 'orthorhombic'
loop_
_space_group_symop_operation_xyz
x,y,z
-x,-y,z
x,-y,1/2-z
-x,y,1/2-z
-x,-y,-z
x,y,-z
-x,y,1/2+z
x,-y,1/2+z
1/2+x,1/2+y,1/2+z
1/2-x,1/2-y,1/2+z
1/2+x,1/2-y,-z
1/2-x,1/2+y,-z
1/2-x,1/2-y,1/2-z
1/2+x,1/2+y,1/2-z
1/2-x,1/2+y,z
1/2+x,1/2-y,z
loop_
_atom_site_type_symbol
_atom_site_label
_atom_site_fract_x
_atom_site_fract_y
_atom_site_fract_z
Si Si1 0.389269 0.392560 0.165921
Si Si2 0.195827 0.635913 0.389173
Si Si3 0.284306 0.059536 0.104636
Si Si4 0.149319 0.923227 0.633222
Si Si5 0.196107 0.748084 0.107714
Si Si6 0.500000 0.688130 0.250000
Si Si7 0.083944 0.254974 0.898619
O O1 0.380940 0.483548 0.112974
O O2 0.354206 0.407519 0.259044
O O3 0.359448 0.308877 0.120888
O O4 0.454086 0.371576 0.195866
O O5 0.200706 0.634043 0.500000
O O6 0.202838 0.536310 0.355389
O O7 0.248052 0.698513 0.357326
O O8 0.134161 0.678212 0.369443
O O9 0.215270 0.071931 0.104202
O O10 0.308739 0.149666 0.146613
O O11 0.304780 0.054957 0.000000
O O12 0.115422 0.839863 0.595807
O O13 0.205580 0.737163 0.000000
O O14 0.535176 0.744687 0.323125
O O15 0.063121 0.277661 0.000000
#
# Coordination Sequence:
#
# PCOD9525384 Si02
#       7
#    16  16  16  16  16   8  16
#     4  10  22  36  51  76 112 152 188 237 285 325
#     4   9  17  31  55  85 115 144 179 224 283 350
#     4  10  18  31  53  85 120 143 172 224 285 352
#     4  10  19  32  53  81 113 151 181 224 284 353
#     4  10  19  32  55  84 113 144 184 232 287 349
#     4  10  24  43  56  79 114 156 200 251 270 327
#     4  10  20  37  60  83 112 155 195 232 286 341
#
# _framework density 19.959776999999999
#
# number of rings (size 3 to 8) (size 9 to 14) (size 15 to 20)
#    0.000    2.154    3.077    0.462    0.000    6.769 
#    0.000    0.769    0.000    1.846    0.000    4.308 
#    0.000    0.000    0.000    0.000    0.000    0.000 
#
# Total GULP energy -290230.749990 kJ/mol
# GULP energy per Si atom -5581.360577 kJ/mol
# Density = 1.991435 g / cm^3
# Si number density = 19.959777 Si / 1000 Ang^3
#
#
#
# Elastic Constant Matrix: (Units=GPa)
#
#
# Indices 1 2 3 4 5 6 
#
# 1 84.7199 54.0721 15.0879 0.0000 0.0000 0.0000
# 2 54.0721 165.3667 23.2042 0.0000 0.0000 0.0000
# 3 15.0879 23.2042 47.2783 0.0000 0.0000 0.0000
# 4 0.0000 0.0000 0.0000 13.1197 0.0000 0.0000
# 5 0.0000 0.0000 0.0000 0.0000 18.8057 0.0000
# 6 0.0000 0.0000 0.0000 0.0000 0.0000 10.1605
#
#
#
# Elastic Compliance Matrix: (Units=1/GPa)
#
#
# Indices 1 2 3 4 5 6 
#
# 1 0.015207 -0.004609 -0.002591 0.000000 0.000000 0.000000
# 2 -0.004609 0.007891 -0.002402 0.000000 0.000000 0.000000
# 3 -0.002591 -0.002402 0.023157 0.000000 0.000000 0.000000
# 4 0.000000 0.000000 0.000000 0.076221 0.000000 0.000000
# 5 0.000000 0.000000 0.000000 0.000000 0.053175 0.000000
# 6 0.000000 0.000000 0.000000 0.000000 0.000000 0.098420
#
#
# Mechanical properties :
#
#
# Convention : Reuss Voigt Hill
#
# Bulk Modulus (GPa) = 36.96689 53.56593 45.26641
# Shear Modulus (GPa) = 16.54026 22.08389 19.31208
#
# Velocity S-wave (km/s) = 2.88180 3.32990 3.11392
# Velocity P-wave (km/s) = 5.44371 6.45597 5.97132
#
# Compressibility (1/GPa) = 0.02705123
#
# Stress axis : x y z
#
# Youngs Moduli (GPa) = 65.76130 126.72317 43.18312
#
# Poissons Ratio (x) = 0.58403 0.11188
# Poissons Ratio (y) = 0.30307 0.10374
# Poissons Ratio (z) = 0.17038 0.30442
#
# Static dielectric constant tensor:
#      x y z
#    x 1.654450 0.000000 0.000000 
#    y 0.000000 1.746590 0.000000 
#    z 0.000000 0.000000 1.453070 
# 
# From -- ./inp_files/32680.got.cif
#   From: 2010.05.17/outbox.cif.g08.bks.cpg/sg72_17_cif.got.tgz:32680.got - 2010.06.03 17:03:01.
