data_PCOD9525556
_publ_section_title
;
Structure prediction by ZEFSAII (Michael W. Deem and Ramdas Pophale) SiO2 
 PCOD9525556
Probable space group: I B A M
;
_chemical_formula_sum "Si O2"
_cell_formula_units_Z 112
_cell_length_a 19.190950
_cell_length_b 18.873854
_cell_length_c 18.149457
_cell_angle_alpha 90.000000
_cell_angle_beta 90.000000
_cell_angle_gamma 90.000000
_cell_volume 6573.863791
_symmetry_space_group_name_H-M "I B A M"
_symmetry_group_IT_number 72
_symmetry_cell_setting 'orthorhombic'
loop_
_space_group_symop_operation_xyz
x,y,z
-x,-y,z
x,-y,1/2-z
-x,y,1/2-z
-x,-y,-z
x,y,-z
-x,y,1/2+z
x,-y,1/2+z
1/2+x,1/2+y,1/2+z
1/2-x,1/2-y,1/2+z
1/2+x,1/2-y,-z
1/2-x,1/2+y,-z
1/2-x,1/2-y,1/2-z
1/2+x,1/2+y,1/2-z
1/2-x,1/2+y,z
1/2+x,1/2-y,z
loop_
_atom_site_type_symbol
_atom_site_label
_atom_site_fract_x
_atom_site_fract_y
_atom_site_fract_z
Si Si1 0.948553 0.433785 0.088412
Si Si2 0.452478 0.219731 0.849610
Si Si3 0.599506 0.746574 0.684685
Si Si4 0.809673 0.511936 0.336020
Si Si5 0.782571 0.646579 0.142897
Si Si6 0.724164 0.356624 0.191561
Si Si7 0.809935 0.741200 0.580597
O O1 0.969667 0.361646 0.129954
O O2 0.872251 0.451931 0.119807
O O3 0.000000 0.500000 0.103452
O O4 0.947166 0.422600 0.000000
O O5 0.420090 0.228239 0.767594
O O6 0.524875 0.261575 0.853534
O O7 0.391516 0.245205 0.903222
O O8 0.646719 0.807434 0.647122
O O9 0.647257 0.676346 0.685425
O O10 0.830834 0.500000 0.250000
O O11 0.795776 0.435527 0.370746
O O12 0.742450 0.563392 0.332229
O O13 0.748720 0.651680 0.224349
O O14 0.728916 0.684132 0.088537
O O15 0.773946 0.307809 0.141701
O O16 0.797892 0.710498 0.500000
#
# Coordination Sequence:
#
# PCOD9525556 Si02
#       7
#    16  16  16  16  16  16  16
#     4  11  23  36  49  74 116 153 179 218 270 333
#     4  11  19  33  53  79 103 146 182 222 272 326
#     4  10  19  32  56  78 107 135 184 230 271 310
#     4  10  20  33  57  80 107 142 179 224 275 324
#     4  10  18  35  53  82 108 135 178 231 268 320
#     4  10  18  36  54  80 106 140 182 228 268 323
#     4  11  20  33  54  77 107 146 183 221 271 325
#
# _framework density 17.037165000000002
#
# number of rings (size 3 to 8) (size 9 to 14) (size 15 to 20)
#    0.000    1.571    4.286    3.000    0.000    2.000 
#    0.000    7.143    0.000    0.857    0.000    1.000 
#    0.000    0.000    0.000    0.000    0.000    0.000 
#
# Total GULP energy -312335.923094 kJ/mol
# GULP energy per Si atom -5577.427198 kJ/mol
# Density = 1.699839 g / cm^3
# Si number density = 17.037165 Si / 1000 Ang^3
#
#
#
# Elastic Constant Matrix: (Units=GPa)
#
#
# Indices 1 2 3 4 5 6 
#
# 1 111.3905 25.2984 17.0336 0.0000 0.0000 0.0000
# 2 25.2984 42.9246 5.6263 0.0000 0.0000 0.0000
# 3 17.0336 5.6263 35.0775 0.0000 0.0000 0.0000
# 4 0.0000 0.0000 0.0000 0.2580 0.0000 0.0000
# 5 0.0000 0.0000 0.0000 0.0000 12.9188 0.0000
# 6 0.0000 0.0000 0.0000 0.0000 0.0000 23.6712
#
#
#
# Elastic Compliance Matrix: (Units=1/GPa)
#
#
# Indices 1 2 3 4 5 6 
#
# 1 0.010989 -0.005901 -0.004390 0.000000 0.000000 0.000000
# 2 -0.005901 0.026966 -0.001460 0.000000 0.000000 0.000000
# 3 -0.004390 -0.001460 0.030874 0.000000 0.000000 0.000000
# 4 0.000000 0.000000 0.000000 3.875908 0.000000 0.000000
# 5 0.000000 0.000000 0.000000 0.000000 0.077407 0.000000
# 6 0.000000 0.000000 0.000000 0.000000 0.000000 0.042245
#
#
# Mechanical properties :
#
#
# Convention : Reuss Voigt Hill
#
# Bulk Modulus (GPa) = 22.06144 31.70102 26.88123
# Shear Modulus (GPa) = 1.21862 16.79855 9.00858
#
# Velocity S-wave (km/s) = 0.84666 3.14346 2.30197
# Velocity P-wave (km/s) = 3.73268 5.64114 4.78306
#
# Compressibility (1/GPa) = 0.04532795
#
# Stress axis : x y z
#
# Youngs Moduli (GPa) = 91.00071 37.08386 32.38960
#
# Poissons Ratio (x) = 0.21884 0.14218
# Poissons Ratio (y) = 0.53701 0.04728
# Poissons Ratio (z) = 0.39947 0.05413
#
# Static dielectric constant tensor:
#      x y z
#    x 1.574260 0.000000 0.000000 
#    y 0.000000 1.597490 0.000000 
#    z 0.000000 0.000000 1.586870 
# 
# From -- ./inp_files/39222.got.cif
#   From: 2010.05.17/outbox.cif.g08.bks.cpg/sg72_20_cif.got.tgz:39222.got - 2010.06.03 17:03:01.
