data_PCOD9525950
_publ_section_title
;
Structure prediction by ZEFSAII (Michael W. Deem and Ramdas Pophale) SiO2 
 PCOD9525950
Probable space group: I B A M
;
_chemical_formula_sum "Si O2"
_cell_formula_units_Z 112
_cell_length_a 28.735270
_cell_length_b 14.808492
_cell_length_c 14.737974
_cell_angle_alpha 90.000000
_cell_angle_beta 90.000000
_cell_angle_gamma 90.000000
_cell_volume 6271.391359
_symmetry_space_group_name_H-M "I B A M"
_symmetry_group_IT_number 72
_symmetry_cell_setting 'orthorhombic'
loop_
_space_group_symop_operation_xyz
x,y,z
-x,-y,z
x,-y,1/2-z
-x,y,1/2-z
-x,-y,-z
x,y,-z
-x,y,1/2+z
x,-y,1/2+z
1/2+x,1/2+y,1/2+z
1/2-x,1/2-y,1/2+z
1/2+x,1/2-y,-z
1/2-x,1/2+y,-z
1/2-x,1/2-y,1/2-z
1/2+x,1/2+y,1/2-z
1/2-x,1/2+y,z
1/2+x,1/2-y,z
loop_
_atom_site_type_symbol
_atom_site_label
_atom_site_fract_x
_atom_site_fract_y
_atom_site_fract_z
Si Si1 0.718254 0.041312 0.890439
Si Si2 0.680290 0.463850 0.391774
Si Si3 0.226755 0.752554 0.651799
Si Si4 0.181004 0.640068 0.895487
Si Si5 0.869894 0.853716 0.108192
Si Si6 0.055019 0.890175 0.247576
Si Si7 0.120611 0.200406 0.389651
O O1 0.716097 0.148009 0.872744
O O2 0.769360 0.013665 0.855962
O O3 0.686076 0.959975 0.854549
O O4 0.716162 0.032873 0.000000
O O5 0.685431 0.455982 0.500000
O O6 0.644122 0.542175 0.376028
O O7 0.661366 0.368812 0.360157
O O8 0.250000 0.750000 0.750000
O O9 0.268842 0.807406 0.601973
O O10 0.177065 0.801038 0.637696
O O11 0.140613 0.703920 0.856092
O O12 0.167256 0.629447 0.000000
O O13 0.915539 0.844149 0.170257
O O14 0.877321 0.838828 0.000000
O O15 0.076006 0.842594 0.157839
O O16 0.000000 0.874015 0.250000
O O17 0.061187 0.000000 0.250000
O O18 0.116659 0.199259 0.500000
#
# Coordination Sequence:
#
# PCOD9525950 Si02
#       7
#    16  16  16  16  16  16  16
#     4  10  19  33  51  75 110 151 191 228 260 312
#     4   9  16  28  51  75 105 147 184 222 266 321
#     4  12  23  32  49  79 116 154 191 229 269 329
#     4  10  19  33  53  76 106 145 187 222 263 322
#     4  11  22  37  55  78 112 156 194 230 285 347
#     4  11  24  39  57  82 109 139 185 242 295 355
#     4  10  19  35  57  81 111 149 186 229 287 346
#
# _framework density 17.858875000000001
#
# number of rings (size 3 to 8) (size 9 to 14) (size 15 to 20)
#    0.000    1.571    4.286    2.143    0.000    1.143 
#    0.000    1.429    0.000    0.000    0.000    2.000 
#    0.000    4.571    0.000    0.000    0.000    0.000 
#
# Total GULP energy -311821.125653 kJ/mol
# GULP energy per Si atom -5568.234387 kJ/mol
# Density = 1.781823 g / cm^3
# Si number density = 17.858875 Si / 1000 Ang^3
#
#
#
# Elastic Constant Matrix: (Units=GPa)
#
#
# Indices 1 2 3 4 5 6 
#
# 1 102.8683 29.2793 37.6055 0.0000 0.0000 0.0000
# 2 29.2793 96.3479 24.0247 0.0000 0.0000 0.0000
# 3 37.6055 24.0247 74.4748 0.0000 0.0000 0.0000
# 4 0.0000 0.0000 0.0000 15.6590 0.0000 0.0000
# 5 0.0000 0.0000 0.0000 0.0000 16.4952 0.0000
# 6 0.0000 0.0000 0.0000 0.0000 0.0000 26.0531
#
#
#
# Elastic Compliance Matrix: (Units=1/GPa)
#
#
# Indices 1 2 3 4 5 6 
#
# 1 0.012413 -0.002403 -0.005493 0.000000 0.000000 0.000000
# 2 -0.002403 0.011752 -0.002578 0.000000 0.000000 0.000000
# 3 -0.005493 -0.002578 0.017033 0.000000 0.000000 0.000000
# 4 0.000000 0.000000 0.000000 0.063861 0.000000 0.000000
# 5 0.000000 0.000000 0.000000 0.000000 0.060624 0.000000
# 6 0.000000 0.000000 0.000000 0.000000 0.000000 0.038383
#
#
# Mechanical properties :
#
#
# Convention : Reuss Voigt Hill
#
# Bulk Modulus (GPa) = 49.38038 50.61223 49.99631
# Shear Modulus (GPa) = 21.57385 23.82690 22.70038
#
# Velocity S-wave (km/s) = 3.47943 3.65660 3.56911
# Velocity P-wave (km/s) = 6.62210 6.79921 6.71124
#
# Compressibility (1/GPa) = 0.02025096
#
# Stress axis : x y z
#
# Youngs Moduli (GPa) = 80.56066 85.09206 58.71124
#
# Poissons Ratio (x) = 0.20444 0.32249
# Poissons Ratio (y) = 0.19355 0.15135
# Poissons Ratio (z) = 0.44251 0.21936
#
# Static dielectric constant tensor:
#      x y z
#    x 1.608840 0.000000 0.000000 
#    y 0.000000 1.677050 0.000000 
#    z 0.000000 0.000000 1.682570 
# 
# From -- ./inp_files/22304.got.cif
#   From: 2010.05.17/outbox.cif.g08.bks.cpg/sg72_12_cif.got.tgz:22304.got - 2010.06.03 17:03:01.
