data_PCOD9525353
_publ_section_title
;
Structure prediction by ZEFSAII (Michael W. Deem and Ramdas Pophale) SiO2 
 PCOD9525353
Probable space group: I B A M
;
_chemical_formula_sum "Si O2"
_cell_formula_units_Z 112
_cell_length_a 28.825416
_cell_length_b 13.149084
_cell_length_c 18.185002
_cell_angle_alpha 90.000000
_cell_angle_beta 90.000000
_cell_angle_gamma 90.000000
_cell_volume 6892.621598
_symmetry_space_group_name_H-M "I B A M"
_symmetry_group_IT_number 72
_symmetry_cell_setting 'orthorhombic'
loop_
_space_group_symop_operation_xyz
x,y,z
-x,-y,z
x,-y,1/2-z
-x,y,1/2-z
-x,-y,-z
x,y,-z
-x,y,1/2+z
x,-y,1/2+z
1/2+x,1/2+y,1/2+z
1/2-x,1/2-y,1/2+z
1/2+x,1/2-y,-z
1/2-x,1/2+y,-z
1/2-x,1/2-y,1/2-z
1/2+x,1/2+y,1/2-z
1/2-x,1/2+y,z
1/2+x,1/2-y,z
loop_
_atom_site_type_symbol
_atom_site_label
_atom_site_fract_x
_atom_site_fract_y
_atom_site_fract_z
Si Si1 0.407817 0.399600 0.655678
Si Si2 0.999026 0.122261 0.914337
Si Si3 0.682642 0.673179 0.583543
Si Si4 0.410685 0.633686 0.674064
Si Si5 0.721257 0.936703 0.086099
Si Si6 0.315773 0.758187 0.681576
Si Si7 0.220798 0.355726 0.169689
O O1 0.448876 0.349801 0.608407
O O2 0.358867 0.350123 0.638131
O O3 0.401231 0.520497 0.641735
O O4 0.421142 0.383796 0.740214
O O5 0.957244 0.169275 0.867248
O O6 0.990601 0.139147 0.000000
O O7 0.000000 0.000000 0.900136
O O8 0.665644 0.670621 0.500000
O O9 0.724391 0.593065 0.591092
O O10 0.704191 0.780994 0.604948
O O11 0.365528 0.705186 0.671405
O O12 0.694276 0.837819 0.116096
O O13 0.713502 0.030944 0.140719
O O14 0.710878 0.957739 0.000000
O O15 0.274994 0.672550 0.683072
O O16 0.306995 0.821976 0.756968
#
# Coordination Sequence:
#
# PCOD9525353 Si02
#       7
#    16  16  16  16  16  16  16
#     4  10  18  31  49  73 103 134 169 207 249 305
#     4   9  18  31  47  70 101 136 167 201 249 303
#     4  10  19  31  49  73 100 132 171 209 252 303
#     4  10  19  31  49  73 102 135 169 206 251 301
#     4  10  21  34  49  72 103 138 172 212 256 301
#     4  10  20  33  51  75  99 136 175 210 252 306
#     4  10  19  34  50  71 101 135 172 213 252 296
#
# _framework density 16.24926
#
# number of rings (size 3 to 8) (size 9 to 14) (size 15 to 20)
#    0.000    2.143    1.429    2.571    0.000    3.429 
#    0.000    0.000    0.000    0.000    0.000    1.000 
#    0.000    3.429    0.000    0.000    0.000    0.000 
#
# Total GULP energy -312035.286159 kJ/mol
# GULP energy per Si atom -5572.058681 kJ/mol
# Density = 1.621228 g / cm^3
# Si number density = 16.249260 Si / 1000 Ang^3
#
#
#
# Elastic Constant Matrix: (Units=GPa)
#
#
# Indices 1 2 3 4 5 6 
#
# 1 86.8282 33.2755 32.9651 0.0000 0.0000 0.0000
# 2 33.2755 51.1472 20.5105 0.0000 0.0000 0.0000
# 3 32.9651 20.5105 62.1992 0.0000 0.0000 0.0000
# 4 0.0000 0.0000 0.0000 18.7705 0.0000 0.0000
# 5 0.0000 0.0000 0.0000 0.0000 20.3480 0.0000
# 6 0.0000 0.0000 0.0000 0.0000 0.0000 12.5617
#
#
#
# Elastic Compliance Matrix: (Units=1/GPa)
#
#
# Indices 1 2 3 4 5 6 
#
# 1 0.017227 -0.008696 -0.006263 0.000000 0.000000 0.000000
# 2 -0.008696 0.026921 -0.004268 0.000000 0.000000 0.000000
# 3 -0.006263 -0.004268 0.020804 0.000000 0.000000 0.000000
# 4 0.000000 0.000000 0.000000 0.053275 0.000000 0.000000
# 5 0.000000 0.000000 0.000000 0.000000 0.049145 0.000000
# 6 0.000000 0.000000 0.000000 0.000000 0.000000 0.079607
#
#
# Mechanical properties :
#
#
# Convention : Reuss Voigt Hill
#
# Bulk Modulus (GPa) = 37.73945 41.51966 39.62956
# Shear Modulus (GPa) = 16.99139 17.89760 17.44449
#
# Velocity S-wave (km/s) = 3.23719 3.32240 3.28007
# Velocity P-wave (km/s) = 6.10314 6.35019 6.22789
#
# Compressibility (1/GPa) = 0.02649747
#
# Stress axis : x y z
#
# Youngs Moduli (GPa) = 58.04679 37.14603 48.06758
#
# Poissons Ratio (x) = 0.32304 0.30103
# Poissons Ratio (y) = 0.50480 0.20516
# Poissons Ratio (z) = 0.36353 0.15855
#
# Static dielectric constant tensor:
#      x y z
#    x 1.542650 0.000000 0.000000 
#    y 0.000000 1.537640 0.000000 
#    z 0.000000 0.000000 1.567840 
# 
# From -- ./inp_files/40330.got.cif
#   From: 2010.05.17/outbox.cif.g08.bks.cpg/sg72_21_cif.got.tgz:40330.got - 2010.06.03 17:03:01.
