data_PCOD9525869
_publ_section_title
;
Structure prediction by ZEFSAII (Michael W. Deem and Ramdas Pophale) SiO2 
 PCOD9525869
Probable space group: I B A M
;
_chemical_formula_sum "Si O2"
_cell_formula_units_Z 96
_cell_length_a 8.981256
_cell_length_b 25.540446
_cell_length_c 20.600550
_cell_angle_alpha 90.000000
_cell_angle_beta 90.000000
_cell_angle_gamma 90.000000
_cell_volume 4725.463010
_symmetry_space_group_name_H-M "I B A M"
_symmetry_group_IT_number 72
_symmetry_cell_setting 'orthorhombic'
loop_
_space_group_symop_operation_xyz
x,y,z
-x,-y,z
x,-y,1/2-z
-x,y,1/2-z
-x,-y,-z
x,y,-z
-x,y,1/2+z
x,-y,1/2+z
1/2+x,1/2+y,1/2+z
1/2-x,1/2-y,1/2+z
1/2+x,1/2-y,-z
1/2-x,1/2+y,-z
1/2-x,1/2-y,1/2-z
1/2+x,1/2+y,1/2-z
1/2-x,1/2+y,z
1/2+x,1/2-y,z
loop_
_atom_site_type_symbol
_atom_site_label
_atom_site_fract_x
_atom_site_fract_y
_atom_site_fract_z
Si Si1 0.161615 0.540343 0.571735
Si Si2 0.921267 0.056732 0.314572
Si Si3 0.135348 0.565849 0.129259
Si Si4 0.769258 0.715710 0.078624
Si Si5 0.563444 0.619427 0.925622
Si Si6 0.601532 0.181521 0.421420
O O1 0.094219 0.549913 0.500000
O O2 0.197063 0.479250 0.580321
O O3 0.303331 0.576949 0.574450
O O4 0.041520 0.554412 0.626702
O O5 0.742085 0.055004 0.309496
O O6 0.000000 0.077119 0.250000
O O7 0.951163 0.095406 0.374311
O O8 0.000000 0.000000 0.326019
O O9 0.142134 0.625298 0.106272
O O10 0.641280 0.673589 0.095081
O O11 0.716908 0.773252 0.098822
O O12 0.933741 0.697993 0.099432
O O13 0.774040 0.715584 0.000000
O O14 0.507094 0.624725 0.000000
O O15 0.601539 0.178740 0.500000
#
# Coordination Sequence:
#
# PCOD9525869 Si02
#       6
#    16  16  16  16  16  16
#     4  10  19  33  57  91 123 147 185 248 303 352
#     4  11  25  43  58  82 125 164 198 246 301 364
#     4  11  20  34  58  82 111 161 198 237 293 361
#     4   9  19  33  51  83 123 155 187 240 298 356
#     4  10  20  37  60  88 120 153 194 247 300 353
#     4  10  19  32  52  84 123 156 189 237 302 359
#
# _framework density 20.315470000000001
#
# number of rings (size 3 to 8) (size 9 to 14) (size 15 to 20)
#    0.000    1.833    3.333    2.000    2.333    2.333 
#    0.000    0.833    0.000    1.000    0.000    0.000 
#    0.000    0.000    0.000    0.000    0.000    0.000 
#
# Total GULP energy -267583.543413 kJ/mol
# GULP energy per Si atom -5574.657154 kJ/mol
# Density = 2.026923 g / cm^3
# Si number density = 20.315470 Si / 1000 Ang^3
#
#
#
# Elastic Constant Matrix: (Units=GPa)
#
#
# Indices 1 2 3 4 5 6 
#
# 1 85.0038 31.0694 31.8069 0.0000 0.0000 0.0000
# 2 31.0694 157.0738 10.4126 0.0000 0.0000 0.0000
# 3 31.8069 10.4126 41.3419 0.0000 0.0001 0.0000
# 4 0.0000 0.0000 0.0000 7.0669 0.0000 0.0000
# 5 0.0000 0.0000 0.0001 0.0000 -0.2146 0.0000
# 6 0.0000 0.0000 0.0000 0.0000 0.0000 31.1257
#
#
#
# Elastic Compliance Matrix: (Units=1/GPa)
#
#
# Indices 1 2 3 4 5 6 
#
# 1 0.017516 -0.002615 -0.012818 0.000000 -0.000004 0.000000
# 2 -0.002615 0.006865 0.000283 0.000000 0.000000 0.000000
# 3 -0.012818 0.000283 0.033979 0.000000 0.000011 0.000000
# 4 0.000000 0.000000 0.000000 0.141505 0.000013 0.000000
# 5 -0.000004 0.000000 0.000011 0.000013 -4.660398 0.000001
# 6 0.000000 0.000000 0.000000 0.000000 0.000001 0.032128
#
#
# Mechanical properties :
#
#
# Convention : Reuss Voigt Hill
#
# Bulk Modulus (GPa) = 35.63768 47.77748 41.70758
# Shear Modulus (GPa) = -1.13928 21.60432 10.23252
#
# Velocity S-wave (km/s) = -0.74967 3.26458 2.24672
# Velocity P-wave (km/s) = 4.10254 6.14645 5.22540
#
# Compressibility (1/GPa) = 0.02806019
#
# Stress axis : x y z
#
# Youngs Moduli (GPa) = 57.09037 145.66778 29.43026
#
# Poissons Ratio (x) = 0.38092 0.37722
# Poissons Ratio (y) = 0.14929 -0.00832
# Poissons Ratio (z) = 0.73176 -0.04120
#
# Static dielectric constant tensor:
#      x y z
#    x 1.822100 0.000000 0.000000 
#    y 0.000000 1.728010 0.000000 
#    z 0.000000 0.000000 1.712200 
# 
# From -- ./inp_files/42548.got.cif
#   From: 2010.05.17/outbox.cif.g08.bks.cpg/sg72_22_cif.got.tgz:42548.got - 2010.06.03 17:03:01.
