data_PCOD9525081
_publ_section_title
;
Structure prediction by ZEFSAII (Michael W. Deem and Ramdas Pophale) SiO2 
 PCOD9525081
Probable space group: I B A M
;
_chemical_formula_sum "Si O2"
_cell_formula_units_Z 104
_cell_length_a 17.364465
_cell_length_b 15.248912
_cell_length_c 21.141651
_cell_angle_alpha 90.000000
_cell_angle_beta 90.000000
_cell_angle_gamma 90.000000
_cell_volume 5598.080828
_symmetry_space_group_name_H-M "I B A M"
_symmetry_group_IT_number 72
_symmetry_cell_setting 'orthorhombic'
loop_
_space_group_symop_operation_xyz
x,y,z
-x,-y,z
x,-y,1/2-z
-x,y,1/2-z
-x,-y,-z
x,y,-z
-x,y,1/2+z
x,-y,1/2+z
1/2+x,1/2+y,1/2+z
1/2-x,1/2-y,1/2+z
1/2+x,1/2-y,-z
1/2-x,1/2+y,-z
1/2-x,1/2-y,1/2-z
1/2+x,1/2+y,1/2-z
1/2-x,1/2+y,z
1/2+x,1/2-y,z
loop_
_atom_site_type_symbol
_atom_site_label
_atom_site_fract_x
_atom_site_fract_y
_atom_site_fract_z
Si Si1 0.899231 0.092054 0.641472
Si Si2 0.856004 0.904255 0.500000
Si Si3 0.092589 0.604581 0.247667
Si Si4 0.579940 0.599021 0.861980
Si Si5 0.665579 0.402607 0.000000
Si Si6 0.307819 0.247115 0.309619
Si Si7 0.182173 0.287030 0.500000
Si Si8 0.345851 0.220062 0.136067
O O1 0.880242 0.108305 0.566624
O O2 0.857839 0.165479 0.682681
O O3 0.990199 0.097552 0.652114
O O4 0.879133 0.991208 0.659211
O O5 0.908382 0.902368 0.437812
O O6 0.804673 0.817806 0.500000
O O7 0.810568 0.994957 0.500000
O O8 0.105706 0.500000 0.250000
O O9 0.137625 0.662424 0.300968
O O10 0.128754 0.643652 0.183095
O O11 0.000000 0.619821 0.250000
O O12 0.614389 0.690726 0.840260
O O13 0.740360 0.342548 0.000000
O O14 0.250000 0.250000 0.250000
O O15 0.244915 0.255164 0.365250
O O16 0.134825 0.304008 0.564152
#
# Coordination Sequence:
#
# PCOD9525081 Si02
#       8
#    16   8  16  16   8  16   8  16
#     4  10  18  32  52  82 109 146 181 228 284 340
#     4   8  17  30  47  79 111 148 177 214 272 338
#     4  10  22  41  61  78 105 153 204 244 280 329
#     4   9  18  31  54  79 113 141 181 226 278 345
#     4  10  17  30  53  77 115 150 183 220 278 350
#     4  10  21  35  54  79 108 141 186 232 278 334
#     4  10  18  34  52  83 120 145 182 226 292 348
#     4  10  20  36  57  83 114 150 185 236 288 344
#
# _framework density 18.577794999999998
#
# number of rings (size 3 to 8) (size 9 to 14) (size 15 to 20)
#    0.000    2.308    1.538    1.385    0.000    4.308 
#    2.769    2.308    0.000   10.154    0.000    0.000 
#    0.000    0.000    0.000    0.000    0.000    0.000 
#
# Total GULP energy -289552.071643 kJ/mol
# GULP energy per Si atom -5568.309070 kJ/mol
# Density = 1.853551 g / cm^3
# Si number density = 18.577795 Si / 1000 Ang^3
#
#
#
# Elastic Constant Matrix: (Units=GPa)
#
#
# Indices 1 2 3 4 5 6 
#
# 1 79.1560 67.5304 12.9159 0.0000 0.0000 0.0000
# 2 67.5304 151.3079 41.2566 0.0000 0.0000 0.0000
# 3 12.9159 41.2566 75.4472 0.0000 0.0000 0.0000
# 4 0.0000 0.0000 0.0000 27.6165 0.0000 0.0000
# 5 0.0000 0.0000 0.0000 0.0000 3.9939 0.0000
# 6 0.0000 0.0000 0.0000 0.0000 0.0000 34.4205
#
#
#
# Elastic Compliance Matrix: (Units=1/GPa)
#
#
# Indices 1 2 3 4 5 6 
#
# 1 0.020599 -0.009675 0.001764 0.000000 0.000000 0.000000
# 2 -0.009675 0.012311 -0.005076 0.000000 0.000000 0.000000
# 3 0.001764 -0.005076 0.015728 0.000000 0.000000 0.000000
# 4 0.000000 0.000000 0.000000 0.036210 0.000000 0.000000
# 5 0.000000 0.000000 0.000000 0.000000 0.250382 0.000000
# 6 0.000000 0.000000 0.000000 0.000000 0.000000 0.029052
#
#
# Mechanical properties :
#
#
# Convention : Reuss Voigt Hill
#
# Bulk Modulus (GPa) = 44.12060 61.03522 52.57791
# Shear Modulus (GPa) = 12.56880 25.48673 19.02777
#
# Velocity S-wave (km/s) = 2.60388 3.70792 3.20382
# Velocity P-wave (km/s) = 5.73070 7.15938 6.48451
#
# Compressibility (1/GPa) = 0.02266515
#
# Stress axis : x y z
#
# Youngs Moduli (GPa) = 48.54564 81.22882 63.58139
#
# Poissons Ratio (x) = 0.78586 -0.11215
# Poissons Ratio (y) = 0.46966 0.32272
# Poissons Ratio (z) = -0.08563 0.41229
#
# Static dielectric constant tensor:
#      x y z
#    x 1.657980 0.000000 0.000000 
#    y 0.000000 1.651140 0.000000 
#    z 0.000000 0.000000 1.731440 
# 
# From -- ./inp_files/44957.got.cif
#   From: 2010.05.17/outbox.cif.g08.bks.cpg/sg72_23_cif.got.tgz:44957.got - 2010.06.03 17:03:01.
