data_PCOD9525533
_publ_section_title
;
Structure prediction by ZEFSAII (Michael W. Deem and Ramdas Pophale) SiO2 
 PCOD9525533
Probable space group: I B A M
;
_chemical_formula_sum "Si O2"
_cell_formula_units_Z 72
_cell_length_a 27.297283
_cell_length_b 13.421110
_cell_length_c 9.147832
_cell_angle_alpha 90.000000
_cell_angle_beta 90.000000
_cell_angle_gamma 90.000000
_cell_volume 3351.398248
_symmetry_space_group_name_H-M "I B A M"
_symmetry_group_IT_number 72
_symmetry_cell_setting 'orthorhombic'
loop_
_space_group_symop_operation_xyz
x,y,z
-x,-y,z
x,-y,1/2-z
-x,y,1/2-z
-x,-y,-z
x,y,-z
-x,y,1/2+z
x,-y,1/2+z
1/2+x,1/2+y,1/2+z
1/2-x,1/2-y,1/2+z
1/2+x,1/2-y,-z
1/2-x,1/2+y,-z
1/2-x,1/2-y,1/2-z
1/2+x,1/2+y,1/2-z
1/2-x,1/2+y,z
1/2+x,1/2-y,z
loop_
_atom_site_type_symbol
_atom_site_label
_atom_site_fract_x
_atom_site_fract_y
_atom_site_fract_z
Si Si1 0.179098 0.775879 0.500000
Si Si2 0.965431 0.354876 0.500000
Si Si3 0.738795 0.000000 0.750000
Si Si4 0.397390 0.205905 0.259180
Si Si5 0.622959 0.320193 0.500000
Si Si6 0.787446 0.660082 0.500000
Si Si7 0.076421 0.425869 0.500000
Si Si8 0.308988 0.485730 0.000000
O O1 0.150097 0.727425 0.638301
O O2 0.238195 0.771198 0.500000
O O3 0.178082 0.897083 0.500000
O O4 0.944807 0.301387 0.640962
O O5 0.934243 0.458110 0.500000
O O6 0.022396 0.376973 0.500000
O O7 0.713899 0.916392 0.857779
O O8 0.776430 0.950620 0.636736
O O9 0.404144 0.295338 0.147319
O O10 0.397431 0.110581 0.148755
O O11 0.668603 0.239631 0.500000
O O12 0.641053 0.429835 0.500000
#
# Coordination Sequence:
#
# PCOD9525533 Si02
#       8
#     8   8   8  16   8   8   8   8
#     4   9  20  37  58  80 114 150 190 255 292 328
#     4  10  20  39  62  84 119 157 183 223 286 366
#     4   8  18  34  54  76 100 146 204 242 286 346
#     4  10  21  35  53  90 115 141 193 239 282 329
#     4  11  22  35  54  84 114 151 203 246 281 343
#     4  10  20  38  54  78 113 160 200 239 302 349
#     4  10  20  37  64  88 114 154 189 222 283 374
#     4  10  18  34  58  78 103 148 203 241 273 340
#
# _framework density 21.483571999999999
#
# number of rings (size 3 to 8) (size 9 to 14) (size 15 to 20)
#    0.000    2.444    0.000    4.000    0.000    5.333 
#    8.000    2.222    0.000    0.000    0.000   54.444 
#    0.000    0.000    0.000    0.000    0.000    0.000 
#
# Total GULP energy -200499.322833 kJ/mol
# GULP energy per Si atom -5569.425634 kJ/mol
# Density = 2.143467 g / cm^3
# Si number density = 21.483572 Si / 1000 Ang^3
#
#
#
# Elastic Constant Matrix: (Units=GPa)
#
#
# Indices 1 2 3 4 5 6 
#
# 1 66.5898 39.1845 36.1611 0.0000 0.0000 0.0000
# 2 39.1845 82.2863 37.1584 0.0000 0.0000 0.0000
# 3 36.1611 37.1584 169.7877 0.0000 0.0000 0.0000
# 4 0.0000 0.0000 0.0000 15.4821 0.0000 0.0000
# 5 0.0000 0.0000 0.0000 0.0000 -28.9928 0.0000
# 6 0.0000 0.0000 0.0000 0.0000 0.0000 36.9598
#
#
#
# Elastic Compliance Matrix: (Units=1/GPa)
#
#
# Indices 1 2 3 4 5 6 
#
# 1 0.021881 -0.009227 -0.002641 0.000000 0.000000 0.000000
# 2 -0.009227 0.017377 -0.001838 0.000000 0.000000 0.000000
# 3 -0.002641 -0.001838 0.006854 0.000000 0.000000 0.000000
# 4 0.000000 0.000000 0.000000 0.064591 0.000000 0.000000
# 5 0.000000 0.000000 0.000000 0.000000 -0.034491 0.000000
# 6 0.000000 0.000000 0.000000 0.000000 0.000000 0.027056
#
#
# Mechanical properties :
#
#
# Convention : Reuss Voigt Hill
#
# Bulk Modulus (GPa) = 53.47439 60.40797 56.94118
# Shear Modulus (GPa) = 36.51959 18.43379 27.47669
#
# Velocity S-wave (km/s) = 4.12744 2.93241 3.58014
# Velocity P-wave (km/s) = 6.90356 6.29640 6.60696
#
# Compressibility (1/GPa) = 0.01870054
#
# Stress axis : x y z
#
# Youngs Moduli (GPa) = 45.70153 57.54897 145.89325
#
# Poissons Ratio (x) = 0.53102 0.38528
# Poissons Ratio (y) = 0.42170 0.26811
# Poissons Ratio (z) = 0.12069 0.10576
#
# Static dielectric constant tensor:
#      x y z
#    x 1.802310 0.000000 0.000000 
#    y 0.000000 1.781080 0.000000 
#    z 0.000000 0.000000 1.785490 
# 
# From -- ./inp_files/8985.got.cif
#   From: 2010.05.17/outbox.cif.g08.bks.cpg/sg72_5_cif.got.tgz:8985.got - 2010.06.03 17:03:01.
