data_PCOD9525813
_publ_section_title
;
Structure prediction by ZEFSAII (Michael W. Deem and Ramdas Pophale) SiO2 
 PCOD9525813
Probable space group: I B A M
;
_chemical_formula_sum "Si O2"
_cell_formula_units_Z 96
_cell_length_a 20.933728
_cell_length_b 30.705994
_cell_length_c 8.849940
_cell_angle_alpha 90.000000
_cell_angle_beta 90.000000
_cell_angle_gamma 90.000000
_cell_volume 5688.661131
_symmetry_space_group_name_H-M "I B A M"
_symmetry_group_IT_number 72
_symmetry_cell_setting 'orthorhombic'
loop_
_space_group_symop_operation_xyz
x,y,z
-x,-y,z
x,-y,1/2-z
-x,y,1/2-z
-x,-y,-z
x,y,-z
-x,y,1/2+z
x,-y,1/2+z
1/2+x,1/2+y,1/2+z
1/2-x,1/2-y,1/2+z
1/2+x,1/2-y,-z
1/2-x,1/2+y,-z
1/2-x,1/2-y,1/2-z
1/2+x,1/2+y,1/2-z
1/2-x,1/2+y,z
1/2+x,1/2-y,z
loop_
_atom_site_type_symbol
_atom_site_label
_atom_site_fract_x
_atom_site_fract_y
_atom_site_fract_z
Si Si1 0.194567 0.280184 0.180768
Si Si2 0.251424 0.864631 0.680211
Si Si3 0.595404 0.544633 0.172592
Si Si4 0.248791 0.544922 0.325555
Si Si5 0.109219 0.860567 0.816988
Si Si6 0.064135 0.771125 0.680157
O O1 0.250000 0.250000 0.250000
O O2 0.202959 0.327359 0.254892
O O3 0.126672 0.257704 0.211926
O O4 0.202917 0.283016 0.000000
O O5 0.246190 0.861642 0.500000
O O6 0.271546 0.912770 0.732385
O O7 0.181419 0.857378 0.753848
O O8 0.574323 0.500000 0.250000
O O9 0.673290 0.544250 0.174974
O O10 0.580365 0.592768 0.235712
O O11 0.573714 0.543197 0.000000
O O12 0.227462 0.500000 0.250000
O O13 0.229197 0.548198 0.500000
O O14 0.073786 0.818391 0.755557
O O15 0.110952 0.861002 0.000000
O O16 0.058467 0.776097 0.500000
O O17 0.000000 0.751455 0.750000
#
# Coordination Sequence:
#
# PCOD9525813 Si02
#       6
#    16  16  16  16  16  16
#     4  11  22  36  55  79 105 136 175 218 264 315
#     4  11  20  30  48  75 104 137 175 214 260 310
#     4   8  15  25  40  64  91 124 161 204 254 301
#     4   9  16  27  42  65  99 136 170 209 257 308
#     4  10  19  32  50  71  99 132 171 216 261 308
#     4  11  24  39  56  77 102 135 174 214 266 320
#
# _framework density 16.875675999999999
#
# number of rings (size 3 to 8) (size 9 to 14) (size 15 to 20)
#    0.000    2.000    1.667    4.500    0.000    6.667 
#    0.000    0.000    0.000    0.500    0.000    3.500 
#    0.000    0.667    0.000    7.000    0.000    4.000 
#
# Total GULP energy -267904.333562 kJ/mol
# GULP energy per Si atom -5581.340283 kJ/mol
# Density = 1.683727 g / cm^3
# Si number density = 16.875676 Si / 1000 Ang^3
#
#
#
# Elastic Constant Matrix: (Units=GPa)
#
#
# Indices 1 2 3 4 5 6 
#
# 1 71.6863 49.4946 48.4742 0.0000 0.0000 0.0000
# 2 49.4946 130.3229 55.7525 0.0000 0.0000 0.0000
# 3 48.4742 55.7525 91.2914 0.0000 0.0000 0.0000
# 4 0.0000 0.0000 0.0000 32.3153 0.0000 0.0000
# 5 0.0000 0.0000 0.0000 0.0000 16.5456 0.0000
# 6 0.0000 0.0000 0.0000 0.0000 0.0000 4.2485
#
#
#
# Elastic Compliance Matrix: (Units=1/GPa)
#
#
# Indices 1 2 3 4 5 6 
#
# 1 0.023902 -0.004938 -0.009676 0.000000 0.000000 0.000000
# 2 -0.004938 0.011407 -0.004344 0.000000 0.000000 0.000000
# 3 -0.009676 -0.004344 0.018745 0.000000 0.000000 0.000000
# 4 0.000000 0.000000 0.000000 0.030945 0.000000 0.000000
# 5 0.000000 0.000000 0.000000 0.000000 0.060439 0.000000
# 6 0.000000 0.000000 0.000000 0.000000 0.000000 0.235376
#
#
# Mechanical properties :
#
#
# Convention : Reuss Voigt Hill
#
# Bulk Modulus (GPa) = 61.96852 66.74925 64.35889
# Shear Modulus (GPa) = 11.78939 19.92717 15.85828
#
# Velocity S-wave (km/s) = 2.64598 3.44004 3.06880
# Velocity P-wave (km/s) = 6.79229 7.44432 7.12577
#
# Compressibility (1/GPa) = 0.01613722
#
# Stress axis : x y z
#
# Youngs Moduli (GPa) = 41.83772 87.66337 53.34841
#
# Poissons Ratio (x) = 0.43291 0.51618
# Poissons Ratio (y) = 0.20661 0.23177
# Poissons Ratio (z) = 0.40481 0.38084
#
# Static dielectric constant tensor:
#      x y z
#    x 1.570420 0.000000 0.000000 
#    y 0.000000 1.593140 0.000000 
#    z 0.000000 0.000000 1.563720 
# 
# From -- ./inp_files/5974.got.cif
#   From: 2010.05.17/outbox.cif.g08.bks.cpg/sg72_3_cif.got.tgz:5974.got - 2010.06.03 17:03:01.
