data_PCOD9525275
_publ_section_title
;
Structure prediction by ZEFSAII (Michael W. Deem and Ramdas Pophale) SiO2 
 PCOD9525275
Probable space group: I B A M
;
_chemical_formula_sum "Si O2"
_cell_formula_units_Z 112
_cell_length_a 6.955663
_cell_length_b 26.895146
_cell_length_c 25.819489
_cell_angle_alpha 90.000000
_cell_angle_beta 90.000000
_cell_angle_gamma 90.000000
_cell_volume 4830.144032
_symmetry_space_group_name_H-M "I B A M"
_symmetry_group_IT_number 72
_symmetry_cell_setting 'orthorhombic'
loop_
_space_group_symop_operation_xyz
x,y,z
-x,-y,z
x,-y,1/2-z
-x,y,1/2-z
-x,-y,-z
x,y,-z
-x,y,1/2+z
x,-y,1/2+z
1/2+x,1/2+y,1/2+z
1/2-x,1/2-y,1/2+z
1/2+x,1/2-y,-z
1/2-x,1/2+y,-z
1/2-x,1/2-y,1/2-z
1/2+x,1/2+y,1/2-z
1/2-x,1/2+y,z
1/2+x,1/2-y,z
loop_
_atom_site_type_symbol
_atom_site_label
_atom_site_fract_x
_atom_site_fract_y
_atom_site_fract_z
Si Si1 0.268842 0.838819 0.736609
Si Si2 0.880783 0.615369 0.437834
Si Si3 0.383092 0.796463 0.367657
Si Si4 0.276712 0.945479 0.763463
Si Si5 0.719546 0.415326 0.382854
Si Si6 0.730670 0.989204 0.060966
Si Si7 0.669892 0.313792 0.651596
O O1 0.500000 0.838953 0.750000
O O2 0.255852 0.809240 0.683018
O O3 0.207319 0.896740 0.732053
O O4 0.158404 0.816129 0.785928
O O5 0.888264 0.616321 0.500000
O O6 0.820549 0.668340 0.414584
O O7 0.750920 0.568014 0.421505
O O8 0.091358 0.601888 0.415040
O O9 0.394898 0.737465 0.373782
O O10 0.599461 0.813200 0.355701
O O11 0.500000 0.948261 0.750000
O O12 0.262478 0.932078 0.823890
O O13 0.198299 0.000000 0.750000
O O14 0.660362 0.465959 0.411170
O O15 0.599971 0.364639 0.374976
O O16 0.500000 0.000000 0.067955
O O17 0.769871 0.991820 0.000000
#
# Coordination Sequence:
#
# PCOD9525275 Si02
#       7
#    16  16  16  16  16  16  16
#     4   8  15  27  40  61  88 118 145 177 217 268
#     4   9  17  27  41  62  86 117 151 182 223 269
#     4  10  18  30  47  61  92 116 152 184 224 255
#     4   9  16  19  31  58  88 114 141 169 221 272
#     4   9  16  25  39  57  90 114 142 178 227 266
#     4   8  14  23  38  58  81 111 141 169 215 272
#     4   9  18  30  44  68  87 120 147 185 217 271
#
# _framework density 23.187714
#
# number of rings (size 3 to 8) (size 9 to 14) (size 15 to 20)
#    0.000    3.143    0.000    4.286    8.000    0.000 
#    0.000    3.571    0.000    0.000    0.000    1.000 
#    0.000    3.714    0.000    0.000    0.000    0.000 
#
# Total GULP energy -312521.709896 kJ/mol
# GULP energy per Si atom -5580.744820 kJ/mol
# Density = 2.313494 g / cm^3
# Si number density = 23.187714 Si / 1000 Ang^3
#
#
#
# Elastic Constant Matrix: (Units=GPa)
#
#
# Indices 1 2 3 4 5 6 
#
# 1 71.7644 12.9931 8.3109 0.0000 0.0000 0.0000
# 2 12.9931 238.1194 91.6715 0.0000 0.0000 0.0000
# 3 8.3109 91.6715 86.8129 0.0000 0.0000 0.0000
# 4 0.0000 0.0000 0.0000 34.9467 0.0000 0.0000
# 5 0.0000 0.0000 0.0000 0.0000 10.8304 0.0000
# 6 0.0000 0.0000 0.0000 0.0000 0.0000 20.1602
#
#
#
# Elastic Compliance Matrix: (Units=1/GPa)
#
#
# Indices 1 2 3 4 5 6 
#
# 1 0.014116 -0.000421 -0.000907 0.000000 0.000000 0.000000
# 2 -0.000421 0.007089 -0.007445 0.000000 0.000000 0.000000
# 3 -0.000907 -0.007445 0.019468 0.000000 0.000000 0.000000
# 4 0.000000 0.000000 0.000000 0.028615 0.000000 0.000000
# 5 0.000000 0.000000 0.000000 0.000000 0.092333 0.000000
# 6 0.000000 0.000000 0.000000 0.000000 0.000000 0.049603
#
#
# Mechanical properties :
#
#
# Convention : Reuss Voigt Hill
#
# Bulk Modulus (GPa) = 43.24086 69.18306 56.21196
# Shear Modulus (GPa) = 21.14368 32.10221 26.62294
#
# Velocity S-wave (km/s) = 3.02296 3.72486 3.39211
# Velocity P-wave (km/s) = 5.55635 6.95703 6.29576
#
# Compressibility (1/GPa) = 0.02312627
#
# Stress axis : x y z
#
# Youngs Moduli (GPa) = 70.84293 141.06692 51.36707
#
# Poissons Ratio (x) = 0.05942 0.04657
# Poissons Ratio (y) = 0.02984 0.38244
# Poissons Ratio (z) = 0.06422 1.05028
#
# Static dielectric constant tensor:
#      x y z
#    x 1.987040 0.000000 0.000000 
#    y 0.000000 1.958910 0.000000 
#    z 0.000000 0.000000 1.812630 
# 
# From -- ./inp_files/48321.got.cif
#   From: 2010.05.17/outbox.cif.g08.bks.cpg/sg72_25_cif.got.tgz:48321.got - 2010.06.03 17:03:01.
