data_PCOD9525518
_publ_section_title
;
Structure prediction by ZEFSAII (Michael W. Deem and Ramdas Pophale) SiO2 
 PCOD9525518
Probable space group: I B A M
;
_chemical_formula_sum "Si O2"
_cell_formula_units_Z 104
_cell_length_a 11.676345
_cell_length_b 17.771092
_cell_length_c 20.804409
_cell_angle_alpha 90.000000
_cell_angle_beta 90.000000
_cell_angle_gamma 90.000000
_cell_volume 4316.944019
_symmetry_space_group_name_H-M "I B A M"
_symmetry_group_IT_number 72
_symmetry_cell_setting 'orthorhombic'
loop_
_space_group_symop_operation_xyz
x,y,z
-x,-y,z
x,-y,1/2-z
-x,y,1/2-z
-x,-y,-z
x,y,-z
-x,y,1/2+z
x,-y,1/2+z
1/2+x,1/2+y,1/2+z
1/2-x,1/2-y,1/2+z
1/2+x,1/2-y,-z
1/2-x,1/2+y,-z
1/2-x,1/2-y,1/2-z
1/2+x,1/2+y,1/2-z
1/2-x,1/2+y,z
1/2+x,1/2-y,z
loop_
_atom_site_type_symbol
_atom_site_label
_atom_site_fract_x
_atom_site_fract_y
_atom_site_fract_z
Si Si1 0.789564 0.500000 0.250000
Si Si2 0.670283 0.601024 0.658438
Si Si3 0.180537 0.737628 0.683650
Si Si4 0.394580 0.131933 0.072759
Si Si5 0.853332 0.041503 0.925506
Si Si6 0.112245 0.582566 0.362923
Si Si7 0.634328 0.296122 0.573404
O O1 0.708476 0.568252 0.272304
O O2 0.868046 0.479178 0.309068
O O3 0.616319 0.683445 0.669260
O O4 0.785973 0.619621 0.618192
O O5 0.619832 0.528980 0.620411
O O6 0.250000 0.750000 0.750000
O O7 0.109148 0.660878 0.678422
O O8 0.271199 0.720668 0.626875
O O9 0.500175 0.082974 0.094931
O O10 0.437310 0.219120 0.074420
O O11 0.359140 0.115179 0.000000
O O12 0.723570 0.068151 0.908004
O O13 0.918561 0.121384 0.915876
O O14 0.863907 0.019444 0.000000
O O15 0.682155 0.299419 0.500000
#
# Coordination Sequence:
#
# PCOD9525518 Si02
#       7
#     8  16  16  16  16  16  16
#     4  10  20  33  44  74 104 137 166 208 260 315
#     4  10  20  32  52  73 105 134 174 216 264 316
#     4  10  18  34  52  76 101 135 179 220 259 317
#     4  10  20  34  50  74 104 141 175 213 262 320
#     4   9  17  31  51  76 101 135 177 222 265 310
#     4  10  20  32  52  73 106 138 173 212 266 323
#     4   8  17  33  51  70 100 139 179 217 260 312
#
# _framework density 24.091117000000001
#
# number of rings (size 3 to 8) (size 9 to 14) (size 15 to 20)
#    0.000    2.462    1.538    0.923    0.000    4.923 
#    0.000    3.846    0.000    0.923    0.000    3.231 
#    0.000    0.000    0.000    0.000    0.000    0.000 
#
# Total GULP energy -290170.698585 kJ/mol
# GULP energy per Si atom -5580.205742 kJ/mol
# Density = 2.403628 g / cm^3
# Si number density = 24.091117 Si / 1000 Ang^3
#
#
#
# Elastic Constant Matrix: (Units=GPa)
#
#
# Indices 1 2 3 4 5 6 
#
# 1 28.9565 1.9984 0.0176 0.0000 0.0000 0.0000
# 2 1.9984 171.4240 15.8924 0.0000 0.0000 0.0000
# 3 0.0176 15.8924 82.0753 0.0000 0.0000 0.0000
# 4 0.0000 0.0000 0.0000 41.4107 0.0000 0.0000
# 5 0.0000 0.0000 0.0000 0.0000 1.0573 0.0000
# 6 0.0000 0.0000 0.0000 0.0000 0.0000 26.2414
#
#
#
# Elastic Compliance Matrix: (Units=1/GPa)
#
#
# Indices 1 2 3 4 5 6 
#
# 1 0.034563 -0.000410 0.000072 0.000000 0.000000 0.000000
# 2 -0.000410 0.005945 -0.001151 0.000000 0.000000 0.000000
# 3 0.000072 -0.001151 0.012407 0.000000 0.000000 0.000000
# 4 0.000000 0.000000 0.000000 0.024148 0.000000 0.000000
# 5 0.000000 0.000000 0.000000 0.000000 0.945832 0.000000
# 6 0.000000 0.000000 0.000000 0.000000 0.000000 0.038108
#
#
# Mechanical properties :
#
#
# Convention : Reuss Voigt Hill
#
# Bulk Modulus (GPa) = 20.02521 35.36365 27.69443
# Shear Modulus (GPa) = 4.62695 31.37836 18.00265
#
# Velocity S-wave (km/s) = 1.38736 3.61291 2.73660
# Velocity P-wave (km/s) = 3.30101 5.66703 4.63745
#
# Compressibility (1/GPa) = 0.04993704
#
# Stress axis : x y z
#
# Youngs Moduli (GPa) = 28.93284 168.20930 80.60102
#
# Poissons Ratio (x) = 0.06890 -0.00579
# Poissons Ratio (y) = 0.01185 0.09278
# Poissons Ratio (z) = -0.00208 0.19362
#
# Static dielectric constant tensor:
#      x y z
#    x 1.957930 0.000000 0.000000 
#    y 0.000000 2.063150 0.000000 
#    z 0.000000 0.000000 1.860930 
# 
# From -- ./inp_files/38287.got.cif
#   From: 2010.05.17/outbox.cif.g08.bks.cpg/sg72_20_cif.got.tgz:38287.got - 2010.06.03 17:03:01.
