data_PCOD9525888
_publ_section_title
;
Structure prediction by ZEFSAII (Michael W. Deem and Ramdas Pophale) SiO2 
 PCOD9525888
Probable space group: I B A M
;
_chemical_formula_sum "Si O2"
_cell_formula_units_Z 96
_cell_length_a 8.737120
_cell_length_b 27.259563
_cell_length_c 19.516225
_cell_angle_alpha 90.000000
_cell_angle_beta 90.000000
_cell_angle_gamma 90.000000
_cell_volume 4648.180734
_symmetry_space_group_name_H-M "I B A M"
_symmetry_group_IT_number 72
_symmetry_cell_setting 'orthorhombic'
loop_
_space_group_symop_operation_xyz
x,y,z
-x,-y,z
x,-y,1/2-z
-x,y,1/2-z
-x,-y,-z
x,y,-z
-x,y,1/2+z
x,-y,1/2+z
1/2+x,1/2+y,1/2+z
1/2-x,1/2-y,1/2+z
1/2+x,1/2-y,-z
1/2-x,1/2+y,-z
1/2-x,1/2-y,1/2-z
1/2+x,1/2+y,1/2-z
1/2-x,1/2+y,z
1/2+x,1/2-y,z
loop_
_atom_site_type_symbol
_atom_site_label
_atom_site_fract_x
_atom_site_fract_y
_atom_site_fract_z
Si Si1 0.306437 0.088415 0.579079
Si Si2 0.663144 0.107854 0.421880
Si Si3 0.624075 0.268168 0.154493
Si Si4 0.106819 0.682467 0.197186
Si Si5 0.821131 0.010948 0.580717
Si Si6 0.342198 0.309434 0.917650
O O1 0.248496 0.086911 0.500000
O O2 0.488755 0.088931 0.576114
O O3 0.238740 0.139779 0.606210
O O4 0.256664 0.037247 0.612303
O O5 0.708135 0.121483 0.500000
O O6 0.649147 0.153154 0.371140
O O7 0.770275 0.064289 0.393647
O O8 0.724787 0.295533 0.212819
O O9 0.509983 0.226529 0.181529
O O10 0.512321 0.304179 0.112802
O O11 0.741385 0.236996 0.107386
O O12 0.000000 0.652058 0.250000
O O13 0.774934 0.013892 0.500000
O O14 0.000000 0.000000 0.584189
O O15 0.346621 0.308656 0.000000
#
# Coordination Sequence:
#
# PCOD9525888 Si02
#       6
#    16  16  16  16  16  16
#     4   9  17  31  51  78 115 152 186 232 291 352
#     4  10  20  35  57  85 115 152 196 246 299 360
#     4  10  22  36  54  79 113 159 202 247 296 361
#     4  11  23  40  59  82 116 155 204 246 300 363
#     4   9  18  31  52  83 117 149 187 236 291 350
#     4  10  19  32  53  85 121 153 193 249 311 359
#
# _framework density 20.653241000000001
#
# number of rings (size 3 to 8) (size 9 to 14) (size 15 to 20)
#    0.000    2.167    1.667    1.500    2.333    5.333 
#    0.000    0.000    0.000    2.000    0.000    1.167 
#    0.000    0.000    0.000    0.000    0.000    0.000 
#
# Total GULP energy -267411.013528 kJ/mol
# GULP energy per Si atom -5571.062782 kJ/mol
# Density = 2.060623 g / cm^3
# Si number density = 20.653241 Si / 1000 Ang^3
#
#
#
# Elastic Constant Matrix: (Units=GPa)
#
#
# Indices 1 2 3 4 5 6 
#
# 1 96.1971 32.3547 21.8639 0.0000 0.0000 0.0000
# 2 32.3547 89.9831 29.2503 0.0000 0.0000 0.0000
# 3 21.8639 29.2503 40.2088 0.0001 0.0000 0.0000
# 4 0.0000 0.0000 0.0001 0.9991 0.0000 0.0000
# 5 0.0000 0.0000 0.0000 0.0000 25.2097 0.0000
# 6 0.0000 0.0000 0.0000 0.0000 0.0000 34.3189
#
#
#
# Elastic Compliance Matrix: (Units=1/GPa)
#
#
# Indices 1 2 3 4 5 6 
#
# 1 0.012442 -0.002979 -0.004599 0.000000 0.000000 0.000000
# 2 -0.002979 0.015268 -0.009487 0.000001 0.000000 0.000000
# 3 -0.004599 -0.009487 0.034272 -0.000003 0.000000 0.000000
# 4 0.000000 0.000001 -0.000003 1.000888 0.000001 0.000000
# 5 0.000000 0.000000 0.000000 0.000001 0.039667 0.000000
# 6 0.000000 0.000000 0.000000 0.000000 0.000000 0.029138
#
#
# Mechanical properties :
#
#
# Convention : Reuss Voigt Hill
#
# Bulk Modulus (GPa) = 35.90227 43.70297 39.80262
# Shear Modulus (GPa) = 4.25499 21.63355 12.94427
#
# Velocity S-wave (km/s) = 1.43690 3.23997 2.50620
# Velocity P-wave (km/s) = 4.49155 5.93320 5.26198
#
# Compressibility (1/GPa) = 0.02785339
#
# Stress axis : x y z
#
# Youngs Moduli (GPa) = 80.36998 65.49517 29.17814
#
# Poissons Ratio (x) = 0.19511 0.13418
# Poissons Ratio (y) = 0.23942 0.27682
# Poissons Ratio (z) = 0.36959 0.62137
#
# Static dielectric constant tensor:
#      x y z
#    x 1.776750 0.000000 0.000000 
#    y 0.000000 1.820940 0.000000 
#    z 0.000000 0.000000 1.824060 
# 
# From -- ./inp_files/35989.got.cif
#   From: 2010.05.17/outbox.cif.g08.bks.cpg/sg72_18_cif.got.tgz:35989.got - 2010.06.03 17:03:01.
