data_PCOD9525588
_publ_section_title
;
Structure prediction by ZEFSAII (Michael W. Deem and Ramdas Pophale) SiO2 
 PCOD9525588
Probable space group: I B A M
;
_chemical_formula_sum "Si O2"
_cell_formula_units_Z 68
_cell_length_a 12.915976
_cell_length_b 15.760580
_cell_length_c 14.083874
_cell_angle_alpha 90.000000
_cell_angle_beta 90.000000
_cell_angle_gamma 90.000000
_cell_volume 2866.959488
_symmetry_space_group_name_H-M "I B A M"
_symmetry_group_IT_number 72
_symmetry_cell_setting 'orthorhombic'
loop_
_space_group_symop_operation_xyz
x,y,z
-x,-y,z
x,-y,1/2-z
-x,y,1/2-z
-x,-y,-z
x,y,-z
-x,y,1/2+z
x,-y,1/2+z
1/2+x,1/2+y,1/2+z
1/2-x,1/2-y,1/2+z
1/2+x,1/2-y,-z
1/2-x,1/2+y,-z
1/2-x,1/2-y,1/2-z
1/2+x,1/2+y,1/2-z
1/2-x,1/2+y,z
1/2+x,1/2-y,z
loop_
_atom_site_type_symbol
_atom_site_label
_atom_site_fract_x
_atom_site_fract_y
_atom_site_fract_z
Si Si1 0.336366 0.422675 0.104371
Si Si2 0.900557 0.275276 0.705093
Si Si3 0.285584 0.779342 0.606578
Si Si4 0.500000 0.500000 0.750000
Si Si5 0.602433 0.040429 0.854729
O O1 0.312571 0.321468 0.108928
O O2 0.419259 0.449325 0.182590
O O3 0.221550 0.465364 0.111182
O O4 0.378429 0.441649 0.000000
O O5 0.834217 0.215696 0.637245
O O6 0.840994 0.311393 0.798439
O O7 0.924783 0.359744 0.647320
O O8 0.000000 0.232966 0.750000
O O9 0.306493 0.811137 0.500000
O O10 0.500000 0.000000 0.900385
O O11 0.606230 0.000000 0.750000
#
# Coordination Sequence:
#
# PCOD9525588 Si02
#       5
#    16  16  16   4  16
#     4  10  22  39  60  85 117 158 201 244 296 352
#     4  10  19  34  63  83 113 154 193 236 299 348
#     4   9  21  39  56  82 116 153 199 243 286 346
#     4  12  22  36  62  82 120 152 196 246 288 346
#     4  10  18  36  62  89 120 153 187 241 305 367
#
# _framework density 23.718506999999999
#
# number of rings (size 3 to 8) (size 9 to 14) (size 15 to 20)
#    0.000    2.118    3.529    0.353    1.647    1.412 
#    0.000    1.176    0.000    0.706    0.000    0.000 
#    0.000    0.000    0.000    0.000    0.000    0.000 
#
# Total GULP energy -189593.109870 kJ/mol
# GULP energy per Si atom -5576.267937 kJ/mol
# Density = 2.366452 g / cm^3
# Si number density = 23.718507 Si / 1000 Ang^3
#
#
#
# Elastic Constant Matrix: (Units=GPa)
#
#
# Indices 1 2 3 4 5 6 
#
# 1 125.7422 29.3711 29.8289 0.0000 0.0000 0.0000
# 2 29.3711 25.8179 11.0178 0.0000 0.0000 0.0000
# 3 29.8289 11.0178 127.1107 0.0000 0.0000 0.0000
# 4 0.0000 0.0000 0.0000 12.2343 0.0000 0.0000
# 5 0.0000 0.0000 0.0000 0.0000 -42.6537 0.0000
# 6 0.0000 0.0000 0.0000 0.0000 0.0000 7.2534
#
#
#
# Elastic Compliance Matrix: (Units=1/GPa)
#
#
# Indices 1 2 3 4 5 6 
#
# 1 0.011125 -0.011986 -0.001572 0.000000 0.000000 0.000000
# 2 -0.011986 0.053133 -0.001793 0.000000 0.000000 0.000000
# 3 -0.001572 -0.001793 0.008391 0.000000 0.000000 0.000000
# 4 0.000000 0.000000 0.000000 0.081738 0.000000 0.000000
# 5 0.000000 0.000000 0.000000 0.000000 -0.023445 0.000000
# 6 0.000000 0.000000 0.000000 0.000000 0.000000 0.137866
#
#
# Mechanical properties :
#
#
# Convention : Reuss Voigt Hill
#
# Bulk Modulus (GPa) = 23.83838 46.56737 35.20287
# Shear Modulus (GPa) = 15.94937 9.26367 12.60652
#
# Velocity S-wave (km/s) = 2.59597 1.97842 2.30794
# Velocity P-wave (km/s) = 4.36552 4.98947 4.68789
#
# Compressibility (1/GPa) = 0.04194916
#
# Stress axis : x y z
#
# Youngs Moduli (GPa) = 89.88525 18.82064 119.16921
#
# Poissons Ratio (x) = 0.22558 0.18732
# Poissons Ratio (y) = 1.07733 0.21365
# Poissons Ratio (z) = 0.14129 0.03374
#
# Static dielectric constant tensor:
#      x y z
#    x 1.990580 0.000000 0.000000 
#    y 0.000000 1.906600 0.000000 
#    z 0.000000 0.000000 1.862260 
# 
# From -- ./inp_files/19936.got.cif
#   From: 2010.05.17/outbox.cif.g08.bks.cpg/sg72_10_cif.got.tgz:19936.got - 2010.06.03 17:03:01.
