data_PCOD9525594
_publ_section_title
;
Structure prediction by ZEFSAII (Michael W. Deem and Ramdas Pophale) SiO2 
 PCOD9525594
Probable space group: I B A M
;
_chemical_formula_sum "Si O2"
_cell_formula_units_Z 104
_cell_length_a 9.538598
_cell_length_b 19.777841
_cell_length_c 29.125869
_cell_angle_alpha 90.000000
_cell_angle_beta 90.000000
_cell_angle_gamma 90.000000
_cell_volume 5494.678912
_symmetry_space_group_name_H-M "I B A M"
_symmetry_group_IT_number 72
_symmetry_cell_setting 'orthorhombic'
loop_
_space_group_symop_operation_xyz
x,y,z
-x,-y,z
x,-y,1/2-z
-x,y,1/2-z
-x,-y,-z
x,y,-z
-x,y,1/2+z
x,-y,1/2+z
1/2+x,1/2+y,1/2+z
1/2-x,1/2-y,1/2+z
1/2+x,1/2-y,-z
1/2-x,1/2+y,-z
1/2-x,1/2-y,1/2-z
1/2+x,1/2+y,1/2-z
1/2-x,1/2+y,z
1/2+x,1/2-y,z
loop_
_atom_site_type_symbol
_atom_site_label
_atom_site_fract_x
_atom_site_fract_y
_atom_site_fract_z
Si Si1 0.777872 0.754136 0.361428
Si Si2 0.770312 0.114093 0.406533
Si Si3 0.120276 0.405334 0.500000
Si Si4 0.014439 0.426417 0.343001
Si Si5 0.500000 0.500000 0.606648
Si Si6 0.766186 0.902119 0.398829
Si Si7 0.531106 0.789034 0.300948
Si Si8 0.304247 0.064156 0.500000
O O1 0.707843 0.689881 0.386942
O O2 0.786590 0.822603 0.390680
O O3 0.685447 0.770332 0.316764
O O4 0.929633 0.736898 0.341439
O O5 0.689792 0.123000 0.454315
O O6 0.660557 0.082235 0.369969
O O7 0.898184 0.060709 0.413569
O O8 0.156059 0.485241 0.500000
O O9 0.953036 0.397026 0.500000
O O10 0.992036 0.369074 0.305496
O O11 0.000000 0.500000 0.322589
O O12 0.889622 0.418485 0.380543
O O13 0.379590 0.550063 0.627028
O O14 0.775237 0.919627 0.452815
O O15 0.500000 0.764451 0.250000
#
# Coordination Sequence:
#
# PCOD9525594 Si02
#       8
#    16  16   8  16   8  16  16   8
#     4  10  23  41  60  90 124 154 198 249 303 364
#     4  11  22  36  60  86 119 163 204 245 296 347
#     4  11  20  35  60  82 114 157 213 242 280 343
#     4  10  18  37  58  84 112 156 203 236 286 361
#     4  12  22  35  56  88 121 152 202 254 305 348
#     4  11  22  36  60  86 119 163 204 245 296 347
#     4  10  21  38  64  88 114 152 193 244 303 368
#     4  11  20  35  60  82 114 157 213 242 280 343
#
# _framework density 18.927403999999999
#
# number of rings (size 3 to 8) (size 9 to 14) (size 15 to 20)
#    0.000    1.385    4.615    1.385    0.000    2.154 
#    0.000    0.000    0.000    0.000    0.000    6.462 
#    0.000    0.000    0.000    0.000    0.000    0.000 
#
# Total GULP energy -289562.238155 kJ/mol
# GULP energy per Si atom -5568.504580 kJ/mol
# Density = 1.888432 g / cm^3
# Si number density = 18.927404 Si / 1000 Ang^3
#
#
#
# Elastic Constant Matrix: (Units=GPa)
#
#
# Indices 1 2 3 4 5 6 
#
# 1 70.4616 19.3085 -4.0744 0.0000 0.0000 0.0000
# 2 19.3085 127.4628 11.4957 0.0000 0.0000 0.0000
# 3 -4.0744 11.4957 51.7664 0.0000 0.0000 0.0000
# 4 0.0000 0.0000 0.0000 -24.8076 0.0000 0.0000
# 5 0.0000 0.0000 0.0000 0.0000 6.4696 0.0000
# 6 0.0000 0.0000 0.0000 0.0000 0.0000 21.6920
#
#
#
# Elastic Compliance Matrix: (Units=1/GPa)
#
#
# Indices 1 2 3 4 5 6 
#
# 1 0.014954 -0.002420 0.001714 0.000000 0.000000 0.000000
# 2 -0.002420 0.008397 -0.002055 0.000000 0.000000 0.000000
# 3 0.001714 -0.002055 0.019909 0.000000 0.000000 0.000000
# 4 0.000000 0.000000 0.000000 -0.040310 0.000000 0.000000
# 5 0.000000 0.000000 0.000000 0.000000 0.154568 0.000000
# 6 0.000000 0.000000 0.000000 0.000000 0.000000 0.046100
#
#
# Mechanical properties :
#
#
# Convention : Reuss Voigt Hill
#
# Bulk Modulus (GPa) = 26.49776 33.68337 30.09057
# Shear Modulus (GPa) = 22.55100 15.53488 19.04294
#
# Velocity S-wave (km/s) = 3.45548 2.86800 3.17536
# Velocity P-wave (km/s) = 5.47271 5.36675 5.41999
#
# Compressibility (1/GPa) = 0.03773904
#
# Stress axis : x y z
#
# Youngs Moduli (GPa) = 66.86993 119.08497 50.22885
#
# Poissons Ratio (x) = 0.28818 -0.08611
# Poissons Ratio (y) = 0.16182 0.10323
# Poissons Ratio (z) = -0.11464 0.24475
#
# Static dielectric constant tensor:
#      x y z
#    x 1.675740 0.000000 0.000000 
#    y 0.000000 1.681840 0.000000 
#    z 0.000000 0.000000 1.616880 
# 
# From -- ./inp_files/50939.got.cif
#   From: 2010.05.17/outbox.cif.g08.bks.cpg/sg72_26_cif.got.tgz:50939.got - 2010.06.03 17:03:01.
