data_PCOD9525243
_publ_section_title
;
Structure prediction by ZEFSAII (Michael W. Deem and Ramdas Pophale) SiO2 
 PCOD9525243
Probable space group: I B A M
;
_chemical_formula_sum "Si O2"
_cell_formula_units_Z 96
_cell_length_a 22.358186
_cell_length_b 22.378322
_cell_length_c 8.533548
_cell_angle_alpha 90.000000
_cell_angle_beta 90.000000
_cell_angle_gamma 90.000000
_cell_volume 4269.664190
_symmetry_space_group_name_H-M "I B A M"
_symmetry_group_IT_number 72
_symmetry_cell_setting 'orthorhombic'
loop_
_space_group_symop_operation_xyz
x,y,z
-x,-y,z
x,-y,1/2-z
-x,y,1/2-z
-x,-y,-z
x,y,-z
-x,y,1/2+z
x,-y,1/2+z
1/2+x,1/2+y,1/2+z
1/2-x,1/2-y,1/2+z
1/2+x,1/2-y,-z
1/2-x,1/2+y,-z
1/2-x,1/2-y,1/2-z
1/2+x,1/2+y,1/2-z
1/2-x,1/2+y,z
1/2+x,1/2-y,z
loop_
_atom_site_type_symbol
_atom_site_label
_atom_site_fract_x
_atom_site_fract_y
_atom_site_fract_z
Si Si1 0.098167 0.562864 0.312706
Si Si2 0.263165 0.927396 0.821735
Si Si3 0.436108 0.326365 0.188290
Si Si4 0.136276 0.937566 0.682244
Si Si5 0.417148 0.191063 0.176070
Si Si6 0.274500 0.809258 0.322591
O O1 0.072245 0.500000 0.250000
O O2 0.096823 0.562292 0.500000
O O3 0.169033 0.561423 0.263616
O O4 0.071223 0.626513 0.256406
O O5 0.207606 0.943062 0.712222
O O6 0.259604 0.856700 0.810323
O O7 0.256285 0.948838 0.000000
O O8 0.500000 0.348502 0.250000
O O9 0.388002 0.376040 0.241863
O O10 0.431264 0.256832 0.246923
O O11 0.433731 0.323275 0.000000
O O12 0.123431 0.934778 0.500000
O O13 0.110345 0.000000 0.750000
O O14 0.345628 0.193318 0.164632
O O15 0.443264 0.188457 0.000000
O O16 0.251491 0.822249 0.500000
O O17 0.250000 0.750000 0.250000
#
# Coordination Sequence:
#
# PCOD9525243 Si02
#       6
#    16  16  16  16  16  16
#     4  10  20  33  55  86 123 162 199 235 278 336
#     4  10  20  34  52  80 118 159 198 237 281 338
#     4  11  24  44  67  90 115 147 190 245 303 358
#     4  12  25  41  62  88 118 155 197 243 293 349
#     4   9  20  37  57  81 113 150 190 235 286 342
#     4  10  18  29  48  76 111 152 193 236 283 338
#
# _framework density 22.484204999999999
#
# number of rings (size 3 to 8) (size 9 to 14) (size 15 to 20)
#    0.000    1.667    0.000    5.000    0.000    7.000 
#    0.000    1.667    0.000    0.500    0.000    3.500 
#    0.000    0.000    0.000    0.000    0.000    0.000 
#
# Total GULP energy -267567.225423 kJ/mol
# GULP energy per Si atom -5574.317196 kJ/mol
# Density = 2.243303 g / cm^3
# Si number density = 22.484205 Si / 1000 Ang^3
#
#
#
# Elastic Constant Matrix: (Units=GPa)
#
#
# Indices 1 2 3 4 5 6 
#
# 1 58.8769 38.0326 33.6037 0.0000 0.0000 0.0000
# 2 38.0326 176.5267 31.4150 0.0000 0.0000 0.0000
# 3 33.6037 31.4150 69.8471 0.0000 0.0000 0.0000
# 4 0.0000 0.0000 0.0000 34.2380 0.0000 0.0000
# 5 0.0000 0.0000 0.0000 0.0000 2.9423 0.0000
# 6 0.0000 0.0000 0.0000 0.0000 0.0000 -1.5621
#
#
#
# Elastic Compliance Matrix: (Units=1/GPa)
#
#
# Indices 1 2 3 4 5 6 
#
# 1 0.025332 -0.003575 -0.010579 0.000000 0.000000 0.000000
# 2 -0.003575 0.006662 -0.001277 0.000000 0.000000 0.000000
# 3 -0.010579 -0.001277 0.019981 0.000000 0.000000 0.000000
# 4 0.000000 0.000000 0.000000 0.029207 0.000000 0.000000
# 5 0.000000 0.000000 0.000000 0.000000 0.339866 0.000000
# 6 0.000000 0.000000 0.000000 0.000000 0.000000 -0.640166
#
#
# Mechanical properties :
#
#
# Convention : Reuss Voigt Hill
#
# Bulk Modulus (GPa) = 47.36343 56.81701 52.09022
# Shear Modulus (GPa) = -27.59111 20.60361 -3.49375
#
# Velocity S-wave (km/s) = -3.50685 3.03043 -1.24789
# Velocity P-wave (km/s) = 2.17109 6.12938 4.59798
#
# Compressibility (1/GPa) = 0.02111333
#
# Stress axis : x y z
#
# Youngs Moduli (GPa) = 39.47560 150.09881 50.04772
#
# Poissons Ratio (x) = 0.53661 0.52948
# Poissons Ratio (y) = 0.14113 0.06389
# Poissons Ratio (z) = 0.41763 0.19160
#
# Static dielectric constant tensor:
#      x y z
#    x 1.835840 0.000000 0.000000 
#    y 0.000000 1.828420 0.000000 
#    z 0.000000 0.000000 1.822570 
# 
# From -- ./inp_files/8071.got.cif
#   From: 2010.05.17/outbox.cif.g08.bks.cpg/sg72_5_cif.got.tgz:8071.got - 2010.06.03 17:03:01.
