data_PCOD9525287
_publ_section_title
;
Structure prediction by ZEFSAII (Michael W. Deem and Ramdas Pophale) SiO2 
 PCOD9525287
Probable space group: I B A M
;
_chemical_formula_sum "Si O2"
_cell_formula_units_Z 96
_cell_length_a 14.644301
_cell_length_b 22.881631
_cell_length_c 15.148545
_cell_angle_alpha 90.000000
_cell_angle_beta 90.000000
_cell_angle_gamma 90.000000
_cell_volume 5076.057650
_symmetry_space_group_name_H-M "I B A M"
_symmetry_group_IT_number 72
_symmetry_cell_setting 'orthorhombic'
loop_
_space_group_symop_operation_xyz
x,y,z
-x,-y,z
x,-y,1/2-z
-x,y,1/2-z
-x,-y,-z
x,y,-z
-x,y,1/2+z
x,-y,1/2+z
1/2+x,1/2+y,1/2+z
1/2-x,1/2-y,1/2+z
1/2+x,1/2-y,-z
1/2-x,1/2+y,-z
1/2-x,1/2-y,1/2-z
1/2+x,1/2+y,1/2-z
1/2-x,1/2+y,z
1/2+x,1/2-y,z
loop_
_atom_site_type_symbol
_atom_site_label
_atom_site_fract_x
_atom_site_fract_y
_atom_site_fract_z
Si Si1 0.892603 0.689375 0.734065
Si Si2 0.427835 0.712556 0.401787
Si Si3 0.143515 0.243066 0.900359
Si Si4 0.134447 0.023899 0.900064
Si Si5 0.768593 0.628376 0.604285
Si Si6 0.955253 0.913510 0.344204
O O1 0.885312 0.747289 0.672986
O O2 0.845667 0.707365 0.826177
O O3 0.847617 0.639233 0.675089
O O4 0.000000 0.678228 0.750000
O O5 0.396934 0.729458 0.500000
O O6 0.537029 0.723727 0.396693
O O7 0.413364 0.644514 0.384364
O O8 0.201713 0.184461 0.884956
O O9 0.162309 0.263896 0.000000
O O10 0.213570 0.069090 0.876385
O O11 0.041127 0.061874 0.899004
O O12 0.115028 0.967263 0.840848
O O13 0.149850 0.002881 0.000000
O O14 0.795945 0.627287 0.500000
O O15 0.000000 0.899629 0.250000
#
# Coordination Sequence:
#
# PCOD9525287 Si02
#       6
#    16  16  16  16  16  16
#     4  10  20  32  48  73 102 140 181 222 270 319
#     4  10  18  30  48  72 107 148 187 220 256 313
#     4   9  17  30  47  68  96 138 180 217 263 315
#     4  10  19  30  47  69  99 141 182 219 260 314
#     4  10  19  32  49  70  99 137 179 222 270 319
#     4  11  19  30  47  75 107 144 185 213 256 315
#
# _framework density 18.912316000000001
#
# number of rings (size 3 to 8) (size 9 to 14) (size 15 to 20)
#    0.000    2.000    1.667    5.500    0.000    0.667 
#    0.000    0.000    0.000    0.000    0.000    1.167 
#    0.000    2.667    0.000   14.667   10.667    0.000 
#
# Total GULP energy -267986.702166 kJ/mol
# GULP energy per Si atom -5583.056295 kJ/mol
# Density = 1.886927 g / cm^3
# Si number density = 18.912316 Si / 1000 Ang^3
#
#
#
# Elastic Constant Matrix: (Units=GPa)
#
#
# Indices 1 2 3 4 5 6 
#
# 1 46.9773 29.0132 28.1380 0.0000 0.0000 0.0000
# 2 29.0132 62.5572 21.6309 0.0000 0.0001 0.0000
# 3 28.1380 21.6309 98.3341 0.0000 0.0002 0.0000
# 4 0.0000 0.0000 0.0000 10.3059 0.0001 0.0000
# 5 0.0000 0.0001 0.0002 0.0001 -24.8264 0.0000
# 6 0.0000 0.0000 0.0000 0.0000 0.0000 23.8151
#
#
#
# Elastic Compliance Matrix: (Units=1/GPa)
#
#
# Indices 1 2 3 4 5 6 
#
# 1 0.033430 -0.013201 -0.006662 0.000000 0.000000 0.000000
# 2 -0.013201 0.022514 -0.001175 0.000000 0.000000 0.000000
# 3 -0.006662 -0.001175 0.012334 0.000000 0.000000 0.000000
# 4 0.000000 0.000000 0.000000 0.097032 0.000000 0.000000
# 5 0.000000 0.000000 0.000000 0.000000 -0.040280 0.000000
# 6 0.000000 0.000000 0.000000 0.000000 0.000000 0.041990
#
#
# Mechanical properties :
#
#
# Convention : Reuss Voigt Hill
#
# Bulk Modulus (GPa) = 38.16455 40.60364 39.38409
# Shear Modulus (GPa) = 22.95362 10.46471 16.70916
#
# Velocity S-wave (km/s) = 3.48758 2.35484 2.97561
# Velocity P-wave (km/s) = 6.03665 5.37678 5.71624
#
# Compressibility (1/GPa) = 0.02620233
#
# Stress axis : x y z
#
# Youngs Moduli (GPa) = 29.91317 44.41664 81.07518
#
# Poissons Ratio (x) = 0.58634 0.54013
# Poissons Ratio (y) = 0.39488 0.09527
# Poissons Ratio (z) = 0.19928 0.05219
#
# Static dielectric constant tensor:
#      x y z
#    x 1.673550 0.000000 0.000000 
#    y 0.000000 1.623640 0.000000 
#    z 0.000000 0.000000 1.725530 
# 
# From -- ./inp_files/21853.got.cif
#   From: 2010.05.17/outbox.cif.g08.bks.cpg/sg72_11_cif.got.tgz:21853.got - 2010.06.03 17:03:01.
