data_PCOD9525872
_publ_section_title
;
Structure prediction by ZEFSAII (Michael W. Deem and Ramdas Pophale) SiO2 
 PCOD9525872
Probable space group: I B A M
;
_chemical_formula_sum "Si O2"
_cell_formula_units_Z 128
_cell_length_a 19.253553
_cell_length_b 23.008935
_cell_length_c 17.053854
_cell_angle_alpha 90.000000
_cell_angle_beta 90.000000
_cell_angle_gamma 90.000000
_cell_volume 7554.921265
_symmetry_space_group_name_H-M "I B A M"
_symmetry_group_IT_number 72
_symmetry_cell_setting 'orthorhombic'
loop_
_space_group_symop_operation_xyz
x,y,z
-x,-y,z
x,-y,1/2-z
-x,y,1/2-z
-x,-y,-z
x,y,-z
-x,y,1/2+z
x,-y,1/2+z
1/2+x,1/2+y,1/2+z
1/2-x,1/2-y,1/2+z
1/2+x,1/2-y,-z
1/2-x,1/2+y,-z
1/2-x,1/2-y,1/2-z
1/2+x,1/2+y,1/2-z
1/2-x,1/2+y,z
1/2+x,1/2-y,z
loop_
_atom_site_type_symbol
_atom_site_label
_atom_site_fract_x
_atom_site_fract_y
_atom_site_fract_z
Si Si1 0.991285 0.122811 0.844584
Si Si2 0.621943 0.219072 0.091939
Si Si3 0.742917 0.834978 0.323249
Si Si4 0.198420 0.168738 0.091375
Si Si5 0.343821 0.424460 0.096025
Si Si6 0.175031 0.285205 0.331603
Si Si7 0.483927 0.756448 0.658538
Si Si8 0.874122 0.056819 0.594481
O O1 0.917769 0.101001 0.876597
O O2 0.994104 0.190310 0.872041
O O3 0.000000 0.121891 0.750000
O O4 0.051553 0.080825 0.877193
O O5 0.683155 0.175383 0.112599
O O6 0.650455 0.280446 0.127888
O O7 0.545794 0.205699 0.122733
O O8 0.617240 0.225668 0.000000
O O9 0.786025 0.890751 0.352140
O O10 0.797231 0.780879 0.320633
O O11 0.699345 0.824770 0.242573
O O12 0.277273 0.188155 0.100609
O O13 0.179309 0.106118 0.124383
O O14 0.181591 0.166248 0.000000
O O15 0.349854 0.492676 0.116760
O O16 0.334686 0.417590 0.000000
O O17 0.093843 0.280541 0.349579
O O18 0.500000 0.753421 0.750000
O O19 0.876660 0.055564 0.500000
#
# Coordination Sequence:
#
# PCOD9525872 Si02
#       8
#    16  16  16  16  16  16  16  16
#     4  11  23  34  52  77 111 147 188 227 259 319
#     4  10  19  32  53  75 104 139 176 219 268 329
#     4  10  20  35  52  77 105 139 179 226 276 324
#     4   9  19  34  51  75 103 139 179 218 264 319
#     4  11  23  37  54  77 108 148 189 229 270 322
#     4  10  20  33  55  74 105 140 174 225 276 323
#     4  11  20  34  51  77 106 143 174 213 278 331
#     4  10  21  38  54  72 109 151 183 222 274 319
#
# _framework density 16.942599000000001
#
# number of rings (size 3 to 8) (size 9 to 14) (size 15 to 20)
#    0.000    1.750    3.750    1.125    1.750    3.500 
#    0.000    0.000    0.000    0.000    0.000    0.875 
#    0.000    4.000    0.000    0.000    0.000    0.000 
#
# Total GULP energy -356380.137825 kJ/mol
# GULP energy per Si atom -5568.439654 kJ/mol
# Density = 1.690404 g / cm^3
# Si number density = 16.942599 Si / 1000 Ang^3
#
#
#
# Elastic Constant Matrix: (Units=GPa)
#
#
# Indices 1 2 3 4 5 6 
#
# 1 148.6432 58.1839 12.0374 0.0000 0.0000 0.0000
# 2 58.1839 79.9413 8.5807 0.0000 0.0000 0.0000
# 3 12.0374 8.5807 19.4422 0.0000 0.0000 0.0000
# 4 0.0000 0.0000 0.0000 16.4569 0.0000 0.0000
# 5 0.0000 0.0000 0.0000 0.0000 28.0724 0.0000
# 6 0.0000 0.0000 0.0000 0.0000 0.0000 27.7265
#
#
#
# Elastic Compliance Matrix: (Units=1/GPa)
#
#
# Indices 1 2 3 4 5 6 
#
# 1 0.009571 -0.006645 -0.002993 0.000000 0.000000 0.000000
# 2 -0.006645 0.017744 -0.003717 0.000000 0.000000 0.000000
# 3 -0.002993 -0.003717 0.054928 0.000000 0.000000 0.000000
# 4 0.000000 0.000000 0.000000 0.060765 0.000000 0.000000
# 5 0.000000 0.000000 0.000000 0.000000 0.035622 0.000000
# 6 0.000000 0.000000 0.000000 0.000000 0.000000 0.036067
#
#
# Mechanical properties :
#
#
# Convention : Reuss Voigt Hill
#
# Bulk Modulus (GPa) = 18.00724 45.07008 31.53866
# Shear Modulus (GPa) = 19.23677 25.73280 22.48478
#
# Velocity S-wave (km/s) = 3.37324 3.90143 3.64691
# Velocity P-wave (km/s) = 5.08164 6.85232 6.03231
#
# Compressibility (1/GPa) = 0.05553322
#
# Stress axis : x y z
#
# Youngs Moduli (GPa) = 104.48373 56.35567 18.20552
#
# Poissons Ratio (x) = 0.37447 0.05449
# Poissons Ratio (y) = 0.69427 0.06768
# Poissons Ratio (z) = 0.31273 0.20950
#
# Static dielectric constant tensor:
#      x y z
#    x 1.919300 0.000000 0.000000 
#    y 0.000000 1.601140 0.000000 
#    z 0.000000 0.000000 1.621610 
# 
# From -- ./inp_files/32070.got.cif
#   From: 2010.05.17/outbox.cif.g08.bks.cpg/sg72_17_cif.got.tgz:32070.got - 2010.06.03 17:03:01.
