data_PCOD9525841
_publ_section_title
;
Structure prediction by ZEFSAII (Michael W. Deem and Ramdas Pophale) SiO2 
 PCOD9525841
Probable space group: I B A M
;
_chemical_formula_sum "Si O2"
_cell_formula_units_Z 112
_cell_length_a 14.109805
_cell_length_b 19.575481
_cell_length_c 23.243384
_cell_angle_alpha 90.000000
_cell_angle_beta 90.000000
_cell_angle_gamma 90.000000
_cell_volume 6419.967227
_symmetry_space_group_name_H-M "I B A M"
_symmetry_group_IT_number 72
_symmetry_cell_setting 'orthorhombic'
loop_
_space_group_symop_operation_xyz
x,y,z
-x,-y,z
x,-y,1/2-z
-x,y,1/2-z
-x,-y,-z
x,y,-z
-x,y,1/2+z
x,-y,1/2+z
1/2+x,1/2+y,1/2+z
1/2-x,1/2-y,1/2+z
1/2+x,1/2-y,-z
1/2-x,1/2+y,-z
1/2-x,1/2-y,1/2-z
1/2+x,1/2+y,1/2-z
1/2-x,1/2+y,z
1/2+x,1/2-y,z
loop_
_atom_site_type_symbol
_atom_site_label
_atom_site_fract_x
_atom_site_fract_y
_atom_site_fract_z
Si Si1 0.752893 0.713682 0.432099
Si Si2 0.459632 0.731669 0.930971
Si Si3 0.068762 0.617473 0.382379
Si Si4 0.774410 0.469551 0.566760
Si Si5 0.147746 0.403475 0.365159
Si Si6 0.609047 0.918053 0.741820
Si Si7 0.145973 0.849471 0.069442
O O1 0.771853 0.707510 0.500000
O O2 0.643000 0.697931 0.422100
O O3 0.821092 0.663302 0.398988
O O4 0.776672 0.791569 0.415686
O O5 0.453516 0.804521 0.899167
O O6 0.545323 0.682326 0.912120
O O7 0.470435 0.744594 0.000000
O O8 0.133086 0.579485 0.429225
O O9 0.127490 0.606395 0.322847
O O10 0.964871 0.583544 0.374109
O O11 0.761225 0.490641 0.500000
O O12 0.795751 0.533379 0.607559
O O13 0.685490 0.423202 0.587040
O O14 0.165015 0.391851 0.297319
O O15 0.500000 0.896293 0.750000
O O16 0.613279 0.000000 0.750000
O O17 0.142322 0.853463 0.000000
#
# Coordination Sequence:
#
# PCOD9525841 Si02
#       7
#    16  16  16  16  16  16  16
#     4  10  19  32  51  77 106 137 175 212 263 322
#     4  10  19  33  54  77 107 144 176 214 265 320
#     4  11  19  31  53  77 105 136 173 216 265 318
#     4  11  21  31  49  80 109 134 172 219 266 322
#     4  11  21  33  51  76 107 137 173 221 261 315
#     4   9  18  33  48  70 105 141 168 202 266 319
#     4   9  18  33  50  72 108 145 171 206 265 321
#
# _framework density 17.445571999999999
#
# number of rings (size 3 to 8) (size 9 to 14) (size 15 to 20)
#    0.000    1.857    4.286    1.286    0.000    2.286 
#    0.000    1.429    0.000    3.429    0.000    0.000 
#    0.000    0.000    0.000    0.000    0.000    0.000 
#
# Total GULP energy -311944.941982 kJ/mol
# GULP energy per Si atom -5570.445393 kJ/mol
# Density = 1.740587 g / cm^3
# Si number density = 17.445572 Si / 1000 Ang^3
#
#
#
# Elastic Constant Matrix: (Units=GPa)
#
#
# Indices 1 2 3 4 5 6 
#
# 1 53.7056 6.6084 27.5335 0.0000 0.0000 0.0000
# 2 6.6084 59.1765 30.7436 0.0000 0.0000 0.0000
# 3 27.5335 30.7436 72.3211 0.0000 0.0000 0.0000
# 4 0.0000 0.0000 0.0000 15.7355 0.0000 0.0000
# 5 0.0000 0.0000 0.0000 0.0000 14.9670 0.0000
# 6 0.0000 0.0000 0.0000 0.0000 0.0000 25.6879
#
#
#
# Elastic Compliance Matrix: (Units=1/GPa)
#
#
# Indices 1 2 3 4 5 6 
#
# 1 0.023441 0.002591 -0.010026 0.000000 0.000000 0.000000
# 2 0.002591 0.021975 -0.010328 0.000000 0.000000 0.000000
# 3 -0.010026 -0.010328 0.022034 0.000000 0.000000 0.000000
# 4 0.000000 0.000000 0.000000 0.063551 0.000000 0.000000
# 5 0.000000 0.000000 0.000000 0.000000 0.066814 0.000000
# 6 0.000000 0.000000 0.000000 0.000000 0.000000 0.038929
#
#
# Mechanical properties :
#
#
# Convention : Reuss Voigt Hill
#
# Bulk Modulus (GPa) = 31.32334 34.99714 33.16024
# Shear Modulus (GPa) = 17.67343 19.29925 18.48634
#
# Velocity S-wave (km/s) = 3.18631 3.32965 3.25877
# Velocity P-wave (km/s) = 5.61522 5.90647 5.76268
#
# Compressibility (1/GPa) = 0.03192507
#
# Stress axis : x y z
#
# Youngs Moduli (GPa) = 42.66005 45.50661 45.38346
#
# Poissons Ratio (x) = -0.11790 0.45500
# Poissons Ratio (y) = -0.11052 0.46871
# Poissons Ratio (z) = 0.42770 0.46998
#
# Static dielectric constant tensor:
#      x y z
#    x 1.620040 0.000000 0.000000 
#    y 0.000000 1.598000 0.000000 
#    z 0.000000 0.000000 1.633220 
# 
# From -- ./inp_files/43509.got.cif
#   From: 2010.05.17/outbox.cif.g08.bks.cpg/sg72_22_cif.got.tgz:43509.got - 2010.06.03 17:03:01.
