data_PCOD9525745
_publ_section_title
;
Structure prediction by ZEFSAII (Michael W. Deem and Ramdas Pophale) SiO2 
 PCOD9525745
Probable space group: I B A M
;
_chemical_formula_sum "Si O2"
_cell_formula_units_Z 64
_cell_length_a 10.865923
_cell_length_b 27.938889
_cell_length_c 9.723749
_cell_angle_alpha 90.000000
_cell_angle_beta 90.000000
_cell_angle_gamma 90.000000
_cell_volume 2951.953385
_symmetry_space_group_name_H-M "I B A M"
_symmetry_group_IT_number 72
_symmetry_cell_setting 'orthorhombic'
loop_
_space_group_symop_operation_xyz
x,y,z
-x,-y,z
x,-y,1/2-z
-x,y,1/2-z
-x,-y,-z
x,y,-z
-x,y,1/2+z
x,-y,1/2+z
1/2+x,1/2+y,1/2+z
1/2-x,1/2-y,1/2+z
1/2+x,1/2-y,-z
1/2-x,1/2+y,-z
1/2-x,1/2-y,1/2-z
1/2+x,1/2+y,1/2-z
1/2-x,1/2+y,z
1/2+x,1/2-y,z
loop_
_atom_site_type_symbol
_atom_site_label
_atom_site_fract_x
_atom_site_fract_y
_atom_site_fract_z
Si Si1 0.382407 0.550541 0.331412
Si Si2 0.392694 0.084748 0.653350
Si Si3 0.671892 0.809251 0.647885
Si Si4 0.107533 0.201069 0.153674
O O1 0.369334 0.500000 0.250000
O O2 0.500000 0.572678 0.250000
O O3 0.401670 0.546872 0.500000
O O4 0.250278 0.575667 0.309687
O O5 0.500000 0.065468 0.750000
O O6 0.409524 0.065277 0.500000
O O7 0.404774 0.142403 0.648115
O O8 0.742542 0.809190 0.500000
O O9 0.763300 0.809616 0.775226
O O10 0.600734 0.759190 0.648961
O O11 0.000000 0.183209 0.250000
O O12 0.099838 0.182315 0.000000
#
# Coordination Sequence:
#
# PCOD9525745 Si02
#       4
#    16  16  16  16
#     4  10  21  39  62  87 114 146 184 226 275 331
#     4  10  22  38  58  85 116 149 186 229 277 332
#     4   9  19  35  51  72 104 140 181 226 272 324
#     4  10  19  31  50  73 100 138 182 229 277 325
#
# _framework density 21.680558999999999
#
# number of rings (size 3 to 8) (size 9 to 14) (size 15 to 20)
#    0.000    2.250    0.000    3.000    0.000    5.500 
#    0.000    5.000    0.000    0.000    0.000    0.000 
#    0.000    0.000    0.000    0.000    0.000    0.000 
#
# Total GULP energy -178361.576491 kJ/mol
# GULP energy per Si atom -5573.799265 kJ/mol
# Density = 2.163121 g / cm^3
# Si number density = 21.680559 Si / 1000 Ang^3
#
#
#
# Elastic Constant Matrix: (Units=GPa)
#
#
# Indices 1 2 3 4 5 6 
#
# 1 115.2295 7.9481 85.3286 0.0000 -0.0002 -0.0002
# 2 7.9481 52.9119 13.6249 0.0002 -0.0001 0.0000
# 3 85.3286 13.6249 188.7590 0.0013 0.0027 0.0009
# 4 0.0000 0.0002 0.0013 5.4392 0.0003 0.0001
# 5 -0.0002 -0.0001 0.0027 0.0003 44.5306 0.0004
# 6 -0.0002 0.0000 0.0009 0.0001 0.0004 -6.1889
#
#
#
# Elastic Compliance Matrix: (Units=1/GPa)
#
#
# Indices 1 2 3 4 5 6 
#
# 1 0.013056 -0.000450 -0.005869 0.000002 0.000000 -0.000001
# 2 -0.000450 0.019273 -0.001188 0.000000 0.000000 0.000000
# 3 -0.005869 -0.001188 0.008037 -0.000002 -0.000001 0.000001
# 4 0.000002 0.000000 -0.000002 0.183850 -0.000001 0.000002
# 5 0.000000 0.000000 -0.000001 -0.000001 0.022456 0.000001
# 6 -0.000001 0.000000 0.000001 0.000002 0.000001 -0.161581
#
#
# Mechanical properties :
#
#
# Convention : Reuss Voigt Hill
#
# Bulk Modulus (GPa) = 39.44576 63.41153 51.42864
# Shear Modulus (GPa) = 46.05961 25.42278 35.74119
#
# Velocity S-wave (km/s) = 4.61419 3.42805 4.06462
# Velocity P-wave (km/s) = 6.82798 6.70674 6.76763
#
# Compressibility (1/GPa) = 0.02535127
#
# Stress axis : x y z
#
# Youngs Moduli (GPa) = 76.59503 51.88672 124.42846
#
# Poissons Ratio (x) = 0.02334 0.73032
# Poissons Ratio (y) = 0.03445 0.14780
# Poissons Ratio (z) = 0.44956 0.06163
#
# Static dielectric constant tensor:
#      x y z
#    x 1.797630 0.000000 0.000000 
#    y 0.000000 1.827000 0.000000 
#    z 0.000000 0.000000 1.818480 
# 
# From -- ./inp_files/2616.got.cif
#   From: 2010.05.17/outbox.cif.g08.bks.cpg/sg72_2_cif.got.tgz:2616.got - 2010.06.03 17:03:01.
