data_PCOD9525704
_publ_section_title
;
Structure prediction by ZEFSAII (Michael W. Deem and Ramdas Pophale) SiO2 
 PCOD9525704
Probable space group: I B A M
;
_chemical_formula_sum "Si O2"
_cell_formula_units_Z 128
_cell_length_a 12.369160
_cell_length_b 22.338984
_cell_length_c 24.855088
_cell_angle_alpha 90.000000
_cell_angle_beta 90.000000
_cell_angle_gamma 90.000000
_cell_volume 6867.820401
_symmetry_space_group_name_H-M "I B A M"
_symmetry_group_IT_number 72
_symmetry_cell_setting 'orthorhombic'
loop_
_space_group_symop_operation_xyz
x,y,z
-x,-y,z
x,-y,1/2-z
-x,y,1/2-z
-x,-y,-z
x,y,-z
-x,y,1/2+z
x,-y,1/2+z
1/2+x,1/2+y,1/2+z
1/2-x,1/2-y,1/2+z
1/2+x,1/2-y,-z
1/2-x,1/2+y,-z
1/2-x,1/2-y,1/2-z
1/2+x,1/2+y,1/2-z
1/2-x,1/2+y,z
1/2+x,1/2-y,z
loop_
_atom_site_type_symbol
_atom_site_label
_atom_site_fract_x
_atom_site_fract_y
_atom_site_fract_z
Si Si1 0.676150 0.928655 0.436924
Si Si2 0.690866 0.680307 0.106035
Si Si3 0.868972 0.497969 0.841054
Si Si4 0.484274 0.838555 0.564039
Si Si5 0.545393 0.718327 0.627929
Si Si6 0.874369 0.587297 0.748232
Si Si7 0.828971 0.284549 0.710997
Si Si8 0.749647 0.691867 0.562179
O O1 0.677894 0.942518 0.500000
O O2 0.767459 0.879798 0.422092
O O3 0.680294 0.985967 0.398516
O O4 0.562863 0.893879 0.423868
O O5 0.565382 0.682117 0.122492
O O6 0.762123 0.692684 0.159064
O O7 0.713641 0.738396 0.068618
O O8 0.830769 0.550448 0.799499
O O9 0.835807 0.438102 0.808975
O O10 0.000000 0.500000 0.846829
O O11 0.491383 0.827688 0.500000
O O12 0.526800 0.780082 0.594661
O O13 0.357504 0.845236 0.577201
O O14 0.578415 0.741513 0.687021
O O15 0.647292 0.685092 0.600970
O O16 0.866569 0.657115 0.757466
O O17 0.000000 0.571261 0.750000
O O18 0.750000 0.250000 0.750000
O O19 0.721528 0.680558 0.500000
#
# Coordination Sequence:
#
# PCOD9525704 Si02
#       8
#    16  16  16  16  16  16  16  16
#     4  11  19  32  54  84 118 150 191 245 298 352
#     4  10  20  32  47  74 112 152 190 227 287 348
#     4   9  18  35  54  80 107 149 193 241 294 349
#     4   9  16  27  47  72 105 149 186 226 275 328
#     4  10  19  31  45  71 115 151 190 228 269 350
#     4   9  18  34  57  77 111 148 192 235 290 349
#     4  11  22  34  52  82 112 150 189 236 294 347
#     4   9  16  28  45  69 105 152 195 221 264 332
#
# _framework density 18.637644999999999
#
# number of rings (size 3 to 8) (size 9 to 14) (size 15 to 20)
#    0.000    2.250    3.750    1.500    1.750    1.750 
#    6.750    0.000    0.000    0.000    0.000    0.875 
#    0.000    1.000    0.000    0.000    0.000    0.000 
#
# Total GULP energy -356921.774082 kJ/mol
# GULP energy per Si atom -5576.902720 kJ/mol
# Density = 1.859522 g / cm^3
# Si number density = 18.637645 Si / 1000 Ang^3
#
#
#
# Elastic Constant Matrix: (Units=GPa)
#
#
# Indices 1 2 3 4 5 6 
#
# 1 89.3324 27.8105 27.8803 0.0000 0.0000 0.0000
# 2 27.8105 44.3749 44.3652 0.0000 0.0000 0.0000
# 3 27.8803 44.3652 96.7184 0.0000 0.0000 0.0000
# 4 0.0000 0.0000 0.0000 28.2424 0.0000 0.0000
# 5 0.0000 0.0000 0.0000 0.0000 20.1942 0.0000
# 6 0.0000 0.0000 0.0000 0.0000 0.0000 -11.4883
#
#
#
# Elastic Compliance Matrix: (Units=1/GPa)
#
#
# Indices 1 2 3 4 5 6 
#
# 1 0.013908 -0.008696 -0.000020 0.000000 0.000000 0.000000
# 2 -0.008696 0.047062 -0.019081 0.000000 0.000000 0.000000
# 3 -0.000020 -0.019081 0.019098 0.000000 0.000000 0.000000
# 4 0.000000 0.000000 0.000000 0.035408 0.000000 0.000000
# 5 0.000000 0.000000 0.000000 0.000000 0.049519 0.000000
# 6 0.000000 0.000000 0.000000 0.000000 0.000000 -0.087045
#
#
# Mechanical properties :
#
#
# Convention : Reuss Voigt Hill
#
# Bulk Modulus (GPa) = 40.86109 47.83752 44.34930
# Shear Modulus (GPa) = 35.28559 16.08096 25.68328
#
# Velocity S-wave (km/s) = 4.35586 2.94057 3.71621
# Velocity P-wave (km/s) = 6.87529 6.10345 6.50084
#
# Compressibility (1/GPa) = 0.02447316
#
# Stress axis : x y z
#
# Youngs Moduli (GPa) = 71.90290 21.24862 52.36276
#
# Poissons Ratio (x) = 0.18478 0.00105
# Poissons Ratio (y) = 0.62527 0.99912
# Poissons Ratio (z) = 0.00145 0.40544
#
# Static dielectric constant tensor:
#      x y z
#    x 1.664420 0.000000 0.000000 
#    y 0.000000 1.609490 0.000000 
#    z 0.000000 0.000000 1.673740 
# 
# From -- ./inp_files/43699.got.cif
#   From: 2010.05.17/outbox.cif.g08.bks.cpg/sg72_22_cif.got.tgz:43699.got - 2010.06.03 17:03:01.
