data_PCOD9525923
_publ_section_title
;
Structure prediction by ZEFSAII (Michael W. Deem and Ramdas Pophale) SiO2 
 PCOD9525923
Probable space group: I B A M
;
_chemical_formula_sum "Si O2"
_cell_formula_units_Z 96
_cell_length_a 25.922897
_cell_length_b 7.863414
_cell_length_c 26.720341
_cell_angle_alpha 90.000000
_cell_angle_beta 90.000000
_cell_angle_gamma 90.000000
_cell_volume 5446.740340
_symmetry_space_group_name_H-M "I B A M"
_symmetry_group_IT_number 72
_symmetry_cell_setting 'orthorhombic'
loop_
_space_group_symop_operation_xyz
x,y,z
-x,-y,z
x,-y,1/2-z
-x,y,1/2-z
-x,-y,-z
x,y,-z
-x,y,1/2+z
x,-y,1/2+z
1/2+x,1/2+y,1/2+z
1/2-x,1/2-y,1/2+z
1/2+x,1/2-y,-z
1/2-x,1/2+y,-z
1/2-x,1/2-y,1/2-z
1/2+x,1/2+y,1/2-z
1/2-x,1/2+y,z
1/2+x,1/2-y,z
loop_
_atom_site_type_symbol
_atom_site_label
_atom_site_fract_x
_atom_site_fract_y
_atom_site_fract_z
Si Si1 0.799580 0.920382 0.560188
Si Si2 0.875446 0.600437 0.441697
Si Si3 0.445677 0.307775 0.765871
Si Si4 0.553939 0.097516 0.354153
Si Si5 0.358609 0.886038 0.793817
Si Si6 0.308547 0.205429 0.395736
O O1 0.789340 0.937900 0.500000
O O2 0.841302 0.770266 0.566809
O O3 0.748665 0.855734 0.589077
O O4 0.815346 0.103717 0.582753
O O5 0.884547 0.584040 0.500000
O O6 0.927473 0.615066 0.410373
O O7 0.845155 0.433382 0.422540
O O8 0.448511 0.500000 0.750000
O O9 0.500000 0.220697 0.750000
O O10 0.445439 0.275758 0.824943
O O11 0.395540 0.238403 0.737628
O O12 0.500000 0.000000 0.350567
O O13 0.598973 0.995752 0.324614
O O14 0.321651 0.807444 0.836309
O O15 0.332519 0.000000 0.750000
#
# Coordination Sequence:
#
# PCOD9525923 Si02
#       6
#    16  16  16  16  16  16
#     4  11  21  36  60  84 111 150 198 240 283 344
#     4  10  22  37  56  85 116 150 193 236 288 346
#     4  10  19  32  56  82 107 141 187 231 277 336
#     4  10  19  35  58  80 111 150 188 235 286 339
#     4   9  20  36  55  81 112 144 187 232 285 343
#     4  11  21  36  60  82 114 149 190 241 289 333
#
# _framework density 17.625221
#
# number of rings (size 3 to 8) (size 9 to 14) (size 15 to 20)
#    0.000    1.833    3.333    1.500    2.333    0.333 
#    0.000    0.833    0.000    0.000    0.000    8.167 
#    0.000    0.000    0.000    0.000    0.000    0.000 
#
# Total GULP energy -267311.475498 kJ/mol
# GULP energy per Si atom -5568.989073 kJ/mol
# Density = 1.758511 g / cm^3
# Si number density = 17.625221 Si / 1000 Ang^3
#
#
#
# Elastic Constant Matrix: (Units=GPa)
#
#
# Indices 1 2 3 4 5 6 
#
# 1 48.7121 22.7792 50.8028 0.0000 0.0000 0.0000
# 2 22.7792 104.1795 51.2281 0.0000 0.0000 0.0000
# 3 50.8028 51.2281 133.7747 0.0000 0.0000 0.0000
# 4 0.0000 0.0000 0.0000 21.2207 0.0000 0.0000
# 5 0.0000 0.0000 0.0000 0.0000 -57.1328 0.0000
# 6 0.0000 0.0000 0.0000 0.0000 0.0000 28.3652
#
#
#
# Elastic Compliance Matrix: (Units=1/GPa)
#
#
# Indices 1 2 3 4 5 6 
#
# 1 0.034143 -0.001342 -0.012452 0.000000 0.000000 0.000000
# 2 -0.001342 0.011878 -0.004039 0.000000 0.000000 0.000000
# 3 -0.012452 -0.004039 0.013751 0.000000 0.000000 0.000000
# 4 0.000000 0.000000 0.000000 0.047124 0.000000 0.000000
# 5 0.000000 0.000000 0.000000 0.000000 -0.017503 0.000000
# 6 0.000000 0.000000 0.000000 0.000000 0.000000 0.035254
#
#
# Mechanical properties :
#
#
# Convention : Reuss Voigt Hill
#
# Bulk Modulus (GPa) = 41.48478 59.58739 50.53608
# Shear Modulus (GPa) = 29.70002 9.28104 19.49053
#
# Velocity S-wave (km/s) = 4.10943 2.29722 3.32901
# Velocity P-wave (km/s) = 6.79006 6.39669 6.59631
#
# Compressibility (1/GPa) = 0.02410523
#
# Stress axis : x y z
#
# Youngs Moduli (GPa) = 29.28838 84.18637 72.72261
#
# Poissons Ratio (x) = 0.11301 0.90556
# Poissons Ratio (y) = 0.03932 0.29372
# Poissons Ratio (z) = 0.36471 0.34003
#
# Static dielectric constant tensor:
#      x y z
#    x 1.619890 0.000000 0.000000 
#    y 0.000000 1.625640 0.000000 
#    z 0.000000 0.000000 1.614170 
# 
# From -- ./inp_files/36014.got.cif
#   From: 2010.05.17/outbox.cif.g08.bks.cpg/sg72_19_cif.got.tgz:36014.got - 2010.06.03 17:03:01.
