data_PCOD9525864
_publ_section_title
;
Structure prediction by ZEFSAII (Michael W. Deem and Ramdas Pophale) SiO2 
 PCOD9525864
Probable space group: I B A M
;
_chemical_formula_sum "Si O2"
_cell_formula_units_Z 64
_cell_length_a 23.253508
_cell_length_b 5.496173
_cell_length_c 19.296690
_cell_angle_alpha 90.000000
_cell_angle_beta 90.000000
_cell_angle_gamma 90.000000
_cell_volume 2466.219309
_symmetry_space_group_name_H-M "I B A M"
_symmetry_group_IT_number 72
_symmetry_cell_setting 'orthorhombic'
loop_
_space_group_symop_operation_xyz
x,y,z
-x,-y,z
x,-y,1/2-z
-x,y,1/2-z
-x,-y,-z
x,y,-z
-x,y,1/2+z
x,-y,1/2+z
1/2+x,1/2+y,1/2+z
1/2-x,1/2-y,1/2+z
1/2+x,1/2-y,-z
1/2-x,1/2+y,-z
1/2-x,1/2-y,1/2-z
1/2+x,1/2+y,1/2-z
1/2-x,1/2+y,z
1/2+x,1/2-y,z
loop_
_atom_site_type_symbol
_atom_site_label
_atom_site_fract_x
_atom_site_fract_y
_atom_site_fract_z
Si Si1 0.439756 0.376111 0.377914
Si Si2 0.854122 0.750468 0.751051
Si Si3 0.598726 0.128995 0.397862
Si Si4 0.228931 0.487720 0.920324
O O1 0.500000 0.500000 0.355313
O O2 0.397127 0.307965 0.314643
O O3 0.415139 0.598723 0.423892
O O4 0.441664 0.105294 0.411396
O O5 0.819552 0.500000 0.750000
O O6 0.894487 0.693789 0.684223
O O7 0.819755 0.000000 0.750000
O O8 0.661737 0.044989 0.420735
O O9 0.240718 0.224039 0.888358
O O10 0.250586 0.465515 0.000000
#
# Coordination Sequence:
#
# PCOD9525864 Si02
#       4
#    16  16  16  16
#     4  10  19  32  52  79 112 149 185 215 255 320
#     4   8  16  28  45  69 102 137 172 207 247 298
#     4  10  19  33  54  78 110 142 180 229 273 316
#     4  10  21  38  61  84 103 134 185 239 288 333
#
# _framework density 25.950652000000002
#
# number of rings (size 3 to 8) (size 9 to 14) (size 15 to 20)
#    0.000    2.500    0.000    2.250    0.000    4.500 
#    0.000   12.500    0.000   45.000    0.000    0.000 
#    0.000    0.000    0.000    0.000    0.000    0.000 
#
# Total GULP energy -178160.904226 kJ/mol
# GULP energy per Si atom -5567.528257 kJ/mol
# Density = 2.589159 g / cm^3
# Si number density = 25.950652 Si / 1000 Ang^3
#
#
#
# Elastic Constant Matrix: (Units=GPa)
#
#
# Indices 1 2 3 4 5 6 
#
# 1 105.0671 55.0794 12.2043 0.0000 0.0000 0.0000
# 2 55.0794 342.1871 37.0178 0.0000 0.0000 0.0000
# 3 12.2043 37.0178 87.4142 0.0000 0.0000 0.0000
# 4 0.0000 0.0000 0.0000 -38.0803 0.0000 0.0000
# 5 0.0000 0.0000 0.0000 0.0000 29.3250 0.0000
# 6 0.0000 0.0000 0.0000 0.0000 0.0000 43.9880
#
#
#
# Elastic Compliance Matrix: (Units=1/GPa)
#
#
# Indices 1 2 3 4 5 6 
#
# 1 0.010446 -0.001597 -0.000782 0.000000 0.000000 0.000000
# 2 -0.001597 0.003307 -0.001177 0.000000 0.000000 0.000000
# 3 -0.000782 -0.001177 0.012048 0.000000 0.000000 0.000000
# 4 0.000000 0.000000 0.000000 -0.026260 0.000000 0.000000
# 5 0.000000 0.000000 0.000000 0.000000 0.034101 0.000000
# 6 0.000000 0.000000 0.000000 0.000000 0.000000 0.022733
#
#
# Mechanical properties :
#
#
# Convention : Reuss Voigt Hill
#
# Bulk Modulus (GPa) = 53.51215 82.58572 68.04894
# Shear Modulus (GPa) = 71.72002 35.73767 53.72885
#
# Velocity S-wave (km/s) = 5.26280 3.71501 4.55513
# Velocity P-wave (km/s) = 7.58913 7.09189 7.34472
#
# Compressibility (1/GPa) = 0.01868734
#
# Stress axis : x y z
#
# Youngs Moduli (GPa) = 95.73362 302.41023 83.00413
#
# Poissons Ratio (x) = 0.48287 0.06492
# Poissons Ratio (y) = 0.15286 0.09773
# Poissons Ratio (z) = 0.07488 0.35606
#
# Static dielectric constant tensor:
#      x y z
#    x 1.987490 0.000000 0.000000 
#    y 0.000000 2.295900 0.000000 
#    z 0.000000 0.000000 2.182640 
# 
# From -- ./inp_files/41422.got.cif
#   From: 2010.05.17/outbox.cif.g08.bks.cpg/sg72_21_cif.got.tgz:41422.got - 2010.06.03 17:03:01.
