data_PCOD9525697
_publ_section_title
;
Structure prediction by ZEFSAII (Michael W. Deem and Ramdas Pophale) SiO2 
 PCOD9525697
Probable space group: I B A M
;
_chemical_formula_sum "Si O2"
_cell_formula_units_Z 56
_cell_length_a 31.899448
_cell_length_b 5.230480
_cell_length_c 15.670637
_cell_angle_alpha 90.000000
_cell_angle_beta 90.000000
_cell_angle_gamma 90.000000
_cell_volume 2614.636769
_symmetry_space_group_name_H-M "I B A M"
_symmetry_group_IT_number 72
_symmetry_cell_setting 'orthorhombic'
loop_
_space_group_symop_operation_xyz
x,y,z
-x,-y,z
x,-y,1/2-z
-x,y,1/2-z
-x,-y,-z
x,y,-z
-x,y,1/2+z
x,-y,1/2+z
1/2+x,1/2+y,1/2+z
1/2-x,1/2-y,1/2+z
1/2+x,1/2-y,-z
1/2-x,1/2+y,-z
1/2-x,1/2-y,1/2-z
1/2+x,1/2+y,1/2-z
1/2-x,1/2+y,z
1/2+x,1/2-y,z
loop_
_atom_site_type_symbol
_atom_site_label
_atom_site_fract_x
_atom_site_fract_y
_atom_site_fract_z
Si Si1 0.613279 0.036270 0.652300
Si Si2 0.656489 0.463254 0.905057
Si Si3 0.481209 0.757983 0.653013
Si Si4 0.221083 0.000000 0.750000
O O1 0.638926 0.249364 0.601851
O O2 0.567536 0.170657 0.658230
O O3 0.627880 0.000000 0.750000
O O4 0.620760 0.754075 0.613218
O O5 0.691301 0.458875 0.831890
O O6 0.672913 0.415178 0.000000
O O7 0.500000 0.500000 0.614751
O O8 0.500000 0.754247 0.750000
O O9 0.500000 0.000000 0.605801
O O10 0.250000 0.250000 0.750000
#
# Coordination Sequence:
#
# PCOD9525697 Si02
#       4
#    16  16  16   8
#     4  12  21  41  70 101 133 186 245 284 340 421
#     4  12  27  46  71 104 141 182 229 286 349 418
#     4  10  19  30  56 100 125 172 238 284 343 396
#     4  12  26  46  76 108 139 176 227 280 348 430
#
# _framework density 21.417888000000001
#
# number of rings (size 3 to 8) (size 9 to 14) (size 15 to 20)
#    0.000    0.571    5.714    4.286    4.000    1.143 
#    0.000    0.000    0.000   17.143    0.000    0.000 
#    0.000    0.000    0.000    0.000    0.000    0.000 
#
# Total GULP energy -156089.395050 kJ/mol
# GULP energy per Si atom -5574.621252 kJ/mol
# Density = 2.136914 g / cm^3
# Si number density = 21.417888 Si / 1000 Ang^3
#
#
#
# Elastic Constant Matrix: (Units=GPa)
#
#
# Indices 1 2 3 4 5 6 
#
# 1 98.6500 31.5479 45.7322 0.0000 0.0000 0.0000
# 2 31.5479 197.7440 24.0209 0.0000 0.0000 0.0000
# 3 45.7322 24.0209 139.7182 0.0000 0.0000 0.0000
# 4 0.0000 0.0000 0.0000 98.9472 0.0000 0.0000
# 5 0.0000 0.0000 0.0000 0.0000 -11.8926 0.0000
# 6 0.0000 0.0000 0.0000 0.0000 0.0000 41.2128
#
#
#
# Elastic Compliance Matrix: (Units=1/GPa)
#
#
# Indices 1 2 3 4 5 6 
#
# 1 0.012379 -0.001514 -0.003791 0.000000 0.000000 0.000000
# 2 -0.001514 0.005350 -0.000424 0.000000 0.000000 0.000000
# 3 -0.003791 -0.000424 0.008471 0.000000 0.000000 0.000000
# 4 0.000000 0.000000 0.000000 0.010106 0.000000 0.000000
# 5 0.000000 0.000000 0.000000 0.000000 -0.084086 0.000000
# 6 0.000000 0.000000 0.000000 0.000000 0.000000 0.024264
#
#
# Mechanical properties :
#
#
# Convention : Reuss Voigt Hill
#
# Bulk Modulus (GPa) = 67.84135 70.96824 69.40480
# Shear Modulus (GPa) = -700.11681 47.97421 -326.07130
#
# Velocity S-wave (km/s) = -18.09955 4.73791 -12.35205
# Velocity P-wave (km/s) = 20.12580 7.94590 13.07499
#
# Compressibility (1/GPa) = 0.01474027
#
# Stress axis : x y z
#
# Youngs Moduli (GPa) = 80.78351 186.91015 118.04721
#
# Poissons Ratio (x) = 0.28304 0.44757
# Poissons Ratio (y) = 0.12233 0.05007
# Poissons Ratio (z) = 0.30629 0.07928
#
# Static dielectric constant tensor:
#      x y z
#    x 1.979150 0.000000 0.000000 
#    y 0.000000 1.747370 0.000000 
#    z 0.000000 0.000000 1.684520 
# 
# From -- ./inp_files/26149.got.cif
#   From: 2010.05.17/outbox.cif.g08.bks.cpg/sg72_14_cif.got.tgz:26149.got - 2010.06.03 17:03:01.
