data_PCOD9525097
_publ_section_title
;
Structure prediction by ZEFSAII (Michael W. Deem and Ramdas Pophale) SiO2 
 PCOD9525097
Probable space group: I B A M
;
_chemical_formula_sum "Si O2"
_cell_formula_units_Z 80
_cell_length_a 12.206567
_cell_length_b 23.224100
_cell_length_c 15.477426
_cell_angle_alpha 90.000000
_cell_angle_beta 90.000000
_cell_angle_gamma 90.000000
_cell_volume 4387.641831
_symmetry_space_group_name_H-M "I B A M"
_symmetry_group_IT_number 72
_symmetry_cell_setting 'orthorhombic'
loop_
_space_group_symop_operation_xyz
x,y,z
-x,-y,z
x,-y,1/2-z
-x,y,1/2-z
-x,-y,-z
x,y,-z
-x,y,1/2+z
x,-y,1/2+z
1/2+x,1/2+y,1/2+z
1/2-x,1/2-y,1/2+z
1/2+x,1/2-y,-z
1/2-x,1/2+y,-z
1/2-x,1/2-y,1/2-z
1/2+x,1/2+y,1/2-z
1/2-x,1/2+y,z
1/2+x,1/2-y,z
loop_
_atom_site_type_symbol
_atom_site_label
_atom_site_fract_x
_atom_site_fract_y
_atom_site_fract_z
Si Si1 0.311600 0.811455 0.734984
Si Si2 0.033093 0.229960 0.656202
Si Si3 0.148053 0.159904 0.093515
Si Si4 0.024035 0.065003 0.352700
Si Si5 0.719639 0.642960 0.099585
O O1 0.250000 0.750000 0.750000
O O2 0.419909 0.791849 0.683325
O O3 0.234133 0.845447 0.669750
O O4 0.310152 0.843300 0.827066
O O5 0.130226 0.194769 0.610915
O O6 0.000000 0.202831 0.750000
O O7 0.922304 0.219136 0.603945
O O8 0.058901 0.109564 0.102328
O O9 0.201153 0.159363 0.000000
O O10 0.146098 0.087379 0.374687
O O11 0.000000 0.067764 0.250000
O O12 0.000000 0.000000 0.381006
O O13 0.755253 0.640161 0.000000
#
# Coordination Sequence:
#
# PCOD9525097 Si02
#       5
#    16  16  16  16  16
#     4  10  19  32  47  62  95 128 165 196 236 278
#     4  10  17  32  46  62  91 130 158 198 231 271
#     4  11  20  32  50  71  99 129 162 197 241 285
#     4  10  18  31  51  69  95 131 159 191 243 296
#     4  10  18  30  46  66  94 124 157 193 234 281
#
# _framework density 18.233028999999998
#
# number of rings (size 3 to 8) (size 9 to 14) (size 15 to 20)
#    0.000    1.800    6.000    3.600    0.000    5.600 
#    0.000    0.000    0.000    0.000    0.000    0.000 
#    0.000    3.200    0.000    3.600    0.400    0.200 
#
# Total GULP energy -222727.450256 kJ/mol
# GULP energy per Si atom -5568.186256 kJ/mol
# Density = 1.819153 g / cm^3
# Si number density = 18.233029 Si / 1000 Ang^3
#
#
#
# Elastic Constant Matrix: (Units=GPa)
#
#
# Indices 1 2 3 4 5 6 
#
# 1 32.3050 26.9307 12.9677 0.0000 0.0000 0.0000
# 2 26.9307 77.7333 25.2399 -0.0001 0.0000 0.0000
# 3 12.9677 25.2399 132.7440 -0.0001 0.0000 0.0000
# 4 0.0000 -0.0001 -0.0001 8.4250 0.0000 0.0000
# 5 0.0000 0.0000 0.0000 0.0000 13.2751 0.0000
# 6 0.0000 0.0000 0.0000 0.0000 0.0000 20.8272
#
#
#
# Elastic Compliance Matrix: (Units=1/GPa)
#
#
# Indices 1 2 3 4 5 6 
#
# 1 0.043799 -0.014692 -0.001485 0.000000 0.000000 0.000000
# 2 -0.014692 0.018639 -0.002109 0.000000 0.000000 0.000000
# 3 -0.001485 -0.002109 0.008079 0.000000 0.000000 0.000000
# 4 0.000000 0.000000 0.000000 0.118694 0.000000 0.000000
# 5 0.000000 0.000000 0.000000 0.000000 0.075329 0.000000
# 6 0.000000 0.000000 0.000000 0.000000 0.000000 0.048014
#
#
# Mechanical properties :
#
#
# Convention : Reuss Voigt Hill
#
# Bulk Modulus (GPa) = 29.45880 41.45098 35.45489
# Shear Modulus (GPa) = 13.87187 20.34839 17.11013
#
# Velocity S-wave (km/s) = 2.76127 3.34431 3.06668
# Velocity P-wave (km/s) = 5.13401 6.13970 5.65924
#
# Compressibility (1/GPa) = 0.03394572
#
# Stress axis : x y z
#
# Youngs Moduli (GPa) = 22.83163 53.65032 123.77230
#
# Poissons Ratio (x) = 0.78822 0.18383
# Poissons Ratio (y) = 0.33544 0.26101
# Poissons Ratio (z) = 0.03391 0.11314
#
# Static dielectric constant tensor:
#      x y z
#    x 1.690050 0.000000 0.000000 
#    y 0.000000 1.640790 0.000000 
#    z 0.000000 0.000000 1.693930 
# 
# From -- ./inp_files/21577.got.cif
#   From: 2010.05.17/outbox.cif.g08.bks.cpg/sg72_11_cif.got.tgz:21577.got - 2010.06.03 17:03:01.
