data_PCOD9525760
_publ_section_title
;
Structure prediction by ZEFSAII (Michael W. Deem and Ramdas Pophale) SiO2 
 PCOD9525760
Probable space group: I B A M
;
_chemical_formula_sum "Si O2"
_cell_formula_units_Z 112
_cell_length_a 20.201574
_cell_length_b 18.946646
_cell_length_c 14.561172
_cell_angle_alpha 90.000000
_cell_angle_beta 90.000000
_cell_angle_gamma 90.000000
_cell_volume 5573.318742
_symmetry_space_group_name_H-M "I B A M"
_symmetry_group_IT_number 72
_symmetry_cell_setting 'orthorhombic'
loop_
_space_group_symop_operation_xyz
x,y,z
-x,-y,z
x,-y,1/2-z
-x,y,1/2-z
-x,-y,-z
x,y,-z
-x,y,1/2+z
x,-y,1/2+z
1/2+x,1/2+y,1/2+z
1/2-x,1/2-y,1/2+z
1/2+x,1/2-y,-z
1/2-x,1/2+y,-z
1/2-x,1/2-y,1/2-z
1/2+x,1/2+y,1/2-z
1/2-x,1/2+y,z
1/2+x,1/2-y,z
loop_
_atom_site_type_symbol
_atom_site_label
_atom_site_fract_x
_atom_site_fract_y
_atom_site_fract_z
Si Si1 0.464841 0.069005 0.396235
Si Si2 0.885707 0.231378 0.887628
Si Si3 0.734084 0.637051 0.110554
Si Si4 0.291964 0.144247 0.892437
Si Si5 0.173516 0.514398 0.648914
Si Si6 0.328009 0.729386 0.111141
Si Si7 0.528978 0.228587 0.113077
O O1 0.492991 0.074173 0.500000
O O2 0.386728 0.052947 0.401058
O O3 0.474220 0.146733 0.356088
O O4 0.500000 0.000000 0.354964
O O5 0.837414 0.167143 0.861014
O O6 0.848900 0.303528 0.855710
O O7 0.961769 0.232591 0.858849
O O8 0.886562 0.231600 0.000000
O O9 0.763248 0.565554 0.151691
O O10 0.786936 0.699192 0.129978
O O11 0.733022 0.627368 0.000000
O O12 0.220330 0.167245 0.854055
O O13 0.308402 0.062560 0.887061
O O14 0.288759 0.162233 0.000000
O O15 0.147566 0.500000 0.750000
O O16 0.402608 0.736519 0.145762
O O17 0.333650 0.723441 0.000000
O O18 0.531191 0.227261 0.000000
#
# Coordination Sequence:
#
# PCOD9525760 Si02
#       7
#    16  16  16  16  16  16  16
#     4  10  19  31  51  74 100 133 162 191 241 308
#     4   8  15  27  49  77  98 118 157 211 254 291
#     4   9  16  31  51  70  95 130 168 203 244 295
#     4   9  17  31  49  70  95 125 163 202 242 292
#     4  12  23  32  45  71 102 139 166 201 240 282
#     4   8  14  26  48  72  94 121 157 205 251 292
#     4   9  14  24  46  76  99 116 150 203 254 295
#
# _framework density 20.095745999999998
#
# number of rings (size 3 to 8) (size 9 to 14) (size 15 to 20)
#    0.000    2.714    1.429    3.857    0.000    2.571 
#    0.000    2.857    0.000    0.857    0.000    6.000 
#    0.000    0.000    0.000    0.000    0.000    0.000 
#
# Total GULP energy -312394.450675 kJ/mol
# GULP energy per Si atom -5578.472333 kJ/mol
# Density = 2.005001 g / cm^3
# Si number density = 20.095746 Si / 1000 Ang^3
#
#
#
# Elastic Constant Matrix: (Units=GPa)
#
#
# Indices 1 2 3 4 5 6 
#
# 1 140.5816 17.8070 7.9115 0.0000 0.0000 0.0000
# 2 17.8070 35.9014 -6.6049 0.0000 0.0000 0.0000
# 3 7.9115 -6.6049 42.2802 0.0000 0.0000 0.0000
# 4 0.0000 0.0000 0.0000 -51.2448 0.0000 0.0000
# 5 0.0000 0.0000 0.0000 0.0000 0.4317 0.0000
# 6 0.0000 0.0000 0.0000 0.0000 0.0000 27.1537
#
#
#
# Elastic Compliance Matrix: (Units=1/GPa)
#
#
# Indices 1 2 3 4 5 6 
#
# 1 0.007770 -0.004243 -0.002117 0.000000 0.000000 0.000000
# 2 -0.004243 0.030996 0.005636 0.000000 0.000000 0.000000
# 3 -0.002117 0.005636 0.024928 0.000000 0.000000 0.000000
# 4 0.000000 0.000000 0.000000 -0.019514 0.000000 0.000000
# 5 0.000000 0.000000 0.000000 0.000000 2.316189 0.000000
# 6 0.000000 0.000000 0.000000 0.000000 0.000000 0.036827
#
#
# Mechanical properties :
#
#
# Convention : Reuss Voigt Hill
#
# Bulk Modulus (GPa) = 16.06535 28.55449 22.30992
# Shear Modulus (GPa) = 2.06663 8.57811 5.32237
#
# Velocity S-wave (km/s) = 1.01520 2.06831 1.62919
# Velocity P-wave (km/s) = 3.06365 4.46586 3.82948
#
# Compressibility (1/GPa) = 0.06224575
#
# Stress axis : x y z
#
# Youngs Moduli (GPa) = 128.70151 32.26264 40.11507
#
# Poissons Ratio (x) = 0.13690 0.08492
# Poissons Ratio (y) = 0.54612 -0.22609
# Poissons Ratio (z) = 0.27243 -0.18183
#
# Static dielectric constant tensor:
#      x y z
#    x 1.725950 0.000000 0.000000 
#    y 0.000000 1.679680 0.000000 
#    z 0.000000 0.000000 1.738960 
# 
# From -- ./inp_files/31923.got.cif
#   From: 2010.05.17/outbox.cif.g08.bks.cpg/sg72_16_cif.got.tgz:31923.got - 2010.06.03 17:03:01.
