data_PCOD9525849
_publ_section_title
;
Structure prediction by ZEFSAII (Michael W. Deem and Ramdas Pophale) SiO2 
 PCOD9525849
Probable space group: I B A M
;
_chemical_formula_sum "Si O2"
_cell_formula_units_Z 56
_cell_length_a 14.378087
_cell_length_b 11.681501
_cell_length_c 14.557811
_cell_angle_alpha 90.000000
_cell_angle_beta 90.000000
_cell_angle_gamma 90.000000
_cell_volume 2445.095545
_symmetry_space_group_name_H-M "I B A M"
_symmetry_group_IT_number 72
_symmetry_cell_setting 'orthorhombic'
loop_
_space_group_symop_operation_xyz
x,y,z
-x,-y,z
x,-y,1/2-z
-x,y,1/2-z
-x,-y,-z
x,y,-z
-x,y,1/2+z
x,-y,1/2+z
1/2+x,1/2+y,1/2+z
1/2-x,1/2-y,1/2+z
1/2+x,1/2-y,-z
1/2-x,1/2+y,-z
1/2-x,1/2-y,1/2-z
1/2+x,1/2+y,1/2-z
1/2-x,1/2+y,z
1/2+x,1/2-y,z
loop_
_atom_site_type_symbol
_atom_site_label
_atom_site_fract_x
_atom_site_fract_y
_atom_site_fract_z
Si Si1 0.137228 0.245749 0.269581
Si Si2 0.214028 0.422305 0.398325
Si Si3 0.360806 0.500000 0.250000
Si Si4 0.434879 0.891114 0.896220
O O1 0.250000 0.250000 0.250000
O O2 0.140207 0.332071 0.355850
O O3 0.081132 0.299754 0.183977
O O4 0.099269 0.118559 0.289835
O O5 0.241240 0.384563 0.500000
O O6 0.300126 0.446056 0.332256
O O7 0.164470 0.545029 0.402042
O O8 0.500000 0.000000 0.872741
O O9 0.458706 0.850702 0.000000
#
# Coordination Sequence:
#
# PCOD9525849 Si02
#       4
#    16  16   8  16
#     4  10  19  34  53  82 119 157 202 259 317 375
#     4  10  19  32  51  80 112 151 200 253 309 367
#     4  10  20  36  51  81 118 158 204 254 318 376
#     4  10  20  35  58  85 115 158 207 255 308 373
#
# _framework density 22.902991
#
# number of rings (size 3 to 8) (size 9 to 14) (size 15 to 20)
#    0.000    2.000    5.714    0.000    0.000    8.000 
#    0.000    0.000    0.000    3.429    0.000    6.000 
#    0.000    0.000    0.000    0.000    0.000    0.000 
#
# Total GULP energy -155926.961529 kJ/mol
# GULP energy per Si atom -5568.820055 kJ/mol
# Density = 2.285086 g / cm^3
# Si number density = 22.902991 Si / 1000 Ang^3
#
#
#
# Elastic Constant Matrix: (Units=GPa)
#
#
# Indices 1 2 3 4 5 6 
#
# 1 46.6875 0.8936 16.3730 0.0000 0.0000 0.0000
# 2 0.8936 167.7599 74.2297 0.0000 0.0000 0.0000
# 3 16.3730 74.2297 151.7228 0.0000 0.0000 0.0000
# 4 0.0000 0.0000 0.0000 10.1538 0.0000 0.0000
# 5 0.0000 0.0000 0.0000 0.0000 23.8764 0.0000
# 6 0.0000 0.0000 0.0000 0.0000 0.0000 30.4391
#
#
#
# Elastic Compliance Matrix: (Units=1/GPa)
#
#
# Indices 1 2 3 4 5 6 
#
# 1 0.022454 0.001216 -0.003018 0.000000 0.000000 0.000000
# 2 0.001216 0.007674 -0.003886 0.000000 0.000000 0.000000
# 3 -0.003018 -0.003886 0.008818 0.000000 0.000000 0.000000
# 4 0.000000 0.000000 0.000000 0.098486 0.000000 0.000000
# 5 0.000000 0.000000 0.000000 0.000000 0.041882 0.000000
# 6 0.000000 0.000000 0.000000 0.000000 0.000000 0.032852
#
#
# Mechanical properties :
#
#
# Convention : Reuss Voigt Hill
#
# Bulk Modulus (GPa) = 36.27126 61.01809 48.64467
# Shear Modulus (GPa) = 21.48402 31.20545 26.34474
#
# Velocity S-wave (km/s) = 3.06607 3.69522 3.39525
# Velocity P-wave (km/s) = 5.32970 6.70119 6.05441
#
# Compressibility (1/GPa) = 0.02757004
#
# Stress axis : x y z
#
# Youngs Moduli (GPa) = 44.53532 130.31584 113.40947
#
# Poissons Ratio (x) = -0.15843 0.34226
# Poissons Ratio (y) = -0.05414 0.44065
# Poissons Ratio (z) = 0.13440 0.50634
#
# Static dielectric constant tensor:
#      x y z
#    x 1.975940 0.000000 0.000000 
#    y 0.000000 2.486150 0.000000 
#    z 0.000000 0.000000 2.060390 
# 
# From -- ./inp_files/22711.got.cif
#   From: 2010.05.17/outbox.cif.g08.bks.cpg/sg72_12_cif.got.tgz:22711.got - 2010.06.03 17:03:01.
