data_PCOD9525782
_publ_section_title
;
Structure prediction by ZEFSAII (Michael W. Deem and Ramdas Pophale) SiO2 
 PCOD9525782
Probable space group: I B A M
;
_chemical_formula_sum "Si O2"
_cell_formula_units_Z 64
_cell_length_a 5.262041
_cell_length_b 29.594412
_cell_length_c 21.512409
_cell_angle_alpha 90.000000
_cell_angle_beta 90.000000
_cell_angle_gamma 90.000000
_cell_volume 3350.063117
_symmetry_space_group_name_H-M "I B A M"
_symmetry_group_IT_number 72
_symmetry_cell_setting 'orthorhombic'
loop_
_space_group_symop_operation_xyz
x,y,z
-x,-y,z
x,-y,1/2-z
-x,y,1/2-z
-x,-y,-z
x,y,-z
-x,y,1/2+z
x,-y,1/2+z
1/2+x,1/2+y,1/2+z
1/2-x,1/2-y,1/2+z
1/2+x,1/2-y,-z
1/2-x,1/2+y,-z
1/2-x,1/2-y,1/2-z
1/2+x,1/2+y,1/2-z
1/2-x,1/2+y,z
1/2+x,1/2-y,z
loop_
_atom_site_type_symbol
_atom_site_label
_atom_site_fract_x
_atom_site_fract_y
_atom_site_fract_z
Si Si1 0.552952 0.076301 0.183686
Si Si2 0.460429 0.378495 0.357735
Si Si3 0.319085 0.456708 0.069736
Si Si4 0.488677 0.720717 0.323893
O O1 0.500000 0.054081 0.250000
O O2 0.313951 0.107308 0.167004
O O3 0.612936 0.045163 0.124560
O O4 0.810466 0.105827 0.187840
O O5 0.522217 0.410437 0.417093
O O6 0.480544 0.324995 0.363007
O O7 0.500000 0.500000 0.077357
O O8 0.214784 0.456722 0.000000
O O9 0.500000 0.708857 0.250000
O O10 0.222099 0.745391 0.335600
#
# Coordination Sequence:
#
# PCOD9525782 Si02
#       4
#    16  16  16  16
#     4  10  20  36  62  88 123 161 198 257 314 363
#     4  10  21  36  61  88 124 159 204 257 313 369
#     4   9  22  42  64  90 122 167 216 257 305 377
#     4  10  19  31  54  85 119 157 198 248 308 373
#
# _framework density 19.104118
#
# number of rings (size 3 to 8) (size 9 to 14) (size 15 to 20)
#    1.500    0.750    0.000    3.750    0.000    4.000 
#    0.000    6.250    0.000    1.500    0.000    0.000 
#    0.000    0.000    0.000    0.000    0.000    0.000 
#
# Total GULP energy -178213.310521 kJ/mol
# GULP energy per Si atom -5569.165954 kJ/mol
# Density = 1.906064 g / cm^3
# Si number density = 19.104118 Si / 1000 Ang^3
#
#
#
# Elastic Constant Matrix: (Units=GPa)
#
#
# Indices 1 2 3 4 5 6 
#
# 1 108.0248 21.3086 27.7559 0.0000 0.0000 0.0000
# 2 21.3086 122.2904 40.0584 0.0000 0.0000 0.0000
# 3 27.7559 40.0584 118.6814 0.0000 0.0000 0.0000
# 4 0.0000 0.0000 0.0000 7.6866 0.0000 0.0000
# 5 0.0000 0.0000 0.0000 0.0000 15.8369 0.0000
# 6 0.0000 0.0000 0.0000 0.0000 0.0000 11.1384
#
#
#
# Elastic Compliance Matrix: (Units=1/GPa)
#
#
# Indices 1 2 3 4 5 6 
#
# 1 0.009978 -0.001095 -0.001964 0.000000 0.000000 0.000000
# 2 -0.001095 0.009314 -0.002888 0.000000 0.000000 0.000000
# 3 -0.001964 -0.002888 0.009860 0.000000 0.000000 0.000000
# 4 0.000000 0.000000 0.000000 0.130097 0.000000 0.000000
# 5 0.000000 0.000000 0.000000 0.000000 0.063143 0.000000
# 6 0.000000 0.000000 0.000000 0.000000 0.000000 0.089780
#
#
# Mechanical properties :
#
#
# Convention : Reuss Voigt Hill
#
# Bulk Modulus (GPa) = 57.94338 58.58247 58.26292
# Shear Modulus (GPa) = 15.15988 24.25729 19.70859
#
# Velocity S-wave (km/s) = 2.82004 3.56721 3.21540
# Velocity P-wave (km/s) = 6.40310 6.90638 6.65949
#
# Compressibility (1/GPa) = 0.01725823
#
# Stress axis : x y z
#
# Youngs Moduli (GPa) = 100.22283 107.36536 101.42160
#
# Poissons Ratio (x) = 0.11760 0.19917
# Poissons Ratio (y) = 0.10977 0.29286
# Poissons Ratio (z) = 0.19682 0.31003
#
# Static dielectric constant tensor:
#      x y z
#    x 1.676870 0.000000 0.000000 
#    y 0.000000 1.661980 0.000000 
#    z 0.000000 0.000000 1.678370 
# 
# From -- ./inp_files/41421.got.cif
#   From: 2010.05.17/outbox.cif.g08.bks.cpg/sg72_21_cif.got.tgz:41421.got - 2010.06.03 17:03:01.
