data_PCOD9525012
_publ_section_title
;
Structure prediction by ZEFSAII (Michael W. Deem and Ramdas Pophale) SiO2 
 PCOD9525012
Probable space group: I B A M
;
_chemical_formula_sum "Si O2"
_cell_formula_units_Z 112
_cell_length_a 19.485135
_cell_length_b 21.039435
_cell_length_c 18.366483
_cell_angle_alpha 90.000000
_cell_angle_beta 90.000000
_cell_angle_gamma 90.000000
_cell_volume 7529.454153
_symmetry_space_group_name_H-M "I B A M"
_symmetry_group_IT_number 72
_symmetry_cell_setting 'orthorhombic'
loop_
_space_group_symop_operation_xyz
x,y,z
-x,-y,z
x,-y,1/2-z
-x,y,1/2-z
-x,-y,-z
x,y,-z
-x,y,1/2+z
x,-y,1/2+z
1/2+x,1/2+y,1/2+z
1/2-x,1/2-y,1/2+z
1/2+x,1/2-y,-z
1/2-x,1/2+y,-z
1/2-x,1/2-y,1/2-z
1/2+x,1/2+y,1/2-z
1/2-x,1/2+y,z
1/2+x,1/2-y,z
loop_
_atom_site_type_symbol
_atom_site_label
_atom_site_fract_x
_atom_site_fract_y
_atom_site_fract_z
Si Si1 0.202152 0.137813 0.084734
Si Si2 0.308182 0.751942 0.583882
Si Si3 0.903989 0.230883 0.337551
Si Si4 0.288712 0.429691 0.269124
Si Si5 0.930155 0.124789 0.783275
Si Si6 0.221698 0.691301 0.701451
Si Si7 0.542755 0.288864 0.413231
O O1 0.270425 0.180869 0.094508
O O2 0.141324 0.185468 0.109724
O O3 0.202736 0.082416 0.144440
O O4 0.195531 0.120057 0.000000
O O5 0.299683 0.735064 0.500000
O O6 0.269210 0.699155 0.630724
O O7 0.388715 0.752325 0.599550
O O8 0.917478 0.189042 0.265015
O O9 0.856321 0.290658 0.317715
O O10 0.975358 0.242499 0.378050
O O11 0.265522 0.500000 0.250000
O O12 0.362577 0.416350 0.230916
O O13 0.238035 0.374698 0.239828
O O14 0.943932 0.147180 0.865766
O O15 0.000000 0.095950 0.750000
O O16 0.250000 0.750000 0.750000
O O17 0.534653 0.299232 0.500000
#
# Coordination Sequence:
#
# PCOD9525012 Si02
#       7
#    16  16  16  16  16  16  16
#     4   9  17  31  48  68  94 128 163 202 246 295
#     4   9  16  26  47  72  95 123 158 200 248 297
#     4   9  17  27  49  70  95 124 163 205 247 293
#     4  11  21  32  49  72 100 134 175 209 245 302
#     4   9  17  30  46  67  96 132 163 193 242 288
#     4  11  16  32  50  68  95 127 164 208 253 291
#     4  10  17  26  43  75 104 122 156 206 252 299
#
# _framework density 14.874916000000001
#
# number of rings (size 3 to 8) (size 9 to 14) (size 15 to 20)
#    0.000    2.286    5.714    0.429    0.000    0.857 
#    0.000    1.429    0.000    0.000    0.000    8.000 
#    0.000    3.429    0.000    0.000    0.000    0.000 
#
# Total GULP energy -311778.158634 kJ/mol
# GULP energy per Si atom -5567.467118 kJ/mol
# Density = 1.484106 g / cm^3
# Si number density = 14.874916 Si / 1000 Ang^3
#
#
#
# Elastic Constant Matrix: (Units=GPa)
#
#
# Indices 1 2 3 4 5 6 
#
# 1 62.2430 18.0638 30.2053 0.0000 0.0000 0.0000
# 2 18.0638 63.1948 28.3367 0.0000 0.0000 0.0000
# 3 30.2053 28.3367 85.7064 0.0000 0.0000 0.0000
# 4 0.0000 0.0000 0.0000 10.8565 0.0000 0.0000
# 5 0.0000 0.0000 0.0000 0.0000 22.7860 0.0000
# 6 0.0000 0.0000 0.0000 0.0000 0.0000 12.1737
#
#
#
# Elastic Compliance Matrix: (Units=1/GPa)
#
#
# Indices 1 2 3 4 5 6 
#
# 1 0.019847 -0.002978 -0.006010 0.000000 0.000000 0.000000
# 2 -0.002978 0.019025 -0.005241 0.000000 0.000000 0.000000
# 3 -0.006010 -0.005241 0.015518 0.000000 0.000000 0.000000
# 4 0.000000 0.000000 0.000000 0.092110 0.000000 0.000000
# 5 0.000000 0.000000 0.000000 0.000000 0.043887 0.000000
# 6 0.000000 0.000000 0.000000 0.000000 0.000000 0.082145
#
#
# Mechanical properties :
#
#
# Convention : Reuss Voigt Hill
#
# Bulk Modulus (GPa) = 38.56074 40.48398 39.52236
# Shear Modulus (GPa) = 16.14810 18.13248 17.14029
#
# Velocity S-wave (km/s) = 3.29841 3.49520 3.39823
# Velocity P-wave (km/s) = 6.36283 6.60030 6.48265
#
# Compressibility (1/GPa) = 0.02593311
#
# Stress axis : x y z
#
# Youngs Moduli (GPa) = 50.38581 52.56160 64.43931
#
# Poissons Ratio (x) = 0.15654 0.38727
# Poissons Ratio (y) = 0.15006 0.33770
# Poissons Ratio (z) = 0.30281 0.27546
#
# Static dielectric constant tensor:
#      x y z
#    x 1.527400 0.000000 0.000000 
#    y 0.000000 1.464960 0.000000 
#    z 0.000000 0.000000 1.562350 
# 
# From -- ./inp_files/31933.got.cif
#   From: 2010.05.17/outbox.cif.g08.bks.cpg/sg72_16_cif.got.tgz:31933.got - 2010.06.03 17:03:01.
