data_PCOD9525193
_publ_section_title
;
Structure prediction by ZEFSAII (Michael W. Deem and Ramdas Pophale) SiO2 
 PCOD9525193
Probable space group: I B A M
;
_chemical_formula_sum "Si O2"
_cell_formula_units_Z 112
_cell_length_a 14.636206
_cell_length_b 28.116056
_cell_length_c 15.548027
_cell_angle_alpha 90.000000
_cell_angle_beta 90.000000
_cell_angle_gamma 90.000000
_cell_volume 6398.205712
_symmetry_space_group_name_H-M "I B A M"
_symmetry_group_IT_number 72
_symmetry_cell_setting 'orthorhombic'
loop_
_space_group_symop_operation_xyz
x,y,z
-x,-y,z
x,-y,1/2-z
-x,y,1/2-z
-x,-y,-z
x,y,-z
-x,y,1/2+z
x,-y,1/2+z
1/2+x,1/2+y,1/2+z
1/2-x,1/2-y,1/2+z
1/2+x,1/2-y,-z
1/2-x,1/2+y,-z
1/2-x,1/2-y,1/2-z
1/2+x,1/2+y,1/2-z
1/2-x,1/2+y,z
1/2+x,1/2-y,z
loop_
_atom_site_type_symbol
_atom_site_label
_atom_site_fract_x
_atom_site_fract_y
_atom_site_fract_z
Si Si1 0.726151 0.159483 0.096560
Si Si2 0.362390 0.748299 0.404375
Si Si3 0.876535 0.909056 0.665115
Si Si4 0.606128 0.203924 0.767529
Si Si5 0.572865 0.716768 0.404326
Si Si6 0.889974 0.005088 0.405156
Si Si7 0.085026 0.109657 0.138117
O O1 0.787515 0.207209 0.100060
O O2 0.796841 0.117578 0.116003
O O3 0.653840 0.164694 0.173326
O O4 0.687550 0.155082 0.000000
O O5 0.358818 0.770288 0.500000
O O6 0.351137 0.784175 0.325107
O O7 0.462589 0.723313 0.396371
O O8 0.889516 0.890035 0.761415
O O9 0.976168 0.898604 0.624381
O O10 0.858303 0.965600 0.662490
O O11 0.500000 0.193126 0.750000
O O12 0.610272 0.251660 0.826442
O O13 0.598137 0.734804 0.500000
O O14 0.602827 0.662031 0.397770
O O15 0.860115 0.989347 0.500000
O O16 0.869257 0.060886 0.394966
O O17 0.000000 0.000000 0.401000
#
# Coordination Sequence:
#
# PCOD9525193 Si02
#       7
#    16  16  16  16  16  16  16
#     4  11  20  32  50  72  96 130 174 216 256 308
#     4   9  18  30  47  66  90 124 165 211 259 302
#     4  10  19  29  45  68 100 135 175 211 247 293
#     4  10  21  34  49  68  98 130 171 218 263 307
#     4  10  18  29  45  67  95 132 173 213 254 302
#     4   9  17  28  42  65  97 134 171 206 240 289
#     4  10  18  28  46  67  99 138 176 205 249 298
#
# _framework density 17.504908
#
# number of rings (size 3 to 8) (size 9 to 14) (size 15 to 20)
#    0.000    2.143    1.429    3.000    4.000    3.429 
#    0.000    0.000    0.000    0.857    0.000    0.000 
#    0.000    2.286    0.000    6.714    0.000    0.857 
#
# Total GULP energy -312158.907917 kJ/mol
# GULP energy per Si atom -5574.266213 kJ/mol
# Density = 1.746507 g / cm^3
# Si number density = 17.504908 Si / 1000 Ang^3
#
#
#
# Elastic Constant Matrix: (Units=GPa)
#
#
# Indices 1 2 3 4 5 6 
#
# 1 30.5525 21.9805 26.5437 0.0000 0.0000 0.0000
# 2 21.9805 47.2132 29.2660 0.0000 0.0000 0.0000
# 3 26.5437 29.2660 108.4926 0.0001 0.0000 0.0000
# 4 0.0000 0.0000 0.0001 20.1381 0.0000 0.0000
# 5 0.0000 0.0000 0.0000 0.0000 11.2197 0.0000
# 6 0.0000 0.0000 0.0000 0.0000 0.0000 14.3968
#
#
#
# Elastic Compliance Matrix: (Units=1/GPa)
#
#
# Indices 1 2 3 4 5 6 
#
# 1 0.054136 -0.020405 -0.007740 0.000000 0.000000 0.000000
# 2 -0.020405 0.033125 -0.003943 0.000000 0.000000 0.000000
# 3 -0.007740 -0.003943 0.012175 0.000000 0.000000 0.000000
# 4 0.000000 0.000000 0.000000 0.049657 0.000000 0.000000
# 5 0.000000 0.000000 0.000000 0.000000 0.089129 0.000000
# 6 0.000000 0.000000 0.000000 0.000000 0.000000 0.069460
#
#
# Mechanical properties :
#
#
# Convention : Reuss Voigt Hill
#
# Bulk Modulus (GPa) = 28.36292 37.98208 33.17250
# Shear Modulus (GPa) = 13.03406 16.38213 14.70809
#
# Velocity S-wave (km/s) = 2.73169 3.06250 2.90181
# Velocity P-wave (km/s) = 5.11737 5.85237 5.49717
#
# Compressibility (1/GPa) = 0.03525730
#
# Stress axis : x y z
#
# Youngs Moduli (GPa) = 18.47216 30.18908 82.13803
#
# Poissons Ratio (x) = 0.61602 0.63578
# Poissons Ratio (y) = 0.37693 0.32388
# Poissons Ratio (z) = 0.14298 0.11904
#
# Static dielectric constant tensor:
#      x y z
#    x 1.600490 0.000000 0.000000 
#    y 0.000000 1.599980 0.000000 
#    z 0.000000 0.000000 1.652120 
# 
# From -- ./inp_files/22289.got.cif
#   From: 2010.05.17/outbox.cif.g08.bks.cpg/sg72_12_cif.got.tgz:22289.got - 2010.06.03 17:03:01.
