data_PCOD9525535
_publ_section_title
;
Structure prediction by ZEFSAII (Michael W. Deem and Ramdas Pophale) SiO2 
 PCOD9525535
Probable space group: I B A M
;
_chemical_formula_sum "Si O2"
_cell_formula_units_Z 72
_cell_length_a 19.261686
_cell_length_b 10.595519
_cell_length_c 19.952981
_cell_angle_alpha 90.000000
_cell_angle_beta 90.000000
_cell_angle_gamma 90.000000
_cell_volume 4072.155207
_symmetry_space_group_name_H-M "I B A M"
_symmetry_group_IT_number 72
_symmetry_cell_setting 'orthorhombic'
loop_
_space_group_symop_operation_xyz
x,y,z
-x,-y,z
x,-y,1/2-z
-x,y,1/2-z
-x,-y,-z
x,y,-z
-x,y,1/2+z
x,-y,1/2+z
1/2+x,1/2+y,1/2+z
1/2-x,1/2-y,1/2+z
1/2+x,1/2-y,-z
1/2-x,1/2+y,-z
1/2-x,1/2-y,1/2-z
1/2+x,1/2+y,1/2-z
1/2-x,1/2+y,z
1/2+x,1/2-y,z
loop_
_atom_site_type_symbol
_atom_site_label
_atom_site_fract_x
_atom_site_fract_y
_atom_site_fract_z
Si Si1 0.433433 0.416689 0.575611
Si Si2 0.843045 0.313271 0.000000
Si Si3 0.745911 0.794887 0.612938
Si Si4 0.509144 0.195403 0.000000
Si Si5 0.348845 0.101276 0.500000
Si Si6 0.193159 0.954814 0.674999
O O1 0.500000 0.500000 0.590654
O O2 0.406725 0.451535 0.500000
O O3 0.465975 0.278562 0.563842
O O4 0.375298 0.437467 0.630021
O O5 0.809394 0.246866 0.935248
O O6 0.819214 0.459800 0.000000
O O7 0.926548 0.310944 0.000000
O O8 0.680814 0.821052 0.563322
O O9 0.731322 0.680153 0.664221
O O10 0.762593 0.928859 0.645740
O O11 0.567546 0.087206 0.000000
O O12 0.176978 0.000000 0.750000
#
# Coordination Sequence:
#
# PCOD9525535 Si02
#       6
#    16   8  16   8   8  16
#     4   9  19  35  59  88 119 149 192 253 298 354
#     4  11  22  35  64  94 118 157 201 248 321 352
#     4  11  23  39  59  90 120 160 204 253 296 367
#     4  10  18  34  58  89 122 147 192 252 304 362
#     4  11  20  35  62  87 124 153 199 256 310 360
#     4  12  24  40  61  86 124 164 201 249 302 360
#
# _framework density 17.681055000000001
#
# number of rings (size 3 to 8) (size 9 to 14) (size 15 to 20)
#    0.667    0.667    4.444    2.333    4.667    0.444 
#    0.000    0.000    0.000    0.000    0.000    1.556 
#    0.000    0.000    0.000    0.000    0.000    0.000 
#
# Total GULP energy -200467.931807 kJ/mol
# GULP energy per Si atom -5568.553661 kJ/mol
# Density = 1.764081 g / cm^3
# Si number density = 17.681055 Si / 1000 Ang^3
#
#
#
# Elastic Constant Matrix: (Units=GPa)
#
#
# Indices 1 2 3 4 5 6 
#
# 1 104.4065 15.8002 46.2216 0.0000 0.0000 0.0000
# 2 15.8002 86.9427 13.1732 0.0000 0.0000 0.0000
# 3 46.2216 13.1732 75.0738 0.0000 0.0000 0.0000
# 4 0.0000 0.0000 0.0000 19.0049 0.0000 0.0000
# 5 0.0000 0.0000 0.0000 0.0000 20.1907 0.0000
# 6 0.0000 0.0000 0.0000 0.0000 0.0000 29.9704
#
#
#
# Elastic Compliance Matrix: (Units=1/GPa)
#
#
# Indices 1 2 3 4 5 6 
#
# 1 0.013289 -0.001207 -0.007970 0.000000 0.000000 0.000000
# 2 -0.001207 0.011926 -0.001349 0.000000 0.000000 0.000000
# 3 -0.007970 -0.001349 0.018464 0.000000 0.000000 0.000000
# 4 0.000000 0.000000 0.000000 0.052618 0.000000 0.000000
# 5 0.000000 0.000000 0.000000 0.000000 0.049528 0.000000
# 6 0.000000 0.000000 0.000000 0.000000 0.000000 0.033366
#
#
# Mechanical properties :
#
#
# Convention : Reuss Voigt Hill
#
# Bulk Modulus (GPa) = 44.19802 46.31256 45.25529
# Shear Modulus (GPa) = 24.06327 26.58174 25.32250
#
# Velocity S-wave (km/s) = 3.69313 3.88158 3.78852
# Velocity P-wave (km/s) = 6.57550 6.80728 6.69239
#
# Compressibility (1/GPa) = 0.02262545
#
# Stress axis : x y z
#
# Youngs Moduli (GPa) = 75.24995 83.85262 54.15963
#
# Poissons Ratio (x) = 0.10125 0.43165
# Poissons Ratio (y) = 0.09086 0.07307
# Poissons Ratio (z) = 0.59974 0.11313
#
# Static dielectric constant tensor:
#      x y z
#    x 1.597190 0.000000 0.000000 
#    y 0.000000 1.653470 0.000000 
#    z 0.000000 0.000000 1.597000 
# 
# From -- ./inp_files/38796.got.cif
#   From: 2010.05.17/outbox.cif.g08.bks.cpg/sg72_20_cif.got.tgz:38796.got - 2010.06.03 17:03:01.
