data_PCOD9525368
_publ_section_title
;
Structure prediction by ZEFSAII (Michael W. Deem and Ramdas Pophale) SiO2 
 PCOD9525368
Probable space group: I B A M
;
_chemical_formula_sum "Si O2"
_cell_formula_units_Z 80
_cell_length_a 18.115681
_cell_length_b 29.202955
_cell_length_c 8.594353
_cell_angle_alpha 90.000000
_cell_angle_beta 90.000000
_cell_angle_gamma 90.000000
_cell_volume 4546.682746
_symmetry_space_group_name_H-M "I B A M"
_symmetry_group_IT_number 72
_symmetry_cell_setting 'orthorhombic'
loop_
_space_group_symop_operation_xyz
x,y,z
-x,-y,z
x,-y,1/2-z
-x,y,1/2-z
-x,-y,-z
x,y,-z
-x,y,1/2+z
x,-y,1/2+z
1/2+x,1/2+y,1/2+z
1/2-x,1/2-y,1/2+z
1/2+x,1/2-y,-z
1/2-x,1/2+y,-z
1/2-x,1/2-y,1/2-z
1/2+x,1/2+y,1/2-z
1/2-x,1/2+y,z
1/2+x,1/2-y,z
loop_
_atom_site_type_symbol
_atom_site_label
_atom_site_fract_x
_atom_site_fract_y
_atom_site_fract_z
Si Si1 0.760276 0.051014 0.187192
Si Si2 0.811229 0.214460 0.686326
Si Si3 0.581579 0.215214 0.685863
Si Si4 0.703388 0.145072 0.812950
Si Si5 0.925462 0.948138 0.314042
O O1 0.704926 0.091664 0.233028
O O2 0.843367 0.067131 0.232709
O O3 0.746347 0.000000 0.250000
O O4 0.759681 0.048019 0.000000
O O5 0.810319 0.213214 0.500000
O O6 0.750000 0.250000 0.750000
O O7 0.886662 0.236802 0.746819
O O8 0.780576 0.167456 0.756319
O O9 0.500000 0.206959 0.750000
O O10 0.582275 0.217078 0.500000
O O11 0.637217 0.174986 0.741442
O O12 0.699575 0.148804 0.000000
O O13 0.930200 0.948511 0.500000
O O14 0.000000 0.924924 0.250000
O O15 0.926569 0.000000 0.250000
#
# Coordination Sequence:
#
# PCOD9525368 Si02
#       5
#    16  16  16  16  16
#     4   9  19  32  49  71 100 136 178 221 262 304
#     4  10  18  31  51  76 102 132 165 203 249 303
#     4  11  21  35  55  80 106 135 168 209 257 313
#     4  10  19  34  53  76 105 139 174 214 259 308
#     4   9  15  25  40  61  85 116 154 197 243 288
#
# _framework density 17.595244000000001
#
# number of rings (size 3 to 8) (size 9 to 14) (size 15 to 20)
#    0.000    2.200    0.000    7.800    0.000    2.400 
#    0.000    1.000    0.000    3.000    0.000    4.200 
#    0.000    0.000    0.000    0.000    0.000    0.000 
#
# Total GULP energy -222789.436368 kJ/mol
# GULP energy per Si atom -5569.735909 kJ/mol
# Density = 1.755520 g / cm^3
# Si number density = 17.595244 Si / 1000 Ang^3
#
#
#
# Elastic Constant Matrix: (Units=GPa)
#
#
# Indices 1 2 3 4 5 6 
#
# 1 96.2731 44.1542 30.3886 0.0000 0.0000 0.0000
# 2 44.1542 98.5458 22.6741 0.0000 -0.0003 -0.0001
# 3 30.3886 22.6741 91.0097 -0.0024 -0.0005 0.0001
# 4 0.0000 0.0000 -0.0024 17.3202 -0.0003 0.0000
# 5 0.0000 -0.0003 -0.0005 -0.0003 28.6624 0.0001
# 6 0.0000 -0.0001 0.0001 0.0000 0.0001 19.9113
#
#
#
# Elastic Compliance Matrix: (Units=1/GPa)
#
#
# Indices 1 2 3 4 5 6 
#
# 1 0.013943 -0.005491 -0.003288 0.000000 0.000000 0.000000
# 2 -0.005491 0.012927 -0.001387 0.000000 0.000000 0.000000
# 3 -0.003288 -0.001387 0.012431 0.000002 0.000000 0.000000
# 4 0.000000 0.000000 0.000002 0.057736 0.000001 0.000000
# 5 0.000000 0.000000 0.000000 0.000001 0.034889 0.000000
# 6 0.000000 0.000000 0.000000 0.000000 0.000000 0.050223
#
#
# Mechanical properties :
#
#
# Convention : Reuss Voigt Hill
#
# Bulk Modulus (GPa) = 52.71530 53.36250 53.03890
# Shear Modulus (GPa) = 23.94592 25.75289 24.84940
#
# Velocity S-wave (km/s) = 3.69308 3.82989 3.76211
# Velocity P-wave (km/s) = 6.94335 7.06761 7.00575
#
# Compressibility (1/GPa) = 0.01896982
#
# Stress axis : x y z
#
# Youngs Moduli (GPa) = 71.71949 77.35753 80.44263
#
# Poissons Ratio (x) = 0.42476 0.26447
# Poissons Ratio (y) = 0.39381 0.11159
# Poissons Ratio (z) = 0.23579 0.10731
#
# Static dielectric constant tensor:
#      x y z
#    x 1.622260 0.000000 0.000000 
#    y 0.000000 1.714410 0.000000 
#    z 0.000000 0.000000 1.576950 
# 
# From -- ./inp_files/5035.got.cif
#   From: 2010.05.17/outbox.cif.g08.bks.cpg/sg72_3_cif.got.tgz:5035.got - 2010.06.03 17:03:01.
