data_PCOD9525600
_publ_section_title
;
Structure prediction by ZEFSAII (Michael W. Deem and Ramdas Pophale) SiO2 
 PCOD9525600
Probable space group: I B A M
;
_chemical_formula_sum "Si O2"
_cell_formula_units_Z 116
_cell_length_a 8.394119
_cell_length_b 24.016381
_cell_length_c 29.661813
_cell_angle_alpha 90.000000
_cell_angle_beta 90.000000
_cell_angle_gamma 90.000000
_cell_volume 5979.713534
_symmetry_space_group_name_H-M "I B A M"
_symmetry_group_IT_number 72
_symmetry_cell_setting 'orthorhombic'
loop_
_space_group_symop_operation_xyz
x,y,z
-x,-y,z
x,-y,1/2-z
-x,y,1/2-z
-x,-y,-z
x,y,-z
-x,y,1/2+z
x,-y,1/2+z
1/2+x,1/2+y,1/2+z
1/2-x,1/2-y,1/2+z
1/2+x,1/2-y,-z
1/2-x,1/2+y,-z
1/2-x,1/2-y,1/2-z
1/2+x,1/2+y,1/2-z
1/2-x,1/2+y,z
1/2+x,1/2-y,z
loop_
_atom_site_type_symbol
_atom_site_label
_atom_site_fract_x
_atom_site_fract_y
_atom_site_fract_z
Si Si1 0.837787 0.464819 0.550379
Si Si2 0.798400 0.938388 0.911224
Si Si3 0.137639 0.669709 0.946500
Si Si4 0.216859 0.715408 0.553550
Si Si5 0.065803 0.093361 0.703954
Si Si6 0.000000 0.500000 0.750000
Si Si7 0.363232 0.619471 0.606283
Si Si8 0.757005 0.019011 0.314067
O O1 0.849460 0.439380 0.500000
O O2 0.708712 0.514380 0.551178
O O3 0.780518 0.418930 0.586429
O O4 0.000000 0.500000 0.558642
O O5 0.683379 0.886611 0.921249
O O6 0.738097 0.972475 0.867159
O O7 0.974340 0.913366 0.905598
O O8 0.257908 0.719942 0.934930
O O9 0.960929 0.693135 0.937717
O O10 0.150859 0.658571 0.000000
O O11 0.248804 0.710254 0.500000
O O12 0.339705 0.677294 0.580818
O O13 0.122479 0.127596 0.660356
O O14 0.000000 0.121985 0.750000
O O15 0.907246 0.058011 0.693961
O O16 0.195939 0.042806 0.703597
O O17 0.893833 0.464484 0.784599
#
# Coordination Sequence:
#
# PCOD9525600 Si02
#       8
#    16  16  16  16  16   4  16  16
#     4  11  23  36  50  77 121 162 196 239 294 358
#     4  11  22  35  53  82 112 154 197 239 292 354
#     4  10  21  38  59  83 117 155 198 251 296 348
#     4  10  21  38  59  85 113 151 201 250 298 352
#     4  10  18  38  53  75 113 154 188 240 294 358
#     4  12  20  30  52  84 102 146 188 240 296 342
#     4  11  22  35  57  83 111 155 200 243 301 357
#     4  10  20  32  53  77 111 144 188 233 288 350
#
# _framework density 19.398924000000001
#
# number of rings (size 3 to 8) (size 9 to 14) (size 15 to 20)
#    0.000    1.517    2.759    3.310    0.966    7.172 
#    0.000    0.000    0.000    0.000    1.793    2.897 
#    0.000    0.000    0.000    0.000    0.000    0.000 
#
# Total GULP energy -323123.229686 kJ/mol
# GULP energy per Si atom -5571.090167 kJ/mol
# Density = 1.935477 g / cm^3
# Si number density = 19.398924 Si / 1000 Ang^3
#
#
#
# Elastic Constant Matrix: (Units=GPa)
#
#
# Indices 1 2 3 4 5 6 
#
# 1 68.7679 12.9129 38.0591 0.0000 0.0000 0.0000
# 2 12.9129 71.0880 27.2731 0.0000 0.0000 0.0000
# 3 38.0591 27.2731 98.3459 0.0000 0.0000 0.0000
# 4 0.0000 0.0000 0.0000 12.7334 0.0000 0.0000
# 5 0.0000 0.0000 0.0000 0.0000 26.8933 0.0000
# 6 0.0000 0.0000 0.0000 0.0000 0.0000 27.4322
#
#
#
# Elastic Compliance Matrix: (Units=1/GPa)
#
#
# Indices 1 2 3 4 5 6 
#
# 1 0.018535 -0.000688 -0.006982 0.000000 0.000000 0.000000
# 2 -0.000688 0.015767 -0.004106 0.000000 0.000000 0.000000
# 3 -0.006982 -0.004106 0.014009 0.000000 0.000000 0.000000
# 4 0.000000 0.000000 0.000000 0.078534 0.000000 0.000000
# 5 0.000000 0.000000 0.000000 0.000000 0.037184 0.000000
# 6 0.000000 0.000000 0.000000 0.000000 0.000000 0.036454
#
#
# Mechanical properties :
#
#
# Convention : Reuss Voigt Hill
#
# Bulk Modulus (GPa) = 40.39026 43.85466 42.12246
# Shear Modulus (GPa) = 21.52494 24.07556 22.80025
#
# Velocity S-wave (km/s) = 3.33467 3.52671 3.43204
# Velocity P-wave (km/s) = 5.97434 6.26414 6.12096
#
# Compressibility (1/GPa) = 0.02475844
#
# Stress axis : x y z
#
# Youngs Moduli (GPa) = 53.95175 63.42173 71.38285
#
# Poissons Ratio (x) = 0.04364 0.49840
# Poissons Ratio (y) = 0.03713 0.29312
# Poissons Ratio (z) = 0.37670 0.26043
#
# Static dielectric constant tensor:
#      x y z
#    x 1.763430 0.000000 0.000000 
#    y 0.000000 1.662200 0.000000 
#    z 0.000000 0.000000 1.801520 
# 
# From -- ./inp_files/50987.got.cif
#   From: 2010.05.17/outbox.cif.g08.bks.cpg/sg72_26_cif.got.tgz:50987.got - 2010.06.03 17:03:01.
