data_PCOD9525733
_publ_section_title
;
Structure prediction by ZEFSAII (Michael W. Deem and Ramdas Pophale) SiO2 
 PCOD9525733
Probable space group: I B A M
;
_chemical_formula_sum "Si O2"
_cell_formula_units_Z 88
_cell_length_a 10.305728
_cell_length_b 19.180441
_cell_length_c 17.895263
_cell_angle_alpha 90.000000
_cell_angle_beta 90.000000
_cell_angle_gamma 90.000000
_cell_volume 3537.328146
_symmetry_space_group_name_H-M "I B A M"
_symmetry_group_IT_number 72
_symmetry_cell_setting 'orthorhombic'
loop_
_space_group_symop_operation_xyz
x,y,z
-x,-y,z
x,-y,1/2-z
-x,y,1/2-z
-x,-y,-z
x,y,-z
-x,y,1/2+z
x,-y,1/2+z
1/2+x,1/2+y,1/2+z
1/2-x,1/2-y,1/2+z
1/2+x,1/2-y,-z
1/2-x,1/2+y,-z
1/2-x,1/2-y,1/2-z
1/2+x,1/2+y,1/2-z
1/2-x,1/2+y,z
1/2+x,1/2-y,z
loop_
_atom_site_type_symbol
_atom_site_label
_atom_site_fract_x
_atom_site_fract_y
_atom_site_fract_z
Si Si1 0.077631 0.121918 0.676259
Si Si2 0.000000 0.613697 0.750000
Si Si3 0.994922 0.105187 0.000000
Si Si4 0.667875 0.065706 0.874361
Si Si5 0.767898 0.014265 0.500000
Si Si6 0.605355 0.221502 0.082933
Si Si7 0.657834 0.775873 0.832399
O O1 0.196169 0.068684 0.668403
O O2 0.126776 0.199145 0.697954
O O3 0.000000 0.099176 0.750000
O O4 0.024901 0.130015 0.588779
O O5 0.949370 0.569593 0.818004
O O6 0.881735 0.664571 0.725848
O O7 0.881427 0.045465 0.000000
O O8 0.145047 0.082030 0.000000
O O9 0.678082 0.001248 0.929511
O O10 0.660613 0.142088 0.914805
O O11 0.455587 0.214728 0.105876
O O12 0.698435 0.268532 0.134738
O O13 0.613823 0.249970 0.000000
#
# Coordination Sequence:
#
# PCOD9525733 Si02
#       7
#    16   8   8  16   8  16  16
#     4  10  20  34  54  85 121 161 192 258 317 377
#     4  10  20  34  48  84 117 161 202 236 290 402
#     4   9  20  34  59  85 117 149 207 254 330 383
#     4   9  19  32  55  76 116 153 201 241 312 373
#     4   9  16  38  57  83 109 153 189 273 310 366
#     4  10  19  31  48  77 111 159 201 239 290 376
#     4  10  21  30  50  75 125 160 198 241 302 366
#
# _framework density 24.877533
#
# number of rings (size 3 to 8) (size 9 to 14) (size 15 to 20)
#    0.000    2.364    1.818    0.545    7.636    2.182 
#    0.000    7.273    0.000    1.091    0.000    3.818 
#    0.000    1.455    0.000    0.000    0.000    0.000 
#
# Total GULP energy -245495.194053 kJ/mol
# GULP energy per Si atom -5579.436228 kJ/mol
# Density = 2.482091 g / cm^3
# Si number density = 24.877533 Si / 1000 Ang^3
#
#
#
# Elastic Constant Matrix: (Units=GPa)
#
#
# Indices 1 2 3 4 5 6 
#
# 1 82.2960 19.5543 71.6613 0.0000 0.0000 0.0000
# 2 19.5543 52.8000 39.7735 0.0000 0.0000 0.0000
# 3 71.6613 39.7735 168.3021 0.0000 0.0000 0.0000
# 4 0.0000 0.0000 0.0000 8.9384 0.0000 0.0000
# 5 0.0000 0.0000 0.0000 0.0000 39.0811 0.0000
# 6 0.0000 0.0000 0.0000 0.0000 0.0000 30.7470
#
#
#
# Elastic Compliance Matrix: (Units=1/GPa)
#
#
# Indices 1 2 3 4 5 6 
#
# 1 0.019370 -0.001169 -0.007971 0.000000 0.000000 0.000000
# 2 -0.001169 0.023112 -0.004964 0.000000 0.000000 0.000000
# 3 -0.007971 -0.004964 0.010509 0.000000 0.000000 0.000000
# 4 0.000000 0.000000 0.000000 0.111876 0.000000 0.000000
# 5 0.000000 0.000000 0.000000 0.000000 0.025588 0.000000
# 6 0.000000 0.000000 0.000000 0.000000 0.000000 0.032524
#
#
# Mechanical properties :
#
#
# Convention : Reuss Voigt Hill
#
# Bulk Modulus (GPa) = 40.35182 62.81961 51.58571
# Shear Modulus (GPa) = 19.27167 27.24724 23.25946
#
# Velocity S-wave (km/s) = 2.78629 3.31305 3.06103
# Velocity P-wave (km/s) = 5.15816 6.31993 5.76837
#
# Compressibility (1/GPa) = 0.02478203
#
# Stress axis : x y z
#
# Youngs Moduli (GPa) = 51.62533 43.26818 95.15679
#
# Poissons Ratio (x) = 0.05058 0.75854
# Poissons Ratio (y) = 0.06035 0.47236
# Poissons Ratio (z) = 0.41153 0.21479
#
# Static dielectric constant tensor:
#      x y z
#    x 1.994550 0.000000 0.000000 
#    y 0.000000 2.006070 0.000000 
#    z 0.000000 0.000000 2.043450 
# 
# From -- ./inp_files/29317.got.cif
#   From: 2010.05.17/outbox.cif.g08.bks.cpg/sg72_15_cif.got.tgz:29317.got - 2010.06.03 17:03:01.
