data_PCOD9525899
_publ_section_title
;
Structure prediction by ZEFSAII (Michael W. Deem and Ramdas Pophale) SiO2 
 PCOD9525899
Probable space group: I B A M
;
_chemical_formula_sum "Si O2"
_cell_formula_units_Z 72
_cell_length_a 16.894411
_cell_length_b 26.276336
_cell_length_c 8.137490
_cell_angle_alpha 90.000000
_cell_angle_beta 90.000000
_cell_angle_gamma 90.000000
_cell_volume 3612.420763
_symmetry_space_group_name_H-M "I B A M"
_symmetry_group_IT_number 72
_symmetry_cell_setting 'orthorhombic'
loop_
_space_group_symop_operation_xyz
x,y,z
-x,-y,z
x,-y,1/2-z
-x,y,1/2-z
-x,-y,-z
x,y,-z
-x,y,1/2+z
x,-y,1/2+z
1/2+x,1/2+y,1/2+z
1/2-x,1/2-y,1/2+z
1/2+x,1/2-y,-z
1/2-x,1/2+y,-z
1/2-x,1/2-y,1/2-z
1/2+x,1/2+y,1/2-z
1/2-x,1/2+y,z
1/2+x,1/2-y,z
loop_
_atom_site_type_symbol
_atom_site_label
_atom_site_fract_x
_atom_site_fract_y
_atom_site_fract_z
Si Si1 0.859613 0.291171 0.314907
Si Si2 0.257277 0.373899 0.691950
Si Si3 0.500000 0.134074 0.250000
Si Si4 0.123746 0.557772 0.692642
Si Si5 0.589178 0.319597 0.801575
O O1 0.828001 0.284492 0.500000
O O2 0.795363 0.322665 0.213368
O O3 0.884355 0.236762 0.243893
O O4 0.938366 0.326061 0.328433
O O5 0.260015 0.387479 0.500000
O O6 0.210173 0.417563 0.787274
O O7 0.344850 0.360017 0.752203
O O8 0.565978 0.092578 0.304834
O O9 0.120697 0.500000 0.750000
O O10 0.099810 0.562695 0.500000
O O11 0.500000 0.330421 0.750000
O O12 0.591616 0.317681 0.000000
#
# Coordination Sequence:
#
# PCOD9525899 Si02
#       5
#    16  16   8  16  16
#     4  10  20  34  52  78 114 152 191 227 269 325
#     4  10  21  36  56  80 110 146 187 231 282 333
#     4  10  19  32  54  80 116 150 183 220 266 320
#     4  11  24  40  59  82 111 146 190 235 284 336
#     4  10  21  36  54  81 112 148 189 231 277 331
#
# _framework density 19.931232999999999
#
# number of rings (size 3 to 8) (size 9 to 14) (size 15 to 20)
#    0.000    1.778    1.111    4.333    0.000   12.444 
#    0.000    0.000    0.000    0.667    0.000    4.667 
#    0.000    0.000    0.000    0.000    0.000    0.000 
#
# Total GULP energy -200564.371425 kJ/mol
# GULP energy per Si atom -5571.232540 kJ/mol
# Density = 1.988587 g / cm^3
# Si number density = 19.931233 Si / 1000 Ang^3
#
#
#
# Elastic Constant Matrix: (Units=GPa)
#
#
# Indices 1 2 3 4 5 6 
#
# 1 84.0804 21.7431 1.3685 0.0000 0.0000 0.0000
# 2 21.7431 65.3666 4.4869 0.0000 0.0000 0.0000
# 3 1.3685 4.4869 43.5181 -0.0002 -0.0003 0.0000
# 4 0.0000 0.0000 -0.0002 15.3591 0.0000 0.0000
# 5 0.0000 0.0000 -0.0003 0.0000 17.5067 0.0000
# 6 0.0000 0.0000 0.0000 0.0000 0.0000 15.2587
#
#
#
# Elastic Compliance Matrix: (Units=1/GPa)
#
#
# Indices 1 2 3 4 5 6 
#
# 1 0.013013 -0.004331 0.000037 0.000000 0.000000 0.000000
# 2 -0.004331 0.016849 -0.001601 0.000000 0.000000 0.000000
# 3 0.000037 -0.001601 0.023143 0.000000 0.000000 0.000000
# 4 0.000000 0.000000 0.000000 0.065108 0.000000 0.000000
# 5 0.000000 0.000000 0.000000 0.000000 0.057121 0.000000
# 6 0.000000 0.000000 0.000000 0.000000 0.000000 0.065536
#
#
# Mechanical properties :
#
#
# Convention : Reuss Voigt Hill
#
# Bulk Modulus (GPa) = 24.26294 27.57356 25.91825
# Shear Modulus (GPa) = 18.77599 20.64934 19.71266
#
# Velocity S-wave (km/s) = 3.07259 3.22223 3.14830
# Velocity P-wave (km/s) = 4.97871 5.26385 5.12326
#
# Compressibility (1/GPa) = 0.04121512
#
# Stress axis : x y z
#
# Youngs Moduli (GPa) = 76.84760 59.35119 43.20986
#
# Poissons Ratio (x) = 0.25705 -0.00161
# Poissons Ratio (y) = 0.33283 0.06918
# Poissons Ratio (z) = -0.00287 0.09502
#
# Static dielectric constant tensor:
#      x y z
#    x 1.715550 0.000000 0.000000 
#    y 0.000000 1.687850 0.000000 
#    z 0.000000 0.000000 1.750010 
# 
# From -- ./inp_files/4719.got.cif
#   From: 2010.05.17/outbox.cif.g08.bks.cpg/sg72_3_cif.got.tgz:4719.got - 2010.06.03 17:03:01.
