data_PCOD9525364
_publ_section_title
;
Structure prediction by ZEFSAII (Michael W. Deem and Ramdas Pophale) SiO2 
 PCOD9525364
Probable space group: I B A M
;
_chemical_formula_sum "Si O2"
_cell_formula_units_Z 96
_cell_length_a 21.211724
_cell_length_b 15.078855
_cell_length_c 14.775598
_cell_angle_alpha 90.000000
_cell_angle_beta 90.000000
_cell_angle_gamma 90.000000
_cell_volume 4725.953012
_symmetry_space_group_name_H-M "I B A M"
_symmetry_group_IT_number 72
_symmetry_cell_setting 'orthorhombic'
loop_
_space_group_symop_operation_xyz
x,y,z
-x,-y,z
x,-y,1/2-z
-x,y,1/2-z
-x,-y,-z
x,y,-z
-x,y,1/2+z
x,-y,1/2+z
1/2+x,1/2+y,1/2+z
1/2-x,1/2-y,1/2+z
1/2+x,1/2-y,-z
1/2-x,1/2+y,-z
1/2-x,1/2-y,1/2-z
1/2+x,1/2+y,1/2-z
1/2-x,1/2+y,z
1/2+x,1/2-y,z
loop_
_atom_site_type_symbol
_atom_site_label
_atom_site_fract_x
_atom_site_fract_y
_atom_site_fract_z
Si Si1 0.692483 0.005878 0.610946
Si Si2 0.313047 0.383505 0.611201
Si Si3 0.839815 0.312483 0.390711
Si Si4 0.517186 0.767901 0.353810
Si Si5 0.450995 0.570139 0.104499
Si Si6 0.444203 0.060934 0.895214
O O1 0.693806 0.008832 0.500000
O O2 0.753199 0.060350 0.641176
O O3 0.625650 0.046555 0.642596
O O4 0.692610 0.903077 0.639020
O O5 0.314548 0.383696 0.500000
O O6 0.310100 0.280488 0.639642
O O7 0.380459 0.421801 0.643681
O O8 0.838752 0.312415 0.500000
O O9 0.913464 0.310299 0.364595
O O10 0.500000 0.756700 0.250000
O O11 0.520913 0.669606 0.394587
O O12 0.467543 0.838099 0.392480
O O13 0.500000 0.500000 0.144999
O O14 0.441731 0.542832 0.000000
O O15 0.500000 0.000000 0.854687
O O16 0.438892 0.032225 0.000000
#
# Coordination Sequence:
#
# PCOD9525364 Si02
#       6
#    16  16  16  16  16  16
#     4   9  16  28  48  74 101 133 168 209 257 305
#     4   8  15  28  48  76 103 126 162 209 259 311
#     4   9  16  31  52  72 104 141 170 209 269 312
#     4  11  21  32  50  77 104 139 173 213 258 312
#     4   9  18  35  57  79 102 131 169 217 265 303
#     4  10  18  31  51  75 102 133 171 213 261 306
#
# _framework density 20.313364
#
# number of rings (size 3 to 8) (size 9 to 14) (size 15 to 20)
#    0.000    2.667    1.667    2.500    0.000    0.667 
#    3.000    0.000    0.000    4.000    8.667    0.000 
#    0.000    0.000    0.000    0.000    0.000    0.000 
#
# Total GULP energy -267690.903691 kJ/mol
# GULP energy per Si atom -5576.893827 kJ/mol
# Density = 2.026713 g / cm^3
# Si number density = 20.313364 Si / 1000 Ang^3
#
#
#
# Elastic Constant Matrix: (Units=GPa)
#
#
# Indices 1 2 3 4 5 6 
#
# 1 173.0340 135.7175 5.2638 0.0000 0.0000 0.0000
# 2 135.7175 154.9044 -5.0123 0.0000 0.0000 0.0000
# 3 5.2638 -5.0123 32.9766 0.0000 0.0000 0.0000
# 4 0.0000 0.0000 0.0000 -64.3531 0.0000 0.0000
# 5 0.0000 0.0000 0.0000 0.0000 -7.2160 0.0000
# 6 0.0000 0.0000 0.0000 0.0000 0.0000 40.0640
#
#
#
# Elastic Compliance Matrix: (Units=1/GPa)
#
#
# Indices 1 2 3 4 5 6 
#
# 1 0.019499 -0.017269 -0.005737 0.000000 0.000000 0.000000
# 2 -0.017269 0.021782 0.006067 0.000000 0.000000 0.000000
# 3 -0.005737 0.006067 0.032162 0.000000 0.000000 0.000000
# 4 0.000000 0.000000 0.000000 -0.015539 0.000000 0.000000
# 5 0.000000 0.000000 0.000000 0.000000 -0.138582 0.000000
# 6 0.000000 0.000000 0.000000 0.000000 0.000000 0.024960
#
#
# Mechanical properties :
#
#
# Convention : Reuss Voigt Hill
#
# Bulk Modulus (GPa) = 25.27486 70.31702 47.79594
# Shear Modulus (GPa) = -577.91458 8.69540 -284.60959
#
# Velocity S-wave (km/s) = -16.88542 2.07121 -11.84963
# Velocity P-wave (km/s) = 19.17516 6.35698 12.79210
#
# Compressibility (1/GPa) = 0.03956501
#
# Stress axis : x y z
#
# Youngs Moduli (GPa) = 51.28587 45.90950 31.09215
#
# Poissons Ratio (x) = 0.79281 0.17838
# Poissons Ratio (y) = 0.88566 -0.18864
# Poissons Ratio (z) = 0.29424 -0.27854
#
# Static dielectric constant tensor:
#      x y z
#    x 1.694440 0.000000 0.000000 
#    y 0.000000 1.721210 0.000000 
#    z 0.000000 0.000000 1.757160 
# 
# From -- ./inp_files/21859.got.cif
#   From: 2010.05.17/outbox.cif.g08.bks.cpg/sg72_11_cif.got.tgz:21859.got - 2010.06.03 17:03:01.
