data_PCOD9525265
_publ_section_title
;
Structure prediction by ZEFSAII (Michael W. Deem and Ramdas Pophale) SiO2 
 PCOD9525265
Probable space group: I B A M
;
_chemical_formula_sum "Si O2"
_cell_formula_units_Z 88
_cell_length_a 33.069308
_cell_length_b 14.196740
_cell_length_c 7.623237
_cell_angle_alpha 90.000000
_cell_angle_beta 90.000000
_cell_angle_gamma 90.000000
_cell_volume 3578.929617
_symmetry_space_group_name_H-M "I B A M"
_symmetry_group_IT_number 72
_symmetry_cell_setting 'orthorhombic'
loop_
_space_group_symop_operation_xyz
x,y,z
-x,-y,z
x,-y,1/2-z
-x,y,1/2-z
-x,-y,-z
x,y,-z
-x,y,1/2+z
x,-y,1/2+z
1/2+x,1/2+y,1/2+z
1/2-x,1/2-y,1/2+z
1/2+x,1/2-y,-z
1/2-x,1/2+y,-z
1/2-x,1/2-y,1/2-z
1/2+x,1/2+y,1/2-z
1/2-x,1/2+y,z
1/2+x,1/2-y,z
loop_
_atom_site_type_symbol
_atom_site_label
_atom_site_fract_x
_atom_site_fract_y
_atom_site_fract_z
Si Si1 0.845181 0.164633 0.700944
Si Si2 0.430788 0.600771 0.708859
Si Si3 0.630229 0.131462 0.700436
Si Si4 0.307847 0.923425 0.000000
Si Si5 0.244413 0.138282 0.791123
Si Si6 0.544152 0.804993 0.791138
O O1 0.839472 0.197130 0.500000
O O2 0.885282 0.103073 0.715353
O O3 0.854740 0.259465 0.805354
O O4 0.802776 0.117887 0.747105
O O5 0.450039 0.500000 0.750000
O O6 0.427768 0.607704 0.500000
O O7 0.451704 0.696733 0.776563
O O8 0.633903 0.096816 0.500000
O O9 0.583606 0.136856 0.763062
O O10 0.657646 0.084960 0.845201
O O11 0.272868 0.912951 0.154489
O O12 0.250000 0.250000 0.750000
O O13 0.253579 0.122648 0.000000
O O14 0.500000 0.843149 0.750000
O O15 0.547636 0.799998 0.000000
#
# Coordination Sequence:
#
# PCOD9525265 Si02
#       6
#    16  16  16   8  16  16
#     4  10  18  30  44  60  82 109 131 167 211 257
#     4  10  21  34  47  63  81 107 141 183 231 282
#     4  10  19  31  42  62  86 108 137 166 209 266
#     4  12  20  26  44  62  84 115 130 165 204 249
#     4  11  19  27  40  63  86 109 137 159 199 257
#     4   9  20  33  49  64  80 105 140 186 233 279
#
# _framework density 24.588357999999999
#
# number of rings (size 3 to 8) (size 9 to 14) (size 15 to 20)
#    0.000    1.818    3.636    2.727    3.818    1.818 
#    0.000    1.818    0.000    0.000    0.000    0.000 
#    0.000    0.000    0.000    0.000    0.000    0.000 
#
# Total GULP energy -245172.903217 kJ/mol
# GULP energy per Si atom -5572.111437 kJ/mol
# Density = 2.453239 g / cm^3
# Si number density = 24.588358 Si / 1000 Ang^3
#
#
#
# Elastic Constant Matrix: (Units=GPa)
#
#
# Indices 1 2 3 4 5 6 
#
# 1 212.6220 8.1813 70.0049 0.0000 0.0000 0.0000
# 2 8.1813 64.9586 28.9205 0.0000 0.0000 0.0000
# 3 70.0049 28.9205 138.6462 0.0000 0.0000 0.0000
# 4 0.0000 0.0000 0.0000 25.0667 0.0000 0.0000
# 5 0.0000 0.0000 0.0000 0.0000 28.0962 0.0000
# 6 0.0000 0.0000 0.0000 0.0000 0.0000 -24.3227
#
#
#
# Elastic Compliance Matrix: (Units=1/GPa)
#
#
# Indices 1 2 3 4 5 6 
#
# 1 0.005663 0.000617 -0.002988 0.000000 0.000000 0.000000
# 2 0.000617 0.017038 -0.003866 0.000000 0.000000 0.000000
# 3 -0.002988 -0.003866 0.009528 0.000000 0.000000 0.000000
# 4 0.000000 0.000000 0.000000 0.039894 0.000000 0.000000
# 5 0.000000 0.000000 0.000000 0.000000 0.035592 0.000000
# 6 0.000000 0.000000 0.000000 0.000000 0.000000 -0.041114
#
#
# Mechanical properties :
#
#
# Convention : Reuss Voigt Hill
#
# Bulk Modulus (GPa) = 50.61889 70.04891 60.33390
# Shear Modulus (GPa) = 58.37104 26.37603 42.37354
#
# Velocity S-wave (km/s) = 4.87758 3.27877 4.15579
# Velocity P-wave (km/s) = 7.23549 6.54861 6.90060
#
# Compressibility (1/GPa) = 0.01975547
#
# Stress axis : x y z
#
# Youngs Moduli (GPa) = 176.57567 58.69337 104.95679
#
# Poissons Ratio (x) = -0.03622 0.31363
# Poissons Ratio (y) = -0.10897 0.40571
# Poissons Ratio (z) = 0.52765 0.22688
#
# Static dielectric constant tensor:
#      x y z
#    x 1.949710 0.000000 0.000000 
#    y 0.000000 1.978290 0.000000 
#    z 0.000000 0.000000 1.892270 
# 
# From -- ./inp_files/9248.got.cif
#   From: 2010.05.17/outbox.cif.g08.bks.cpg/sg72_5_cif.got.tgz:9248.got - 2010.06.03 17:03:01.
