data_PCOD9525009
_publ_section_title
;
Structure prediction by ZEFSAII (Michael W. Deem and Ramdas Pophale) SiO2 
 PCOD9525009
Probable space group: I B A M
;
_chemical_formula_sum "Si O2"
_cell_formula_units_Z 96
_cell_length_a 27.310079
_cell_length_b 29.760974
_cell_length_c 8.595417
_cell_angle_alpha 90.000000
_cell_angle_beta 90.000000
_cell_angle_gamma 90.000000
_cell_volume 6986.136193
_symmetry_space_group_name_H-M "I B A M"
_symmetry_group_IT_number 72
_symmetry_cell_setting 'orthorhombic'
loop_
_space_group_symop_operation_xyz
x,y,z
-x,-y,z
x,-y,1/2-z
-x,y,1/2-z
-x,-y,-z
x,y,-z
-x,y,1/2+z
x,-y,1/2+z
1/2+x,1/2+y,1/2+z
1/2-x,1/2-y,1/2+z
1/2+x,1/2-y,-z
1/2-x,1/2+y,-z
1/2-x,1/2-y,1/2-z
1/2+x,1/2+y,1/2-z
1/2-x,1/2+y,z
1/2+x,1/2-y,z
loop_
_atom_site_type_symbol
_atom_site_label
_atom_site_fract_x
_atom_site_fract_y
_atom_site_fract_z
Si Si1 0.296740 0.722764 0.687168
Si Si2 0.597475 0.048439 0.814266
Si Si3 0.148539 0.692982 0.811661
Si Si4 0.242245 0.361737 0.186506
Si Si5 0.292182 0.047807 0.814935
Si Si6 0.052543 0.361094 0.686443
O O1 0.294881 0.722427 0.500000
O O2 0.250000 0.750000 0.750000
O O3 0.342115 0.754743 0.731601
O O4 0.286702 0.671449 0.736020
O O5 0.653399 0.054971 0.755828
O O6 0.565946 0.089688 0.751211
O O7 0.581040 0.000000 0.750000
O O8 0.596997 0.047797 0.000000
O O9 0.192138 0.663605 0.737155
O O10 0.096513 0.672350 0.766438
O O11 0.153053 0.689021 0.000000
O O12 0.240726 0.410335 0.264079
O O13 0.242437 0.366547 0.000000
O O14 0.274500 0.000000 0.750000
O O15 0.296841 0.045812 0.000000
O O16 0.051378 0.363162 0.500000
O O17 0.000000 0.346918 0.750000
#
# Coordination Sequence:
#
# PCOD9525009 Si02
#       6
#    16  16  16  16  16  16
#     4   8  15  26  41  62  82 102 127 158 196 238
#     4  11  21  34  49  62  77  98 131 170 214 255
#     4   9  17  30  45  59  80 105 131 165 203 241
#     4  10  17  26  43  64  84 104 130 162 199 240
#     4  11  20  30  43  60  82 108 137 166 202 242
#     4  11  22  34  47  62  80 104 135 170 211 250
#
# _framework density 13.741502000000001
#
# number of rings (size 3 to 8) (size 9 to 14) (size 15 to 20)
#    0.000    2.000    1.667    5.000    0.000    1.667 
#    0.000    1.667    0.000    0.000    0.000    0.000 
#    0.000    0.000    0.000    0.000    0.000    0.833 
#
# Total GULP energy -267557.664183 kJ/mol
# GULP energy per Si atom -5574.118004 kJ/mol
# Density = 1.371023 g / cm^3
# Si number density = 13.741502 Si / 1000 Ang^3
#
#
#
# Elastic Constant Matrix: (Units=GPa)
#
#
# Indices 1 2 3 4 5 6 
#
# 1 53.8274 50.3331 21.9024 0.0000 0.0000 0.0000
# 2 50.3331 99.7869 29.7334 0.0000 0.0000 0.0000
# 3 21.9024 29.7334 59.1260 0.0000 0.0000 0.0000
# 4 0.0000 0.0000 0.0000 16.5647 0.0000 0.0000
# 5 0.0000 0.0000 0.0000 0.0000 12.1568 0.0000
# 6 0.0000 0.0000 0.0000 0.0000 0.0000 16.8050
#
#
#
# Elastic Compliance Matrix: (Units=1/GPa)
#
#
# Indices 1 2 3 4 5 6 
#
# 1 0.036376 -0.016859 -0.004997 0.000000 0.000000 0.000000
# 2 -0.016859 0.019602 -0.003612 0.000000 0.000000 0.000000
# 3 -0.004997 -0.003612 0.020580 0.000000 0.000000 0.000000
# 4 0.000000 0.000000 0.000000 0.060369 0.000000 0.000000
# 5 0.000000 0.000000 0.000000 0.000000 0.082258 0.000000
# 6 0.000000 0.000000 0.000000 0.000000 0.000000 0.059506
#
#
# Mechanical properties :
#
#
# Convention : Reuss Voigt Hill
#
# Bulk Modulus (GPa) = 39.02918 46.29758 42.66338
# Shear Modulus (GPa) = 14.78553 16.49006 15.63780
#
# Velocity S-wave (km/s) = 3.28377 3.46789 3.37708
# Velocity P-wave (km/s) = 6.54535 7.05691 6.80593
#
# Compressibility (1/GPa) = 0.02562185
#
# Stress axis : x y z
#
# Youngs Moduli (GPa) = 27.49063 51.01625 48.58991
#
# Poissons Ratio (x) = 0.86010 0.24279
# Poissons Ratio (y) = 0.46348 0.17550
# Poissons Ratio (z) = 0.13736 0.18427
#
# Static dielectric constant tensor:
#      x y z
#    x 1.434150 0.000000 0.000000 
#    y 0.000000 1.486050 0.000000 
#    z 0.000000 0.000000 1.452050 
# 
# From -- ./inp_files/8474.got.cif
#   From: 2010.05.17/outbox.cif.g08.bks.cpg/sg72_5_cif.got.tgz:8474.got - 2010.06.03 17:03:01.
