data_PCOD9525898
_publ_section_title
;
Structure prediction by ZEFSAII (Michael W. Deem and Ramdas Pophale) SiO2 
 PCOD9525898
Probable space group: I B A M
;
_chemical_formula_sum "Si O2"
_cell_formula_units_Z 112
_cell_length_a 25.541774
_cell_length_b 12.900846
_cell_length_c 14.565943
_cell_angle_alpha 90.000000
_cell_angle_beta 90.000000
_cell_angle_gamma 90.000000
_cell_volume 4799.631058
_symmetry_space_group_name_H-M "I B A M"
_symmetry_group_IT_number 72
_symmetry_cell_setting 'orthorhombic'
loop_
_space_group_symop_operation_xyz
x,y,z
-x,-y,z
x,-y,1/2-z
-x,y,1/2-z
-x,-y,-z
x,y,-z
-x,y,1/2+z
x,-y,1/2+z
1/2+x,1/2+y,1/2+z
1/2-x,1/2-y,1/2+z
1/2+x,1/2-y,-z
1/2-x,1/2+y,-z
1/2-x,1/2-y,1/2-z
1/2+x,1/2+y,1/2-z
1/2-x,1/2+y,z
1/2+x,1/2-y,z
loop_
_atom_site_type_symbol
_atom_site_label
_atom_site_fract_x
_atom_site_fract_y
_atom_site_fract_z
Si Si1 0.617416 0.107316 0.862571
Si Si2 0.317709 0.322829 0.107829
Si Si3 0.002772 0.667325 0.645035
Si Si4 0.647364 0.546196 0.613027
Si Si5 0.468679 0.397832 0.611171
Si Si6 0.612571 0.122068 0.358893
Si Si7 0.789180 0.764500 0.893866
O O1 0.558043 0.129783 0.895238
O O2 0.613997 0.118412 0.752118
O O3 0.660502 0.189583 0.893109
O O4 0.633232 0.990485 0.888364
O O5 0.342856 0.428858 0.144467
O O6 0.354809 0.222964 0.114542
O O7 0.261369 0.291043 0.148118
O O8 0.309636 0.345797 0.000000
O O9 0.005770 0.791743 0.644030
O O10 0.000000 0.629658 0.750000
O O11 0.947086 0.632822 0.606358
O O12 0.645944 0.548388 0.500000
O O13 0.591086 0.589959 0.642444
O O14 0.692177 0.625443 0.644775
O O15 0.500000 0.500000 0.638843
O O16 0.469271 0.393384 0.500000
O O17 0.775199 0.785706 0.000000
#
# Coordination Sequence:
#
# PCOD9525898 Si02
#       7
#    16  16  16  16  16  16  16
#     4  10  21  39  59  82 115 151 189 233 281 339
#     4  10  22  38  59  86 116 149 190 236 283 336
#     4  10  20  36  57  82 112 148 188 231 279 337
#     4   9  18  35  55  81 114 146 181 227 285 336
#     4  10  19  32  54  80 112 149 183 226 283 340
#     4  10  22  38  58  84 115 151 188 231 286 335
#     4  10  21  37  61  85 110 148 193 236 282 337
#
# _framework density 23.335128000000001
#
# number of rings (size 3 to 8) (size 9 to 14) (size 15 to 20)
#    0.000    2.143    1.429    1.286    2.000    4.857 
#    0.000    0.714    0.000    2.571    0.000    0.000 
#    0.000    0.000    0.000    0.000    0.000    0.000 
#
# Total GULP energy -313038.883048 kJ/mol
# GULP energy per Si atom -5589.980054 kJ/mol
# Density = 2.328202 g / cm^3
# Si number density = 23.335128 Si / 1000 Ang^3
#
#
#
# Elastic Constant Matrix: (Units=GPa)
#
#
# Indices 1 2 3 4 5 6 
#
# 1 76.5569 12.4595 -12.4482 0.0000 0.0000 0.0000
# 2 12.4595 140.8739 -17.6957 0.0000 0.0000 0.0000
# 3 -12.4482 -17.6957 66.7785 0.0000 0.0000 0.0000
# 4 0.0000 0.0000 0.0000 19.3079 0.0000 0.0000
# 5 0.0000 0.0000 0.0000 0.0000 19.6997 0.0000
# 6 0.0000 0.0000 0.0000 0.0000 0.0000 31.9941
#
#
#
# Elastic Compliance Matrix: (Units=1/GPa)
#
#
# Indices 1 2 3 4 5 6 
#
# 1 0.013583 -0.000914 0.002290 0.000000 0.000000 0.000000
# 2 -0.000914 0.007404 0.001792 0.000000 0.000000 0.000000
# 3 0.002290 0.001792 0.015877 0.000000 0.000000 0.000000
# 4 0.000000 0.000000 0.000000 0.051792 0.000000 0.000000
# 5 0.000000 0.000000 0.000000 0.000000 0.050762 0.000000
# 6 0.000000 0.000000 0.000000 0.000000 0.000000 0.031256
#
#
# Mechanical properties :
#
#
# Convention : Reuss Voigt Hill
#
# Bulk Modulus (GPa) = 23.14805 27.64895 25.39850
# Shear Modulus (GPa) = 27.97381 34.32658 31.15020
#
# Velocity S-wave (km/s) = 3.46610 3.83956 3.65760
# Velocity P-wave (km/s) = 5.09508 5.61521 5.36146
#
# Compressibility (1/GPa) = 0.04320018
#
# Stress axis : x y z
#
# Youngs Moduli (GPa) = 73.62022 135.05422 62.98601
#
# Poissons Ratio (x) = 0.12340 -0.14423
# Poissons Ratio (y) = 0.06727 -0.11286
# Poissons Ratio (z) = -0.16858 -0.24199
#
# Static dielectric constant tensor:
#      x y z
#    x 1.851960 0.000000 0.000000 
#    y 0.000000 1.831580 0.000000 
#    z 0.000000 0.000000 1.936130 
# 
# From -- ./inp_files/40358.got.cif
#   From: 2010.05.17/outbox.cif.g08.bks.cpg/sg72_21_cif.got.tgz:40358.got - 2010.06.03 17:03:01.
