data_PCOD9525423
_publ_section_title
;
Structure prediction by ZEFSAII (Michael W. Deem and Ramdas Pophale) SiO2 
 PCOD9525423
Probable space group: I B A M
;
_chemical_formula_sum "Si O2"
_cell_formula_units_Z 96
_cell_length_a 16.672513
_cell_length_b 18.259394
_cell_length_c 18.842083
_cell_angle_alpha 90.000000
_cell_angle_beta 90.000000
_cell_angle_gamma 90.000000
_cell_volume 5736.095023
_symmetry_space_group_name_H-M "I B A M"
_symmetry_group_IT_number 72
_symmetry_cell_setting 'orthorhombic'
loop_
_space_group_symop_operation_xyz
x,y,z
-x,-y,z
x,-y,1/2-z
-x,y,1/2-z
-x,-y,-z
x,y,-z
-x,y,1/2+z
x,-y,1/2+z
1/2+x,1/2+y,1/2+z
1/2-x,1/2-y,1/2+z
1/2+x,1/2-y,-z
1/2-x,1/2+y,-z
1/2-x,1/2-y,1/2-z
1/2+x,1/2+y,1/2-z
1/2-x,1/2+y,z
1/2+x,1/2-y,z
loop_
_atom_site_type_symbol
_atom_site_label
_atom_site_fract_x
_atom_site_fract_y
_atom_site_fract_z
Si Si1 0.150352 0.071342 0.793135
Si Si2 0.566810 0.065056 0.918314
Si Si3 0.958541 0.341262 0.173944
Si Si4 0.832919 0.532190 0.674989
Si Si5 0.475294 0.584784 0.918166
Si Si6 0.571290 0.327257 0.308032
O O1 0.239995 0.051486 0.816808
O O2 0.099473 0.089607 0.863547
O O3 0.144954 0.136623 0.734959
O O4 0.117051 0.000000 0.750000
O O5 0.527716 0.135701 0.881404
O O6 0.500000 0.000000 0.911885
O O7 0.644605 0.030748 0.880937
O O8 0.581918 0.079340 0.000000
O O9 0.884562 0.395498 0.160799
O O10 0.927644 0.258250 0.173801
O O11 0.000000 0.354871 0.250000
O O12 0.861779 0.500000 0.750000
O O13 0.500000 0.500000 0.920018
O O14 0.545900 0.629288 0.878572
O O15 0.460667 0.608315 0.000000
O O16 0.500000 0.337106 0.250000
#
# Coordination Sequence:
#
# PCOD9525423 Si02
#       6
#    16  16  16  16  16  16
#     4  10  19  33  52  77 105 136 174 223 270 315
#     4   9  18  31  50  76 104 138 180 220 262 315
#     4  10  18  32  52  77 105 139 176 218 266 316
#     4  10  19  31  53  76 105 142 175 220 265 315
#     4  10  19  33  54  74  96 132 173 218 268 319
#     4   9  19  32  52  77 102 133 176 221 266 321
#
# _framework density 16.736125000000001
#
# number of rings (size 3 to 8) (size 9 to 14) (size 15 to 20)
#    0.000    2.333    3.333    0.000    0.000    2.000 
#    0.000    0.000    0.000    0.000    0.000    0.000 
#    0.000    0.000    0.000    0.000    0.000    0.000 
#
# Total GULP energy -267233.998885 kJ/mol
# GULP energy per Si atom -5567.374977 kJ/mol
# Density = 1.669803 g / cm^3
# Si number density = 16.736125 Si / 1000 Ang^3
#
#
#
# Elastic Constant Matrix: (Units=GPa)
#
#
# Indices 1 2 3 4 5 6 
#
# 1 65.0752 24.2158 38.6464 0.0000 0.0000 0.0000
# 2 24.2158 71.8345 48.8144 0.0000 0.0000 0.0000
# 3 38.6464 48.8144 138.7426 0.0000 0.0000 0.0000
# 4 0.0000 0.0000 0.0000 8.9053 0.0000 0.0000
# 5 0.0000 0.0000 0.0000 0.0000 -10.2789 0.0000
# 6 0.0000 0.0000 0.0000 0.0000 0.0000 15.8110
#
#
#
# Elastic Compliance Matrix: (Units=1/GPa)
#
#
# Indices 1 2 3 4 5 6 
#
# 1 0.019140 -0.003718 -0.004023 0.000000 0.000000 0.000000
# 2 -0.003718 0.019017 -0.005655 0.000000 0.000000 0.000000
# 3 -0.004023 -0.005655 0.010318 0.000000 0.000000 0.000000
# 4 0.000000 0.000000 0.000000 0.112293 0.000000 0.000000
# 5 0.000000 0.000000 0.000000 0.000000 -0.097287 0.000000
# 6 0.000000 0.000000 0.000000 0.000000 0.000000 0.063247
#
#
# Mechanical properties :
#
#
# Convention : Reuss Voigt Hill
#
# Bulk Modulus (GPa) = 46.12174 55.44506 50.78340
# Shear Modulus (GPa) = 31.10439 13.81918 22.46178
#
# Velocity S-wave (km/s) = 4.31573 2.87663 3.66746
# Velocity P-wave (km/s) = 7.24238 6.65088 6.95292
#
# Compressibility (1/GPa) = 0.02168175
#
# Stress axis : x y z
#
# Youngs Moduli (GPa) = 52.24747 52.58372 96.91868
#
# Poissons Ratio (x) = 0.19552 0.38991
# Poissons Ratio (y) = 0.19427 0.54810
# Poissons Ratio (z) = 0.21020 0.29737
#
# Static dielectric constant tensor:
#      x y z
#    x 1.570270 0.000000 0.000000 
#    y 0.000000 1.582990 0.000000 
#    z 0.000000 0.000000 1.564070 
# 
# From -- ./inp_files/31629.got.cif
#   From: 2010.05.17/outbox.cif.g08.bks.cpg/sg72_16_cif.got.tgz:31629.got - 2010.06.03 17:03:01.
