data_PCOD9525763
_publ_section_title
;
Structure prediction by ZEFSAII (Michael W. Deem and Ramdas Pophale) SiO2 
 PCOD9525763
Probable space group: I B A M
;
_chemical_formula_sum "Si O2"
_cell_formula_units_Z 112
_cell_length_a 14.792484
_cell_length_b 12.277231
_cell_length_c 26.615366
_cell_angle_alpha 90.000000
_cell_angle_beta 90.000000
_cell_angle_gamma 90.000000
_cell_volume 4833.636398
_symmetry_space_group_name_H-M "I B A M"
_symmetry_group_IT_number 72
_symmetry_cell_setting 'orthorhombic'
loop_
_space_group_symop_operation_xyz
x,y,z
-x,-y,z
x,-y,1/2-z
-x,y,1/2-z
-x,-y,-z
x,y,-z
-x,y,1/2+z
x,-y,1/2+z
1/2+x,1/2+y,1/2+z
1/2-x,1/2-y,1/2+z
1/2+x,1/2-y,-z
1/2-x,1/2+y,-z
1/2-x,1/2-y,1/2-z
1/2+x,1/2+y,1/2-z
1/2-x,1/2+y,z
1/2+x,1/2-y,z
loop_
_atom_site_type_symbol
_atom_site_label
_atom_site_fract_x
_atom_site_fract_y
_atom_site_fract_z
Si Si1 0.346132 0.702243 0.056162
Si Si2 0.646862 0.291861 0.554080
Si Si3 0.093515 0.435497 0.555913
Si Si4 0.411802 0.430677 0.350741
Si Si5 0.987044 0.723680 0.692670
Si Si6 0.180188 0.865359 0.161797
Si Si7 0.624138 0.893828 0.371257
O O1 0.238901 0.721241 0.053346
O O2 0.369340 0.614515 0.098144
O O3 0.377471 0.816101 0.079962
O O4 0.380646 0.681264 0.000000
O O5 0.636191 0.346800 0.500000
O O6 0.653800 0.365480 0.602375
O O7 0.576766 0.193673 0.560383
O O8 0.135228 0.454758 0.500000
O O9 0.142023 0.487555 0.604501
O O10 0.000000 0.500000 0.555605
O O11 0.500000 0.500000 0.363473
O O12 0.448588 0.327779 0.319580
O O13 0.348933 0.514647 0.320258
O O14 0.031539 0.628914 0.658565
O O15 0.000000 0.692209 0.750000
O O16 0.884807 0.769365 0.682934
O O17 0.288662 0.856004 0.161746
#
# Coordination Sequence:
#
# PCOD9525763 Si02
#       7
#    16  16  16  16  16  16  16
#     4   9  17  30  48  74 109 143 177 219 267 323
#     4   9  18  31  49  76 110 147 181 214 258 320
#     4  10  19  31  51  78 111 154 194 224 266 330
#     4   9  19  33  51  78 106 140 181 227 281 328
#     4  10  22  40  60  81 108 140 184 241 295 345
#     4  10  20  35  57  83 111 145 187 229 277 335
#     4  10  20  35  57  82 110 146 187 233 282 333
#
# _framework density 23.170960000000001
#
# number of rings (size 3 to 8) (size 9 to 14) (size 15 to 20)
#    0.000    2.429    0.000    2.143    0.000    4.571 
#    0.000    7.143    0.000    7.286    0.000    0.000 
#    0.000    0.000    0.000    0.000    0.000    0.000 
#
# Total GULP energy -312381.625684 kJ/mol
# GULP energy per Si atom -5578.243316 kJ/mol
# Density = 2.311822 g / cm^3
# Si number density = 23.170960 Si / 1000 Ang^3
#
#
#
# Elastic Constant Matrix: (Units=GPa)
#
#
# Indices 1 2 3 4 5 6 
#
# 1 90.8117 -2.4824 7.7125 0.0000 0.0000 0.0000
# 2 -2.4824 52.4267 -9.2200 0.0000 0.0000 0.0000
# 3 7.7125 -9.2200 67.4656 0.0000 0.0000 0.0000
# 4 0.0000 0.0000 0.0000 6.3115 0.0000 0.0000
# 5 0.0000 0.0000 0.0000 0.0000 18.6938 0.0000
# 6 0.0000 0.0000 0.0000 0.0000 0.0000 23.7979
#
#
#
# Elastic Compliance Matrix: (Units=1/GPa)
#
#
# Indices 1 2 3 4 5 6 
#
# 1 0.011125 0.000311 -0.001229 0.000000 0.000000 0.000000
# 2 0.000311 0.019553 0.002637 0.000000 0.000000 0.000000
# 3 -0.001229 0.002637 0.015323 0.000000 0.000000 0.000000
# 4 0.000000 0.000000 0.000000 0.158442 0.000000 0.000000
# 5 0.000000 0.000000 0.000000 0.000000 0.053494 0.000000
# 6 0.000000 0.000000 0.000000 0.000000 0.000000 0.042020
#
#
# Mechanical properties :
#
#
# Convention : Reuss Voigt Hill
#
# Bulk Modulus (GPa) = 20.22805 22.52490 21.37648
# Shear Modulus (GPa) = 15.97446 24.07356 20.02401
#
# Velocity S-wave (km/s) = 2.62852 3.22678 2.94289
# Velocity P-wave (km/s) = 4.23805 4.86056 4.55994
#
# Compressibility (1/GPa) = 0.04943631
#
# Stress axis : x y z
#
# Youngs Moduli (GPa) = 89.89019 51.14395 65.26038
#
# Poissons Ratio (x) = -0.01588 0.08022
# Poissons Ratio (y) = -0.02792 -0.17207
# Poissons Ratio (z) = 0.11050 -0.13485
#
# Static dielectric constant tensor:
#      x y z
#    x 1.975720 0.000000 0.000000 
#    y 0.000000 2.004050 0.000000 
#    z 0.000000 0.000000 1.880030 
# 
# From -- ./inp_files/48697.got.cif
#   From: 2010.05.17/outbox.cif.g08.bks.cpg/sg72_25_cif.got.tgz:48697.got - 2010.06.03 17:03:01.
