data_PCOD9525796
_publ_section_title
;
Structure prediction by ZEFSAII (Michael W. Deem and Ramdas Pophale) SiO2 
 PCOD9525796
Probable space group: I B A M
;
_chemical_formula_sum "Si O2"
_cell_formula_units_Z 80
_cell_length_a 30.482663
_cell_length_b 7.243863
_cell_length_c 15.702607
_cell_angle_alpha 90.000000
_cell_angle_beta 90.000000
_cell_angle_gamma 90.000000
_cell_volume 3467.327741
_symmetry_space_group_name_H-M "I B A M"
_symmetry_group_IT_number 72
_symmetry_cell_setting 'orthorhombic'
loop_
_space_group_symop_operation_xyz
x,y,z
-x,-y,z
x,-y,1/2-z
-x,y,1/2-z
-x,-y,-z
x,y,-z
-x,y,1/2+z
x,-y,1/2+z
1/2+x,1/2+y,1/2+z
1/2-x,1/2-y,1/2+z
1/2+x,1/2-y,-z
1/2-x,1/2+y,-z
1/2-x,1/2-y,1/2-z
1/2+x,1/2+y,1/2-z
1/2-x,1/2+y,z
1/2+x,1/2-y,z
loop_
_atom_site_type_symbol
_atom_site_label
_atom_site_fract_x
_atom_site_fract_y
_atom_site_fract_z
Si Si1 0.705430 0.587585 0.340564
Si Si2 0.617598 0.302229 0.901965
Si Si3 0.449486 0.275288 0.744870
Si Si4 0.892272 0.748598 0.402777
Si Si5 0.295003 0.801385 0.594692
O O1 0.693189 0.500000 0.250000
O O2 0.667348 0.728165 0.367860
O O3 0.705197 0.420447 0.407025
O O4 0.755534 0.653114 0.342137
O O5 0.580066 0.230902 0.838097
O O6 0.612740 0.527218 0.900668
O O7 0.613232 0.242231 0.000000
O O8 0.449327 0.500000 0.750000
O O9 0.500000 0.217839 0.750000
O O10 0.425814 0.202147 0.829165
O O11 0.904403 0.701771 0.500000
O O12 0.845151 0.657793 0.382410
O O13 0.286117 0.874563 0.500000
#
# Coordination Sequence:
#
# PCOD9525796 Si02
#       5
#    16  16  16  16  16
#     4  11  20  31  48  70  96 128 162 197 236 282
#     4   9  16  27  41  59  86 120 152 186 231 280
#     4   9  16  25  38  58  84 114 151 192 231 276
#     4   8  15  27  42  59  85 119 151 184 230 281
#     4  10  19  32  48  68  95 128 160 192 233 284
#
# _framework density 23.072520999999998
#
# number of rings (size 3 to 8) (size 9 to 14) (size 15 to 20)
#    0.000    2.600    0.000    6.600    0.000    0.800 
#    0.000    4.000    0.000    0.000    0.000    0.000 
#    0.000    7.200    0.000   21.800    0.000   27.400 
#
# Total GULP energy -223354.705484 kJ/mol
# GULP energy per Si atom -5583.867637 kJ/mol
# Density = 2.302001 g / cm^3
# Si number density = 23.072521 Si / 1000 Ang^3
#
#
#
# Elastic Constant Matrix: (Units=GPa)
#
#
# Indices 1 2 3 4 5 6 
#
# 1 211.4154 8.5677 136.6728 0.0000 0.0000 0.0000
# 2 8.5677 63.7489 7.8687 0.0000 0.0000 0.0000
# 3 136.6728 7.8687 192.0564 0.0000 0.0000 0.0000
# 4 0.0000 0.0000 0.0000 -5.9152 0.0000 0.0000
# 5 0.0000 0.0000 0.0000 0.0000 28.2580 0.0000
# 6 0.0000 0.0000 0.0000 0.0000 0.0000 3.0553
#
#
#
# Elastic Compliance Matrix: (Units=1/GPa)
#
#
# Indices 1 2 3 4 5 6 
#
# 1 0.008771 -0.000410 -0.006225 0.000000 0.000000 0.000000
# 2 -0.000410 0.015785 -0.000355 0.000000 0.000000 0.000000
# 3 -0.006225 -0.000355 0.009651 0.000000 0.000000 0.000000
# 4 0.000000 0.000000 0.000000 -0.169056 0.000000 0.000000
# 5 0.000000 0.000000 0.000000 0.000000 0.035388 0.000000
# 6 0.000000 0.000000 0.000000 0.000000 0.000000 0.327297
#
#
# Mechanical properties :
#
#
# Convention : Reuss Voigt Hill
#
# Bulk Modulus (GPa) = 49.43731 85.93767 67.68749
# Shear Modulus (GPa) = 20.11604 26.02040 23.06822
#
# Velocity S-wave (km/s) = 2.95593 3.36187 3.16541
# Velocity P-wave (km/s) = 5.75530 7.23859 6.53914
#
# Compressibility (1/GPa) = 0.02022764
#
# Stress axis : x y z
#
# Youngs Moduli (GPa) = 114.01623 63.34937 103.61649
#
# Poissons Ratio (x) = 0.02600 0.64498
# Poissons Ratio (y) = 0.04680 0.03675
# Poissons Ratio (z) = 0.70971 0.02247
#
# Static dielectric constant tensor:
#      x y z
#    x 1.869130 0.000000 0.000000 
#    y 0.000000 1.978570 0.000000 
#    z 0.000000 0.000000 1.823140 
# 
# From -- ./inp_files/20182.got.cif
#   From: 2010.05.17/outbox.cif.g08.bks.cpg/sg72_11_cif.got.tgz:20182.got - 2010.06.03 17:03:01.
