data_PCOD9525063
_publ_section_title
;
Structure prediction by ZEFSAII (Michael W. Deem and Ramdas Pophale) SiO2 
 PCOD9525063
Probable space group: I B A M
;
_chemical_formula_sum "Si O2"
_cell_formula_units_Z 128
_cell_length_a 17.124284
_cell_length_b 24.900889
_cell_length_c 16.329238
_cell_angle_alpha 90.000000
_cell_angle_beta 90.000000
_cell_angle_gamma 90.000000
_cell_volume 6962.948662
_symmetry_space_group_name_H-M "I B A M"
_symmetry_group_IT_number 72
_symmetry_cell_setting 'orthorhombic'
loop_
_space_group_symop_operation_xyz
x,y,z
-x,-y,z
x,-y,1/2-z
-x,y,1/2-z
-x,-y,-z
x,y,-z
-x,y,1/2+z
x,-y,1/2+z
1/2+x,1/2+y,1/2+z
1/2-x,1/2-y,1/2+z
1/2+x,1/2-y,-z
1/2-x,1/2+y,-z
1/2-x,1/2-y,1/2-z
1/2+x,1/2+y,1/2-z
1/2-x,1/2+y,z
1/2+x,1/2-y,z
loop_
_atom_site_type_symbol
_atom_site_label
_atom_site_fract_x
_atom_site_fract_y
_atom_site_fract_z
Si Si1 0.789829 0.866476 0.163860
Si Si2 0.716881 0.167092 0.092894
Si Si3 0.545243 0.309472 0.834800
Si Si4 0.485693 0.412359 0.905562
Si Si5 0.816113 0.075314 0.834898
Si Si6 0.197657 0.735511 0.171516
Si Si7 0.851060 0.033445 0.406619
Si Si8 0.075538 0.302245 0.790412
O O1 0.865925 0.829192 0.172015
O O2 0.789164 0.900737 0.247939
O O3 0.721670 0.824559 0.145642
O O4 0.803454 0.911369 0.096496
O O5 0.766781 0.112753 0.103764
O O6 0.776928 0.216863 0.111047
O O7 0.645332 0.168947 0.159269
O O8 0.687720 0.171957 0.000000
O O9 0.500000 0.319926 0.750000
O O10 0.508864 0.349889 0.899925
O O11 0.547386 0.246117 0.849407
O O12 0.408962 0.418044 0.850736
O O13 0.561007 0.448315 0.879288
O O14 0.469900 0.425964 0.000000
O O15 0.809869 0.012020 0.852415
O O16 0.250000 0.750000 0.250000
O O17 0.113426 0.729291 0.212316
O O18 0.855763 0.014394 0.500000
O O19 0.000000 0.331108 0.750000
#
# Coordination Sequence:
#
# PCOD9525063 Si02
#       8
#    16  16  16  16  16  16  16  16
#     4  11  19  34  56  74 102 147 192 229 267 334
#     4  11  22  34  56  85 112 147 190 236 292 342
#     4  10  17  29  48  72 100 138 183 224 264 318
#     4  10  21  32  47  71 109 154 189 226 270 313
#     4  12  20  36  54  76 112 152 192 229 274 330
#     4  10  18  37  54  76 110 143 183 232 277 331
#     4  10  23  36  49  77 111 147 191 237 277 317
#     4  10  20  35  56  76 109 150 182 231 286 339
#
# _framework density 18.383016999999999
#
# number of rings (size 3 to 8) (size 9 to 14) (size 15 to 20)
#    0.000    1.500    6.250    1.875    1.750    2.000 
#    0.000    1.875    0.000    0.000    0.000    1.750 
#    0.000    2.000    0.000    0.000    0.000    0.000 
#
# Total GULP energy -356314.715244 kJ/mol
# GULP energy per Si atom -5567.417426 kJ/mol
# Density = 1.834118 g / cm^3
# Si number density = 18.383017 Si / 1000 Ang^3
#
#
#
# Elastic Constant Matrix: (Units=GPa)
#
#
# Indices 1 2 3 4 5 6 
#
# 1 60.0804 24.9026 12.9349 0.0000 0.0000 0.0000
# 2 24.9026 96.8525 8.8912 -0.0001 0.0000 0.0000
# 3 12.9349 8.8912 53.5516 -0.0001 0.0000 0.0000
# 4 0.0000 -0.0001 -0.0001 -32.9442 0.0000 0.0000
# 5 0.0000 0.0000 0.0000 0.0000 12.0369 0.0000
# 6 0.0000 0.0000 0.0000 0.0000 0.0000 29.4089
#
#
#
# Elastic Compliance Matrix: (Units=1/GPa)
#
#
# Indices 1 2 3 4 5 6 
#
# 1 0.019407 -0.004630 -0.003919 0.000000 0.000000 0.000000
# 2 -0.004630 0.011589 -0.000806 0.000000 0.000000 0.000000
# 3 -0.003919 -0.000806 0.019754 0.000000 0.000000 0.000000
# 4 0.000000 0.000000 0.000000 -0.030354 0.000000 0.000000
# 5 0.000000 0.000000 0.000000 0.000000 0.083078 0.000000
# 6 0.000000 0.000000 0.000000 0.000000 0.000000 0.034003
#
#
# Mechanical properties :
#
#
# Convention : Reuss Voigt Hill
#
# Bulk Modulus (GPa) = 31.21019 33.77132 32.49075
# Shear Modulus (GPa) = 29.96389 12.61739 21.29064
#
# Velocity S-wave (km/s) = 4.04168 2.62269 3.40688
# Velocity P-wave (km/s) = 6.22855 5.25187 5.76094
#
# Compressibility (1/GPa) = 0.03204082
#
# Stress axis : x y z
#
# Youngs Moduli (GPa) = 51.52714 86.28519 50.62286
#
# Poissons Ratio (x) = 0.39952 0.19839
# Poissons Ratio (y) = 0.23858 0.04079
# Poissons Ratio (z) = 0.20193 0.06953
#
# Static dielectric constant tensor:
#      x y z
#    x 1.686110 0.000000 0.000000 
#    y 0.000000 1.689200 0.000000 
#    z 0.000000 0.000000 1.692930 
# 
# From -- ./inp_files/32043.got.cif
#   From: 2010.05.17/outbox.cif.g08.bks.cpg/sg72_17_cif.got.tgz:32043.got - 2010.06.03 17:03:01.
