data_PCOD9525918
_publ_section_title
;
Structure prediction by ZEFSAII (Michael W. Deem and Ramdas Pophale) SiO2 
 PCOD9525918
Probable space group: I B A M
;
_chemical_formula_sum "Si O2"
_cell_formula_units_Z 128
_cell_length_a 24.972132
_cell_length_b 11.790438
_cell_length_c 22.284238
_cell_angle_alpha 90.000000
_cell_angle_beta 90.000000
_cell_angle_gamma 90.000000
_cell_volume 6561.201099
_symmetry_space_group_name_H-M "I B A M"
_symmetry_group_IT_number 72
_symmetry_cell_setting 'orthorhombic'
loop_
_space_group_symop_operation_xyz
x,y,z
-x,-y,z
x,-y,1/2-z
-x,y,1/2-z
-x,-y,-z
x,y,-z
-x,y,1/2+z
x,-y,1/2+z
1/2+x,1/2+y,1/2+z
1/2-x,1/2-y,1/2+z
1/2+x,1/2-y,-z
1/2-x,1/2+y,-z
1/2-x,1/2-y,1/2-z
1/2+x,1/2+y,1/2-z
1/2-x,1/2+y,z
1/2+x,1/2-y,z
loop_
_atom_site_type_symbol
_atom_site_label
_atom_site_fract_x
_atom_site_fract_y
_atom_site_fract_z
Si Si1 0.835403 0.085699 0.385040
Si Si2 0.409572 0.173868 0.071601
Si Si3 0.361225 0.937507 0.928106
Si Si4 0.269827 0.219486 0.568190
Si Si5 0.831482 0.834347 0.631033
Si Si6 0.547960 0.420165 0.930993
Si Si7 0.785123 0.132256 0.256431
Si Si8 0.472906 0.843504 0.931233
O O1 0.809196 0.173141 0.430845
O O2 0.899178 0.081558 0.391244
O O3 0.814390 0.127142 0.320446
O O4 0.818985 0.956810 0.397200
O O5 0.386093 0.280409 0.107010
O O6 0.467921 0.128976 0.092547
O O7 0.368231 0.070681 0.079659
O O8 0.413569 0.198326 0.000000
O O9 0.306925 0.881275 0.905146
O O10 0.416369 0.882235 0.903868
O O11 0.359526 0.913505 0.000000
O O12 0.252692 0.195787 0.500000
O O13 0.218145 0.240896 0.608415
O O14 0.827229 0.854066 0.701850
O O15 0.500000 0.500000 0.910052
O O16 0.527456 0.291949 0.933071
O O17 0.561875 0.454123 0.000000
O O18 0.750000 0.250000 0.250000
O O19 0.761638 0.000000 0.250000
O O20 0.471401 0.887089 0.000000
#
# Coordination Sequence:
#
# PCOD9525918 Si02
#       8
#    16  16  16  16  16  16  16  16
#     4  11  22  39  60  81 114 154 197 242 294 353
#     4  10  20  33  53  81 117 152 185 234 296 355
#     4   9  18  32  50  78 114 152 190 227 281 355
#     4  11  22  34  54  84 117 150 185 230 292 358
#     4  11  24  38  56  82 115 148 194 242 293 350
#     4  10  19  32  55  87 122 154 189 234 295 369
#     4  10  22  42  64  83 109 153 208 254 293 343
#     4   9  16  30  50  77 110 148 190 227 276 348
#
# _framework density 19.508624000000001
#
# number of rings (size 3 to 8) (size 9 to 14) (size 15 to 20)
#    0.000    1.875    2.500    1.875    1.750    4.500 
#    0.000    0.000    0.000    8.625    0.000    0.000 
#    3.750    0.000    0.000    0.000    0.000    0.000 
#
# Total GULP energy -356568.940623 kJ/mol
# GULP energy per Si atom -5571.389697 kJ/mol
# Density = 1.946422 g / cm^3
# Si number density = 19.508624 Si / 1000 Ang^3
#
#
#
# Elastic Constant Matrix: (Units=GPa)
#
#
# Indices 1 2 3 4 5 6 
#
# 1 82.9994 7.5511 16.8956 0.0000 0.0000 0.0000
# 2 7.5511 60.8780 10.4062 0.0000 0.0000 0.0000
# 3 16.8956 10.4062 50.7418 0.0000 0.0000 0.0000
# 4 0.0000 0.0000 0.0000 21.5322 0.0000 0.0000
# 5 0.0000 0.0000 0.0000 0.0000 16.0853 0.0000
# 6 0.0000 0.0000 0.0000 0.0000 0.0000 37.6036
#
#
#
# Elastic Compliance Matrix: (Units=1/GPa)
#
#
# Indices 1 2 3 4 5 6 
#
# 1 0.012972 -0.000902 -0.004134 0.000000 0.000000 0.000000
# 2 -0.000902 0.017086 -0.003204 0.000000 0.000000 0.000000
# 3 -0.004134 -0.003204 0.021741 0.000000 0.000000 0.000000
# 4 0.000000 0.000000 0.000000 0.046442 0.000000 0.000000
# 5 0.000000 0.000000 0.000000 0.000000 0.062169 0.000000
# 6 0.000000 0.000000 0.000000 0.000000 0.000000 0.026593
#
#
# Mechanical properties :
#
#
# Convention : Reuss Voigt Hill
#
# Bulk Modulus (GPa) = 28.31357 29.36945 28.84151
# Shear Modulus (GPa) = 23.22816 25.69530 24.46173
#
# Velocity S-wave (km/s) = 3.45434 3.63316 3.54488
# Velocity P-wave (km/s) = 5.51859 5.71726 5.61880
#
# Compressibility (1/GPa) = 0.03531876
#
# Stress axis : x y z
#
# Youngs Moduli (GPa) = 77.08943 58.52807 45.99566
#
# Poissons Ratio (x) = 0.05281 0.19016
# Poissons Ratio (y) = 0.06956 0.14735
# Poissons Ratio (z) = 0.31871 0.18750
#
# Static dielectric constant tensor:
#      x y z
#    x 1.736300 0.000000 0.000000 
#    y 0.000000 1.772990 0.000000 
#    z 0.000000 0.000000 1.665640 
# 
# From -- ./inp_files/45797.got.cif
#   From: 2010.05.17/outbox.cif.g08.bks.cpg/sg72_23_cif.got.tgz:45797.got - 2010.06.03 17:03:01.
