data_PCOD9525474
_publ_section_title
;
Structure prediction by ZEFSAII (Michael W. Deem and Ramdas Pophale) SiO2 
 PCOD9525474
Probable space group: I B A M
;
_chemical_formula_sum "Si O2"
_cell_formula_units_Z 116
_cell_length_a 20.035834
_cell_length_b 15.465996
_cell_length_c 18.750408
_cell_angle_alpha 90.000000
_cell_angle_beta 90.000000
_cell_angle_gamma 90.000000
_cell_volume 5810.266338
_symmetry_space_group_name_H-M "I B A M"
_symmetry_group_IT_number 72
_symmetry_cell_setting 'orthorhombic'
loop_
_space_group_symop_operation_xyz
x,y,z
-x,-y,z
x,-y,1/2-z
-x,y,1/2-z
-x,-y,-z
x,y,-z
-x,y,1/2+z
x,-y,1/2+z
1/2+x,1/2+y,1/2+z
1/2-x,1/2-y,1/2+z
1/2+x,1/2-y,-z
1/2-x,1/2+y,-z
1/2-x,1/2-y,1/2-z
1/2+x,1/2+y,1/2-z
1/2-x,1/2+y,z
1/2+x,1/2-y,z
loop_
_atom_site_type_symbol
_atom_site_label
_atom_site_fract_x
_atom_site_fract_y
_atom_site_fract_z
Si Si1 0.310091 0.974001 0.417816
Si Si2 0.108635 0.384421 0.168187
Si Si3 0.026497 0.758618 0.417447
Si Si4 0.661041 0.741718 0.767742
Si Si5 0.371384 0.790011 0.420134
Si Si6 0.060145 0.884082 0.296956
Si Si7 0.500000 0.000000 0.250000
Si Si8 0.705580 0.573826 0.303803
O O1 0.296219 0.995559 0.500000
O O2 0.360533 0.892800 0.416094
O O3 0.245289 0.939231 0.376215
O O4 0.343343 0.052989 0.376174
O O5 0.074469 0.313592 0.116962
O O6 0.150474 0.333092 0.228631
O O7 0.049292 0.439824 0.203749
O O8 0.043234 0.771361 0.500000
O O9 0.035891 0.844395 0.370980
O O10 0.949569 0.729660 0.412644
O O11 0.667100 0.749328 0.852680
O O12 0.590193 0.694420 0.750953
O O13 0.790580 0.828450 0.771077
O O14 0.349465 0.762029 0.500000
O O15 0.125871 0.940413 0.312436
O O16 0.000000 0.917162 0.250000
O O17 0.730310 0.500000 0.250000
#
# Coordination Sequence:
#
# PCOD9525474 Si02
#       8
#    16  16  16  16  16  16   4  16
#     4  11  25  42  58  89 137 175 212 263 320 387
#     4  11  21  36  60  95 127 172 211 255 312 384
#     4  10  18  32  59  92 126 159 202 251 314 385
#     4   9  20  38  62  91 120 159 218 260 311 389
#     4  10  20  35  59  92 129 166 200 255 320 382
#     4   9  18  37  63  90 119 150 207 270 320 377
#     4  12  24  32  66 104 138 168 212 256 316 388
#     4  10  24  43  64  89 118 167 220 270 319 376
#
# _framework density 19.964662000000001
#
# number of rings (size 3 to 8) (size 9 to 14) (size 15 to 20)
#    0.828    1.103    1.379    2.897    4.828    1.379 
#    0.000    3.448    0.000    0.000    0.000    3.862 
#    0.000    0.000    0.000    0.000    0.000    0.000 
#
# Total GULP energy -323541.523451 kJ/mol
# GULP energy per Si atom -5578.302128 kJ/mol
# Density = 1.991922 g / cm^3
# Si number density = 19.964662 Si / 1000 Ang^3
#
#
#
# Elastic Constant Matrix: (Units=GPa)
#
#
# Indices 1 2 3 4 5 6 
#
# 1 91.0470 35.4308 64.1721 0.0000 0.0000 0.0000
# 2 35.4308 84.5805 63.5356 0.0000 0.0000 0.0000
# 3 64.1721 63.5356 187.6812 0.0000 0.0000 0.0000
# 4 0.0000 0.0000 0.0000 -82.9280 0.0000 0.0000
# 5 0.0000 0.0000 0.0000 0.0000 30.8432 0.0000
# 6 0.0000 0.0000 0.0000 0.0000 0.0000 183.7812
#
#
#
# Elastic Compliance Matrix: (Units=1/GPa)
#
#
# Indices 1 2 3 4 5 6 
#
# 1 0.015123 -0.003286 -0.004058 0.000000 0.000000 0.000000
# 2 -0.003286 0.016569 -0.004485 0.000000 0.000000 0.000000
# 3 -0.004058 -0.004485 0.008234 0.000000 0.000000 0.000000
# 4 0.000000 0.000000 0.000000 -0.012059 0.000000 0.000000
# 5 0.000000 0.000000 0.000000 0.000000 0.032422 0.000000
# 6 0.000000 0.000000 0.000000 0.000000 0.000000 0.005441
#
#
# Mechanical properties :
#
#
# Convention : Reuss Voigt Hill
#
# Bulk Modulus (GPa) = 61.47852 76.62065 69.04958
# Shear Modulus (GPa) = 52.73563 39.68395 46.20979
#
# Velocity S-wave (km/s) = 5.14508 4.46321 4.81623
# Velocity P-wave (km/s) = 8.13365 8.06361 8.09871
#
# Compressibility (1/GPa) = 0.01626584
#
# Stress axis : x y z
#
# Youngs Moduli (GPa) = 66.12645 60.35314 121.44451
#
# Poissons Ratio (x) = 0.19835 0.49284
# Poissons Ratio (y) = 0.21732 0.54473
# Poissons Ratio (z) = 0.26835 0.27071
#
# Static dielectric constant tensor:
#      x y z
#    x 1.737100 0.000000 0.000000 
#    y 0.000000 1.729310 0.000000 
#    z 0.000000 0.000000 1.694360 
# 
# From -- ./inp_files/31758.got.cif
#   From: 2010.05.17/outbox.cif.g08.bks.cpg/sg72_16_cif.got.tgz:31758.got - 2010.06.03 17:03:01.
