data_PCOD9525238
_publ_section_title
;
Structure prediction by ZEFSAII (Michael W. Deem and Ramdas Pophale) SiO2 
 PCOD9525238
Probable space group: I B A M
;
_chemical_formula_sum "Si O2"
_cell_formula_units_Z 96
_cell_length_a 18.638706
_cell_length_b 20.989053
_cell_length_c 11.489936
_cell_angle_alpha 90.000000
_cell_angle_beta 90.000000
_cell_angle_gamma 90.000000
_cell_volume 4494.963938
_symmetry_space_group_name_H-M "I B A M"
_symmetry_group_IT_number 72
_symmetry_cell_setting 'orthorhombic'
loop_
_space_group_symop_operation_xyz
x,y,z
-x,-y,z
x,-y,1/2-z
-x,y,1/2-z
-x,-y,-z
x,y,-z
-x,y,1/2+z
x,-y,1/2+z
1/2+x,1/2+y,1/2+z
1/2-x,1/2-y,1/2+z
1/2+x,1/2-y,-z
1/2-x,1/2+y,-z
1/2-x,1/2-y,1/2-z
1/2+x,1/2+y,1/2-z
1/2-x,1/2+y,z
1/2+x,1/2-y,z
loop_
_atom_site_type_symbol
_atom_site_label
_atom_site_fract_x
_atom_site_fract_y
_atom_site_fract_z
Si Si1 0.813364 0.208824 0.373703
Si Si2 0.845806 0.346635 0.874365
Si Si3 0.303669 0.465398 0.872374
Si Si4 0.817331 0.360732 0.627757
Si Si5 0.429602 0.722828 0.313453
Si Si6 0.534691 0.415411 0.624401
O O1 0.845749 0.195537 0.500000
O O2 0.738585 0.171994 0.367532
O O3 0.799747 0.285132 0.366722
O O4 0.871343 0.194894 0.276889
O O5 0.859976 0.376708 0.746863
O O6 0.889764 0.280525 0.875466
O O7 0.858061 0.379232 0.000000
O O8 0.287814 0.500000 0.750000
O O9 0.254255 0.402569 0.872381
O O10 0.386888 0.446764 0.872880
O O11 0.289109 0.497853 0.000000
O O12 0.852623 0.370789 0.500000
O O13 0.500000 0.749925 0.250000
O O14 0.455926 0.660815 0.379111
O O15 0.500000 0.429516 0.750000
O O16 0.498487 0.432601 0.500000
#
# Coordination Sequence:
#
# PCOD9525238 Si02
#       6
#    16  16  16  16  16  16
#     4   9  17  29  47  70  97 129 164 199 240 292
#     4  10  18  29  48  73  98 127 164 204 240 285
#     4  10  21  36  53  71  92 120 160 211 262 304
#     4   9  17  31  48  66  90 120 151 187 237 293
#     4  10  19  30  47  72 104 138 170 203 241 289
#     4  10  21  35  49  66  92 129 168 207 249 294
#
# _framework density 21.357236
#
# number of rings (size 3 to 8) (size 9 to 14) (size 15 to 20)
#    0.000    2.333    0.000    4.500    0.000    7.667 
#    0.000    1.667    0.000    0.000    0.000    0.000 
#    0.000   10.667    0.000   77.333    0.000   17.000 
#
# Total GULP energy -267485.820143 kJ/mol
# GULP energy per Si atom -5572.621253 kJ/mol
# Density = 2.130863 g / cm^3
# Si number density = 21.357236 Si / 1000 Ang^3
#
#
#
# Elastic Constant Matrix: (Units=GPa)
#
#
# Indices 1 2 3 4 5 6 
#
# 1 43.0811 14.7296 24.2526 0.0000 0.0000 0.0000
# 2 14.7296 23.6672 29.1711 0.0000 0.0000 0.0000
# 3 24.2526 29.1711 242.2539 0.0000 0.0000 0.0000
# 4 0.0000 0.0000 0.0000 1.0215 0.0000 0.0000
# 5 0.0000 0.0000 0.0000 0.0000 -28.4830 0.0000
# 6 0.0000 0.0000 0.0000 0.0000 0.0000 16.0238
#
#
#
# Elastic Compliance Matrix: (Units=1/GPa)
#
#
# Indices 1 2 3 4 5 6 
#
# 1 0.029644 -0.017369 -0.000876 0.000000 0.000000 0.000000
# 2 -0.017369 0.059794 -0.005461 0.000000 0.000000 0.000000
# 3 -0.000876 -0.005461 0.004873 0.000000 0.000000 0.000000
# 4 0.000000 0.000000 0.000000 0.978988 0.000000 0.000000
# 5 0.000000 0.000000 0.000000 0.000000 -0.035109 0.000000
# 6 0.000000 0.000000 0.000000 0.000000 0.000000 0.062407
#
#
# Mechanical properties :
#
#
# Convention : Reuss Voigt Hill
#
# Bulk Modulus (GPa) = 21.32306 49.47874 35.40090
# Shear Modulus (GPa) = 4.29685 13.76905 9.03295
#
# Velocity S-wave (km/s) = 1.41995 2.54185 2.05880
# Velocity P-wave (km/s) = 3.56287 5.64200 4.71838
#
# Compressibility (1/GPa) = 0.04689758
#
# Stress axis : x y z
#
# Youngs Moduli (GPa) = 33.73372 16.72409 205.20263
#
# Poissons Ratio (x) = 0.29049 0.17980
# Poissons Ratio (y) = 0.58593 1.12066
# Poissons Ratio (z) = 0.02956 0.09133
#
# Static dielectric constant tensor:
#      x y z
#    x 1.717410 0.000000 0.000000 
#    y 0.000000 1.757280 0.000000 
#    z 0.000000 0.000000 1.932080 
# 
# From -- ./inp_files/13907.got.cif
#   From: 2010.05.17/outbox.cif.g08.bks.cpg/sg72_7_cif.got.tgz:13907.got - 2010.06.03 17:03:01.
