data_PCOD9525948
_publ_section_title
;
Structure prediction by ZEFSAII (Michael W. Deem and Ramdas Pophale) SiO2 
 PCOD9525948
Probable space group: I B A M
;
_chemical_formula_sum "Si O2"
_cell_formula_units_Z 116
_cell_length_a 27.252542
_cell_length_b 27.529735
_cell_length_c 8.930379
_cell_angle_alpha 90.000000
_cell_angle_beta 90.000000
_cell_angle_gamma 90.000000
_cell_volume 6700.063813
_symmetry_space_group_name_H-M "I B A M"
_symmetry_group_IT_number 72
_symmetry_cell_setting 'orthorhombic'
loop_
_space_group_symop_operation_xyz
x,y,z
-x,-y,z
x,-y,1/2-z
-x,y,1/2-z
-x,-y,-z
x,y,-z
-x,y,1/2+z
x,-y,1/2+z
1/2+x,1/2+y,1/2+z
1/2-x,1/2-y,1/2+z
1/2+x,1/2-y,-z
1/2-x,1/2+y,-z
1/2-x,1/2-y,1/2-z
1/2+x,1/2+y,1/2-z
1/2-x,1/2+y,z
1/2+x,1/2-y,z
loop_
_atom_site_type_symbol
_atom_site_label
_atom_site_fract_x
_atom_site_fract_y
_atom_site_fract_z
Si Si1 0.000000 0.500000 0.250000
Si Si2 0.950454 0.210877 0.821036
Si Si3 0.075262 0.313045 0.823165
Si Si4 0.184853 0.551920 0.680074
Si Si5 0.326317 0.790643 0.326393
Si Si6 0.244860 0.130571 0.825410
Si Si7 0.843652 0.821763 0.322921
Si Si8 0.923078 0.418139 0.673161
O O1 0.962069 0.461717 0.323210
O O2 0.944817 0.266437 0.764261
O O3 0.900662 0.182724 0.776821
O O4 0.000000 0.190607 0.750000
O O5 0.953159 0.211126 0.000000
O O6 0.133517 0.311601 0.787744
O O7 0.058773 0.366200 0.764970
O O8 0.065063 0.306577 0.000000
O O9 0.196759 0.500000 0.750000
O O10 0.183915 0.548923 0.500000
O O11 0.224451 0.590986 0.733826
O O12 0.129793 0.566234 0.736908
O O13 0.343673 0.797392 0.500000
O O14 0.276182 0.819674 0.310926
O O15 0.323202 0.733138 0.302093
O O16 0.190744 0.141358 0.764834
O O17 0.244084 0.117117 0.000000
O O18 0.841576 0.832423 0.500000
O O19 0.913385 0.406827 0.500000
#
# Coordination Sequence:
#
# PCOD9525948 Si02
#       8
#     4  16  16  16  16  16  16  16
#     4  12  22  40  52  70  96 128 182 236 292 328
#     4  10  21  37  54  77 106 142 179 214 262 311
#     4  10  19  33  51  73  98 132 177 221 271 324
#     4  11  22  40  58  77 103 136 178 224 278 334
#     4   9  18  32  49  74 105 137 173 213 264 320
#     4  11  21  33  53  81 106 138 176 216 271 325
#     4   9  19  34  51  75 109 142 175 216 259 314
#     4  10  22  37  52  71  95 128 172 226 284 331
#
# _framework density 17.313268000000001
#
# number of rings (size 3 to 8) (size 9 to 14) (size 15 to 20)
#    0.000    1.931    2.069    3.103    0.966    3.310 
#    0.000    2.069    0.000    0.000    0.000    0.000 
#    0.000    0.552    0.000    5.793    0.000    3.172 
#
# Total GULP energy -323389.174840 kJ/mol
# GULP energy per Si atom -5575.675428 kJ/mol
# Density = 1.727386 g / cm^3
# Si number density = 17.313268 Si / 1000 Ang^3
#
#
#
# Elastic Constant Matrix: (Units=GPa)
#
#
# Indices 1 2 3 4 5 6 
#
# 1 117.1580 43.9740 41.1888 0.0000 0.0000 0.0000
# 2 43.9740 44.6110 22.1398 0.0000 0.0000 0.0000
# 3 41.1888 22.1398 48.4588 0.0000 0.0000 0.0000
# 4 0.0000 0.0000 0.0000 19.9861 0.0000 0.0000
# 5 0.0000 0.0000 0.0000 0.0000 8.9003 0.0000
# 6 0.0000 0.0000 0.0000 0.0000 0.0000 18.1651
#
#
#
# Elastic Compliance Matrix: (Units=1/GPa)
#
#
# Indices 1 2 3 4 5 6 
#
# 1 0.015673 -0.011429 -0.008100 0.000000 0.000000 0.000000
# 2 -0.011429 0.037324 -0.007338 0.000000 0.000000 0.000000
# 3 -0.008100 -0.007338 0.030873 0.000000 0.000000 0.000000
# 4 0.000000 0.000000 0.000000 0.050035 0.000000 0.000000
# 5 0.000000 0.000000 0.000000 0.000000 0.112356 0.000000
# 6 0.000000 0.000000 0.000000 0.000000 0.000000 0.055051
#
#
# Mechanical properties :
#
#
# Convention : Reuss Voigt Hill
#
# Bulk Modulus (GPa) = 33.18282 47.20367 40.19324
# Shear Modulus (GPa) = 13.69522 16.27198 14.98360
#
# Velocity S-wave (km/s) = 2.81557 3.06903 2.94503
# Velocity P-wave (km/s) = 5.45689 6.31524 5.90169
#
# Compressibility (1/GPa) = 0.03013608
#
# Stress axis : x y z
#
# Youngs Moduli (GPa) = 63.80392 26.79247 32.39050
#
# Poissons Ratio (x) = 0.30622 0.26236
# Poissons Ratio (y) = 0.72924 0.23768
# Poissons Ratio (z) = 0.51680 0.19660
#
# Static dielectric constant tensor:
#      x y z
#    x 1.617800 0.000000 0.000000 
#    y 0.000000 1.586690 0.000000 
#    z 0.000000 0.000000 1.594900 
# 
# From -- ./inp_files/8418.got.cif
#   From: 2010.05.17/outbox.cif.g08.bks.cpg/sg72_5_cif.got.tgz:8418.got - 2010.06.03 17:03:01.
