data_PCOD9525927
_publ_section_title
;
Structure prediction by ZEFSAII (Michael W. Deem and Ramdas Pophale) SiO2 
 PCOD9525927
Probable space group: I B A M
;
_chemical_formula_sum "Si O2"
_cell_formula_units_Z 80
_cell_length_a 24.997780
_cell_length_b 10.049974
_cell_length_c 13.918703
_cell_angle_alpha 90.000000
_cell_angle_beta 90.000000
_cell_angle_gamma 90.000000
_cell_volume 3496.754542
_symmetry_space_group_name_H-M "I B A M"
_symmetry_group_IT_number 72
_symmetry_cell_setting 'orthorhombic'
loop_
_space_group_symop_operation_xyz
x,y,z
-x,-y,z
x,-y,1/2-z
-x,y,1/2-z
-x,-y,-z
x,y,-z
-x,y,1/2+z
x,-y,1/2+z
1/2+x,1/2+y,1/2+z
1/2-x,1/2-y,1/2+z
1/2+x,1/2-y,-z
1/2-x,1/2+y,-z
1/2-x,1/2-y,1/2-z
1/2+x,1/2+y,1/2-z
1/2-x,1/2+y,z
1/2+x,1/2-y,z
loop_
_atom_site_type_symbol
_atom_site_label
_atom_site_fract_x
_atom_site_fract_y
_atom_site_fract_z
Si Si1 0.665378 0.493841 0.604890
Si Si2 0.730217 0.126677 0.183563
Si Si3 0.011113 0.847991 0.363269
Si Si4 0.097503 0.267572 0.396240
Si Si5 0.874269 0.748204 0.181086
O O1 0.665464 0.560646 0.500000
O O2 0.720724 0.415420 0.616864
O O3 0.619406 0.383758 0.604999
O O4 0.653716 0.606194 0.683094
O O5 0.750000 0.250000 0.250000
O O6 0.673204 0.161094 0.136393
O O7 0.721243 0.000000 0.250000
O O8 0.070200 0.784624 0.371784
O O9 0.000000 0.856681 0.250000
O O10 0.966188 0.746778 0.398921
O O11 0.000000 0.000000 0.398190
O O12 0.116011 0.326367 0.500000
O O13 0.114609 0.311243 0.288430
#
# Coordination Sequence:
#
# PCOD9525927 Si02
#       5
#    16  16  16  16  16
#     4  11  22  36  60  93 126 170 219 267 326 400
#     4  12  23  41  65  89 128 175 221 268 327 389
#     4   9  17  29  54  85 119 160 204 255 319 380
#     4  10  19  32  56  91 125 161 210 264 326 384
#     4  11  21  39  61  88 131 171 211 266 334 389
#
# _framework density 22.878356
#
# number of rings (size 3 to 8) (size 9 to 14) (size 15 to 20)
#    0.000    1.400    6.000    0.600    0.000    2.000 
#    0.000    1.000    0.000    6.600    0.000    1.400 
#    0.000    0.000    0.000    0.000    0.000    0.000 
#
# Total GULP energy -222844.137526 kJ/mol
# GULP energy per Si atom -5571.103438 kJ/mol
# Density = 2.282628 g / cm^3
# Si number density = 22.878356 Si / 1000 Ang^3
#
#
#
# Elastic Constant Matrix: (Units=GPa)
#
#
# Indices 1 2 3 4 5 6 
#
# 1 189.0955 32.6959 19.4133 0.0000 0.0000 0.0000
# 2 32.6959 40.9812 -5.8798 0.0000 0.0000 0.0000
# 3 19.4133 -5.8798 93.1191 0.0000 0.0000 0.0000
# 4 0.0000 0.0000 0.0000 1.3169 0.0000 0.0000
# 5 0.0000 0.0000 0.0000 0.0000 -14.5029 0.0000
# 6 0.0000 0.0000 0.0000 0.0000 0.0000 22.8915
#
#
#
# Elastic Compliance Matrix: (Units=1/GPa)
#
#
# Indices 1 2 3 4 5 6 
#
# 1 0.006381 -0.005330 -0.001667 0.000000 0.000000 0.000000
# 2 -0.005330 0.029077 0.002947 0.000000 0.000000 0.000000
# 3 -0.001667 0.002947 0.011273 0.000000 0.000000 0.000000
# 4 0.000000 0.000000 0.000000 0.759332 0.000000 0.000000
# 5 0.000000 0.000000 0.000000 0.000000 -0.068952 0.000000
# 6 0.000000 0.000000 0.000000 0.000000 0.000000 0.043684
#
#
# Mechanical properties :
#
#
# Convention : Reuss Voigt Hill
#
# Bulk Modulus (GPa) = 25.88609 46.18384 36.03497
# Shear Modulus (GPa) = 6.23619 20.40553 13.32086
#
# Velocity S-wave (km/s) = 1.65279 2.98973 2.41560
# Velocity P-wave (km/s) = 3.87060 5.66997 4.85438
#
# Compressibility (1/GPa) = 0.03863078
#
# Stress axis : x y z
#
# Youngs Moduli (GPa) = 156.71337 34.39170 88.71119
#
# Poissons Ratio (x) = 0.18331 0.14787
# Poissons Ratio (y) = 0.83530 -0.26145
# Poissons Ratio (z) = 0.26122 -0.10136
#
# Static dielectric constant tensor:
#      x y z
#    x 1.921260 0.000000 0.000000 
#    y 0.000000 1.788070 0.000000 
#    z 0.000000 0.000000 2.012500 
# 
# From -- ./inp_files/24921.got.cif
#   From: 2010.05.17/outbox.cif.g08.bks.cpg/sg72_13_cif.got.tgz:24921.got - 2010.06.03 17:03:01.
