data_PCOD9525454
_publ_section_title
;
Structure prediction by ZEFSAII (Michael W. Deem and Ramdas Pophale) SiO2 
 PCOD9525454
Probable space group: I B A M
;
_chemical_formula_sum "Si O2"
_cell_formula_units_Z 64
_cell_length_a 7.214969
_cell_length_b 18.244615
_cell_length_c 18.969848
_cell_angle_alpha 90.000000
_cell_angle_beta 90.000000
_cell_angle_gamma 90.000000
_cell_volume 2497.083263
_symmetry_space_group_name_H-M "I B A M"
_symmetry_group_IT_number 72
_symmetry_cell_setting 'orthorhombic'
loop_
_space_group_symop_operation_xyz
x,y,z
-x,-y,z
x,-y,1/2-z
-x,y,1/2-z
-x,-y,-z
x,y,-z
-x,y,1/2+z
x,-y,1/2+z
1/2+x,1/2+y,1/2+z
1/2-x,1/2-y,1/2+z
1/2+x,1/2-y,-z
1/2-x,1/2+y,-z
1/2-x,1/2-y,1/2-z
1/2+x,1/2+y,1/2-z
1/2-x,1/2+y,z
1/2+x,1/2-y,z
loop_
_atom_site_type_symbol
_atom_site_label
_atom_site_fract_x
_atom_site_fract_y
_atom_site_fract_z
Si Si1 0.417977 0.174328 0.000000
Si Si2 0.500000 0.000000 0.750000
Si Si3 0.500000 0.257448 0.750000
Si Si4 0.420065 0.135188 0.844193
Si Si5 0.139303 0.123415 0.651017
Si Si6 0.854278 0.150990 0.000000
Si Si7 0.500000 0.500000 0.750000
O O1 0.344602 0.146022 0.923574
O O2 0.631582 0.150197 0.000000
O O3 0.408089 0.262839 0.000000
O O4 0.401744 0.057291 0.804994
O O5 0.361918 0.197359 0.787652
O O6 0.488638 0.314306 0.815109
O O7 0.644368 0.146332 0.850460
O O8 0.081511 0.112691 0.570837
O O9 0.113731 0.052965 0.698771
#
# Coordination Sequence:
#
# PCOD9525454 Si02
#       7
#     8   4   8  16  16   8   4
#     4  10  20  37  58  84 112 144 184 233 280 328
#     4  10  22  36  52  80 112 148 186 218 276 330
#     4  10  18  32  56  80 108 140 186 226 278 324
#     4  10  20  35  55  79 111 145 184 228 274 328
#     4  10  20  35  55  79 111 145 184 228 274 328
#     4  10  20  37  58  84 112 144 184 233 280 328
#     4  10  22  36  52  80 112 148 186 218 276 330
#
# _framework density 25.629902000000001
#
# number of rings (size 3 to 8) (size 9 to 14) (size 15 to 20)
#    0.000    2.000    2.500    1.500    0.000    1.000 
#    0.000    2.500    0.000    0.000    0.000    0.000 
#    0.000    0.000    0.000    0.000    0.000    0.000 
#
# Total GULP energy -178566.042926 kJ/mol
# GULP energy per Si atom -5580.188841 kJ/mol
# Density = 2.557157 g / cm^3
# Si number density = 25.629902 Si / 1000 Ang^3
#
#
#
# Elastic Constant Matrix: (Units=GPa)
#
#
# Indices 1 2 3 4 5 6 
#
# 1 112.1628 -3.5989 16.2438 0.0000 0.0000 0.0000
# 2 -3.5989 171.0858 91.3659 0.0000 0.0000 0.0000
# 3 16.2438 91.3659 315.6573 0.0000 0.0000 0.0000
# 4 0.0000 0.0000 0.0000 18.4618 0.0000 0.0000
# 5 0.0000 0.0000 0.0000 0.0000 23.8584 0.0000
# 6 0.0000 0.0000 0.0000 0.0000 0.0000 3.2917
#
#
#
# Elastic Compliance Matrix: (Units=1/GPa)
#
#
# Indices 1 2 3 4 5 6 
#
# 1 0.009021 0.000518 -0.000614 0.000000 0.000000 0.000000
# 2 0.000518 0.006943 -0.002036 0.000000 0.000000 0.000000
# 3 -0.000614 -0.002036 0.003789 0.000000 0.000000 0.000000
# 4 0.000000 0.000000 0.000000 0.054166 0.000000 0.000000
# 5 0.000000 0.000000 0.000000 0.000000 0.041914 0.000000
# 6 0.000000 0.000000 0.000000 0.000000 0.000000 0.303797
#
#
# Mechanical properties :
#
#
# Convention : Reuss Voigt Hill
#
# Bulk Modulus (GPa) = 64.56584 89.65861 77.11222
# Shear Modulus (GPa) = 11.65343 42.11539 26.88441
#
# Velocity S-wave (km/s) = 2.13464 4.05805 3.24226
# Velocity P-wave (km/s) = 5.59659 7.55083 6.64594
#
# Compressibility (1/GPa) = 0.01548807
#
# Stress axis : x y z
#
# Youngs Moduli (GPa) = 110.85053 144.02139 263.92061
#
# Poissons Ratio (x) = -0.07456 0.16207
# Poissons Ratio (y) = -0.05739 0.53744
# Poissons Ratio (z) = 0.06807 0.29328
#
# Static dielectric constant tensor:
#      x y z
#    x 2.493240 0.000000 0.000000 
#    y 0.000000 1.915910 0.000000 
#    z 0.000000 0.000000 2.082010 
# 
# From -- ./inp_files/35615.got.cif
#   From: 2010.05.17/outbox.cif.g08.bks.cpg/sg72_18_cif.got.tgz:35615.got - 2010.06.03 17:03:01.
