data_PCOD9525541
_publ_section_title
;
Structure prediction by ZEFSAII (Michael W. Deem and Ramdas Pophale) SiO2 
 PCOD9525541
Probable space group: I B A M
;
_chemical_formula_sum "Si O2"
_cell_formula_units_Z 64
_cell_length_a 9.232563
_cell_length_b 19.499108
_cell_length_c 15.929702
_cell_angle_alpha 90.000000
_cell_angle_beta 90.000000
_cell_angle_gamma 90.000000
_cell_volume 2867.772369
_symmetry_space_group_name_H-M "I B A M"
_symmetry_group_IT_number 72
_symmetry_cell_setting 'orthorhombic'
loop_
_space_group_symop_operation_xyz
x,y,z
-x,-y,z
x,-y,1/2-z
-x,y,1/2-z
-x,-y,-z
x,y,-z
-x,y,1/2+z
x,-y,1/2+z
1/2+x,1/2+y,1/2+z
1/2-x,1/2-y,1/2+z
1/2+x,1/2-y,-z
1/2-x,1/2+y,-z
1/2-x,1/2-y,1/2-z
1/2+x,1/2+y,1/2-z
1/2-x,1/2+y,z
1/2+x,1/2-y,z
loop_
_atom_site_type_symbol
_atom_site_label
_atom_site_fract_x
_atom_site_fract_y
_atom_site_fract_z
Si Si1 0.133072 0.864611 0.358725
Si Si2 0.159650 0.524251 0.097463
Si Si3 0.867468 0.283341 0.312514
Si Si4 0.172341 0.097152 0.662564
O O1 0.279101 0.898177 0.395639
O O2 0.105253 0.783339 0.369619
O O3 0.147189 0.883462 0.259831
O O4 0.979639 0.896648 0.385415
O O5 0.268810 0.478219 0.150369
O O6 0.000000 0.500000 0.125643
O O7 0.169780 0.504549 0.000000
O O8 0.750000 0.250000 0.250000
O O9 0.797132 0.347374 0.360495
O O10 0.000000 0.302122 0.250000
#
# Coordination Sequence:
#
# PCOD9525541 Si02
#       4
#    16  16  16  16
#     4  10  20  38  60  91 120 149 197 247 302 367
#     4  11  26  41  55  81 120 163 207 251 298 360
#     4  10  18  34  59  94 124 147 183 247 304 357
#     4  10  21  36  62  91 118 152 195 246 306 363
#
# _framework density 22.316973000000001
#
# number of rings (size 3 to 8) (size 9 to 14) (size 15 to 20)
#    0.000    1.750    5.000    1.500    7.000    5.000 
#    0.000    1.250    0.000    0.000    0.000    0.000 
#    0.000    0.000    0.000    0.000    0.000    0.000 
#
# Total GULP energy -178224.195648 kJ/mol
# GULP energy per Si atom -5569.506114 kJ/mol
# Density = 2.226618 g / cm^3
# Si number density = 22.316973 Si / 1000 Ang^3
#
#
#
# Elastic Constant Matrix: (Units=GPa)
#
#
# Indices 1 2 3 4 5 6 
#
# 1 123.2423 23.9750 0.2475 0.0000 0.0000 0.0000
# 2 23.9750 94.7667 -1.5616 0.0000 0.0000 0.0000
# 3 0.2475 -1.5616 21.3435 0.0000 0.0000 0.0000
# 4 0.0000 0.0000 0.0000 5.4373 0.0000 0.0000
# 5 0.0000 0.0000 0.0000 0.0000 2.1675 0.0000
# 6 0.0000 0.0000 0.0000 0.0000 0.0000 36.8963
#
#
#
# Elastic Compliance Matrix: (Units=1/GPa)
#
#
# Indices 1 2 3 4 5 6 
#
# 1 0.008536 -0.002164 -0.000257 0.000000 0.000000 0.000000
# 2 -0.002164 0.011113 0.000838 0.000000 0.000000 0.000000
# 3 -0.000257 0.000838 0.046917 0.000000 0.000000 0.000000
# 4 0.000000 0.000000 0.000000 0.183913 -0.000001 0.000000
# 5 0.000000 0.000000 0.000000 -0.000001 0.461370 0.000000
# 6 0.000000 0.000000 0.000000 0.000000 0.000000 0.027103
#
#
# Mechanical properties :
#
#
# Convention : Reuss Voigt Hill
#
# Bulk Modulus (GPa) = 15.77273 31.63047 23.70160
# Shear Modulus (GPa) = 6.55093 23.34634 14.94863
#
# Velocity S-wave (km/s) = 1.71516 3.23789 2.59092
# Velocity P-wave (km/s) = 3.31742 5.30873 4.42651
#
# Compressibility (1/GPa) = 0.06340057
#
# Stress axis : x y z
#
# Youngs Moduli (GPa) = 117.15752 89.98131 21.31422
#
# Poissons Ratio (x) = 0.19469 0.00548
# Poissons Ratio (y) = 0.25349 -0.01787
# Poissons Ratio (z) = 0.03014 -0.07542
#
# Static dielectric constant tensor:
#      x y z
#    x 1.901050 0.000000 0.000000 
#    y 0.000000 1.965500 0.000000 
#    z 0.000000 0.000000 1.829220 
# 
# From -- ./inp_files/27632.got.cif
#   From: 2010.05.17/outbox.cif.g08.bks.cpg/sg72_14_cif.got.tgz:27632.got - 2010.06.03 17:03:01.
