data_PCOD9525792
_publ_section_title
;
Structure prediction by ZEFSAII (Michael W. Deem and Ramdas Pophale) SiO2 
 PCOD9525792
Probable space group: I B A M
;
_chemical_formula_sum "Si O2"
_cell_formula_units_Z 96
_cell_length_a 26.119371
_cell_length_b 25.836039
_cell_length_c 8.839647
_cell_angle_alpha 90.000000
_cell_angle_beta 90.000000
_cell_angle_gamma 90.000000
_cell_volume 5965.180204
_symmetry_space_group_name_H-M "I B A M"
_symmetry_group_IT_number 72
_symmetry_cell_setting 'orthorhombic'
loop_
_space_group_symop_operation_xyz
x,y,z
-x,-y,z
x,-y,1/2-z
-x,y,1/2-z
-x,-y,-z
x,y,-z
-x,y,1/2+z
x,-y,1/2+z
1/2+x,1/2+y,1/2+z
1/2-x,1/2-y,1/2+z
1/2+x,1/2-y,-z
1/2-x,1/2+y,-z
1/2-x,1/2-y,1/2-z
1/2+x,1/2+y,1/2-z
1/2-x,1/2+y,z
1/2+x,1/2-y,z
loop_
_atom_site_type_symbol
_atom_site_label
_atom_site_fract_x
_atom_site_fract_y
_atom_site_fract_z
Si Si1 0.252649 0.553253 0.181262
Si Si2 0.552409 0.260471 0.171880
Si Si3 0.365565 0.448472 0.178976
Si Si4 0.448279 0.384798 0.327827
Si Si5 0.741888 0.830010 0.182700
Si Si6 0.667785 0.256326 0.816962
O O1 0.230038 0.500000 0.250000
O O2 0.310795 0.555658 0.241091
O O3 0.231857 0.610139 0.223851
O O4 0.252250 0.549030 0.000000
O O5 0.500000 0.241842 0.250000
O O6 0.548835 0.322826 0.166052
O O7 0.609250 0.251545 0.239698
O O8 0.552434 0.240584 0.000000
O O9 0.390525 0.500000 0.250000
O O10 0.400780 0.401262 0.226706
O O11 0.359536 0.453132 0.000000
O O12 0.500000 0.404419 0.250000
O O13 0.442380 0.403750 0.500000
O O14 0.701433 0.791590 0.258817
O O15 0.798612 0.807564 0.224753
O O16 0.738347 0.826047 0.000000
O O17 0.665180 0.256629 0.000000
#
# Coordination Sequence:
#
# PCOD9525792 Si02
#       6
#    16  16  16  16  16  16
#     4  10  19  32  48  66  90 118 149 185 225 268
#     4   9  18  31  47  66  90 119 149 184 224 267
#     4  11  21  32  45  61  80 107 144 183 226 269
#     4  10  19  32  46  61  82 108 142 183 226 267
#     4   9  18  31  47  68  94 123 153 189 231 272
#     4   9  17  30  47  68  94 123 154 188 228 271
#
# _framework density 16.093395000000001
#
# number of rings (size 3 to 8) (size 9 to 14) (size 15 to 20)
#    0.000    2.333    0.000    4.500    0.000    5.667 
#    0.000    5.000    0.000    0.000    0.000    0.000 
#    0.000    0.667    0.000    7.333    0.000    5.333 
#
# Total GULP energy -267308.404011 kJ/mol
# GULP energy per Si atom -5568.925084 kJ/mol
# Density = 1.605677 g / cm^3
# Si number density = 16.093395 Si / 1000 Ang^3
#
#
#
# Elastic Constant Matrix: (Units=GPa)
#
#
# Indices 1 2 3 4 5 6 
#
# 1 81.7511 15.9984 15.7044 0.0000 0.0000 0.0000
# 2 15.9984 72.9083 23.0482 0.0000 0.0000 0.0000
# 3 15.7044 23.0482 37.5607 0.0000 0.0000 0.0000
# 4 0.0000 0.0000 0.0000 13.5999 0.0000 0.0000
# 5 0.0000 0.0000 0.0000 0.0000 18.8167 0.0000
# 6 0.0000 0.0000 0.0000 0.0000 0.0000 8.1338
#
#
#
# Elastic Compliance Matrix: (Units=1/GPa)
#
#
# Indices 1 2 3 4 5 6 
#
# 1 0.013424 -0.001453 -0.004721 0.000000 0.000000 0.000000
# 2 -0.001453 0.017174 -0.009931 0.000000 0.000000 0.000000
# 3 -0.004721 -0.009931 0.034691 0.000000 0.000000 0.000000
# 4 0.000000 0.000000 0.000000 0.073530 0.000000 0.000000
# 5 0.000000 0.000000 0.000000 0.000000 0.053144 0.000000
# 6 0.000000 0.000000 0.000000 0.000000 0.000000 0.122943
#
#
# Mechanical properties :
#
#
# Convention : Reuss Voigt Hill
#
# Bulk Modulus (GPa) = 30.23053 33.52469 31.87761
# Shear Modulus (GPa) = 13.96093 17.27470 15.61781
#
# Velocity S-wave (km/s) = 2.94852 3.27984 3.11858
# Velocity P-wave (km/s) = 5.51515 5.93462 5.72872
#
# Compressibility (1/GPa) = 0.03307915
#
# Stress axis : x y z
#
# Youngs Moduli (GPa) = 74.49621 58.22706 28.82576
#
# Poissons Ratio (x) = 0.08461 0.13608
# Poissons Ratio (y) = 0.10826 0.28627
# Poissons Ratio (z) = 0.35168 0.57825
#
# Static dielectric constant tensor:
#      x y z
#    x 1.545730 0.000000 0.000000 
#    y 0.000000 1.578520 0.000000 
#    z 0.000000 0.000000 1.553820 
# 
# From -- ./inp_files/7087.got.cif
#   From: 2010.05.17/outbox.cif.g08.bks.cpg/sg72_4_cif.got.tgz:7087.got - 2010.06.03 17:03:01.
