data_PCOD9525404
_publ_section_title
;
Structure prediction by ZEFSAII (Michael W. Deem and Ramdas Pophale) SiO2 
 PCOD9525404
Probable space group: I B A M
;
_chemical_formula_sum "Si O2"
_cell_formula_units_Z 68
_cell_length_a 11.329293
_cell_length_b 12.985592
_cell_length_c 21.621814
_cell_angle_alpha 90.000000
_cell_angle_beta 90.000000
_cell_angle_gamma 90.000000
_cell_volume 3180.948876
_symmetry_space_group_name_H-M "I B A M"
_symmetry_group_IT_number 72
_symmetry_cell_setting 'orthorhombic'
loop_
_space_group_symop_operation_xyz
x,y,z
-x,-y,z
x,-y,1/2-z
-x,y,1/2-z
-x,-y,-z
x,y,-z
-x,y,1/2+z
x,-y,1/2+z
1/2+x,1/2+y,1/2+z
1/2-x,1/2-y,1/2+z
1/2+x,1/2-y,-z
1/2-x,1/2+y,-z
1/2-x,1/2-y,1/2-z
1/2+x,1/2+y,1/2-z
1/2-x,1/2+y,z
1/2+x,1/2-y,z
loop_
_atom_site_type_symbol
_atom_site_label
_atom_site_fract_x
_atom_site_fract_y
_atom_site_fract_z
Si Si1 0.811759 0.624062 0.428918
Si Si2 0.928805 0.124789 0.362569
Si Si3 0.328588 0.375091 0.929400
Si Si4 0.500000 0.500000 0.750000
Si Si5 0.430442 0.846555 0.924650
O O1 0.796664 0.595244 0.500000
O O2 0.693272 0.591223 0.394443
O O3 0.817391 0.749983 0.426726
O O4 0.945834 0.598605 0.410857
O O5 0.927863 0.246621 0.380029
O O6 0.059008 0.094933 0.388551
O O7 0.927571 0.078381 0.293859
O O8 0.193014 0.405385 0.915342
O O9 0.358274 0.402045 0.000000
O O10 0.432765 0.819517 0.000000
#
# Coordination Sequence:
#
# PCOD9525404 Si02
#       5
#    16  16  16   4  16
#     4   8  13  25  50  79  97 107 132 190 261 303
#     4  10  18  32  45  61  96 133 164 190 215 260
#     4   8  13  25  50  79  97 107 132 190 261 303
#     4  12  28  36  38  54  96 152 188 190 180 232
#     4   8  14  28  55  86 100 100 125 196 274 308
#
# _framework density 21.377269999999999
#
# number of rings (size 3 to 8) (size 9 to 14) (size 15 to 20)
#    0.000    3.294    0.000    4.941    0.000    0.000 
#    0.000   15.882    0.000    2.824    0.000    4.941 
#    0.000    0.000    0.000    0.000    0.000    0.000 
#
# Total GULP energy -189384.970655 kJ/mol
# GULP energy per Si atom -5570.146196 kJ/mol
# Density = 2.132861 g / cm^3
# Si number density = 21.377270 Si / 1000 Ang^3
#
#
#
# Elastic Constant Matrix: (Units=GPa)
#
#
# Indices 1 2 3 4 5 6 
#
# 1 228.0166 57.4760 77.5984 0.0000 0.0000 0.0000
# 2 57.4760 87.9720 34.2872 0.0000 0.0000 0.0000
# 3 77.5984 34.2872 89.3282 0.0000 0.0000 0.0000
# 4 0.0000 0.0000 0.0000 31.3519 0.0000 0.0000
# 5 0.0000 0.0000 0.0000 0.0000 -8.6527 0.0000
# 6 0.0000 0.0000 0.0000 0.0000 0.0000 58.0829
#
#
#
# Elastic Compliance Matrix: (Units=1/GPa)
#
#
# Indices 1 2 3 4 5 6 
#
# 1 0.006651 -0.002462 -0.004833 0.000000 0.000000 0.000000
# 2 -0.002462 0.014278 -0.003342 0.000000 0.000000 0.000000
# 3 -0.004833 -0.003342 0.016675 0.000000 0.000000 0.000000
# 4 0.000000 0.000000 0.000000 0.031896 0.000000 0.000000
# 5 0.000000 0.000000 0.000000 0.000000 -0.115571 0.000000
# 6 0.000000 0.000000 0.000000 0.000000 0.000000 0.017217
#
#
# Mechanical properties :
#
#
# Convention : Reuss Voigt Hill
#
# Bulk Modulus (GPa) = 61.23008 82.67112 71.95060
# Shear Modulus (GPa) = -2339.41643 31.88676 -1153.76484
#
# Velocity S-wave (km/s) = -33.11681 3.86634 -23.25699
# Velocity P-wave (km/s) = 37.86282 7.66080 26.21932
#
# Compressibility (1/GPa) = 0.01633184
#
# Stress axis : x y z
#
# Youngs Moduli (GPa) = 150.35794 70.03701 59.96851
#
# Poissons Ratio (x) = 0.17241 0.28980
# Poissons Ratio (y) = 0.37015 0.20041
# Poissons Ratio (z) = 0.72661 0.23406
#
# Static dielectric constant tensor:
#      x y z
#    x 1.835730 0.000000 0.000000 
#    y 0.000000 1.957270 0.000000 
#    z 0.000000 0.000000 1.708540 
# 
# From -- ./inp_files/36642.got.cif
#   From: 2010.05.17/outbox.cif.g08.bks.cpg/sg72_19_cif.got.tgz:36642.got - 2010.06.03 17:03:01.
