data_PCOD9525525
_publ_section_title
;
Structure prediction by ZEFSAII (Michael W. Deem and Ramdas Pophale) SiO2 
 PCOD9525525
Probable space group: I B A M
;
_chemical_formula_sum "Si O2"
_cell_formula_units_Z 104
_cell_length_a 7.279910
_cell_length_b 33.108750
_cell_length_c 20.979161
_cell_angle_alpha 90.000000
_cell_angle_beta 90.000000
_cell_angle_gamma 90.000000
_cell_volume 5056.580327
_symmetry_space_group_name_H-M "I B A M"
_symmetry_group_IT_number 72
_symmetry_cell_setting 'orthorhombic'
loop_
_space_group_symop_operation_xyz
x,y,z
-x,-y,z
x,-y,1/2-z
-x,y,1/2-z
-x,-y,-z
x,y,-z
-x,y,1/2+z
x,-y,1/2+z
1/2+x,1/2+y,1/2+z
1/2-x,1/2-y,1/2+z
1/2+x,1/2-y,-z
1/2-x,1/2+y,-z
1/2-x,1/2-y,1/2-z
1/2+x,1/2+y,1/2-z
1/2-x,1/2+y,z
1/2+x,1/2-y,z
loop_
_atom_site_type_symbol
_atom_site_label
_atom_site_fract_x
_atom_site_fract_y
_atom_site_fract_z
Si Si1 0.591059 0.770867 0.385023
Si Si2 0.499050 0.546605 0.424093
Si Si3 0.251912 0.677093 0.500000
Si Si4 0.696720 0.687637 0.634519
Si Si5 0.679671 0.107066 0.424782
Si Si6 0.291402 0.177794 0.274152
Si Si7 0.235696 0.384915 0.116585
O O1 0.690310 0.790243 0.444736
O O2 0.568346 0.722951 0.391388
O O3 0.397335 0.793487 0.379595
O O4 0.693961 0.782601 0.318970
O O5 0.500000 0.500000 0.404448
O O6 0.455140 0.548125 0.500000
O O7 0.698444 0.567312 0.416353
O O8 0.351831 0.574280 0.387869
O O9 0.286033 0.642925 0.443808
O O10 0.700549 0.644708 0.600567
O O11 0.676703 0.682929 0.710014
O O12 0.643117 0.113719 0.500000
O O13 0.483403 0.106977 0.390174
O O14 0.500000 0.169447 0.250000
O O15 0.231954 0.141394 0.320043
#
# Coordination Sequence:
#
# PCOD9525525 Si02
#       7
#    16  16   8  16  16  16  16
#     4  10  21  32  53  77 123 154 208 263 285 350
#     4  10  23  40  63 101 128 147 194 254 312 383
#     4  10  18  34  55  85 115 169 203 242 313 352
#     4  11  21  37  52  84 116 162 216 248 304 352
#     4  11  21  38  63  87 120 162 204 246 306 374
#     4   9  18  36  59  80 112 167 213 251 291 356
#     4  11  18  39  67  85 126 161 201 250 310 372
#
# _framework density 20.567260000000001
#
# number of rings (size 3 to 8) (size 9 to 14) (size 15 to 20)
#    0.000    1.692    6.154    0.462    1.077    3.077 
#    0.000    4.615    0.000    1.846    0.000    0.000 
#    0.000    0.000    0.000    0.000    0.000    0.000 
#
# Total GULP energy -289779.422678 kJ/mol
# GULP energy per Si atom -5572.681205 kJ/mol
# Density = 2.052045 g / cm^3
# Si number density = 20.567260 Si / 1000 Ang^3
#
#
#
# Elastic Constant Matrix: (Units=GPa)
#
#
# Indices 1 2 3 4 5 6 
#
# 1 73.8646 41.8554 25.2834 0.0000 0.0000 0.0000
# 2 41.8554 127.9547 44.0083 0.0000 0.0000 0.0000
# 3 25.2834 44.0083 83.9428 0.0000 0.0000 0.0000
# 4 0.0000 0.0000 0.0000 22.6402 0.0000 0.0000
# 5 0.0000 0.0000 0.0000 0.0000 15.9545 0.0000
# 6 0.0000 0.0000 0.0000 0.0000 0.0000 23.2421
#
#
#
# Elastic Compliance Matrix: (Units=1/GPa)
#
#
# Indices 1 2 3 4 5 6 
#
# 1 0.017109 -0.004665 -0.002707 0.000000 0.000000 0.000000
# 2 -0.004665 0.010807 -0.004260 0.000000 0.000000 0.000000
# 3 -0.002707 -0.004260 0.014962 0.000000 0.000000 0.000000
# 4 0.000000 0.000000 0.000000 0.044169 0.000000 0.000000
# 5 0.000000 0.000000 0.000000 0.000000 0.062678 0.000000
# 6 0.000000 0.000000 0.000000 0.000000 0.000000 0.043025
#
#
# Mechanical properties :
#
#
# Convention : Reuss Voigt Hill
#
# Bulk Modulus (GPa) = 50.99104 56.45069 53.72086
# Shear Modulus (GPa) = 22.46663 24.00839 23.23751
#
# Velocity S-wave (km/s) = 3.30866 3.42030 3.36494
# Velocity P-wave (km/s) = 6.28032 6.56539 6.42444
#
# Compressibility (1/GPa) = 0.01961129
#
# Stress axis : x y z
#
# Youngs Moduli (GPa) = 58.45038 92.53580 66.83673
#
# Poissons Ratio (x) = 0.43171 0.18094
# Poissons Ratio (y) = 0.27269 0.28475
# Poissons Ratio (z) = 0.15824 0.39424
#
# Static dielectric constant tensor:
#      x y z
#    x 1.862570 0.000000 0.000000 
#    y 0.000000 1.705850 0.000000 
#    z 0.000000 0.000000 1.708240 
# 
# From -- ./inp_files/36267.got.cif
#   From: 2010.05.17/outbox.cif.g08.bks.cpg/sg72_19_cif.got.tgz:36267.got - 2010.06.03 17:03:01.
