data_PCOD9525975
_publ_section_title
;
Structure prediction by ZEFSAII (Michael W. Deem and Ramdas Pophale) SiO2 
 PCOD9525975
Probable space group: I B A M
;
_chemical_formula_sum "Si O2"
_cell_formula_units_Z 116
_cell_length_a 27.115811
_cell_length_b 26.987611
_cell_length_c 8.895407
_cell_angle_alpha 90.000000
_cell_angle_beta 90.000000
_cell_angle_gamma 90.000000
_cell_volume 6509.578421
_symmetry_space_group_name_H-M "I B A M"
_symmetry_group_IT_number 72
_symmetry_cell_setting 'orthorhombic'
loop_
_space_group_symop_operation_xyz
x,y,z
-x,-y,z
x,-y,1/2-z
-x,y,1/2-z
-x,-y,-z
x,y,-z
-x,y,1/2+z
x,-y,1/2+z
1/2+x,1/2+y,1/2+z
1/2-x,1/2-y,1/2+z
1/2+x,1/2-y,-z
1/2-x,1/2+y,-z
1/2-x,1/2-y,1/2-z
1/2+x,1/2+y,1/2-z
1/2-x,1/2+y,z
1/2+x,1/2-y,z
loop_
_atom_site_type_symbol
_atom_site_label
_atom_site_fract_x
_atom_site_fract_y
_atom_site_fract_z
Si Si1 0.817649 0.926592 0.826082
Si Si2 0.287720 0.950429 0.821218
Si Si3 0.681181 0.841954 0.679636
Si Si4 0.365907 0.753222 0.321075
Si Si5 0.946962 0.181213 0.320208
Si Si6 0.418075 0.577927 0.670431
Si Si7 0.785527 0.185906 0.325170
Si Si8 0.500000 0.500000 0.250000
O O1 0.766905 0.943630 0.749490
O O2 0.866933 0.941818 0.739337
O O3 0.814461 0.866548 0.823154
O O4 0.819212 0.942603 0.000000
O O5 0.318871 0.900782 0.789534
O O6 0.309414 0.000000 0.750000
O O7 0.282673 0.955177 0.000000
O O8 0.681689 0.834612 0.500000
O O9 0.639272 0.808426 0.754628
O O10 0.732869 0.824227 0.751350
O O11 0.370493 0.753776 0.500000
O O12 0.408596 0.720693 0.245722
O O13 0.316132 0.725033 0.269967
O O14 0.947420 0.183175 0.500000
O O15 0.933437 0.125471 0.268272
O O16 0.000000 0.192175 0.250000
O O17 0.409184 0.594666 0.500000
O O18 0.461725 0.537448 0.670015
O O19 0.780770 0.201087 0.500000
#
# Coordination Sequence:
#
# PCOD9525975 Si02
#       8
#    16  16  16  16  16  16  16   4
#     4  10  21  36  56  78 105 140 184 232 282 337
#     4  10  21  37  57  80 111 149 189 229 276 328
#     4  10  21  36  54  80 114 148 187 230 274 332
#     4  12  23  36  57  83 112 147 183 226 282 340
#     4  12  25  43  64  85 110 142 184 233 289 347
#     4  12  25  42  61  79 104 138 184 238 296 347
#     4  10  19  33  53  79 111 145 181 225 277 336
#     4  12  30  44  60  78 110 136 190 248 304 344
#
# _framework density 17.819894999999999
#
# number of rings (size 3 to 8) (size 9 to 14) (size 15 to 20)
#    0.000    1.103    2.069    5.172    0.966    4.414 
#    0.000    0.000    0.000    0.000    0.000    0.000 
#    0.000    0.552    0.000    5.793    0.000    3.172 
#
# Total GULP energy -324217.048429 kJ/mol
# GULP energy per Si atom -5589.949111 kJ/mol
# Density = 1.777934 g / cm^3
# Si number density = 17.819895 Si / 1000 Ang^3
#
#
#
# Elastic Constant Matrix: (Units=GPa)
#
#
# Indices 1 2 3 4 5 6 
#
# 1 48.0752 45.3239 34.1613 0.0000 0.0000 0.0000
# 2 45.3239 125.6409 65.7601 0.0000 0.0000 0.0000
# 3 34.1613 65.7601 156.2931 0.0000 0.0000 0.0000
# 4 0.0000 0.0000 0.0000 14.3384 0.0000 0.0000
# 5 0.0000 0.0000 0.0000 0.0000 18.4803 0.0000
# 6 0.0000 0.0000 0.0000 0.0000 0.0000 21.6070
#
#
#
# Elastic Compliance Matrix: (Units=1/GPa)
#
#
# Indices 1 2 3 4 5 6 
#
# 1 0.032435 -0.010247 -0.002778 0.000000 0.000000 0.000000
# 2 -0.010247 0.013444 -0.003417 0.000000 0.000000 0.000000
# 3 -0.002778 -0.003417 0.008443 0.000000 0.000000 0.000000
# 4 0.000000 0.000000 0.000000 0.069743 0.000000 0.000000
# 5 0.000000 0.000000 0.000000 0.000000 0.054112 0.000000
# 6 0.000000 0.000000 0.000000 0.000000 0.000000 0.046281
#
#
# Mechanical properties :
#
#
# Convention : Reuss Voigt Hill
#
# Bulk Modulus (GPa) = 46.64440 68.94442 57.79441
# Shear Modulus (GPa) = 18.90449 23.20273 21.05361
#
# Velocity S-wave (km/s) = 3.26062 3.61233 3.44098
# Velocity P-wave (km/s) = 6.35672 7.49481 6.94910
#
# Compressibility (1/GPa) = 0.02143880
#
# Stress axis : x y z
#
# Youngs Moduli (GPa) = 30.83091 74.38287 118.43953
#
# Poissons Ratio (x) = 0.76217 0.32904
# Poissons Ratio (y) = 0.31591 0.40470
# Poissons Ratio (z) = 0.08565 0.25416
#
# Static dielectric constant tensor:
#      x y z
#    x 1.675950 0.000000 0.000000 
#    y 0.000000 1.664200 0.000000 
#    z 0.000000 0.000000 1.596550 
# 
# From -- ./inp_files/7259.got.cif
#   From: 2010.05.17/outbox.cif.g08.bks.cpg/sg72_4_cif.got.tgz:7259.got - 2010.06.03 17:03:01.
