data_PCOD9525753
_publ_section_title
;
Structure prediction by ZEFSAII (Michael W. Deem and Ramdas Pophale) SiO2 
 PCOD9525753
Probable space group: I B A M
;
_chemical_formula_sum "Si O2"
_cell_formula_units_Z 72
_cell_length_a 25.279091
_cell_length_b 16.438710
_cell_length_c 10.334475
_cell_angle_alpha 90.000000
_cell_angle_beta 90.000000
_cell_angle_gamma 90.000000
_cell_volume 4294.549435
_symmetry_space_group_name_H-M "I B A M"
_symmetry_group_IT_number 72
_symmetry_cell_setting 'orthorhombic'
loop_
_space_group_symop_operation_xyz
x,y,z
-x,-y,z
x,-y,1/2-z
-x,y,1/2-z
-x,-y,-z
x,y,-z
-x,y,1/2+z
x,-y,1/2+z
1/2+x,1/2+y,1/2+z
1/2-x,1/2-y,1/2+z
1/2+x,1/2-y,-z
1/2-x,1/2+y,-z
1/2-x,1/2-y,1/2-z
1/2+x,1/2+y,1/2-z
1/2-x,1/2+y,z
1/2+x,1/2-y,z
loop_
_atom_site_type_symbol
_atom_site_label
_atom_site_fract_x
_atom_site_fract_y
_atom_site_fract_z
Si Si1 0.646370 0.249948 0.849947
Si Si2 0.045970 0.139311 0.145458
Si Si3 0.382186 0.500000 0.750000
Si Si4 0.302044 0.631995 0.647644
Si Si5 0.817969 0.428964 0.650506
O O1 0.587949 0.287671 0.836154
O O2 0.683603 0.298940 0.751414
O O3 0.649603 0.153977 0.826982
O O4 0.662954 0.264230 0.000000
O O5 0.000000 0.141360 0.250000
O O6 0.080554 0.057703 0.164698
O O7 0.024540 0.142156 0.000000
O O8 0.344334 0.559710 0.668950
O O9 0.305361 0.662286 0.500000
O O10 0.243523 0.596576 0.668049
O O11 0.831257 0.500000 0.750000
O O12 0.824598 0.453635 0.500000
#
# Coordination Sequence:
#
# PCOD9525753 Si02
#       5
#    16  16   8  16  16
#     4   9  20  36  52  72 102 136 170 213 261 301
#     4  10  21  35  52  73 100 135 172 215 257 299
#     4  10  19  32  50  76 110 138 169 202 248 298
#     4  10  19  31  50  76 105 138 173 204 243 303
#     4  10  20  34  52  76 104 135 171 210 253 305
#
# _framework density 16.765438
#
# number of rings (size 3 to 8) (size 9 to 14) (size 15 to 20)
#    0.000    2.222    1.111    1.667    0.000    8.000 
#    0.000    0.000    0.000    0.667    0.000    4.667 
#    0.000    0.000    0.000    0.000    0.000    0.000 
#
# Total GULP energy -200870.510738 kJ/mol
# GULP energy per Si atom -5579.736409 kJ/mol
# Density = 1.672728 g / cm^3
# Si number density = 16.765438 Si / 1000 Ang^3
#
#
#
# Elastic Constant Matrix: (Units=GPa)
#
#
# Indices 1 2 3 4 5 6 
#
# 1 49.4434 39.2365 37.2090 0.0000 0.0000 0.0000
# 2 39.2365 120.3311 75.0090 0.0000 0.0000 0.0000
# 3 37.2090 75.0090 89.8820 0.0000 0.0000 0.0000
# 4 0.0000 0.0000 0.0000 28.3427 0.0000 0.0000
# 5 0.0000 0.0000 0.0000 0.0000 16.1621 0.0000
# 6 0.0000 0.0000 0.0000 0.0000 0.0000 7.1408
#
#
#
# Elastic Compliance Matrix: (Units=1/GPa)
#
#
# Indices 1 2 3 4 5 6 
#
# 1 0.030414 -0.004312 -0.008993 0.000000 0.000000 0.000000
# 2 -0.004312 0.017932 -0.013180 0.000000 0.000000 0.000000
# 3 -0.008993 -0.013180 0.025847 0.000000 0.000000 0.000000
# 4 0.000000 0.000000 0.000000 0.035282 0.000000 0.000000
# 5 0.000000 0.000000 0.000000 0.000000 0.061873 0.000000
# 6 0.000000 0.000000 0.000000 0.000000 0.000000 0.140040
#
#
# Mechanical properties :
#
#
# Convention : Reuss Voigt Hill
#
# Bulk Modulus (GPa) = 47.11332 62.50729 54.81030
# Shear Modulus (GPa) = 13.46142 17.54260 15.50201
#
# Velocity S-wave (km/s) = 2.83667 3.23825 3.04409
# Velocity P-wave (km/s) = 6.23630 7.16562 6.71705
#
# Compressibility (1/GPa) = 0.02122542
#
# Stress axis : x y z
#
# Youngs Moduli (GPa) = 32.87951 55.76612 38.68867
#
# Poissons Ratio (x) = 0.24044 0.34791
# Poissons Ratio (y) = 0.14176 0.50991
# Poissons Ratio (z) = 0.29567 0.73499
#
# Static dielectric constant tensor:
#      x y z
#    x 1.549460 0.000000 0.000000 
#    y 0.000000 1.555770 0.000000 
#    z 0.000000 0.000000 1.569340 
# 
# From -- ./inp_files/3684.got.cif
#   From: 2010.05.17/outbox.cif.g08.bks.cpg/sg72_2_cif.got.tgz:3684.got - 2010.06.03 17:03:01.
