data_PCOD9525442
_publ_section_title
;
Structure prediction by ZEFSAII (Michael W. Deem and Ramdas Pophale) SiO2 
 PCOD9525442
Probable space group: I B A M
;
_chemical_formula_sum "Si O2"
_cell_formula_units_Z 72
_cell_length_a 5.618066
_cell_length_b 26.465337
_cell_length_c 24.149010
_cell_angle_alpha 90.000000
_cell_angle_beta 90.000000
_cell_angle_gamma 90.000000
_cell_volume 3590.571644
_symmetry_space_group_name_H-M "I B A M"
_symmetry_group_IT_number 72
_symmetry_cell_setting 'orthorhombic'
loop_
_space_group_symop_operation_xyz
x,y,z
-x,-y,z
x,-y,1/2-z
-x,y,1/2-z
-x,-y,-z
x,y,-z
-x,y,1/2+z
x,-y,1/2+z
1/2+x,1/2+y,1/2+z
1/2-x,1/2-y,1/2+z
1/2+x,1/2-y,-z
1/2-x,1/2+y,-z
1/2-x,1/2-y,1/2-z
1/2+x,1/2+y,1/2-z
1/2-x,1/2+y,z
1/2+x,1/2-y,z
loop_
_atom_site_type_symbol
_atom_site_label
_atom_site_fract_x
_atom_site_fract_y
_atom_site_fract_z
Si Si1 0.250346 0.971367 0.433688
Si Si2 0.892636 0.699900 0.194521
Si Si3 0.779970 0.127279 0.361004
Si Si4 0.000000 0.869730 0.750000
Si Si5 0.626129 0.268846 0.909394
O O1 0.243021 0.963914 0.500000
O O2 0.263720 0.918301 0.402159
O O3 0.500000 0.000000 0.421181
O O4 0.000000 0.000000 0.419059
O O5 0.686322 0.666263 0.219788
O O6 0.831640 0.741940 0.150209
O O7 0.000000 0.723845 0.250000
O O8 0.058572 0.659533 0.162588
O O9 0.889356 0.104067 0.304030
O O10 0.914581 0.171919 0.395753
O O11 0.387300 0.243853 0.935328
#
# Coordination Sequence:
#
# PCOD9525442 Si02
#       5
#    16  16  16   8  16
#     4  10  24  46  72  90 104 144 209 269 309 346
#     4   9  19  30  49  84 124 167 200 224 266 346
#     4  10  21  34  59  85 123 154 200 245 295 352
#     4  10  18  32  53  88 124 170 191 228 286 354
#     4  10  19  30  48  82 120 159 194 229 268 339
#
# _framework density 20.052517000000002
#
# number of rings (size 3 to 8) (size 9 to 14) (size 15 to 20)
#    0.000    2.222    2.222    0.000    4.667    2.667 
#    0.000    0.556    0.000    5.333    0.000    0.000 
#    0.000    0.000    0.000    0.000    0.000    0.000 
#
# Total GULP energy -200418.757061 kJ/mol
# GULP energy per Si atom -5567.187696 kJ/mol
# Density = 2.000688 g / cm^3
# Si number density = 20.052517 Si / 1000 Ang^3
#
#
#
# Elastic Constant Matrix: (Units=GPa)
#
#
# Indices 1 2 3 4 5 6 
#
# 1 108.0147 30.7301 25.6994 0.0000 0.0000 0.0000
# 2 30.7301 119.0701 53.9137 0.0000 0.0000 0.0000
# 3 25.6994 53.9137 64.7828 0.0000 0.0000 0.0000
# 4 0.0000 0.0000 0.0000 49.3647 0.0000 0.0000
# 5 0.0000 0.0000 0.0000 0.0000 -1.7812 0.0000
# 6 0.0000 0.0000 0.0000 0.0000 0.0000 16.5372
#
#
#
# Elastic Compliance Matrix: (Units=1/GPa)
#
#
# Indices 1 2 3 4 5 6 
#
# 1 0.010347 -0.001303 -0.003021 0.000000 0.000000 0.000000
# 2 -0.001303 0.013641 -0.010835 0.000000 0.000000 0.000000
# 3 -0.003021 -0.010835 0.025652 0.000000 0.000000 0.000000
# 4 0.000000 0.000000 0.000000 0.020257 0.000000 0.000000
# 5 0.000000 0.000000 0.000000 0.000000 -0.561432 0.000000
# 6 0.000000 0.000000 0.000000 0.000000 0.000000 0.060470
#
#
# Mechanical properties :
#
#
# Convention : Reuss Voigt Hill
#
# Bulk Modulus (GPa) = 51.75298 56.95042 54.35170
# Shear Modulus (GPa) = -12.68049 24.92578 6.12265
#
# Velocity S-wave (km/s) = -2.51741 3.52948 1.74927
# Velocity P-wave (km/s) = 4.17312 6.71356 5.58958
#
# Compressibility (1/GPa) = 0.01932256
#
# Stress axis : x y z
#
# Youngs Moduli (GPa) = 96.64347 73.30972 38.98352
#
# Poissons Ratio (x) = 0.09551 0.11775
# Poissons Ratio (y) = 0.12591 0.42240
# Poissons Ratio (z) = 0.29192 0.79433
#
# Static dielectric constant tensor:
#      x y z
#    x 1.922280 0.000000 0.000000 
#    y 0.000000 1.664620 0.000000 
#    z 0.000000 0.000000 1.720160 
# 
# From -- ./inp_files/46637.got.cif
#   From: 2010.05.17/outbox.cif.g08.bks.cpg/sg72_24_cif.got.tgz:46637.got - 2010.06.03 17:03:01.
