data_PCOD9525445
_publ_section_title
;
Structure prediction by ZEFSAII (Michael W. Deem and Ramdas Pophale) SiO2 
 PCOD9525445
Probable space group: I B A M
;
_chemical_formula_sum "Si O2"
_cell_formula_units_Z 104
_cell_length_a 26.081685
_cell_length_b 9.823801
_cell_length_c 23.070039
_cell_angle_alpha 90.000000
_cell_angle_beta 90.000000
_cell_angle_gamma 90.000000
_cell_volume 5911.034996
_symmetry_space_group_name_H-M "I B A M"
_symmetry_group_IT_number 72
_symmetry_cell_setting 'orthorhombic'
loop_
_space_group_symop_operation_xyz
x,y,z
-x,-y,z
x,-y,1/2-z
-x,y,1/2-z
-x,-y,-z
x,y,-z
-x,y,1/2+z
x,-y,1/2+z
1/2+x,1/2+y,1/2+z
1/2-x,1/2-y,1/2+z
1/2+x,1/2-y,-z
1/2-x,1/2+y,-z
1/2-x,1/2-y,1/2-z
1/2+x,1/2+y,1/2-z
1/2-x,1/2+y,z
1/2+x,1/2-y,z
loop_
_atom_site_type_symbol
_atom_site_label
_atom_site_fract_x
_atom_site_fract_y
_atom_site_fract_z
Si Si1 0.286552 0.491762 0.681239
Si Si2 0.211832 0.439118 0.000000
Si Si3 0.177601 0.515334 0.125300
Si Si4 0.558630 0.487851 0.818993
Si Si5 0.369308 0.716871 0.870711
Si Si6 0.673558 0.383729 0.500000
Si Si7 0.861257 0.182445 0.500000
Si Si8 0.360099 0.305475 0.125401
O O1 0.295840 0.500000 0.750000
O O2 0.226892 0.478047 0.666937
O O3 0.319889 0.372803 0.649994
O O4 0.308742 0.629870 0.653414
O O5 0.201424 0.519389 0.059709
O O6 0.265859 0.360206 0.000000
O O7 0.170844 0.319248 0.000000
O O8 0.147473 0.373390 0.133227
O O9 0.141336 0.644756 0.135449
O O10 0.500000 0.500000 0.838720
O O11 0.560307 0.500000 0.750000
O O12 0.584488 0.342805 0.833244
O O13 0.593794 0.605702 0.847877
O O14 0.386484 0.683184 0.936801
O O15 0.672473 0.547376 0.500000
O O16 0.645494 0.331739 0.442940
#
# Coordination Sequence:
#
# PCOD9525445 Si02
#       8
#    16   8  16  16  16   8   8  16
#     4  11  22  34  49  74 112 155 191 221 261 319
#     4  10  21  32  49  80 119 158 183 213 263 320
#     4  11  22  34  53  82 119 152 177 224 273 328
#     4  10  22  43  65  80 101 140 190 241 286 331
#     4  10  20  37  56  81 113 143 182 226 278 327
#     4  12  19  30  57  81 113 150 194 223 251 320
#     4  10  18  32  54  79 108 146 186 215 263 318
#     4  11  22  35  55  84 112 142 189 230 273 327
#
# _framework density 17.594211000000001
#
# number of rings (size 3 to 8) (size 9 to 14) (size 15 to 20)
#    0.000    1.385    4.615    3.231    4.308    3.692 
#    0.000    2.308    0.000    1.846    0.000    4.308 
#    0.000    0.000    0.000    0.000    0.000    0.000 
#
# Total GULP energy -289947.070556 kJ/mol
# GULP energy per Si atom -5575.905203 kJ/mol
# Density = 1.755417 g / cm^3
# Si number density = 17.594211 Si / 1000 Ang^3
#
#
#
# Elastic Constant Matrix: (Units=GPa)
#
#
# Indices 1 2 3 4 5 6 
#
# 1 83.8198 20.2390 27.1781 0.0000 0.0000 0.0000
# 2 20.2390 95.2814 43.4791 0.0000 0.0000 0.0000
# 3 27.1781 43.4791 92.8717 0.0000 0.0000 0.0000
# 4 0.0000 0.0000 0.0000 -4.6663 0.0000 0.0000
# 5 0.0000 0.0000 0.0000 0.0000 64.9796 0.0000
# 6 0.0000 0.0000 0.0000 0.0000 0.0000 7.9987
#
#
#
# Elastic Compliance Matrix: (Units=1/GPa)
#
#
# Indices 1 2 3 4 5 6 
#
# 1 0.013313 -0.001335 -0.003271 0.000000 0.000000 0.000000
# 2 -0.001335 0.013480 -0.005920 0.000000 0.000000 0.000000
# 3 -0.003271 -0.005920 0.014496 0.000000 0.000000 0.000000
# 4 0.000000 0.000000 0.000000 -0.214305 0.000000 0.000000
# 5 0.000000 0.000000 0.000000 0.000000 0.015389 0.000000
# 6 0.000000 0.000000 0.000000 0.000000 0.000000 0.125020
#
#
# Mechanical properties :
#
#
# Convention : Reuss Voigt Hill
#
# Bulk Modulus (GPa) = 49.41396 50.41834 49.91615
# Shear Modulus (GPa) = -1040.37566 25.73418 -507.32074
#
# Velocity S-wave (km/s) = -24.34339 3.82861 -16.99915
# Velocity P-wave (km/s) = 27.60413 6.94714 18.89081
#
# Compressibility (1/GPa) = 0.02023720
#
# Stress axis : x y z
#
# Youngs Moduli (GPa) = 75.11263 74.18159 68.98270
#
# Poissons Ratio (x) = 0.09906 0.22563
# Poissons Ratio (y) = 0.10030 0.40840
# Poissons Ratio (z) = 0.24568 0.43917
#
# Static dielectric constant tensor:
#      x y z
#    x 1.570210 0.000000 0.000000 
#    y 0.000000 1.608840 0.000000 
#    z 0.000000 0.000000 1.670900 
# 
# From -- ./inp_files/45979.got.cif
#   From: 2010.05.17/outbox.cif.g08.bks.cpg/sg72_23_cif.got.tgz:45979.got - 2010.06.03 17:03:01.
