data_PCOD9525716
_publ_section_title
;
Structure prediction by ZEFSAII (Michael W. Deem and Ramdas Pophale) SiO2 
 PCOD9525716
Probable space group: I B A M
;
_chemical_formula_sum "Si O2"
_cell_formula_units_Z 96
_cell_length_a 19.152543
_cell_length_b 28.629333
_cell_length_c 8.813689
_cell_angle_alpha 90.000000
_cell_angle_beta 90.000000
_cell_angle_gamma 90.000000
_cell_volume 4832.761890
_symmetry_space_group_name_H-M "I B A M"
_symmetry_group_IT_number 72
_symmetry_cell_setting 'orthorhombic'
loop_
_space_group_symop_operation_xyz
x,y,z
-x,-y,z
x,-y,1/2-z
-x,y,1/2-z
-x,-y,-z
x,y,-z
-x,y,1/2+z
x,-y,1/2+z
1/2+x,1/2+y,1/2+z
1/2-x,1/2-y,1/2+z
1/2+x,1/2-y,-z
1/2-x,1/2+y,-z
1/2-x,1/2-y,1/2-z
1/2+x,1/2+y,1/2-z
1/2-x,1/2+y,z
1/2+x,1/2-y,z
loop_
_atom_site_type_symbol
_atom_site_label
_atom_site_fract_x
_atom_site_fract_y
_atom_site_fract_z
Si Si1 0.922593 0.306302 0.318840
Si Si2 0.921785 0.597818 0.318043
Si Si3 0.706436 0.049950 0.816374
Si Si4 0.920814 0.200117 0.680393
Si Si5 0.183952 0.873114 0.826999
Si Si6 0.570069 0.546934 0.170332
O O1 0.923693 0.314619 0.500000
O O2 0.892049 0.351513 0.236044
O O3 0.896607 0.253788 0.291308
O O4 0.000000 0.304287 0.250000
O O5 0.923964 0.595340 0.500000
O O6 0.871020 0.559427 0.246183
O O7 0.000000 0.593692 0.250000
O O8 0.750936 0.096050 0.767267
O O9 0.731262 0.000000 0.750000
O O10 0.709135 0.048121 0.000000
O O11 0.928921 0.193614 0.500000
O O12 0.858126 0.167487 0.740685
O O13 0.000000 0.192942 0.750000
O O14 0.126255 0.913470 0.831606
O O15 0.200308 0.857505 0.000000
O O16 0.594887 0.500000 0.250000
O O17 0.500000 0.563741 0.250000
O O18 0.552799 0.534799 0.000000
#
# Coordination Sequence:
#
# PCOD9525716 Si02
#       6
#    16  16  16  16  16  16
#     4   9  17  32  55  86 119 152 188 232 283 337
#     4  11  22  39  65  94 119 148 184 228 283 347
#     4  11  24  43  63  86 116 151 190 237 290 348
#     4  10  20  33  55  85 119 157 200 243 285 333
#     4  10  22  37  54  77 110 150 192 236 285 335
#     4  10  19  31  47  70  97 133 180 231 281 328
#
# _framework density 19.864419000000002
#
# number of rings (size 3 to 8) (size 9 to 14) (size 15 to 20)
#    0.000    1.833    0.000    6.000    0.000    6.333 
#    0.000    2.500    0.000    0.000    0.000    0.000 
#    0.000    0.000    0.000    0.000    0.000    0.000 
#
# Total GULP energy -267474.980997 kJ/mol
# GULP energy per Si atom -5572.395437 kJ/mol
# Density = 1.981921 g / cm^3
# Si number density = 19.864419 Si / 1000 Ang^3
#
#
#
# Elastic Constant Matrix: (Units=GPa)
#
#
# Indices 1 2 3 4 5 6 
#
# 1 98.7982 15.0523 21.6618 0.0000 0.0000 0.0000
# 2 15.0523 118.4233 43.0937 0.0000 0.0000 0.0000
# 3 21.6618 43.0937 102.4942 0.0000 0.0000 0.0000
# 4 0.0000 0.0000 0.0000 45.5640 0.0000 0.0000
# 5 0.0000 0.0000 0.0000 0.0000 10.6833 0.0000
# 6 0.0000 0.0000 0.0000 0.0000 0.0000 50.1933
#
#
#
# Elastic Compliance Matrix: (Units=1/GPa)
#
#
# Indices 1 2 3 4 5 6 
#
# 1 0.010653 -0.000631 -0.001986 0.000000 0.000000 0.000000
# 2 -0.000631 0.010007 -0.004074 0.000000 0.000000 0.000000
# 3 -0.001986 -0.004074 0.011889 0.000000 0.000000 0.000000
# 4 0.000000 0.000000 0.000000 0.021947 0.000000 0.000000
# 5 0.000000 0.000000 0.000000 0.000000 0.093604 0.000000
# 6 0.000000 0.000000 0.000000 0.000000 0.000000 0.019923
#
#
# Mechanical properties :
#
#
# Convention : Reuss Voigt Hill
#
# Bulk Modulus (GPa) = 52.17377 53.25901 52.71639
# Shear Modulus (GPa) = 26.62474 37.28199 31.95336
#
# Velocity S-wave (km/s) = 3.66501 4.33693 4.01505
# Velocity P-wave (km/s) = 6.65069 7.20750 6.93469
#
# Compressibility (1/GPa) = 0.01916672
#
# Stress axis : x y z
#
# Youngs Moduli (GPa) = 93.86778 99.92946 84.10901
#
# Poissons Ratio (x) = 0.06309 0.16705
# Poissons Ratio (y) = 0.05926 0.34266
# Poissons Ratio (z) = 0.18643 0.40712
#
# Static dielectric constant tensor:
#      x y z
#    x 1.707170 0.000000 0.000000 
#    y 0.000000 1.747640 0.000000 
#    z 0.000000 0.000000 1.701460 
# 
# From -- ./inp_files/6038.got.cif
#   From: 2010.05.17/outbox.cif.g08.bks.cpg/sg72_4_cif.got.tgz:6038.got - 2010.06.03 17:03:01.
