data_PCOD9525334
_publ_section_title
;
Structure prediction by ZEFSAII (Michael W. Deem and Ramdas Pophale) SiO2 
 PCOD9525334
Probable space group: I B A M
;
_chemical_formula_sum "Si O2"
_cell_formula_units_Z 104
_cell_length_a 29.613921
_cell_length_b 20.364306
_cell_length_c 9.058230
_cell_angle_alpha 90.000000
_cell_angle_beta 90.000000
_cell_angle_gamma 90.000000
_cell_volume 5462.719130
_symmetry_space_group_name_H-M "I B A M"
_symmetry_group_IT_number 72
_symmetry_cell_setting 'orthorhombic'
loop_
_space_group_symop_operation_xyz
x,y,z
-x,-y,z
x,-y,1/2-z
-x,y,1/2-z
-x,-y,-z
x,y,-z
-x,y,1/2+z
x,-y,1/2+z
1/2+x,1/2+y,1/2+z
1/2-x,1/2-y,1/2+z
1/2+x,1/2-y,-z
1/2-x,1/2+y,-z
1/2-x,1/2-y,1/2-z
1/2+x,1/2+y,1/2-z
1/2-x,1/2+y,z
1/2+x,1/2-y,z
loop_
_atom_site_type_symbol
_atom_site_label
_atom_site_fract_x
_atom_site_fract_y
_atom_site_fract_z
Si Si1 0.690462 0.500000 0.250000
Si Si2 0.547793 0.690654 0.827198
Si Si3 0.879654 0.697434 0.323675
Si Si4 0.631573 0.384605 0.335906
Si Si5 0.308909 0.714580 0.173524
Si Si6 0.762110 0.390537 0.830189
Si Si7 0.853748 0.569417 0.824137
O O1 0.655882 0.454264 0.339761
O O2 0.724364 0.448238 0.173647
O O3 0.500000 0.688903 0.750000
O O4 0.580757 0.751142 0.782116
O O5 0.578498 0.625064 0.809506
O O6 0.539425 0.699225 0.000000
O O7 0.831936 0.728243 0.268500
O O8 0.883727 0.628109 0.242354
O O9 0.120626 0.689759 0.000000
O O10 0.639833 0.353510 0.500000
O O11 0.655600 0.344056 0.206810
O O12 0.262467 0.677556 0.216606
O O13 0.306992 0.731358 0.000000
O O14 0.802556 0.412759 0.725758
O O15 0.777725 0.384001 0.000000
O O16 0.864969 0.500000 0.750000
O O17 0.856548 0.566037 0.000000
#
# Coordination Sequence:
#
# PCOD9525334 Si02
#       7
#     8  16  16  16  16  16  16
#     4  10  18  30  55  76 108 154 205 236 274 318
#     4   9  19  36  60  86 111 140 177 227 283 342
#     4  10  21  39  60  82 111 144 181 226 279 334
#     4   9  18  32  50  77 111 148 189 234 282 330
#     4   9  18  32  52  80 109 141 186 233 279 325
#     4  10  20  33  51  77 109 148 195 238 274 321
#     4  12  25  39  57  80 111 148 186 228 275 329
#
# _framework density 19.038138
#
# number of rings (size 3 to 8) (size 9 to 14) (size 15 to 20)
#    0.000    2.154    0.769    3.692    0.000    7.385 
#    0.000    0.385    0.000    2.308    0.000    3.231 
#    0.000    0.000    0.000    0.000    0.000    0.000 
#
# Total GULP energy -289764.217811 kJ/mol
# GULP energy per Si atom -5572.388804 kJ/mol
# Density = 1.899481 g / cm^3
# Si number density = 19.038138 Si / 1000 Ang^3
#
#
#
# Elastic Constant Matrix: (Units=GPa)
#
#
# Indices 1 2 3 4 5 6 
#
# 1 87.6139 2.4910 6.2733 0.0000 0.0000 0.0000
# 2 2.4910 68.1997 9.1612 0.0000 0.0000 0.0000
# 3 6.2733 9.1612 63.3344 0.0000 0.0000 0.0000
# 4 0.0000 0.0000 0.0000 25.1098 0.0000 0.0000
# 5 0.0000 0.0000 0.0000 0.0000 19.6976 0.0000
# 6 0.0000 0.0000 0.0000 0.0000 0.0000 22.0642
#
#
#
# Elastic Compliance Matrix: (Units=1/GPa)
#
#
# Indices 1 2 3 4 5 6 
#
# 1 0.011500 -0.000272 -0.001100 0.000000 0.000000 0.000000
# 2 -0.000272 0.014960 -0.002137 0.000000 0.000000 0.000000
# 3 -0.001100 -0.002137 0.016207 0.000000 0.000000 0.000000
# 4 0.000000 0.000000 0.000000 0.039825 0.000000 0.000000
# 5 0.000000 0.000000 0.000000 0.000000 0.050768 0.000000
# 6 0.000000 0.000000 0.000000 0.000000 0.000000 0.045322
#
#
# Mechanical properties :
#
#
# Convention : Reuss Voigt Hill
#
# Bulk Modulus (GPa) = 28.05102 28.33322 28.19212
# Shear Modulus (GPa) = 25.31861 26.78917 26.05389
#
# Velocity S-wave (km/s) = 3.65072 3.75524 3.70335
# Velocity P-wave (km/s) = 5.70407 5.80665 5.75559
#
# Compressibility (1/GPa) = 0.03564933
#
# Stress axis : x y z
#
# Youngs Moduli (GPa) = 86.95506 66.84568 61.70088
#
# Poissons Ratio (x) = 0.01820 0.06785
# Poissons Ratio (y) = 0.02368 0.13185
# Poissons Ratio (z) = 0.09563 0.14284
#
# Static dielectric constant tensor:
#      x y z
#    x 1.663600 0.000000 0.000000 
#    y 0.000000 1.731650 0.000000 
#    z 0.000000 0.000000 1.685800 
# 
# From -- ./inp_files/9176.got.cif
#   From: 2010.05.17/outbox.cif.g08.bks.cpg/sg72_5_cif.got.tgz:9176.got - 2010.06.03 17:03:01.
