data_PCOD9525119
_publ_section_title
;
Structure prediction by ZEFSAII (Michael W. Deem and Ramdas Pophale) SiO2 
 PCOD9525119
Probable space group: I B A M
;
_chemical_formula_sum "Si O2"
_cell_formula_units_Z 128
_cell_length_a 18.989359
_cell_length_b 22.956462
_cell_length_c 17.853837
_cell_angle_alpha 90.000000
_cell_angle_beta 90.000000
_cell_angle_gamma 90.000000
_cell_volume 7782.996352
_symmetry_space_group_name_H-M "I B A M"
_symmetry_group_IT_number 72
_symmetry_cell_setting 'orthorhombic'
loop_
_space_group_symop_operation_xyz
x,y,z
-x,-y,z
x,-y,1/2-z
-x,y,1/2-z
-x,-y,-z
x,y,-z
-x,y,1/2+z
x,-y,1/2+z
1/2+x,1/2+y,1/2+z
1/2-x,1/2-y,1/2+z
1/2+x,1/2-y,-z
1/2-x,1/2+y,-z
1/2-x,1/2-y,1/2-z
1/2+x,1/2+y,1/2-z
1/2-x,1/2+y,z
1/2+x,1/2-y,z
loop_
_atom_site_type_symbol
_atom_site_label
_atom_site_fract_x
_atom_site_fract_y
_atom_site_fract_z
Si Si1 0.544111 0.246618 0.350344
Si Si2 0.811379 0.753331 0.580547
Si Si3 0.258101 0.845058 0.192656
Si Si4 0.889815 0.932266 0.160604
Si Si5 0.477744 0.374137 0.911155
Si Si6 0.798854 0.174449 0.358959
Si Si7 0.645180 0.433620 0.666776
Si Si8 0.398392 0.780165 0.183699
O O1 0.608433 0.235511 0.405790
O O2 0.520038 0.312970 0.366692
O O3 0.577986 0.237104 0.268104
O O4 0.472827 0.209371 0.356783
O O5 0.804312 0.782241 0.500000
O O6 0.784916 0.797589 0.644078
O O7 0.760051 0.698264 0.585975
O O8 0.238947 0.832323 0.278595
O O9 0.223675 0.907060 0.171587
O O10 0.340631 0.831504 0.182207
O O11 0.836690 0.885911 0.124109
O O12 0.888834 0.921224 0.250654
O O13 0.965284 0.918298 0.124593
O O14 0.863025 0.998015 0.152053
O O15 0.400849 0.399906 0.894219
O O16 0.489429 0.366116 0.000000
O O17 0.858016 0.224456 0.350497
#
# Coordination Sequence:
#
# PCOD9525119 Si02
#       8
#    16  16  16  16  16  16  16  16
#     4  11  19  31  49  75 101 134 167 200 255 312
#     4  11  20  31  48  72 102 134 165 201 255 307
#     4  10  18  34  51  73  97 127 171 214 252 301
#     4  10  21  36  52  72  98 135 178 213 252 296
#     4  12  23  33  46  71 107 141 173 211 245 297
#     4  10  17  34  50  70  99 127 166 207 248 300
#     4  10  21  35  55  71  95 136 179 215 253 298
#     4  10  18  30  54  74  95 131 166 210 253 302
#
# _framework density 16.446107999999999
#
# number of rings (size 3 to 8) (size 9 to 14) (size 15 to 20)
#    0.000    1.500    5.000    2.625    1.750    2.500 
#    0.000    0.625    0.000    0.000    0.000    0.875 
#    0.000    1.000    0.000    0.000    0.000    0.000 
#
# Total GULP energy -356793.354312 kJ/mol
# GULP energy per Si atom -5574.896161 kJ/mol
# Density = 1.640868 g / cm^3
# Si number density = 16.446108 Si / 1000 Ang^3
#
#
#
# Elastic Constant Matrix: (Units=GPa)
#
#
# Indices 1 2 3 4 5 6 
#
# 1 124.1818 39.8895 20.5050 0.0000 0.0000 0.0000
# 2 39.8895 58.0616 16.1086 0.0000 0.0000 0.0000
# 3 20.5050 16.1086 38.0302 0.0000 0.0000 0.0000
# 4 0.0000 0.0000 0.0000 -1.1186 0.0000 0.0000
# 5 0.0000 0.0000 0.0000 0.0000 2.8049 0.0000
# 6 0.0000 0.0000 0.0000 0.0000 0.0000 25.0714
#
#
#
# Elastic Compliance Matrix: (Units=1/GPa)
#
#
# Indices 1 2 3 4 5 6 
#
# 1 0.010624 -0.006470 -0.002988 0.000000 0.000000 0.000000
# 2 -0.006470 0.023457 -0.006447 0.000000 0.000000 0.000000
# 3 -0.002988 -0.006447 0.030637 0.000000 0.000000 0.000000
# 4 0.000000 0.000000 0.000000 -0.893970 0.000000 0.000000
# 5 0.000000 0.000000 0.000000 0.000000 0.356514 0.000000
# 6 0.000000 0.000000 0.000000 0.000000 0.000000 0.039886
#
#
# Mechanical properties :
#
#
# Convention : Reuss Voigt Hill
#
# Bulk Modulus (GPa) = 30.38808 41.47554 35.93181
# Shear Modulus (GPa) = -12.81815 14.93624 1.05905
#
# Velocity S-wave (km/s) = -2.79481 3.01689 0.80334
# Velocity P-wave (km/s) = 2.84656 6.11632 4.77034
#
# Compressibility (1/GPa) = 0.03290765
#
# Stress axis : x y z
#
# Youngs Moduli (GPa) = 94.12269 42.63119 32.64056
#
# Poissons Ratio (x) = 0.27583 0.09752
# Poissons Ratio (y) = 0.60900 0.21044
# Poissons Ratio (z) = 0.28122 0.27485
#
# Static dielectric constant tensor:
#      x y z
#    x 1.581390 0.000000 0.000000 
#    y 0.000000 1.551850 0.000000 
#    z 0.000000 0.000000 1.583850 
# 
# From -- ./inp_files/32062.got.cif
#   From: 2010.05.17/outbox.cif.g08.bks.cpg/sg72_17_cif.got.tgz:32062.got - 2010.06.03 17:03:01.
