data_PCOD9525641
_publ_section_title
;
Structure prediction by ZEFSAII (Michael W. Deem and Ramdas Pophale) SiO2 
 PCOD9525641
Probable space group: I B A M
;
_chemical_formula_sum "Si O2"
_cell_formula_units_Z 64
_cell_length_a 7.230962
_cell_length_b 26.590950
_cell_length_c 13.752600
_cell_angle_alpha 90.000000
_cell_angle_beta 90.000000
_cell_angle_gamma 90.000000
_cell_volume 2644.324472
_symmetry_space_group_name_H-M "I B A M"
_symmetry_group_IT_number 72
_symmetry_cell_setting 'orthorhombic'
loop_
_space_group_symop_operation_xyz
x,y,z
-x,-y,z
x,-y,1/2-z
-x,y,1/2-z
-x,-y,-z
x,y,-z
-x,y,1/2+z
x,-y,1/2+z
1/2+x,1/2+y,1/2+z
1/2-x,1/2-y,1/2+z
1/2+x,1/2-y,-z
1/2-x,1/2+y,-z
1/2-x,1/2-y,1/2-z
1/2+x,1/2+y,1/2-z
1/2-x,1/2+y,z
1/2+x,1/2-y,z
loop_
_atom_site_type_symbol
_atom_site_label
_atom_site_fract_x
_atom_site_fract_y
_atom_site_fract_z
Si Si1 0.079245 0.701542 0.887983
Si Si2 0.451463 0.058547 0.113036
Si Si3 0.141587 0.814946 0.891365
Si Si4 0.251448 0.384681 0.749745
O O1 0.084197 0.759759 0.856621
O O2 0.182515 0.664656 0.812985
O O3 0.864193 0.687911 0.893465
O O4 0.151750 0.699497 0.000000
O O5 0.259074 0.072672 0.166588
O O6 0.607699 0.089476 0.171817
O O7 0.500000 0.000000 0.120063
O O8 0.448235 0.073395 0.000000
O O9 0.098505 0.862418 0.824725
O O10 0.071091 0.821737 0.000000
#
# Coordination Sequence:
#
# PCOD9525641 Si02
#       4
#    16  16  16  16
#     4  10  19  30  45  67  95 129 164 194 228 276
#     4  10  19  29  44  67  93 122 157 199 248 295
#     4  10  19  30  45  67  95 129 164 194 228 276
#     4  11  17  28  46  62  90 125 159 185 239 283
#
# _framework density 24.202777999999999
#
# number of rings (size 3 to 8) (size 9 to 14) (size 15 to 20)
#    0.000    1.750    5.000    3.750    0.000    0.000 
#    0.000    0.000    0.000    0.000    0.000    0.000 
#    0.000   16.000    0.000   74.000    0.000    0.000 
#
# Total GULP energy -178479.230353 kJ/mol
# GULP energy per Si atom -5577.475949 kJ/mol
# Density = 2.414769 g / cm^3
# Si number density = 24.202778 Si / 1000 Ang^3
#
#
#
# Elastic Constant Matrix: (Units=GPa)
#
#
# Indices 1 2 3 4 5 6 
#
# 1 34.2807 -2.8354 15.6569 0.0000 0.0000 0.0000
# 2 -2.8354 138.7355 69.3442 0.0000 0.0000 0.0000
# 3 15.6569 69.3442 198.7489 0.0000 0.0000 0.0000
# 4 0.0000 0.0000 0.0000 51.0542 0.0000 0.0000
# 5 0.0000 0.0000 0.0000 0.0000 24.6230 0.0000
# 6 0.0000 0.0000 0.0000 0.0000 0.0000 25.5572
#
#
#
# Elastic Compliance Matrix: (Units=1/GPa)
#
#
# Indices 1 2 3 4 5 6 
#
# 1 0.030820 0.002233 -0.003207 0.000000 0.000000 0.000000
# 2 0.002233 0.008892 -0.003278 0.000000 0.000000 0.000000
# 3 -0.003207 -0.003278 0.006428 0.000000 0.000000 0.000000
# 4 0.000000 0.000000 0.000000 0.019587 0.000000 0.000000
# 5 0.000000 0.000000 0.000000 0.000000 0.040612 0.000000
# 6 0.000000 0.000000 0.000000 0.000000 0.000000 0.039128
#
#
# Mechanical properties :
#
#
# Convention : Reuss Voigt Hill
#
# Bulk Modulus (GPa) = 26.57074 59.56627 43.06850
# Shear Modulus (GPa) = 30.02674 39.55351 34.79013
#
# Velocity S-wave (km/s) = 3.52608 4.04698 3.79548
# Velocity P-wave (km/s) = 5.25166 6.81925 6.08613
#
# Compressibility (1/GPa) = 0.03763539
#
# Stress axis : x y z
#
# Youngs Moduli (GPa) = 32.44612 112.45742 155.57008
#
# Poissons Ratio (x) = -0.25110 0.49891
# Poissons Ratio (y) = -0.07245 0.51003
# Poissons Ratio (z) = 0.10405 0.36868
#
# Static dielectric constant tensor:
#      x y z
#    x 2.113460 0.000000 0.000000 
#    y 0.000000 1.915280 0.000000 
#    z 0.000000 0.000000 2.024120 
# 
# From -- ./inp_files/20051.got.cif
#   From: 2010.05.17/outbox.cif.g08.bks.cpg/sg72_11_cif.got.tgz:20051.got - 2010.06.03 17:03:01.
