data_PCOD9525321
_publ_section_title
;
Structure prediction by ZEFSAII (Michael W. Deem and Ramdas Pophale) SiO2 
 PCOD9525321
Probable space group: I B A M
;
_chemical_formula_sum "Si O2"
_cell_formula_units_Z 68
_cell_length_a 18.066609
_cell_length_b 17.853139
_cell_length_c 9.423276
_cell_angle_alpha 90.000000
_cell_angle_beta 90.000000
_cell_angle_gamma 90.000000
_cell_volume 3039.436982
_symmetry_space_group_name_H-M "I B A M"
_symmetry_group_IT_number 72
_symmetry_cell_setting 'orthorhombic'
loop_
_space_group_symop_operation_xyz
x,y,z
-x,-y,z
x,-y,1/2-z
-x,y,1/2-z
-x,-y,-z
x,y,-z
-x,y,1/2+z
x,-y,1/2+z
1/2+x,1/2+y,1/2+z
1/2-x,1/2-y,1/2+z
1/2+x,1/2-y,-z
1/2-x,1/2+y,-z
1/2-x,1/2-y,1/2-z
1/2+x,1/2+y,1/2-z
1/2-x,1/2+y,z
1/2+x,1/2-y,z
loop_
_atom_site_type_symbol
_atom_site_label
_atom_site_fract_x
_atom_site_fract_y
_atom_site_fract_z
Si Si1 0.393039 0.570910 0.666051
Si Si2 0.259402 0.621664 0.163133
Si Si3 0.600939 0.291987 0.157972
Si Si4 0.614371 0.123414 0.841295
Si Si5 0.000000 0.500000 0.750000
O O1 0.423540 0.500000 0.750000
O O2 0.399430 0.561588 0.500000
O O3 0.308531 0.577219 0.722762
O O4 0.423459 0.650499 0.721391
O O5 0.308299 0.698849 0.159962
O O6 0.176777 0.620511 0.220459
O O7 0.262758 0.593519 0.000000
O O8 0.579656 0.206276 0.173954
O O9 0.578940 0.318899 0.000000
O O10 0.555095 0.057057 0.830063
O O11 0.647879 0.121205 0.000000
#
# Coordination Sequence:
#
# PCOD9525321 Si02
#       5
#    16  16  16  16   4
#     4  10  18  30  51  86 125 153 181 226 302 378
#     4   9  19  34  57  87 116 151 195 255 322 377
#     4   8  18  35  57  85 114 151 197 253 320 376
#     4  11  23  42  60  77 111 158 213 266 309 361
#     4  12  30  44  60  86 120 172 232 264 298 356
#
# _framework density 22.372565000000002
#
# number of rings (size 3 to 8) (size 9 to 14) (size 15 to 20)
#    1.412    0.941    0.000    3.176    1.647    2.824 
#    0.000    0.000    0.000    0.000    0.000    0.824 
#    0.000    5.647    0.000    0.000    0.000    0.000 
#
# Total GULP energy -189292.290796 kJ/mol
# GULP energy per Si atom -5567.420318 kJ/mol
# Density = 2.232164 g / cm^3
# Si number density = 22.372565 Si / 1000 Ang^3
#
#
#
# Elastic Constant Matrix: (Units=GPa)
#
#
# Indices 1 2 3 4 5 6 
#
# 1 76.8384 11.6237 48.6358 0.0000 0.0000 0.0000
# 2 11.6237 147.8284 72.1358 0.0000 0.0000 0.0000
# 3 48.6358 72.1358 198.7997 0.0000 0.0000 0.0000
# 4 0.0000 0.0000 0.0000 17.2844 0.0000 0.0000
# 5 0.0000 0.0000 0.0000 0.0000 0.6757 0.0000
# 6 0.0000 0.0000 0.0000 0.0000 0.0000 213.9826
#
#
#
# Elastic Compliance Matrix: (Units=1/GPa)
#
#
# Indices 1 2 3 4 5 6 
#
# 1 0.015470 0.000766 -0.004063 0.000000 0.000000 0.000000
# 2 0.000766 0.008258 -0.003184 0.000000 0.000000 0.000000
# 3 -0.004063 -0.003184 0.007179 0.000000 0.000000 0.000000
# 4 0.000000 0.000000 0.000000 0.057856 0.000000 0.000000
# 5 0.000000 0.000000 0.000000 0.000000 1.480029 0.000000
# 6 0.000000 0.000000 0.000000 0.000000 0.000000 0.004673
#
#
# Mechanical properties :
#
#
# Convention : Reuss Voigt Hill
#
# Bulk Modulus (GPa) = 55.72152 76.47303 66.09727
# Shear Modulus (GPa) = 3.13990 65.79330 34.46660
#
# Velocity S-wave (km/s) = 1.18596 5.42880 3.92927
# Velocity P-wave (km/s) = 5.18031 8.57623 7.08475
#
# Compressibility (1/GPa) = 0.01794639
#
# Stress axis : x y z
#
# Youngs Moduli (GPa) = 64.64148 121.09462 139.28737
#
# Poissons Ratio (x) = -0.09277 0.56588
# Poissons Ratio (y) = -0.04952 0.44348
# Poissons Ratio (z) = 0.26262 0.38555
#
# Static dielectric constant tensor:
#      x y z
#    x 1.885080 0.000000 0.000000 
#    y 0.000000 1.866080 0.000000 
#    z 0.000000 0.000000 1.783820 
# 
# From -- ./inp_files/5485.got.cif
#   From: 2010.05.17/outbox.cif.g08.bks.cpg/sg72_3_cif.got.tgz:5485.got - 2010.06.03 17:03:01.
