data_PCOD9525385
_publ_section_title
;
Structure prediction by ZEFSAII (Michael W. Deem and Ramdas Pophale) SiO2 
 PCOD9525385
Probable space group: I B A M
;
_chemical_formula_sum "Si O2"
_cell_formula_units_Z 88
_cell_length_a 18.431664
_cell_length_b 13.541133
_cell_length_c 21.382898
_cell_angle_alpha 90.000000
_cell_angle_beta 90.000000
_cell_angle_gamma 90.000000
_cell_volume 5336.863719
_symmetry_space_group_name_H-M "I B A M"
_symmetry_group_IT_number 72
_symmetry_cell_setting 'orthorhombic'
loop_
_space_group_symop_operation_xyz
x,y,z
-x,-y,z
x,-y,1/2-z
-x,y,1/2-z
-x,-y,-z
x,y,-z
-x,y,1/2+z
x,-y,1/2+z
1/2+x,1/2+y,1/2+z
1/2-x,1/2-y,1/2+z
1/2+x,1/2-y,-z
1/2-x,1/2+y,-z
1/2-x,1/2-y,1/2-z
1/2+x,1/2+y,1/2-z
1/2-x,1/2+y,z
1/2+x,1/2-y,z
loop_
_atom_site_type_symbol
_atom_site_label
_atom_site_fract_x
_atom_site_fract_y
_atom_site_fract_z
Si Si1 0.000000 0.737427 0.750000
Si Si2 0.612602 0.333909 0.573208
Si Si3 0.671375 0.885483 0.073986
Si Si4 0.527953 0.608416 0.651849
Si Si5 0.666122 0.545444 0.426270
Si Si6 0.575964 0.055625 0.311548
O O1 0.042834 0.812124 0.705344
O O2 0.052670 0.664910 0.788685
O O3 0.593241 0.340012 0.500000
O O4 0.651848 0.229812 0.582661
O O5 0.538906 0.347924 0.611761
O O6 0.663593 0.427954 0.587270
O O7 0.755554 0.908509 0.086457
O O8 0.624026 0.941556 0.126361
O O9 0.656872 0.910067 0.000000
O O10 0.500000 0.500000 0.673420
O O11 0.599753 0.591982 0.611415
O O12 0.651767 0.558192 0.500000
O O13 0.500000 0.000000 0.324854
O O14 0.607814 0.000000 0.250000
#
# Coordination Sequence:
#
# PCOD9525385 Si02
#       6
#     8  16  16  16  16  16
#     4  10  18  34  52  76 106 138 184 222 258 312
#     4   9  17  32  54  77 103 138 175 215 265 314
#     4  10  19  36  58  81 109 138 177 224 268 317
#     4  10  18  31  54  78 104 138 180 216 260 317
#     4   9  19  34  52  80 113 140 170 221 275 317
#     4   9  20  38  57  75 106 145 178 218 270 320
#
# _framework density 16.489086
#
# number of rings (size 3 to 8) (size 9 to 14) (size 15 to 20)
#    0.000    2.727    1.818    0.818    0.000    2.545 
#    6.545    4.545    0.000    0.000    0.000    0.000 
#    0.000    0.000    0.000    0.000    0.000    0.000 
#
# Total GULP energy -244969.074956 kJ/mol
# GULP energy per Si atom -5567.478976 kJ/mol
# Density = 1.645156 g / cm^3
# Si number density = 16.489086 Si / 1000 Ang^3
#
#
#
# Elastic Constant Matrix: (Units=GPa)
#
#
# Indices 1 2 3 4 5 6 
#
# 1 97.7717 54.6505 70.1911 0.0000 0.0000 0.0000
# 2 54.6505 96.9857 59.1112 0.0000 0.0000 0.0000
# 3 70.1911 59.1112 86.5164 0.0000 0.0000 0.0000
# 4 0.0000 0.0000 0.0000 20.7019 0.0000 0.0000
# 5 0.0000 0.0000 0.0000 0.0000 18.8945 0.0000
# 6 0.0000 0.0000 0.0000 0.0000 0.0000 21.9353
#
#
#
# Elastic Compliance Matrix: (Units=1/GPa)
#
#
# Indices 1 2 3 4 5 6 
#
# 1 0.024979 -0.002954 -0.018247 0.000000 0.000000 0.000000
# 2 -0.002954 0.018018 -0.009914 0.000000 0.000000 0.000000
# 3 -0.018247 -0.009914 0.033136 0.000000 0.000000 0.000000
# 4 0.000000 0.000000 0.000000 0.048305 0.000000 0.000000
# 5 0.000000 0.000000 0.000000 0.000000 0.052925 0.000000
# 6 0.000000 0.000000 0.000000 0.000000 0.000000 0.045589
#
#
# Mechanical properties :
#
#
# Convention : Reuss Voigt Hill
#
# Bulk Modulus (GPa) = 71.92881 72.13105 72.02993
# Shear Modulus (GPa) = 17.25240 18.79442 18.02341
#
# Velocity S-wave (km/s) = 3.23815 3.37977 3.30972
# Velocity P-wave (km/s) = 7.59589 7.68571 7.64093
#
# Compressibility (1/GPa) = 0.01390263
#
# Stress axis : x y z
#
# Youngs Moduli (GPa) = 40.03385 55.50136 30.17880
#
# Poissons Ratio (x) = 0.16395 0.55068
# Poissons Ratio (y) = 0.11826 0.29918
# Poissons Ratio (z) = 0.73050 0.55022
#
# Static dielectric constant tensor:
#      x y z
#    x 1.514490 0.000000 0.000000 
#    y 0.000000 1.568540 0.000000 
#    z 0.000000 0.000000 1.574420 
# 
# From -- ./inp_files/36882.got.cif
#   From: 2010.05.17/outbox.cif.g08.bks.cpg/sg72_19_cif.got.tgz:36882.got - 2010.06.03 17:03:01.
