data_PCOD9525354
_publ_section_title
;
Structure prediction by ZEFSAII (Michael W. Deem and Ramdas Pophale) SiO2 
 PCOD9525354
Probable space group: I B A M
;
_chemical_formula_sum "Si O2"
_cell_formula_units_Z 64
_cell_length_a 28.421461
_cell_length_b 14.817820
_cell_length_c 8.541252
_cell_angle_alpha 90.000000
_cell_angle_beta 90.000000
_cell_angle_gamma 90.000000
_cell_volume 3597.097829
_symmetry_space_group_name_H-M "I B A M"
_symmetry_group_IT_number 72
_symmetry_cell_setting 'orthorhombic'
loop_
_space_group_symop_operation_xyz
x,y,z
-x,-y,z
x,-y,1/2-z
-x,y,1/2-z
-x,-y,-z
x,y,-z
-x,y,1/2+z
x,-y,1/2+z
1/2+x,1/2+y,1/2+z
1/2-x,1/2-y,1/2+z
1/2+x,1/2-y,-z
1/2-x,1/2+y,-z
1/2-x,1/2-y,1/2-z
1/2+x,1/2+y,1/2-z
1/2-x,1/2+y,z
1/2+x,1/2-y,z
loop_
_atom_site_type_symbol
_atom_site_label
_atom_site_fract_x
_atom_site_fract_y
_atom_site_fract_z
Si Si1 0.234166 0.847608 0.687460
Si Si2 0.552383 0.600278 0.687679
Si Si3 0.330089 0.906356 0.186378
Si Si4 0.361104 0.710979 0.687096
O O1 0.235900 0.852420 0.500000
O O2 0.250000 0.750000 0.750000
O O3 0.275307 0.906649 0.761476
O O4 0.319281 0.646910 0.754041
O O5 0.564540 0.500000 0.750000
O O6 0.500000 0.620393 0.750000
O O7 0.552420 0.599458 0.500000
O O8 0.590023 0.671325 0.751876
O O9 0.352051 0.813762 0.254790
O O10 0.351424 0.000000 0.250000
O O11 0.333017 0.902886 0.000000
O O12 0.358700 0.710120 0.500000
#
# Coordination Sequence:
#
# PCOD9525354 Si02
#       4
#    16  16  16  16
#     4  10  18  31  49  73 103 139 178 220 263 311
#     4  11  22  39  60  85 111 140 175 220 272 327
#     4  11  21  35  53  78 110 148 187 227 269 319
#     4  11  21  36  56  81 110 145 183 225 271 323
#
# _framework density 17.792121999999999
#
# number of rings (size 3 to 8) (size 9 to 14) (size 15 to 20)
#    0.000    1.250    0.000   12.750    0.000    1.000 
#    0.000    5.000    0.000    0.750    0.000    5.250 
#    0.000    0.000    0.000    0.000    0.000    0.000 
#
# Total GULP energy -178628.890262 kJ/mol
# GULP energy per Si atom -5582.152821 kJ/mol
# Density = 1.775163 g / cm^3
# Si number density = 17.792122 Si / 1000 Ang^3
#
#
#
# Elastic Constant Matrix: (Units=GPa)
#
#
# Indices 1 2 3 4 5 6 
#
# 1 95.2764 58.5120 34.1605 0.0000 0.0000 0.0000
# 2 58.5120 98.5595 24.7318 0.0000 0.0000 0.0000
# 3 34.1605 24.7318 172.9515 0.0000 0.0000 0.0000
# 4 0.0000 0.0000 0.0000 24.8480 0.0000 0.0000
# 5 0.0000 0.0000 0.0000 0.0000 29.9492 0.0000
# 6 0.0000 0.0000 0.0000 0.0000 0.0000 26.1006
#
#
#
# Elastic Compliance Matrix: (Units=1/GPa)
#
#
# Indices 1 2 3 4 5 6 
#
# 1 0.017163 -0.009686 -0.002005 0.000000 0.000000 0.000000
# 2 -0.009686 0.015990 -0.000373 0.000000 0.000000 0.000000
# 3 -0.002005 -0.000373 0.006231 0.000000 0.000000 0.000000
# 4 0.000000 0.000000 0.000000 0.040245 0.000000 0.000000
# 5 0.000000 0.000000 0.000000 0.000000 0.033390 0.000000
# 6 0.000000 0.000000 0.000000 0.000000 0.000000 0.038313
#
#
# Mechanical properties :
#
#
# Convention : Reuss Voigt Hill
#
# Bulk Modulus (GPa) = 65.54867 66.84398 66.19633
# Shear Modulus (GPa) = 27.69362 32.80510 30.24936
#
# Velocity S-wave (km/s) = 3.94954 4.29861 4.12777
# Velocity P-wave (km/s) = 7.59736 7.89230 7.74623
#
# Compressibility (1/GPa) = 0.01525584
#
# Stress axis : x y z
#
# Youngs Moduli (GPa) = 58.26418 62.53791 160.47872
#
# Poissons Ratio (x) = 0.60576 0.32174
# Poissons Ratio (y) = 0.56436 0.05992
# Poissons Ratio (z) = 0.11681 0.02335
#
# Static dielectric constant tensor:
#      x y z
#    x 1.621810 0.000000 0.000000 
#    y 0.000000 1.605560 0.000000 
#    z 0.000000 0.000000 1.585640 
# 
# From -- ./inp_files/3783.got.cif
#   From: 2010.05.17/outbox.cif.g08.bks.cpg/sg72_2_cif.got.tgz:3783.got - 2010.06.03 17:03:01.
