data_PCOD9525215
_publ_section_title
;
Structure prediction by ZEFSAII (Michael W. Deem and Ramdas Pophale) SiO2 
 PCOD9525215
Probable space group: I B A M
;
_chemical_formula_sum "Si O2"
_cell_formula_units_Z 96
_cell_length_a 26.935975
_cell_length_b 29.322552
_cell_length_c 8.653896
_cell_angle_alpha 90.000000
_cell_angle_beta 90.000000
_cell_angle_gamma 90.000000
_cell_volume 6835.119897
_symmetry_space_group_name_H-M "I B A M"
_symmetry_group_IT_number 72
_symmetry_cell_setting 'orthorhombic'
loop_
_space_group_symop_operation_xyz
x,y,z
-x,-y,z
x,-y,1/2-z
-x,y,1/2-z
-x,-y,-z
x,y,-z
-x,y,1/2+z
x,-y,1/2+z
1/2+x,1/2+y,1/2+z
1/2-x,1/2-y,1/2+z
1/2+x,1/2-y,-z
1/2-x,1/2+y,-z
1/2-x,1/2-y,1/2-z
1/2+x,1/2+y,1/2-z
1/2-x,1/2+y,z
1/2+x,1/2-y,z
loop_
_atom_site_type_symbol
_atom_site_label
_atom_site_fract_x
_atom_site_fract_y
_atom_site_fract_z
Si Si1 0.906275 0.549346 0.184241
Si Si2 0.242435 0.356961 0.315842
Si Si3 0.287755 0.950733 0.183991
Si Si4 0.353180 0.802889 0.815074
Si Si5 0.702119 0.722672 0.184879
Si Si6 0.446247 0.857069 0.315688
O O1 0.921125 0.500000 0.250000
O O2 0.847052 0.554798 0.213839
O O3 0.933838 0.591200 0.264142
O O4 0.914080 0.550929 0.000000
O O5 0.241875 0.352440 0.500000
O O6 0.240558 0.409252 0.264330
O O7 0.192117 0.334026 0.248344
O O8 0.288243 0.328151 0.246399
O O9 0.273491 0.000000 0.250000
O O10 0.280759 0.949046 0.000000
O O11 0.343428 0.752027 0.750596
O O12 0.403770 0.825067 0.755974
O O13 0.350994 0.802985 0.000000
O O14 0.750000 0.750000 0.250000
O O15 0.702426 0.723683 0.000000
O O16 0.500000 0.844768 0.250000
O O17 0.445283 0.853986 0.500000
#
# Coordination Sequence:
#
# PCOD9525215 Si02
#       6
#    16  16  16  16  16  16
#     4  10  20  34  50  65  83 107 140 181 225 268
#     4  11  19  29  46  67  89 114 142 175 214 257
#     4  10  19  30  45  64  88 115 145 179 218 261
#     4  11  20  33  48  65  87 110 138 176 218 262
#     4  10  18  29  45  66  88 111 138 171 212 256
#     4  12  24  37  51  66  84 109 142 180 225 270
#
# _framework density 14.045108000000001
#
# number of rings (size 3 to 8) (size 9 to 14) (size 15 to 20)
#    0.000    1.333    1.667    9.000    0.000    1.667 
#    0.000    1.667    0.000    0.000    0.000    0.000 
#    0.000    0.000    0.000    0.000    0.000    0.833 
#
# Total GULP energy -268058.960956 kJ/mol
# GULP energy per Si atom -5584.561687 kJ/mol
# Density = 1.401314 g / cm^3
# Si number density = 14.045108 Si / 1000 Ang^3
#
#
#
# Elastic Constant Matrix: (Units=GPa)
#
#
# Indices 1 2 3 4 5 6 
#
# 1 55.6476 52.3247 37.6500 0.0000 0.0000 0.0000
# 2 52.3247 100.3194 54.7261 0.0000 0.0000 0.0000
# 3 37.6500 54.7261 132.8442 0.0000 0.0000 0.0000
# 4 0.0000 0.0000 0.0000 27.1350 0.0000 0.0000
# 5 0.0000 0.0000 0.0000 0.0000 17.5104 0.0000
# 6 0.0000 0.0000 0.0000 0.0000 0.0000 14.3767
#
#
#
# Elastic Compliance Matrix: (Units=1/GPa)
#
#
# Indices 1 2 3 4 5 6 
#
# 1 0.036296 -0.017181 -0.003209 0.000000 0.000000 0.000000
# 2 -0.017181 0.020990 -0.003778 0.000000 0.000000 0.000000
# 3 -0.003209 -0.003778 0.009993 0.000000 0.000000 0.000000
# 4 0.000000 0.000000 0.000000 0.036853 0.000000 0.000000
# 5 0.000000 0.000000 0.000000 0.000000 0.057109 0.000000
# 6 0.000000 0.000000 0.000000 0.000000 0.000000 0.069557
#
#
# Mechanical properties :
#
#
# Convention : Reuss Voigt Hill
#
# Bulk Modulus (GPa) = 52.78584 64.24588 58.51586
# Shear Modulus (GPa) = 17.51625 21.41178 19.46402
#
# Velocity S-wave (km/s) = 3.53532 3.90872 3.72670
# Velocity P-wave (km/s) = 7.37084 8.13711 7.76344
#
# Compressibility (1/GPa) = 0.01894448
#
# Stress axis : x y z
#
# Youngs Moduli (GPa) = 27.55090 47.64119 100.06595
#
# Poissons Ratio (x) = 0.81852 0.32113
# Poissons Ratio (y) = 0.47335 0.37803
# Poissons Ratio (z) = 0.08842 0.17998
#
# Static dielectric constant tensor:
#      x y z
#    x 1.449560 0.000000 0.000000 
#    y 0.000000 1.485300 0.000000 
#    z 0.000000 0.000000 1.462810 
# 
# From -- ./inp_files/7105.got.cif
#   From: 2010.05.17/outbox.cif.g08.bks.cpg/sg72_4_cif.got.tgz:7105.got - 2010.06.03 17:03:01.
