data_PCOD9525786
_publ_section_title
;
Structure prediction by ZEFSAII (Michael W. Deem and Ramdas Pophale) SiO2 
 PCOD9525786
Probable space group: I B A M
;
_chemical_formula_sum "Si O2"
_cell_formula_units_Z 96
_cell_length_a 20.701956
_cell_length_b 29.333649
_cell_length_c 8.769885
_cell_angle_alpha 90.000000
_cell_angle_beta 90.000000
_cell_angle_gamma 90.000000
_cell_volume 5325.634663
_symmetry_space_group_name_H-M "I B A M"
_symmetry_group_IT_number 72
_symmetry_cell_setting 'orthorhombic'
loop_
_space_group_symop_operation_xyz
x,y,z
-x,-y,z
x,-y,1/2-z
-x,y,1/2-z
-x,-y,-z
x,y,-z
-x,y,1/2+z
x,-y,1/2+z
1/2+x,1/2+y,1/2+z
1/2-x,1/2-y,1/2+z
1/2+x,1/2-y,-z
1/2-x,1/2+y,-z
1/2-x,1/2-y,1/2-z
1/2+x,1/2+y,1/2-z
1/2-x,1/2+y,z
1/2+x,1/2-y,z
loop_
_atom_site_type_symbol
_atom_site_label
_atom_site_fract_x
_atom_site_fract_y
_atom_site_fract_z
Si Si1 0.834612 0.212032 0.181625
Si Si2 0.198511 0.311488 0.322954
Si Si3 0.571676 0.629268 0.816587
Si Si4 0.811907 0.406599 0.321175
Si Si5 0.063551 0.550225 0.179378
Si Si6 0.327577 0.550865 0.684086
O O1 0.844770 0.266225 0.199865
O O2 0.772453 0.201492 0.284568
O O3 0.891261 0.176656 0.220748
O O4 0.819136 0.204919 0.000000
O O5 0.192867 0.325445 0.500000
O O6 0.185149 0.353017 0.211419
O O7 0.500000 0.627306 0.750000
O O8 0.616795 0.586627 0.766823
O O9 0.567531 0.627193 0.000000
O O10 0.821081 0.416428 0.500000
O O11 0.869590 0.427345 0.224783
O O12 0.742189 0.427276 0.275660
O O13 0.066122 0.500000 0.250000
O O14 0.000000 0.573698 0.250000
O O15 0.055753 0.547540 0.000000
O O16 0.334461 0.500000 0.750000
O O17 0.329834 0.548153 0.500000
#
# Coordination Sequence:
#
# PCOD9525786 Si02
#       6
#    16  16  16  16  16  16
#     4   9  18  36  56  78 112 146 181 228 284 340
#     4  10  19  31  56  87 111 141 183 232 279 339
#     4  10  21  39  58  80 111 152 191 237 291 346
#     4  11  21  37  58  83 117 155 187 235 291 339
#     4  11  22  38  58  83 113 150 193 233 280 341
#     4  10  22  38  57  80 112 148 190 239 292 339
#
# _framework density 18.026019999999999
#
# number of rings (size 3 to 8) (size 9 to 14) (size 15 to 20)
#    0.000    1.833    1.667    3.500    0.000    5.000 
#    0.000    2.500    0.000    2.000    0.000    0.000 
#    0.000    0.000    0.000    0.000    0.000    0.000 
#
# Total GULP energy -267738.533428 kJ/mol
# GULP energy per Si atom -5577.886113 kJ/mol
# Density = 1.798499 g / cm^3
# Si number density = 18.026020 Si / 1000 Ang^3
#
#
#
# Elastic Constant Matrix: (Units=GPa)
#
#
# Indices 1 2 3 4 5 6 
#
# 1 133.3069 68.5366 40.6317 0.0000 0.0000 0.0000
# 2 68.5366 109.9995 26.6400 0.0000 0.0000 0.0000
# 3 40.6317 26.6400 57.2585 0.0000 0.0000 0.0000
# 4 0.0000 0.0000 0.0000 25.7564 0.0000 0.0000
# 5 0.0000 0.0000 0.0000 0.0000 32.4126 0.0000
# 6 0.0000 0.0000 0.0000 0.0000 0.0000 17.2851
#
#
#
# Elastic Compliance Matrix: (Units=1/GPa)
#
#
# Indices 1 2 3 4 5 6 
#
# 1 0.012621 -0.006418 -0.005970 0.000000 0.000000 0.000000
# 2 -0.006418 0.013509 -0.001731 0.000000 0.000000 0.000000
# 3 -0.005970 -0.001731 0.022506 0.000000 0.000000 0.000000
# 4 0.000000 0.000000 0.000000 0.038825 0.000000 0.000000
# 5 0.000000 0.000000 0.000000 0.000000 0.030852 0.000000
# 6 0.000000 0.000000 0.000000 0.000000 0.000000 0.057853
#
#
# Mechanical properties :
#
#
# Convention : Reuss Voigt Hill
#
# Bulk Modulus (GPa) = 49.02292 63.57570 56.29931
# Shear Modulus (GPa) = 23.67387 26.07459 24.87423
#
# Velocity S-wave (km/s) = 3.62790 3.80741 3.71874
# Velocity P-wave (km/s) = 6.69355 7.39418 7.05257
#
# Compressibility (1/GPa) = 0.02039862
#
# Stress axis : x y z
#
# Youngs Moduli (GPa) = 79.23566 74.02615 44.43177
#
# Poissons Ratio (x) = 0.47507 0.26526
# Poissons Ratio (y) = 0.50850 0.07691
# Poissons Ratio (z) = 0.47303 0.12814
#
# Static dielectric constant tensor:
#      x y z
#    x 1.626490 0.000000 0.000000 
#    y 0.000000 1.684290 0.000000 
#    z 0.000000 0.000000 1.611540 
# 
# From -- ./inp_files/5936.got.cif
#   From: 2010.05.17/outbox.cif.g08.bks.cpg/sg72_3_cif.got.tgz:5936.got - 2010.06.03 17:03:01.
