data_PCOD9525951
_publ_section_title
;
Structure prediction by ZEFSAII (Michael W. Deem and Ramdas Pophale) SiO2 
 PCOD9525951
Probable space group: I B A M
;
_chemical_formula_sum "Si O2"
_cell_formula_units_Z 116
_cell_length_a 19.715628
_cell_length_b 24.155430
_cell_length_c 13.795923
_cell_angle_alpha 90.000000
_cell_angle_beta 90.000000
_cell_angle_gamma 90.000000
_cell_volume 6570.163086
_symmetry_space_group_name_H-M "I B A M"
_symmetry_group_IT_number 72
_symmetry_cell_setting 'orthorhombic'
loop_
_space_group_symop_operation_xyz
x,y,z
-x,-y,z
x,-y,1/2-z
-x,y,1/2-z
-x,-y,-z
x,y,-z
-x,y,1/2+z
x,-y,1/2+z
1/2+x,1/2+y,1/2+z
1/2-x,1/2-y,1/2+z
1/2+x,1/2-y,-z
1/2-x,1/2+y,-z
1/2-x,1/2-y,1/2-z
1/2+x,1/2+y,1/2-z
1/2-x,1/2+y,z
1/2+x,1/2-y,z
loop_
_atom_site_type_symbol
_atom_site_label
_atom_site_fract_x
_atom_site_fract_y
_atom_site_fract_z
Si Si1 0.250696 0.001757 0.111496
Si Si2 0.500000 0.000000 0.250000
Si Si3 0.391451 0.943780 0.615832
Si Si4 0.407666 0.240968 0.112060
Si Si5 0.158753 0.660183 0.242191
Si Si6 0.936718 0.723789 0.116188
Si Si7 0.575861 0.333742 0.248563
Si Si8 0.208137 0.095258 0.245039
O O1 0.220416 0.952109 0.174378
O O2 0.331801 0.009984 0.125040
O O3 0.222428 0.060848 0.146999
O O4 0.236670 0.992244 0.000000
O O5 0.455059 0.964480 0.323735
O O6 0.401840 0.934087 0.500000
O O7 0.368384 0.889433 0.674222
O O8 0.348517 0.213052 0.173222
O O9 0.482294 0.214049 0.133080
O O10 0.414321 0.303222 0.148652
O O11 0.394729 0.235879 0.000000
O O12 0.110579 0.677367 0.332755
O O13 0.234938 0.641914 0.265418
O O14 0.922050 0.782971 0.169645
O O15 0.926400 0.726680 0.000000
O O16 0.500000 0.357384 0.250000
O O17 0.635081 0.377446 0.237456
#
# Coordination Sequence:
#
# PCOD9525951 Si02
#       8
#    16   4  16  16  16  16  16  16
#     4   9  20  40  56  72 104 139 172 216 273 323
#     4  12  22  32  52  78 108 136 188 240 260 300
#     4  10  21  36  52  73 105 144 181 222 271 313
#     4   9  18  33  51  74 109 146 175 209 258 314
#     4  10  19  33  51  76 105 139 182 224 257 312
#     4   9  19  34  51  76 112 148 177 213 262 315
#     4   9  19  36  56  77 107 137 170 212 270 332
#     4  10  20  35  57  80  99 136 177 221 268 319
#
# _framework density 17.655574000000001
#
# number of rings (size 3 to 8) (size 9 to 14) (size 15 to 20)
#    0.000    2.483    0.000    3.517    1.931    4.414 
#    0.000    3.448    0.000    0.828    0.000    0.000 
#    0.000    0.000    0.000    0.000    0.000    0.000 
#
# Total GULP energy -323015.909223 kJ/mol
# GULP energy per Si atom -5569.239814 kJ/mol
# Density = 1.761539 g / cm^3
# Si number density = 17.655574 Si / 1000 Ang^3
#
#
#
# Elastic Constant Matrix: (Units=GPa)
#
#
# Indices 1 2 3 4 5 6 
#
# 1 106.9553 52.4971 28.6304 0.0000 0.0000 0.0000
# 2 52.4971 47.2430 16.6230 0.0000 0.0000 0.0000
# 3 28.6304 16.6230 99.5197 0.0000 0.0000 0.0000
# 4 0.0000 0.0000 0.0000 10.8748 0.0000 0.0000
# 5 0.0000 0.0000 0.0000 0.0000 12.8095 0.0000
# 6 0.0000 0.0000 0.0000 0.0000 0.0000 30.6366
#
#
#
# Elastic Compliance Matrix: (Units=1/GPa)
#
#
# Indices 1 2 3 4 5 6 
#
# 1 0.021045 -0.022582 -0.002282 0.000000 0.000000 0.000000
# 2 -0.022582 0.046721 -0.001307 0.000000 0.000000 0.000000
# 3 -0.002282 -0.001307 0.010923 0.000000 0.000000 0.000000
# 4 0.000000 0.000000 0.000000 0.091956 0.000000 0.000000
# 5 0.000000 0.000000 0.000000 0.000000 0.078067 0.000000
# 6 0.000000 0.000000 0.000000 0.000000 0.000000 0.032641
#
#
# Mechanical properties :
#
#
# Convention : Reuss Voigt Hill
#
# Bulk Modulus (GPa) = 37.95761 49.91322 43.93542
# Shear Modulus (GPa) = 14.59952 21.26201 17.93077
#
# Velocity S-wave (km/s) = 2.87872 3.47402 3.19028
# Velocity P-wave (km/s) = 5.70920 6.66511 6.20559
#
# Compressibility (1/GPa) = 0.02634518
#
# Stress axis : x y z
#
# Youngs Moduli (GPa) = 47.51797 21.40377 91.54814
#
# Poissons Ratio (x) = 0.48334 0.20894
# Poissons Ratio (y) = 1.07306 0.11968
# Poissons Ratio (z) = 0.10845 0.02798
#
# Static dielectric constant tensor:
#      x y z
#    x 1.631730 0.000000 0.000000 
#    y 0.000000 1.621360 0.000000 
#    z 0.000000 0.000000 1.613240 
# 
# From -- ./inp_files/23625.got.cif
#   From: 2010.05.17/outbox.cif.g08.bks.cpg/sg72_12_cif.got.tgz:23625.got - 2010.06.03 17:03:01.
