data_PCOD9525929
_publ_section_title
;
Structure prediction by ZEFSAII (Michael W. Deem and Ramdas Pophale) SiO2 
 PCOD9525929
Probable space group: I B A M
;
_chemical_formula_sum "Si O2"
_cell_formula_units_Z 112
_cell_length_a 30.940981
_cell_length_b 11.498013
_cell_length_c 14.067201
_cell_angle_alpha 90.000000
_cell_angle_beta 90.000000
_cell_angle_gamma 90.000000
_cell_volume 5004.544639
_symmetry_space_group_name_H-M "I B A M"
_symmetry_group_IT_number 72
_symmetry_cell_setting 'orthorhombic'
loop_
_space_group_symop_operation_xyz
x,y,z
-x,-y,z
x,-y,1/2-z
-x,y,1/2-z
-x,-y,-z
x,y,-z
-x,y,1/2+z
x,-y,1/2+z
1/2+x,1/2+y,1/2+z
1/2-x,1/2-y,1/2+z
1/2+x,1/2-y,-z
1/2-x,1/2+y,-z
1/2-x,1/2-y,1/2-z
1/2+x,1/2+y,1/2-z
1/2-x,1/2+y,z
1/2+x,1/2-y,z
loop_
_atom_site_type_symbol
_atom_site_label
_atom_site_fract_x
_atom_site_fract_y
_atom_site_fract_z
Si Si1 0.427525 0.667846 0.883482
Si Si2 0.885797 0.945994 0.386263
Si Si3 0.540083 0.080241 0.384578
Si Si4 0.295605 0.122327 0.309016
Si Si5 0.109960 0.591404 0.613329
Si Si6 0.976162 0.157835 0.116151
Si Si7 0.701110 0.371795 0.698787
O O1 0.388682 0.581238 0.856421
O O2 0.416500 0.796813 0.850299
O O3 0.475269 0.624453 0.854349
O O4 0.428824 0.670330 0.000000
O O5 0.887053 0.943067 0.500000
O O6 0.931658 0.898578 0.350895
O O7 0.843572 0.877400 0.357264
O O8 0.540474 0.084276 0.500000
O O9 0.529725 0.209182 0.355011
O O10 0.500000 0.000000 0.357390
O O11 0.585674 0.025420 0.353791
O O12 0.339752 0.107056 0.366392
O O13 0.299305 0.248605 0.256066
O O14 0.247606 0.128854 0.355117
O O15 0.294473 0.000000 0.250000
O O16 0.104851 0.592405 0.500000
O O17 0.976229 0.146199 0.000000
O O18 0.701161 0.500000 0.750000
#
# Coordination Sequence:
#
# PCOD9525929 Si02
#       7
#    16  16  16  16  16  16  16
#     4   9  16  29  50  81 116 148 179 218 271 330
#     4  10  20  32  56  87 111 139 187 238 273 316
#     4   9  15  26  46  76 111 145 176 213 268 326
#     4  10  23  41  61  82 108 147 191 230 286 355
#     4  10  19  32  57  86 110 140 187 238 274 317
#     4   9  16  27  46  78 117 146 174 217 268 323
#     4  10  22  43  62  77 109 154 187 225 290 356
#
# _framework density 22.379659
#
# number of rings (size 3 to 8) (size 9 to 14) (size 15 to 20)
#    0.000    2.429    1.429    1.286    2.000    2.286 
#    0.000    0.000    0.000   13.286    0.000    0.000 
#    0.000    0.000    0.000    0.000    0.000    0.000 
#
# Total GULP energy -312255.300150 kJ/mol
# GULP energy per Si atom -5575.987503 kJ/mol
# Density = 2.232872 g / cm^3
# Si number density = 22.379659 Si / 1000 Ang^3
#
#
#
# Elastic Constant Matrix: (Units=GPa)
#
#
# Indices 1 2 3 4 5 6 
#
# 1 180.9433 44.9832 19.1392 0.0000 0.0000 0.0000
# 2 44.9832 110.0410 6.8210 0.0000 0.0000 0.0000
# 3 19.1392 6.8210 45.5776 0.0000 0.0000 0.0000
# 4 0.0000 0.0000 0.0000 12.6846 0.0000 0.0000
# 5 0.0000 0.0000 0.0000 0.0000 47.6354 0.0000
# 6 0.0000 0.0000 0.0000 0.0000 0.0000 71.9083
#
#
#
# Elastic Compliance Matrix: (Units=1/GPa)
#
#
# Indices 1 2 3 4 5 6 
#
# 1 0.006384 -0.002467 -0.002312 0.000000 0.000000 0.000000
# 2 -0.002467 0.010126 -0.000480 0.000000 0.000000 0.000000
# 3 -0.002312 -0.000480 0.022983 0.000000 0.000000 0.000000
# 4 0.000000 0.000000 0.000000 0.078836 0.000000 0.000000
# 5 0.000000 0.000000 0.000000 0.000000 0.020993 0.000000
# 6 0.000000 0.000000 0.000000 0.000000 0.000000 0.013907
#
#
# Mechanical properties :
#
#
# Convention : Reuss Voigt Hill
#
# Bulk Modulus (GPa) = 34.50996 53.16097 43.83546
# Shear Modulus (GPa) = 28.83459 44.15356 36.49408
#
# Velocity S-wave (km/s) = 3.59336 4.44659 4.04255
# Velocity P-wave (km/s) = 5.71577 7.08298 6.43578
#
# Compressibility (1/GPa) = 0.02897714
#
# Stress axis : x y z
#
# Youngs Moduli (GPa) = 156.63407 98.76029 43.51014
#
# Poissons Ratio (x) = 0.24359 0.10059
# Poissons Ratio (y) = 0.38634 0.02087
# Poissons Ratio (z) = 0.36211 0.04737
#
# Static dielectric constant tensor:
#      x y z
#    x 1.799350 0.000000 0.000000 
#    y 0.000000 1.851460 0.000000 
#    z 0.000000 0.000000 1.899290 
# 
# From -- ./inp_files/26420.got.cif
#   From: 2010.05.17/outbox.cif.g08.bks.cpg/sg72_14_cif.got.tgz:26420.got - 2010.06.03 17:03:01.
