data_PCOD9525011
_publ_section_title
;
Structure prediction by ZEFSAII (Michael W. Deem and Ramdas Pophale) SiO2 
 PCOD9525011
Probable space group: I B A M
;
_chemical_formula_sum "Si O2"
_cell_formula_units_Z 96
_cell_length_a 19.795421
_cell_length_b 32.276009
_cell_length_c 8.750596
_cell_angle_alpha 90.000000
_cell_angle_beta 90.000000
_cell_angle_gamma 90.000000
_cell_volume 5590.906175
_symmetry_space_group_name_H-M "I B A M"
_symmetry_group_IT_number 72
_symmetry_cell_setting 'orthorhombic'
loop_
_space_group_symop_operation_xyz
x,y,z
-x,-y,z
x,-y,1/2-z
-x,y,1/2-z
-x,-y,-z
x,y,-z
-x,y,1/2+z
x,-y,1/2+z
1/2+x,1/2+y,1/2+z
1/2-x,1/2-y,1/2+z
1/2+x,1/2-y,-z
1/2-x,1/2+y,-z
1/2-x,1/2-y,1/2-z
1/2+x,1/2+y,1/2-z
1/2-x,1/2+y,z
1/2+x,1/2-y,z
loop_
_atom_site_type_symbol
_atom_site_label
_atom_site_fract_x
_atom_site_fract_y
_atom_site_fract_z
Si Si1 0.925760 0.296806 0.317261
Si Si2 0.830294 0.633451 0.316678
Si Si3 0.672665 0.041665 0.316688
Si Si4 0.074126 0.202687 0.815847
Si Si5 0.172091 0.871485 0.684541
Si Si6 0.674955 0.542213 0.817681
O O1 0.929365 0.298036 0.500000
O O2 0.873192 0.330643 0.259406
O O3 0.906739 0.249690 0.270168
O O4 0.000000 0.305157 0.250000
O O5 0.833931 0.637838 0.500000
O O6 0.856571 0.586961 0.278619
O O7 0.750897 0.635243 0.273792
O O8 0.677649 0.038377 0.500000
O O9 0.748230 0.042808 0.247075
O O10 0.639561 0.000000 0.250000
O O11 0.127482 0.167818 0.768843
O O12 0.000000 0.194097 0.750000
O O13 0.070496 0.201890 0.000000
O O14 0.169847 0.876022 0.500000
O O15 0.146169 0.914171 0.758935
O O16 0.643575 0.500000 0.750000
O O17 0.675761 0.540310 0.000000
#
# Coordination Sequence:
#
# PCOD9525011 Si02
#       6
#    16  16  16  16  16  16
#     4  10  20  34  52  72  95 127 165 201 240 290
#     4   9  18  31  48  72 101 130 159 197 243 285
#     4   9  16  27  44  67  97 130 161 195 238 285
#     4   9  19  35  53  72  96 128 164 200 241 290
#     4   9  18  33  50  71 101 131 159 198 246 288
#     4  10  17  26  43  68  97 128 162 197 236 283
#
# _framework density 17.170739999999999
#
# number of rings (size 3 to 8) (size 9 to 14) (size 15 to 20)
#    0.000    2.667    0.000    4.500    0.000    5.333 
#    0.000    0.000    0.000    1.000    0.000    7.000 
#    0.000    0.000    0.000    0.000    0.000    0.000 
#
# Total GULP energy -267405.577384 kJ/mol
# GULP energy per Si atom -5570.949529 kJ/mol
# Density = 1.713166 g / cm^3
# Si number density = 17.170740 Si / 1000 Ang^3
#
#
#
# Elastic Constant Matrix: (Units=GPa)
#
#
# Indices 1 2 3 4 5 6 
#
# 1 50.6039 82.6449 26.1462 -0.0004 0.0002 0.0000
# 2 82.6449 196.3816 59.6764 -0.0001 -0.0002 0.0002
# 3 26.1462 59.6764 51.3112 -0.0048 0.0000 -0.0001
# 4 -0.0004 -0.0001 -0.0048 20.8899 -0.0017 -0.0006
# 5 0.0002 -0.0002 0.0000 -0.0017 19.3054 -0.0008
# 6 0.0000 0.0002 -0.0001 -0.0006 -0.0008 -8.0562
#
#
#
# Elastic Compliance Matrix: (Units=1/GPa)
#
#
# Indices 1 2 3 4 5 6 
#
# 1 0.063325 -0.026051 -0.001970 0.000001 -0.000001 -0.000001
# 2 -0.026051 0.018592 -0.008349 -0.000002 0.000001 0.000001
# 3 -0.001970 -0.008349 0.030203 0.000007 0.000000 0.000000
# 4 0.000001 -0.000002 0.000007 0.047870 0.000004 -0.000004
# 5 -0.000001 0.000001 0.000000 0.000004 0.051799 -0.000005
# 6 -0.000001 0.000001 0.000000 -0.000004 -0.000005 -0.124127
#
#
# Mechanical properties :
#
#
# Convention : Reuss Voigt Hill
#
# Bulk Modulus (GPa) = 25.39337 70.58129 47.98733
# Shear Modulus (GPa) = 28.81387 15.08310 21.94849
#
# Velocity S-wave (km/s) = 4.10088 2.96703 3.57914
# Velocity P-wave (km/s) = 6.10277 7.27547 6.71477
#
# Compressibility (1/GPa) = 0.03938036
#
# Stress axis : x y z
#
# Youngs Moduli (GPa) = 15.79165 53.78545 33.10946
#
# Poissons Ratio (x) = 1.40115 0.06522
# Poissons Ratio (y) = 0.41138 0.27643
# Poissons Ratio (z) = 0.03111 0.44906
#
# Static dielectric constant tensor:
#      x y z
#    x 1.547380 0.000000 0.000000 
#    y 0.000000 1.635770 0.000000 
#    z 0.000000 0.000000 1.575060 
# 
# From -- ./inp_files/6039.got.cif
#   From: 2010.05.17/outbox.cif.g08.bks.cpg/sg72_4_cif.got.tgz:6039.got - 2010.06.03 17:03:01.
