data_PCOD9525286
_publ_section_title
;
Structure prediction by ZEFSAII (Michael W. Deem and Ramdas Pophale) SiO2 
 PCOD9525286
Probable space group: I B A M
;
_chemical_formula_sum "Si O2"
_cell_formula_units_Z 96
_cell_length_a 30.540684
_cell_length_b 20.674079
_cell_length_c 9.188336
_cell_angle_alpha 90.000000
_cell_angle_beta 90.000000
_cell_angle_gamma 90.000000
_cell_volume 5801.520071
_symmetry_space_group_name_H-M "I B A M"
_symmetry_group_IT_number 72
_symmetry_cell_setting 'orthorhombic'
loop_
_space_group_symop_operation_xyz
x,y,z
-x,-y,z
x,-y,1/2-z
-x,y,1/2-z
-x,-y,-z
x,y,-z
-x,y,1/2+z
x,-y,1/2+z
1/2+x,1/2+y,1/2+z
1/2-x,1/2-y,1/2+z
1/2+x,1/2-y,-z
1/2-x,1/2+y,-z
1/2-x,1/2-y,1/2-z
1/2+x,1/2+y,1/2-z
1/2-x,1/2+y,z
1/2+x,1/2-y,z
loop_
_atom_site_type_symbol
_atom_site_label
_atom_site_fract_x
_atom_site_fract_y
_atom_site_fract_z
Si Si1 0.455906 0.402928 0.666593
Si Si2 0.132809 0.103897 0.671491
Si Si3 0.270367 0.564261 0.325732
Si Si4 0.219620 0.303590 0.174764
Si Si5 0.043797 0.745158 0.332220
Si Si6 0.632662 0.760059 0.171691
O O1 0.500000 0.423390 0.750000
O O2 0.456693 0.425122 0.500000
O O3 0.410147 0.419766 0.743875
O O4 0.456433 0.324009 0.666930
O O5 0.127067 0.090181 0.500000
O O6 0.179263 0.076040 0.722517
O O7 0.137043 0.181906 0.686086
O O8 0.253379 0.500000 0.250000
O O9 0.271245 0.556692 0.500000
O O10 0.241241 0.626995 0.293564
O O11 0.250000 0.250000 0.250000
O O12 0.171855 0.294137 0.242908
O O13 0.218938 0.294648 0.000000
O O14 0.044850 0.724427 0.500000
O O15 0.086342 0.723489 0.244011
O O16 0.000000 0.724308 0.250000
O O17 0.633964 0.774677 0.000000
#
# Coordination Sequence:
#
# PCOD9525286 Si02
#       6
#    16  16  16  16  16  16
#     4   9  16  25  40  64  90 121 160 200 247 297
#     4   9  17  31  47  66  95 126 160 205 250 295
#     4  10  22  38  53  73 100 132 168 209 255 304
#     4  11  21  35  53  76 103 132 169 212 257 305
#     4   9  16  26  40  64  97 133 166 201 247 299
#     4  10  18  30  48  72 100 131 167 209 253 299
#
# _framework density 16.547387000000001
#
# number of rings (size 3 to 8) (size 9 to 14) (size 15 to 20)
#    0.000    2.333    1.667    2.000    0.000    6.667 
#    0.000    0.000    0.000    0.500    0.000    3.500 
#    0.000    0.667    0.000    7.000    0.000    4.167 
#
# Total GULP energy -267887.099802 kJ/mol
# GULP energy per Si atom -5580.981246 kJ/mol
# Density = 1.650972 g / cm^3
# Si number density = 16.547387 Si / 1000 Ang^3
#
#
#
# Elastic Constant Matrix: (Units=GPa)
#
#
# Indices 1 2 3 4 5 6 
#
# 1 150.4340 52.8057 76.8406 0.0000 0.0000 0.0000
# 2 52.8057 66.1321 52.1753 0.0000 0.0000 0.0000
# 3 76.8406 52.1753 107.1541 0.0000 0.0000 0.0000
# 4 0.0000 0.0000 0.0000 14.8258 0.0000 0.0000
# 5 0.0000 0.0000 0.0000 0.0000 34.9597 0.0000
# 6 0.0000 0.0000 0.0000 0.0000 0.0000 2.9727
#
#
#
# Elastic Compliance Matrix: (Units=1/GPa)
#
#
# Indices 1 2 3 4 5 6 
#
# 1 0.011171 -0.004222 -0.005955 0.000000 0.000000 0.000000
# 2 -0.004222 0.026149 -0.009705 0.000000 0.000000 0.000000
# 3 -0.005955 -0.009705 0.018329 0.000000 0.000000 0.000000
# 4 0.000000 0.000000 0.000000 0.067450 0.000000 0.000000
# 5 0.000000 0.000000 0.000000 0.000000 0.028604 0.000000
# 6 0.000000 0.000000 0.000000 0.000000 0.000000 0.336397
#
#
# Mechanical properties :
#
#
# Convention : Reuss Voigt Hill
#
# Bulk Modulus (GPa) = 62.95371 76.37372 69.66372
# Shear Modulus (GPa) = 9.37805 20.01154 14.69480
#
# Velocity S-wave (km/s) = 2.38321 3.48134 2.98324
# Velocity P-wave (km/s) = 6.76018 7.90028 7.35236
#
# Compressibility (1/GPa) = 0.01588469
#
# Stress axis : x y z
#
# Youngs Moduli (GPa) = 89.51521 38.24228 54.55951
#
# Poissons Ratio (x) = 0.16144 0.32492
# Poissons Ratio (y) = 0.37790 0.52951
# Poissons Ratio (z) = 0.53310 0.37115
#
# Static dielectric constant tensor:
#      x y z
#    x 1.556140 0.000000 0.000000 
#    y 0.000000 1.541690 0.000000 
#    z 0.000000 0.000000 1.553200 
# 
# From -- ./inp_files/5945.got.cif
#   From: 2010.05.17/outbox.cif.g08.bks.cpg/sg72_3_cif.got.tgz:5945.got - 2010.06.03 17:03:01.
