data_PCOD9525985
_publ_section_title
;
Structure prediction by ZEFSAII (Michael W. Deem and Ramdas Pophale) SiO2 
 PCOD9525985
Probable space group: I B A M
;
_chemical_formula_sum "Si O2"
_cell_formula_units_Z 112
_cell_length_a 30.644985
_cell_length_b 14.075272
_cell_length_c 14.992422
_cell_angle_alpha 90.000000
_cell_angle_beta 90.000000
_cell_angle_gamma 90.000000
_cell_volume 6466.778822
_symmetry_space_group_name_H-M "I B A M"
_symmetry_group_IT_number 72
_symmetry_cell_setting 'orthorhombic'
loop_
_space_group_symop_operation_xyz
x,y,z
-x,-y,z
x,-y,1/2-z
-x,y,1/2-z
-x,-y,-z
x,y,-z
-x,y,1/2+z
x,-y,1/2+z
1/2+x,1/2+y,1/2+z
1/2-x,1/2-y,1/2+z
1/2+x,1/2-y,-z
1/2-x,1/2+y,-z
1/2-x,1/2-y,1/2-z
1/2+x,1/2+y,1/2-z
1/2-x,1/2+y,z
1/2+x,1/2-y,z
loop_
_atom_site_type_symbol
_atom_site_label
_atom_site_fract_x
_atom_site_fract_y
_atom_site_fract_z
Si Si1 0.105455 0.788459 0.248862
Si Si2 0.031137 0.889740 0.338071
Si Si3 0.942318 0.096414 0.901941
Si Si4 0.199389 0.884874 0.747384
Si Si5 0.768359 0.616576 0.896891
Si Si6 0.159066 0.612913 0.750184
Si Si7 0.230126 0.613709 0.897891
O O1 0.069669 0.816072 0.322845
O O2 0.084738 0.832834 0.159458
O O3 0.151816 0.840667 0.260076
O O4 0.116603 0.677856 0.247772
O O5 0.000000 0.893313 0.250000
O O6 0.992831 0.870689 0.407460
O O7 0.053744 0.990554 0.359935
O O8 0.923106 0.089060 0.000000
O O9 0.226379 0.855288 0.836570
O O10 0.228433 0.856154 0.661602
O O11 0.196433 0.000000 0.750000
O O12 0.810831 0.637553 0.835995
O O13 0.767267 0.501352 0.900347
O O14 0.769270 0.649582 0.000000
O O15 0.151151 0.500000 0.750000
O O16 0.187946 0.636089 0.837874
O O17 0.228882 0.647214 0.000000
#
# Coordination Sequence:
#
# PCOD9525985 Si02
#       7
#    16  16  16  16  16  16  16
#     4  11  20  31  49  74 101 128 161 204 248 285
#     4   9  17  33  54  72  99 133 153 179 232 300
#     4  10  19  33  54  78 101 126 154 183 231 304
#     4   9  17  29  45  69  99 126 155 199 255 303
#     4   8  15  30  48  64  91 133 173 206 244 290
#     4   9  19  34  50  68  94 133 178 215 244 277
#     4   8  15  30  49  65  90 132 172 206 247 291
#
# _framework density 17.319288
#
# number of rings (size 3 to 8) (size 9 to 14) (size 15 to 20)
#    0.000    2.857    0.000    6.429    0.000    3.429 
#    0.000    7.857    0.000    3.857    0.000    1.000 
#    0.000    0.000    0.000    0.000    0.000    0.000 
#
# Total GULP energy -311871.340153 kJ/mol
# GULP energy per Si atom -5569.131074 kJ/mol
# Density = 1.727987 g / cm^3
# Si number density = 17.319288 Si / 1000 Ang^3
#
#
#
# Elastic Constant Matrix: (Units=GPa)
#
#
# Indices 1 2 3 4 5 6 
#
# 1 92.3104 50.6559 33.5851 0.0000 0.0000 0.0000
# 2 50.6559 89.4390 22.1267 0.0000 0.0000 0.0000
# 3 33.5851 22.1267 126.0769 0.0000 0.0000 0.0000
# 4 0.0000 0.0000 0.0000 -7.3007 0.0000 0.0000
# 5 0.0000 0.0000 0.0000 0.0000 4.6981 0.0000
# 6 0.0000 0.0000 0.0000 0.0000 0.0000 36.2077
#
#
#
# Elastic Compliance Matrix: (Units=1/GPa)
#
#
# Indices 1 2 3 4 5 6 
#
# 1 0.016682 -0.008728 -0.002912 0.000000 0.000000 0.000000
# 2 -0.008728 0.016255 -0.000528 0.000000 0.000000 0.000000
# 3 -0.002912 -0.000528 0.008800 0.000000 0.000000 0.000000
# 4 0.000000 0.000000 0.000000 -0.136972 0.000000 0.000000
# 5 0.000000 0.000000 0.000000 0.000000 0.212852 0.000000
# 6 0.000000 0.000000 0.000000 0.000000 0.000000 0.027618
#
#
# Mechanical properties :
#
#
# Convention : Reuss Voigt Hill
#
# Bulk Modulus (GPa) = 57.46703 57.84021 57.65362
# Shear Modulus (GPa) = 28.51112 20.15157 24.33135
#
# Velocity S-wave (km/s) = 4.06175 3.41476 3.75223
# Velocity P-wave (km/s) = 7.43304 7.00117 7.22033
#
# Compressibility (1/GPa) = 0.01740128
#
# Stress axis : x y z
#
# Youngs Moduli (GPa) = 59.94505 61.52127 113.63598
#
# Poissons Ratio (x) = 0.53694 0.33092
# Poissons Ratio (y) = 0.52319 0.05997
# Poissons Ratio (z) = 0.17457 0.03247
#
# Static dielectric constant tensor:
#      x y z
#    x 1.573760 0.000000 0.000000 
#    y 0.000000 1.620270 0.000000 
#    z 0.000000 0.000000 1.670740 
# 
# From -- ./inp_files/22284.got.cif
#   From: 2010.05.17/outbox.cif.g08.bks.cpg/sg72_12_cif.got.tgz:22284.got - 2010.06.03 17:03:01.
