data_PCOD9525528
_publ_section_title
;
Structure prediction by ZEFSAII (Michael W. Deem and Ramdas Pophale) SiO2 
 PCOD9525528
Probable space group: I B A M
;
_chemical_formula_sum "Si O2"
_cell_formula_units_Z 88
_cell_length_a 12.441184
_cell_length_b 12.637621
_cell_length_c 23.904508
_cell_angle_alpha 90.000000
_cell_angle_beta 90.000000
_cell_angle_gamma 90.000000
_cell_volume 3758.433319
_symmetry_space_group_name_H-M "I B A M"
_symmetry_group_IT_number 72
_symmetry_cell_setting 'orthorhombic'
loop_
_space_group_symop_operation_xyz
x,y,z
-x,-y,z
x,-y,1/2-z
-x,y,1/2-z
-x,-y,-z
x,y,-z
-x,y,1/2+z
x,-y,1/2+z
1/2+x,1/2+y,1/2+z
1/2-x,1/2-y,1/2+z
1/2+x,1/2-y,-z
1/2-x,1/2+y,-z
1/2-x,1/2-y,1/2-z
1/2+x,1/2+y,1/2-z
1/2-x,1/2+y,z
1/2+x,1/2-y,z
loop_
_atom_site_type_symbol
_atom_site_label
_atom_site_fract_x
_atom_site_fract_y
_atom_site_fract_z
Si Si1 0.925811 0.900042 0.121260
Si Si2 0.896803 0.663574 0.283599
Si Si3 0.163636 0.178055 0.500000
Si Si4 0.916782 0.892653 0.000000
Si Si5 0.335234 0.383638 0.261645
Si Si6 0.059567 0.690121 0.907154
Si Si7 0.098243 0.640996 0.500000
O O1 0.850100 0.869263 0.172137
O O2 0.994124 0.794604 0.111238
O O3 0.876677 0.929664 0.060652
O O4 0.000000 0.000000 0.136225
O O5 0.791662 0.622067 0.252434
O O6 0.888268 0.791398 0.274605
O O7 0.902695 0.638439 0.349382
O O8 0.000000 0.627057 0.250000
O O9 0.150984 0.257540 0.553155
O O10 0.275141 0.112137 0.500000
O O11 0.050595 0.108921 0.500000
O O12 0.891237 0.768255 0.000000
O O13 0.376336 0.500000 0.250000
O O14 0.977618 0.622002 0.945813
#
# Coordination Sequence:
#
# PCOD9525528 Si02
#       7
#    16  16   8   8  16  16   8
#     4  10  18  34  56  82 120 143 185 243 297 353
#     4  11  23  40  60  83 122 156 203 252 288 360
#     4   8  16  29  51  72 117 141 178 240 283 353
#     4   8  19  30  48  89 108 145 178 231 309 345
#     4  11  25  38  59  91 112 163 203 242 307 347
#     4   9  19  31  50  85 106 149 189 234 295 339
#     4   8  16  29  49  75 111 145 187 231 289 342
#
# _framework density 23.414012
#
# number of rings (size 3 to 8) (size 9 to 14) (size 15 to 20)
#    0.000    2.909    1.818    1.364    5.091    0.364 
#    0.000    0.000    0.000    0.000    0.000    0.000 
#    0.000   12.000    0.000    0.000    0.000    0.000 
#
# Total GULP energy -245408.767984 kJ/mol
# GULP energy per Si atom -5577.472000 kJ/mol
# Density = 2.336072 g / cm^3
# Si number density = 23.414012 Si / 1000 Ang^3
#
#
#
# Elastic Constant Matrix: (Units=GPa)
#
#
# Indices 1 2 3 4 5 6 
#
# 1 103.1683 -1.3397 35.2851 0.0000 0.0000 0.0000
# 2 -1.3397 55.6068 -9.7538 0.0000 0.0000 0.0000
# 3 35.2851 -9.7538 155.0051 0.0000 0.0000 0.0000
# 4 0.0000 0.0000 0.0000 4.2444 0.0000 0.0000
# 5 0.0000 0.0000 0.0000 0.0000 22.8159 0.0000
# 6 0.0000 0.0000 0.0000 0.0000 0.0000 3.6188
#
#
#
# Elastic Compliance Matrix: (Units=1/GPa)
#
#
# Indices 1 2 3 4 5 6 
#
# 1 0.010513 -0.000168 -0.002404 0.000000 0.000000 0.000000
# 2 -0.000168 0.018187 0.001183 0.000000 0.000000 0.000000
# 3 -0.002404 0.001183 0.007073 0.000000 0.000000 0.000000
# 4 0.000000 0.000000 0.000000 0.235606 0.000000 0.000000
# 5 0.000000 0.000000 0.000000 0.000000 0.043829 0.000000
# 6 0.000000 0.000000 0.000000 0.000000 0.000000 0.276337
#
#
# Mechanical properties :
#
#
# Convention : Reuss Voigt Hill
#
# Bulk Modulus (GPa) = 30.30856 40.24038 35.27447
# Shear Modulus (GPa) = 8.26008 25.44171 16.85089
#
# Velocity S-wave (km/s) = 1.88029 3.29994 2.68562
# Velocity P-wave (km/s) = 4.20556 5.63411 4.97142
#
# Compressibility (1/GPa) = 0.03299398
#
# Stress axis : x y z
#
# Youngs Moduli (GPa) = 95.12190 54.98490 141.38260
#
# Poissons Ratio (x) = 0.00926 0.33984
# Poissons Ratio (y) = 0.01601 -0.16722
# Poissons Ratio (z) = 0.22865 -0.06503
#
# Static dielectric constant tensor:
#      x y z
#    x 1.925900 0.000000 0.000000 
#    y 0.000000 1.954950 0.000000 
#    z 0.000000 0.000000 1.922850 
# 
# From -- ./inp_files/37981.got.cif
#   From: 2010.05.17/outbox.cif.g08.bks.cpg/sg72_19_cif.got.tgz:37981.got - 2010.06.03 17:03:01.
