data_PCOD9525852
_publ_section_title
;
Structure prediction by ZEFSAII (Michael W. Deem and Ramdas Pophale) SiO2 
 PCOD9525852
Probable space group: I B A M
;
_chemical_formula_sum "Si O2"
_cell_formula_units_Z 112
_cell_length_a 19.454606
_cell_length_b 17.272422
_cell_length_c 18.011535
_cell_angle_alpha 90.000000
_cell_angle_beta 90.000000
_cell_angle_gamma 90.000000
_cell_volume 6052.383049
_symmetry_space_group_name_H-M "I B A M"
_symmetry_group_IT_number 72
_symmetry_cell_setting 'orthorhombic'
loop_
_space_group_symop_operation_xyz
x,y,z
-x,-y,z
x,-y,1/2-z
-x,y,1/2-z
-x,-y,-z
x,y,-z
-x,y,1/2+z
x,-y,1/2+z
1/2+x,1/2+y,1/2+z
1/2-x,1/2-y,1/2+z
1/2+x,1/2-y,-z
1/2-x,1/2+y,-z
1/2-x,1/2-y,1/2-z
1/2+x,1/2+y,1/2-z
1/2-x,1/2+y,z
1/2+x,1/2-y,z
loop_
_atom_site_type_symbol
_atom_site_label
_atom_site_fract_x
_atom_site_fract_y
_atom_site_fract_z
Si Si1 0.911504 0.326182 0.858845
Si Si2 0.197457 0.767805 0.415811
Si Si3 0.275512 0.556231 0.313893
Si Si4 0.140767 0.650069 0.696385
Si Si5 0.460816 0.081403 0.414006
Si Si6 0.720334 0.079536 0.412621
Si Si7 0.342308 0.325171 0.915537
O O1 0.901985 0.333066 0.770363
O O2 0.852680 0.383360 0.891106
O O3 0.893820 0.240356 0.886700
O O4 0.983988 0.354185 0.889756
O O5 0.168632 0.765711 0.500000
O O6 0.152166 0.726640 0.353425
O O7 0.222222 0.854333 0.397393
O O8 0.267840 0.717531 0.417673
O O9 0.302577 0.500000 0.250000
O O10 0.215453 0.613741 0.283626
O O11 0.238266 0.498523 0.370961
O O12 0.331669 0.605593 0.357920
O O13 0.101343 0.590041 0.643177
O O14 0.439443 0.090238 0.500000
O O15 0.500000 0.000000 0.406651
O O16 0.719564 0.065563 0.500000
O O17 0.358255 0.349212 0.000000
#
# Coordination Sequence:
#
# PCOD9525852 Si02
#       7
#    16  16  16  16  16  16  16
#     4  11  21  35  53  76 104 144 185 226 270 320
#     4   8  17  32  50  72 100 138 177 214 262 322
#     4  11  21  32  51  82 111 141 172 222 275 323
#     4  11  22  33  51  75 108 141 175 225 269 316
#     4  11  24  38  54  74 104 146 190 225 264 321
#     4  10  19  32  52  74 105 140 176 216 265 326
#     4   9  19  34  53  74 106 143 181 219 267 332
#
# _framework density 18.505108
#
# number of rings (size 3 to 8) (size 9 to 14) (size 15 to 20)
#    0.000    1.857    1.429    4.286    2.000    5.143 
#    0.000    0.000    0.000    0.000    0.000    1.000 
#    0.000    4.571    0.000    0.000    0.000    0.000 
#
# Total GULP energy -312712.627998 kJ/mol
# GULP energy per Si atom -5584.154071 kJ/mol
# Density = 1.846299 g / cm^3
# Si number density = 18.505108 Si / 1000 Ang^3
#
#
#
# Elastic Constant Matrix: (Units=GPa)
#
#
# Indices 1 2 3 4 5 6 
#
# 1 18.0692 17.5061 17.5528 0.0000 0.0000 0.0000
# 2 17.5061 62.5015 25.4364 0.0000 0.0000 0.0000
# 3 17.5528 25.4364 102.4603 0.0000 0.0000 0.0000
# 4 0.0000 0.0000 0.0000 24.0321 0.0000 0.0000
# 5 0.0000 0.0000 0.0000 0.0000 43.7821 0.0000
# 6 0.0000 0.0000 0.0000 0.0000 0.0000 23.2639
#
#
#
# Elastic Compliance Matrix: (Units=1/GPa)
#
#
# Indices 1 2 3 4 5 6 
#
# 1 0.083436 -0.019525 -0.009446 0.000000 0.000000 0.000000
# 2 -0.019525 0.022367 -0.002208 0.000000 0.000000 0.000000
# 3 -0.009446 -0.002208 0.011926 0.000000 0.000000 0.000000
# 4 0.000000 0.000000 0.000000 0.041611 0.000000 0.000000
# 5 0.000000 0.000000 0.000000 0.000000 0.022840 0.000000
# 6 0.000000 0.000000 0.000000 0.000000 0.000000 0.042985
#
#
# Mechanical properties :
#
#
# Convention : Reuss Voigt Hill
#
# Bulk Modulus (GPa) = 18.06020 33.78016 25.92018
# Shear Modulus (GPa) = 16.34088 26.38468 21.36278
#
# Velocity S-wave (km/s) = 2.97483 3.78008 3.40137
# Velocity P-wave (km/s) = 4.64546 6.11115 5.42800
#
# Compressibility (1/GPa) = 0.05537036
#
# Stress axis : x y z
#
# Youngs Moduli (GPa) = 11.98525 44.70888 83.84846
#
# Poissons Ratio (x) = 0.87295 0.79207
# Poissons Ratio (y) = 0.23401 0.18512
# Poissons Ratio (z) = 0.11322 0.09871
#
# Static dielectric constant tensor:
#      x y z
#    x 1.629590 0.000000 0.000000 
#    y 0.000000 1.638660 0.000000 
#    z 0.000000 0.000000 1.661740 
# 
# From -- ./inp_files/32752.got.cif
#   From: 2010.05.17/outbox.cif.g08.bks.cpg/sg72_17_cif.got.tgz:32752.got - 2010.06.03 17:03:01.
