data_PCOD9525000
_publ_section_title
;
Structure prediction by ZEFSAII (Michael W. Deem and Ramdas Pophale) SiO2 
 PCOD9525000
Probable space group: I B A M
;
_chemical_formula_sum "Si O2"
_cell_formula_units_Z 56
_cell_length_a 5.303405
_cell_length_b 32.085584
_cell_length_c 14.443975
_cell_angle_alpha 90.000000
_cell_angle_beta 90.000000
_cell_angle_gamma 90.000000
_cell_volume 2457.827902
_symmetry_space_group_name_H-M "I B A M"
_symmetry_group_IT_number 72
_symmetry_cell_setting 'orthorhombic'
loop_
_space_group_symop_operation_xyz
x,y,z
-x,-y,z
x,-y,1/2-z
-x,y,1/2-z
-x,-y,-z
x,y,-z
-x,y,1/2+z
x,-y,1/2+z
1/2+x,1/2+y,1/2+z
1/2-x,1/2-y,1/2+z
1/2+x,1/2-y,-z
1/2-x,1/2+y,-z
1/2-x,1/2-y,1/2-z
1/2+x,1/2+y,1/2-z
1/2-x,1/2+y,z
1/2+x,1/2-y,z
loop_
_atom_site_type_symbol
_atom_site_label
_atom_site_fract_x
_atom_site_fract_y
_atom_site_fract_z
Si Si1 0.455267 0.611951 0.643022
Si Si2 0.540516 0.152240 0.361849
Si Si3 0.754841 0.981589 0.644441
Si Si4 0.180103 0.723122 0.000000
O O1 0.500000 0.622567 0.750000
O O2 0.744007 0.617817 0.609936
O O3 0.313510 0.567323 0.643485
O O4 0.240815 0.641796 0.602816
O O5 0.500000 0.154473 0.250000
O O6 0.639656 0.193939 0.409844
O O7 0.500000 0.000000 0.604141
O O8 0.752652 0.000000 0.750000
O O9 0.000000 0.000000 0.598346
O O10 0.455541 0.743258 0.000000
#
# Coordination Sequence:
#
# PCOD9525000 Si02
#       4
#    16  16  16   8
#     4  10  18  33  53  86 132 162 205 260 293 364
#     4  10  23  39  63  93 125 160 207 249 317 374
#     4  10  17  24  44  80 126 160 205 254 293 335
#     4  12  26  46  70  94 122 158 204 258 326 390
#
# _framework density 22.784347
#
# number of rings (size 3 to 8) (size 9 to 14) (size 15 to 20)
#    0.000    1.714    2.857    3.429    8.000    1.143 
#    0.000    0.000    0.000    0.000    0.000   20.000 
#    0.000    0.000    0.000    0.000    0.000    0.000 
#
# Total GULP energy -155934.260250 kJ/mol
# GULP energy per Si atom -5569.080723 kJ/mol
# Density = 2.273249 g / cm^3
# Si number density = 22.784347 Si / 1000 Ang^3
#
#
#
# Elastic Constant Matrix: (Units=GPa)
#
#
# Indices 1 2 3 4 5 6 
#
# 1 206.4479 32.7239 18.2102 0.0000 0.0000 0.0000
# 2 32.7239 71.8524 12.5485 0.0000 0.0000 0.0000
# 3 18.2102 12.5485 119.4272 0.0000 0.0000 0.0000
# 4 0.0000 0.0000 0.0000 127.1707 0.0000 0.0000
# 5 0.0000 0.0000 0.0000 0.0000 -10.3356 0.0000
# 6 0.0000 0.0000 0.0000 0.0000 0.0000 58.1764
#
#
#
# Elastic Compliance Matrix: (Units=1/GPa)
#
#
# Indices 1 2 3 4 5 6 
#
# 1 0.005257 -0.002296 -0.000560 0.000000 0.000000 0.000000
# 2 -0.002296 0.015181 -0.001245 0.000000 0.000000 0.000000
# 3 -0.000560 -0.001245 0.008590 0.000000 0.000000 0.000000
# 4 0.000000 0.000000 0.000000 0.007863 0.000000 0.000000
# 5 0.000000 0.000000 0.000000 0.000000 -0.096753 0.000000
# 6 0.000000 0.000000 0.000000 0.000000 0.000000 0.017189
#
#
# Mechanical properties :
#
#
# Convention : Reuss Voigt Hill
#
# Bulk Modulus (GPa) = 48.02125 58.29918 53.16022
# Shear Modulus (GPa) = -181.63230 57.28531 -62.17349
#
# Velocity S-wave (km/s) = -8.93818 5.01966 -5.22944
# Velocity P-wave (km/s) = 9.24117 7.69668 3.61665
#
# Compressibility (1/GPa) = 0.02082411
#
# Stress axis : x y z
#
# Youngs Moduli (GPa) = 190.21265 65.87305 116.42059
#
# Poissons Ratio (x) = 0.15128 0.06523
# Poissons Ratio (y) = 0.43682 0.14493
# Poissons Ratio (z) = 0.10658 0.08201
#
# Static dielectric constant tensor:
#      x y z
#    x 1.877460 0.000000 0.000000 
#    y 0.000000 1.848650 0.000000 
#    z 0.000000 0.000000 1.978930 
# 
# From -- ./inp_files/17588.got.cif
#   From: 2010.05.17/outbox.cif.g08.bks.cpg/sg72_9_cif.got.tgz:17588.got - 2010.06.03 17:03:01.
