data_PCOD9525437
_publ_section_title
;
Structure prediction by ZEFSAII (Michael W. Deem and Ramdas Pophale) SiO2 
 PCOD9525437
Probable space group: I B A M
;
_chemical_formula_sum "Si O2"
_cell_formula_units_Z 116
_cell_length_a 27.402279
_cell_length_b 27.748476
_cell_length_c 8.062292
_cell_angle_alpha 90.000000
_cell_angle_beta 90.000000
_cell_angle_gamma 90.000000
_cell_volume 6130.336910
_symmetry_space_group_name_H-M "I B A M"
_symmetry_group_IT_number 72
_symmetry_cell_setting 'orthorhombic'
loop_
_space_group_symop_operation_xyz
x,y,z
-x,-y,z
x,-y,1/2-z
-x,y,1/2-z
-x,-y,-z
x,y,-z
-x,y,1/2+z
x,-y,1/2+z
1/2+x,1/2+y,1/2+z
1/2-x,1/2-y,1/2+z
1/2+x,1/2-y,-z
1/2-x,1/2+y,-z
1/2-x,1/2-y,1/2-z
1/2+x,1/2+y,1/2-z
1/2-x,1/2+y,z
1/2+x,1/2-y,z
loop_
_atom_site_type_symbol
_atom_site_label
_atom_site_fract_x
_atom_site_fract_y
_atom_site_fract_z
Si Si1 0.686588 0.655753 0.190697
Si Si2 0.685833 0.922396 0.798631
Si Si3 0.500000 0.000000 0.750000
Si Si4 0.578633 0.069413 0.698568
Si Si5 0.444390 0.177816 0.699859
Si Si6 0.790753 0.315516 0.807427
Si Si7 0.633577 0.256956 0.808203
Si Si8 0.206632 0.948132 0.698177
O O1 0.733169 0.675797 0.291230
O O2 0.642064 0.691930 0.221304
O O3 0.679972 0.599877 0.237945
O O4 0.701128 0.658210 0.000000
O O5 0.633806 0.943067 0.749002
O O6 0.686749 0.866283 0.749653
O O7 0.736823 0.944581 0.738920
O O8 0.686774 0.923516 0.000000
O O9 0.459904 0.960544 0.806642
O O10 0.571309 0.058850 0.500000
O O11 0.570192 0.126246 0.723510
O O12 0.500000 0.188149 0.750000
O O13 0.440556 0.173847 0.500000
O O14 0.407946 0.220450 0.756098
O O15 0.815800 0.272756 0.709043
O O16 0.802694 0.307560 0.000000
O O17 0.623371 0.266444 0.000000
O O18 0.207754 0.945279 0.500000
O O19 0.186605 0.000000 0.750000
#
# Coordination Sequence:
#
# PCOD9525437 Si02
#       8
#    16  16   4  16  16  16  16  16
#     4  11  22  35  53  79 110 145 180 221 267 324
#     4   8  17  32  51  71  97 136 176 220 270 322
#     4  12  26  32  56  82  98 136 178 248 296 328
#     4  11  22  39  55  72 101 134 178 231 287 337
#     4  11  24  40  60  81 104 136 178 226 281 337
#     4  10  18  32  53  77 105 140 176 219 271 327
#     4  11  22  36  54  80 108 139 177 222 272 331
#     4  10  20  36  55  78 108 145 184 224 268 318
#
# _framework density 18.922288000000002
#
# number of rings (size 3 to 8) (size 9 to 14) (size 15 to 20)
#    0.000    1.655    2.069    4.345    0.966    2.207 
#    0.000    0.690    0.000    0.000    0.000    0.000 
#    0.000    0.552    0.000    5.793    0.000    3.172 
#
# Total GULP energy -323603.248731 kJ/mol
# GULP energy per Si atom -5579.366357 kJ/mol
# Density = 1.887922 g / cm^3
# Si number density = 18.922288 Si / 1000 Ang^3
#
#
#
# Elastic Constant Matrix: (Units=GPa)
#
#
# Indices 1 2 3 4 5 6 
#
# 1 46.6011 51.8137 4.7895 0.0000 0.0000 0.0000
# 2 51.8137 148.0421 11.9759 0.0000 0.0000 0.0000
# 3 4.7895 11.9759 47.7569 0.0000 0.0000 0.0000
# 4 0.0000 0.0000 0.0000 10.6807 0.0000 0.0000
# 5 0.0000 0.0000 0.0000 0.0000 8.3466 0.0000
# 6 0.0000 0.0000 0.0000 0.0000 0.0000 70.5153
#
#
#
# Elastic Compliance Matrix: (Units=1/GPa)
#
#
# Indices 1 2 3 4 5 6 
#
# 1 0.035138 -0.012262 -0.000449 0.000000 0.000000 0.000000
# 2 -0.012262 0.011174 -0.001572 0.000000 0.000000 0.000000
# 3 -0.000449 -0.001572 0.021379 0.000000 0.000000 0.000000
# 4 0.000000 0.000000 0.000000 0.093627 0.000000 0.000000
# 5 0.000000 0.000000 0.000000 0.000000 0.119809 0.000000
# 6 0.000000 0.000000 0.000000 0.000000 0.000000 0.014181
#
#
# Mechanical properties :
#
#
# Convention : Reuss Voigt Hill
#
# Bulk Modulus (GPa) = 25.55967 42.17314 33.86641
# Shear Modulus (GPa) = 14.84054 29.49659 22.16856
#
# Velocity S-wave (km/s) = 2.80355 3.95248 3.42652
# Velocity P-wave (km/s) = 4.90071 6.57004 5.79579
#
# Compressibility (1/GPa) = 0.03912414
#
# Stress axis : x y z
#
# Youngs Moduli (GPa) = 28.45908 89.49700 46.77552
#
# Poissons Ratio (x) = 1.09739 0.02101
# Poissons Ratio (y) = 0.34896 0.07354
# Poissons Ratio (z) = 0.01278 0.14071
#
# Static dielectric constant tensor:
#      x y z
#    x 1.664710 0.000000 0.000000 
#    y 0.000000 1.679820 0.000000 
#    z 0.000000 0.000000 0.853720 
# 
# From -- ./inp_files/9478.got.cif
#   From: 2010.05.17/outbox.cif.g08.bks.cpg/sg72_5_cif.got.tgz:9478.got - 2010.06.03 17:03:01.
