data_PCOD9525706
_publ_section_title
;
Structure prediction by ZEFSAII (Michael W. Deem and Ramdas Pophale) SiO2 
 PCOD9525706
Probable space group: I B A M
;
_chemical_formula_sum "Si O2"
_cell_formula_units_Z 96
_cell_length_a 6.986428
_cell_length_b 21.711878
_cell_length_c 24.117718
_cell_angle_alpha 90.000000
_cell_angle_beta 90.000000
_cell_angle_gamma 90.000000
_cell_volume 3658.379801
_symmetry_space_group_name_H-M "I B A M"
_symmetry_group_IT_number 72
_symmetry_cell_setting 'orthorhombic'
loop_
_space_group_symop_operation_xyz
x,y,z
-x,-y,z
x,-y,1/2-z
-x,y,1/2-z
-x,-y,-z
x,y,-z
-x,y,1/2+z
x,-y,1/2+z
1/2+x,1/2+y,1/2+z
1/2-x,1/2-y,1/2+z
1/2+x,1/2-y,-z
1/2-x,1/2+y,-z
1/2-x,1/2-y,1/2-z
1/2+x,1/2+y,1/2-z
1/2-x,1/2+y,z
1/2+x,1/2-y,z
loop_
_atom_site_type_symbol
_atom_site_label
_atom_site_fract_x
_atom_site_fract_y
_atom_site_fract_z
Si Si1 0.868225 0.642021 0.438063
Si Si2 0.223817 0.413042 0.734480
Si Si3 0.818294 0.103150 0.063062
Si Si4 0.223091 0.480628 0.624883
Si Si5 0.405544 0.797690 0.669085
Si Si6 0.343960 0.338023 0.171479
O O1 0.805896 0.656522 0.500000
O O2 0.772753 0.580640 0.412723
O O3 0.840078 0.697114 0.394548
O O4 0.094645 0.624162 0.440139
O O5 0.280303 0.462024 0.687478
O O6 0.218565 0.345825 0.704178
O O7 0.348905 0.397389 0.788638
O O8 0.000000 0.426162 0.750000
O O9 0.910158 0.147250 0.109310
O O10 0.820457 0.036522 0.092521
O O11 0.889935 0.102447 0.000000
O O12 0.000000 0.500000 0.629241
O O13 0.418516 0.728393 0.689468
O O14 0.616120 0.826021 0.670197
#
# Coordination Sequence:
#
# PCOD9525706 Si02
#       6
#    16  16  16  16  16  16
#     4   8  14  25  41  62  88 119 153 187 226 274
#     4   9  17  28  43  65  91 118 151 189 230 275
#     4   9  17  27  41  65  96 124 149 186 236 279
#     4   9  15  24  41  65  93 120 144 182 238 286
#     4   9  18  30  45  65  91 124 157 191 229 270
#     4  10  19  31  46  66  95 126 156 190 227 271
#
# _framework density 26.241125
#
# number of rings (size 3 to 8) (size 9 to 14) (size 15 to 20)
#    0.000    3.000    0.000    4.000    0.000    5.000 
#    0.000    0.000    0.000    0.000    0.000    4.667 
#    0.000   44.000    0.000    0.667    0.000    0.000 
#
# Total GULP energy -268693.598208 kJ/mol
# GULP energy per Si atom -5597.783296 kJ/mol
# Density = 2.618140 g / cm^3
# Si number density = 26.241125 Si / 1000 Ang^3
#
#
#
# Elastic Constant Matrix: (Units=GPa)
#
#
# Indices 1 2 3 4 5 6 
#
# 1 75.9138 20.4398 12.4372 0.0000 0.0000 0.0000
# 2 20.4398 119.0300 60.1451 0.0000 0.0000 0.0000
# 3 12.4372 60.1451 222.9025 0.0000 0.0000 0.0000
# 4 0.0000 0.0000 0.0000 22.3648 0.0000 0.0000
# 5 0.0000 0.0000 0.0000 0.0000 11.6695 0.0000
# 6 0.0000 0.0000 0.0000 0.0000 0.0000 29.4619
#
#
#
# Elastic Compliance Matrix: (Units=1/GPa)
#
#
# Indices 1 2 3 4 5 6 
#
# 1 0.013816 -0.002296 -0.000151 0.000000 0.000000 0.000000
# 2 -0.002296 0.010109 -0.002600 0.000000 0.000000 0.000000
# 3 -0.000151 -0.002600 0.005196 0.000000 0.000000 0.000000
# 4 0.000000 0.000000 0.000000 0.044713 0.000000 0.000000
# 5 0.000000 0.000000 0.000000 0.000000 0.085693 0.000000
# 6 0.000000 0.000000 0.000000 0.000000 0.000000 0.033942
#
#
# Mechanical properties :
#
#
# Convention : Reuss Voigt Hill
#
# Bulk Modulus (GPa) = 52.55632 67.09893 59.82762
# Shear Modulus (GPa) = 23.82020 34.35420 29.08720
#
# Velocity S-wave (km/s) = 3.01615 3.62218 3.33296
# Velocity P-wave (km/s) = 5.67461 6.56652 6.13679
#
# Compressibility (1/GPa) = 0.01902721
#
# Stress axis : x y z
#
# Youngs Moduli (GPa) = 72.38075 98.92114 192.45010
#
# Poissons Ratio (x) = 0.22712 0.02913
# Poissons Ratio (y) = 0.16618 0.50029
# Poissons Ratio (z) = 0.01096 0.25715
#
# Static dielectric constant tensor:
#      x y z
#    x 2.121900 0.000000 0.000000 
#    y 0.000000 2.003180 0.000000 
#    z 0.000000 0.000000 2.068330 
# 
# From -- ./inp_files/42430.got.cif
#   From: 2010.05.17/outbox.cif.g08.bks.cpg/sg72_22_cif.got.tgz:42430.got - 2010.06.03 17:03:01.
