data_PCOD9525487
_publ_section_title
;
Structure prediction by ZEFSAII (Michael W. Deem and Ramdas Pophale) SiO2 
 PCOD9525487
Probable space group: I B A M
;
_chemical_formula_sum "Si O2"
_cell_formula_units_Z 116
_cell_length_a 27.489412
_cell_length_b 11.045241
_cell_length_c 21.892095
_cell_angle_alpha 90.000000
_cell_angle_beta 90.000000
_cell_angle_gamma 90.000000
_cell_volume 6647.035080
_symmetry_space_group_name_H-M "I B A M"
_symmetry_group_IT_number 72
_symmetry_cell_setting 'orthorhombic'
loop_
_space_group_symop_operation_xyz
x,y,z
-x,-y,z
x,-y,1/2-z
-x,y,1/2-z
-x,-y,-z
x,y,-z
-x,y,1/2+z
x,-y,1/2+z
1/2+x,1/2+y,1/2+z
1/2-x,1/2-y,1/2+z
1/2+x,1/2-y,-z
1/2-x,1/2+y,-z
1/2-x,1/2-y,1/2-z
1/2+x,1/2+y,1/2-z
1/2-x,1/2+y,z
1/2+x,1/2-y,z
loop_
_atom_site_type_symbol
_atom_site_label
_atom_site_fract_x
_atom_site_fract_y
_atom_site_fract_z
Si Si1 0.036221 0.319087 0.567841
Si Si2 0.447133 0.177981 0.659724
Si Si3 0.216204 0.150067 0.573206
Si Si4 0.444030 0.453105 0.315318
Si Si5 0.218908 0.424843 0.426147
Si Si6 0.500000 0.000000 0.250000
Si Si7 0.396425 0.581972 0.570208
Si Si8 0.886956 0.465592 0.429095
O O1 0.014855 0.323575 0.500000
O O2 0.070504 0.202224 0.572357
O O3 0.069703 0.436570 0.575718
O O4 0.992977 0.313382 0.614618
O O5 0.441317 0.309192 0.688043
O O6 0.464362 0.081828 0.709488
O O7 0.401114 0.136135 0.619589
O O8 0.225093 0.154468 0.500000
O O9 0.227555 0.286737 0.596390
O O10 0.159208 0.121121 0.580907
O O11 0.247013 0.034853 0.596724
O O12 0.500000 0.500000 0.321279
O O13 0.425225 0.500000 0.250000
O O14 0.415570 0.496941 0.375675
O O15 0.224852 0.419342 0.500000
O O16 0.163403 0.466270 0.415284
O O17 0.400172 0.533169 0.500000
O O18 0.884550 0.423548 0.500000
#
# Coordination Sequence:
#
# PCOD9525487 Si02
#       8
#    16  16  16  16  16   4  16  16
#     4  10  18  33  55  79 110 144 180 222 273 324
#     4  12  23  36  55  79 106 144 189 228 269 327
#     4   9  17  31  52  81 113 146 186 227 279 335
#     4  11  24  40  55  77 112 151 187 228 278 332
#     4   9  17  30  51  80 115 149 179 226 284 338
#     4  12  24  36  52  76 104 144 196 232 264 324
#     4  10  20  35  58  83 110 150 189 225 274 331
#     4  10  19  33  53  81 112 141 178 227 283 327
#
# _framework density 17.451388999999999
#
# number of rings (size 3 to 8) (size 9 to 14) (size 15 to 20)
#    0.000    1.793    4.138    1.241    0.000    3.586 
#    0.000    2.759    0.000    0.000    1.793    1.931 
#    0.000    0.000    0.000    0.000    0.000    0.000 
#
# Total GULP energy -323417.992987 kJ/mol
# GULP energy per Si atom -5576.172293 kJ/mol
# Density = 1.741167 g / cm^3
# Si number density = 17.451389 Si / 1000 Ang^3
#
#
#
# Elastic Constant Matrix: (Units=GPa)
#
#
# Indices 1 2 3 4 5 6 
#
# 1 49.2246 32.7509 26.7373 0.0000 0.0000 0.0000
# 2 32.7509 133.0018 56.6832 0.0000 0.0000 0.0000
# 3 26.7373 56.6832 80.4637 0.0000 0.0000 0.0000
# 4 0.0000 0.0000 0.0000 -13.1954 0.0000 0.0000
# 5 0.0000 0.0000 0.0000 0.0000 20.6772 0.0000
# 6 0.0000 0.0000 0.0000 0.0000 0.0000 11.7228
#
#
#
# Elastic Compliance Matrix: (Units=1/GPa)
#
#
# Indices 1 2 3 4 5 6 
#
# 1 0.026137 -0.003908 -0.005932 0.000000 0.000000 0.000000
# 2 -0.003908 0.011329 -0.006682 0.000000 0.000000 0.000000
# 3 -0.005932 -0.006682 0.019106 0.000000 0.000000 0.000000
# 4 0.000000 0.000000 0.000000 -0.075784 0.000000 0.000000
# 5 0.000000 0.000000 0.000000 0.000000 0.048362 0.000000
# 6 0.000000 0.000000 0.000000 0.000000 0.000000 0.085304
#
#
# Mechanical properties :
#
#
# Convention : Reuss Voigt Hill
#
# Bulk Modulus (GPa) = 42.50235 55.00365 48.75300
# Shear Modulus (GPa) = 32.18704 13.60883 22.89794
#
# Velocity S-wave (km/s) = 4.29929 2.79554 3.62622
# Velocity P-wave (km/s) = 7.00377 6.48126 6.74757
#
# Compressibility (1/GPa) = 0.02352811
#
# Stress axis : x y z
#
# Youngs Moduli (GPa) = 38.25942 88.27060 52.33853
#
# Poissons Ratio (x) = 0.34496 0.31048
# Poissons Ratio (y) = 0.14952 0.34973
# Poissons Ratio (z) = 0.22696 0.58983
#
# Static dielectric constant tensor:
#      x y z
#    x 1.574080 0.000000 0.000000 
#    y 0.000000 1.638800 0.000000 
#    z 0.000000 0.000000 1.589750 
# 
# From -- ./inp_files/34335.got.cif
#   From: 2010.05.17/outbox.cif.g08.bks.cpg/sg72_18_cif.got.tgz:34335.got - 2010.06.03 17:03:01.
