data_PCOD9525164
_publ_section_title
;
Structure prediction by ZEFSAII (Michael W. Deem and Ramdas Pophale) SiO2 
 PCOD9525164
Probable space group: I B A M
;
_chemical_formula_sum "Si O2"
_cell_formula_units_Z 48
_cell_length_a 28.773732
_cell_length_b 8.741615
_cell_length_c 8.463173
_cell_angle_alpha 90.000000
_cell_angle_beta 90.000000
_cell_angle_gamma 90.000000
_cell_volume 2128.732487
_symmetry_space_group_name_H-M "I B A M"
_symmetry_group_IT_number 72
_symmetry_cell_setting 'orthorhombic'
loop_
_space_group_symop_operation_xyz
x,y,z
-x,-y,z
x,-y,1/2-z
-x,y,1/2-z
-x,-y,-z
x,y,-z
-x,y,1/2+z
x,-y,1/2+z
1/2+x,1/2+y,1/2+z
1/2-x,1/2-y,1/2+z
1/2+x,1/2-y,-z
1/2-x,1/2+y,-z
1/2-x,1/2-y,1/2-z
1/2+x,1/2+y,1/2-z
1/2-x,1/2+y,z
1/2+x,1/2-y,z
loop_
_atom_site_type_symbol
_atom_site_label
_atom_site_fract_x
_atom_site_fract_y
_atom_site_fract_z
Si Si1 0.698254 0.951817 0.500000
Si Si2 0.851892 0.203610 0.319907
Si Si3 0.198085 0.819325 0.000000
Si Si4 0.950592 0.327018 0.312309
O O1 0.671257 0.869431 0.644087
O O2 0.750605 0.889079 0.500000
O O3 0.699127 0.133406 0.500000
O O4 0.848929 0.135819 0.500000
O O5 0.826119 0.140146 0.166584
O O6 0.905622 0.226520 0.273914
O O7 0.944233 0.500000 0.250000
O O8 0.952978 0.336918 0.500000
O O9 0.000000 0.268632 0.250000
#
# Coordination Sequence:
#
# PCOD9525164 Si02
#       4
#     8  16   8  16
#     4  10  22  36  53  77 103 141 174 218 257 306
#     4   9  22  33  50  74 102 139 174 211 262 312
#     4  12  20  38  55  73 109 139 176 218 259 306
#     4  10  18  27  42  67  97 131 168 204 251 311
#
# _framework density 22.548627
#
# number of rings (size 3 to 8) (size 9 to 14) (size 15 to 20)
#    1.000    1.000    0.000    6.000    4.667    0.000 
#    0.000    0.000    0.000    0.000    0.000    0.000 
#    0.000    8.000    0.000    0.000    0.000    0.000 
#
# Total GULP energy -133951.839232 kJ/mol
# GULP energy per Si atom -5581.326635 kJ/mol
# Density = 2.249731 g / cm^3
# Si number density = 22.548627 Si / 1000 Ang^3
#
#
#
# Elastic Constant Matrix: (Units=GPa)
#
#
# Indices 1 2 3 4 5 6 
#
# 1 170.3753 27.2948 58.5667 0.0000 0.0000 0.0000
# 2 27.2948 86.2832 48.5813 0.0000 0.0000 0.0000
# 3 58.5667 48.5813 81.1132 0.0000 0.0000 0.0000
# 4 0.0000 0.0000 0.0000 17.7176 0.0000 0.0000
# 5 0.0000 0.0000 0.0000 0.0000 31.7632 0.0000
# 6 0.0000 0.0000 0.0000 0.0000 0.0000 -300.2873
#
#
#
# Elastic Compliance Matrix: (Units=1/GPa)
#
#
# Indices 1 2 3 4 5 6 
#
# 1 0.007872 0.001071 -0.006326 0.000000 0.000000 0.000000
# 2 0.001071 0.017633 -0.011334 0.000000 0.000000 0.000000
# 3 -0.006326 -0.011334 0.023684 0.000000 0.000000 0.000000
# 4 0.000000 0.000000 0.000000 0.056441 0.000000 0.000000
# 5 0.000000 0.000000 0.000000 0.000000 0.031483 0.000000
# 6 0.000000 0.000000 0.000000 0.000000 0.000000 -0.003330
#
#
# Mechanical properties :
#
#
# Convention : Reuss Voigt Hill
#
# Bulk Modulus (GPa) = 62.45378 67.40639 64.93008
# Shear Modulus (GPa) = 29.01961 -36.60602 -3.79320
#
# Velocity S-wave (km/s) = 3.59134 -4.03355 -1.29842
# Velocity P-wave (km/s) = 6.70481 2.87507 5.15851
#
# Compressibility (1/GPa) = 0.01601184
#
# Stress axis : x y z
#
# Youngs Moduli (GPa) = 127.02875 56.71341 42.22203
#
# Poissons Ratio (x) = -0.06076 0.26708
# Poissons Ratio (y) = -0.13609 0.47856
# Poissons Ratio (z) = 0.80355 0.64280
#
# Static dielectric constant tensor:
#      x y z
#    x 1.833440 0.000000 0.000000 
#    y 0.000000 1.852840 0.000000 
#    z 0.000000 0.000000 1.866280 
# 
# From -- ./inp_files/6521.got.cif
#   From: 2010.05.17/outbox.cif.g08.bks.cpg/sg72_4_cif.got.tgz:6521.got - 2010.06.03 17:03:01.
