data_PCOD9525661
_publ_section_title
;
Structure prediction by ZEFSAII (Michael W. Deem and Ramdas Pophale) SiO2 
 PCOD9525661
Probable space group: I B A M
;
_chemical_formula_sum "Si O2"
_cell_formula_units_Z 120
_cell_length_a 12.751488
_cell_length_b 28.623881
_cell_length_c 20.157282
_cell_angle_alpha 90.000000
_cell_angle_beta 90.000000
_cell_angle_gamma 90.000000
_cell_volume 7357.348972
_symmetry_space_group_name_H-M "I B A M"
_symmetry_group_IT_number 72
_symmetry_cell_setting 'orthorhombic'
loop_
_space_group_symop_operation_xyz
x,y,z
-x,-y,z
x,-y,1/2-z
-x,y,1/2-z
-x,-y,-z
x,y,-z
-x,y,1/2+z
x,-y,1/2+z
1/2+x,1/2+y,1/2+z
1/2-x,1/2-y,1/2+z
1/2+x,1/2-y,-z
1/2-x,1/2+y,-z
1/2-x,1/2-y,1/2-z
1/2+x,1/2+y,1/2-z
1/2-x,1/2+y,z
1/2+x,1/2-y,z
loop_
_atom_site_type_symbol
_atom_site_label
_atom_site_fract_x
_atom_site_fract_y
_atom_site_fract_z
Si Si1 0.767630 0.679215 0.421618
Si Si2 0.872583 0.503651 0.173314
Si Si3 0.648214 0.733703 0.838497
Si Si4 0.636332 0.813020 0.634085
Si Si5 0.883159 0.586709 0.924418
Si Si6 0.636053 0.920799 0.076286
Si Si7 0.500000 0.787815 0.250000
Si Si8 0.546265 0.282710 0.076604
O O1 0.785498 0.688062 0.500000
O O2 0.821461 0.720212 0.380464
O O3 0.814058 0.628886 0.405839
O O4 0.643303 0.683009 0.409861
O O5 0.837781 0.500000 0.250000
O O6 0.845875 0.550724 0.132394
O O7 0.834445 0.460549 0.128414
O O8 0.000000 0.500000 0.174310
O O9 0.751888 0.702523 0.835431
O O10 0.594902 0.753902 0.772402
O O11 0.553609 0.709141 0.877637
O O12 0.647187 0.860298 0.593054
O O13 0.548334 0.818311 0.691157
O O14 0.592805 0.769157 0.591534
O O15 0.010023 0.584305 0.923351
O O16 0.850640 0.574334 0.000000
O O17 0.665926 0.932484 0.000000
O O18 0.516277 0.285557 0.000000
#
# Coordination Sequence:
#
# PCOD9525661 Si02
#       8
#    16  16  16  16  16  16   8  16
#     4   9  17  28  45  68  89 116 154 189 228 277
#     4   9  18  30  44  64  91 121 153 190 233 282
#     4  10  19  31  45  64  93 126 155 191 233 274
#     4  10  20  31  46  66  93 126 157 191 233 275
#     4  10  19  30  46  70  96 121 152 190 236 287
#     4   9  16  28  45  64  91 124 155 191 232 275
#     4  10  20  32  44  62  91 126 167 196 222 272
#     4   9  17  29  45  67  93 120 153 190 226 273
#
# _framework density 16.310222
#
# number of rings (size 3 to 8) (size 9 to 14) (size 15 to 20)
#    0.000    2.533    0.000    3.200    0.000    7.467 
#    0.000    0.000    0.000    0.000    0.000    0.933 
#    0.000    5.333    0.000    0.000    0.000    0.000 
#
# Total GULP energy -334399.419346 kJ/mol
# GULP energy per Si atom -5573.323656 kJ/mol
# Density = 1.627310 g / cm^3
# Si number density = 16.310222 Si / 1000 Ang^3
#
#
#
# Elastic Constant Matrix: (Units=GPa)
#
#
# Indices 1 2 3 4 5 6 
#
# 1 35.9289 13.1777 18.0152 0.0000 0.0000 0.0000
# 2 13.1777 73.2093 38.8073 0.0000 0.0000 0.0000
# 3 18.0152 38.8073 74.9652 0.0000 0.0000 0.0000
# 4 0.0000 0.0000 0.0000 19.6910 0.0000 0.0000
# 5 0.0000 0.0000 0.0000 0.0000 10.2166 0.0000
# 6 0.0000 0.0000 0.0000 0.0000 0.0000 17.1157
#
#
#
# Elastic Compliance Matrix: (Units=1/GPa)
#
#
# Indices 1 2 3 4 5 6 
#
# 1 0.031928 -0.002315 -0.006474 0.000000 0.000000 0.000000
# 2 -0.002315 0.018993 -0.009276 0.000000 0.000000 0.000000
# 3 -0.006474 -0.009276 0.019697 0.000000 0.000000 0.000000
# 4 0.000000 0.000000 0.000000 0.050785 0.000000 0.000000
# 5 0.000000 0.000000 0.000000 0.000000 0.097880 0.000000
# 6 0.000000 0.000000 0.000000 0.000000 0.000000 0.058426
#
#
# Mechanical properties :
#
#
# Convention : Reuss Voigt Hill
#
# Bulk Modulus (GPa) = 28.99562 36.01154 32.50358
# Shear Modulus (GPa) = 15.36874 17.01155 16.19015
#
# Velocity S-wave (km/s) = 3.07298 3.23305 3.15403
# Velocity P-wave (km/s) = 5.51427 6.00532 5.76503
#
# Compressibility (1/GPa) = 0.03448797
#
# Stress axis : x y z
#
# Youngs Moduli (GPa) = 31.32032 52.65041 50.76849
#
# Poissons Ratio (x) = 0.12189 0.32869
# Poissons Ratio (y) = 0.07251 0.47092
# Poissons Ratio (z) = 0.20278 0.48838
#
# Static dielectric constant tensor:
#      x y z
#    x 1.543500 0.000000 0.000000 
#    y 0.000000 1.530210 0.000000 
#    z 0.000000 0.000000 1.590600 
# 
# From -- ./inp_files/37365.got.cif
#   From: 2010.05.17/outbox.cif.g08.bks.cpg/sg72_19_cif.got.tgz:37365.got - 2010.06.03 17:03:01.
