data_PCOD9525730
_publ_section_title
;
Structure prediction by ZEFSAII (Michael W. Deem and Ramdas Pophale) SiO2 
 PCOD9525730
Probable space group: I B A M
;
_chemical_formula_sum "Si O2"
_cell_formula_units_Z 128
_cell_length_a 17.798449
_cell_length_b 20.201894
_cell_length_c 20.730988
_cell_angle_alpha 90.000000
_cell_angle_beta 90.000000
_cell_angle_gamma 90.000000
_cell_volume 7454.083386
_symmetry_space_group_name_H-M "I B A M"
_symmetry_group_IT_number 72
_symmetry_cell_setting 'orthorhombic'
loop_
_space_group_symop_operation_xyz
x,y,z
-x,-y,z
x,-y,1/2-z
-x,y,1/2-z
-x,-y,-z
x,y,-z
-x,y,1/2+z
x,-y,1/2+z
1/2+x,1/2+y,1/2+z
1/2-x,1/2-y,1/2+z
1/2+x,1/2-y,-z
1/2-x,1/2+y,-z
1/2-x,1/2-y,1/2-z
1/2+x,1/2+y,1/2-z
1/2-x,1/2+y,z
1/2+x,1/2-y,z
loop_
_atom_site_type_symbol
_atom_site_label
_atom_site_fract_x
_atom_site_fract_y
_atom_site_fract_z
Si Si1 0.915426 0.884727 0.229712
Si Si2 0.806168 0.678744 0.184346
Si Si3 0.167657 0.118751 0.365005
Si Si4 0.924658 0.235811 0.628018
Si Si5 0.209987 0.684783 0.832356
Si Si6 0.406364 0.747192 0.423645
Si Si7 0.088655 0.983021 0.381212
Si Si8 0.677560 0.635035 0.431379
O O1 0.865500 0.872150 0.292280
O O2 0.919885 0.819269 0.185205
O O3 0.894766 0.948795 0.187922
O O4 0.000000 0.898018 0.250000
O O5 0.756753 0.626637 0.144197
O O6 0.886343 0.697890 0.154752
O O7 0.810572 0.662454 0.260262
O O8 0.757245 0.746865 0.177181
O O9 0.132907 0.176375 0.409071
O O10 0.136705 0.048944 0.388755
O O11 0.870697 0.202213 0.575112
O O12 0.008228 0.243227 0.601738
O O13 0.140262 0.702490 0.878337
O O14 0.264740 0.636085 0.871806
O O15 0.403386 0.761558 0.500000
O O16 0.118735 0.925091 0.427141
O O17 0.000000 0.000000 0.387179
O O18 0.717648 0.633801 0.500000
#
# Coordination Sequence:
#
# PCOD9525730 Si02
#       8
#    16  16  16  16  16  16  16  16
#     4  11  18  29  48  71  97 130 166 209 243 286
#     4   9  18  31  50  71  98 123 158 212 258 298
#     4  11  20  32  48  72 101 133 170 203 245 292
#     4  10  19  31  48  73  95 126 163 205 258 291
#     4   9  18  33  49  71  92 125 166 203 252 295
#     4  11  21  32  49  71  99 131 166 203 242 300
#     4  11  21  30  46  73 100 135 171 202 239 282
#     4  10  20  34  47  64 100 139 169 198 233 287
#
# _framework density 17.171796000000001
#
# number of rings (size 3 to 8) (size 9 to 14) (size 15 to 20)
#    0.000    1.750    2.500    5.625    0.000    0.750 
#    0.000    0.625    0.000    0.000    0.000    0.875 
#    0.000    4.000    0.000    0.000    0.000    0.000 
#
# Total GULP energy -356804.877902 kJ/mol
# GULP energy per Si atom -5575.076217 kJ/mol
# Density = 1.713271 g / cm^3
# Si number density = 17.171796 Si / 1000 Ang^3
#
#
#
# Elastic Constant Matrix: (Units=GPa)
#
#
# Indices 1 2 3 4 5 6 
#
# 1 84.1547 34.2214 35.8088 0.0000 0.0000 0.0000
# 2 34.2214 47.7329 13.9770 0.0000 0.0000 0.0000
# 3 35.8088 13.9770 88.4043 0.0000 0.0000 0.0000
# 4 0.0000 0.0000 0.0000 8.3226 0.0000 0.0000
# 5 0.0000 0.0000 0.0000 0.0000 13.7397 0.0000
# 6 0.0000 0.0000 0.0000 0.0000 0.0000 26.8054
#
#
#
# Elastic Compliance Matrix: (Units=1/GPa)
#
#
# Indices 1 2 3 4 5 6 
#
# 1 0.019330 -0.012127 -0.005913 0.000000 0.000000 0.000000
# 2 -0.012127 0.029575 0.000236 0.000000 0.000000 0.000000
# 3 -0.005913 0.000236 0.013669 0.000000 0.000000 0.000000
# 4 0.000000 0.000000 0.000000 0.120155 0.000000 0.000000
# 5 0.000000 0.000000 0.000000 0.000000 0.072782 0.000000
# 6 0.000000 0.000000 0.000000 0.000000 0.000000 0.037306
#
#
# Mechanical properties :
#
#
# Convention : Reuss Voigt Hill
#
# Bulk Modulus (GPa) = 37.08137 43.14515 40.11326
# Shear Modulus (GPa) = 14.81862 18.85919 16.83890
#
# Velocity S-wave (km/s) = 2.94081 3.31760 3.13487
# Velocity P-wave (km/s) = 5.75955 6.31312 6.04267
#
# Compressibility (1/GPa) = 0.02696772
#
# Stress axis : x y z
#
# Youngs Moduli (GPa) = 51.73246 33.81221 73.15706
#
# Poissons Ratio (x) = 0.41005 0.43254
# Poissons Ratio (y) = 0.62737 -0.01729
# Poissons Ratio (z) = 0.30587 -0.00799
#
# Static dielectric constant tensor:
#      x y z
#    x 1.607200 0.000000 0.000000 
#    y 0.000000 1.580310 0.000000 
#    z 0.000000 0.000000 1.651420 
# 
# From -- ./inp_files/39358.got.cif
#   From: 2010.05.17/outbox.cif.g08.bks.cpg/sg72_20_cif.got.tgz:39358.got - 2010.06.03 17:03:01.
