data_PCOD9525198
_publ_section_title
;
Structure prediction by ZEFSAII (Michael W. Deem and Ramdas Pophale) SiO2 
 PCOD9525198
Probable space group: I B A M
;
_chemical_formula_sum "Si O2"
_cell_formula_units_Z 112
_cell_length_a 21.419005
_cell_length_b 9.283379
_cell_length_c 23.759868
_cell_angle_alpha 90.000000
_cell_angle_beta 90.000000
_cell_angle_gamma 90.000000
_cell_volume 4724.429764
_symmetry_space_group_name_H-M "I B A M"
_symmetry_group_IT_number 72
_symmetry_cell_setting 'orthorhombic'
loop_
_space_group_symop_operation_xyz
x,y,z
-x,-y,z
x,-y,1/2-z
-x,y,1/2-z
-x,-y,-z
x,y,-z
-x,y,1/2+z
x,-y,1/2+z
1/2+x,1/2+y,1/2+z
1/2-x,1/2-y,1/2+z
1/2+x,1/2-y,-z
1/2-x,1/2+y,-z
1/2-x,1/2-y,1/2-z
1/2+x,1/2+y,1/2-z
1/2-x,1/2+y,z
1/2+x,1/2-y,z
loop_
_atom_site_type_symbol
_atom_site_label
_atom_site_fract_x
_atom_site_fract_y
_atom_site_fract_z
Si Si1 0.420381 0.665978 0.730219
Si Si2 0.457380 0.723191 0.154133
Si Si3 0.171498 0.585615 0.936336
Si Si4 0.598772 0.501683 0.935772
Si Si5 0.960468 0.319962 0.934650
Si Si6 0.765610 0.129107 0.907712
Si Si7 0.787110 0.139058 0.213121
O O1 0.425242 0.500000 0.750000
O O2 0.416798 0.753706 0.789655
O O3 0.478302 0.688534 0.688642
O O4 0.356314 0.693096 0.697659
O O5 0.424078 0.600853 0.115345
O O6 0.481408 0.834807 0.107278
O O7 0.101692 0.598085 0.913719
O O8 0.219481 0.701922 0.911137
O O9 0.204436 0.431594 0.937370
O O10 0.163686 0.639606 0.000000
O O11 0.558913 0.649630 0.933333
O O12 0.671336 0.547697 0.927800
O O13 0.590934 0.442459 0.000000
O O14 0.974575 0.353492 0.000000
O O15 0.752775 0.095994 0.843023
O O16 0.750000 0.250000 0.250000
O O17 0.797230 0.000000 0.250000
#
# Coordination Sequence:
#
# PCOD9525198 Si02
#       7
#    16  16  16  16  16  16  16
#     4  10  19  30  48  73 105 140 178 228 279 335
#     4  11  18  28  46  72 106 143 179 222 284 339
#     4  10  20  35  55  82 115 150 189 232 283 343
#     4  10  18  28  46  74 108 143 182 228 277 334
#     4   9  17  28  45  72 106 141 179 226 277 333
#     4  11  21  36  56  81 115 152 188 236 289 340
#     4  11  23  39  57  82 112 144 186 233 282 338
#
# _framework density 23.706565000000001
#
# number of rings (size 3 to 8) (size 9 to 14) (size 15 to 20)
#    0.000    1.714    0.000    9.857    0.000    1.143 
#    0.000    0.000    0.000    0.000    0.000   12.000 
#    0.000   11.429    0.000    0.000    0.000    0.571 
#
# Total GULP energy -312669.786685 kJ/mol
# GULP energy per Si atom -5583.389048 kJ/mol
# Density = 2.365261 g / cm^3
# Si number density = 23.706565 Si / 1000 Ang^3
#
#
#
# Elastic Constant Matrix: (Units=GPa)
#
#
# Indices 1 2 3 4 5 6 
#
# 1 45.9023 28.8278 7.8546 0.0000 0.0000 0.0000
# 2 28.8278 50.4206 12.1827 0.0000 0.0000 0.0000
# 3 7.8546 12.1827 141.0755 0.0000 0.0000 0.0000
# 4 0.0000 0.0000 0.0000 1.5856 0.0000 0.0000
# 5 0.0000 0.0000 0.0000 0.0000 33.2249 0.0000
# 6 0.0000 0.0000 0.0000 0.0000 0.0000 26.3787
#
#
#
# Elastic Compliance Matrix: (Units=1/GPa)
#
#
# Indices 1 2 3 4 5 6 
#
# 1 0.033997 -0.019385 -0.000219 0.000000 0.000000 0.000000
# 2 -0.019385 0.031309 -0.001624 0.000000 0.000000 0.000000
# 3 -0.000219 -0.001624 0.007241 0.000000 0.000000 0.000000
# 4 0.000000 0.000000 0.000000 0.630673 0.000000 0.000000
# 5 0.000000 0.000000 0.000000 0.000000 0.030098 0.000000
# 6 0.000000 0.000000 0.000000 0.000000 0.000000 0.037909
#
#
# Mechanical properties :
#
#
# Convention : Reuss Voigt Hill
#
# Bulk Modulus (GPa) = 33.23299 37.23651 35.23475
# Shear Modulus (GPa) = 6.07007 24.80672 15.43839
#
# Velocity S-wave (km/s) = 1.60189 3.23833 2.55469
# Velocity P-wave (km/s) = 4.17975 5.45195 4.85768
#
# Compressibility (1/GPa) = 0.03009058
#
# Stress axis : x y z
#
# Youngs Moduli (GPa) = 29.41430 31.93982 138.10497
#
# Poissons Ratio (x) = 0.61915 0.03022
# Poissons Ratio (y) = 0.57019 0.22434
# Poissons Ratio (z) = 0.00644 0.05188
#
# Static dielectric constant tensor:
#      x y z
#    x 1.925900 0.000000 0.000000 
#    y 0.000000 1.920110 0.000000 
#    z 0.000000 0.000000 1.947340 
# 
# From -- ./inp_files/43543.got.cif
#   From: 2010.05.17/outbox.cif.g08.bks.cpg/sg72_22_cif.got.tgz:43543.got - 2010.06.03 17:03:01.
