data_PCOD9525584
_publ_section_title
;
Structure prediction by ZEFSAII (Michael W. Deem and Ramdas Pophale) SiO2 
 PCOD9525584
Probable space group: I B A M
;
_chemical_formula_sum "Si O2"
_cell_formula_units_Z 88
_cell_length_a 19.155145
_cell_length_b 12.778100
_cell_length_c 18.793091
_cell_angle_alpha 90.000000
_cell_angle_beta 90.000000
_cell_angle_gamma 90.000000
_cell_volume 4599.916446
_symmetry_space_group_name_H-M "I B A M"
_symmetry_group_IT_number 72
_symmetry_cell_setting 'orthorhombic'
loop_
_space_group_symop_operation_xyz
x,y,z
-x,-y,z
x,-y,1/2-z
-x,y,1/2-z
-x,-y,-z
x,y,-z
-x,y,1/2+z
x,-y,1/2+z
1/2+x,1/2+y,1/2+z
1/2-x,1/2-y,1/2+z
1/2+x,1/2-y,-z
1/2-x,1/2+y,-z
1/2-x,1/2-y,1/2-z
1/2+x,1/2+y,1/2-z
1/2-x,1/2+y,z
1/2+x,1/2-y,z
loop_
_atom_site_type_symbol
_atom_site_label
_atom_site_fract_x
_atom_site_fract_y
_atom_site_fract_z
Si Si1 0.251779 0.157910 0.139734
Si Si2 0.179861 0.500000 0.750000
Si Si3 0.531971 0.689694 0.582872
Si Si4 0.621624 0.700416 0.855289
Si Si5 0.126975 0.707687 0.698440
Si Si6 0.640274 0.510780 0.580097
O O1 0.320990 0.218361 0.114487
O O2 0.201542 0.244488 0.175103
O O3 0.203019 0.094264 0.085838
O O4 0.275431 0.072878 0.197944
O O5 0.133599 0.584059 0.708067
O O6 0.542415 0.716264 0.500000
O O7 0.451156 0.695448 0.603035
O O8 0.572730 0.763379 0.637519
O O9 0.569363 0.576522 0.593176
O O10 0.609559 0.736886 0.773868
O O11 0.649986 0.582431 0.864011
O O12 0.637784 0.467296 0.500000
#
# Coordination Sequence:
#
# PCOD9525584 Si02
#       6
#    16   8  16  16  16  16
#     4  10  20  35  57  85 113 144 187 233 280 336
#     4  10  18  36  59  82 111 144 186 238 284 332
#     4  10  22  39  57  82 115 150 189 234 286 339
#     4  11  20  35  60  86 112 147 192 237 281 335
#     4  10  21  37  60  86 114 148 188 238 287 335
#     4  10  21  36  55  82 119 156 187 230 286 337
#
# _framework density 19.130782
#
# number of rings (size 3 to 8) (size 9 to 14) (size 15 to 20)
#    0.000    1.818    0.000    6.000    0.000    5.091 
#    0.000   15.455    0.000    6.545    0.000    0.000 
#    0.000    0.000    0.000    0.000    0.000    0.000 
#
# Total GULP energy -245536.284045 kJ/mol
# GULP energy per Si atom -5580.370092 kJ/mol
# Density = 1.908724 g / cm^3
# Si number density = 19.130782 Si / 1000 Ang^3
#
#
#
# Elastic Constant Matrix: (Units=GPa)
#
#
# Indices 1 2 3 4 5 6 
#
# 1 118.6090 53.1308 35.3807 0.0000 0.0000 0.0000
# 2 53.1308 129.0131 43.0012 0.0000 0.0000 0.0000
# 3 35.3807 43.0012 58.4001 0.0000 0.0000 0.0000
# 4 0.0000 0.0000 0.0000 13.3546 0.0000 0.0000
# 5 0.0000 0.0000 0.0000 0.0000 11.5758 0.0000
# 6 0.0000 0.0000 0.0000 0.0000 0.0000 12.1751
#
#
#
# Elastic Compliance Matrix: (Units=1/GPa)
#
#
# Indices 1 2 3 4 5 6 
#
# 1 0.011156 -0.003103 -0.004474 0.000000 0.000000 0.000000
# 2 -0.003103 0.011135 -0.006319 0.000000 0.000000 0.000000
# 3 -0.004474 -0.006319 0.024486 0.000000 0.000000 0.000000
# 4 0.000000 0.000000 0.000000 0.074880 0.000000 0.000000
# 5 0.000000 0.000000 0.000000 0.000000 0.086387 0.000000
# 6 0.000000 0.000000 0.000000 0.000000 0.000000 0.082135
#
#
# Mechanical properties :
#
#
# Convention : Reuss Voigt Hill
#
# Bulk Modulus (GPa) = 52.67135 63.22750 57.94942
# Shear Modulus (GPa) = 15.41781 19.05505 17.23643
#
# Velocity S-wave (km/s) = 2.84195 3.15944 3.00489
# Velocity P-wave (km/s) = 6.19362 6.81405 6.51123
#
# Compressibility (1/GPa) = 0.01898565
#
# Stress axis : x y z
#
# Youngs Moduli (GPa) = 89.64174 89.80430 40.83889
#
# Poissons Ratio (x) = 0.27867 0.18269
# Poissons Ratio (y) = 0.27816 0.25807
# Poissons Ratio (z) = 0.40102 0.56749
#
# Static dielectric constant tensor:
#      x y z
#    x 1.690220 0.000000 0.000000 
#    y 0.000000 1.664370 0.000000 
#    z 0.000000 0.000000 1.655170 
# 
# From -- ./inp_files/38863.got.cif
#   From: 2010.05.17/outbox.cif.g08.bks.cpg/sg72_20_cif.got.tgz:38863.got - 2010.06.03 17:03:01.
