data_PCOD9525463
_publ_section_title
;
Structure prediction by ZEFSAII (Michael W. Deem and Ramdas Pophale) SiO2 
 PCOD9525463
Probable space group: I B A M
;
_chemical_formula_sum "Si O2"
_cell_formula_units_Z 112
_cell_length_a 16.304159
_cell_length_b 16.125521
_cell_length_c 24.436742
_cell_angle_alpha 90.000000
_cell_angle_beta 90.000000
_cell_angle_gamma 90.000000
_cell_volume 6424.738575
_symmetry_space_group_name_H-M "I B A M"
_symmetry_group_IT_number 72
_symmetry_cell_setting 'orthorhombic'
loop_
_space_group_symop_operation_xyz
x,y,z
-x,-y,z
x,-y,1/2-z
-x,y,1/2-z
-x,-y,-z
x,y,-z
-x,y,1/2+z
x,-y,1/2+z
1/2+x,1/2+y,1/2+z
1/2-x,1/2-y,1/2+z
1/2+x,1/2-y,-z
1/2-x,1/2+y,-z
1/2-x,1/2-y,1/2-z
1/2+x,1/2+y,1/2-z
1/2-x,1/2+y,z
1/2+x,1/2-y,z
loop_
_atom_site_type_symbol
_atom_site_label
_atom_site_fract_x
_atom_site_fract_y
_atom_site_fract_z
Si Si1 0.091666 0.526597 0.937210
Si Si2 0.121047 0.339364 0.651896
Si Si3 0.809007 0.156645 0.145698
Si Si4 0.938945 0.738260 0.150891
Si Si5 0.485547 0.596478 0.684582
Si Si6 0.177021 0.651060 0.437802
Si Si7 0.187803 0.675013 0.264308
O O1 0.127906 0.593758 0.895864
O O2 0.140758 0.441254 0.937033
O O3 0.000000 0.500000 0.920029
O O4 0.087310 0.558453 0.000000
O O5 0.173429 0.255472 0.644387
O O6 0.154508 0.370733 0.710639
O O7 0.026163 0.309227 0.651892
O O8 0.893568 0.116969 0.165090
O O9 0.767613 0.141976 0.087369
O O10 0.740220 0.127996 0.189743
O O11 0.881060 0.707837 0.101081
O O12 0.890229 0.714195 0.205645
O O13 0.957686 0.836304 0.153599
O O14 0.500000 0.500000 0.673070
O O15 0.500000 0.609461 0.750000
O O16 0.176975 0.681947 0.500000
O O17 0.250000 0.750000 0.250000
#
# Coordination Sequence:
#
# PCOD9525463 Si02
#       7
#    16  16  16  16  16  16  16
#     4  10  20  36  56  81 110 147 191 233 279 335
#     4  10  18  32  57  79 108 145 183 225 278 339
#     4   9  20  37  54  83 113 146 186 233 281 339
#     4  10  18  33  58  79 107 147 190 227 274 342
#     4  10  20  37  59  84 114 153 192 229 279 343
#     4  10  21  39  58  79 113 149 188 238 290 336
#     4   9  17  31  52  79 111 143 176 223 281 331
#
# _framework density 17.432615999999999
#
# number of rings (size 3 to 8) (size 9 to 14) (size 15 to 20)
#    0.000    2.286    1.429    3.000    0.000    0.571 
#   12.857    4.286    0.000    0.857    0.000    0.000 
#    0.000    0.000    0.000    0.000    0.000    0.000 
#
# Total GULP energy -311811.580517 kJ/mol
# GULP energy per Si atom -5568.063938 kJ/mol
# Density = 1.739294 g / cm^3
# Si number density = 17.432616 Si / 1000 Ang^3
#
#
#
# Elastic Constant Matrix: (Units=GPa)
#
#
# Indices 1 2 3 4 5 6 
#
# 1 72.1516 22.1203 37.9182 0.0000 0.0000 0.0000
# 2 22.1203 82.1585 47.2926 0.0000 0.0000 0.0000
# 3 37.9182 47.2926 113.4244 0.0000 0.0000 0.0000
# 4 0.0000 0.0000 0.0000 21.9363 0.0000 0.0000
# 5 0.0000 0.0000 0.0000 0.0000 6.5531 0.0000
# 6 0.0000 0.0000 0.0000 0.0000 0.0000 11.4088
#
#
#
# Elastic Compliance Matrix: (Units=1/GPa)
#
#
# Indices 1 2 3 4 5 6 
#
# 1 0.016996 -0.001718 -0.004966 0.000000 0.000000 0.000000
# 2 -0.001718 0.016189 -0.006176 0.000000 0.000000 0.000000
# 3 -0.004966 -0.006176 0.013052 0.000000 0.000000 0.000000
# 4 0.000000 0.000000 0.000000 0.045587 0.000000 0.000000
# 5 0.000000 0.000000 0.000000 0.000000 0.152600 0.000000
# 6 0.000000 0.000000 0.000000 0.000000 0.000000 0.087652
#
#
# Mechanical properties :
#
#
# Convention : Reuss Voigt Hill
#
# Bulk Modulus (GPa) = 48.73710 53.59963 51.16836
# Shear Modulus (GPa) = 13.71245 18.67319 16.19282
#
# Velocity S-wave (km/s) = 2.80768 3.27641 3.05106
# Velocity P-wave (km/s) = 6.20716 6.71764 6.46744
#
# Compressibility (1/GPa) = 0.02051825
#
# Stress axis : x y z
#
# Youngs Moduli (GPa) = 58.83773 61.77025 76.61954
#
# Poissons Ratio (x) = 0.10610 0.38046
# Poissons Ratio (y) = 0.10106 0.47319
# Poissons Ratio (z) = 0.29217 0.38148
#
# Static dielectric constant tensor:
#      x y z
#    x 1.627900 0.000000 0.000000 
#    y 0.000000 1.585520 0.000000 
#    z 0.000000 0.000000 1.643220 
# 
# From -- ./inp_files/44373.got.cif
#   From: 2010.05.17/outbox.cif.g08.bks.cpg/sg72_23_cif.got.tgz:44373.got - 2010.06.03 17:03:01.
