data_PCOD9525819
_publ_section_title
;
Structure prediction by ZEFSAII (Michael W. Deem and Ramdas Pophale) SiO2 
 PCOD9525819
Probable space group: I B A M
;
_chemical_formula_sum "Si O2"
_cell_formula_units_Z 128
_cell_length_a 18.448882
_cell_length_b 24.343579
_cell_length_c 17.730706
_cell_angle_alpha 90.000000
_cell_angle_beta 90.000000
_cell_angle_gamma 90.000000
_cell_volume 7963.069578
_symmetry_space_group_name_H-M "I B A M"
_symmetry_group_IT_number 72
_symmetry_cell_setting 'orthorhombic'
loop_
_space_group_symop_operation_xyz
x,y,z
-x,-y,z
x,-y,1/2-z
-x,y,1/2-z
-x,-y,-z
x,y,-z
-x,y,1/2+z
x,-y,1/2+z
1/2+x,1/2+y,1/2+z
1/2-x,1/2-y,1/2+z
1/2+x,1/2-y,-z
1/2-x,1/2+y,-z
1/2-x,1/2-y,1/2-z
1/2+x,1/2+y,1/2-z
1/2-x,1/2+y,z
1/2+x,1/2-y,z
loop_
_atom_site_type_symbol
_atom_site_label
_atom_site_fract_x
_atom_site_fract_y
_atom_site_fract_z
Si Si1 0.701831 0.750200 0.826985
Si Si2 0.511601 0.110326 0.341241
Si Si3 0.834744 0.559396 0.659990
Si Si4 0.401731 0.281394 0.409911
Si Si5 0.801040 0.323053 0.410077
Si Si6 0.468519 0.234431 0.166931
Si Si7 0.769922 0.146486 0.590846
Si Si8 0.643212 0.065066 0.841339
O O1 0.750000 0.750000 0.750000
O O2 0.726769 0.697510 0.873854
O O3 0.615736 0.752884 0.821242
O O4 0.723264 0.803070 0.876526
O O5 0.500000 0.112299 0.250000
O O6 0.587103 0.083087 0.364898
O O7 0.516965 0.173588 0.367492
O O8 0.441230 0.075055 0.362925
O O9 0.766963 0.593311 0.627786
O O10 0.831689 0.495731 0.636901
O O11 0.841552 0.566352 0.751016
O O12 0.404052 0.280940 0.500000
O O13 0.358973 0.224948 0.386918
O O14 0.482280 0.277595 0.377979
O O15 0.351588 0.333545 0.387950
O O16 0.798742 0.323475 0.500000
O O17 0.819580 0.382371 0.378198
O O18 0.500000 0.232633 0.250000
O O19 0.765614 0.143603 0.500000
#
# Coordination Sequence:
#
# PCOD9525819 Si02
#       8
#    16  16  16  16  16  16  16  16
#     4  11  21  33  53  74 101 132 169 215 256 308
#     4   9  17  29  46  71 101 133 176 212 245 294
#     4  10  19  32  50  73  98 137 177 214 252 297
#     4   9  19  33  49  69  99 134 169 209 256 305
#     4  10  20  34  49  70 100 135 168 208 256 301
#     4  11  19  30  51  76  98 133 170 207 256 305
#     4  10  20  34  49  71 101 134 171 214 257 303
#     4  10  19  32  51  71 100 135 177 215 251 293
#
# _framework density 16.074204000000002
#
# number of rings (size 3 to 8) (size 9 to 14) (size 15 to 20)
#    0.000    2.000    2.500    3.750    1.750    3.000 
#    0.000    0.625    0.000    1.500    0.000    0.875 
#    0.000    6.000    0.000    0.125    0.000    0.000 
#
# Total GULP energy -356372.464543 kJ/mol
# GULP energy per Si atom -5568.319758 kJ/mol
# Density = 1.603762 g / cm^3
# Si number density = 16.074204 Si / 1000 Ang^3
#
#
#
# Elastic Constant Matrix: (Units=GPa)
#
#
# Indices 1 2 3 4 5 6 
#
# 1 107.5465 56.1001 24.6463 0.0000 0.0000 0.0000
# 2 56.1001 107.8847 26.5099 0.0000 0.0000 0.0000
# 3 24.6463 26.5099 26.6580 0.0001 0.0000 0.0000
# 4 0.0000 0.0000 0.0001 -11.6356 0.0000 0.0000
# 5 0.0000 0.0000 0.0000 0.0000 17.1761 0.0000
# 6 0.0000 0.0000 0.0000 0.0000 0.0000 23.7360
#
#
#
# Elastic Compliance Matrix: (Units=1/GPa)
#
#
# Indices 1 2 3 4 5 6 
#
# 1 0.013790 -0.005344 -0.007435 0.000000 0.000000 0.000000
# 2 -0.005344 0.014337 -0.009317 0.000000 0.000000 0.000000
# 3 -0.007435 -0.009317 0.053652 0.000001 0.000000 0.000000
# 4 0.000000 0.000000 0.000001 -0.085943 0.000000 0.000000
# 5 0.000000 0.000000 0.000000 0.000000 0.058220 0.000000
# 6 0.000000 0.000000 0.000000 0.000000 0.000000 0.042130
#
#
# Mechanical properties :
#
#
# Convention : Reuss Voigt Hill
#
# Bulk Modulus (GPa) = 26.60514 50.73356 38.66935
# Shear Modulus (GPa) = 32.69957 14.84416 23.77186
#
# Velocity S-wave (km/s) = 4.51520 3.04217 3.84980
# Velocity P-wave (km/s) = 6.61590 6.63102 6.62346
#
# Compressibility (1/GPa) = 0.03758673
#
# Stress axis : x y z
#
# Youngs Moduli (GPa) = 72.51828 69.74792 18.63867
#
# Poissons Ratio (x) = 0.37271 0.13858
# Poissons Ratio (y) = 0.38751 0.17366
# Poissons Ratio (z) = 0.53918 0.64986
#
# Static dielectric constant tensor:
#      x y z
#    x 1.569450 0.000000 0.000000 
#    y 0.000000 1.546720 0.000000 
#    z 0.000000 0.000000 1.560310 
# 
# From -- ./inp_files/32083.got.cif
#   From: 2010.05.17/outbox.cif.g08.bks.cpg/sg72_17_cif.got.tgz:32083.got - 2010.06.03 17:03:01.
