data_PCOD9525148
_publ_section_title
;
Structure prediction by ZEFSAII (Michael W. Deem and Ramdas Pophale) SiO2 
 PCOD9525148
Probable space group: I B A M
;
_chemical_formula_sum "Si O2"
_cell_formula_units_Z 80
_cell_length_a 23.744131
_cell_length_b 12.877475
_cell_length_c 14.543446
_cell_angle_alpha 90.000000
_cell_angle_beta 90.000000
_cell_angle_gamma 90.000000
_cell_volume 4446.868816
_symmetry_space_group_name_H-M "I B A M"
_symmetry_group_IT_number 72
_symmetry_cell_setting 'orthorhombic'
loop_
_space_group_symop_operation_xyz
x,y,z
-x,-y,z
x,-y,1/2-z
-x,y,1/2-z
-x,-y,-z
x,y,-z
-x,y,1/2+z
x,-y,1/2+z
1/2+x,1/2+y,1/2+z
1/2-x,1/2-y,1/2+z
1/2+x,1/2-y,-z
1/2-x,1/2+y,-z
1/2-x,1/2-y,1/2-z
1/2+x,1/2+y,1/2-z
1/2-x,1/2+y,z
1/2+x,1/2-y,z
loop_
_atom_site_type_symbol
_atom_site_label
_atom_site_fract_x
_atom_site_fract_y
_atom_site_fract_z
Si Si1 0.359324 0.784605 0.894176
Si Si2 0.937980 0.466268 0.612056
Si Si3 0.342021 0.872979 0.389804
Si Si4 0.743910 0.952791 0.605929
Si Si5 0.308175 0.688759 0.269338
O O1 0.307509 0.868399 0.892905
O O2 0.342518 0.692704 0.825510
O O3 0.412929 0.853602 0.862593
O O4 0.366225 0.751829 0.000000
O O5 0.937179 0.465433 0.500000
O O6 0.893461 0.554247 0.640585
O O7 0.000000 0.500000 0.641542
O O8 0.343949 0.861145 0.500000
O O9 0.341025 0.764516 0.339215
O O10 0.285304 0.938590 0.368725
O O11 0.763410 0.957654 0.500000
O O12 0.790776 0.913613 0.675834
O O13 0.250000 0.750000 0.250000
#
# Coordination Sequence:
#
# PCOD9525148 Si02
#       5
#    16  16  16  16  16
#     4   8  15  26  37  53  78 106 139 174 202 235
#     4   8  14  26  43  60  82 114 145 173 206 246
#     4   9  17  29  44  63  87 113 143 175 209 252
#     4   8  15  27  41  58  80 106 137 174 209 247
#     4  10  18  26  41  58  78 111 147 175 209 251
#
# _framework density 17.990186000000001
#
# number of rings (size 3 to 8) (size 9 to 14) (size 15 to 20)
#    0.000    3.400    0.000    3.000    0.000    8.000 
#    0.000    2.000    0.000    1.200    0.000    0.000 
#    0.000    0.000    0.000   50.400    0.000  523.600 
#
# Total GULP energy -222989.617291 kJ/mol
# GULP energy per Si atom -5574.740432 kJ/mol
# Density = 1.794924 g / cm^3
# Si number density = 17.990186 Si / 1000 Ang^3
#
#
#
# Elastic Constant Matrix: (Units=GPa)
#
#
# Indices 1 2 3 4 5 6 
#
# 1 77.7628 26.6402 41.4591 0.0000 0.0000 0.0000
# 2 26.6402 34.6392 42.2006 0.0000 0.0000 0.0000
# 3 41.4591 42.2006 90.4428 0.0000 0.0000 0.0000
# 4 0.0000 0.0000 0.0000 23.1991 0.0000 0.0000
# 5 0.0000 0.0000 0.0000 0.0000 6.0894 0.0000
# 6 0.0000 0.0000 0.0000 0.0000 0.0000 21.0270
#
#
#
# Elastic Compliance Matrix: (Units=1/GPa)
#
#
# Indices 1 2 3 4 5 6 
#
# 1 0.018117 -0.008842 -0.004179 0.000000 0.000000 0.000000
# 2 -0.008842 0.071212 -0.029174 0.000000 0.000000 0.000000
# 3 -0.004179 -0.029174 0.026585 0.000000 0.000000 0.000000
# 4 0.000000 0.000000 0.000000 0.043105 0.000000 0.000000
# 5 0.000000 0.000000 0.000000 0.000000 0.164221 0.000000
# 6 0.000000 0.000000 0.000000 0.000000 0.000000 0.047558
#
#
# Mechanical properties :
#
#
# Convention : Reuss Voigt Hill
#
# Bulk Modulus (GPa) = 31.72262 47.04941 39.38601
# Shear Modulus (GPa) = 10.73661 16.23275 13.48468
#
# Velocity S-wave (km/s) = 2.44561 3.00711 2.74078
# Velocity P-wave (km/s) = 5.06421 6.18599 5.65300
#
# Compressibility (1/GPa) = 0.03152325
#
# Stress axis : x y z
#
# Youngs Moduli (GPa) = 55.19740 14.04261 37.61486
#
# Poissons Ratio (x) = 0.12416 0.15720
# Poissons Ratio (y) = 0.48804 1.09739
# Poissons Ratio (z) = 0.23068 0.40968
#
# Static dielectric constant tensor:
#      x y z
#    x 1.617520 0.000000 0.000000 
#    y 0.000000 1.688840 0.000000 
#    z 0.000000 0.000000 1.686520 
# 
# From -- ./inp_files/20186.got.cif
#   From: 2010.05.17/outbox.cif.g08.bks.cpg/sg72_11_cif.got.tgz:20186.got - 2010.06.03 17:03:01.
