data_PCOD9525361
_publ_section_title
;
Structure prediction by ZEFSAII (Michael W. Deem and Ramdas Pophale) SiO2 
 PCOD9525361
Probable space group: I B A M
;
_chemical_formula_sum "Si O2"
_cell_formula_units_Z 112
_cell_length_a 12.117461
_cell_length_b 30.811145
_cell_length_c 13.275344
_cell_angle_alpha 90.000000
_cell_angle_beta 90.000000
_cell_angle_gamma 90.000000
_cell_volume 4956.387489
_symmetry_space_group_name_H-M "I B A M"
_symmetry_group_IT_number 72
_symmetry_cell_setting 'orthorhombic'
loop_
_space_group_symop_operation_xyz
x,y,z
-x,-y,z
x,-y,1/2-z
-x,y,1/2-z
-x,-y,-z
x,y,-z
-x,y,1/2+z
x,-y,1/2+z
1/2+x,1/2+y,1/2+z
1/2-x,1/2-y,1/2+z
1/2+x,1/2-y,-z
1/2-x,1/2+y,-z
1/2-x,1/2-y,1/2-z
1/2+x,1/2+y,1/2-z
1/2-x,1/2+y,z
1/2+x,1/2-y,z
loop_
_atom_site_type_symbol
_atom_site_label
_atom_site_fract_x
_atom_site_fract_y
_atom_site_fract_z
Si Si1 0.752747 0.190107 0.772506
Si Si2 0.379383 0.883930 0.816609
Si Si3 0.949466 0.309403 0.115168
Si Si4 0.675577 0.065364 0.617556
Si Si5 0.878272 0.051850 0.740332
Si Si6 0.129750 0.236961 0.884085
Si Si7 0.686488 0.966960 0.388008
O O1 0.735852 0.143489 0.823049
O O2 0.652706 0.190938 0.690303
O O3 0.856973 0.200926 0.702706
O O4 0.724539 0.227706 0.852747
O O5 0.463439 0.846769 0.854075
O O6 0.377829 0.903616 0.702223
O O7 0.398192 0.927288 0.881953
O O8 0.017081 0.264386 0.122455
O O9 0.914790 0.315776 0.000000
O O10 0.654488 0.074789 0.500000
O O11 0.808049 0.065733 0.642180
O O12 0.646136 0.014828 0.643106
O O13 0.786637 0.054636 0.827416
O O14 0.000000 0.071576 0.750000
O O15 0.893031 0.000000 0.750000
O O16 0.143868 0.222651 0.000000
O O17 0.725755 0.974611 0.500000
#
# Coordination Sequence:
#
# PCOD9525361 Si02
#       7
#    16  16  16  16  16  16  16
#     4  10  20  34  55  83 108 135 174 219 265 315
#     4  10  18  31  50  74 102 134 172 218 263 308
#     4  10  20  35  57  84 109 135 174 220 264 318
#     4   9  18  30  46  70 101 139 182 225 272 324
#     4   8  14  25  42  65  91 120 161 216 271 320
#     4   9  18  33  53  77 106 136 165 205 260 318
#     4   9  17  30  48  70  97 136 183 226 272 322
#
# _framework density 22.597104000000002
#
# number of rings (size 3 to 8) (size 9 to 14) (size 15 to 20)
#    0.000    2.714    0.000    3.857    0.000    2.286 
#    0.000    3.571    0.000   27.429    0.000   36.000 
#    0.000    0.000    0.000    0.000    0.000    0.000 
#
# Total GULP energy -311768.814808 kJ/mol
# GULP energy per Si atom -5567.300264 kJ/mol
# Density = 2.254567 g / cm^3
# Si number density = 22.597104 Si / 1000 Ang^3
#
#
#
# Elastic Constant Matrix: (Units=GPa)
#
#
# Indices 1 2 3 4 5 6 
#
# 1 52.2059 6.7683 -2.7468 -0.0001 -0.0001 0.0000
# 2 6.7683 89.7970 -20.4276 -0.0002 0.0000 0.0000
# 3 -2.7468 -20.4276 79.7804 -0.0004 0.0000 0.0002
# 4 -0.0001 -0.0002 -0.0004 21.2957 0.0000 0.0001
# 5 -0.0001 0.0000 0.0000 0.0000 29.0157 0.0001
# 6 0.0000 0.0000 0.0002 0.0001 0.0001 26.8226
#
#
#
# Elastic Compliance Matrix: (Units=1/GPa)
#
#
# Indices 1 2 3 4 5 6 
#
# 1 0.019351 -0.001388 0.000311 0.000000 0.000000 0.000000
# 2 -0.001388 0.011925 0.003005 0.000000 0.000000 0.000000
# 3 0.000311 0.003005 0.013315 0.000000 0.000000 0.000000
# 4 0.000000 0.000000 0.000000 0.046958 0.000000 0.000000
# 5 0.000000 0.000000 0.000000 0.000000 0.034464 0.000000
# 6 0.000000 0.000000 0.000000 0.000000 0.000000 0.037282
#
#
# Mechanical properties :
#
#
# Convention : Reuss Voigt Hill
#
# Bulk Modulus (GPa) = 20.64092 20.99680 20.81886
# Shear Modulus (GPa) = 28.47602 31.30611 29.89106
#
# Velocity S-wave (km/s) = 3.55373 3.72614 3.64095
# Velocity P-wave (km/s) = 5.09831 5.27486 5.18734
#
# Compressibility (1/GPa) = 0.04844745
#
# Stress axis : x y z
#
# Youngs Moduli (GPa) = 51.67632 83.86070 75.10526
#
# Poissons Ratio (x) = 0.11639 -0.02335
# Poissons Ratio (y) = 0.07172 -0.22573
# Poissons Ratio (z) = -0.01607 -0.25204
#
# Static dielectric constant tensor:
#      x y z
#    x 2.000180 0.000000 0.000000 
#    y 0.000000 1.884770 0.000000 
#    z 0.000000 0.000000 1.902440 
# 
# From -- ./inp_files/22310.got.cif
#   From: 2010.05.17/outbox.cif.g08.bks.cpg/sg72_12_cif.got.tgz:22310.got - 2010.06.03 17:03:01.
