data_PCOD9525630
_publ_section_title
;
Structure prediction by ZEFSAII (Michael W. Deem and Ramdas Pophale) SiO2 
 PCOD9525630
Probable space group: I B A M
;
_chemical_formula_sum "Si O2"
_cell_formula_units_Z 80
_cell_length_a 29.102398
_cell_length_b 23.700280
_cell_length_c 8.778139
_cell_angle_alpha 90.000000
_cell_angle_beta 90.000000
_cell_angle_gamma 90.000000
_cell_volume 6054.589539
_symmetry_space_group_name_H-M "I B A M"
_symmetry_group_IT_number 72
_symmetry_cell_setting 'orthorhombic'
loop_
_space_group_symop_operation_xyz
x,y,z
-x,-y,z
x,-y,1/2-z
-x,y,1/2-z
-x,-y,-z
x,y,-z
-x,y,1/2+z
x,-y,1/2+z
1/2+x,1/2+y,1/2+z
1/2-x,1/2-y,1/2+z
1/2+x,1/2-y,-z
1/2-x,1/2+y,-z
1/2-x,1/2-y,1/2-z
1/2+x,1/2+y,1/2-z
1/2-x,1/2+y,z
1/2+x,1/2-y,z
loop_
_atom_site_type_symbol
_atom_site_label
_atom_site_fract_x
_atom_site_fract_y
_atom_site_fract_z
Si Si1 0.550057 0.061922 0.317198
Si Si2 0.224000 0.437951 0.315727
Si Si3 0.721571 0.668114 0.324815
Si Si4 0.864841 0.625491 0.819138
Si Si5 0.321404 0.229707 0.173567
O O1 0.500000 0.076419 0.250000
O O2 0.548361 0.059148 0.500000
O O3 0.588726 0.104723 0.260101
O O4 0.561727 0.000000 0.250000
O O5 0.230863 0.500000 0.250000
O O6 0.220772 0.438350 0.500000
O O7 0.265045 0.394675 0.272676
O O8 0.176962 0.411961 0.248552
O O9 0.706100 0.666406 0.500000
O O10 0.687219 0.706725 0.229092
O O11 0.771003 0.700114 0.323237
O O12 0.852775 0.690155 0.778020
O O13 0.867273 0.617654 0.000000
O O14 0.337835 0.227705 0.000000
#
# Coordination Sequence:
#
# PCOD9525630 Si02
#       5
#    16  16  16  16  16
#     4  11  21  34  47  60  77  98 126 158 196 237
#     4  10  19  29  40  56  77 101 130 162 195 229
#     4   8  15  26  38  53  74  98 123 153 189 228
#     4  11  20  30  43  58  76  99 127 160 197 232
#     4   9  16  26  40  57  74  94 122 156 191 226
#
# _framework density 13.213117
#
# number of rings (size 3 to 8) (size 9 to 14) (size 15 to 20)
#    0.000    2.200    0.000    7.200    0.000    5.600 
#    0.000    0.000    0.000    0.000    0.000    0.000 
#    0.000    0.000    0.000    0.000    0.000    1.000 
#
# Total GULP energy -222957.218253 kJ/mol
# GULP energy per Si atom -5573.930456 kJ/mol
# Density = 1.318304 g / cm^3
# Si number density = 13.213117 Si / 1000 Ang^3
#
#
#
# Elastic Constant Matrix: (Units=GPa)
#
#
# Indices 1 2 3 4 5 6 
#
# 1 40.7606 36.0804 29.3226 0.0000 0.0000 0.0000
# 2 36.0804 86.5863 39.5581 0.0000 0.0000 0.0000
# 3 29.3226 39.5581 99.9861 0.0000 0.0000 0.0000
# 4 0.0000 0.0000 0.0000 20.7498 0.0000 0.0000
# 5 0.0000 0.0000 0.0000 0.0000 17.7061 0.0000
# 6 0.0000 0.0000 0.0000 0.0000 0.0000 16.7548
#
#
#
# Elastic Compliance Matrix: (Units=1/GPa)
#
#
# Indices 1 2 3 4 5 6 
#
# 1 0.042170 -0.014552 -0.006610 0.000000 0.000000 0.000000
# 2 -0.014552 0.019119 -0.003296 0.000000 0.000000 0.000000
# 3 -0.006610 -0.003296 0.013244 0.000000 0.000000 0.000000
# 4 0.000000 0.000000 0.000000 0.048193 0.000000 0.000000
# 5 0.000000 0.000000 0.000000 0.000000 0.056478 0.000000
# 6 0.000000 0.000000 0.000000 0.000000 0.000000 0.059685
#
#
# Mechanical properties :
#
#
# Convention : Reuss Voigt Hill
#
# Bulk Modulus (GPa) = 39.03806 48.58389 43.81097
# Shear Modulus (GPa) = 16.87227 19.20025 18.03626
#
# Velocity S-wave (km/s) = 3.57730 3.81612 3.69864
# Velocity P-wave (km/s) = 6.83168 7.50108 7.17419
#
# Compressibility (1/GPa) = 0.02561603
#
# Stress axis : x y z
#
# Youngs Moduli (GPa) = 23.71366 52.30346 75.50609
#
# Poissons Ratio (x) = 0.76114 0.49906
# Poissons Ratio (y) = 0.34509 0.24891
# Poissons Ratio (z) = 0.15674 0.17242
#
# Static dielectric constant tensor:
#      x y z
#    x 1.406760 0.000000 0.000000 
#    y 0.000000 1.445930 0.000000 
#    z 0.000000 0.000000 1.444260 
# 
# From -- ./inp_files/7378.got.cif
#   From: 2010.05.17/outbox.cif.g08.bks.cpg/sg72_4_cif.got.tgz:7378.got - 2010.06.03 17:03:01.
