data_PCOD9525017
_publ_section_title
;
Structure prediction by ZEFSAII (Michael W. Deem and Ramdas Pophale) SiO2 
 PCOD9525017
Probable space group: I B A M
;
_chemical_formula_sum "Si O2"
_cell_formula_units_Z 64
_cell_length_a 35.433389
_cell_length_b 13.825915
_cell_length_c 8.664406
_cell_angle_alpha 90.000000
_cell_angle_beta 90.000000
_cell_angle_gamma 90.000000
_cell_volume 4244.684047
_symmetry_space_group_name_H-M "I B A M"
_symmetry_group_IT_number 72
_symmetry_cell_setting 'orthorhombic'
loop_
_space_group_symop_operation_xyz
x,y,z
-x,-y,z
x,-y,1/2-z
-x,y,1/2-z
-x,-y,-z
x,y,-z
-x,y,1/2+z
x,-y,1/2+z
1/2+x,1/2+y,1/2+z
1/2-x,1/2-y,1/2+z
1/2+x,1/2-y,-z
1/2-x,1/2+y,-z
1/2-x,1/2-y,1/2-z
1/2+x,1/2+y,1/2-z
1/2-x,1/2+y,z
1/2+x,1/2-y,z
loop_
_atom_site_type_symbol
_atom_site_label
_atom_site_fract_x
_atom_site_fract_y
_atom_site_fract_z
Si Si1 0.538731 0.390131 0.315478
Si Si2 0.191789 0.200139 0.684227
Si Si3 0.733999 0.897139 0.815629
Si Si4 0.617167 0.391148 0.816117
O O1 0.539245 0.500000 0.250000
O O2 0.500000 0.345370 0.250000
O O3 0.537738 0.392478 0.500000
O O4 0.578362 0.349140 0.255072
O O5 0.187543 0.190173 0.500000
O O6 0.225914 0.131894 0.741078
O O7 0.205447 0.309250 0.719650
O O8 0.153368 0.170128 0.766551
O O9 0.721570 0.000000 0.750000
O O10 0.738439 0.902071 0.000000
O O11 0.622277 0.500000 0.750000
O O12 0.613643 0.397075 0.000000
#
# Coordination Sequence:
#
# PCOD9525017 Si02
#       4
#    16  16  16  16
#     4  10  17  27  41  59  84 114 147 179 214 257
#     4  10  20  33  47  65  88 115 148 183 219 260
#     4  10  20  33  49  66  87 115 146 182 222 263
#     4  11  20  30  44  63  88 118 150 184 220 258
#
# _framework density 15.077683
#
# number of rings (size 3 to 8) (size 9 to 14) (size 15 to 20)
#    0.000    1.750    0.000    9.000    0.000    3.000 
#    0.000    0.000    0.000    0.000    0.000    0.000 
#    0.000    1.000    0.000   10.500    0.000    5.750 
#
# Total GULP energy -178563.578369 kJ/mol
# GULP energy per Si atom -5580.111824 kJ/mol
# Density = 1.504337 g / cm^3
# Si number density = 15.077683 Si / 1000 Ang^3
#
#
#
# Elastic Constant Matrix: (Units=GPa)
#
#
# Indices 1 2 3 4 5 6 
#
# 1 133.4071 30.5696 63.5932 0.0000 0.0000 0.0000
# 2 30.5696 55.7934 31.3697 0.0000 0.0000 0.0000
# 3 63.5932 31.3697 128.5406 0.0000 0.0000 0.0000
# 4 0.0000 0.0000 0.0000 19.5915 0.0000 0.0000
# 5 0.0000 0.0000 0.0000 0.0000 35.3855 0.0000
# 6 0.0000 0.0000 0.0000 0.0000 0.0000 14.1152
#
#
#
# Elastic Compliance Matrix: (Units=1/GPa)
#
#
# Indices 1 2 3 4 5 6 
#
# 1 0.010284 -0.003215 -0.004303 0.000000 0.000000 0.000000
# 2 -0.003215 0.021779 -0.003724 0.000000 0.000000 0.000000
# 3 -0.004303 -0.003724 0.010817 0.000000 0.000000 0.000000
# 4 0.000000 0.000000 0.000000 0.051043 0.000000 0.000000
# 5 0.000000 0.000000 0.000000 0.000000 0.028260 0.000000
# 6 0.000000 0.000000 0.000000 0.000000 0.000000 0.070846
#
#
# Mechanical properties :
#
#
# Convention : Reuss Voigt Hill
#
# Bulk Modulus (GPa) = 49.03193 63.20069 56.11631
# Shear Modulus (GPa) = 22.49089 26.63233 24.56161
#
# Velocity S-wave (km/s) = 3.86640 4.20735 4.04047
# Velocity P-wave (km/s) = 7.24722 8.10000 7.68545
#
# Compressibility (1/GPa) = 0.02039487
#
# Stress axis : x y z
#
# Youngs Moduli (GPa) = 97.24017 45.91593 92.44331
#
# Poissons Ratio (x) = 0.14763 0.39779
# Poissons Ratio (y) = 0.31264 0.34430
# Poissons Ratio (z) = 0.41843 0.17101
#
# Static dielectric constant tensor:
#      x y z
#    x 1.531380 0.000000 0.000000 
#    y 0.000000 1.484450 0.000000 
#    z 0.000000 0.000000 1.502410 
# 
# From -- ./inp_files/3776.got.cif
#   From: 2010.05.17/outbox.cif.g08.bks.cpg/sg72_2_cif.got.tgz:3776.got - 2010.06.03 17:03:01.
