data_PCOD9525959
_publ_section_title
;
Structure prediction by ZEFSAII (Michael W. Deem and Ramdas Pophale) SiO2 
 PCOD9525959
Probable space group: I B A M
;
_chemical_formula_sum "Si O2"
_cell_formula_units_Z 116
_cell_length_a 22.984802
_cell_length_b 32.375376
_cell_length_c 7.732016
_cell_angle_alpha 90.000000
_cell_angle_beta 90.000000
_cell_angle_gamma 90.000000
_cell_volume 5753.714812
_symmetry_space_group_name_H-M "I B A M"
_symmetry_group_IT_number 72
_symmetry_cell_setting 'orthorhombic'
loop_
_space_group_symop_operation_xyz
x,y,z
-x,-y,z
x,-y,1/2-z
-x,y,1/2-z
-x,-y,-z
x,y,-z
-x,y,1/2+z
x,-y,1/2+z
1/2+x,1/2+y,1/2+z
1/2-x,1/2-y,1/2+z
1/2+x,1/2-y,-z
1/2-x,1/2+y,-z
1/2-x,1/2-y,1/2-z
1/2+x,1/2+y,1/2-z
1/2-x,1/2+y,z
1/2+x,1/2-y,z
loop_
_atom_site_type_symbol
_atom_site_label
_atom_site_fract_x
_atom_site_fract_y
_atom_site_fract_z
Si Si1 0.000000 0.000000 0.250000
Si Si2 0.723295 0.546968 0.207052
Si Si3 0.168510 0.215891 0.791687
Si Si4 0.299262 0.805851 0.792285
Si Si5 0.329087 0.896036 0.213003
Si Si6 0.066738 0.452453 0.795697
Si Si7 0.408259 0.563137 0.704954
Si Si8 0.434578 0.656893 0.206796
O O1 0.047561 0.034152 0.190333
O O2 0.739586 0.500000 0.250000
O O3 0.771565 0.579094 0.269864
O O4 0.657680 0.555978 0.266807
O O5 0.721475 0.550941 0.000000
O O6 0.230571 0.195603 0.747971
O O7 0.172617 0.263152 0.726163
O O8 0.114646 0.188595 0.728264
O O9 0.164168 0.217649 0.000000
O O10 0.326126 0.848677 0.729185
O O11 0.304949 0.805348 0.000000
O O12 0.385571 0.920926 0.275469
O O13 0.328950 0.895951 0.000000
O O14 0.079529 0.500000 0.750000
O O15 0.000000 0.443386 0.750000
O O16 0.070889 0.449777 0.000000
O O17 0.413551 0.551562 0.500000
O O18 0.424054 0.611076 0.720670
O O19 0.500000 0.670372 0.250000
O O20 0.429219 0.653850 0.000000
#
# Coordination Sequence:
#
# PCOD9525959 Si02
#       8
#     4  16  16  16  16  16  16  16
#     4  12  22  36  56  78 106 140 184 224 262 304
#     4  10  20  34  50  74 104 137 176 215 257 304
#     4   9  19  35  55  81 107 133 168 215 264 311
#     4   9  17  34  59  80 103 135 169 208 258 316
#     4   9  18  32  53  78 104 134 171 212 255 306
#     4  10  19  33  52  75 102 136 174 210 251 303
#     4  11  23  37  55  77 105 142 184 222 263 310
#     4  11  23  37  54  77 106 137 176 219 262 310
#
# _framework density 20.160889000000001
#
# number of rings (size 3 to 8) (size 9 to 14) (size 15 to 20)
#    0.000    2.069    1.379    2.690    0.000    3.310 
#    0.000    3.448    0.000    0.000    0.000    0.000 
#    0.000    0.000    0.000    0.000    0.000    0.000 
#
# Total GULP energy -323657.202421 kJ/mol
# GULP energy per Si atom -5580.296593 kJ/mol
# Density = 2.011500 g / cm^3
# Si number density = 20.160889 Si / 1000 Ang^3
#
#
#
# Elastic Constant Matrix: (Units=GPa)
#
#
# Indices 1 2 3 4 5 6 
#
# 1 137.6462 122.9074 9.0553 0.0000 0.0000 0.0000
# 2 122.9074 173.4090 8.2649 0.0000 0.0000 0.0000
# 3 9.0553 8.2649 45.7893 0.0000 0.0000 0.0000
# 4 0.0000 0.0000 0.0000 13.1168 0.0000 0.0000
# 5 0.0000 0.0000 0.0000 0.0000 7.6998 0.0000
# 6 0.0000 0.0000 0.0000 0.0000 0.0000 7.2382
#
#
#
# Elastic Compliance Matrix: (Units=1/GPa)
#
#
# Indices 1 2 3 4 5 6 
#
# 1 0.019878 -0.014022 -0.001400 0.000000 0.000000 0.000000
# 2 -0.014022 0.015708 -0.000062 0.000000 0.000000 0.000000
# 3 -0.001400 -0.000062 0.022127 0.000000 0.000000 0.000000
# 4 0.000000 0.000000 0.000000 0.076238 0.000000 0.000000
# 5 0.000000 0.000000 0.000000 0.000000 0.129873 0.000000
# 6 0.000000 0.000000 0.000000 0.000000 0.000000 0.138156
#
#
# Mechanical properties :
#
#
# Convention : Reuss Voigt Hill
#
# Bulk Modulus (GPa) = 37.39109 70.81106 54.10108
# Shear Modulus (GPa) = 11.31571 20.05209 15.68390
#
# Velocity S-wave (km/s) = 2.37168 3.15715 2.79218
# Velocity P-wave (km/s) = 5.10749 6.96343 6.10638
#
# Compressibility (1/GPa) = 0.02674434
#
# Stress axis : x y z
#
# Youngs Moduli (GPa) = 50.30781 63.66163 45.19303
#
# Poissons Ratio (x) = 0.89266 0.06327
# Poissons Ratio (y) = 0.70541 0.00281
# Poissons Ratio (z) = 0.07044 0.00396
#
# Static dielectric constant tensor:
#      x y z
#    x 1.712970 0.000000 0.000000 
#    y 0.000000 1.713330 0.000000 
#    z 0.000000 0.000000 1.810020 
# 
# From -- ./inp_files/7511.got.cif
#   From: 2010.05.17/outbox.cif.g08.bks.cpg/sg72_4_cif.got.tgz:7511.got - 2010.06.03 17:03:01.
