data_PCOD9525309
_publ_section_title
;
Structure prediction by ZEFSAII (Michael W. Deem and Ramdas Pophale) SiO2 
 PCOD9525309
Probable space group: I B A M
;
_chemical_formula_sum "Si O2"
_cell_formula_units_Z 112
_cell_length_a 15.125449
_cell_length_b 13.962637
_cell_length_c 28.264319
_cell_angle_alpha 90.000000
_cell_angle_beta 90.000000
_cell_angle_gamma 90.000000
_cell_volume 5969.174142
_symmetry_space_group_name_H-M "I B A M"
_symmetry_group_IT_number 72
_symmetry_cell_setting 'orthorhombic'
loop_
_space_group_symop_operation_xyz
x,y,z
-x,-y,z
x,-y,1/2-z
-x,y,1/2-z
-x,-y,-z
x,y,-z
-x,y,1/2+z
x,-y,1/2+z
1/2+x,1/2+y,1/2+z
1/2-x,1/2-y,1/2+z
1/2+x,1/2-y,-z
1/2-x,1/2+y,-z
1/2-x,1/2-y,1/2-z
1/2+x,1/2+y,1/2-z
1/2-x,1/2+y,z
1/2+x,1/2-y,z
loop_
_atom_site_type_symbol
_atom_site_label
_atom_site_fract_x
_atom_site_fract_y
_atom_site_fract_z
Si Si1 0.920186 0.058502 0.397783
Si Si2 0.192423 0.340372 0.868490
Si Si3 0.639878 0.813945 0.947945
Si Si4 0.692791 0.410363 0.552208
Si Si5 0.054627 0.740331 0.444066
Si Si6 0.896042 0.496642 0.306602
Si Si7 0.742401 0.865847 0.857663
O O1 0.956238 0.153018 0.423683
O O2 0.840682 0.089475 0.362577
O O3 0.881431 0.989034 0.438327
O O4 0.000000 0.000000 0.374042
O O5 0.251710 0.412557 0.899324
O O6 0.128653 0.302428 0.910128
O O7 0.142423 0.398736 0.828397
O O8 0.243403 0.247909 0.847722
O O9 0.659617 0.699876 0.948008
O O10 0.535639 0.819261 0.938437
O O11 0.700247 0.864830 0.910069
O O12 0.659466 0.851332 0.000000
O O13 0.733801 0.425723 0.500000
O O14 0.077274 0.742267 0.500000
O O15 0.893110 0.500000 0.250000
O O16 0.829857 0.579772 0.325866
O O17 0.000000 0.500000 0.321002
#
# Coordination Sequence:
#
# PCOD9525309 Si02
#       7
#    16  16  16  16  16  16  16
#     4  11  20  32  54  84 120 161 203 238 277 336
#     4  10  21  38  59  84 117 155 191 243 290 347
#     4   9  18  32  50  78 118 158 193 234 277 331
#     4  10  18  30  50  78 115 156 191 228 272 326
#     4  10  19  31  51  81 120 161 200 237 278 334
#     4  11  24  44  68  91 113 145 195 251 312 374
#     4  10  22  39  60  89 118 156 197 244 295 355
#
# _framework density 18.763062999999999
#
# number of rings (size 3 to 8) (size 9 to 14) (size 15 to 20)
#    0.000    1.857    2.857    1.714    0.000    5.143 
#    0.000    0.000    0.000    3.429    0.000    0.000 
#    0.000    0.000    0.000    0.000    0.000    0.000 
#
# Total GULP energy -312096.596155 kJ/mol
# GULP energy per Si atom -5573.153503 kJ/mol
# Density = 1.872036 g / cm^3
# Si number density = 18.763063 Si / 1000 Ang^3
#
#
#
# Elastic Constant Matrix: (Units=GPa)
#
#
# Indices 1 2 3 4 5 6 
#
# 1 95.1288 43.6589 45.1775 0.0000 0.0000 0.0000
# 2 43.6589 75.8282 20.9610 0.0000 0.0000 0.0000
# 3 45.1775 20.9610 54.4268 0.0000 0.0000 0.0000
# 4 0.0000 0.0000 0.0000 16.5134 0.0000 0.0000
# 5 0.0000 0.0000 0.0000 0.0000 17.0979 0.0000
# 6 0.0000 0.0000 0.0000 0.0000 0.0000 25.6432
#
#
#
# Elastic Compliance Matrix: (Units=1/GPa)
#
#
# Indices 1 2 3 4 5 6 
#
# 1 0.021074 -0.008168 -0.014347 0.000000 0.000000 0.000000
# 2 -0.008168 0.017924 -0.000123 0.000000 0.000000 0.000000
# 3 -0.014347 -0.000123 0.030330 0.000000 0.000000 0.000000
# 4 0.000000 0.000000 0.000000 0.060557 0.000000 0.000000
# 5 0.000000 0.000000 0.000000 0.000000 0.058487 0.000000
# 6 0.000000 0.000000 0.000000 0.000000 0.000000 0.038997
#
#
# Mechanical properties :
#
#
# Convention : Reuss Voigt Hill
#
# Bulk Modulus (GPa) = 41.57699 49.44207 45.50953
# Shear Modulus (GPa) = 17.81496 19.55668 18.68582
#
# Velocity S-wave (km/s) = 3.08469 3.23196 3.15919
# Velocity P-wave (km/s) = 5.90713 6.35102 6.13309
#
# Compressibility (1/GPa) = 0.02405177
#
# Stress axis : x y z
#
# Youngs Moduli (GPa) = 47.45119 55.78965 32.97062
#
# Poissons Ratio (x) = 0.45567 0.47304
# Poissons Ratio (y) = 0.38757 0.00407
# Poissons Ratio (z) = 0.68080 0.00689
#
# Static dielectric constant tensor:
#      x y z
#    x 1.720350 0.000000 0.000000 
#    y 0.000000 1.687350 0.000000 
#    z 0.000000 0.000000 1.607210 
# 
# From -- ./inp_files/51868.got.cif
#   From: 2010.05.17/outbox.cif.g08.bks.cpg/sg72_26_cif.got.tgz:51868.got - 2010.06.03 17:03:01.
