data_PCOD9525567
_publ_section_title
;
Structure prediction by ZEFSAII (Michael W. Deem and Ramdas Pophale) SiO2 
 PCOD9525567
Probable space group: I B A M
;
_chemical_formula_sum "Si O2"
_cell_formula_units_Z 100
_cell_length_a 9.474593
_cell_length_b 26.588342
_cell_length_c 17.855235
_cell_angle_alpha 90.000000
_cell_angle_beta 90.000000
_cell_angle_gamma 90.000000
_cell_volume 4497.978652
_symmetry_space_group_name_H-M "I B A M"
_symmetry_group_IT_number 72
_symmetry_cell_setting 'orthorhombic'
loop_
_space_group_symop_operation_xyz
x,y,z
-x,-y,z
x,-y,1/2-z
-x,y,1/2-z
-x,-y,-z
x,y,-z
-x,y,1/2+z
x,-y,1/2+z
1/2+x,1/2+y,1/2+z
1/2-x,1/2-y,1/2+z
1/2+x,1/2-y,-z
1/2-x,1/2+y,-z
1/2-x,1/2-y,1/2-z
1/2+x,1/2+y,1/2-z
1/2-x,1/2+y,z
1/2+x,1/2-y,z
loop_
_atom_site_type_symbol
_atom_site_label
_atom_site_fract_x
_atom_site_fract_y
_atom_site_fract_z
Si Si1 0.305194 0.902914 0.681905
Si Si2 0.296919 0.579445 0.335039
Si Si3 0.978163 0.161672 0.333809
Si Si4 0.688219 0.745617 0.588402
Si Si5 0.041065 0.318552 0.591752
Si Si6 0.000000 0.000000 0.750000
Si Si7 0.167490 0.496155 0.419842
O O1 0.319152 0.908994 0.770977
O O2 0.153110 0.876404 0.673276
O O3 0.413707 0.868622 0.635381
O O4 0.296297 0.957291 0.644867
O O5 0.385800 0.628952 0.353985
O O6 0.404322 0.538149 0.298841
O O7 0.228110 0.551040 0.403908
O O8 0.926743 0.202884 0.391914
O O9 0.000000 0.183610 0.250000
O O10 0.702326 0.751094 0.500000
O O11 0.837511 0.722720 0.614399
O O12 0.611604 0.796594 0.614954
O O13 0.046656 0.324813 0.500000
O O14 0.219207 0.476573 0.500000
O O15 0.000000 0.500000 0.421160
#
# Coordination Sequence:
#
# PCOD9525567 Si02
#       7
#    16  16  16  16  16   4  16
#     4  10  18  35  59  81 108 149 189 227 281 337
#     4  11  19  35  60  82 112 145 185 232 283 331
#     4   9  18  34  57  84 111 141 176 236 285 325
#     4   9  18  34  55  79 110 147 184 228 283 338
#     4   9  18  34  57  82 110 147 187 230 281 337
#     4  12  16  36  60  84 108 140 178 242 284 324
#     4  11  24  39  54  79 117 155 190 232 276 333
#
# _framework density 22.232208
#
# number of rings (size 3 to 8) (size 9 to 14) (size 15 to 20)
#    0.000    2.080    4.000    0.480    0.000    2.560 
#    2.880   10.000    0.000    0.000    0.000    0.000 
#    0.000    0.000    0.000    0.000    0.000    0.000 
#
# Total GULP energy -279142.832714 kJ/mol
# GULP energy per Si atom -5582.856654 kJ/mol
# Density = 2.218161 g / cm^3
# Si number density = 22.232208 Si / 1000 Ang^3
#
#
#
# Elastic Constant Matrix: (Units=GPa)
#
#
# Indices 1 2 3 4 5 6 
#
# 1 52.4612 21.9208 19.6613 0.0000 0.0000 0.0000
# 2 21.9208 40.1721 -1.7760 0.0000 -0.0001 0.0000
# 3 19.6613 -1.7760 18.1303 -0.0002 -0.0002 0.0000
# 4 0.0000 0.0000 -0.0002 20.9356 -0.0001 0.0000
# 5 0.0000 -0.0001 -0.0002 -0.0001 -15.9465 0.0000
# 6 0.0000 0.0000 0.0000 0.0000 0.0000 20.5741
#
#
#
# Elastic Compliance Matrix: (Units=1/GPa)
#
#
# Indices 1 2 3 4 5 6 
#
# 1 0.059093 -0.035231 -0.067534 -0.000001 0.000001 0.000000
# 2 -0.035231 0.046006 0.042713 0.000000 -0.000001 0.000000
# 3 -0.067534 0.042713 0.132577 0.000001 -0.000002 0.000000
# 4 -0.000001 0.000000 0.000001 0.047766 0.000000 0.000000
# 5 0.000001 -0.000001 -0.000002 0.000000 -0.062710 0.000000
# 6 0.000000 0.000000 0.000000 0.000000 0.000000 0.048605
#
#
# Mechanical properties :
#
#
# Convention : Reuss Voigt Hill
#
# Bulk Modulus (GPa) = 8.50551 21.15286 14.82918
# Shear Modulus (GPa) = 11.61080 9.84315 10.72697
#
# Velocity S-wave (km/s) = 2.28776 2.10643 2.19896
# Velocity P-wave (km/s) = 3.28824 3.93080 3.62379
#
# Compressibility (1/GPa) = 0.11757088
#
# Stress axis : x y z
#
# Youngs Moduli (GPa) = 16.92235 21.73631 7.54277
#
# Poissons Ratio (x) = 0.76580 0.50940
# Poissons Ratio (y) = 0.59620 -0.32217
# Poissons Ratio (z) = 1.14284 -0.92842
#
# Static dielectric constant tensor:
#      x y z
#    x 1.622430 0.000000 0.000000 
#    y 0.000000 1.819410 0.000000 
#    z 0.000000 0.000000 1.824380 
# 
# From -- ./inp_files/36171.got.cif
#   From: 2010.05.17/outbox.cif.g08.bks.cpg/sg72_19_cif.got.tgz:36171.got - 2010.06.03 17:03:01.
