data_PCOD9525868
_publ_section_title
;
Structure prediction by ZEFSAII (Michael W. Deem and Ramdas Pophale) SiO2 
 PCOD9525868
Probable space group: I B A M
;
_chemical_formula_sum "Si O2"
_cell_formula_units_Z 96
_cell_length_a 22.982653
_cell_length_b 9.305295
_cell_length_c 20.947791
_cell_angle_alpha 90.000000
_cell_angle_beta 90.000000
_cell_angle_gamma 90.000000
_cell_volume 4479.902251
_symmetry_space_group_name_H-M "I B A M"
_symmetry_group_IT_number 72
_symmetry_cell_setting 'orthorhombic'
loop_
_space_group_symop_operation_xyz
x,y,z
-x,-y,z
x,-y,1/2-z
-x,y,1/2-z
-x,-y,-z
x,y,-z
-x,y,1/2+z
x,-y,1/2+z
1/2+x,1/2+y,1/2+z
1/2-x,1/2-y,1/2+z
1/2+x,1/2-y,-z
1/2-x,1/2+y,-z
1/2-x,1/2-y,1/2-z
1/2+x,1/2+y,1/2-z
1/2-x,1/2+y,z
1/2+x,1/2-y,z
loop_
_atom_site_type_symbol
_atom_site_label
_atom_site_fract_x
_atom_site_fract_y
_atom_site_fract_z
Si Si1 0.713692 0.706335 0.068941
Si Si2 0.080652 0.102481 0.428208
Si Si3 0.060360 0.583076 0.926388
Si Si4 0.747072 0.968458 0.852345
Si Si5 0.119100 0.918140 0.314456
Si Si6 0.127283 0.576063 0.686544
O O1 0.646567 0.663329 0.069023
O O2 0.726083 0.811798 0.127202
O O3 0.747894 0.561126 0.083125
O O4 0.729986 0.766245 0.000000
O O5 0.065501 0.052651 0.500000
O O6 0.047532 0.249365 0.411175
O O7 0.082972 0.981688 0.374309
O O8 0.102509 0.506010 0.875773
O O9 0.000000 0.500000 0.924646
O O10 0.082853 0.578320 0.000000
O O11 0.812020 0.957039 0.824361
O O12 0.696854 0.048870 0.813832
O O13 0.114783 0.745795 0.312365
O O14 0.100657 0.000000 0.250000
O O15 0.103036 0.500000 0.750000
#
# Coordination Sequence:
#
# PCOD9525868 Si02
#       6
#    16  16  16  16  16  16
#     4  10  19  32  52  83 122 161 200 247 299 356
#     4   9  19  38  61  87 122 159 196 250 308 363
#     4  10  22  43  70  95 119 153 200 257 316 372
#     4  11  21  35  54  85 122 167 206 249 293 364
#     4  11  24  39  58  87 126 169 207 247 300 365
#     4  12  25  39  62  90 123 165 210 260 307 368
#
# _framework density 21.429039
#
# number of rings (size 3 to 8) (size 9 to 14) (size 15 to 20)
#    0.000    1.500    3.333    2.000    2.333    3.667 
#    0.000    0.833    0.000    4.000    0.000    0.000 
#    0.000    0.000    0.000    0.000    0.000    0.000 
#
# Total GULP energy -267921.226767 kJ/mol
# GULP energy per Si atom -5581.692224 kJ/mol
# Density = 2.138027 g / cm^3
# Si number density = 21.429039 Si / 1000 Ang^3
#
#
#
# Elastic Constant Matrix: (Units=GPa)
#
#
# Indices 1 2 3 4 5 6 
#
# 1 35.7233 21.9618 19.7831 0.0000 0.0000 0.0000
# 2 21.9618 164.1757 86.2647 0.0000 0.0000 0.0000
# 3 19.7831 86.2647 125.1889 0.0000 0.0000 0.0000
# 4 0.0000 0.0000 0.0000 30.8364 0.0000 0.0000
# 5 0.0000 0.0000 0.0000 0.0000 -6.7744 0.0000
# 6 0.0000 0.0000 0.0000 0.0000 0.0000 28.5119
#
#
#
# Elastic Compliance Matrix: (Units=1/GPa)
#
#
# Indices 1 2 3 4 5 6 
#
# 1 0.031314 -0.002491 -0.003232 0.000000 0.000000 0.000000
# 2 -0.002491 0.009746 -0.006322 0.000000 0.000000 0.000000
# 3 -0.003232 -0.006322 0.012855 0.000000 0.000000 0.000000
# 4 0.000000 0.000000 0.000000 0.032429 0.000000 0.000000
# 5 0.000000 0.000000 0.000000 0.000000 -0.147615 0.000000
# 6 0.000000 0.000000 0.000000 0.000000 0.000000 0.035073
#
#
# Mechanical properties :
#
#
# Convention : Reuss Voigt Hill
#
# Bulk Modulus (GPa) = 33.52861 64.56746 49.04804
# Shear Modulus (GPa) = 638.19789 23.65335 330.92562
#
# Velocity S-wave (km/s) = 17.27616 3.32595 12.44041
# Velocity P-wave (km/s) = 20.33801 6.70414 15.14233
#
# Compressibility (1/GPa) = 0.02982527
#
# Stress axis : x y z
#
# Youngs Moduli (GPa) = 31.93462 102.60420 77.78919
#
# Poissons Ratio (x) = 0.25554 0.25144
# Poissons Ratio (y) = 0.07953 0.49181
# Poissons Ratio (z) = 0.10322 0.64869
#
# Static dielectric constant tensor:
#      x y z
#    x 1.785830 0.000000 0.000000 
#    y 0.000000 1.765640 0.000000 
#    z 0.000000 0.000000 1.796500 
# 
# From -- ./inp_files/36039.got.cif
#   From: 2010.05.17/outbox.cif.g08.bks.cpg/sg72_19_cif.got.tgz:36039.got - 2010.06.03 17:03:01.
