data_PCOD9525435
_publ_section_title
;
Structure prediction by ZEFSAII (Michael W. Deem and Ramdas Pophale) SiO2 
 PCOD9525435
Probable space group: I B A M
;
_chemical_formula_sum "Si O2"
_cell_formula_units_Z 116
_cell_length_a 28.265353
_cell_length_b 27.239602
_cell_length_c 8.758462
_cell_angle_alpha 90.000000
_cell_angle_beta 90.000000
_cell_angle_gamma 90.000000
_cell_volume 6743.463660
_symmetry_space_group_name_H-M "I B A M"
_symmetry_group_IT_number 72
_symmetry_cell_setting 'orthorhombic'
loop_
_space_group_symop_operation_xyz
x,y,z
-x,-y,z
x,-y,1/2-z
-x,y,1/2-z
-x,-y,-z
x,y,-z
-x,y,1/2+z
x,-y,1/2+z
1/2+x,1/2+y,1/2+z
1/2-x,1/2-y,1/2+z
1/2+x,1/2-y,-z
1/2-x,1/2+y,-z
1/2-x,1/2-y,1/2-z
1/2+x,1/2+y,1/2-z
1/2-x,1/2+y,z
1/2+x,1/2-y,z
loop_
_atom_site_type_symbol
_atom_site_label
_atom_site_fract_x
_atom_site_fract_y
_atom_site_fract_z
Si Si1 0.713421 0.687592 0.323518
Si Si2 0.313026 0.573792 0.823709
Si Si3 0.866549 0.744212 0.681677
Si Si4 0.500000 0.500000 0.750000
Si Si5 0.713372 0.050333 0.818969
Si Si6 0.417622 0.578053 0.814733
Si Si7 0.052426 0.811473 0.683828
Si Si8 0.686758 0.841460 0.316621
O O1 0.718559 0.703657 0.500000
O O2 0.691121 0.633022 0.325068
O O3 0.678027 0.722802 0.234969
O O4 0.764238 0.681955 0.244886
O O5 0.268339 0.555041 0.730237
O O6 0.365214 0.562222 0.762613
O O7 0.308493 0.557055 0.000000
O O8 0.869548 0.743186 0.500000
O O9 0.912330 0.770378 0.752284
O O10 0.855535 0.690292 0.747234
O O11 0.458702 0.542518 0.759591
O O12 0.688761 0.101266 0.768850
O O13 0.694030 0.000000 0.750000
O O14 0.710685 0.047931 0.000000
O O15 0.428487 0.634308 0.770800
O O16 0.417137 0.576214 0.000000
O O17 0.051779 0.809529 0.500000
O O18 0.000000 0.805676 0.750000
O O19 0.686125 0.838919 0.500000
#
# Coordination Sequence:
#
# PCOD9525435 Si02
#       8
#    16  16  16   4  16  16  16  16
#     4  10  18  32  53  76 105 141 175 220 271 327
#     4   9  18  34  52  71  98 136 178 222 273 324
#     4  12  23  35  54  81 107 141 179 220 274 331
#     4  12  22  36  52  78  96 132 182 240 292 332
#     4  10  21  36  54  78 106 141 179 216 263 315
#     4  10  21  37  53  71  98 132 174 228 287 333
#     4  11  22  41  60  79 105 139 180 227 282 337
#     4  10  21  36  53  78 110 143 179 221 264 324
#
# _framework density 17.201844000000001
#
# number of rings (size 3 to 8) (size 9 to 14) (size 15 to 20)
#    0.000    1.655    2.069    3.517    0.966    2.207 
#    0.000    0.690    0.000    0.000    0.000    0.000 
#    0.000    0.552    0.000    5.793    0.000    3.172 
#
# Total GULP energy -323495.410313 kJ/mol
# GULP energy per Si atom -5577.507074 kJ/mol
# Density = 1.716269 g / cm^3
# Si number density = 17.201844 Si / 1000 Ang^3
#
#
#
# Elastic Constant Matrix: (Units=GPa)
#
#
# Indices 1 2 3 4 5 6 
#
# 1 66.5259 57.3422 25.1126 0.0000 0.0000 0.0000
# 2 57.3422 119.6748 38.1477 0.0000 0.0000 0.0000
# 3 25.1126 38.1477 66.5903 0.0000 0.0000 0.0000
# 4 0.0000 0.0000 0.0000 14.1226 0.0000 0.0000
# 5 0.0000 0.0000 0.0000 0.0000 15.1003 0.0000
# 6 0.0000 0.0000 0.0000 0.0000 0.0000 -8.7374
#
#
#
# Elastic Compliance Matrix: (Units=1/GPa)
#
#
# Indices 1 2 3 4 5 6 
#
# 1 0.026183 -0.011498 -0.003288 0.000000 0.000000 0.000000
# 2 -0.011498 0.015272 -0.004413 0.000000 0.000000 0.000000
# 3 -0.003288 -0.004413 0.018785 0.000000 0.000000 0.000000
# 4 0.000000 0.000000 0.000000 0.070808 0.000000 0.000000
# 5 0.000000 0.000000 0.000000 0.000000 0.066224 0.000000
# 6 0.000000 0.000000 0.000000 0.000000 0.000000 -0.114450
#
#
# Mechanical properties :
#
#
# Convention : Reuss Voigt Hill
#
# Bulk Modulus (GPa) = 45.77930 54.88845 50.33387
# Shear Modulus (GPa) = 38.91085 12.90968 25.91027
#
# Velocity S-wave (km/s) = 4.76123 2.74247 3.88525
# Velocity P-wave (km/s) = 7.54298 6.48120 7.03215
#
# Compressibility (1/GPa) = 0.02184394
#
# Stress axis : x y z
#
# Youngs Moduli (GPa) = 38.19229 65.48042 53.23430
#
# Poissons Ratio (x) = 0.75288 0.17501
# Poissons Ratio (y) = 0.43913 0.23491
# Poissons Ratio (z) = 0.12556 0.28894
#
# Static dielectric constant tensor:
#      x y z
#    x 1.563100 0.000000 0.000000 
#    y 0.000000 1.619640 0.000000 
#    z 0.000000 0.000000 1.588700 
# 
# From -- ./inp_files/8715.got.cif
#   From: 2010.05.17/outbox.cif.g08.bks.cpg/sg72_5_cif.got.tgz:8715.got - 2010.06.03 17:03:01.
