data_PCOD9525624
_publ_section_title
;
Structure prediction by ZEFSAII (Michael W. Deem and Ramdas Pophale) SiO2 
 PCOD9525624
Probable space group: I B A M
;
_chemical_formula_sum "Si O2"
_cell_formula_units_Z 80
_cell_length_a 8.956235
_cell_length_b 21.715205
_cell_length_c 16.071648
_cell_angle_alpha 90.000000
_cell_angle_beta 90.000000
_cell_angle_gamma 90.000000
_cell_volume 3125.718232
_symmetry_space_group_name_H-M "I B A M"
_symmetry_group_IT_number 72
_symmetry_cell_setting 'orthorhombic'
loop_
_space_group_symop_operation_xyz
x,y,z
-x,-y,z
x,-y,1/2-z
-x,y,1/2-z
-x,-y,-z
x,y,-z
-x,y,1/2+z
x,-y,1/2+z
1/2+x,1/2+y,1/2+z
1/2-x,1/2-y,1/2+z
1/2+x,1/2-y,-z
1/2-x,1/2+y,-z
1/2-x,1/2-y,1/2-z
1/2+x,1/2+y,1/2-z
1/2-x,1/2+y,z
1/2+x,1/2-y,z
loop_
_atom_site_type_symbol
_atom_site_label
_atom_site_fract_x
_atom_site_fract_y
_atom_site_fract_z
Si Si1 0.164824 0.821706 0.839968
Si Si2 0.751476 0.504536 0.000000
Si Si3 0.829466 0.311847 0.162957
Si Si4 0.000000 0.587745 0.250000
Si Si5 0.682116 0.544880 0.822444
Si Si6 0.204705 0.640614 0.000000
Si Si7 0.861051 0.357036 0.500000
O O1 0.092521 0.754359 0.850090
O O2 0.245153 0.813173 0.750827
O O3 0.097406 0.889838 0.830239
O O4 0.273084 0.831810 0.919227
O O5 0.671809 0.513183 0.911731
O O6 0.798915 0.433187 0.000000
O O7 0.853074 0.567459 0.000000
O O8 0.938464 0.369093 0.176649
O O9 0.729256 0.330051 0.083883
O O10 0.858057 0.556501 0.204621
O O11 0.637390 0.500000 0.750000
O O12 0.032229 0.662618 0.000000
#
# Coordination Sequence:
#
# PCOD9525624 Si02
#       7
#    16   8  16   8  16   8   8
#     4   9  19  33  45  62  92 130 159 194 239 283
#     4  10  19  28  42  64  92 124 153 186 233 283
#     4  10  19  31  46  64  93 125 163 199 232 281
#     4  10  19  30  46  70  95 124 156 192 234 278
#     4  10  19  31  46  67  97 125 154 191 232 285
#     4  12  20  27  45  70  92 125 166 201 236 283
#     4  10  20  31  45  66  96 127 160 197 238 288
#
# _framework density 25.594118000000002
#
# number of rings (size 3 to 8) (size 9 to 14) (size 15 to 20)
#    0.000    2.000    0.000    7.200    0.000    3.200 
#    0.000    0.000    0.000    0.000    0.000    0.700 
#    0.000    0.000    0.000   69.400    0.000    2.600 
#
# Total GULP energy -223172.374250 kJ/mol
# GULP energy per Si atom -5579.309356 kJ/mol
# Density = 2.553586 g / cm^3
# Si number density = 25.594118 Si / 1000 Ang^3
#
#
#
# Elastic Constant Matrix: (Units=GPa)
#
#
# Indices 1 2 3 4 5 6 
#
# 1 59.3991 19.3527 24.5977 0.0000 0.0000 0.0000
# 2 19.3527 164.0195 77.1892 0.0000 0.0000 0.0000
# 3 24.5977 77.1892 233.4898 0.0001 0.0000 0.0000
# 4 0.0000 0.0000 0.0001 -27.6633 0.0000 0.0000
# 5 0.0000 0.0000 0.0000 0.0000 57.5996 0.0000
# 6 0.0000 0.0000 0.0000 0.0000 0.0000 -7.9747
#
#
#
# Elastic Compliance Matrix: (Units=1/GPa)
#
#
# Indices 1 2 3 4 5 6 
#
# 1 0.017889 -0.001449 -0.001405 0.000000 0.000000 0.000000
# 2 -0.001449 0.007338 -0.002273 0.000000 0.000000 0.000000
# 3 -0.001405 -0.002273 0.005182 0.000000 0.000000 0.000000
# 4 0.000000 0.000000 0.000000 -0.036149 0.000000 0.000000
# 5 0.000000 0.000000 0.000000 0.000000 0.017361 0.000000
# 6 0.000000 0.000000 0.000000 0.000000 0.000000 -0.125396
#
#
# Mechanical properties :
#
#
# Convention : Reuss Voigt Hill
#
# Bulk Modulus (GPa) = 49.61876 77.68750 63.65313
# Shear Modulus (GPa) = -51.65228 26.77691 -12.43768
#
# Velocity S-wave (km/s) = -4.49723 3.23803 -2.20684
# Velocity P-wave (km/s) = 2.74553 6.66328 4.29310
#
# Compressibility (1/GPa) = 0.02015367
#
# Stress axis : x y z
#
# Youngs Moduli (GPa) = 55.89874 136.28515 192.96285
#
# Poissons Ratio (x) = 0.19752 0.27121
# Poissons Ratio (y) = 0.08102 0.43861
# Poissons Ratio (z) = 0.07856 0.30978
#
# Static dielectric constant tensor:
#      x y z
#    x 2.131010 0.000000 0.000000 
#    y 0.000000 2.087900 0.000000 
#    z 0.000000 0.000000 2.049190 
# 
# From -- ./inp_files/31580.got.cif
#   From: 2010.05.17/outbox.cif.g08.bks.cpg/sg72_16_cif.got.tgz:31580.got - 2010.06.03 17:03:01.
