data_PCOD9525212
_publ_section_title
;
Structure prediction by ZEFSAII (Michael W. Deem and Ramdas Pophale) SiO2 
 PCOD9525212
Probable space group: I B A M
;
_chemical_formula_sum "Si O2"
_cell_formula_units_Z 68
_cell_length_a 14.213180
_cell_length_b 22.175104
_cell_length_c 9.467937
_cell_angle_alpha 90.000000
_cell_angle_beta 90.000000
_cell_angle_gamma 90.000000
_cell_volume 2984.092498
_symmetry_space_group_name_H-M "I B A M"
_symmetry_group_IT_number 72
_symmetry_cell_setting 'orthorhombic'
loop_
_space_group_symop_operation_xyz
x,y,z
-x,-y,z
x,-y,1/2-z
-x,y,1/2-z
-x,-y,-z
x,y,-z
-x,y,1/2+z
x,-y,1/2+z
1/2+x,1/2+y,1/2+z
1/2-x,1/2-y,1/2+z
1/2+x,1/2-y,-z
1/2-x,1/2+y,-z
1/2-x,1/2-y,1/2-z
1/2+x,1/2+y,1/2-z
1/2-x,1/2+y,z
1/2+x,1/2-y,z
loop_
_atom_site_type_symbol
_atom_site_label
_atom_site_fract_x
_atom_site_fract_y
_atom_site_fract_z
Si Si1 0.136543 0.201323 0.340832
Si Si2 0.500000 0.500000 0.750000
Si Si3 0.141863 0.438471 0.333046
Si Si4 0.360947 0.593718 0.151092
Si Si5 0.135302 0.682863 0.662305
O O1 0.104194 0.209429 0.500000
O O2 0.107390 0.138888 0.272095
O O3 0.106035 0.257706 0.246987
O O4 0.250692 0.192726 0.341796
O O5 0.567680 0.460446 0.845332
O O6 0.115803 0.500000 0.250000
O O7 0.114440 0.439495 0.500000
O O8 0.255819 0.431793 0.329144
O O9 0.111385 0.377923 0.249159
O O10 0.360254 0.626715 0.000000
O O11 0.102788 0.679252 0.500000
#
# Coordination Sequence:
#
# PCOD9525212 Si02
#       5
#    16   4  16  16  16
#     4   9  17  29  45  63  82 107 142 185 229 275
#     4  12  22  36  48  66  86 124 166 206 238 270
#     4  10  18  29  43  63  89 118 150 186 229 276
#     4  10  21  33  46  61  83 115 155 198 236 273
#     4   9  16  27  44  64  85 109 140 179 226 276
#
# _framework density 22.787496999999998
#
# number of rings (size 3 to 8) (size 9 to 14) (size 15 to 20)
#    0.000    2.353    1.176    2.471    0.000    8.471 
#    0.000    0.000    0.000    0.000    0.000    0.000 
#    0.000    0.000    0.000    1.059    0.000   15.765 
#
# Total GULP energy -189973.418412 kJ/mol
# GULP energy per Si atom -5587.453483 kJ/mol
# Density = 2.273563 g / cm^3
# Si number density = 22.787497 Si / 1000 Ang^3
#
#
#
# Elastic Constant Matrix: (Units=GPa)
#
#
# Indices 1 2 3 4 5 6 
#
# 1 66.6104 2.5476 13.5327 0.0000 0.0000 0.0000
# 2 2.5476 162.1399 101.2476 0.0000 0.0000 0.0000
# 3 13.5327 101.2476 205.3115 0.0001 0.0001 0.0001
# 4 0.0000 0.0000 0.0001 43.6723 0.0000 0.0000
# 5 0.0000 0.0000 0.0001 0.0000 -8.5326 0.0000
# 6 0.0000 0.0000 0.0001 0.0000 0.0000 -7.0402
#
#
#
# Elastic Compliance Matrix: (Units=1/GPa)
#
#
# Indices 1 2 3 4 5 6 
#
# 1 0.015252 0.000561 -0.001282 0.000000 0.000000 0.000000
# 2 0.000561 0.008932 -0.004442 0.000000 0.000000 0.000000
# 3 -0.001282 -0.004442 0.007146 0.000000 0.000000 0.000000
# 4 0.000000 0.000000 0.000000 0.022898 0.000000 0.000000
# 5 0.000000 0.000000 0.000000 0.000000 -0.117198 0.000000
# 6 0.000000 0.000000 0.000000 0.000000 0.000000 -0.142041
#
#
# Mechanical properties :
#
#
# Convention : Reuss Voigt Hill
#
# Bulk Modulus (GPa) = 47.61045 74.30196 60.95621
# Shear Modulus (GPa) = -26.64046 26.73549 0.04751
#
# Velocity S-wave (km/s) = -3.42289 3.42899 0.14456
# Velocity P-wave (km/s) = 2.30586 6.95375 5.18033
#
# Compressibility (1/GPa) = 0.02100379
#
# Stress axis : x y z
#
# Youngs Moduli (GPa) = 65.56675 111.95150 139.94567
#
# Poissons Ratio (x) = -0.06278 0.17939
# Poissons Ratio (y) = -0.03677 0.62163
# Poissons Ratio (z) = 0.08405 0.49728
#
# Static dielectric constant tensor:
#      x y z
#    x 1.881450 0.000000 0.000000 
#    y 0.000000 1.796500 0.000000 
#    z 0.000000 0.000000 1.902910 
# 
# From -- ./inp_files/4399.got.cif
#   From: 2010.05.17/outbox.cif.g08.bks.cpg/sg72_3_cif.got.tgz:4399.got - 2010.06.03 17:03:01.
