data_PCOD9525104
_publ_section_title
;
Structure prediction by ZEFSAII (Michael W. Deem and Ramdas Pophale) SiO2 
 PCOD9525104
Probable space group: I B A M
;
_chemical_formula_sum "Si O2"
_cell_formula_units_Z 68
_cell_length_a 10.318820
_cell_length_b 14.342220
_cell_length_c 21.187116
_cell_angle_alpha 90.000000
_cell_angle_beta 90.000000
_cell_angle_gamma 90.000000
_cell_volume 3135.582711
_symmetry_space_group_name_H-M "I B A M"
_symmetry_group_IT_number 72
_symmetry_cell_setting 'orthorhombic'
loop_
_space_group_symop_operation_xyz
x,y,z
-x,-y,z
x,-y,1/2-z
-x,y,1/2-z
-x,-y,-z
x,y,-z
-x,y,1/2+z
x,-y,1/2+z
1/2+x,1/2+y,1/2+z
1/2-x,1/2-y,1/2+z
1/2+x,1/2-y,-z
1/2-x,1/2+y,-z
1/2-x,1/2-y,1/2-z
1/2+x,1/2+y,1/2-z
1/2-x,1/2+y,z
1/2+x,1/2-y,z
loop_
_atom_site_type_symbol
_atom_site_label
_atom_site_fract_x
_atom_site_fract_y
_atom_site_fract_z
Si Si1 0.826935 0.147669 0.192079
Si Si2 0.681328 0.191234 0.931287
Si Si3 0.115679 0.641586 0.931316
Si Si4 0.886515 0.359209 0.796298
Si Si5 0.000000 0.000000 0.750000
O O1 0.735465 0.141357 0.130943
O O2 0.898570 0.247770 0.190151
O O3 0.743057 0.138482 0.255738
O O4 0.925362 0.065867 0.201500
O O5 0.524862 0.194296 0.929449
O O6 0.760339 0.289027 0.930284
O O7 0.714595 0.148543 0.000000
O O8 0.119491 0.590473 0.863830
O O9 0.118152 0.592566 0.000000
O O10 0.000000 0.389940 0.750000
#
# Coordination Sequence:
#
# PCOD9525104 Si02
#       5
#    16  16  16  16   4
#     4  10  21  33  55  80 113 145 179 231 281 330
#     4   9  17  30  50  79 112 148 184 227 276 330
#     4   9  17  28  49  82 117 142 181 235 280 320
#     4  10  17  32  55  83 105 142 187 225 272 326
#     4  12  24  40  52  84 116 142 180 240 284 332
#
# _framework density 21.68656
#
# number of rings (size 3 to 8) (size 9 to 14) (size 15 to 20)
#    0.000    2.353    3.529    0.000    0.000    0.000 
#    0.000    1.176    0.000    1.412    0.000    3.294 
#    0.000    0.000    0.000    0.000    0.000    0.000 
#
# Total GULP energy -189384.628151 kJ/mol
# GULP energy per Si atom -5570.136122 kJ/mol
# Density = 2.163720 g / cm^3
# Si number density = 21.686560 Si / 1000 Ang^3
#
#
#
# Elastic Constant Matrix: (Units=GPa)
#
#
# Indices 1 2 3 4 5 6 
#
# 1 31.8362 12.3504 10.1486 0.0000 0.0000 0.0000
# 2 12.3504 46.4003 3.2730 0.0000 0.0000 0.0000
# 3 10.1486 3.2730 219.8757 0.0000 0.0000 0.0000
# 4 0.0000 0.0000 0.0000 -36.0818 0.0000 0.0000
# 5 0.0000 0.0000 0.0000 0.0000 21.0113 0.0000
# 6 0.0000 0.0000 0.0000 0.0000 0.0000 15.5037
#
#
#
# Elastic Compliance Matrix: (Units=1/GPa)
#
#
# Indices 1 2 3 4 5 6 
#
# 1 0.035515 -0.009347 -0.001500 0.000000 0.000000 0.000000
# 2 -0.009347 0.024034 0.000074 0.000000 0.000000 0.000000
# 3 -0.001500 0.000074 0.004616 0.000000 0.000000 0.000000
# 4 0.000000 0.000000 0.000000 -0.027715 0.000000 0.000000
# 5 0.000000 0.000000 0.000000 0.000000 0.047594 0.000000
# 6 0.000000 0.000000 0.000000 0.000000 0.000000 0.064501
#
#
# Mechanical properties :
#
#
# Convention : Reuss Voigt Hill
#
# Bulk Modulus (GPa) = 23.46412 38.85069 31.15740
# Shear Modulus (GPa) = 27.12988 18.24264 22.68626
#
# Velocity S-wave (km/s) = 3.54078 2.90348 3.23785
# Velocity P-wave (km/s) = 5.24970 5.40313 5.32697
#
# Compressibility (1/GPa) = 0.04261826
#
# Stress axis : x y z
#
# Youngs Moduli (GPa) = 28.15702 41.60709 216.62997
#
# Poissons Ratio (x) = 0.38891 0.32497
# Poissons Ratio (y) = 0.26319 -0.01596
# Poissons Ratio (z) = 0.04224 -0.00306
#
# Static dielectric constant tensor:
#      x y z
#    x 1.802110 0.000000 0.000000 
#    y 0.000000 1.777510 0.000000 
#    z 0.000000 0.000000 1.978350 
# 
# From -- ./inp_files/36639.got.cif
#   From: 2010.05.17/outbox.cif.g08.bks.cpg/sg72_19_cif.got.tgz:36639.got - 2010.06.03 17:03:01.
