data_PCOD9525783
_publ_section_title
;
Structure prediction by ZEFSAII (Michael W. Deem and Ramdas Pophale) SiO2 
 PCOD9525783
Probable space group: I B A M
;
_chemical_formula_sum "Si O2"
_cell_formula_units_Z 116
_cell_length_a 23.543906
_cell_length_b 26.514509
_cell_length_c 9.557644
_cell_angle_alpha 90.000000
_cell_angle_beta 90.000000
_cell_angle_gamma 90.000000
_cell_volume 5966.408083
_symmetry_space_group_name_H-M "I B A M"
_symmetry_group_IT_number 72
_symmetry_cell_setting 'orthorhombic'
loop_
_space_group_symop_operation_xyz
x,y,z
-x,-y,z
x,-y,1/2-z
-x,y,1/2-z
-x,-y,-z
x,y,-z
-x,y,1/2+z
x,-y,1/2+z
1/2+x,1/2+y,1/2+z
1/2-x,1/2-y,1/2+z
1/2+x,1/2-y,-z
1/2-x,1/2+y,-z
1/2-x,1/2-y,1/2-z
1/2+x,1/2+y,1/2-z
1/2-x,1/2+y,z
1/2+x,1/2-y,z
loop_
_atom_site_type_symbol
_atom_site_label
_atom_site_fract_x
_atom_site_fract_y
_atom_site_fract_z
Si Si1 0.159469 0.648133 0.666330
Si Si2 0.000000 0.000000 0.750000
Si Si3 0.829481 0.449922 0.841778
Si Si4 0.591592 0.682236 0.831032
Si Si5 0.716886 0.660861 0.157365
Si Si6 0.448049 0.220689 0.665603
Si Si7 0.300954 0.441931 0.281953
Si Si8 0.425046 0.409694 0.648770
O O1 0.166326 0.635526 0.500000
O O2 0.148176 0.598227 0.756514
O O3 0.220598 0.669827 0.718604
O O4 0.108685 0.687393 0.677972
O O5 0.959529 0.038598 0.667123
O O6 0.839076 0.500000 0.750000
O O7 0.760948 0.442650 0.851574
O O8 0.851609 0.453900 0.000000
O O9 0.658329 0.682615 0.784031
O O10 0.562697 0.727337 0.748066
O O11 0.567136 0.628908 0.776561
O O12 0.587995 0.686056 0.000000
O O13 0.708232 0.599925 0.160912
O O14 0.719245 0.679858 0.000000
O O15 0.500000 0.195637 0.750000
O O16 0.460175 0.227855 0.500000
O O17 0.312493 0.500000 0.250000
O O18 0.358069 0.422603 0.353677
O O19 0.440764 0.385585 0.500000
#
# Coordination Sequence:
#
# PCOD9525783 Si02
#       8
#    16   4  16  16  16  16  16  16
#     4   9  19  37  60  87 120 153 190 234 284 341
#     4  12  26  40  52  78 106 156 200 258 298 336
#     4  10  19  31  54  87 121 154 187 224 277 339
#     4  10  22  40  62  86 114 148 189 241 297 351
#     4   8  16  32  55  83 114 146 181 230 290 347
#     4  11  24  42  64  87 113 151 194 239 287 340
#     4   9  17  31  49  77 108 146 188 234 285 340
#     4  11  23  39  56  76 106 146 197 248 296 344
#
# _framework density 19.442184999999998
#
# number of rings (size 3 to 8) (size 9 to 14) (size 15 to 20)
#    0.000    2.207    0.690    1.862    0.966    6.621 
#    0.000    0.690    0.000    0.414    0.000    2.897 
#    0.000    0.000    0.000    0.000    0.000    0.000 
#
# Total GULP energy -322998.509373 kJ/mol
# GULP energy per Si atom -5568.939817 kJ/mol
# Density = 1.939793 g / cm^3
# Si number density = 19.442185 Si / 1000 Ang^3
#
#
#
# Elastic Constant Matrix: (Units=GPa)
#
#
# Indices 1 2 3 4 5 6 
#
# 1 93.0510 34.3584 37.4911 0.0000 0.0000 0.0000
# 2 34.3584 68.0094 45.0683 0.0000 0.0000 0.0000
# 3 37.4911 45.0683 120.5981 0.0000 0.0000 0.0000
# 4 0.0000 0.0000 0.0000 24.9647 0.0000 0.0000
# 5 0.0000 0.0000 0.0000 0.0000 5.1997 0.0000
# 6 0.0000 0.0000 0.0000 0.0000 0.0000 18.2407
#
#
#
# Elastic Compliance Matrix: (Units=1/GPa)
#
#
# Indices 1 2 3 4 5 6 
#
# 1 0.013642 -0.005425 -0.002214 0.000000 0.000000 0.000000
# 2 -0.005425 0.021701 -0.006423 0.000000 0.000000 0.000000
# 3 -0.002214 -0.006423 0.011381 0.000000 0.000000 0.000000
# 4 0.000000 0.000000 0.000000 0.040057 0.000000 0.000000
# 5 0.000000 0.000000 0.000000 0.000000 0.192319 0.000000
# 6 0.000000 0.000000 0.000000 0.000000 0.000000 0.054823
#
#
# Mechanical properties :
#
#
# Convention : Reuss Voigt Hill
#
# Bulk Modulus (GPa) = 53.76416 57.27713 55.52065
# Shear Modulus (GPa) = 13.57790 20.66372 17.12081
#
# Velocity S-wave (km/s) = 2.64554 3.26364 2.97071
# Velocity P-wave (km/s) = 6.08648 6.61256 6.35497
#
# Compressibility (1/GPa) = 0.01859975
#
# Stress axis : x y z
#
# Youngs Moduli (GPa) = 73.30414 46.08044 87.86872
#
# Poissons Ratio (x) = 0.24999 0.19450
# Poissons Ratio (y) = 0.39767 0.56441
# Poissons Ratio (z) = 0.16226 0.29599
#
# Static dielectric constant tensor:
#      x y z
#    x 1.720780 0.000000 0.000000 
#    y 0.000000 1.655900 0.000000 
#    z 0.000000 0.000000 1.699290 
# 
# From -- ./inp_files/7356.got.cif
#   From: 2010.05.17/outbox.cif.g08.bks.cpg/sg72_4_cif.got.tgz:7356.got - 2010.06.03 17:03:01.
