data_PCOD9525358
_publ_section_title
;
Structure prediction by ZEFSAII (Michael W. Deem and Ramdas Pophale) SiO2 
 PCOD9525358
Probable space group: I B A M
;
_chemical_formula_sum "Si O2"
_cell_formula_units_Z 116
_cell_length_a 36.546826
_cell_length_b 25.093401
_cell_length_c 8.604421
_cell_angle_alpha 90.000000
_cell_angle_beta 90.000000
_cell_angle_gamma 90.000000
_cell_volume 7890.978206
_symmetry_space_group_name_H-M "I B A M"
_symmetry_group_IT_number 72
_symmetry_cell_setting 'orthorhombic'
loop_
_space_group_symop_operation_xyz
x,y,z
-x,-y,z
x,-y,1/2-z
-x,y,1/2-z
-x,-y,-z
x,y,-z
-x,y,1/2+z
x,-y,1/2+z
1/2+x,1/2+y,1/2+z
1/2-x,1/2-y,1/2+z
1/2+x,1/2-y,-z
1/2-x,1/2+y,-z
1/2-x,1/2-y,1/2-z
1/2+x,1/2+y,1/2-z
1/2-x,1/2+y,z
1/2+x,1/2-y,z
loop_
_atom_site_type_symbol
_atom_site_label
_atom_site_fract_x
_atom_site_fract_y
_atom_site_fract_z
Si Si1 0.460287 0.290110 0.686499
Si Si2 0.000000 0.000000 0.750000
Si Si3 0.135445 0.894733 0.813297
Si Si4 0.559431 0.589296 0.313880
Si Si5 0.117382 0.773275 0.813599
Si Si6 0.745887 0.664877 0.686495
Si Si7 0.808213 0.260420 0.313598
Si Si8 0.786692 0.058884 0.186798
O O1 0.500000 0.272570 0.750000
O O2 0.460981 0.287846 0.500000
O O3 0.453772 0.351805 0.737291
O O4 0.423138 0.261977 0.747229
O O5 0.968748 0.954046 0.759044
O O6 0.099321 0.922976 0.751957
O O7 0.129609 0.833257 0.762659
O O8 0.172719 0.922153 0.759591
O O9 0.135753 0.894838 0.000000
O O10 0.560655 0.589506 0.500000
O O11 0.150925 0.737872 0.753287
O O12 0.115693 0.772120 0.000000
O O13 0.746699 0.663069 0.500000
O O14 0.782431 0.692760 0.749882
O O15 0.712677 0.705214 0.733516
O O16 0.739274 0.606291 0.753751
O O17 0.809216 0.261857 0.500000
O O18 0.778620 0.000000 0.250000
O O19 0.786109 0.057717 0.000000
#
# Coordination Sequence:
#
# PCOD9525358 Si02
#       8
#    16   4  16  16  16  16  16  16
#     4  10  19  33  47  63  83 110 142 179 226 278
#     4  12  22  36  44  62  74 100 136 190 238 288
#     4   9  20  35  49  63  84 109 141 184 232 279
#     4  10  22  34  46  58  74 100 135 179 228 280
#     4  10  18  31  50  70  90 115 147 187 232 282
#     4  10  20  33  50  71  95 123 153 189 232 280
#     4  10  19  31  50  74  97 120 148 189 235 282
#     4  11  22  36  50  68  92 122 155 191 231 280
#
# _framework density 14.700332
#
# number of rings (size 3 to 8) (size 9 to 14) (size 15 to 20)
#    0.000    1.931    2.069    2.276    0.966    4.414 
#    0.000    0.000    0.000    0.000    0.000    0.000 
#    0.000    0.000    0.000    0.000    0.000    0.690 
#
# Total GULP energy -323044.336018 kJ/mol
# GULP energy per Si atom -5569.729931 kJ/mol
# Density = 1.466687 g / cm^3
# Si number density = 14.700332 Si / 1000 Ang^3
#
#
#
# Elastic Constant Matrix: (Units=GPa)
#
#
# Indices 1 2 3 4 5 6 
#
# 1 133.1896 49.6832 32.9082 0.0000 0.0000 0.0000
# 2 49.6832 61.9167 19.6065 0.0000 0.0000 0.0000
# 3 32.9082 19.6065 32.3571 0.0000 0.0000 0.0000
# 4 0.0000 0.0000 0.0000 40.2375 0.0000 0.0000
# 5 0.0000 0.0000 0.0000 0.0000 55.7007 0.0000
# 6 0.0000 0.0000 0.0000 0.0000 0.0000 24.7116
#
#
#
# Elastic Compliance Matrix: (Units=1/GPa)
#
#
# Indices 1 2 3 4 5 6 
#
# 1 0.012189 -0.007245 -0.008006 0.000000 0.000000 0.000000
# 2 -0.007245 0.024292 -0.007351 0.000000 0.000000 0.000000
# 3 -0.008006 -0.007351 0.043502 0.000000 0.000000 0.000000
# 4 0.000000 0.000000 0.000000 0.024852 0.000000 0.000000
# 5 0.000000 0.000000 0.000000 0.000000 0.017953 0.000000
# 6 0.000000 0.000000 0.000000 0.000000 0.000000 0.040467
#
#
# Mechanical properties :
#
#
# Convention : Reuss Voigt Hill
#
# Bulk Modulus (GPa) = 28.75372 47.98434 38.36903
# Shear Modulus (GPa) = 22.72171 32.48098 27.60135
#
# Velocity S-wave (km/s) = 3.93575 4.70567 4.33783
# Velocity P-wave (km/s) = 6.34475 7.88905 7.15866
#
# Compressibility (1/GPa) = 0.03477811
#
# Stress axis : x y z
#
# Youngs Moduli (GPa) = 82.04111 41.16525 22.98740
#
# Poissons Ratio (x) = 0.29826 0.18404
# Poissons Ratio (y) = 0.59442 0.16898
# Poissons Ratio (z) = 0.65685 0.30260
#
# Static dielectric constant tensor:
#      x y z
#    x 1.494530 0.000000 0.000000 
#    y 0.000000 1.465740 0.000000 
#    z 0.000000 0.000000 1.540420 
# 
# From -- ./inp_files/8708.got.cif
#   From: 2010.05.17/outbox.cif.g08.bks.cpg/sg72_5_cif.got.tgz:8708.got - 2010.06.03 17:03:01.
