data_PCOD9525563
_publ_section_title
;
Structure prediction by ZEFSAII (Michael W. Deem and Ramdas Pophale) SiO2 
 PCOD9525563
Probable space group: I B A M
;
_chemical_formula_sum "Si O2"
_cell_formula_units_Z 112
_cell_length_a 12.723884
_cell_length_b 26.512000
_cell_length_c 15.158203
_cell_angle_alpha 90.000000
_cell_angle_beta 90.000000
_cell_angle_gamma 90.000000
_cell_volume 5113.401695
_symmetry_space_group_name_H-M "I B A M"
_symmetry_group_IT_number 72
_symmetry_cell_setting 'orthorhombic'
loop_
_space_group_symop_operation_xyz
x,y,z
-x,-y,z
x,-y,1/2-z
-x,y,1/2-z
-x,-y,-z
x,y,-z
-x,y,1/2+z
x,-y,1/2+z
1/2+x,1/2+y,1/2+z
1/2-x,1/2-y,1/2+z
1/2+x,1/2-y,-z
1/2-x,1/2+y,-z
1/2-x,1/2-y,1/2-z
1/2+x,1/2+y,1/2-z
1/2-x,1/2+y,z
1/2+x,1/2-y,z
loop_
_atom_site_type_symbol
_atom_site_label
_atom_site_fract_x
_atom_site_fract_y
_atom_site_fract_z
Si Si1 0.362551 0.394591 0.150723
Si Si2 0.459252 0.843614 0.395813
Si Si3 0.898288 0.107770 0.362091
Si Si4 0.749097 0.297062 0.104060
Si Si5 0.565062 0.956545 0.842559
Si Si6 0.686714 0.812679 0.392987
Si Si7 0.804415 0.994414 0.848665
O O1 0.479711 0.385028 0.115118
O O2 0.378897 0.395221 0.256535
O O3 0.279522 0.350842 0.131534
O O4 0.318661 0.448730 0.116612
O O5 0.463597 0.832155 0.500000
O O6 0.361730 0.812707 0.356755
O O7 0.434236 0.902369 0.385832
O O8 0.574143 0.831977 0.358986
O O9 0.829017 0.155495 0.389843
O O10 0.860716 0.052657 0.395094
O O11 0.706746 0.244175 0.139564
O O12 0.764910 0.288357 0.000000
O O13 0.500000 0.950061 0.750000
O O14 0.683643 0.976931 0.836809
O O15 0.500000 0.000000 0.891553
O O16 0.682600 0.812445 0.500000
O O17 0.851244 0.000000 0.750000
#
# Coordination Sequence:
#
# PCOD9525563 Si02
#       7
#    16  16  16  16  16  16  16
#     4  10  22  38  60  87 119 150 194 240 286 343
#     4  10  22  39  57  85 117 148 191 239 291 339
#     4  10  21  38  60  88 115 155 193 236 291 340
#     4  10  22  40  62  84 113 154 197 240 288 346
#     4  11  20  32  57  88 114 153 192 227 279 345
#     4  10  23  40  61  85 114 155 195 240 291 342
#     4  10  18  35  57  86 118 149 190 233 285 342
#
# _framework density 21.903229
#
# number of rings (size 3 to 8) (size 9 to 14) (size 15 to 20)
#    0.000    1.857    2.857    1.286    4.000    3.143 
#    0.000    1.429    0.000    1.714    0.000    0.000 
#    0.000    0.000    0.000    0.000    0.000    0.000 
#
# Total GULP energy -312566.338011 kJ/mol
# GULP energy per Si atom -5581.541750 kJ/mol
# Density = 2.185338 g / cm^3
# Si number density = 21.903229 Si / 1000 Ang^3
#
#
#
# Elastic Constant Matrix: (Units=GPa)
#
#
# Indices 1 2 3 4 5 6 
#
# 1 185.6466 97.3966 7.9941 0.0000 0.0000 0.0000
# 2 97.3966 188.2152 -1.1418 0.0000 0.0000 0.0000
# 3 7.9941 -1.1418 35.3034 0.0003 0.0000 0.0001
# 4 0.0000 0.0000 0.0003 0.6544 0.0000 0.0000
# 5 0.0000 0.0000 0.0000 0.0000 13.3633 0.0000
# 6 0.0000 0.0000 0.0001 0.0000 0.0000 3.8994
#
#
#
# Elastic Compliance Matrix: (Units=1/GPa)
#
#
# Indices 1 2 3 4 5 6 
#
# 1 0.007510 -0.003897 -0.001827 0.000001 0.000000 0.000000
# 2 -0.003897 0.007337 0.001120 -0.000001 0.000000 0.000000
# 3 -0.001827 0.001120 0.028776 -0.000012 0.000000 -0.000001
# 4 0.000001 -0.000001 -0.000012 1.528116 0.000002 -0.000005
# 5 0.000000 0.000000 0.000000 0.000002 0.074832 0.000000
# 6 0.000000 0.000000 -0.000001 -0.000005 0.000000 0.256450
#
#
# Mechanical properties :
#
#
# Convention : Reuss Voigt Hill
#
# Bulk Modulus (GPa) = 29.05788 68.62924 48.84356
# Shear Modulus (GPa) = 2.59916 23.91116 13.25516
#
# Velocity S-wave (km/s) = 1.09052 3.30763 2.46269
# Velocity P-wave (km/s) = 3.85758 6.78146 5.51675
#
# Compressibility (1/GPa) = 0.03441407
#
# Stress axis : x y z
#
# Youngs Moduli (GPa) = 133.15824 136.30317 34.75150
#
# Poissons Ratio (x) = 0.53121 0.06348
# Poissons Ratio (y) = 0.51895 -0.03891
# Poissons Ratio (z) = 0.24322 -0.15263
#
# Static dielectric constant tensor:
#      x y z
#    x 1.804150 0.000000 0.000000 
#    y 0.000000 1.785920 0.000000 
#    z 0.000000 0.000000 1.866700 
# 
# From -- ./inp_files/37325.got.cif
#   From: 2010.05.17/outbox.cif.g08.bks.cpg/sg72_19_cif.got.tgz:37325.got - 2010.06.03 17:03:01.
