data_PCOD9525890
_publ_section_title
;
Structure prediction by ZEFSAII (Michael W. Deem and Ramdas Pophale) SiO2 
 PCOD9525890
Probable space group: I B A M
;
_chemical_formula_sum "Si O2"
_cell_formula_units_Z 108
_cell_length_a 15.338107
_cell_length_b 17.672606
_cell_length_c 20.497261
_cell_angle_alpha 90.000000
_cell_angle_beta 90.000000
_cell_angle_gamma 90.000000
_cell_volume 5556.076152
_symmetry_space_group_name_H-M "I B A M"
_symmetry_group_IT_number 72
_symmetry_cell_setting 'orthorhombic'
loop_
_space_group_symop_operation_xyz
x,y,z
-x,-y,z
x,-y,1/2-z
-x,y,1/2-z
-x,-y,-z
x,y,-z
-x,y,1/2+z
x,-y,1/2+z
1/2+x,1/2+y,1/2+z
1/2-x,1/2-y,1/2+z
1/2+x,1/2-y,-z
1/2-x,1/2+y,-z
1/2-x,1/2-y,1/2-z
1/2+x,1/2+y,1/2-z
1/2-x,1/2+y,z
1/2+x,1/2-y,z
loop_
_atom_site_type_symbol
_atom_site_label
_atom_site_fract_x
_atom_site_fract_y
_atom_site_fract_z
Si Si1 0.892584 0.665278 0.889155
Si Si2 0.352786 0.774081 0.252618
Si Si3 0.225271 0.500000 0.250000
Si Si4 0.593070 0.170629 0.393718
Si Si5 0.794896 0.811034 0.429630
Si Si6 0.600188 0.995443 0.127383
Si Si7 0.635265 0.385091 0.702758
Si Si8 0.000000 0.000000 0.250000
O O1 0.880376 0.681124 0.811742
O O2 0.808180 0.703577 0.920508
O O3 0.884283 0.576226 0.906067
O O4 0.991061 0.688998 0.905445
O O5 0.250000 0.750000 0.250000
O O6 0.382463 0.819650 0.316746
O O7 0.394482 0.690839 0.260392
O O8 0.166201 0.491903 0.313050
O O9 0.285749 0.573399 0.259880
O O10 0.654114 0.231965 0.426901
O O11 0.607731 0.082951 0.411616
O O12 0.809722 0.847719 0.500000
O O13 0.830250 0.859541 0.368298
O O14 0.500000 0.000000 0.151351
O O15 0.559276 0.446540 0.704961
#
# Coordination Sequence:
#
# PCOD9525890 Si02
#       8
#    16  16   8  16  16  16  16   4
#     4  11  21  37  60  91 124 162 196 252 324 365
#     4  11  18  33  57  91 126 156 196 249 314 367
#     4  11  17  31  57  88 124 156 187 243 315 369
#     4  10  22  35  61  89 123 158 201 256 308 369
#     4  11  24  44  62  85 122 169 220 255 299 370
#     4  10  19  32  53  93 126 148 184 241 313 381
#     4  10  22  37  59  92 123 161 201 254 312 375
#     4  10  24  40  64  96 130 158 198 254 340 378
#
# _framework density 19.438178000000001
#
# number of rings (size 3 to 8) (size 9 to 14) (size 15 to 20)
#    0.000    1.481    4.444    2.444    4.148    2.963 
#    0.000    1.111    0.000    2.667    0.000    0.000 
#    0.000    0.000    0.000    0.000    0.000    0.000 
#
# Total GULP energy -301303.284596 kJ/mol
# GULP energy per Si atom -5579.690455 kJ/mol
# Density = 1.939394 g / cm^3
# Si number density = 19.438178 Si / 1000 Ang^3
#
#
#
# Elastic Constant Matrix: (Units=GPa)
#
#
# Indices 1 2 3 4 5 6 
#
# 1 140.1719 48.3924 15.5445 0.0000 0.0000 0.0000
# 2 48.3924 113.9561 12.7642 0.0000 0.0000 0.0000
# 3 15.5445 12.7642 59.0403 0.0000 0.0000 0.0000
# 4 0.0000 0.0000 0.0000 2.2311 0.0000 0.0000
# 5 0.0000 0.0000 0.0000 0.0000 -4.0017 0.0000
# 6 0.0000 0.0000 0.0000 0.0000 0.0000 32.2243
#
#
#
# Elastic Compliance Matrix: (Units=1/GPa)
#
#
# Indices 1 2 3 4 5 6 
#
# 1 0.008486 -0.003437 -0.001491 0.000000 0.000000 0.000000
# 2 -0.003437 0.010385 -0.001340 0.000000 0.000000 0.000000
# 3 -0.001491 -0.001340 0.017620 0.000000 0.000000 0.000000
# 4 0.000000 0.000000 0.000000 0.448200 0.000000 0.000000
# 5 0.000000 0.000000 0.000000 0.000000 -0.249892 0.000000
# 6 0.000000 0.000000 0.000000 0.000000 0.000000 0.031032
#
#
# Mechanical properties :
#
#
# Convention : Reuss Voigt Hill
#
# Bulk Modulus (GPa) = 41.74605 51.84117 46.79361
# Shear Modulus (GPa) = 17.46096 21.85521 19.65809
#
# Velocity S-wave (km/s) = 3.00039 3.35676 3.18357
# Velocity P-wave (km/s) = 5.79017 6.46154 6.13504
#
# Compressibility (1/GPa) = 0.02395436
#
# Stress axis : x y z
#
# Youngs Moduli (GPa) = 117.84255 96.29446 56.75373
#
# Poissons Ratio (x) = 0.33092 0.08463
# Poissons Ratio (y) = 0.40497 0.07607
# Poissons Ratio (z) = 0.17573 0.12907
#
# Static dielectric constant tensor:
#      x y z
#    x 1.703730 0.000000 0.000000 
#    y 0.000000 1.704180 0.000000 
#    z 0.000000 0.000000 1.662360 
# 
# From -- ./inp_files/39249.got.cif
#   From: 2010.05.17/outbox.cif.g08.bks.cpg/sg72_20_cif.got.tgz:39249.got - 2010.06.03 17:03:01.
