data_PCOD9525992
_publ_section_title
;
Structure prediction by ZEFSAII (Michael W. Deem and Ramdas Pophale) SiO2 
 PCOD9525992
Probable space group: I B A M
;
_chemical_formula_sum "Si O2"
_cell_formula_units_Z 96
_cell_length_a 31.812088
_cell_length_b 9.144874
_cell_length_c 14.316004
_cell_angle_alpha 90.000000
_cell_angle_beta 90.000000
_cell_angle_gamma 90.000000
_cell_volume 4164.776615
_symmetry_space_group_name_H-M "I B A M"
_symmetry_group_IT_number 72
_symmetry_cell_setting 'orthorhombic'
loop_
_space_group_symop_operation_xyz
x,y,z
-x,-y,z
x,-y,1/2-z
-x,y,1/2-z
-x,-y,-z
x,y,-z
-x,y,1/2+z
x,-y,1/2+z
1/2+x,1/2+y,1/2+z
1/2-x,1/2-y,1/2+z
1/2+x,1/2-y,-z
1/2-x,1/2+y,-z
1/2-x,1/2-y,1/2-z
1/2+x,1/2+y,1/2-z
1/2-x,1/2+y,z
1/2+x,1/2-y,z
loop_
_atom_site_type_symbol
_atom_site_label
_atom_site_fract_x
_atom_site_fract_y
_atom_site_fract_z
Si Si1 0.871667 0.425758 0.393399
Si Si2 0.041206 0.907733 0.886794
Si Si3 0.542174 0.930063 0.148042
Si Si4 0.792397 0.389801 0.885608
Si Si5 0.878901 0.099522 0.614103
Si Si6 0.207585 0.944147 0.886190
O O1 0.858591 0.393577 0.500000
O O2 0.914021 0.519946 0.396108
O O3 0.833245 0.519864 0.354461
O O4 0.880916 0.266596 0.350474
O O5 0.039206 0.743959 0.848771
O O6 0.082316 0.997825 0.857362
O O7 0.042127 0.893012 0.000000
O O8 0.000000 0.000000 0.862393
O O9 0.500000 0.000000 0.104232
O O10 0.544266 0.000000 0.250000
O O11 0.793029 0.222744 0.852620
O O12 0.749674 0.471228 0.858489
O O13 0.793199 0.384133 0.000000
O O14 0.881315 0.101755 0.500000
O O15 0.834525 0.029263 0.640607
O O16 0.207808 0.940247 0.000000
#
# Coordination Sequence:
#
# PCOD9525992 Si02
#       6
#    16  16  16  16  16  16
#     4  10  19  33  54  79 106 139 181 226 272 322
#     4  10  20  36  60  87 112 142 184 234 283 328
#     4  11  24  40  55  78 110 144 181 220 272 335
#     4   9  16  25  42  70 104 140 174 216 268 319
#     4   9  17  29  48  77 109 139 176 222 271 323
#     4   9  15  24  39  67 107 141 171 214 271 326
#
# _framework density 23.050457000000002
#
# number of rings (size 3 to 8) (size 9 to 14) (size 15 to 20)
#    0.000    2.333    0.000    3.500    0.000    9.333 
#    0.000    5.833    0.000    0.000    0.000   10.500 
#    0.000    0.000    0.000    0.000    0.000    0.000 
#
# Total GULP energy -268534.962916 kJ/mol
# GULP energy per Si atom -5594.478394 kJ/mol
# Density = 2.299799 g / cm^3
# Si number density = 23.050457 Si / 1000 Ang^3
#
#
#
# Elastic Constant Matrix: (Units=GPa)
#
#
# Indices 1 2 3 4 5 6 
#
# 1 222.3625 126.2367 -5.0938 0.0000 0.0000 0.0000
# 2 126.2367 261.2651 7.9926 0.0000 0.0000 0.0000
# 3 -5.0938 7.9926 74.0197 0.0000 0.0000 0.0000
# 4 0.0000 0.0000 0.0000 8.3893 0.0000 0.0000
# 5 0.0000 0.0000 0.0000 0.0000 27.9175 0.0000
# 6 0.0000 0.0000 0.0000 0.0000 0.0000 43.0174
#
#
#
# Elastic Compliance Matrix: (Units=1/GPa)
#
#
# Indices 1 2 3 4 5 6 
#
# 1 0.006239 -0.003038 0.000757 0.000000 0.000000 0.000000
# 2 -0.003038 0.005319 -0.000783 0.000000 0.000000 0.000000
# 3 0.000757 -0.000783 0.013647 0.000000 0.000000 0.000000
# 4 0.000000 0.000000 0.000000 0.119199 0.000000 0.000000
# 5 0.000000 0.000000 0.000000 0.000000 0.035820 0.000000
# 6 0.000000 0.000000 0.000000 0.000000 0.000000 0.023246
#
#
# Mechanical properties :
#
#
# Convention : Reuss Voigt Hill
#
# Bulk Modulus (GPa) = 52.41808 90.65757 71.53783
# Shear Modulus (GPa) = 23.15276 44.43229 33.79252
#
# Velocity S-wave (km/s) = 3.17273 4.39522 3.83302
# Velocity P-wave (km/s) = 6.01760 8.07296 7.11984
#
# Compressibility (1/GPa) = 0.01907739
#
# Stress axis : x y z
#
# Youngs Moduli (GPa) = 160.28098 187.99661 73.27813
#
# Poissons Ratio (x) = 0.57108 -0.05550
# Poissons Ratio (y) = 0.48689 0.05741
# Poissons Ratio (z) = -0.12139 0.14728
#
# Static dielectric constant tensor:
#      x y z
#    x 1.814740 0.000000 0.000000 
#    y 0.000000 1.792470 0.000000 
#    z 0.000000 0.000000 2.006300 
# 
# From -- ./inp_files/40672.got.cif
#   From: 2010.05.17/outbox.cif.g08.bks.cpg/sg72_21_cif.got.tgz:40672.got - 2010.06.03 17:03:01.
