data_PCOD9525942
_publ_section_title
;
Structure prediction by ZEFSAII (Michael W. Deem and Ramdas Pophale) SiO2 
 PCOD9525942
Probable space group: I B A M
;
_chemical_formula_sum "Si O2"
_cell_formula_units_Z 80
_cell_length_a 24.904895
_cell_length_b 23.666566
_cell_length_c 8.848054
_cell_angle_alpha 90.000000
_cell_angle_beta 90.000000
_cell_angle_gamma 90.000000
_cell_volume 5215.161072
_symmetry_space_group_name_H-M "I B A M"
_symmetry_group_IT_number 72
_symmetry_cell_setting 'orthorhombic'
loop_
_space_group_symop_operation_xyz
x,y,z
-x,-y,z
x,-y,1/2-z
-x,y,1/2-z
-x,-y,-z
x,y,-z
-x,y,1/2+z
x,-y,1/2+z
1/2+x,1/2+y,1/2+z
1/2-x,1/2-y,1/2+z
1/2+x,1/2-y,-z
1/2-x,1/2+y,-z
1/2-x,1/2-y,1/2-z
1/2+x,1/2+y,1/2-z
1/2-x,1/2+y,z
1/2+x,1/2-y,z
loop_
_atom_site_type_symbol
_atom_site_label
_atom_site_fract_x
_atom_site_fract_y
_atom_site_fract_z
Si Si1 0.556370 0.240140 0.818773
Si Si2 0.057155 0.606501 0.681421
Si Si3 0.665909 0.059499 0.679994
Si Si4 0.170720 0.221033 0.819753
Si Si5 0.267716 0.839759 0.178303
O O1 0.500000 0.259028 0.750000
O O2 0.563516 0.173474 0.781944
O O3 0.609044 0.274210 0.769088
O O4 0.553683 0.243500 0.000000
O O5 0.057227 0.600358 0.500000
O O6 0.107288 0.574372 0.752761
O O7 0.000000 0.588288 0.750000
O O8 0.663006 0.056252 0.500000
O O9 0.705857 0.109115 0.731574
O O10 0.683343 0.000000 0.750000
O O11 0.208415 0.176991 0.733963
O O12 0.196557 0.283279 0.796991
O O13 0.172610 0.209922 0.000000
O O14 0.268685 0.852128 0.000000
#
# Coordination Sequence:
#
# PCOD9525942 Si02
#       5
#    16  16  16  16  16
#     4   9  17  29  46  69  99 128 158 196 237 283
#     4  10  19  34  50  69  94 125 164 207 246 286
#     4  12  24  37  52  69  92 126 164 207 250 291
#     4   9  17  31  49  71  98 127 157 196 240 289
#     4  10  19  33  50  71  96 123 160 202 242 290
#
# _framework density 15.339891
#
# number of rings (size 3 to 8) (size 9 to 14) (size 15 to 20)
#    0.000    2.000    2.000    3.000    0.000    2.800 
#    0.000    2.000    0.000    0.000    0.000    0.000 
#    0.000    0.800    0.000    8.400    0.000    4.600 
#
# Total GULP energy -223251.334803 kJ/mol
# GULP energy per Si atom -5581.283370 kJ/mol
# Density = 1.530498 g / cm^3
# Si number density = 15.339891 Si / 1000 Ang^3
#
#
#
# Elastic Constant Matrix: (Units=GPa)
#
#
# Indices 1 2 3 4 5 6 
#
# 1 94.0316 30.6369 38.1884 0.0000 0.0000 0.0000
# 2 30.6369 50.9683 39.0110 0.0000 0.0000 0.0000
# 3 38.1884 39.0110 73.0573 0.0000 0.0000 0.0000
# 4 0.0000 0.0000 0.0000 20.7135 0.0000 0.0000
# 5 0.0000 0.0000 0.0000 0.0000 29.4102 0.0000
# 6 0.0000 0.0000 0.0000 0.0000 0.0000 11.0100
#
#
#
# Elastic Compliance Matrix: (Units=1/GPa)
#
#
# Indices 1 2 3 4 5 6 
#
# 1 0.014167 -0.004816 -0.004834 0.000000 0.000000 0.000000
# 2 -0.004816 0.034819 -0.016075 0.000000 0.000000 0.000000
# 3 -0.004834 -0.016075 0.024798 0.000000 0.000000 0.000000
# 4 0.000000 0.000000 0.000000 0.048278 0.000000 0.000000
# 5 0.000000 0.000000 0.000000 0.000000 0.034002 0.000000
# 6 0.000000 0.000000 0.000000 0.000000 0.000000 0.090826
#
#
# Mechanical properties :
#
#
# Convention : Reuss Voigt Hill
#
# Bulk Modulus (GPa) = 44.77381 48.19220 46.48301
# Shear Modulus (GPa) = 16.35141 19.57481 17.96311
#
# Velocity S-wave (km/s) = 3.26842 3.57609 3.42571
# Velocity P-wave (km/s) = 6.59504 6.96676 6.78345
#
# Compressibility (1/GPa) = 0.02233448
#
# Stress axis : x y z
#
# Youngs Moduli (GPa) = 70.58699 28.72013 40.32537
#
# Poissons Ratio (x) = 0.13832 0.19492
# Poissons Ratio (y) = 0.33995 0.64823
# Poissons Ratio (z) = 0.34119 0.46168
#
# Static dielectric constant tensor:
#      x y z
#    x 1.514040 0.000000 0.000000 
#    y 0.000000 1.492680 0.000000 
#    z 0.000000 0.000000 1.509590 
# 
# From -- ./inp_files/4790.got.cif
#   From: 2010.05.17/outbox.cif.g08.bks.cpg/sg72_3_cif.got.tgz:4790.got - 2010.06.03 17:03:01.
