data_PCOD9525878
_publ_section_title
;
Structure prediction by ZEFSAII (Michael W. Deem and Ramdas Pophale) SiO2 
 PCOD9525878
Probable space group: I B A M
;
_chemical_formula_sum "Si O2"
_cell_formula_units_Z 88
_cell_length_a 10.845827
_cell_length_b 20.316572
_cell_length_c 20.238883
_cell_angle_alpha 90.000000
_cell_angle_beta 90.000000
_cell_angle_gamma 90.000000
_cell_volume 4459.638378
_symmetry_space_group_name_H-M "I B A M"
_symmetry_group_IT_number 72
_symmetry_cell_setting 'orthorhombic'
loop_
_space_group_symop_operation_xyz
x,y,z
-x,-y,z
x,-y,1/2-z
-x,y,1/2-z
-x,-y,-z
x,y,-z
-x,y,1/2+z
x,-y,1/2+z
1/2+x,1/2+y,1/2+z
1/2-x,1/2-y,1/2+z
1/2+x,1/2-y,-z
1/2-x,1/2+y,-z
1/2-x,1/2-y,1/2-z
1/2+x,1/2+y,1/2-z
1/2-x,1/2+y,z
1/2+x,1/2-y,z
loop_
_atom_site_type_symbol
_atom_site_label
_atom_site_fract_x
_atom_site_fract_y
_atom_site_fract_z
Si Si1 0.053349 0.883640 0.423919
Si Si2 0.744393 0.374242 0.425146
Si Si3 0.244545 0.939344 0.208079
Si Si4 0.201164 0.763722 0.361037
Si Si5 0.367231 0.183356 0.236175
Si Si6 0.000000 0.000000 0.336442
O O1 0.089013 0.893330 0.500000
O O2 0.124668 0.821644 0.394128
O O3 0.905152 0.873382 0.422106
O O4 0.076858 0.949510 0.381942
O O5 0.780252 0.391636 0.500000
O O6 0.788225 0.423248 0.366693
O O7 0.788494 0.300906 0.405993
O O8 0.267253 0.872295 0.247411
O O9 0.099943 0.955780 0.200831
O O10 0.299035 0.000000 0.250000
O O11 0.335488 0.788799 0.335859
O O12 0.141399 0.740194 0.291617
O O13 0.500000 0.152447 0.250000
#
# Coordination Sequence:
#
# PCOD9525878 Si02
#       6
#    16  16  16  16  16   8
#     4  10  19  32  53  79 108 141 178 226 280 336
#     4   9  19  34  52  78 110 141 176 225 282 337
#     4  10  20  34  53  77 105 142 183 228 276 328
#     4  10  19  33  54  78 105 140 181 224 277 340
#     4  10  21  35  52  78 109 141 181 232 285 336
#     4  10  20  34  52  80 113 142 183 230 279 334
#
# _framework density 19.732541000000001
#
# number of rings (size 3 to 8) (size 9 to 14) (size 15 to 20)
#    0.000    2.182    0.000    3.273    0.000    4.000 
#    0.000    0.000    0.000    1.091    0.000    6.364 
#    0.000    0.000    0.000    0.000    0.000    0.000 
#
# Total GULP energy -245279.310440 kJ/mol
# GULP energy per Si atom -5574.529783 kJ/mol
# Density = 1.968763 g / cm^3
# Si number density = 19.732541 Si / 1000 Ang^3
#
#
#
# Elastic Constant Matrix: (Units=GPa)
#
#
# Indices 1 2 3 4 5 6 
#
# 1 33.7512 29.3402 14.9551 0.0000 0.0000 0.0000
# 2 29.3402 105.9451 44.8728 0.0000 0.0000 0.0000
# 3 14.9551 44.8728 109.7575 0.0000 0.0000 0.0000
# 4 0.0000 0.0000 0.0000 27.1540 0.0000 0.0000
# 5 0.0000 0.0000 0.0000 0.0000 16.5913 0.0000
# 6 0.0000 0.0000 0.0000 0.0000 0.0000 34.5593
#
#
#
# Elastic Compliance Matrix: (Units=1/GPa)
#
#
# Indices 1 2 3 4 5 6 
#
# 1 0.039131 -0.010375 -0.001090 0.000000 0.000000 0.000000
# 2 -0.010375 0.014166 -0.004378 0.000000 0.000000 0.000000
# 3 -0.001090 -0.004378 0.011049 0.000000 0.000000 0.000000
# 4 0.000000 0.000000 0.000000 0.036827 0.000000 0.000000
# 5 0.000000 0.000000 0.000000 0.000000 0.060272 0.000000
# 6 0.000000 0.000000 0.000000 0.000000 0.000000 0.028936
#
#
# Mechanical properties :
#
#
# Convention : Reuss Voigt Hill
#
# Bulk Modulus (GPa) = 30.61842 47.53222 39.07532
# Shear Modulus (GPa) = 21.46339 26.34664 23.90502
#
# Velocity S-wave (km/s) = 3.30163 3.65799 3.48437
# Velocity P-wave (km/s) = 5.48496 6.47933 6.00277
#
# Compressibility (1/GPa) = 0.03266008
#
# Stress axis : x y z
#
# Youngs Moduli (GPa) = 25.55542 70.58961 90.50238
#
# Poissons Ratio (x) = 0.73237 0.09866
# Poissons Ratio (y) = 0.26514 0.39622
# Poissons Ratio (z) = 0.02786 0.30905
#
# Static dielectric constant tensor:
#      x y z
#    x 1.749150 0.000000 0.000000 
#    y 0.000000 1.696060 0.000000 
#    z 0.000000 0.000000 1.767260 
# 
# From -- ./inp_files/36874.got.cif
#   From: 2010.05.17/outbox.cif.g08.bks.cpg/sg72_19_cif.got.tgz:36874.got - 2010.06.03 17:03:01.
