data_PCOD9525674
_publ_section_title
;
Structure prediction by ZEFSAII (Michael W. Deem and Ramdas Pophale) SiO2 
 PCOD9525674
Probable space group: I B A M
;
_chemical_formula_sum "Si O2"
_cell_formula_units_Z 96
_cell_length_a 24.354543
_cell_length_b 26.304577
_cell_length_c 8.312384
_cell_angle_alpha 90.000000
_cell_angle_beta 90.000000
_cell_angle_gamma 90.000000
_cell_volume 5325.212034
_symmetry_space_group_name_H-M "I B A M"
_symmetry_group_IT_number 72
_symmetry_cell_setting 'orthorhombic'
loop_
_space_group_symop_operation_xyz
x,y,z
-x,-y,z
x,-y,1/2-z
-x,y,1/2-z
-x,-y,-z
x,y,-z
-x,y,1/2+z
x,-y,1/2+z
1/2+x,1/2+y,1/2+z
1/2-x,1/2-y,1/2+z
1/2+x,1/2-y,-z
1/2-x,1/2+y,-z
1/2-x,1/2-y,1/2-z
1/2+x,1/2+y,1/2-z
1/2-x,1/2+y,z
1/2+x,1/2-y,z
loop_
_atom_site_type_symbol
_atom_site_label
_atom_site_fract_x
_atom_site_fract_y
_atom_site_fract_z
Si Si1 0.749014 0.193034 0.806313
Si Si2 0.187543 0.942525 0.692445
Si Si3 0.437516 0.249732 0.192711
Si Si4 0.686014 0.942500 0.192651
Si Si5 0.365534 0.346877 0.805816
Si Si6 0.367317 0.153401 0.307283
O O1 0.750000 0.250000 0.750000
O O2 0.805414 0.169930 0.746627
O O3 0.692337 0.170983 0.744733
O O4 0.748821 0.189162 0.000000
O O5 0.188942 0.940621 0.500000
O O6 0.250772 0.929608 0.751049
O O7 0.138503 0.905467 0.751609
O O8 0.177978 0.000000 0.750000
O O9 0.500000 0.250828 0.250000
O O10 0.406670 0.301888 0.249522
O O11 0.409182 0.196775 0.247955
O O12 0.435171 0.250165 0.000000
O O13 0.637441 0.905317 0.253896
O O14 0.676448 0.000000 0.250000
O O15 0.686894 0.940360 0.000000
O O16 0.367997 0.346615 0.000000
O O17 0.369572 0.154575 0.500000
#
# Coordination Sequence:
#
# PCOD9525674 Si02
#       6
#    16  16  16  16  16  16
#     4  10  19  30  48  77 111 143 176 217 270 331
#     4  10  20  32  51  79 114 151 185 221 267 326
#     4  11  24  41  59  80 108 144 187 234 280 327
#     4  10  20  33  51  79 115 152 186 222 267 323
#     4  10  20  35  54  78 111 146 181 224 274 328
#     4  11  21  34  55  81 112 147 182 224 273 329
#
# _framework density 18.027450000000002
#
# number of rings (size 3 to 8) (size 9 to 14) (size 15 to 20)
#    0.000    1.667    3.333    2.000    0.000    4.000 
#    0.000    0.000    0.000    1.000    0.000    7.000 
#    0.000    0.000    0.000    0.000    0.000    0.000 
#
# Total GULP energy -267220.673195 kJ/mol
# GULP energy per Si atom -5567.097358 kJ/mol
# Density = 1.798642 g / cm^3
# Si number density = 18.027450 Si / 1000 Ang^3
#
#
#
# Elastic Constant Matrix: (Units=GPa)
#
#
# Indices 1 2 3 4 5 6 
#
# 1 103.0817 69.3974 23.9051 0.0000 0.0000 0.0000
# 2 69.3974 148.6430 24.0981 0.0000 0.0000 0.0000
# 3 23.9051 24.0981 38.3569 0.0000 0.0000 0.0000
# 4 0.0000 0.0000 0.0000 33.3817 0.0000 0.0000
# 5 0.0000 0.0000 0.0000 0.0000 19.8965 0.0000
# 6 0.0000 0.0000 0.0000 0.0000 0.0000 14.3479
#
#
#
# Elastic Compliance Matrix: (Units=1/GPa)
#
#
# Indices 1 2 3 4 5 6 
#
# 1 0.015144 -0.006168 -0.005563 0.000000 0.000000 0.000000
# 2 -0.006168 0.010003 -0.002440 0.000000 0.000000 0.000000
# 3 -0.005563 -0.002440 0.031071 0.000000 0.000000 0.000000
# 4 0.000000 0.000000 0.000000 0.029957 0.000000 0.000000
# 5 0.000000 0.000000 0.000000 0.000000 0.050260 0.000000
# 6 0.000000 0.000000 0.000000 0.000000 0.000000 0.069697
#
#
# Mechanical properties :
#
#
# Convention : Reuss Voigt Hill
#
# Bulk Modulus (GPa) = 35.87429 58.32032 47.09730
# Shear Modulus (GPa) = 20.51157 25.03729 22.77443
#
# Velocity S-wave (km/s) = 3.37678 3.73076 3.55818
# Velocity P-wave (km/s) = 5.92845 7.13997 6.56223
#
# Compressibility (1/GPa) = 0.02787512
#
# Stress axis : x y z
#
# Youngs Moduli (GPa) = 66.03371 99.97012 32.18455
#
# Poissons Ratio (x) = 0.61666 0.17903
# Poissons Ratio (y) = 0.40732 0.07854
# Poissons Ratio (z) = 0.36732 0.24394
#
# Static dielectric constant tensor:
#      x y z
#    x 1.617750 0.000000 0.000000 
#    y 0.000000 1.722300 0.000000 
#    z 0.000000 0.000000 1.618810 
# 
# From -- ./inp_files/5990.got.cif
#   From: 2010.05.17/outbox.cif.g08.bks.cpg/sg72_3_cif.got.tgz:5990.got - 2010.06.03 17:03:01.
