data_PCOD9525949
_publ_section_title
;
Structure prediction by ZEFSAII (Michael W. Deem and Ramdas Pophale) SiO2 
 PCOD9525949
Probable space group: I B A M
;
_chemical_formula_sum "Si O2"
_cell_formula_units_Z 104
_cell_length_a 21.437776
_cell_length_b 28.986431
_cell_length_c 8.858717
_cell_angle_alpha 90.000000
_cell_angle_beta 90.000000
_cell_angle_gamma 90.000000
_cell_volume 5504.847625
_symmetry_space_group_name_H-M "I B A M"
_symmetry_group_IT_number 72
_symmetry_cell_setting 'orthorhombic'
loop_
_space_group_symop_operation_xyz
x,y,z
-x,-y,z
x,-y,1/2-z
-x,y,1/2-z
-x,-y,-z
x,y,-z
-x,y,1/2+z
x,-y,1/2+z
1/2+x,1/2+y,1/2+z
1/2-x,1/2-y,1/2+z
1/2+x,1/2-y,-z
1/2-x,1/2+y,-z
1/2-x,1/2-y,1/2-z
1/2+x,1/2+y,1/2-z
1/2-x,1/2+y,z
1/2+x,1/2-y,z
loop_
_atom_site_type_symbol
_atom_site_label
_atom_site_fract_x
_atom_site_fract_y
_atom_site_fract_z
Si Si1 0.198094 0.306710 0.320532
Si Si2 0.120272 0.777809 0.177916
Si Si3 0.252636 0.548962 0.178911
Si Si4 0.310306 0.361473 0.821051
Si Si5 0.909246 0.359083 0.667281
Si Si6 0.603548 0.049628 0.319199
Si Si7 0.500000 0.218276 0.250000
O O1 0.212631 0.305525 0.500000
O O2 0.172352 0.257735 0.260505
O O3 0.253058 0.328050 0.223195
O O4 0.139190 0.340042 0.291092
O O5 0.130693 0.830143 0.232082
O O6 0.053916 0.752903 0.194228
O O7 0.133008 0.779598 0.000000
O O8 0.270141 0.500000 0.250000
O O9 0.294109 0.590567 0.242080
O O10 0.178487 0.556060 0.210300
O O11 0.259102 0.547118 0.000000
O O12 0.313392 0.369539 0.000000
O O13 0.880786 0.364649 0.500000
O O14 0.928926 0.408654 0.730264
O O15 0.961380 0.319401 0.654417
O O16 0.593405 0.051049 0.500000
O O17 0.586476 0.000000 0.250000
#
# Coordination Sequence:
#
# PCOD9525949 Si02
#       7
#    16  16  16  16  16  16   8
#     4  10  19  33  51  75 110 145 179 222 269 322
#     4   9  20  36  53  75 106 143 184 229 273 318
#     4  10  20  34  53  80 114 149 178 216 265 325
#     4  11  20  32  53  81 112 144 178 220 270 327
#     4  11  21  34  56  80 105 142 186 229 275 325
#     4  10  20  34  54  78 109 143 179 226 273 323
#     4  10  22  40  57  76 105 144 190 232 272 320
#
# _framework density 18.892439
#
# number of rings (size 3 to 8) (size 9 to 14) (size 15 to 20)
#    0.000    1.846    1.538    3.231    0.000    3.077 
#    0.000    8.846    0.000    1.846    0.000    0.538 
#    0.000    3.692    0.000    0.000    0.000    0.000 
#
# Total GULP energy -289744.289059 kJ/mol
# GULP energy per Si atom -5572.005559 kJ/mol
# Density = 1.884944 g / cm^3
# Si number density = 18.892439 Si / 1000 Ang^3
#
#
#
# Elastic Constant Matrix: (Units=GPa)
#
#
# Indices 1 2 3 4 5 6 
#
# 1 41.7576 46.3663 6.4414 0.0000 0.0000 0.0000
# 2 46.3663 160.0609 33.1863 0.0000 0.0000 0.0000
# 3 6.4414 33.1863 55.2500 0.0000 0.0000 0.0000
# 4 0.0000 0.0000 0.0000 14.8469 0.0000 0.0000
# 5 0.0000 0.0000 0.0000 0.0000 -17.3646 0.0000
# 6 0.0000 0.0000 0.0000 0.0000 0.0000 22.1112
#
#
#
# Elastic Compliance Matrix: (Units=1/GPa)
#
#
# Indices 1 2 3 4 5 6 
#
# 1 0.035564 -0.010786 0.002332 0.000000 0.000000 0.000000
# 2 -0.010786 0.010407 -0.004994 0.000000 0.000000 0.000000
# 3 0.002332 -0.004994 0.020827 0.000000 0.000000 0.000000
# 4 0.000000 0.000000 0.000000 0.067354 0.000000 0.000000
# 5 0.000000 0.000000 0.000000 0.000000 -0.057588 0.000000
# 6 0.000000 0.000000 0.000000 0.000000 0.000000 0.045226
#
#
# Mechanical properties :
#
#
# Convention : Reuss Voigt Hill
#
# Bulk Modulus (GPa) = 25.06009 47.67293 36.36651
# Shear Modulus (GPa) = 30.86681 15.32368 23.09524
#
# Velocity S-wave (km/s) = 4.04644 2.85107 3.50016
# Velocity P-wave (km/s) = 5.92663 6.01056 5.96874
#
# Compressibility (1/GPa) = 0.03990409
#
# Stress axis : x y z
#
# Youngs Moduli (GPa) = 28.11823 96.08530 48.01411
#
# Poissons Ratio (x) = 1.03635 -0.11198
# Poissons Ratio (y) = 0.30328 0.23977
# Poissons Ratio (z) = -0.06558 0.47983
#
# Static dielectric constant tensor:
#      x y z
#    x 1.703500 0.000000 0.000000 
#    y 0.000000 1.708900 0.000000 
#    z 0.000000 0.000000 1.685290 
# 
# From -- ./inp_files/6185.got.cif
#   From: 2010.05.17/outbox.cif.g08.bks.cpg/sg72_4_cif.got.tgz:6185.got - 2010.06.03 17:03:01.
