data_PCOD9525785
_publ_section_title
;
Structure prediction by ZEFSAII (Michael W. Deem and Ramdas Pophale) SiO2 
 PCOD9525785
Probable space group: I B A M
;
_chemical_formula_sum "Si O2"
_cell_formula_units_Z 64
_cell_length_a 15.780157
_cell_length_b 8.272658
_cell_length_c 23.455214
_cell_angle_alpha 90.000000
_cell_angle_beta 90.000000
_cell_angle_gamma 90.000000
_cell_volume 3061.933752
_symmetry_space_group_name_H-M "I B A M"
_symmetry_group_IT_number 72
_symmetry_cell_setting 'orthorhombic'
loop_
_space_group_symop_operation_xyz
x,y,z
-x,-y,z
x,-y,1/2-z
-x,y,1/2-z
-x,-y,-z
x,y,-z
-x,y,1/2+z
x,-y,1/2+z
1/2+x,1/2+y,1/2+z
1/2-x,1/2-y,1/2+z
1/2+x,1/2-y,-z
1/2-x,1/2+y,-z
1/2-x,1/2-y,1/2-z
1/2+x,1/2+y,1/2-z
1/2-x,1/2+y,z
1/2+x,1/2-y,z
loop_
_atom_site_type_symbol
_atom_site_label
_atom_site_fract_x
_atom_site_fract_y
_atom_site_fract_z
Si Si1 0.722869 0.146275 0.935334
Si Si2 0.616747 0.819162 0.064380
Si Si3 0.793983 0.000000 0.250000
Si Si4 0.000000 0.500000 0.650964
Si Si5 0.845714 0.701662 0.817787
O O1 0.823492 0.164964 0.924900
O O2 0.673975 0.233610 0.884197
O O3 0.685191 0.965981 0.933577
O O4 0.707550 0.206505 0.000000
O O5 0.547145 0.869532 0.110145
O O6 0.581500 0.812406 0.000000
O O7 0.847469 0.865599 0.217427
O O8 0.732238 0.905227 0.293630
O O9 0.070632 0.594351 0.685942
#
# Coordination Sequence:
#
# PCOD9525785 Si02
#       5
#    16  16   8   8  16
#     4   9  17  31  55  83 110 143 186 229 279 344
#     4   9  17  30  52  82 114 149 185 228 283 345
#     4  10  22  39  62  81 112 160 208 236 272 350
#     4  10  19  31  56  86 118 144 183 241 298 340
#     4  10  20  37  60  86 113 153 197 243 289 339
#
# _framework density 20.901823
#
# number of rings (size 3 to 8) (size 9 to 14) (size 15 to 20)
#    0.000    2.500    0.000    3.375    0.000    1.500 
#    0.000    0.000    0.000   54.000    0.000   47.250 
#    0.000    0.000    0.000    1.125    0.000    0.000 
#
# Total GULP energy -178594.873021 kJ/mol
# GULP energy per Si atom -5581.089782 kJ/mol
# Density = 2.085425 g / cm^3
# Si number density = 20.901823 Si / 1000 Ang^3
#
#
#
# Elastic Constant Matrix: (Units=GPa)
#
#
# Indices 1 2 3 4 5 6 
#
# 1 63.8770 18.7953 41.6622 0.0000 0.0000 0.0000
# 2 18.7953 47.8913 44.7476 0.0000 0.0000 0.0000
# 3 41.6622 44.7476 95.0296 0.0000 0.0000 0.0000
# 4 0.0000 0.0000 0.0000 24.4082 0.0000 0.0000
# 5 0.0000 0.0000 0.0000 0.0000 10.8448 0.0000
# 6 0.0000 0.0000 0.0000 0.0000 0.0000 34.1624
#
#
#
# Elastic Compliance Matrix: (Units=1/GPa)
#
#
# Indices 1 2 3 4 5 6 
#
# 1 0.021936 0.000673 -0.009934 0.000000 0.000000 0.000000
# 2 0.000673 0.037305 -0.017861 0.000000 0.000000 0.000000
# 3 -0.009934 -0.017861 0.023289 0.000000 0.000000 0.000000
# 4 0.000000 0.000000 0.000000 0.040970 0.000000 0.000000
# 5 0.000000 0.000000 0.000000 0.000000 0.092210 0.000000
# 6 0.000000 0.000000 0.000000 0.000000 0.000000 0.029272
#
#
# Mechanical properties :
#
#
# Convention : Reuss Voigt Hill
#
# Bulk Modulus (GPa) = 35.35384 46.35646 40.85515
# Shear Modulus (GPa) = 16.19928 20.65593 18.42760
#
# Velocity S-wave (km/s) = 2.78693 3.14703 2.97244
# Velocity P-wave (km/s) = 5.22561 5.95243 5.60082
#
# Compressibility (1/GPa) = 0.02828547
#
# Stress axis : x y z
#
# Youngs Moduli (GPa) = 45.58647 26.80571 42.93907
#
# Poissons Ratio (x) = -0.01803 0.42656
# Poissons Ratio (y) = -0.03067 0.76695
# Poissons Ratio (z) = 0.45286 0.47879
#
# Static dielectric constant tensor:
#      x y z
#    x 1.736270 0.000000 0.000000 
#    y 0.000000 1.802520 0.000000 
#    z 0.000000 0.000000 1.789050 
# 
# From -- ./inp_files/43950.got.cif
#   From: 2010.05.17/outbox.cif.g08.bks.cpg/sg72_22_cif.got.tgz:43950.got - 2010.06.03 17:03:01.
