data_PCOD9525731
_publ_section_title
;
Structure prediction by ZEFSAII (Michael W. Deem and Ramdas Pophale) SiO2 
 PCOD9525731
Probable space group: I B A M
;
_chemical_formula_sum "Si O2"
_cell_formula_units_Z 116
_cell_length_a 17.608952
_cell_length_b 18.921128
_cell_length_c 14.389420
_cell_angle_alpha 90.000000
_cell_angle_beta 90.000000
_cell_angle_gamma 90.000000
_cell_volume 4794.284723
_symmetry_space_group_name_H-M "I B A M"
_symmetry_group_IT_number 72
_symmetry_cell_setting 'orthorhombic'
loop_
_space_group_symop_operation_xyz
x,y,z
-x,-y,z
x,-y,1/2-z
-x,y,1/2-z
-x,-y,-z
x,y,-z
-x,y,1/2+z
x,-y,1/2+z
1/2+x,1/2+y,1/2+z
1/2-x,1/2-y,1/2+z
1/2+x,1/2-y,-z
1/2-x,1/2+y,-z
1/2-x,1/2-y,1/2-z
1/2+x,1/2+y,1/2-z
1/2-x,1/2+y,z
1/2+x,1/2-y,z
loop_
_atom_site_type_symbol
_atom_site_label
_atom_site_fract_x
_atom_site_fract_y
_atom_site_fract_z
Si Si1 0.000000 0.500000 0.000000
Si Si2 0.946162 0.405623 0.840858
Si Si3 0.193213 0.754978 0.889992
Si Si4 0.872808 0.888103 0.729522
Si Si5 0.706071 0.895426 0.212957
Si Si6 0.493975 0.396374 0.396691
Si Si7 0.498953 0.759322 0.358673
Si Si8 0.348687 0.841540 0.901094
O O1 0.993805 0.440267 0.920076
O O2 0.860545 0.436870 0.841947
O O3 0.000000 0.410067 0.750000
O O4 0.938634 0.322183 0.865666
O O5 0.149848 0.811426 0.819375
O O6 0.211763 0.680315 0.839414
O O7 0.275410 0.791847 0.899072
O O8 0.167158 0.750254 0.000000
O O9 0.790840 0.918440 0.760445
O O10 0.924609 0.892711 0.822757
O O11 0.929023 0.925318 0.653459
O O12 0.661462 0.887281 0.309964
O O13 0.477598 0.424527 0.500000
O O14 0.512141 0.313601 0.407867
O O15 0.500000 0.742109 0.250000
O O16 0.577593 0.793583 0.389637
O O17 0.349659 0.880187 0.000000
#
# Coordination Sequence:
#
# PCOD9525731 Si02
#       8
#     4  16  16  16  16  16  16  16
#     4  12  30  48  64  86 104 140 188 260 340 374
#     4  11  25  43  63  82 108 143 196 257 312 375
#     4  10  20  30  47  76 114 154 198 254 296 329
#     4  10  20  33  49  75 118 160 196 242 280 330
#     4  11  20  35  56  78 108 147 201 251 296 356
#     4  11  21  32  50  79 122 168 201 236 278 335
#     4  11  18  31  51  76 104 149 204 240 288 346
#     4  10  19  31  48  76 113 150 199 251 290 333
#
# _framework density 24.195475999999999
#
# number of rings (size 3 to 8) (size 9 to 14) (size 15 to 20)
#    0.000    1.379    4.138    5.172    2.897    2.207 
#    0.000    0.000    0.000    0.000    0.000    0.000 
#    0.000    0.000    0.000   14.897    0.000    0.000 
#
# Total GULP energy -322901.533841 kJ/mol
# GULP energy per Si atom -5567.267825 kJ/mol
# Density = 2.414041 g / cm^3
# Si number density = 24.195476 Si / 1000 Ang^3
#
#
#
# Elastic Constant Matrix: (Units=GPa)
#
#
# Indices 1 2 3 4 5 6 
#
# 1 179.3787 -10.1743 32.1292 0.0000 0.0000 0.0000
# 2 -10.1743 65.4754 23.7871 0.0000 0.0000 0.0000
# 3 32.1292 23.7871 176.7166 0.0000 0.0000 0.0000
# 4 0.0000 0.0000 0.0000 -9.7231 0.0000 0.0000
# 5 0.0000 0.0000 0.0000 0.0000 20.6682 0.0000
# 6 0.0000 0.0000 0.0000 0.0000 0.0000 -26.8015
#
#
#
# Elastic Compliance Matrix: (Units=1/GPa)
#
#
# Indices 1 2 3 4 5 6 
#
# 1 0.005877 0.001368 -0.001253 0.000000 0.000000 0.000000
# 2 0.001368 0.016377 -0.002453 0.000000 0.000000 0.000000
# 3 -0.001253 -0.002453 0.006217 0.000000 0.000000 0.000000
# 4 0.000000 0.000000 0.000000 -0.102848 0.000000 0.000000
# 5 0.000000 0.000000 0.000000 0.000000 0.048383 0.000000
# 6 0.000000 0.000000 0.000000 0.000000 0.000000 -0.037311
#
#
# Mechanical properties :
#
#
# Convention : Reuss Voigt Hill
#
# Bulk Modulus (GPa) = 42.02528 57.00607 49.51567
# Shear Modulus (GPa) = -98.62155 21.88398 -38.36878
#
# Velocity S-wave (km/s) = -6.39131 3.01070 -3.98651
# Velocity P-wave (km/s) = 6.08755 5.97474 0.82487
#
# Compressibility (1/GPa) = 0.02379520
#
# Stress axis : x y z
#
# Youngs Moduli (GPa) = 170.16145 61.06208 160.85615
#
# Poissons Ratio (x) = -0.08355 0.20150
# Poissons Ratio (y) = -0.23283 0.39461
# Poissons Ratio (z) = 0.21315 0.14980
#
# Static dielectric constant tensor:
#      x y z
#    x 2.010720 0.000000 0.000000 
#    y 0.000000 2.049570 0.000000 
#    z 0.000000 0.000000 2.317560 
# 
# From -- ./inp_files/23542.got.cif
#   From: 2010.05.17/outbox.cif.g08.bks.cpg/sg72_12_cif.got.tgz:23542.got - 2010.06.03 17:03:01.
