data_PCOD9525419
_publ_section_title
;
Structure prediction by ZEFSAII (Michael W. Deem and Ramdas Pophale) SiO2 
 PCOD9525419
Probable space group: I B A M
;
_chemical_formula_sum "Si O2"
_cell_formula_units_Z 112
_cell_length_a 30.050695
_cell_length_b 14.584376
_cell_length_c 14.654310
_cell_angle_alpha 90.000000
_cell_angle_beta 90.000000
_cell_angle_gamma 90.000000
_cell_volume 6422.553748
_symmetry_space_group_name_H-M "I B A M"
_symmetry_group_IT_number 72
_symmetry_cell_setting 'orthorhombic'
loop_
_space_group_symop_operation_xyz
x,y,z
-x,-y,z
x,-y,1/2-z
-x,y,1/2-z
-x,-y,-z
x,y,-z
-x,y,1/2+z
x,-y,1/2+z
1/2+x,1/2+y,1/2+z
1/2-x,1/2-y,1/2+z
1/2+x,1/2-y,-z
1/2-x,1/2+y,-z
1/2-x,1/2-y,1/2-z
1/2+x,1/2+y,1/2-z
1/2-x,1/2+y,z
1/2+x,1/2-y,z
loop_
_atom_site_type_symbol
_atom_site_label
_atom_site_fract_x
_atom_site_fract_y
_atom_site_fract_z
Si Si1 0.195105 0.848762 0.398195
Si Si2 0.263224 0.530619 0.644104
Si Si3 0.164492 0.458331 0.148646
Si Si4 0.287256 0.257944 0.107744
Si Si5 0.567414 0.999610 0.102963
Si Si6 0.950904 0.655490 0.748186
Si Si7 0.355519 0.232766 0.732746
O O1 0.182659 0.816946 0.500000
O O2 0.242074 0.799310 0.373047
O O3 0.159392 0.822433 0.322105
O O4 0.204693 0.956475 0.400020
O O5 0.261928 0.500000 0.750000
O O6 0.212619 0.520727 0.608752
O O7 0.277621 0.635153 0.629438
O O8 0.162210 0.500000 0.250000
O O9 0.121099 0.496325 0.100282
O O10 0.159392 0.349974 0.165644
O O11 0.326581 0.225829 0.174826
O O12 0.297267 0.247445 0.000000
O O13 0.553303 0.086281 0.165193
O O14 0.553382 0.910280 0.159819
O O15 0.550703 0.002559 0.000000
O O16 0.907838 0.720377 0.750228
O O17 0.000000 0.698159 0.750000
#
# Coordination Sequence:
#
# PCOD9525419 Si02
#       7
#    16  16  16  16  16  16  16
#     4  11  23  35  53  80 110 144 183 219 262 318
#     4  11  20  34  56  75 112 153 185 216 260 314
#     4  10  18  32  51  77 108 149 183 215 255 311
#     4  11  22  35  53  80 111 145 181 220 262 317
#     4  10  19  32  54  79 107 142 182 224 268 318
#     4  10  22  38  53  74 105 139 183 233 277 326
#     4  11  20  38  53  73 109 142 179 223 269 311
#
# _framework density 17.438545000000001
#
# number of rings (size 3 to 8) (size 9 to 14) (size 15 to 20)
#    0.000    1.429    5.714    3.429    0.000    5.143 
#    0.000    0.000    0.000    0.000    0.000    2.000 
#    0.000    2.286    0.000    0.000    0.000    0.000 
#
# Total GULP energy -312652.844047 kJ/mol
# GULP energy per Si atom -5583.086501 kJ/mol
# Density = 1.739885 g / cm^3
# Si number density = 17.438545 Si / 1000 Ang^3
#
#
#
# Elastic Constant Matrix: (Units=GPa)
#
#
# Indices 1 2 3 4 5 6 
#
# 1 123.8614 14.6519 36.8705 0.0000 0.0000 0.0000
# 2 14.6519 52.9323 0.4125 0.0000 0.0000 0.0000
# 3 36.8705 0.4125 107.4727 0.0000 0.0000 0.0000
# 4 0.0000 0.0000 0.0000 5.7996 0.0000 0.0000
# 5 0.0000 0.0000 0.0000 0.0000 -17.2119 0.0000
# 6 0.0000 0.0000 0.0000 0.0000 0.0000 14.2160
#
#
#
# Elastic Compliance Matrix: (Units=1/GPa)
#
#
# Indices 1 2 3 4 5 6 
#
# 1 0.009325 -0.002556 -0.003189 0.000000 0.000000 0.000000
# 2 -0.002556 0.019593 0.000802 0.000000 0.000000 0.000000
# 3 -0.003189 0.000802 0.010396 0.000000 0.000000 0.000000
# 4 0.000000 0.000000 0.000000 0.172426 0.000000 0.000000
# 5 0.000000 0.000000 0.000000 0.000000 -0.058099 0.000000
# 6 0.000000 0.000000 0.000000 0.000000 0.000000 0.070343
#
#
# Mechanical properties :
#
#
# Convention : Reuss Voigt Hill
#
# Bulk Modulus (GPa) = 33.98294 43.12625 38.55459
# Shear Modulus (GPa) = 20.51864 16.04952 18.28408
#
# Velocity S-wave (km/s) = 3.43392 3.03701 3.24155
# Velocity P-wave (km/s) = 5.93734 6.08950 6.01390
#
# Compressibility (1/GPa) = 0.02942653
#
# Stress axis : x y z
#
# Youngs Moduli (GPa) = 107.23441 51.03749 96.19263
#
# Poissons Ratio (x) = 0.13047 0.30680
# Poissons Ratio (y) = 0.27414 -0.07713
# Poissons Ratio (z) = 0.34202 -0.04092
#
# Static dielectric constant tensor:
#      x y z
#    x 1.601900 0.000000 0.000000 
#    y 0.000000 1.624200 0.000000 
#    z 0.000000 0.000000 1.646860 
# 
# From -- ./inp_files/26505.got.cif
#   From: 2010.05.17/outbox.cif.g08.bks.cpg/sg72_14_cif.got.tgz:26505.got - 2010.06.03 17:03:01.
