data_PCOD9525192
_publ_section_title
;
Structure prediction by ZEFSAII (Michael W. Deem and Ramdas Pophale) SiO2 
 PCOD9525192
Probable space group: I B A M
;
_chemical_formula_sum "Si O2"
_cell_formula_units_Z 112
_cell_length_a 17.499107
_cell_length_b 21.864945
_cell_length_c 17.362500
_cell_angle_alpha 90.000000
_cell_angle_beta 90.000000
_cell_angle_gamma 90.000000
_cell_volume 6643.187873
_symmetry_space_group_name_H-M "I B A M"
_symmetry_group_IT_number 72
_symmetry_cell_setting 'orthorhombic'
loop_
_space_group_symop_operation_xyz
x,y,z
-x,-y,z
x,-y,1/2-z
-x,y,1/2-z
-x,-y,-z
x,y,-z
-x,y,1/2+z
x,-y,1/2+z
1/2+x,1/2+y,1/2+z
1/2-x,1/2-y,1/2+z
1/2+x,1/2-y,-z
1/2-x,1/2+y,-z
1/2-x,1/2-y,1/2-z
1/2+x,1/2+y,1/2-z
1/2-x,1/2+y,z
1/2+x,1/2-y,z
loop_
_atom_site_type_symbol
_atom_site_label
_atom_site_fract_x
_atom_site_fract_y
_atom_site_fract_z
Si Si1 0.691760 0.183069 0.182143
Si Si2 0.362956 0.352445 0.192247
Si Si3 0.553197 0.202092 0.909374
Si Si4 0.465258 0.564854 0.410943
Si Si5 0.107795 0.287834 0.341379
Si Si6 0.403262 0.342823 0.629595
Si Si7 0.756346 0.797008 0.915440
O O1 0.770204 0.145894 0.193132
O O2 0.627894 0.165163 0.119277
O O3 0.642881 0.192507 0.259429
O O4 0.723525 0.248510 0.151565
O O5 0.399607 0.406695 0.142701
O O6 0.388799 0.286597 0.156766
O O7 0.396120 0.351754 0.278743
O O8 0.476795 0.189968 0.860571
O O9 0.572557 0.273568 0.891934
O O10 0.539923 0.194766 0.000000
O O11 0.500000 0.500000 0.385426
O O12 0.440087 0.559603 0.500000
O O13 0.535091 0.612282 0.405076
O O14 0.168616 0.312647 0.403213
O O15 0.318155 0.349920 0.595340
O O16 0.767439 0.768989 0.000000
#
# Coordination Sequence:
#
# PCOD9525192 Si02
#       7
#    16  16  16  16  16  16  16
#     4  10  19  32  46  70  98 135 170 211 251 309
#     4  11  20  33  53  69  94 133 178 212 261 308
#     4  11  21  29  46  74 103 136 173 206 249 308
#     4  11  25  39  52  73  99 132 177 223 262 302
#     4  11  18  31  46  73 100 137 168 208 250 312
#     4  11  19  33  49  69  95 130 174 213 258 298
#     4  10  18  28  45  67  96 129 169 209 247 304
#
# _framework density 16.859375
#
# number of rings (size 3 to 8) (size 9 to 14) (size 15 to 20)
#    0.000    1.286    5.714    4.714    0.000    4.000 
#    0.000    0.000    0.000    0.000    0.000    0.000 
#    0.000    1.143    0.857    6.000    2.000    0.000 
#
# Total GULP energy -312101.200835 kJ/mol
# GULP energy per Si atom -5573.235729 kJ/mol
# Density = 1.682100 g / cm^3
# Si number density = 16.859375 Si / 1000 Ang^3
#
#
#
# Elastic Constant Matrix: (Units=GPa)
#
#
# Indices 1 2 3 4 5 6 
#
# 1 97.1086 12.5329 32.1602 0.0000 0.0000 0.0000
# 2 12.5329 29.6938 15.5214 0.0000 0.0000 0.0000
# 3 32.1602 15.5214 101.0170 0.0000 0.0000 0.0000
# 4 0.0000 0.0000 0.0000 14.5050 0.0000 0.0000
# 5 0.0000 0.0000 0.0000 0.0000 26.7684 0.0000
# 6 0.0000 0.0000 0.0000 0.0000 0.0000 15.3528
#
#
#
# Elastic Compliance Matrix: (Units=1/GPa)
#
#
# Indices 1 2 3 4 5 6 
#
# 1 0.011798 -0.003280 -0.003252 0.000000 0.000000 0.000000
# 2 -0.003280 0.037530 -0.004722 0.000000 0.000000 0.000000
# 3 -0.003252 -0.004722 0.011660 0.000000 0.000000 0.000000
# 4 0.000000 0.000000 0.000000 0.068942 0.000000 0.000000
# 5 0.000000 0.000000 0.000000 0.000000 0.037358 0.000000
# 6 0.000000 0.000000 0.000000 0.000000 0.000000 0.065135
#
#
# Mechanical properties :
#
#
# Convention : Reuss Voigt Hill
#
# Bulk Modulus (GPa) = 25.98772 38.69427 32.34100
# Shear Modulus (GPa) = 18.67364 22.49889 20.58626
#
# Velocity S-wave (km/s) = 3.33169 3.65705 3.49815
# Velocity P-wave (km/s) = 5.49983 6.39007 5.96159
#
# Compressibility (1/GPa) = 0.03847971
#
# Stress axis : x y z
#
# Youngs Moduli (GPa) = 84.75966 26.64553 85.76123
#
# Poissons Ratio (x) = 0.08739 0.27891
# Poissons Ratio (y) = 0.27799 0.40499
# Poissons Ratio (z) = 0.27565 0.12583
#
# Static dielectric constant tensor:
#      x y z
#    x 1.638010 0.000000 0.000000 
#    y 0.000000 1.538130 0.000000 
#    z 0.000000 0.000000 1.626070 
# 
# From -- ./inp_files/31999.got.cif
#   From: 2010.05.17/outbox.cif.g08.bks.cpg/sg72_16_cif.got.tgz:31999.got - 2010.06.03 17:03:01.
