data_PCOD9525283
_publ_section_title
;
Structure prediction by ZEFSAII (Michael W. Deem and Ramdas Pophale) SiO2 
 PCOD9525283
Probable space group: I B A M
;
_chemical_formula_sum "Si O2"
_cell_formula_units_Z 96
_cell_length_a 23.983505
_cell_length_b 13.048531
_cell_length_c 17.628303
_cell_angle_alpha 90.000000
_cell_angle_beta 90.000000
_cell_angle_gamma 90.000000
_cell_volume 5516.768759
_symmetry_space_group_name_H-M "I B A M"
_symmetry_group_IT_number 72
_symmetry_cell_setting 'orthorhombic'
loop_
_space_group_symop_operation_xyz
x,y,z
-x,-y,z
x,-y,1/2-z
-x,y,1/2-z
-x,-y,-z
x,y,-z
-x,y,1/2+z
x,-y,1/2+z
1/2+x,1/2+y,1/2+z
1/2-x,1/2-y,1/2+z
1/2+x,1/2-y,-z
1/2-x,1/2+y,-z
1/2-x,1/2-y,1/2-z
1/2+x,1/2+y,1/2-z
1/2-x,1/2+y,z
1/2+x,1/2-y,z
loop_
_atom_site_type_symbol
_atom_site_label
_atom_site_fract_x
_atom_site_fract_y
_atom_site_fract_z
Si Si1 0.624834 0.562339 0.411416
Si Si2 0.729831 0.098357 0.804398
Si Si3 0.911204 0.176546 0.913438
Si Si4 0.177853 0.730307 0.809007
Si Si5 0.483110 0.379681 0.333958
Si Si6 0.255365 0.930809 0.410955
O O1 0.615822 0.590973 0.500000
O O2 0.611114 0.440745 0.406705
O O3 0.581532 0.621185 0.357222
O O4 0.689504 0.577480 0.392209
O O5 0.784705 0.168089 0.800953
O O6 0.680547 0.168948 0.770523
O O7 0.736090 0.000000 0.750000
O O8 0.724351 0.043934 0.885268
O O9 0.879370 0.241015 0.849427
O O10 0.976688 0.173499 0.894793
O O11 0.900231 0.210120 0.000000
O O12 0.211030 0.655485 0.866255
O O13 0.500000 0.500000 0.335988
O O14 0.500000 0.343137 0.250000
O O15 0.261685 0.917414 0.500000
#
# Coordination Sequence:
#
# PCOD9525283 Si02
#       6
#    16  16  16  16  16  16
#     4   9  17  30  46  66  96 135 168 205 255 310
#     4   9  19  32  45  65  97 134 171 212 260 302
#     4  10  18  30  48  69  98 134 171 213 254 307
#     4  10  19  31  47  73  98 136 177 213 256 311
#     4   9  18  29  43  68  93 129 170 207 250 306
#     4  10  19  31  49  71 100 139 175 213 261 316
#
# _framework density 17.401489999999999
#
# number of rings (size 3 to 8) (size 9 to 14) (size 15 to 20)
#    0.000    2.500    1.667    1.000    0.000    6.667 
#    3.000    0.000    0.000    0.000    0.000    0.000 
#    0.000   31.333    0.000   61.500    0.000    2.500 
#
# Total GULP energy -267416.324760 kJ/mol
# GULP energy per Si atom -5571.173432 kJ/mol
# Density = 1.736188 g / cm^3
# Si number density = 17.401490 Si / 1000 Ang^3
#
#
#
# Elastic Constant Matrix: (Units=GPa)
#
#
# Indices 1 2 3 4 5 6 
#
# 1 60.1853 7.7230 27.5323 0.0000 0.0000 0.0000
# 2 7.7230 48.2726 4.4139 0.0000 0.0000 0.0000
# 3 27.5323 4.4139 50.9834 0.0000 0.0000 0.0000
# 4 0.0000 0.0000 0.0000 13.5403 0.0000 0.0000
# 5 0.0000 0.0000 0.0000 0.0000 28.4148 0.0000
# 6 0.0000 0.0000 0.0000 0.0000 0.0000 18.0274
#
#
#
# Elastic Compliance Matrix: (Units=1/GPa)
#
#
# Indices 1 2 3 4 5 6 
#
# 1 0.022360 -0.002493 -0.011859 0.000000 0.000000 0.000000
# 2 -0.002493 0.021159 -0.000486 0.000000 0.000000 0.000000
# 3 -0.011859 -0.000486 0.026061 0.000000 0.000000 0.000000
# 4 0.000000 0.000000 0.000000 0.073853 0.000000 0.000000
# 5 0.000000 0.000000 0.000000 0.000000 0.035193 0.000000
# 6 0.000000 0.000000 0.000000 0.000000 0.000000 0.055471
#
#
# Mechanical properties :
#
#
# Convention : Reuss Voigt Hill
#
# Bulk Modulus (GPa) = 25.06006 26.53109 25.79557
# Shear Modulus (GPa) = 18.04568 19.98130 19.01349
#
# Velocity S-wave (km/s) = 3.22377 3.39226 3.30909
# Velocity P-wave (km/s) = 5.31877 5.53379 5.42734
#
# Compressibility (1/GPa) = 0.03990414
#
# Stress axis : x y z
#
# Youngs Moduli (GPa) = 44.72188 47.26133 38.37211
#
# Poissons Ratio (x) = 0.11782 0.45507
# Poissons Ratio (y) = 0.11149 0.01863
# Poissons Ratio (z) = 0.53037 0.02295
#
# Static dielectric constant tensor:
#      x y z
#    x 1.579930 0.000000 0.000000 
#    y 0.000000 1.580930 0.000000 
#    z 0.000000 0.000000 1.658980 
# 
# From -- ./inp_files/29449.got.cif
#   From: 2010.05.17/outbox.cif.g08.bks.cpg/sg72_15_cif.got.tgz:29449.got - 2010.06.03 17:03:01.
