data_PCOD9525595
_publ_section_title
;
Structure prediction by ZEFSAII (Michael W. Deem and Ramdas Pophale) SiO2 
 PCOD9525595
Probable space group: I B A M
;
_chemical_formula_sum "Si O2"
_cell_formula_units_Z 96
_cell_length_a 16.289194
_cell_length_b 19.812907
_cell_length_c 14.846661
_cell_angle_alpha 90.000000
_cell_angle_beta 90.000000
_cell_angle_gamma 90.000000
_cell_volume 4791.556228
_symmetry_space_group_name_H-M "I B A M"
_symmetry_group_IT_number 72
_symmetry_cell_setting 'orthorhombic'
loop_
_space_group_symop_operation_xyz
x,y,z
-x,-y,z
x,-y,1/2-z
-x,y,1/2-z
-x,-y,-z
x,y,-z
-x,y,1/2+z
x,-y,1/2+z
1/2+x,1/2+y,1/2+z
1/2-x,1/2-y,1/2+z
1/2+x,1/2-y,-z
1/2-x,1/2+y,-z
1/2-x,1/2-y,1/2-z
1/2+x,1/2+y,1/2-z
1/2-x,1/2+y,z
1/2+x,1/2-y,z
loop_
_atom_site_type_symbol
_atom_site_label
_atom_site_fract_x
_atom_site_fract_y
_atom_site_fract_z
Si Si1 0.680692 0.828486 0.304919
Si Si2 0.837945 0.823407 0.184574
Si Si3 0.298104 0.492992 0.000000
Si Si4 0.268451 0.149877 0.500000
Si Si5 0.412154 0.536822 0.161076
Si Si6 0.262867 0.192731 0.000000
Si Si7 0.086671 0.563328 0.200811
Si Si8 0.375042 0.930415 0.500000
O O1 0.775001 0.829200 0.269086
O O2 0.638483 0.755087 0.309179
O O3 0.680726 0.855902 0.406954
O O4 0.636387 0.871750 0.229680
O O5 0.905860 0.882513 0.179811
O O6 0.787118 0.826624 0.090404
O O7 0.293944 0.412160 0.000000
O O8 0.348315 0.519983 0.915789
O O9 0.207052 0.523783 0.000000
O O10 0.230040 0.225659 0.500000
O O11 0.500000 0.500000 0.141898
O O12 0.381409 0.500000 0.250000
O O13 0.344280 0.147497 0.000000
O O14 0.129739 0.500000 0.250000
O O15 0.080125 0.555732 0.094069
O O16 0.000000 0.569041 0.250000
#
# Coordination Sequence:
#
# PCOD9525595 Si02
#       8
#    16  16   8   8  16   8  16   8
#     4  10  20  37  61  90 119 161 217 271 321 388
#     4  10  19  37  62  86 120 162 219 270 317 388
#     4  12  21  37  64  90 117 162 222 264 317 381
#     4  10  22  32  58  93 119 150 206 282 313 370
#     4  11  23  38  55  87 129 168 206 266 332 397
#     4  10  18  37  59  88 118 154 210 265 324 362
#     4  11  25  42  62  94 129 163 206 260 335 398
#     4  12  22  41  70  90 122 168 212 266 317 396
#
# _framework density 20.035245
#
# number of rings (size 3 to 8) (size 9 to 14) (size 15 to 20)
#    0.000    1.333    3.333    2.250    0.000    3.333 
#    3.000    0.000    0.000    0.000    0.000    0.000 
#    0.000    0.000    0.000    0.000    0.000    0.000 
#
# Total GULP energy -267637.415460 kJ/mol
# GULP energy per Si atom -5575.779489 kJ/mol
# Density = 1.998964 g / cm^3
# Si number density = 20.035245 Si / 1000 Ang^3
#
#
#
# Elastic Constant Matrix: (Units=GPa)
#
#
# Indices 1 2 3 4 5 6 
#
# 1 46.2859 31.5228 31.1739 0.0000 0.0000 0.0000
# 2 31.5228 132.8696 22.2528 0.0000 0.0000 0.0000
# 3 31.1739 22.2528 169.8890 0.0000 0.0000 0.0000
# 4 0.0000 0.0000 0.0000 31.5943 0.0000 0.0000
# 5 0.0000 0.0000 0.0000 0.0000 29.7100 0.0000
# 6 0.0000 0.0000 0.0000 0.0000 0.0000 20.4945
#
#
#
# Elastic Compliance Matrix: (Units=1/GPa)
#
#
# Indices 1 2 3 4 5 6 
#
# 1 0.028759 -0.006072 -0.004482 0.000000 0.000000 0.000000
# 2 -0.006072 0.008977 -0.000062 0.000000 0.000000 0.000000
# 3 -0.004482 -0.000062 0.006717 0.000000 0.000000 0.000000
# 4 0.000000 0.000000 0.000000 0.031651 0.000000 0.000000
# 5 0.000000 0.000000 0.000000 0.000000 0.033659 0.000000
# 6 0.000000 0.000000 0.000000 0.000000 0.000000 0.048794
#
#
# Mechanical properties :
#
#
# Convention : Reuss Voigt Hill
#
# Bulk Modulus (GPa) = 43.06398 57.66039 50.36219
# Shear Modulus (GPa) = 26.66265 33.96607 30.31436
#
# Velocity S-wave (km/s) = 3.65195 4.12189 3.89402
# Velocity P-wave (km/s) = 6.27082 7.17602 6.73863
#
# Compressibility (1/GPa) = 0.02322126
#
# Stress axis : x y z
#
# Youngs Moduli (GPa) = 34.77186 111.39416 148.88370
#
# Poissons Ratio (x) = 0.67642 0.66726
# Poissons Ratio (y) = 0.21115 0.00917
# Poissons Ratio (z) = 0.15584 0.00686
#
# Static dielectric constant tensor:
#      x y z
#    x 1.741460 0.000000 0.000000 
#    y 0.000000 1.799440 0.000000 
#    z 0.000000 0.000000 1.703660 
# 
# From -- ./inp_files/21937.got.cif
#   From: 2010.05.17/outbox.cif.g08.bks.cpg/sg72_11_cif.got.tgz:21937.got - 2010.06.03 17:03:01.
