data_PCOD9525550
_publ_section_title
;
Structure prediction by ZEFSAII (Michael W. Deem and Ramdas Pophale) SiO2 
 PCOD9525550
Probable space group: I B A M
;
_chemical_formula_sum "Si O2"
_cell_formula_units_Z 64
_cell_length_a 18.042190
_cell_length_b 7.346063
_cell_length_c 21.645060
_cell_angle_alpha 90.000000
_cell_angle_beta 90.000000
_cell_angle_gamma 90.000000
_cell_volume 2868.816001
_symmetry_space_group_name_H-M "I B A M"
_symmetry_group_IT_number 72
_symmetry_cell_setting 'orthorhombic'
loop_
_space_group_symop_operation_xyz
x,y,z
-x,-y,z
x,-y,1/2-z
-x,y,1/2-z
-x,-y,-z
x,y,-z
-x,y,1/2+z
x,-y,1/2+z
1/2+x,1/2+y,1/2+z
1/2-x,1/2-y,1/2+z
1/2+x,1/2-y,-z
1/2-x,1/2+y,-z
1/2-x,1/2-y,1/2-z
1/2+x,1/2+y,1/2-z
1/2-x,1/2+y,z
1/2+x,1/2-y,z
loop_
_atom_site_type_symbol
_atom_site_label
_atom_site_fract_x
_atom_site_fract_y
_atom_site_fract_z
Si Si1 0.299573 0.230246 0.188680
Si Si2 0.689404 0.582520 0.500000
Si Si3 0.416014 0.037151 0.363856
Si Si4 0.842000 0.086265 0.369720
Si Si5 0.359585 0.998285 0.500000
O O1 0.250000 0.250000 0.250000
O O2 0.358202 0.068564 0.180292
O O3 0.236974 0.190143 0.137034
O O4 0.340522 0.579592 0.322617
O O5 0.657943 0.498389 0.562527
O O6 0.778091 0.588922 0.500000
O O7 0.658905 0.786945 0.500000
O O8 0.400929 0.968385 0.434673
O O9 0.500000 0.000000 0.346586
O O10 0.400369 0.253400 0.361288
#
# Coordination Sequence:
#
# PCOD9525550 Si02
#       5
#    16   8  16  16   8
#     4  12  24  41  69  97 126 182 238 282 337 420
#     4  10  18  34  63 102 125 168 233 292 331 416
#     4  11  25  42  65 103 146 181 227 299 365 415
#     4  11  22  40  69 100 131 177 235 287 344 420
#     4  10  19  36  65  99 138 180 228 287 364 421
#
# _framework density 22.308855000000001
#
# number of rings (size 3 to 8) (size 9 to 14) (size 15 to 20)
#    0.000    1.000    5.000    2.625    0.000    1.000 
#    0.000    2.500    0.000    9.000    0.000    0.000 
#    0.000    0.000    0.000    0.000    0.000    0.000 
#
# Total GULP energy -178884.752033 kJ/mol
# GULP energy per Si atom -5590.148501 kJ/mol
# Density = 2.225808 g / cm^3
# Si number density = 22.308855 Si / 1000 Ang^3
#
#
#
# Elastic Constant Matrix: (Units=GPa)
#
#
# Indices 1 2 3 4 5 6 
#
# 1 73.8719 9.6873 20.1385 0.0000 0.0000 0.0000
# 2 9.6873 93.7380 42.4949 0.0000 0.0000 0.0000
# 3 20.1385 42.4949 138.4813 0.0000 0.0000 0.0000
# 4 0.0000 0.0000 0.0000 26.9074 0.0000 0.0000
# 5 0.0000 0.0000 0.0000 0.0000 13.8183 0.0000
# 6 0.0000 0.0000 0.0000 0.0000 0.0000 25.0962
#
#
#
# Elastic Compliance Matrix: (Units=1/GPa)
#
#
# Indices 1 2 3 4 5 6 
#
# 1 0.014126 -0.000614 -0.001866 0.000000 0.000000 0.000000
# 2 -0.000614 0.012419 -0.003722 0.000000 0.000000 0.000000
# 3 -0.001866 -0.003722 0.008635 0.000000 0.000000 0.000000
# 4 0.000000 0.000000 0.000000 0.037164 0.000000 0.000000
# 5 0.000000 0.000000 0.000000 0.000000 0.072368 0.000000
# 6 0.000000 0.000000 0.000000 0.000000 0.000000 0.039847
#
#
# Mechanical properties :
#
#
# Convention : Reuss Voigt Hill
#
# Bulk Modulus (GPa) = 43.90491 50.08139 46.99315
# Shear Modulus (GPa) = 24.44351 28.74908 26.59630
#
# Velocity S-wave (km/s) = 3.31371 3.59372 3.45655
# Velocity P-wave (km/s) = 5.86209 6.30219 6.08612
#
# Compressibility (1/GPa) = 0.02277649
#
# Stress axis : x y z
#
# Youngs Moduli (GPa) = 70.79081 80.52445 115.81402
#
# Poissons Ratio (x) = 0.04944 0.21609
# Poissons Ratio (y) = 0.04346 0.43100
# Poissons Ratio (z) = 0.13209 0.29967
#
# Static dielectric constant tensor:
#      x y z
#    x 1.751450 0.000000 0.000000 
#    y 0.000000 1.858130 0.000000 
#    z 0.000000 0.000000 1.965610 
# 
# From -- ./inp_files/38669.got.cif
#   From: 2010.05.17/outbox.cif.g08.bks.cpg/sg72_20_cif.got.tgz:38669.got - 2010.06.03 17:03:01.
