data_PCOD9525769
_publ_section_title
;
Structure prediction by ZEFSAII (Michael W. Deem and Ramdas Pophale) SiO2 
 PCOD9525769
Probable space group: I B A M
;
_chemical_formula_sum "Si O2"
_cell_formula_units_Z 112
_cell_length_a 24.415635
_cell_length_b 13.002682
_cell_length_c 19.737516
_cell_angle_alpha 90.000000
_cell_angle_beta 90.000000
_cell_angle_gamma 90.000000
_cell_volume 6266.044291
_symmetry_space_group_name_H-M "I B A M"
_symmetry_group_IT_number 72
_symmetry_cell_setting 'orthorhombic'
loop_
_space_group_symop_operation_xyz
x,y,z
-x,-y,z
x,-y,1/2-z
-x,y,1/2-z
-x,-y,-z
x,y,-z
-x,y,1/2+z
x,-y,1/2+z
1/2+x,1/2+y,1/2+z
1/2-x,1/2-y,1/2+z
1/2+x,1/2-y,-z
1/2-x,1/2+y,-z
1/2-x,1/2-y,1/2-z
1/2+x,1/2+y,1/2-z
1/2-x,1/2+y,z
1/2+x,1/2-y,z
loop_
_atom_site_type_symbol
_atom_site_label
_atom_site_fract_x
_atom_site_fract_y
_atom_site_fract_z
Si Si1 0.036469 0.402659 0.582272
Si Si2 0.467522 0.295586 0.422616
Si Si3 0.327538 0.706279 0.784180
Si Si4 0.659567 0.954536 0.078078
Si Si5 0.217851 0.599638 0.791249
Si Si6 0.447034 0.388501 0.285383
Si Si7 0.654009 0.201122 0.073914
O O1 0.035082 0.407590 0.500000
O O2 0.099723 0.415477 0.601683
O O3 0.000000 0.500000 0.606514
O O4 0.010801 0.292098 0.599576
O O5 0.479542 0.329841 0.500000
O O6 0.460576 0.383142 0.365765
O O7 0.409433 0.235730 0.424963
O O8 0.281531 0.619736 0.775115
O O9 0.313820 0.799867 0.734609
O O10 0.389345 0.668018 0.775729
O O11 0.319513 0.747730 0.860780
O O12 0.705163 0.917431 0.130135
O O13 0.657234 0.078412 0.079302
O O14 0.668383 0.922759 0.000000
O O15 0.198505 0.500000 0.750000
O O16 0.442092 0.500000 0.250000
O O17 0.500000 0.337881 0.250000
O O18 0.676628 0.231777 0.000000
#
# Coordination Sequence:
#
# PCOD9525769 Si02
#       7
#    16  16  16  16  16  16  16
#     4   9  15  26  49  83 120 152 175 211 274 346
#     4   9  17  31  55  83 111 148 188 219 272 346
#     4  10  22  38  57  81 106 149 189 231 276 337
#     4  10  19  31  51  80 116 148 179 226 279 329
#     4  11  22  37  57  79 111 147 189 228 279 338
#     4  10  22  40  59  80 109 145 188 239 286 324
#     4   9  16  31  54  81 111 143 181 224 270 331
#
# _framework density 17.874115
#
# number of rings (size 3 to 8) (size 9 to 14) (size 15 to 20)
#    0.000    2.286    2.857    0.429    2.000    0.571 
#    0.000    1.429    0.000    0.857    0.000    0.000 
#    0.000    0.000    0.000    0.000    0.000    0.000 
#
# Total GULP energy -311977.349538 kJ/mol
# GULP energy per Si atom -5571.024099 kJ/mol
# Density = 1.783343 g / cm^3
# Si number density = 17.874115 Si / 1000 Ang^3
#
#
#
# Elastic Constant Matrix: (Units=GPa)
#
#
# Indices 1 2 3 4 5 6 
#
# 1 69.4630 25.5588 24.9904 0.0000 0.0000 0.0000
# 2 25.5588 67.5635 44.6663 0.0000 0.0000 0.0000
# 3 24.9904 44.6663 95.0708 0.0000 0.0000 0.0000
# 4 0.0000 0.0000 0.0000 27.6570 0.0000 0.0000
# 5 0.0000 0.0000 0.0000 0.0000 22.8675 0.0000
# 6 0.0000 0.0000 0.0000 0.0000 0.0000 8.9732
#
#
#
# Elastic Compliance Matrix: (Units=1/GPa)
#
#
# Indices 1 2 3 4 5 6 
#
# 1 0.017008 -0.005046 -0.002100 0.000000 0.000000 0.000000
# 2 -0.005046 0.022966 -0.009464 0.000000 0.000000 0.000000
# 3 -0.002100 -0.009464 0.015517 0.000000 0.000000 0.000000
# 4 0.000000 0.000000 0.000000 0.036157 0.000000 0.000000
# 5 0.000000 0.000000 0.000000 0.000000 0.043730 0.000000
# 6 0.000000 0.000000 0.000000 0.000000 0.000000 0.111443
#
#
# Mechanical properties :
#
#
# Convention : Reuss Voigt Hill
#
# Bulk Modulus (GPa) = 44.89934 46.94757 45.92345
# Shear Modulus (GPa) = 17.39347 21.02499 19.20923
#
# Velocity S-wave (km/s) = 3.12285 3.43342 3.28181
# Velocity P-wave (km/s) = 6.17877 6.48386 6.33316
#
# Compressibility (1/GPa) = 0.02227204
#
# Stress axis : x y z
#
# Youngs Moduli (GPa) = 58.79484 43.54254 64.44647
#
# Poissons Ratio (x) = 0.21970 0.13535
# Poissons Ratio (y) = 0.29666 0.60990
# Poissons Ratio (z) = 0.12348 0.41207
#
# Static dielectric constant tensor:
#      x y z
#    x 1.609010 0.000000 0.000000 
#    y 0.000000 1.606630 0.000000 
#    z 0.000000 0.000000 1.629360 
# 
# From -- ./inp_files/37314.got.cif
#   From: 2010.05.17/outbox.cif.g08.bks.cpg/sg72_19_cif.got.tgz:37314.got - 2010.06.03 17:03:01.
