data_PCOD9525002
_publ_section_title
;
Structure prediction by ZEFSAII (Michael W. Deem and Ramdas Pophale) SiO2 
 PCOD9525002
Probable space group: I B A M
;
_chemical_formula_sum "Si O2"
_cell_formula_units_Z 80
_cell_length_a 30.436055
_cell_length_b 15.433669
_cell_length_c 8.434038
_cell_angle_alpha 90.000000
_cell_angle_beta 90.000000
_cell_angle_gamma 90.000000
_cell_volume 3961.804998
_symmetry_space_group_name_H-M "I B A M"
_symmetry_group_IT_number 72
_symmetry_cell_setting 'orthorhombic'
loop_
_space_group_symop_operation_xyz
x,y,z
-x,-y,z
x,-y,1/2-z
-x,y,1/2-z
-x,-y,-z
x,y,-z
-x,y,1/2+z
x,-y,1/2+z
1/2+x,1/2+y,1/2+z
1/2-x,1/2-y,1/2+z
1/2+x,1/2-y,-z
1/2-x,1/2+y,-z
1/2-x,1/2-y,1/2-z
1/2+x,1/2+y,1/2-z
1/2-x,1/2+y,z
1/2+x,1/2-y,z
loop_
_atom_site_type_symbol
_atom_site_label
_atom_site_fract_x
_atom_site_fract_y
_atom_site_fract_z
Si Si1 0.266363 0.156642 0.689390
Si Si2 0.950183 0.088575 0.310415
Si Si3 0.450326 0.222939 0.187228
Si Si4 0.678299 0.593462 0.687230
Si Si5 0.355334 0.217516 0.808887
O O1 0.262850 0.150233 0.500000
O O2 0.250000 0.250000 0.750000
O O3 0.230149 0.096688 0.770706
O O4 0.316879 0.155848 0.742425
O O5 0.947769 0.094717 0.500000
O O6 0.937807 0.177910 0.229387
O O7 0.000000 0.083164 0.250000
O O8 0.929054 0.000000 0.250000
O O9 0.500000 0.204353 0.250000
O O10 0.403795 0.182252 0.241993
O O11 0.453848 0.212135 0.000000
O O12 0.662849 0.500000 0.750000
O O13 0.671271 0.596971 0.500000
O O14 0.656743 0.682826 0.755338
O O15 0.353925 0.218190 0.000000
#
# Coordination Sequence:
#
# PCOD9525002 Si02
#       5
#    16  16  16  16  16
#     4  10  18  31  51  73  97 126 158 194 238 291
#     4  10  17  26  39  52  71  99 137 181 227 272
#     4  10  20  32  46  63  87 118 157 201 240 278
#     4  11  21  34  52  74 100 128 159 199 242 289
#     4  10  20  34  50  70  96 129 165 201 243 291
#
# _framework density 20.192815
#
# number of rings (size 3 to 8) (size 9 to 14) (size 15 to 20)
#    0.000    1.800    0.000   10.800    0.000    4.000 
#    0.000    0.000    0.000    0.000    0.000    0.000 
#    0.000    0.800    0.000    8.400    0.000    4.600 
#
# Total GULP energy -222669.028717 kJ/mol
# GULP energy per Si atom -5566.725718 kJ/mol
# Density = 2.014686 g / cm^3
# Si number density = 20.192815 Si / 1000 Ang^3
#
#
#
# Elastic Constant Matrix: (Units=GPa)
#
#
# Indices 1 2 3 4 5 6 
#
# 1 191.7348 7.7192 22.0855 0.0000 0.0000 0.0000
# 2 7.7192 15.7420 -3.1716 0.0000 0.0000 0.0000
# 3 22.0855 -3.1716 49.6657 0.0000 0.0000 0.0000
# 4 0.0000 0.0000 0.0000 13.2014 0.0000 0.0000
# 5 0.0000 0.0000 0.0000 0.0000 33.9507 0.0000
# 6 0.0000 0.0000 0.0000 0.0000 0.0000 50.0644
#
#
#
# Elastic Compliance Matrix: (Units=1/GPa)
#
#
# Indices 1 2 3 4 5 6 
#
# 1 0.005664 -0.003328 -0.002731 0.000000 0.000000 0.000000
# 2 -0.003328 0.066307 0.005714 0.000000 0.000000 0.000000
# 3 -0.002731 0.005714 0.021714 0.000000 0.000000 0.000000
# 4 0.000000 0.000000 0.000000 0.075750 0.000000 0.000000
# 5 0.000000 0.000000 0.000000 0.000000 0.029454 0.000000
# 6 0.000000 0.000000 0.000000 0.000000 0.000000 0.019974
#
#
# Mechanical properties :
#
#
# Convention : Reuss Voigt Hill
#
# Bulk Modulus (GPa) = 10.75319 34.48986 22.62152
# Shear Modulus (GPa) = 19.95593 34.81059 27.38326
#
# Velocity S-wave (km/s) = 3.14708 4.15650 3.68651
# Velocity P-wave (km/s) = 4.30608 6.33662 5.41734
#
# Compressibility (1/GPa) = 0.09299569
#
# Stress axis : x y z
#
# Youngs Moduli (GPa) = 176.55008 15.08129 46.05311
#
# Poissons Ratio (x) = 0.05019 0.12578
# Poissons Ratio (y) = 0.58751 -0.26315
# Poissons Ratio (z) = 0.48220 -0.08618
#
# Static dielectric constant tensor:
#      x y z
#    x 1.799870 0.000000 0.000000 
#    y 0.000000 1.735290 0.000000 
#    z 0.000000 0.000000 1.666570 
# 
# From -- ./inp_files/9105.got.cif
#   From: 2010.05.17/outbox.cif.g08.bks.cpg/sg72_5_cif.got.tgz:9105.got - 2010.06.03 17:03:01.
