data_PCOD9525874
_publ_section_title
;
Structure prediction by ZEFSAII (Michael W. Deem and Ramdas Pophale) SiO2 
 PCOD9525874
Probable space group: I B A M
;
_chemical_formula_sum "Si O2"
_cell_formula_units_Z 96
_cell_length_a 17.240302
_cell_length_b 18.353963
_cell_length_c 14.894731
_cell_angle_alpha 90.000000
_cell_angle_beta 90.000000
_cell_angle_gamma 90.000000
_cell_volume 4713.107930
_symmetry_space_group_name_H-M "I B A M"
_symmetry_group_IT_number 72
_symmetry_cell_setting 'orthorhombic'
loop_
_space_group_symop_operation_xyz
x,y,z
-x,-y,z
x,-y,1/2-z
-x,y,1/2-z
-x,-y,-z
x,y,-z
-x,y,1/2+z
x,-y,1/2+z
1/2+x,1/2+y,1/2+z
1/2-x,1/2-y,1/2+z
1/2+x,1/2-y,-z
1/2-x,1/2+y,-z
1/2-x,1/2-y,1/2-z
1/2+x,1/2+y,1/2-z
1/2-x,1/2+y,z
1/2+x,1/2-y,z
loop_
_atom_site_type_symbol
_atom_site_label
_atom_site_fract_x
_atom_site_fract_y
_atom_site_fract_z
Si Si1 0.493319 0.916364 0.109757
Si Si2 0.827560 0.608920 0.101911
Si Si3 0.747568 0.531629 0.351058
Si Si4 0.583661 0.522137 0.854167
Si Si5 0.834756 0.830360 0.609020
Si Si6 0.150632 0.664050 0.891108
O O1 0.412065 0.883374 0.143867
O O2 0.569419 0.872535 0.135001
O O3 0.500000 0.000000 0.138553
O O4 0.489136 0.916584 0.000000
O O5 0.807283 0.522840 0.099847
O O6 0.750987 0.645779 0.141484
O O7 0.832741 0.636659 0.000000
O O8 0.747218 0.500000 0.250000
O O9 0.661065 0.518984 0.389446
O O10 0.779992 0.612694 0.356771
O O11 0.500000 0.500000 0.893290
O O12 0.580346 0.500000 0.750000
O O13 0.604378 0.607693 0.861561
O O14 0.835117 0.833071 0.500000
O O15 0.848696 0.747916 0.637999
O O16 0.155810 0.663263 0.000000
#
# Coordination Sequence:
#
# PCOD9525874 Si02
#       6
#    16  16  16  16  16  16
#     4   9  15  26  50  75  98 137 173 198 251 324
#     4   9  16  31  51  71  99 136 173 207 256 315
#     4  10  19  32  53  78 100 138 182 215 256 319
#     4   9  19  38  59  74 103 145 187 220 266 322
#     4   9  19  34  55  82 108 133 172 229 272 307
#     4  10  19  34  53  77 111 140 169 219 277 319
#
# _framework density 20.368725000000001
#
# number of rings (size 3 to 8) (size 9 to 14) (size 15 to 20)
#    0.000    2.667    1.667    0.500    0.000    1.000 
#    3.000    9.167    3.667    0.000    0.000    0.000 
#    0.000    0.000    0.000    0.000    0.000    0.000 
#
# Total GULP energy -267670.859172 kJ/mol
# GULP energy per Si atom -5576.476233 kJ/mol
# Density = 2.032236 g / cm^3
# Si number density = 20.368725 Si / 1000 Ang^3
#
#
#
# Elastic Constant Matrix: (Units=GPa)
#
#
# Indices 1 2 3 4 5 6 
#
# 1 166.4810 92.6793 9.5942 0.0000 0.0000 0.0000
# 2 92.6793 188.4820 14.6781 0.0000 0.0000 0.0000
# 3 9.5942 14.6781 56.9859 0.0000 0.0000 0.0000
# 4 0.0000 0.0000 0.0000 16.4636 0.0000 0.0000
# 5 0.0000 0.0000 0.0000 0.0000 5.1528 0.0000
# 6 0.0000 0.0000 0.0000 0.0000 0.0000 25.3932
#
#
#
# Elastic Compliance Matrix: (Units=1/GPa)
#
#
# Indices 1 2 3 4 5 6 
#
# 1 0.008278 -0.004043 -0.000352 0.000000 0.000000 0.000000
# 2 -0.004043 0.007389 -0.001222 0.000000 0.000000 0.000000
# 3 -0.000352 -0.001222 0.017922 0.000000 0.000000 0.000000
# 4 0.000000 0.000000 0.000000 0.060740 0.000000 0.000000
# 5 0.000000 0.000000 0.000000 0.000000 0.194071 0.000000
# 6 0.000000 0.000000 0.000000 0.000000 0.000000 0.039381
#
#
# Mechanical properties :
#
#
# Convention : Reuss Voigt Hill
#
# Bulk Modulus (GPa) = 44.73571 71.76133 58.24852
# Shear Modulus (GPa) = 14.43140 29.06840 21.74990
#
# Velocity S-wave (km/s) = 2.66467 3.78181 3.27128
# Velocity P-wave (km/s) = 5.61052 7.37408 6.55191
#
# Compressibility (1/GPa) = 0.02235351
#
# Stress axis : x y z
#
# Youngs Moduli (GPa) = 120.80816 135.34303 55.79612
#
# Poissons Ratio (x) = 0.54716 0.01966
# Poissons Ratio (y) = 0.48840 0.06821
# Poissons Ratio (z) = 0.04256 0.16545
#
# Static dielectric constant tensor:
#      x y z
#    x 1.760550 0.000000 0.000000 
#    y 0.000000 1.692830 0.000000 
#    z 0.000000 0.000000 1.785340 
# 
# From -- ./inp_files/31830.got.cif
#   From: 2010.05.17/outbox.cif.g08.bks.cpg/sg72_16_cif.got.tgz:31830.got - 2010.06.03 17:03:01.
