data_PCOD9525125
_publ_section_title
;
Structure prediction by ZEFSAII (Michael W. Deem and Ramdas Pophale) SiO2 
 PCOD9525125
Probable space group: I B A M
;
_chemical_formula_sum "Si O2"
_cell_formula_units_Z 96
_cell_length_a 8.227301
_cell_length_b 27.780425
_cell_length_c 20.152123
_cell_angle_alpha 90.000000
_cell_angle_beta 90.000000
_cell_angle_gamma 90.000000
_cell_volume 4605.927284
_symmetry_space_group_name_H-M "I B A M"
_symmetry_group_IT_number 72
_symmetry_cell_setting 'orthorhombic'
loop_
_space_group_symop_operation_xyz
x,y,z
-x,-y,z
x,-y,1/2-z
-x,y,1/2-z
-x,-y,-z
x,y,-z
-x,y,1/2+z
x,-y,1/2+z
1/2+x,1/2+y,1/2+z
1/2-x,1/2-y,1/2+z
1/2+x,1/2-y,-z
1/2-x,1/2+y,-z
1/2-x,1/2-y,1/2-z
1/2+x,1/2+y,1/2-z
1/2-x,1/2+y,z
1/2+x,1/2-y,z
loop_
_atom_site_type_symbol
_atom_site_label
_atom_site_fract_x
_atom_site_fract_y
_atom_site_fract_z
Si Si1 0.809203 0.392254 0.816937
Si Si2 0.332200 0.092539 0.340283
Si Si3 0.167472 0.828519 0.925399
Si Si4 0.315692 0.506330 0.830621
Si Si5 0.840047 0.708615 0.707503
Si Si6 0.483158 0.760279 0.925200
O O1 0.823031 0.405731 0.739233
O O2 0.726857 0.438902 0.847732
O O3 0.736752 0.338887 0.809478
O O4 0.984186 0.389947 0.853269
O O5 0.206844 0.129903 0.373087
O O6 0.294922 0.037080 0.358523
O O7 0.312533 0.788374 0.919615
O O8 0.001017 0.797825 0.920642
O O9 0.178044 0.848636 0.000000
O O10 0.500000 0.500000 0.851656
O O11 0.309728 0.500000 0.750000
O O12 0.750000 0.750000 0.750000
O O13 0.911421 0.724508 0.637530
O O14 0.000000 0.694109 0.750000
O O15 0.544933 0.771833 0.000000
#
# Coordination Sequence:
#
# PCOD9525125 Si02
#       6
#    16  16  16  16  16  16
#     4  10  18  33  54  78 109 148 178 224 284 341
#     4  10  17  34  55  77 106 139 185 230 281 335
#     4  10  20  36  57  79 109 151 195 235 275 340
#     4   9  19  34  53  81 107 137 184 231 285 344
#     4  12  22  37  54  86 122 150 191 237 291 337
#     4  10  20  36  55  77 113 155 194 230 277 346
#
# _framework density 20.842708999999999
#
# number of rings (size 3 to 8) (size 9 to 14) (size 15 to 20)
#    0.000    1.833    3.333    2.500    0.000    2.000 
#   12.000    0.000    0.000    3.500    0.000    0.000 
#    0.000    0.000    0.000    0.000    0.000    0.000 
#
# Total GULP energy -267229.597514 kJ/mol
# GULP energy per Si atom -5567.283282 kJ/mol
# Density = 2.079527 g / cm^3
# Si number density = 20.842709 Si / 1000 Ang^3
#
#
#
# Elastic Constant Matrix: (Units=GPa)
#
#
# Indices 1 2 3 4 5 6 
#
# 1 27.9090 39.2830 13.8511 0.0000 0.0000 0.0000
# 2 39.2830 146.5607 24.3513 0.0000 0.0000 0.0000
# 3 13.8511 24.3513 70.3642 0.0000 0.0000 0.0000
# 4 0.0000 0.0000 0.0000 13.9808 0.0000 0.0000
# 5 0.0000 0.0000 0.0000 0.0000 17.3333 0.0000
# 6 0.0000 0.0000 0.0000 0.0000 0.0000 27.6303
#
#
#
# Elastic Compliance Matrix: (Units=1/GPa)
#
#
# Indices 1 2 3 4 5 6 
#
# 1 0.060347 -0.015067 -0.006665 0.000000 0.000000 0.000000
# 2 -0.015067 0.011001 -0.000841 0.000000 0.000000 0.000000
# 3 -0.006665 -0.000841 0.015815 0.000000 0.000000 0.000000
# 4 0.000000 0.000000 0.000000 0.071526 0.000000 0.000000
# 5 0.000000 0.000000 0.000000 0.000000 0.057693 0.000000
# 6 0.000000 0.000000 0.000000 0.000000 0.000000 0.036192
#
#
# Mechanical properties :
#
#
# Convention : Reuss Voigt Hill
#
# Bulk Modulus (GPa) = 23.80050 44.42274 34.11162
# Shear Modulus (GPa) = 16.03971 22.94543 19.49257
#
# Velocity S-wave (km/s) = 2.77710 3.32156 3.06146
# Velocity P-wave (km/s) = 4.66122 6.00582 5.37573
#
# Compressibility (1/GPa) = 0.04201592
#
# Stress axis : x y z
#
# Youngs Moduli (GPa) = 16.57097 90.89704 63.23161
#
# Poissons Ratio (x) = 1.36959 0.42142
# Poissons Ratio (y) = 0.24968 0.05320
# Poissons Ratio (z) = 0.11044 0.07647
#
# Static dielectric constant tensor:
#      x y z
#    x 1.828850 0.000000 0.000000 
#    y 0.000000 1.840770 0.000000 
#    z 0.000000 0.000000 1.739570 
# 
# From -- ./inp_files/35986.got.cif
#   From: 2010.05.17/outbox.cif.g08.bks.cpg/sg72_18_cif.got.tgz:35986.got - 2010.06.03 17:03:01.
