data_PCOD9525679
_publ_section_title
;
Structure prediction by ZEFSAII (Michael W. Deem and Ramdas Pophale) SiO2 
 PCOD9525679
Probable space group: I B A M
;
_chemical_formula_sum "Si O2"
_cell_formula_units_Z 88
_cell_length_a 25.267135
_cell_length_b 9.343940
_cell_length_c 14.216918
_cell_angle_alpha 90.000000
_cell_angle_beta 90.000000
_cell_angle_gamma 90.000000
_cell_volume 3356.537475
_symmetry_space_group_name_H-M "I B A M"
_symmetry_group_IT_number 72
_symmetry_cell_setting 'orthorhombic'
loop_
_space_group_symop_operation_xyz
x,y,z
-x,-y,z
x,-y,1/2-z
-x,y,1/2-z
-x,-y,-z
x,y,-z
-x,y,1/2+z
x,-y,1/2+z
1/2+x,1/2+y,1/2+z
1/2-x,1/2-y,1/2+z
1/2+x,1/2-y,-z
1/2-x,1/2+y,-z
1/2-x,1/2-y,1/2-z
1/2+x,1/2+y,1/2-z
1/2-x,1/2+y,z
1/2+x,1/2-y,z
loop_
_atom_site_type_symbol
_atom_site_label
_atom_site_fract_x
_atom_site_fract_y
_atom_site_fract_z
Si Si1 0.514664 0.668066 0.858740
Si Si2 0.618541 0.987637 0.885451
Si Si3 0.129374 0.076699 0.386854
Si Si4 0.285180 0.783000 0.385813
Si Si5 0.165410 0.209154 0.114634
Si Si6 0.500000 0.000000 0.874627
O O1 0.500000 0.500000 0.891583
O O2 0.500000 0.674158 0.750000
O O3 0.578383 0.667947 0.864092
O O4 0.493430 0.821405 0.901771
O O5 0.639771 0.142879 0.861522
O O6 0.560048 0.975891 0.844840
O O7 0.667799 0.888828 0.857593
O O8 0.611433 0.972372 0.000000
O O9 0.128862 0.074276 0.500000
O O10 0.187663 0.132776 0.361895
O O11 0.127601 0.916303 0.349962
O O12 0.281883 0.794092 0.500000
O O13 0.225841 0.801760 0.351410
O O14 0.167269 0.203130 0.000000
#
# Coordination Sequence:
#
# PCOD9525679 Si02
#       6
#    16  16  16  16  16   8
#     4  11  25  43  61  84 114 159 206 249 302 358
#     4  10  19  30  49  82 119 155 193 242 301 353
#     4  10  19  34  56  87 123 155 197 250 296 352
#     4   9  16  29  49  80 123 161 192 235 296 360
#     4   9  17  29  50  83 124 163 194 236 299 364
#     4  12  22  38  60  82 113 154 201 252 301 364
#
# _framework density 26.217493000000001
#
# number of rings (size 3 to 8) (size 9 to 14) (size 15 to 20)
#    0.000    2.000    1.818    2.727    0.000    5.455 
#    0.000    0.000    0.000    0.000    0.000   22.909 
#    0.000    0.000    0.000    0.000    0.000    0.364 
#
# Total GULP energy -245069.225888 kJ/mol
# GULP energy per Si atom -5569.755134 kJ/mol
# Density = 2.615782 g / cm^3
# Si number density = 26.217493 Si / 1000 Ang^3
#
#
#
# Elastic Constant Matrix: (Units=GPa)
#
#
# Indices 1 2 3 4 5 6 
#
# 1 167.9436 42.7880 0.4001 0.0000 0.0000 0.0000
# 2 42.7880 137.8759 11.8843 0.0000 0.0000 0.0000
# 3 0.4001 11.8843 97.9498 0.0000 0.0000 0.0000
# 4 0.0000 0.0000 0.0000 -9.0079 0.0000 0.0000
# 5 0.0000 0.0000 0.0000 0.0000 -10.5692 0.0000
# 6 0.0000 0.0000 0.0000 0.0000 0.0000 20.9219
#
#
#
# Elastic Compliance Matrix: (Units=1/GPa)
#
#
# Indices 1 2 3 4 5 6 
#
# 1 0.006470 -0.002027 0.000219 0.000000 0.000000 0.000000
# 2 -0.002027 0.007964 -0.000958 0.000000 0.000000 0.000000
# 3 0.000219 -0.000958 0.010325 0.000000 0.000000 0.000000
# 4 0.000000 0.000000 0.000000 -0.111013 0.000000 0.000000
# 5 0.000000 0.000000 0.000000 0.000000 -0.094614 0.000000
# 6 0.000000 0.000000 0.000000 0.000000 0.000000 0.047797
#
#
# Mechanical properties :
#
#
# Convention : Reuss Voigt Hill
#
# Bulk Modulus (GPa) = 52.00608 57.10157 54.55382
# Shear Modulus (GPa) = -41.27777 23.51539 -8.88119
#
# Velocity S-wave (km/s) = -3.97222 2.99814 -1.84251
# Velocity P-wave (km/s) = 1.07638 5.81484 4.04065
#
# Compressibility (1/GPa) = 0.01922852
#
# Stress axis : x y z
#
# Youngs Moduli (GPa) = 154.55333 125.55727 96.85548
#
# Poissons Ratio (x) = 0.25449 -0.02126
# Poissons Ratio (y) = 0.31326 0.09279
# Poissons Ratio (z) = -0.03392 0.12029
#
# Static dielectric constant tensor:
#      x y z
#    x 1.902440 0.000000 0.000000 
#    y 0.000000 2.217920 0.000000 
#    z 0.000000 0.000000 2.085650 
# 
# From -- ./inp_files/40145.got.cif
#   From: 2010.05.17/outbox.cif.g08.bks.cpg/sg72_21_cif.got.tgz:40145.got - 2010.06.03 17:03:01.
