data_PCOD9525107
_publ_section_title
;
Structure prediction by ZEFSAII (Michael W. Deem and Ramdas Pophale) SiO2 
 PCOD9525107
Probable space group: I B A M
;
_chemical_formula_sum "Si O2"
_cell_formula_units_Z 112
_cell_length_a 14.899086
_cell_length_b 14.870980
_cell_length_c 23.820690
_cell_angle_alpha 90.000000
_cell_angle_beta 90.000000
_cell_angle_gamma 90.000000
_cell_volume 5277.807596
_symmetry_space_group_name_H-M "I B A M"
_symmetry_group_IT_number 72
_symmetry_cell_setting 'orthorhombic'
loop_
_space_group_symop_operation_xyz
x,y,z
-x,-y,z
x,-y,1/2-z
-x,y,1/2-z
-x,-y,-z
x,y,-z
-x,y,1/2+z
x,-y,1/2+z
1/2+x,1/2+y,1/2+z
1/2-x,1/2-y,1/2+z
1/2+x,1/2-y,-z
1/2-x,1/2+y,-z
1/2-x,1/2-y,1/2-z
1/2+x,1/2+y,1/2-z
1/2-x,1/2+y,z
1/2+x,1/2-y,z
loop_
_atom_site_type_symbol
_atom_site_label
_atom_site_fract_x
_atom_site_fract_y
_atom_site_fract_z
Si Si1 0.852619 0.896698 0.751646
Si Si2 0.269772 0.974110 0.065257
Si Si3 0.365316 0.101122 0.764441
Si Si4 0.128071 0.362603 0.605536
Si Si5 0.443608 0.847656 0.062489
Si Si6 0.382443 0.757959 0.170265
Si Si7 0.683533 0.677675 0.135847
O O1 0.743734 0.894869 0.759268
O O2 0.892511 0.838968 0.802159
O O3 0.869290 0.846526 0.692566
O O4 0.880749 0.000000 0.750000
O O5 0.364086 0.919689 0.070146
O O6 0.203654 0.914374 0.103011
O O7 0.289545 0.073602 0.088164
O O8 0.244084 0.976196 0.000000
O O9 0.388283 0.123568 0.828283
O O10 0.404132 0.168966 0.718417
O O11 0.392243 0.000000 0.750000
O O12 0.143430 0.256412 0.597757
O O13 0.041187 0.390319 0.570357
O O14 0.433723 0.776878 0.112905
O O15 0.434212 0.809537 0.000000
O O16 0.278006 0.778306 0.155874
#
# Coordination Sequence:
#
# PCOD9525107 Si02
#       7
#    16  16  16  16  16  16  16
#     4  10  17  32  58  85 116 148 183 234 298 349
#     4  10  22  38  55  81 118 160 200 238 284 351
#     4  10  18  30  53  88 120 145 178 236 298 351
#     4  12  20  35  59  86 117 153 195 242 301 349
#     4  10  23  39  56  79 116 158 196 239 293 359
#     4  10  18  36  55  83 115 151 187 232 296 353
#     4  10  20  34  57  88 116 147 193 245 287 344
#
# _framework density 21.220932000000001
#
# number of rings (size 3 to 8) (size 9 to 14) (size 15 to 20)
#    0.000    1.714    2.857    5.143    0.000    2.857 
#    0.000    0.714    0.000    1.714    0.000    1.000 
#    0.000    0.000    0.000    0.000    0.000    0.000 
#
# Total GULP energy -313022.233135 kJ/mol
# GULP energy per Si atom -5589.682735 kJ/mol
# Density = 2.117263 g / cm^3
# Si number density = 21.220932 Si / 1000 Ang^3
#
#
#
# Elastic Constant Matrix: (Units=GPa)
#
#
# Indices 1 2 3 4 5 6 
#
# 1 27.3845 2.1417 6.3348 0.0000 0.0000 0.0000
# 2 2.1417 127.6458 51.1686 0.0000 0.0000 0.0000
# 3 6.3348 51.1686 123.1307 0.0000 0.0000 0.0000
# 4 0.0000 0.0000 0.0000 16.4352 0.0000 0.0000
# 5 0.0000 0.0000 0.0000 0.0000 18.2920 0.0000
# 6 0.0000 0.0000 0.0000 0.0000 0.0000 8.7695
#
#
#
# Elastic Compliance Matrix: (Units=1/GPa)
#
#
# Indices 1 2 3 4 5 6 
#
# 1 0.036960 0.000171 -0.001972 0.000000 0.000000 0.000000
# 2 0.000171 0.009401 -0.003915 0.000000 0.000000 0.000000
# 3 -0.001972 -0.003915 0.009850 0.000000 0.000000 0.000000
# 4 0.000000 0.000000 0.000000 0.060845 0.000000 0.000000
# 5 0.000000 0.000000 0.000000 0.000000 0.054669 0.000000
# 6 0.000000 0.000000 0.000000 0.000000 0.000000 0.114031
#
#
# Mechanical properties :
#
#
# Convention : Reuss Voigt Hill
#
# Bulk Modulus (GPa) = 22.33327 44.16125 33.24726
# Shear Modulus (GPa) = 16.01969 23.26708 19.64338
#
# Velocity S-wave (km/s) = 2.75053 3.31482 3.04577
# Velocity P-wave (km/s) = 4.54249 5.95870 5.29813
#
# Compressibility (1/GPa) = 0.04477625
#
# Stress axis : x y z
#
# Youngs Moduli (GPa) = 27.05636 106.37309 101.52248
#
# Poissons Ratio (x) = -0.01814 0.20024
# Poissons Ratio (y) = -0.00461 0.39750
# Poissons Ratio (z) = 0.05336 0.41650
#
# Static dielectric constant tensor:
#      x y z
#    x 1.811490 0.000000 0.000000 
#    y 0.000000 1.770000 0.000000 
#    z 0.000000 0.000000 1.744590 
# 
# From -- ./inp_files/48700.got.cif
#   From: 2010.05.17/outbox.cif.g08.bks.cpg/sg72_25_cif.got.tgz:48700.got - 2010.06.03 17:03:01.
