data_PCOD9525657
_publ_section_title
;
Structure prediction by ZEFSAII (Michael W. Deem and Ramdas Pophale) SiO2 
 PCOD9525657
Probable space group: I B A M
;
_chemical_formula_sum "Si O2"
_cell_formula_units_Z 68
_cell_length_a 37.060056
_cell_length_b 5.309091
_cell_length_c 20.622102
_cell_angle_alpha 90.000000
_cell_angle_beta 90.000000
_cell_angle_gamma 90.000000
_cell_volume 4057.506005
_symmetry_space_group_name_H-M "I B A M"
_symmetry_group_IT_number 72
_symmetry_cell_setting 'orthorhombic'
loop_
_space_group_symop_operation_xyz
x,y,z
-x,-y,z
x,-y,1/2-z
-x,y,1/2-z
-x,-y,-z
x,y,-z
-x,y,1/2+z
x,-y,1/2+z
1/2+x,1/2+y,1/2+z
1/2-x,1/2-y,1/2+z
1/2+x,1/2-y,-z
1/2-x,1/2+y,-z
1/2-x,1/2-y,1/2-z
1/2+x,1/2+y,1/2-z
1/2-x,1/2+y,z
1/2+x,1/2-y,z
loop_
_atom_site_type_symbol
_atom_site_label
_atom_site_fract_x
_atom_site_fract_y
_atom_site_fract_z
Si Si1 0.478201 0.757875 0.624063
Si Si2 0.103588 0.779229 0.078164
Si Si3 0.500000 0.000000 0.250000
Si Si4 0.354512 0.220996 0.420852
Si Si5 0.271199 0.751862 0.920933
O O1 0.500000 0.500000 0.613165
O O2 0.437896 0.736248 0.598642
O O3 0.500000 0.000000 0.595588
O O4 0.477628 0.825699 0.700803
O O5 0.125842 0.534521 0.100275
O O6 0.122959 0.035097 0.100390
O O7 0.104643 0.780154 0.000000
O O8 0.354387 0.220691 0.500000
O O9 0.312845 0.235305 0.400299
O O10 0.251245 0.496876 0.900361
O O11 0.271359 0.751496 0.000000
#
# Coordination Sequence:
#
# PCOD9525657 Si02
#       5
#    16  16   4  16  16
#     4  10  20  34  51  68  88 116 153 186 234 272
#     4  10  19  30  45  66  93 124 151 185 228 269
#     4   8  22  36  52  68  86 112 150 194 238 268
#     4   9  17  28  40  60  92 123 154 187 222 261
#     4   9  15  23  37  56  80 118 161 188 208 246
#
# _framework density 16.759063000000001
#
# number of rings (size 3 to 8) (size 9 to 14) (size 15 to 20)
#    0.706    1.882    0.000    3.176    0.000    6.588 
#    0.000    0.000    0.000    0.000    0.000    0.000 
#    0.000    0.000    0.000   21.176    0.000    9.412 
#
# Total GULP energy -189317.905715 kJ/mol
# GULP energy per Si atom -5568.173697 kJ/mol
# Density = 1.672092 g / cm^3
# Si number density = 16.759063 Si / 1000 Ang^3
#
#
#
# Elastic Constant Matrix: (Units=GPa)
#
#
# Indices 1 2 3 4 5 6 
#
# 1 110.3947 40.6097 2.9746 0.0000 0.0000 0.0000
# 2 40.6097 121.9109 7.0420 0.0000 0.0000 0.0000
# 3 2.9746 7.0420 3.6574 0.0000 0.0000 0.0000
# 4 0.0000 0.0000 0.0000 3.6718 0.0000 0.0000
# 5 0.0000 0.0000 0.0000 0.0000 -4.6033 0.0000
# 6 0.0000 0.0000 0.0000 0.0000 0.0000 34.9120
#
#
#
# Elastic Compliance Matrix: (Units=1/GPa)
#
#
# Indices 1 2 3 4 5 6 
#
# 1 0.010336 -0.003328 -0.002000 0.000000 0.000000 0.000000
# 2 -0.003328 0.010300 -0.017126 0.000000 0.000000 0.000000
# 3 -0.002000 -0.017126 0.308018 0.000000 0.000000 0.000000
# 4 0.000000 0.000000 0.000000 0.272346 0.000000 0.000000
# 5 0.000000 0.000000 0.000000 0.000000 -0.217234 0.000000
# 6 0.000000 0.000000 0.000000 0.000000 0.000000 0.028643
#
#
# Mechanical properties :
#
#
# Convention : Reuss Voigt Hill
#
# Bulk Modulus (GPa) = 3.52426 37.46840 20.49633
# Shear Modulus (GPa) = 9.05963 19.15188 14.10576
#
# Velocity S-wave (km/s) = 2.32756 3.38417 2.90432
# Velocity P-wave (km/s) = 3.05464 6.13806 4.84802
#
# Compressibility (1/GPa) = 0.28374791
#
# Stress axis : x y z
#
# Youngs Moduli (GPa) = 96.74552 97.08329 3.24657
#
# Poissons Ratio (x) = 0.32306 0.00649
# Poissons Ratio (y) = 0.32194 0.05560
# Poissons Ratio (z) = 0.19345 1.66265
#
# Static dielectric constant tensor:
#      x y z
#    x 1.539000 0.000000 0.000000 
#    y 0.000000 1.580290 0.000000 
#    z 0.000000 0.000000 1.545060 
# 
# From -- ./inp_files/34925.got.cif
#   From: 2010.05.17/outbox.cif.g08.bks.cpg/sg72_18_cif.got.tgz:34925.got - 2010.06.03 17:03:01.
