data_PCOD9525080
_publ_section_title
;
Structure prediction by ZEFSAII (Michael W. Deem and Ramdas Pophale) SiO2 
 PCOD9525080
Probable space group: I B A M
;
_chemical_formula_sum "Si O2"
_cell_formula_units_Z 68
_cell_length_a 9.916198
_cell_length_b 15.302003
_cell_length_c 19.694327
_cell_angle_alpha 90.000000
_cell_angle_beta 90.000000
_cell_angle_gamma 90.000000
_cell_volume 2988.371716
_symmetry_space_group_name_H-M "I B A M"
_symmetry_group_IT_number 72
_symmetry_cell_setting 'orthorhombic'
loop_
_space_group_symop_operation_xyz
x,y,z
-x,-y,z
x,-y,1/2-z
-x,y,1/2-z
-x,-y,-z
x,y,-z
-x,y,1/2+z
x,-y,1/2+z
1/2+x,1/2+y,1/2+z
1/2-x,1/2-y,1/2+z
1/2+x,1/2-y,-z
1/2-x,1/2+y,-z
1/2-x,1/2-y,1/2-z
1/2+x,1/2+y,1/2-z
1/2-x,1/2+y,z
1/2+x,1/2-y,z
loop_
_atom_site_type_symbol
_atom_site_label
_atom_site_fract_x
_atom_site_fract_y
_atom_site_fract_z
Si Si1 0.875070 0.124153 0.148652
Si Si2 0.143020 0.659227 0.261185
Si Si3 0.705571 0.354259 0.000000
Si Si4 0.824758 0.920317 0.147860
Si Si5 0.000000 0.500000 0.250000
Si Si6 0.099456 0.805612 0.000000
O O1 0.769962 0.183533 0.191701
O O2 0.034894 0.130440 0.162784
O O3 0.846864 0.022108 0.163849
O O4 0.858709 0.145211 0.069100
O O5 0.500000 0.792463 0.250000
O O6 0.208841 0.623869 0.192025
O O7 0.085019 0.568235 0.293971
O O8 0.704087 0.410411 0.068294
O O9 0.563182 0.301788 0.000000
O O10 0.828922 0.287599 0.000000
#
# Coordination Sequence:
#
# PCOD9525080 Si02
#       6
#    16  16   8  16   4   8
#     4  10  18  33  57  82 105 135 174 217 260 308
#     4  10  17  30  51  82 114 134 164 213 266 313
#     4  10  23  39  53  75 107 142 178 216 260 310
#     4  10  18  33  57  82 105 135 174 217 260 308
#     4   8  16  28  46  78 128 124 162 202 278 308
#     4  10  23  39  53  75 107 142 178 216 260 310
#
# _framework density 22.754866
#
# number of rings (size 3 to 8) (size 9 to 14) (size 15 to 20)
#    0.706    1.412    2.353    1.412    0.000    6.588 
#    0.000    1.176    0.000    5.647    0.000    0.000 
#    0.000    0.000    0.000    0.000    0.000    0.000 
#
# Total GULP energy -189583.354273 kJ/mol
# GULP energy per Si atom -5575.981008 kJ/mol
# Density = 2.270307 g / cm^3
# Si number density = 22.754866 Si / 1000 Ang^3
#
#
#
# Elastic Constant Matrix: (Units=GPa)
#
#
# Indices 1 2 3 4 5 6 
#
# 1 161.2411 7.4893 66.9379 0.0000 0.0000 0.0000
# 2 7.4893 65.0994 -1.0618 0.0000 0.0000 0.0000
# 3 66.9379 -1.0618 114.6775 0.0000 0.0000 0.0000
# 4 0.0000 0.0000 0.0000 -564.7903 0.0000 0.0000
# 5 0.0000 0.0000 0.0000 0.0000 -34.9748 0.0000
# 6 0.0000 0.0000 0.0000 0.0000 0.0000 28.8538
#
#
#
# Elastic Compliance Matrix: (Units=1/GPa)
#
#
# Indices 1 2 3 4 5 6 
#
# 1 0.008254 -0.001028 -0.004827 0.000000 0.000000 0.000000
# 2 -0.001028 0.015492 0.000744 0.000000 0.000000 0.000000
# 3 -0.004827 0.000744 0.011545 0.000000 0.000000 0.000000
# 4 0.000000 0.000000 0.000000 -0.001771 0.000000 0.000000
# 5 0.000000 0.000000 0.000000 0.000000 -0.028592 0.000000
# 6 0.000000 0.000000 0.000000 0.000000 0.000000 0.034658
#
#
# Mechanical properties :
#
#
# Convention : Reuss Voigt Hill
#
# Bulk Modulus (GPa) = 39.89440 54.19430 47.04435
# Shear Modulus (GPa) = 85.96406 -96.33876 -5.18735
#
# Velocity S-wave (km/s) = 6.15308 -6.51380 -1.51149
# Velocity P-wave (km/s) = 8.24929 5.71878 4.20394
#
# Compressibility (1/GPa) = 0.02506618
#
# Stress axis : x y z
#
# Youngs Moduli (GPa) = 121.15881 64.55132 86.62014
#
# Poissons Ratio (x) = 0.06638 0.41813
# Poissons Ratio (y) = 0.12458 -0.06441
# Poissons Ratio (z) = 0.58486 -0.04800
#
# Static dielectric constant tensor:
#      x y z
#    x 1.923100 0.000000 0.000000 
#    y 0.000000 1.920970 0.000000 
#    z 0.000000 0.000000 1.822480 
# 
# From -- ./inp_files/35524.got.cif
#   From: 2010.05.17/outbox.cif.g08.bks.cpg/sg72_18_cif.got.tgz:35524.got - 2010.06.03 17:03:01.
