data_PCOD9525913
_publ_section_title
;
Structure prediction by ZEFSAII (Michael W. Deem and Ramdas Pophale) SiO2 
 PCOD9525913
Probable space group: I B A M
;
_chemical_formula_sum "Si O2"
_cell_formula_units_Z 116
_cell_length_a 16.318579
_cell_length_b 25.585853
_cell_length_c 11.562515
_cell_angle_alpha 90.000000
_cell_angle_beta 90.000000
_cell_angle_gamma 90.000000
_cell_volume 4827.636340
_symmetry_space_group_name_H-M "I B A M"
_symmetry_group_IT_number 72
_symmetry_cell_setting 'orthorhombic'
loop_
_space_group_symop_operation_xyz
x,y,z
-x,-y,z
x,-y,1/2-z
-x,y,1/2-z
-x,-y,-z
x,y,-z
-x,y,1/2+z
x,-y,1/2+z
1/2+x,1/2+y,1/2+z
1/2-x,1/2-y,1/2+z
1/2+x,1/2-y,-z
1/2-x,1/2+y,-z
1/2-x,1/2-y,1/2-z
1/2+x,1/2+y,1/2-z
1/2-x,1/2+y,z
1/2+x,1/2-y,z
loop_
_atom_site_type_symbol
_atom_site_label
_atom_site_fract_x
_atom_site_fract_y
_atom_site_fract_z
Si Si1 0.789099 0.379156 0.668850
Si Si2 0.535233 0.848753 0.623723
Si Si3 0.387667 0.736155 0.127407
Si Si4 0.804529 0.015985 0.872111
Si Si5 0.492837 0.635866 0.374367
Si Si6 0.500000 0.000000 0.750000
Si Si7 0.351588 0.060498 0.869937
Si Si8 0.166657 0.209087 0.373704
O O1 0.879529 0.380411 0.616847
O O2 0.725975 0.424224 0.632779
O O3 0.811411 0.391363 0.801166
O O4 0.749037 0.324666 0.636847
O O5 0.500000 0.860642 0.750000
O O6 0.492619 0.857381 0.500000
O O7 0.554901 0.786916 0.626692
O O8 0.439810 0.682457 0.129139
O O9 0.343567 0.738503 0.252003
O O10 0.345102 0.735825 0.000000
O O11 0.847167 0.000000 0.750000
O O12 0.719300 0.983583 0.867625
O O13 0.842233 0.006203 0.000000
O O14 0.500000 0.607208 0.250000
O O15 0.501272 0.608499 0.500000
O O16 0.406908 0.666641 0.375391
O O17 0.435991 0.035717 0.821997
O O18 0.363030 0.074785 0.000000
O O19 0.161808 0.236173 0.500000
#
# Coordination Sequence:
#
# PCOD9525913 Si02
#       8
#    16  16  16  16  16   4  16  16
#     4  11  22  37  51  80 114 143 178 227 282 330
#     4  11  24  39  55  75 103 144 189 234 285 333
#     4   9  19  37  56  76 106 141 179 226 278 330
#     4   9  17  34  53  69  97 135 171 212 260 313
#     4   8  14  27  49  73  96 127 170 216 260 314
#     4  12  18  40  60  86  96 140 196 240 278 320
#     4  10  22  37  56  80 107 141 186 231 277 329
#     4  10  19  32  55  81 106 141 182 224 274 330
#
# _framework density 24.028323
#
# number of rings (size 3 to 8) (size 9 to 14) (size 15 to 20)
#    0.000    2.207    2.069    2.690    0.966    3.310 
#    0.000    0.000    0.000    0.000    0.000    0.000 
#    0.000   44.690    0.000  273.103    0.000   14.069 
#
# Total GULP energy -323332.561517 kJ/mol
# GULP energy per Si atom -5574.699337 kJ/mol
# Density = 2.397363 g / cm^3
# Si number density = 24.028323 Si / 1000 Ang^3
#
#
#
# Elastic Constant Matrix: (Units=GPa)
#
#
# Indices 1 2 3 4 5 6 
#
# 1 31.0760 -11.0819 34.7365 0.0002 0.0000 0.0000
# 2 -11.0819 36.8766 36.7807 -0.0002 0.0000 0.0000
# 3 34.7365 36.7807 319.7226 -0.0034 0.0000 0.0001
# 4 0.0002 -0.0002 -0.0034 -87.1232 0.0005 -0.0001
# 5 0.0000 0.0000 0.0000 0.0005 2.3102 0.0000
# 6 0.0000 0.0000 0.0001 -0.0001 0.0000 15.0220
#
#
#
# Elastic Compliance Matrix: (Units=1/GPa)
#
#
# Indices 1 2 3 4 5 6 
#
# 1 0.049169 0.022710 -0.007955 0.000000 -0.000001 0.000000
# 2 0.022710 0.041121 -0.007198 0.000000 -0.000001 0.000000
# 3 -0.007955 -0.007198 0.004820 0.000000 0.000000 0.000000
# 4 0.000000 0.000000 0.000000 -0.011478 0.000003 0.000000
# 5 -0.000001 -0.000001 0.000000 0.000003 0.432859 0.000000
# 6 0.000000 0.000000 0.000000 0.000000 0.000000 0.066569
#
#
# Mechanical properties :
#
#
# Convention : Reuss Voigt Hill
#
# Bulk Modulus (GPa) = 9.07235 56.50509 32.78872
# Shear Modulus (GPa) = 8.26873 7.85780 8.06327
#
# Velocity S-wave (km/s) = 1.85707 1.81034 1.83385
# Velocity P-wave (km/s) = 2.89520 5.28553 4.26140
#
# Compressibility (1/GPa) = 0.11022499
#
# Stress axis : x y z
#
# Youngs Moduli (GPa) = 20.33799 24.31836 207.46990
#
# Poissons Ratio (x) = -0.55226 1.65033
# Poissons Ratio (y) = -0.46187 1.49334
# Poissons Ratio (z) = 0.16178 0.17504
#
# Static dielectric constant tensor:
#      x y z
#    x 1.932720 0.000000 0.000000 
#    y 0.000000 1.875420 0.000000 
#    z 0.000000 0.000000 1.996020 
# 
# From -- ./inp_files/14097.got.cif
#   From: 2010.05.17/outbox.cif.g08.bks.cpg/sg72_8_cif.got.tgz:14097.got - 2010.06.03 17:03:01.
