data_PCOD9525823
_publ_section_title
;
Structure prediction by ZEFSAII (Michael W. Deem and Ramdas Pophale) SiO2 
 PCOD9525823
Probable space group: I B A M
;
_chemical_formula_sum "Si O2"
_cell_formula_units_Z 80
_cell_length_a 16.307572
_cell_length_b 14.677992
_cell_length_c 14.631751
_cell_angle_alpha 90.000000
_cell_angle_beta 90.000000
_cell_angle_gamma 90.000000
_cell_volume 3502.291202
_symmetry_space_group_name_H-M "I B A M"
_symmetry_group_IT_number 72
_symmetry_cell_setting 'orthorhombic'
loop_
_space_group_symop_operation_xyz
x,y,z
-x,-y,z
x,-y,1/2-z
-x,y,1/2-z
-x,-y,-z
x,y,-z
-x,y,1/2+z
x,-y,1/2+z
1/2+x,1/2+y,1/2+z
1/2-x,1/2-y,1/2+z
1/2+x,1/2-y,-z
1/2-x,1/2+y,-z
1/2-x,1/2-y,1/2-z
1/2+x,1/2+y,1/2-z
1/2-x,1/2+y,z
1/2+x,1/2-y,z
loop_
_atom_site_type_symbol
_atom_site_label
_atom_site_fract_x
_atom_site_fract_y
_atom_site_fract_z
Si Si1 0.693067 0.277946 0.105384
Si Si2 0.627893 0.598204 0.232493
Si Si3 0.281080 0.920282 0.898331
Si Si4 0.609105 0.243180 0.607837
Si Si5 0.080030 0.456567 0.649442
O O1 0.652662 0.346159 0.176766
O O2 0.666540 0.172080 0.118813
O O3 0.791847 0.270128 0.119608
O O4 0.678124 0.304014 0.000000
O O5 0.589510 0.500000 0.250000
O O6 0.711596 0.574934 0.177105
O O7 0.582632 0.668758 0.165185
O O8 0.337400 0.008700 0.897448
O O9 0.244455 0.908756 0.000000
O O10 0.592131 0.251039 0.500000
O O11 0.571949 0.150947 0.647246
O O12 0.086119 0.500000 0.750000
O O13 0.000000 0.500000 0.605162
#
# Coordination Sequence:
#
# PCOD9525823 Si02
#       5
#    16  16  16  16  16
#     4   9  18  31  50  73 101 140 181 230 281 326
#     4  11  20  31  51  75 105 143 184 231 277 323
#     4  10  19  32  50  75 108 145 185 224 274 334
#     4  10  20  34  50  74 110 146 182 224 275 328
#     4  11  22  35  54  80 113 150 184 221 273 336
#
# _framework density 22.842191
#
# number of rings (size 3 to 8) (size 9 to 14) (size 15 to 20)
#    0.000    1.800    0.000    9.000    0.000    4.800 
#    0.000    0.000    0.000    0.000    0.000   11.200 
#    0.000   17.600    0.000    0.200    0.000    0.000 
#
# Total GULP energy -223697.866445 kJ/mol
# GULP energy per Si atom -5592.446661 kJ/mol
# Density = 2.279020 g / cm^3
# Si number density = 22.842191 Si / 1000 Ang^3
#
#
#
# Elastic Constant Matrix: (Units=GPa)
#
#
# Indices 1 2 3 4 5 6 
#
# 1 28.3490 16.4633 11.9266 0.0000 0.0000 0.0000
# 2 16.4633 202.9554 69.6080 0.0000 0.0000 0.0000
# 3 11.9266 69.6080 145.1436 0.0000 0.0000 0.0000
# 4 0.0000 0.0000 0.0000 19.8187 0.0000 0.0000
# 5 0.0000 0.0000 0.0000 0.0000 -8.3469 0.0000
# 6 0.0000 0.0000 0.0000 0.0000 0.0000 -7.4528
#
#
#
# Elastic Compliance Matrix: (Units=1/GPa)
#
#
# Indices 1 2 3 4 5 6 
#
# 1 0.037470 -0.002374 -0.001940 0.000000 0.000000 0.000000
# 2 -0.002374 0.006048 -0.002705 0.000000 0.000000 0.000000
# 3 -0.001940 -0.002705 0.008347 0.000000 0.000000 0.000000
# 4 0.000000 0.000000 0.000000 0.050457 0.000000 0.000000
# 5 0.000000 0.000000 0.000000 0.000000 -0.119804 0.000000
# 6 0.000000 0.000000 0.000000 0.000000 0.000000 -0.134178
#
#
# Mechanical properties :
#
#
# Convention : Reuss Voigt Hill
#
# Bulk Modulus (GPa) = 26.43785 63.60485 45.02135
# Shear Modulus (GPa) = -39.99560 19.36714 -10.31423
#
# Velocity S-wave (km/s) = -4.18898 2.91497 -2.12726
# Velocity P-wave (km/s) = 3.43474 6.26380 3.70390
#
# Compressibility (1/GPa) = 0.03782456
#
# Stress axis : x y z
#
# Youngs Moduli (GPa) = 26.68830 165.35543 119.80997
#
# Poissons Ratio (x) = 0.39254 0.23248
# Poissons Ratio (y) = 0.06336 0.32411
# Poissons Ratio (z) = 0.05179 0.44732
#
# Static dielectric constant tensor:
#      x y z
#    x 1.874950 0.000000 0.000000 
#    y 0.000000 1.898130 0.000000 
#    z 0.000000 0.000000 1.923270 
# 
# From -- ./inp_files/21605.got.cif
#   From: 2010.05.17/outbox.cif.g08.bks.cpg/sg72_11_cif.got.tgz:21605.got - 2010.06.03 17:03:01.
