data_PCOD9525935
_publ_section_title
;
Structure prediction by ZEFSAII (Michael W. Deem and Ramdas Pophale) SiO2 
 PCOD9525935
Probable space group: I B A M
;
_chemical_formula_sum "Si O2"
_cell_formula_units_Z 96
_cell_length_a 31.072305
_cell_length_b 10.509750
_cell_length_c 14.701871
_cell_angle_alpha 90.000000
_cell_angle_beta 90.000000
_cell_angle_gamma 90.000000
_cell_volume 4801.074713
_symmetry_space_group_name_H-M "I B A M"
_symmetry_group_IT_number 72
_symmetry_cell_setting 'orthorhombic'
loop_
_space_group_symop_operation_xyz
x,y,z
-x,-y,z
x,-y,1/2-z
-x,y,1/2-z
-x,-y,-z
x,y,-z
-x,y,1/2+z
x,-y,1/2+z
1/2+x,1/2+y,1/2+z
1/2-x,1/2-y,1/2+z
1/2+x,1/2-y,-z
1/2-x,1/2+y,-z
1/2-x,1/2-y,1/2-z
1/2+x,1/2+y,1/2-z
1/2-x,1/2+y,z
1/2+x,1/2-y,z
loop_
_atom_site_type_symbol
_atom_site_label
_atom_site_fract_x
_atom_site_fract_y
_atom_site_fract_z
Si Si1 0.379254 0.520637 0.891789
Si Si2 0.113538 0.270671 0.609129
Si Si3 0.698330 0.870662 0.193222
Si Si4 0.708113 0.379070 0.182955
Si Si5 0.979309 0.367020 0.111387
Si Si6 0.969749 0.881995 0.888930
O O1 0.380660 0.375012 0.856714
O O2 0.334336 0.590102 0.873834
O O3 0.421211 0.594608 0.856891
O O4 0.384300 0.511618 0.000000
O O5 0.110347 0.263759 0.500000
O O6 0.155999 0.347940 0.634690
O O7 0.069350 0.335763 0.641848
O O8 0.701547 0.751327 0.262178
O O9 0.744073 0.872140 0.139782
O O10 0.694298 0.000000 0.250000
O O11 0.710992 0.500000 0.250000
O O12 0.009413 0.249998 0.139942
O O13 0.000000 0.500000 0.140474
O O14 0.978439 0.368609 0.000000
O O15 0.969644 0.880711 0.000000
O O16 0.000000 0.000000 0.862212
#
# Coordination Sequence:
#
# PCOD9525935 Si02
#       6
#    16  16  16  16  16  16
#     4  10  19  32  58  88 110 139 186 238 274 309
#     4  10  19  34  58  85 110 143 185 231 278 320
#     4  10  22  38  58  80 108 149 186 221 278 341
#     4  10  20  38  59  79 106 145 186 222 271 340
#     4   9  17  29  49  78 112 145 176 216 272 330
#     4   9  15  27  48  77 109 140 177 219 264 323
#
# _framework density 19.995525000000001
#
# number of rings (size 3 to 8) (size 9 to 14) (size 15 to 20)
#    0.000    2.333    3.333    0.000    0.000    2.000 
#    0.000    2.500    0.000    6.000    0.000    0.000 
#    0.000    0.000    0.000    0.000    0.000    0.000 
#
# Total GULP energy -267808.593051 kJ/mol
# GULP energy per Si atom -5579.345689 kJ/mol
# Density = 1.995001 g / cm^3
# Si number density = 19.995525 Si / 1000 Ang^3
#
#
#
# Elastic Constant Matrix: (Units=GPa)
#
#
# Indices 1 2 3 4 5 6 
#
# 1 230.2958 86.3085 22.8926 0.0000 0.0000 0.0000
# 2 86.3085 163.7140 11.7242 0.0000 0.0000 0.0000
# 3 22.8926 11.7242 24.5513 0.0000 0.0000 0.0000
# 4 0.0000 0.0000 0.0000 8.8612 0.0000 0.0000
# 5 0.0000 0.0000 0.0000 0.0000 111.1367 0.0000
# 6 0.0000 0.0000 0.0000 0.0000 0.0000 35.3081
#
#
#
# Elastic Compliance Matrix: (Units=1/GPa)
#
#
# Indices 1 2 3 4 5 6 
#
# 1 0.005780 -0.002755 -0.004074 0.000000 0.000000 0.000000
# 2 -0.002755 0.007638 -0.001078 0.000000 0.000000 0.000000
# 3 -0.004074 -0.001078 0.045044 0.000000 0.000000 0.000000
# 4 0.000000 0.000000 0.000000 0.112852 0.000000 0.000000
# 5 0.000000 0.000000 0.000000 0.000000 0.008998 0.000000
# 6 0.000000 0.000000 0.000000 0.000000 0.000000 0.028322
#
#
# Mechanical properties :
#
#
# Convention : Reuss Voigt Hill
#
# Bulk Modulus (GPa) = 23.44783 73.37908 48.41346
# Shear Modulus (GPa) = 20.94996 50.90358 35.92677
#
# Velocity S-wave (km/s) = 3.24038 5.05102 4.24340
# Velocity P-wave (km/s) = 5.07465 8.41394 6.94790
#
# Compressibility (1/GPa) = 0.04264787
#
# Stress axis : x y z
#
# Youngs Moduli (GPa) = 173.01653 130.92400 22.20035
#
# Poissons Ratio (x) = 0.36074 0.09043
# Poissons Ratio (y) = 0.47672 0.02394
# Poissons Ratio (z) = 0.70479 0.14117
#
# Static dielectric constant tensor:
#      x y z
#    x 1.725190 0.000000 0.000000 
#    y 0.000000 1.679140 0.000000 
#    z 0.000000 0.000000 1.727380 
# 
# From -- ./inp_files/33261.got.cif
#   From: 2010.05.17/outbox.cif.g08.bks.cpg/sg72_17_cif.got.tgz:33261.got - 2010.06.03 17:03:01.
