data_PCOD9525842
_publ_section_title
;
Structure prediction by ZEFSAII (Michael W. Deem and Ramdas Pophale) SiO2 
 PCOD9525842
Probable space group: I B A M
;
_chemical_formula_sum "Si O2"
_cell_formula_units_Z 80
_cell_length_a 13.184277
_cell_length_b 13.456371
_cell_length_c 26.682490
_cell_angle_alpha 90.000000
_cell_angle_beta 90.000000
_cell_angle_gamma 90.000000
_cell_volume 4733.807862
_symmetry_space_group_name_H-M "I B A M"
_symmetry_group_IT_number 72
_symmetry_cell_setting 'orthorhombic'
loop_
_space_group_symop_operation_xyz
x,y,z
-x,-y,z
x,-y,1/2-z
-x,y,1/2-z
-x,-y,-z
x,y,-z
-x,y,1/2+z
x,-y,1/2+z
1/2+x,1/2+y,1/2+z
1/2-x,1/2-y,1/2+z
1/2+x,1/2-y,-z
1/2-x,1/2+y,-z
1/2-x,1/2-y,1/2-z
1/2+x,1/2+y,1/2-z
1/2-x,1/2+y,z
1/2+x,1/2-y,z
loop_
_atom_site_type_symbol
_atom_site_label
_atom_site_fract_x
_atom_site_fract_y
_atom_site_fract_z
Si Si1 0.690188 0.418293 0.058969
Si Si2 0.635767 0.189771 0.618844
Si Si3 0.248232 0.609115 0.387353
Si Si4 0.620504 0.985245 0.808243
Si Si5 0.430855 0.221225 0.559029
O O1 0.793042 0.366642 0.078658
O O2 0.684933 0.522048 0.087940
O O3 0.604131 0.335323 0.068053
O O4 0.694741 0.436705 0.000000
O O5 0.682351 0.298162 0.627322
O O6 0.640687 0.123629 0.668823
O O7 0.524786 0.195830 0.594604
O O8 0.185003 0.561745 0.341732
O O9 0.164335 0.651361 0.426393
O O10 0.500000 0.000000 0.814725
O O11 0.644966 0.000000 0.750000
O O12 0.454956 0.210054 0.500000
#
# Coordination Sequence:
#
# PCOD9525842 Si02
#       5
#    16  16  16  16  16
#     4   9  19  32  49  77 109 144 181 213 251 307
#     4  10  20  34  53  79 106 139 175 216 262 311
#     4  10  20  35  53  77 108 139 174 217 261 309
#     4  10  20  37  59  79 100 130 175 222 266 315
#     4  10  19  32  51  77 110 145 178 212 256 305
#
# _framework density 16.899715
#
# number of rings (size 3 to 8) (size 9 to 14) (size 15 to 20)
#    0.000    2.200    2.000    1.200    0.000    4.000 
#    0.000    5.000    0.000    0.000    0.000    1.400 
#    0.000    0.000    0.000    0.000    0.000    0.000 
#
# Total GULP energy -223048.927636 kJ/mol
# GULP energy per Si atom -5576.223191 kJ/mol
# Density = 1.686125 g / cm^3
# Si number density = 16.899715 Si / 1000 Ang^3
#
#
#
# Elastic Constant Matrix: (Units=GPa)
#
#
# Indices 1 2 3 4 5 6 
#
# 1 28.4153 9.8271 20.0689 0.0000 0.0000 0.0000
# 2 9.8271 110.3670 49.2631 0.0000 0.0000 0.0000
# 3 20.0689 49.2631 105.1043 0.0000 0.0000 0.0000
# 4 0.0000 0.0000 0.0000 18.8768 0.0000 0.0000
# 5 0.0000 0.0000 0.0000 0.0000 16.7751 0.0000
# 6 0.0000 0.0000 0.0000 0.0000 0.0000 12.7939
#
#
#
# Elastic Compliance Matrix: (Units=1/GPa)
#
#
# Indices 1 2 3 4 5 6 
#
# 1 0.040681 -0.000196 -0.007676 0.000000 0.000000 0.000000
# 2 -0.000196 0.011459 -0.005333 0.000000 0.000000 0.000000
# 3 -0.007676 -0.005333 0.013480 0.000000 0.000000 0.000000
# 4 0.000000 0.000000 0.000000 0.052975 0.000000 0.000000
# 5 0.000000 0.000000 0.000000 0.000000 0.059612 0.000000
# 6 0.000000 0.000000 0.000000 0.000000 0.000000 0.078162
#
#
# Mechanical properties :
#
#
# Convention : Reuss Voigt Hill
#
# Bulk Modulus (GPa) = 25.50423 44.68942 35.09683
# Shear Modulus (GPa) = 16.90049 20.67100 18.78575
#
# Velocity S-wave (km/s) = 3.16578 3.50116 3.33769
# Velocity P-wave (km/s) = 5.33734 6.54564 5.97213
#
# Compressibility (1/GPa) = 0.03920918
#
# Stress axis : x y z
#
# Youngs Moduli (GPa) = 24.58129 87.26991 74.18513
#
# Poissons Ratio (x) = 0.01711 0.56944
# Poissons Ratio (y) = 0.00482 0.39565
# Poissons Ratio (z) = 0.18868 0.46544
#
# Static dielectric constant tensor:
#      x y z
#    x 1.558980 0.000000 0.000000 
#    y 0.000000 1.581890 0.000000 
#    z 0.000000 0.000000 1.539050 
# 
# From -- ./inp_files/43084.got.cif
#   From: 2010.05.17/outbox.cif.g08.bks.cpg/sg72_22_cif.got.tgz:43084.got - 2010.06.03 17:03:01.
