data_PCOD9525108
_publ_section_title
;
Structure prediction by ZEFSAII (Michael W. Deem and Ramdas Pophale) SiO2 
 PCOD9525108
Probable space group: I B A M
;
_chemical_formula_sum "Si O2"
_cell_formula_units_Z 96
_cell_length_a 8.999895
_cell_length_b 22.954511
_cell_length_c 25.246811
_cell_angle_alpha 90.000000
_cell_angle_beta 90.000000
_cell_angle_gamma 90.000000
_cell_volume 5215.692957
_symmetry_space_group_name_H-M "I B A M"
_symmetry_group_IT_number 72
_symmetry_cell_setting 'orthorhombic'
loop_
_space_group_symop_operation_xyz
x,y,z
-x,-y,z
x,-y,1/2-z
-x,y,1/2-z
-x,-y,-z
x,y,-z
-x,y,1/2+z
x,-y,1/2+z
1/2+x,1/2+y,1/2+z
1/2-x,1/2-y,1/2+z
1/2+x,1/2-y,-z
1/2-x,1/2+y,-z
1/2-x,1/2-y,1/2-z
1/2+x,1/2+y,1/2-z
1/2-x,1/2+y,z
1/2+x,1/2-y,z
loop_
_atom_site_type_symbol
_atom_site_label
_atom_site_fract_x
_atom_site_fract_y
_atom_site_fract_z
Si Si1 0.503283 0.181159 0.562551
Si Si2 0.226954 0.546956 0.789973
Si Si3 0.670782 0.569927 0.182911
Si Si4 0.754754 0.752532 0.125796
Si Si5 0.485603 0.931588 0.125902
Si Si6 0.993749 0.179644 0.186928
O O1 0.491091 0.188800 0.500000
O O2 0.649639 0.212036 0.585851
O O3 0.364258 0.210580 0.592810
O O4 0.509096 0.113465 0.579038
O O5 0.148847 0.500000 0.750000
O O6 0.338384 0.500748 0.817771
O O7 0.303610 0.585681 0.745443
O O8 0.112521 0.576392 0.829029
O O9 0.539818 0.613217 0.167780
O O10 0.823570 0.580474 0.151169
O O11 0.858661 0.795242 0.159926
O O12 0.645970 0.716073 0.163890
O O13 0.500000 0.000000 0.111717
O O14 0.000000 0.187222 0.250000
#
# Coordination Sequence:
#
# PCOD9525108 Si02
#       6
#    16  16  16  16  16  16
#     4  11  23  41  64  84 108 151 207 257 294 333
#     4   7  16  28  52  86 114 154 186 218 280 350
#     4   8  16  30  52  80 113 152 185 217 271 344
#     4  10  24  41  57  83 118 153 194 245 297 352
#     4  10  17  32  59  88 119 145 193 245 289 345
#     4  11  21  37  55  87 120 154 185 230 294 360
#
# _framework density 18.405992000000001
#
# number of rings (size 3 to 8) (size 9 to 14) (size 15 to 20)
#    1.000    1.333    1.667    1.500    4.667    0.333 
#    0.000    1.667    0.000    0.000    0.000    4.667 
#    0.000    0.000    0.000    0.000    0.000    0.000 
#
# Total GULP energy -267251.376017 kJ/mol
# GULP energy per Si atom -5567.737000 kJ/mol
# Density = 1.836410 g / cm^3
# Si number density = 18.405992 Si / 1000 Ang^3
#
#
#
# Elastic Constant Matrix: (Units=GPa)
#
#
# Indices 1 2 3 4 5 6 
#
# 1 101.1080 39.2873 41.8356 0.0000 0.0000 0.0000
# 2 39.2873 91.9028 41.0377 0.0000 0.0000 0.0000
# 3 41.8356 41.0377 101.0288 0.0000 0.0000 0.0000
# 4 0.0000 0.0000 0.0000 24.4552 0.0000 0.0000
# 5 0.0000 0.0000 0.0000 0.0000 11.2847 0.0000
# 6 0.0000 0.0000 0.0000 0.0000 0.0000 25.3453
#
#
#
# Elastic Compliance Matrix: (Units=1/GPa)
#
#
# Indices 1 2 3 4 5 6 
#
# 1 0.012957 -0.003840 -0.003806 0.000000 0.000000 0.000000
# 2 -0.003840 0.014430 -0.004271 0.000000 0.000000 0.000000
# 3 -0.003806 -0.004271 0.013209 0.000000 0.000000 0.000000
# 4 0.000000 0.000000 0.000000 0.040891 0.000000 0.000000
# 5 0.000000 0.000000 0.000000 0.000000 0.088616 0.000000
# 6 0.000000 0.000000 0.000000 0.000000 0.000000 0.039455
#
#
# Mechanical properties :
#
#
# Convention : Reuss Voigt Hill
#
# Bulk Modulus (GPa) = 59.65725 59.81787 59.73756
# Shear Modulus (GPa) = 20.92235 23.67565 22.29900
#
# Velocity S-wave (km/s) = 3.37518 3.59039 3.48445
# Velocity P-wave (km/s) = 6.90444 7.05391 6.97957
#
# Compressibility (1/GPa) = 0.01676242
#
# Stress axis : x y z
#
# Youngs Moduli (GPa) = 77.17782 69.30128 75.70493
#
# Poissons Ratio (x) = 0.26609 0.28812
# Poissons Ratio (y) = 0.29633 0.32337
# Poissons Ratio (z) = 0.29373 0.29601
#
# Static dielectric constant tensor:
#      x y z
#    x 1.656880 0.000000 0.000000 
#    y 0.000000 1.720590 0.000000 
#    z 0.000000 0.000000 1.609280 
# 
# From -- ./inp_files/42413.got.cif
#   From: 2010.05.17/outbox.cif.g08.bks.cpg/sg72_22_cif.got.tgz:42413.got - 2010.06.03 17:03:01.
