data_PCOD9525111
_publ_section_title
;
Structure prediction by ZEFSAII (Michael W. Deem and Ramdas Pophale) SiO2 
 PCOD9525111
Probable space group: I B A M
;
_chemical_formula_sum "Si O2"
_cell_formula_units_Z 80
_cell_length_a 8.649925
_cell_length_b 18.483528
_cell_length_c 21.844331
_cell_angle_alpha 90.000000
_cell_angle_beta 90.000000
_cell_angle_gamma 90.000000
_cell_volume 3492.496345
_symmetry_space_group_name_H-M "I B A M"
_symmetry_group_IT_number 72
_symmetry_cell_setting 'orthorhombic'
loop_
_space_group_symop_operation_xyz
x,y,z
-x,-y,z
x,-y,1/2-z
-x,y,1/2-z
-x,-y,-z
x,y,-z
-x,y,1/2+z
x,-y,1/2+z
1/2+x,1/2+y,1/2+z
1/2-x,1/2-y,1/2+z
1/2+x,1/2-y,-z
1/2-x,1/2+y,-z
1/2-x,1/2-y,1/2-z
1/2+x,1/2+y,1/2-z
1/2-x,1/2+y,z
1/2+x,1/2-y,z
loop_
_atom_site_type_symbol
_atom_site_label
_atom_site_fract_x
_atom_site_fract_y
_atom_site_fract_z
Si Si1 0.000000 0.500000 0.379379
Si Si2 0.000000 0.664212 0.750000
Si Si3 0.527547 0.414123 0.369839
Si Si4 0.733818 0.436790 0.205982
Si Si5 0.949175 0.143837 0.500000
Si Si6 0.741594 0.767127 0.500000
Si Si7 0.635198 0.152182 0.120521
O O1 0.847184 0.522580 0.341590
O O2 0.950651 0.421055 0.404763
O O3 0.851730 0.614599 0.740267
O O4 0.956528 0.688829 0.821217
O O5 0.500000 0.500000 0.361362
O O6 0.601628 0.612805 0.322757
O O7 0.476554 0.400240 0.438986
O O8 0.692932 0.377053 0.360938
O O9 0.675357 0.500000 0.250000
O O10 0.083792 0.204695 0.500000
O O11 0.783531 0.181667 0.500000
O O12 0.663414 0.796286 0.437441
#
# Coordination Sequence:
#
# PCOD9525111 Si02
#       7
#     8   8  16  16   8   8  16
#     4  10  17  33  52  88 128 158 194 238 298 370
#     4  10  19  34  56  90 134 162 199 248 290 378
#     4  11  21  36  62  95 122 160 195 258 309 365
#     4  11  17  31  54  85 129 162 190 234 312 370
#     4  10  25  46  64  85 121 158 219 252 306 364
#     4  10  24  45  66  82 114 167 212 260 298 363
#     4  10  21  37  58  90 126 162 199 251 304 357
#
# _framework density 22.906253
#
# number of rings (size 3 to 8) (size 9 to 14) (size 15 to 20)
#    0.000    1.600    6.000    0.300    0.000    6.400 
#    0.000    0.000    0.000   13.200    0.000    0.000 
#    0.000    0.000    0.000    0.000    0.000    0.000 
#
# Total GULP energy -222683.483106 kJ/mol
# GULP energy per Si atom -5567.087078 kJ/mol
# Density = 2.285412 g / cm^3
# Si number density = 22.906253 Si / 1000 Ang^3
#
#
#
# Elastic Constant Matrix: (Units=GPa)
#
#
# Indices 1 2 3 4 5 6 
#
# 1 103.6690 17.2623 60.8992 0.0000 0.0000 0.0000
# 2 17.2623 10.9267 6.4841 0.0000 0.0000 0.0000
# 3 60.8992 6.4841 113.2527 0.0000 0.0000 0.0000
# 4 0.0000 0.0000 0.0000 -29.5693 0.0000 0.0000
# 5 0.0000 0.0000 0.0000 0.0000 69.7603 0.0000
# 6 0.0000 0.0000 0.0000 0.0000 0.0000 5.5617
#
#
#
# Elastic Compliance Matrix: (Units=1/GPa)
#
#
# Indices 1 2 3 4 5 6 
#
# 1 0.018888 -0.024650 -0.008745 0.000000 0.000000 0.000000
# 2 -0.024650 0.126908 0.005989 0.000000 0.000000 0.000000
# 3 -0.008745 0.005989 0.013190 0.000000 0.000000 0.000000
# 4 0.000000 0.000000 0.000000 -0.033819 0.000000 0.000000
# 5 0.000000 0.000000 0.000000 0.000000 0.014335 0.000000
# 6 0.000000 0.000000 0.000000 0.000000 0.000000 0.179800
#
#
# Mechanical properties :
#
#
# Convention : Reuss Voigt Hill
#
# Bulk Modulus (GPa) = 9.59941 44.12660 26.86301
# Shear Modulus (GPa) = 12.22978 18.69739 15.46358
#
# Velocity S-wave (km/s) = 2.31315 2.86012 2.60105
# Velocity P-wave (km/s) = 3.36661 5.49662 4.55779
#
# Compressibility (1/GPa) = 0.10417302
#
# Stress axis : x y z
#
# Youngs Moduli (GPa) = 52.94365 7.87972 75.81775
#
# Poissons Ratio (x) = 0.19424 0.66305
# Poissons Ratio (y) = 1.30507 -0.45409
# Poissons Ratio (z) = 0.46301 -0.04719
#
# Static dielectric constant tensor:
#      x y z
#    x 1.937150 0.000000 0.000000 
#    y 0.000000 1.864570 0.000000 
#    z 0.000000 0.000000 0.699040 
# 
# From -- ./inp_files/42370.got.cif
#   From: 2010.05.17/outbox.cif.g08.bks.cpg/sg72_22_cif.got.tgz:42370.got - 2010.06.03 17:03:01.
