data_PCOD9525422
_publ_section_title
;
Structure prediction by ZEFSAII (Michael W. Deem and Ramdas Pophale) SiO2 
 PCOD9525422
Probable space group: I B A M
;
_chemical_formula_sum "Si O2"
_cell_formula_units_Z 112
_cell_length_a 13.967879
_cell_length_b 18.477801
_cell_length_c 16.493350
_cell_angle_alpha 90.000000
_cell_angle_beta 90.000000
_cell_angle_gamma 90.000000
_cell_volume 4256.862525
_symmetry_space_group_name_H-M "I B A M"
_symmetry_group_IT_number 72
_symmetry_cell_setting 'orthorhombic'
loop_
_space_group_symop_operation_xyz
x,y,z
-x,-y,z
x,-y,1/2-z
-x,y,1/2-z
-x,-y,-z
x,y,-z
-x,y,1/2+z
x,-y,1/2+z
1/2+x,1/2+y,1/2+z
1/2-x,1/2-y,1/2+z
1/2+x,1/2-y,-z
1/2-x,1/2+y,-z
1/2-x,1/2-y,1/2-z
1/2+x,1/2+y,1/2-z
1/2-x,1/2+y,z
1/2+x,1/2-y,z
loop_
_atom_site_type_symbol
_atom_site_label
_atom_site_fract_x
_atom_site_fract_y
_atom_site_fract_z
Si Si1 0.607694 0.941191 0.405610
Si Si2 0.732806 0.340612 0.181187
Si Si3 0.220390 0.976116 0.592987
Si Si4 0.437144 0.153890 0.098832
Si Si5 0.106035 0.073841 0.696896
Si Si6 0.269948 0.795307 0.910635
Si Si7 0.961170 0.815258 0.409199
O O1 0.590133 0.959649 0.500000
O O2 0.677942 0.000525 0.366389
O O3 0.505926 0.912106 0.375737
O O4 0.673561 0.869515 0.405750
O O5 0.690482 0.396220 0.115490
O O6 0.845105 0.342693 0.157276
O O7 0.688299 0.377152 0.260753
O O8 0.703491 0.259215 0.161501
O O9 0.237947 0.979780 0.500000
O O10 0.144168 0.035749 0.616193
O O11 0.490425 0.231814 0.105902
O O12 0.414282 0.147673 0.000000
O O13 0.023099 0.127395 0.663744
O O14 0.093364 0.000000 0.750000
O O15 0.155431 0.807440 0.911245
O O16 0.291490 0.762477 0.000000
O O17 0.991950 0.837191 0.500000
#
# Coordination Sequence:
#
# PCOD9525422 Si02
#       7
#    16  16  16  16  16  16  16
#     4   9  17  30  50  74 101 130 170 213 249 299
#     4  10  20  31  47  73 107 133 165 215 259 307
#     4  10  18  32  52  72  98 135 173 205 255 312
#     4   9  18  31  49  76 102 132 174 214 252 301
#     4  10  20  31  47  74 102 130 169 213 257 303
#     4   9  16  29  50  73  97 130 171 212 247 296
#     4   9  16  31  53  71  96 131 172 212 252 303
#
# _framework density 26.310457
#
# number of rings (size 3 to 8) (size 9 to 14) (size 15 to 20)
#    0.000    2.571    1.429    2.571    0.000    2.857 
#    0.000    2.857    0.000    2.571    0.000    7.000 
#    0.000   19.429    0.000    0.000    0.000    0.000 
#
# Total GULP energy -312691.545912 kJ/mol
# GULP energy per Si atom -5583.777606 kJ/mol
# Density = 2.625057 g / cm^3
# Si number density = 26.310457 Si / 1000 Ang^3
#
#
#
# Elastic Constant Matrix: (Units=GPa)
#
#
# Indices 1 2 3 4 5 6 
#
# 1 75.0907 -10.9037 -0.0460 0.0000 0.0000 0.0000
# 2 -10.9037 122.6174 28.8567 0.0000 0.0000 0.0000
# 3 -0.0460 28.8567 83.1109 0.0000 0.0000 0.0000
# 4 0.0000 0.0000 0.0000 11.1950 0.0000 0.0000
# 5 0.0000 0.0000 0.0000 0.0000 20.0289 0.0000
# 6 0.0000 0.0000 0.0000 0.0000 0.0000 32.5357
#
#
#
# Elastic Compliance Matrix: (Units=1/GPa)
#
#
# Indices 1 2 3 4 5 6 
#
# 1 0.013507 0.001306 -0.000446 0.000000 0.000000 0.000000
# 2 0.001306 0.009007 -0.003127 0.000000 0.000000 0.000000
# 3 -0.000446 -0.003127 0.013117 0.000000 0.000000 0.000000
# 4 0.000000 0.000000 0.000000 0.089326 0.000000 0.000000
# 5 0.000000 0.000000 0.000000 0.000000 0.049928 0.000000
# 6 0.000000 0.000000 0.000000 0.000000 0.000000 0.030736
#
#
# Mechanical properties :
#
#
# Convention : Reuss Voigt Hill
#
# Bulk Modulus (GPa) = 32.15626 35.18146 33.66886
# Shear Modulus (GPa) = 22.67366 30.27936 26.47651
#
# Velocity S-wave (km/s) = 2.93878 3.39610 3.17568
# Velocity P-wave (km/s) = 4.87480 5.36457 5.12554
#
# Compressibility (1/GPa) = 0.03109814
#
# Stress axis : x y z
#
# Youngs Moduli (GPa) = 74.03789 111.01949 76.23412
#
# Poissons Ratio (x) = -0.14499 0.03400
# Poissons Ratio (y) = -0.09670 0.23836
# Poissons Ratio (z) = 0.03302 0.34713
#
# Static dielectric constant tensor:
#      x y z
#    x 2.137670 0.000000 0.000000 
#    y 0.000000 2.065280 0.000000 
#    z 0.000000 0.000000 2.060630 
# 
# From -- ./inp_files/31881.got.cif
#   From: 2010.05.17/outbox.cif.g08.bks.cpg/sg72_16_cif.got.tgz:31881.got - 2010.06.03 17:03:01.
