data_PCOD9525485
_publ_section_title
;
Structure prediction by ZEFSAII (Michael W. Deem and Ramdas Pophale) SiO2 
 PCOD9525485
Probable space group: I B A M
;
_chemical_formula_sum "Si O2"
_cell_formula_units_Z 96
_cell_length_a 29.774079
_cell_length_b 10.248094
_cell_length_c 16.441101
_cell_angle_alpha 90.000000
_cell_angle_beta 90.000000
_cell_angle_gamma 90.000000
_cell_volume 5016.633038
_symmetry_space_group_name_H-M "I B A M"
_symmetry_group_IT_number 72
_symmetry_cell_setting 'orthorhombic'
loop_
_space_group_symop_operation_xyz
x,y,z
-x,-y,z
x,-y,1/2-z
-x,y,1/2-z
-x,-y,-z
x,y,-z
-x,y,1/2+z
x,-y,1/2+z
1/2+x,1/2+y,1/2+z
1/2-x,1/2-y,1/2+z
1/2+x,1/2-y,-z
1/2-x,1/2+y,-z
1/2-x,1/2-y,1/2-z
1/2+x,1/2+y,1/2-z
1/2-x,1/2+y,z
1/2+x,1/2-y,z
loop_
_atom_site_type_symbol
_atom_site_label
_atom_site_fract_x
_atom_site_fract_y
_atom_site_fract_z
Si Si1 0.611269 0.465788 0.654852
Si Si2 0.382105 0.754349 0.903074
Si Si3 0.786968 0.956000 0.343868
Si Si4 0.968195 0.610749 0.094987
Si Si5 0.219787 0.759046 0.403988
Si Si6 0.482853 0.356170 0.156400
O O1 0.611425 0.500000 0.750000
O O2 0.602746 0.605239 0.612298
O O3 0.661531 0.422954 0.631897
O O4 0.570803 0.364567 0.645320
O O5 0.419149 0.854620 0.869285
O O6 0.331126 0.766327 0.872192
O O7 0.380214 0.772126 0.000000
O O8 0.754834 0.834478 0.359771
O O9 0.786733 0.000000 0.250000
O O10 0.772259 0.086700 0.391540
O O11 0.000000 0.500000 0.132727
O O12 0.995580 0.744479 0.102813
O O13 0.961297 0.576713 0.000000
O O14 0.221531 0.730253 0.500000
O O15 0.500000 0.500000 0.134145
O O16 0.500000 0.335364 0.250000
#
# Coordination Sequence:
#
# PCOD9525485 Si02
#       6
#    16  16  16  16  16  16
#     4  10  18  33  54  82 108 137 174 224 268 313
#     4   9  18  33  55  75 103 144 178 212 269 328
#     4  10  21  36  58  81 112 142 182 229 278 325
#     4  10  21  36  52  75 109 143 177 217 265 321
#     4  10  20  37  58  80 108 145 185 227 276 328
#     4  11  19  33  57  81 108 137 177 220 262 316
#
# _framework density 19.136341999999999
#
# number of rings (size 3 to 8) (size 9 to 14) (size 15 to 20)
#    0.000    2.000    3.333    1.000    0.000    2.000 
#    3.000    0.000    0.000    0.000    0.000    0.000 
#    0.000    0.000    0.000    0.000    0.000    0.000 
#
# Total GULP energy -267577.231612 kJ/mol
# GULP energy per Si atom -5574.525659 kJ/mol
# Density = 1.909279 g / cm^3
# Si number density = 19.136342 Si / 1000 Ang^3
#
#
#
# Elastic Constant Matrix: (Units=GPa)
#
#
# Indices 1 2 3 4 5 6 
#
# 1 120.9537 33.2170 2.4072 0.0000 0.0000 0.0000
# 2 33.2170 34.9004 -0.3491 0.0000 0.0000 0.0000
# 3 2.4072 -0.3491 14.3836 0.0000 0.0000 0.0000
# 4 0.0000 0.0000 0.0000 23.9624 0.0000 0.0000
# 5 0.0000 0.0000 0.0000 0.0000 20.6404 0.0000
# 6 0.0000 0.0000 0.0000 0.0000 0.0000 31.7223
#
#
#
# Elastic Compliance Matrix: (Units=1/GPa)
#
#
# Indices 1 2 3 4 5 6 
#
# 1 0.011259 -0.010737 -0.002145 0.000000 0.000000 0.000000
# 2 -0.010737 0.038900 0.002741 0.000000 0.000000 0.000000
# 3 -0.002145 0.002741 0.069949 0.000000 0.000000 0.000000
# 4 0.000000 0.000000 0.000000 0.041732 0.000000 0.000000
# 5 0.000000 0.000000 0.000000 0.000000 0.048449 0.000000
# 6 0.000000 0.000000 0.000000 0.000000 0.000000 0.031524
#
#
# Mechanical properties :
#
#
# Convention : Reuss Voigt Hill
#
# Bulk Modulus (GPa) = 10.01751 26.75423 18.38587
# Shear Modulus (GPa) = 16.92791 24.26252 20.59522
#
# Velocity S-wave (km/s) = 2.97744 3.56459 3.28416
# Velocity P-wave (km/s) = 4.13115 5.56353 4.89996
#
# Compressibility (1/GPa) = 0.09982525
#
# Stress axis : x y z
#
# Youngs Moduli (GPa) = 88.81699 25.70700 14.29614
#
# Poissons Ratio (x) = 0.27603 0.03066
# Poissons Ratio (y) = 0.95367 -0.03919
# Poissons Ratio (z) = 0.19050 -0.07046
#
# Static dielectric constant tensor:
#      x y z
#    x 1.732660 0.000000 0.000000 
#    y 0.000000 1.636700 0.000000 
#    z 0.000000 0.000000 1.691550 
# 
# From -- ./inp_files/36068.got.cif
#   From: 2010.05.17/outbox.cif.g08.bks.cpg/sg72_19_cif.got.tgz:36068.got - 2010.06.03 17:03:01.
