data_PCOD9525560
_publ_section_title
;
Structure prediction by ZEFSAII (Michael W. Deem and Ramdas Pophale) SiO2 
 PCOD9525560
Probable space group: I B A M
;
_chemical_formula_sum "Si O2"
_cell_formula_units_Z 116
_cell_length_a 26.310613
_cell_length_b 14.783147
_cell_length_c 15.327375
_cell_angle_alpha 90.000000
_cell_angle_beta 90.000000
_cell_angle_gamma 90.000000
_cell_volume 5961.638599
_symmetry_space_group_name_H-M "I B A M"
_symmetry_group_IT_number 72
_symmetry_cell_setting 'orthorhombic'
loop_
_space_group_symop_operation_xyz
x,y,z
-x,-y,z
x,-y,1/2-z
-x,y,1/2-z
-x,-y,-z
x,y,-z
-x,y,1/2+z
x,-y,1/2+z
1/2+x,1/2+y,1/2+z
1/2-x,1/2-y,1/2+z
1/2+x,1/2-y,-z
1/2-x,1/2+y,-z
1/2-x,1/2-y,1/2-z
1/2+x,1/2+y,1/2-z
1/2-x,1/2+y,z
1/2+x,1/2-y,z
loop_
_atom_site_type_symbol
_atom_site_label
_atom_site_fract_x
_atom_site_fract_y
_atom_site_fract_z
Si Si1 0.353763 0.524539 0.849744
Si Si2 0.995902 0.851375 0.345104
Si Si3 0.212574 0.734183 0.893146
Si Si4 0.765294 0.532935 0.394192
Si Si5 0.112168 0.833355 0.900394
Si Si6 0.500000 0.500000 0.500000
Si Si7 0.098199 0.219395 0.895309
Si Si8 0.188185 0.654060 0.606771
O O1 0.363921 0.500000 0.750000
O O2 0.293381 0.523210 0.866350
O O3 0.379678 0.441890 0.901250
O O4 0.376367 0.621749 0.874030
O O5 0.042079 0.781391 0.355813
O O6 0.000000 0.894604 0.250000
O O7 0.939479 0.811229 0.351912
O O8 0.001676 0.921658 0.423566
O O9 0.213980 0.630146 0.865511
O O10 0.163038 0.788473 0.862724
O O11 0.264117 0.783957 0.865788
O O12 0.212281 0.737073 0.000000
O O13 0.812289 0.345917 0.500000
O O14 0.798642 0.447601 0.364920
O O15 0.106695 0.802797 0.000000
O O16 0.136334 0.298129 0.864692
O O17 0.094454 0.225279 0.000000
O O18 0.235274 0.467461 0.500000
#
# Coordination Sequence:
#
# PCOD9525560 Si02
#       8
#    16  16  16  16  16   4  16  16
#     4  12  23  32  48  81 117 154 190 236 291 346
#     4  12  25  41  59  85 118 158 201 241 296 349
#     4   9  17  31  57  86 111 147 192 238 290 347
#     4  10  18  35  56  83 114 151 196 238 288 352
#     4  11  21  38  58  81 114 156 196 241 291 344
#     4  12  22  44  60  90 120 162 190 252 288 352
#     4  11  21  38  58  81 114 156 196 241 291 344
#     4   9  17  31  57  86 111 147 192 238 290 347
#
# _framework density 19.457737000000002
#
# number of rings (size 3 to 8) (size 9 to 14) (size 15 to 20)
#    0.000    1.379    4.138    3.103    0.000    0.000 
#    0.000    4.138    0.000    0.828    0.000    5.793 
#    0.000    0.000    0.000    0.000    0.000    0.000 
#
# Total GULP energy -323640.533038 kJ/mol
# GULP energy per Si atom -5580.009190 kJ/mol
# Density = 1.941345 g / cm^3
# Si number density = 19.457737 Si / 1000 Ang^3
#
#
#
# Elastic Constant Matrix: (Units=GPa)
#
#
# Indices 1 2 3 4 5 6 
#
# 1 109.3104 22.9725 -5.6952 0.0000 0.0000 0.0000
# 2 22.9725 85.8142 -9.0228 0.0000 0.0000 0.0000
# 3 -5.6952 -9.0228 75.2751 0.0000 0.0000 0.0000
# 4 0.0000 0.0000 0.0000 129.1825 0.0000 0.0000
# 5 0.0000 0.0000 0.0000 0.0000 35.7227 0.0000
# 6 0.0000 0.0000 0.0000 0.0000 0.0000 0.8045
#
#
#
# Elastic Compliance Matrix: (Units=1/GPa)
#
#
# Indices 1 2 3 4 5 6 
#
# 1 0.009707 -0.002554 0.000428 0.000000 0.000000 0.000000
# 2 -0.002554 0.012474 0.001302 0.000000 0.000000 0.000000
# 3 0.000428 0.001302 0.013473 0.000000 0.000000 0.000000
# 4 0.000000 0.000000 0.000000 0.007741 0.000000 0.000000
# 5 0.000000 0.000000 0.000000 0.000000 0.027993 0.000000
# 6 0.000000 0.000000 0.000000 0.000000 0.000000 1.242945
#
#
# Mechanical properties :
#
#
# Convention : Reuss Voigt Hill
#
# Bulk Modulus (GPa) = 29.40549 31.87875 30.64212
# Shear Modulus (GPa) = 3.76700 50.61830 27.19265
#
# Velocity S-wave (km/s) = 1.39291 5.10597 3.74240
# Velocity P-wave (km/s) = 4.21096 7.15405 5.86995
#
# Compressibility (1/GPa) = 0.03400726
#
# Stress axis : x y z
#
# Youngs Moduli (GPa) = 103.01590 80.16948 74.22212
#
# Poissons Ratio (x) = 0.20472 -0.03179
# Poissons Ratio (y) = 0.26306 -0.09663
# Poissons Ratio (z) = -0.04413 -0.10438
#
# Static dielectric constant tensor:
#      x y z
#    x 1.701620 0.000000 0.000000 
#    y 0.000000 1.656530 0.000000 
#    z 0.000000 0.000000 1.731740 
# 
# From -- ./inp_files/33458.got.cif
#   From: 2010.05.17/outbox.cif.g08.bks.cpg/sg72_17_cif.got.tgz:33458.got - 2010.06.03 17:03:01.
