data_PCOD9525359
_publ_section_title
;
Structure prediction by ZEFSAII (Michael W. Deem and Ramdas Pophale) SiO2 
 PCOD9525359
Probable space group: I B A M
;
_chemical_formula_sum "Si O2"
_cell_formula_units_Z 96
_cell_length_a 26.041526
_cell_length_b 26.132617
_cell_length_c 8.558263
_cell_angle_alpha 90.000000
_cell_angle_beta 90.000000
_cell_angle_gamma 90.000000
_cell_volume 5824.182320
_symmetry_space_group_name_H-M "I B A M"
_symmetry_group_IT_number 72
_symmetry_cell_setting 'orthorhombic'
loop_
_space_group_symop_operation_xyz
x,y,z
-x,-y,z
x,-y,1/2-z
-x,y,1/2-z
-x,-y,-z
x,y,-z
-x,y,1/2+z
x,-y,1/2+z
1/2+x,1/2+y,1/2+z
1/2-x,1/2-y,1/2+z
1/2+x,1/2-y,-z
1/2-x,1/2+y,-z
1/2-x,1/2-y,1/2-z
1/2+x,1/2+y,1/2-z
1/2-x,1/2+y,z
1/2+x,1/2-y,z
loop_
_atom_site_type_symbol
_atom_site_label
_atom_site_fract_x
_atom_site_fract_y
_atom_site_fract_z
Si Si1 0.558066 0.361177 0.311108
Si Si2 0.941886 0.749026 0.688055
Si Si3 0.141083 0.557878 0.313806
Si Si4 0.748859 0.941765 0.813518
Si Si5 0.558389 0.863450 0.811629
Si Si6 0.356845 0.442122 0.812137
O O1 0.500000 0.367529 0.250000
O O2 0.555988 0.362108 0.500000
O O3 0.578752 0.304674 0.262372
O O4 0.596355 0.405991 0.260897
O O5 0.942311 0.748933 0.500000
O O6 0.920965 0.693383 0.735617
O O7 0.000000 0.749092 0.750000
O O8 0.135013 0.500000 0.250000
O O9 0.143539 0.555662 0.500000
O O10 0.195117 0.579874 0.248680
O O11 0.094519 0.592993 0.257441
O O12 0.802488 0.920352 0.749563
O O13 0.748783 0.000000 0.750000
O O14 0.749055 0.941984 0.000000
O O15 0.500000 0.868189 0.750000
O O16 0.557861 0.866780 0.000000
O O17 0.363151 0.500000 0.750000
O O18 0.354991 0.443924 0.000000
#
# Coordination Sequence:
#
# PCOD9525359 Si02
#       6
#    16  16  16  16  16  16
#     4   9  18  31  48  70  96 127 160 196 237 281
#     4   8  15  29  48  68  91 121 158 196 232 274
#     4  11  21  34  51  72  98 126 157 192 233 279
#     4  10  18  31  50  70  92 121 159 197 234 277
#     4  10  19  32  50  73  99 126 157 193 235 281
#     4  10  19  31  47  69  97 127 160 196 237 282
#
# _framework density 16.483000000000001
#
# number of rings (size 3 to 8) (size 9 to 14) (size 15 to 20)
#    0.000    2.333    0.000    6.000    0.000    2.667 
#    0.000    3.333    0.000    1.000    0.000    0.000 
#    0.000    0.000    0.000    0.000    0.000    0.000 
#
# Total GULP energy -267327.790431 kJ/mol
# GULP energy per Si atom -5569.328967 kJ/mol
# Density = 1.644548 g / cm^3
# Si number density = 16.483000 Si / 1000 Ang^3
#
#
#
# Elastic Constant Matrix: (Units=GPa)
#
#
# Indices 1 2 3 4 5 6 
#
# 1 111.3879 68.9120 35.6832 0.0000 0.0000 0.0000
# 2 68.9120 107.4943 33.7724 0.0000 0.0000 0.0000
# 3 35.6832 33.7724 82.6503 0.0000 0.0000 0.0000
# 4 0.0000 0.0000 0.0000 16.7875 0.0000 0.0000
# 5 0.0000 0.0000 0.0000 0.0000 25.2668 0.0000
# 6 0.0000 0.0000 0.0000 0.0000 0.0000 -1.9871
#
#
#
# Elastic Compliance Matrix: (Units=1/GPa)
#
#
# Indices 1 2 3 4 5 6 
#
# 1 0.015509 -0.008994 -0.003021 0.000000 0.000000 0.000000
# 2 -0.008994 0.015888 -0.002609 0.000000 0.000000 0.000000
# 3 -0.003021 -0.002609 0.014470 0.000000 0.000000 0.000000
# 4 0.000000 0.000000 0.000000 0.059568 0.000000 0.000000
# 5 0.000000 0.000000 0.000000 0.000000 0.039578 0.000000
# 6 0.000000 0.000000 0.000000 0.000000 0.000000 -0.503256
#
#
# Mechanical properties :
#
#
# Convention : Reuss Voigt Hill
#
# Bulk Modulus (GPa) = 60.17074 64.25195 62.21135
# Shear Modulus (GPa) = -15.45808 18.89110 1.71651
#
# Velocity S-wave (km/s) = -3.06571 3.38908 1.02159
# Velocity P-wave (km/s) = 4.90434 7.37427 6.26228
#
# Compressibility (1/GPa) = 0.01661937
#
# Stress axis : x y z
#
# Youngs Moduli (GPa) = 64.47672 62.93988 69.10994
#
# Poissons Ratio (x) = 0.56606 0.20879
# Poissons Ratio (y) = 0.57988 0.18033
# Poissons Ratio (z) = 0.19479 0.16423
#
# Static dielectric constant tensor:
#      x y z
#    x 1.551720 0.000000 0.000000 
#    y 0.000000 1.568810 0.000000 
#    z 0.000000 0.000000 1.558010 
# 
# From -- ./inp_files/5933.got.cif
#   From: 2010.05.17/outbox.cif.g08.bks.cpg/sg72_3_cif.got.tgz:5933.got - 2010.06.03 17:03:01.
