data_PCOD9525336
_publ_section_title
;
Structure prediction by ZEFSAII (Michael W. Deem and Ramdas Pophale) SiO2 
 PCOD9525336
Probable space group: I B A M
;
_chemical_formula_sum "Si O2"
_cell_formula_units_Z 96
_cell_length_a 16.158927
_cell_length_b 11.803567
_cell_length_c 20.985886
_cell_angle_alpha 90.000000
_cell_angle_beta 90.000000
_cell_angle_gamma 90.000000
_cell_volume 4002.700522
_symmetry_space_group_name_H-M "I B A M"
_symmetry_group_IT_number 72
_symmetry_cell_setting 'orthorhombic'
loop_
_space_group_symop_operation_xyz
x,y,z
-x,-y,z
x,-y,1/2-z
-x,y,1/2-z
-x,-y,-z
x,y,-z
-x,y,1/2+z
x,-y,1/2+z
1/2+x,1/2+y,1/2+z
1/2-x,1/2-y,1/2+z
1/2+x,1/2-y,-z
1/2-x,1/2+y,-z
1/2-x,1/2-y,1/2-z
1/2+x,1/2+y,1/2-z
1/2-x,1/2+y,z
1/2+x,1/2-y,z
loop_
_atom_site_type_symbol
_atom_site_label
_atom_site_fract_x
_atom_site_fract_y
_atom_site_fract_z
Si Si1 0.879079 0.421356 0.109500
Si Si2 0.328906 0.314726 0.930358
Si Si3 0.980420 0.881380 0.928751
Si Si4 0.436623 0.151263 0.617067
Si Si5 0.190420 0.892885 0.794648
Si Si6 0.373793 0.835056 0.747975
O O1 0.819380 0.320443 0.085577
O O2 0.874548 0.553942 0.092072
O O3 0.876976 0.414005 0.186353
O O4 0.973032 0.385282 0.092762
O O5 0.427740 0.331310 0.934440
O O6 0.306558 0.396040 0.871363
O O7 0.293268 0.339872 0.000000
O O8 0.923610 0.782475 0.900349
O O9 0.947847 0.907519 0.000000
O O10 0.000000 0.000000 0.893870
O O11 0.435959 0.148215 0.693973
O O12 0.282526 0.853190 0.776617
O O13 0.125557 0.793267 0.778219
O O14 0.172134 0.000000 0.750000
#
# Coordination Sequence:
#
# PCOD9525336 Si02
#       6
#    16  16  16  16  16  16
#     4   9  18  32  53  83 108 139 181 232 290 337
#     4   9  19  36  56  77 109 150 189 233 285 338
#     4   9  19  34  52  77 110 147 181 223 282 336
#     4  10  18  30  55  81 108 141 182 230 282 339
#     4  10  21  35  55  79 109 150 195 230 280 342
#     4  10  20  34  53  78 111 144 181 235 283 330
#
# _framework density 23.983806999999999
#
# number of rings (size 3 to 8) (size 9 to 14) (size 15 to 20)
#    0.000    2.500    0.000    2.000    2.333    2.000 
#    0.000    4.167    0.000   15.000    0.000    0.000 
#    0.000    0.000    0.000    0.000    0.000    0.000 
#
# Total GULP energy -267527.640957 kJ/mol
# GULP energy per Si atom -5573.492520 kJ/mol
# Density = 2.392922 g / cm^3
# Si number density = 23.983807 Si / 1000 Ang^3
#
#
#
# Elastic Constant Matrix: (Units=GPa)
#
#
# Indices 1 2 3 4 5 6 
#
# 1 26.8859 -2.6669 -0.7039 0.0000 0.0000 0.0000
# 2 -2.6669 162.9122 69.1337 0.0000 0.0000 0.0000
# 3 -0.7039 69.1337 119.9977 0.0000 0.0000 0.0000
# 4 0.0000 0.0000 0.0000 14.4118 0.0000 0.0000
# 5 0.0000 0.0000 0.0000 0.0000 14.5417 0.0000
# 6 0.0000 0.0000 0.0000 0.0000 0.0000 10.7781
#
#
#
# Elastic Compliance Matrix: (Units=1/GPa)
#
#
# Indices 1 2 3 4 5 6 
#
# 1 0.037257 0.000685 -0.000176 0.000000 0.000000 0.000000
# 2 0.000685 0.008137 -0.004684 0.000000 0.000000 0.000000
# 3 -0.000176 -0.004684 0.011031 0.000000 0.000000 0.000000
# 4 0.000000 0.000000 0.000000 0.069388 0.000000 0.000000
# 5 0.000000 0.000000 0.000000 0.000000 0.068768 0.000000
# 6 0.000000 0.000000 0.000000 0.000000 0.000000 0.092781
#
#
# Mechanical properties :
#
#
# Convention : Reuss Voigt Hill
#
# Bulk Modulus (GPa) = 20.80080 49.03575 34.91828
# Shear Modulus (GPa) = 16.03913 24.21518 20.12715
#
# Velocity S-wave (km/s) = 2.58882 3.18094 2.90003
# Velocity P-wave (km/s) = 4.19853 5.82932 5.07979
#
# Compressibility (1/GPa) = 0.04807507
#
# Stress axis : x y z
#
# Youngs Moduli (GPa) = 26.84024 122.89232 90.65317
#
# Poissons Ratio (x) = -0.08412 0.01594
# Poissons Ratio (y) = -0.01837 0.42462
# Poissons Ratio (z) = 0.00472 0.57563
#
# Static dielectric constant tensor:
#      x y z
#    x 1.920950 0.000000 0.000000 
#    y 0.000000 2.038880 0.000000 
#    z 0.000000 0.000000 1.958990 
# 
# From -- ./inp_files/39712.got.cif
#   From: 2010.05.17/outbox.cif.g08.bks.cpg/sg72_20_cif.got.tgz:39712.got - 2010.06.03 17:03:01.
