data_PCOD9525877
_publ_section_title
;
Structure prediction by ZEFSAII (Michael W. Deem and Ramdas Pophale) SiO2 
 PCOD9525877
Probable space group: I B A M
;
_chemical_formula_sum "Si O2"
_cell_formula_units_Z 116
_cell_length_a 33.015339
_cell_length_b 22.049564
_cell_length_c 9.063874
_cell_angle_alpha 90.000000
_cell_angle_beta 90.000000
_cell_angle_gamma 90.000000
_cell_volume 6598.263073
_symmetry_space_group_name_H-M "I B A M"
_symmetry_group_IT_number 72
_symmetry_cell_setting 'orthorhombic'
loop_
_space_group_symop_operation_xyz
x,y,z
-x,-y,z
x,-y,1/2-z
-x,y,1/2-z
-x,-y,-z
x,y,-z
-x,y,1/2+z
x,-y,1/2+z
1/2+x,1/2+y,1/2+z
1/2-x,1/2-y,1/2+z
1/2+x,1/2-y,-z
1/2-x,1/2+y,-z
1/2-x,1/2-y,1/2-z
1/2+x,1/2+y,1/2-z
1/2-x,1/2+y,z
1/2+x,1/2-y,z
loop_
_atom_site_type_symbol
_atom_site_label
_atom_site_fract_x
_atom_site_fract_y
_atom_site_fract_z
Si Si1 0.190500 0.705520 0.174902
Si Si2 0.580085 0.563664 0.322197
Si Si3 0.957296 0.806605 0.176852
Si Si4 0.396749 0.197836 0.323140
Si Si5 0.960575 0.620084 0.332730
Si Si6 0.667509 0.438344 0.675903
Si Si7 0.767280 0.834388 0.326485
Si Si8 0.000000 0.500000 0.750000
O O1 0.148024 0.698643 0.256676
O O2 0.208640 0.772337 0.206409
O O3 0.226195 0.662177 0.233615
O O4 0.184835 0.699091 0.000000
O O5 0.565736 0.500000 0.250000
O O6 0.581805 0.557212 0.500000
O O7 0.554732 0.623971 0.285857
O O8 0.624910 0.574834 0.255921
O O9 0.922288 0.758453 0.219516
O O10 0.000000 0.791796 0.250000
O O11 0.961087 0.802979 0.000000
O O12 0.395259 0.194927 0.500000
O O13 0.421884 0.141259 0.258004
O O14 0.957786 0.641519 0.500000
O O15 0.000000 0.646633 0.250000
O O16 0.970800 0.547978 0.332179
O O17 0.682420 0.500000 0.750000
O O18 0.660653 0.445101 0.500000
O O19 0.700929 0.387458 0.699929
O O20 0.756539 0.833115 0.500000
#
# Coordination Sequence:
#
# PCOD9525877 Si02
#       8
#    16  16  16  16  16  16  16   4
#     4  10  20  34  55  81 107 139 177 218 266 319
#     4  10  20  35  53  76 105 139 183 226 268 316
#     4  10  23  38  53  76 106 142 180 222 271 321
#     4  11  22  36  55  80 112 145 178 221 272 320
#     4  10  20  35  57  83 110 140 178 219 263 314
#     4  10  19  32  53  79 106 138 175 216 262 310
#     4   9  19  35  54  78 108 140 175 216 265 321
#     4   8  22  36  62  84 114 140 180 220 262 312
#
# _framework density 17.580385
#
# number of rings (size 3 to 8) (size 9 to 14) (size 15 to 20)
#    0.414    1.655    0.000    4.345    0.000    5.241 
#    0.000    1.379    1.517    0.000    0.000    0.000 
#    0.000    0.000    0.000    0.000    0.000    0.000 
#
# Total GULP energy -323378.877068 kJ/mol
# GULP energy per Si atom -5575.497880 kJ/mol
# Density = 1.754037 g / cm^3
# Si number density = 17.580385 Si / 1000 Ang^3
#
#
#
# Elastic Constant Matrix: (Units=GPa)
#
#
# Indices 1 2 3 4 5 6 
#
# 1 88.1328 30.2785 47.5045 0.0000 0.0000 0.0000
# 2 30.2785 72.8028 28.0018 0.0000 0.0000 0.0000
# 3 47.5045 28.0018 74.0647 0.0000 0.0000 0.0000
# 4 0.0000 0.0000 0.0000 19.5663 0.0000 0.0000
# 5 0.0000 0.0000 0.0000 0.0000 34.1187 0.0000
# 6 0.0000 0.0000 0.0000 0.0000 0.0000 12.4679
#
#
#
# Elastic Compliance Matrix: (Units=1/GPa)
#
#
# Indices 1 2 3 4 5 6 
#
# 1 0.018108 -0.003585 -0.010259 0.000000 0.000000 0.000000
# 2 -0.003585 0.016783 -0.004046 0.000000 0.000000 0.000000
# 3 -0.010259 -0.004046 0.021611 0.000000 0.000000 0.000000
# 4 0.000000 0.000000 0.000000 0.051108 0.000000 0.000000
# 5 0.000000 0.000000 0.000000 0.000000 0.029309 0.000000
# 6 0.000000 0.000000 0.000000 0.000000 0.000000 0.080206
#
#
# Mechanical properties :
#
#
# Convention : Reuss Voigt Hill
#
# Bulk Modulus (GPa) = 48.25633 49.61886 48.93760
# Shear Modulus (GPa) = 19.24469 21.84495 20.54482
#
# Velocity S-wave (km/s) = 3.31217 3.52884 3.42222
# Velocity P-wave (km/s) = 6.49121 6.69992 6.59639
#
# Compressibility (1/GPa) = 0.02072267
#
# Stress axis : x y z
#
# Youngs Moduli (GPa) = 55.22487 59.58466 46.27254
#
# Poissons Ratio (x) = 0.21362 0.47470
# Poissons Ratio (y) = 0.19799 0.18720
# Poissons Ratio (z) = 0.56654 0.24106
#
# Static dielectric constant tensor:
#      x y z
#    x 1.574760 0.000000 0.000000 
#    y 0.000000 1.624620 0.000000 
#    z 0.000000 0.000000 1.595920 
# 
# From -- ./inp_files/9344.got.cif
#   From: 2010.05.17/outbox.cif.g08.bks.cpg/sg72_5_cif.got.tgz:9344.got - 2010.06.03 17:03:01.
