data_PCOD9525171
_publ_section_title
;
Structure prediction by ZEFSAII (Michael W. Deem and Ramdas Pophale) SiO2 
 PCOD9525171
Probable space group: I B A M
;
_chemical_formula_sum "Si O2"
_cell_formula_units_Z 96
_cell_length_a 30.469157
_cell_length_b 25.135064
_cell_length_c 8.802563
_cell_angle_alpha 90.000000
_cell_angle_beta 90.000000
_cell_angle_gamma 90.000000
_cell_volume 6741.391917
_symmetry_space_group_name_H-M "I B A M"
_symmetry_group_IT_number 72
_symmetry_cell_setting 'orthorhombic'
loop_
_space_group_symop_operation_xyz
x,y,z
-x,-y,z
x,-y,1/2-z
-x,y,1/2-z
-x,-y,-z
x,y,-z
-x,y,1/2+z
x,-y,1/2+z
1/2+x,1/2+y,1/2+z
1/2-x,1/2-y,1/2+z
1/2+x,1/2-y,-z
1/2-x,1/2+y,-z
1/2-x,1/2-y,1/2-z
1/2+x,1/2+y,1/2-z
1/2-x,1/2+y,z
1/2+x,1/2-y,z
loop_
_atom_site_type_symbol
_atom_site_label
_atom_site_fract_x
_atom_site_fract_y
_atom_site_fract_z
Si Si1 0.951446 0.942489 0.816402
Si Si2 0.721336 0.172349 0.815942
Si Si3 0.123244 0.140690 0.178753
Si Si4 0.214121 0.555009 0.326990
Si Si5 0.315880 0.721939 0.681606
Si Si6 0.180098 0.054423 0.325977
O O1 0.919614 0.893365 0.773757
O O2 0.000000 0.933520 0.750000
O O3 0.936960 0.000000 0.750000
O O4 0.120134 0.150652 0.000000
O O5 0.706141 0.114002 0.759996
O O6 0.692088 0.220250 0.753011
O O7 0.771889 0.187719 0.775328
O O8 0.719984 0.171158 0.000000
O O9 0.139721 0.193758 0.261782
O O10 0.162250 0.100178 0.219431
O O11 0.047571 0.053742 0.000000
O O12 0.199467 0.500000 0.250000
O O13 0.198002 0.554454 0.500000
O O14 0.267305 0.553517 0.330785
O O15 0.316170 0.724893 0.500000
O O16 0.164584 0.061162 0.500000
O O17 0.165169 0.000000 0.250000
#
# Coordination Sequence:
#
# PCOD9525171 Si02
#       6
#    16  16  16  16  16  16
#     4  10  21  35  50  66  84 109 140 175 222 270
#     4   9  17  31  43  57  82 109 138 174 213 253
#     4  11  21  31  44  63  82 105 136 172 214 260
#     4   9  17  28  40  56  78 103 134 170 207 246
#     4  10  19  30  44  61  80 107 140 174 212 255
#     4  10  18  28  39  56  78 102 132 168 210 251
#
# _framework density 14.240382
#
# number of rings (size 3 to 8) (size 9 to 14) (size 15 to 20)
#    0.000    2.167    1.667    3.000    0.000    6.000 
#    0.000    0.000    0.000    0.000    0.000    0.000 
#    0.000    0.000    0.000    0.000    0.000    0.833 
#
# Total GULP energy -267295.567064 kJ/mol
# GULP energy per Si atom -5568.657647 kJ/mol
# Density = 1.420797 g / cm^3
# Si number density = 14.240382 Si / 1000 Ang^3
#
#
#
# Elastic Constant Matrix: (Units=GPa)
#
#
# Indices 1 2 3 4 5 6 
#
# 1 46.4344 33.6496 15.7084 0.0000 0.0000 0.0000
# 2 33.6496 131.8667 29.9703 0.0000 0.0000 0.0000
# 3 15.7084 29.9703 25.1594 0.0000 0.0000 0.0000
# 4 0.0000 0.0000 0.0000 23.2468 0.0000 0.0000
# 5 0.0000 0.0000 0.0000 0.0000 10.3005 0.0000
# 6 0.0000 0.0000 0.0000 0.0000 0.0000 25.9834
#
#
#
# Elastic Compliance Matrix: (Units=1/GPa)
#
#
# Indices 1 2 3 4 5 6 
#
# 1 0.029149 -0.004528 -0.012806 0.000000 0.000000 0.000000
# 2 -0.004528 0.011102 -0.010398 0.000000 0.000000 0.000000
# 3 -0.012806 -0.010398 0.060128 0.000000 0.000000 0.000000
# 4 0.000000 0.000000 0.000000 0.043017 0.000000 0.000000
# 5 0.000000 0.000000 0.000000 0.000000 0.097083 0.000000
# 6 0.000000 0.000000 0.000000 0.000000 0.000000 0.038486
#
#
# Mechanical properties :
#
#
# Convention : Reuss Voigt Hill
#
# Bulk Modulus (GPa) = 22.26368 40.23521 31.24944
# Shear Modulus (GPa) = 14.31024 20.18162 17.24593
#
# Velocity S-wave (km/s) = 3.17346 3.76867 3.48380
# Velocity P-wave (km/s) = 5.39407 6.87407 6.17854
#
# Compressibility (1/GPa) = 0.04491621
#
# Stress axis : x y z
#
# Youngs Moduli (GPa) = 34.30655 90.07370 16.63111
#
# Poissons Ratio (x) = 0.40783 0.21297
# Poissons Ratio (y) = 0.15533 0.17293
# Poissons Ratio (z) = 0.43932 0.93659
#
# Static dielectric constant tensor:
#      x y z
#    x 1.458870 0.000000 0.000000 
#    y 0.000000 1.488260 0.000000 
#    z 0.000000 0.000000 1.484760 
# 
# From -- ./inp_files/7108.got.cif
#   From: 2010.05.17/outbox.cif.g08.bks.cpg/sg72_4_cif.got.tgz:7108.got - 2010.06.03 17:03:01.
