data_PCOD9525905
_publ_section_title
;
Structure prediction by ZEFSAII (Michael W. Deem and Ramdas Pophale) SiO2 
 PCOD9525905
Probable space group: I B A M
;
_chemical_formula_sum "Si O2"
_cell_formula_units_Z 108
_cell_length_a 15.944312
_cell_length_b 11.912418
_cell_length_c 30.057165
_cell_angle_alpha 90.000000
_cell_angle_beta 90.000000
_cell_angle_gamma 90.000000
_cell_volume 5708.916930
_symmetry_space_group_name_H-M "I B A M"
_symmetry_group_IT_number 72
_symmetry_cell_setting 'orthorhombic'
loop_
_space_group_symop_operation_xyz
x,y,z
-x,-y,z
x,-y,1/2-z
-x,y,1/2-z
-x,-y,-z
x,y,-z
-x,y,1/2+z
x,-y,1/2+z
1/2+x,1/2+y,1/2+z
1/2-x,1/2-y,1/2+z
1/2+x,1/2-y,-z
1/2-x,1/2+y,-z
1/2-x,1/2-y,1/2-z
1/2+x,1/2+y,1/2-z
1/2-x,1/2+y,z
1/2+x,1/2-y,z
loop_
_atom_site_type_symbol
_atom_site_label
_atom_site_fract_x
_atom_site_fract_y
_atom_site_fract_z
Si Si1 0.714619 0.000000 0.250000
Si Si2 0.082994 0.758368 0.552765
Si Si3 0.296149 0.042626 0.450553
Si Si4 0.326493 0.563434 0.884258
Si Si5 0.000000 0.000000 0.750000
Si Si6 0.062262 0.396582 0.581021
Si Si7 0.138667 0.898570 0.191542
Si Si8 0.336750 0.856545 0.332569
O O1 0.777005 0.074469 0.219588
O O2 0.664867 0.074650 0.286173
O O3 0.082993 0.787743 0.500000
O O4 0.147034 0.652400 0.558099
O O5 0.117391 0.855672 0.585099
O O6 0.990927 0.712268 0.566897
O O7 0.261777 0.051365 0.500000
O O8 0.223772 0.023668 0.415322
O O9 0.355758 0.932158 0.446911
O O10 0.372372 0.488616 0.847781
O O11 0.253938 0.629048 0.856597
O O12 0.939939 0.080850 0.777416
O O13 0.094451 0.396855 0.631703
O O14 0.000000 0.500000 0.573741
O O15 0.145987 0.773043 0.175206
#
# Coordination Sequence:
#
# PCOD9525905 Si02
#       8
#     8  16  16  16   4  16  16  16
#     4   9  20  39  59  84 105 134 186 240 283 342
#     4  10  19  32  54  83 114 152 192 234 281 331
#     4   9  17  32  53  79 111 145 187 233 280 333
#     4  10  20  33  56  83 109 146 189 234 274 337
#     4  10  24  40  52  78 100 152 190 216 266 362
#     4   9  19  34  51  80 112 147 184 228 287 341
#     4  10  21  38  57  78 110 144 186 225 285 345
#     4  10  20  37  59  81 109 145 182 236 293 332
#
# _framework density 18.917774000000001
#
# number of rings (size 3 to 8) (size 9 to 14) (size 15 to 20)
#    0.000    2.370    0.000    2.222    2.074    2.963 
#    2.667    0.000    0.000    3.556    0.000    0.000 
#    0.000    0.000    0.000    0.000    0.000    0.000 
#
# Total GULP energy -301069.099126 kJ/mol
# GULP energy per Si atom -5575.353688 kJ/mol
# Density = 1.887472 g / cm^3
# Si number density = 18.917774 Si / 1000 Ang^3
#
#
#
# Elastic Constant Matrix: (Units=GPa)
#
#
# Indices 1 2 3 4 5 6 
#
# 1 39.5927 7.3813 27.3411 0.0000 0.0000 0.0000
# 2 7.3813 50.9073 34.5508 0.0000 0.0000 0.0000
# 3 27.3411 34.5508 116.9247 0.0000 0.0000 0.0000
# 4 0.0000 0.0000 0.0000 27.0935 0.0000 0.0000
# 5 0.0000 0.0000 0.0000 0.0000 -24.4620 0.0000
# 6 0.0000 0.0000 0.0000 0.0000 0.0000 15.3995
#
#
#
# Elastic Compliance Matrix: (Units=1/GPa)
#
#
# Indices 1 2 3 4 5 6 
#
# 1 0.030132 0.000517 -0.007199 0.000000 0.000000 0.000000
# 2 0.000517 0.024580 -0.007384 0.000000 0.000000 0.000000
# 3 -0.007199 -0.007384 0.012418 0.000000 0.000000 0.000000
# 4 0.000000 0.000000 0.000000 0.036909 0.000000 0.000000
# 5 0.000000 0.000000 0.000000 0.000000 -0.040880 0.000000
# 6 0.000000 0.000000 0.000000 0.000000 0.000000 0.064937
#
#
# Mechanical properties :
#
#
# Convention : Reuss Voigt Hill
#
# Bulk Modulus (GPa) = 25.64244 38.44123 32.04183
# Shear Modulus (GPa) = 29.54592 12.81630 21.18111
#
# Velocity S-wave (km/s) = 3.95626 2.60566 3.34973
# Velocity P-wave (km/s) = 5.86970 5.42373 5.65112
#
# Compressibility (1/GPa) = 0.03899785
#
# Stress axis : x y z
#
# Youngs Moduli (GPa) = 33.18744 40.68296 80.52955
#
# Poissons Ratio (x) = -0.02102 0.57970
# Poissons Ratio (y) = -0.01715 0.59465
# Poissons Ratio (z) = 0.23890 0.30041
#
# Static dielectric constant tensor:
#      x y z
#    x 1.658800 0.000000 0.000000 
#    y 0.000000 1.631810 0.000000 
#    z 0.000000 0.000000 1.698500 
# 
# From -- ./inp_files/51821.got.cif
#   From: 2010.05.17/outbox.cif.g08.bks.cpg/sg72_26_cif.got.tgz:51821.got - 2010.06.03 17:03:01.
