data_PCOD9525475
_publ_section_title
;
Structure prediction by ZEFSAII (Michael W. Deem and Ramdas Pophale) SiO2 
 PCOD9525475
Probable space group: I B A M
;
_chemical_formula_sum "Si O2"
_cell_formula_units_Z 92
_cell_length_a 16.754739
_cell_length_b 12.842094
_cell_length_c 20.577765
_cell_angle_alpha 90.000000
_cell_angle_beta 90.000000
_cell_angle_gamma 90.000000
_cell_volume 4427.634009
_symmetry_space_group_name_H-M "I B A M"
_symmetry_group_IT_number 72
_symmetry_cell_setting 'orthorhombic'
loop_
_space_group_symop_operation_xyz
x,y,z
-x,-y,z
x,-y,1/2-z
-x,y,1/2-z
-x,-y,-z
x,y,-z
-x,y,1/2+z
x,-y,1/2+z
1/2+x,1/2+y,1/2+z
1/2-x,1/2-y,1/2+z
1/2+x,1/2-y,-z
1/2-x,1/2+y,-z
1/2-x,1/2-y,1/2-z
1/2+x,1/2+y,1/2-z
1/2-x,1/2+y,z
1/2+x,1/2-y,z
loop_
_atom_site_type_symbol
_atom_site_label
_atom_site_fract_x
_atom_site_fract_y
_atom_site_fract_z
Si Si1 0.275146 0.992597 0.000000
Si Si2 0.905182 0.619181 0.250076
Si Si3 0.660820 0.238492 0.000000
Si Si4 0.859438 0.001868 0.890005
Si Si5 0.848091 0.775558 0.140265
Si Si6 0.500000 0.500000 0.000000
Si Si7 0.657212 0.194260 0.500000
Si Si8 0.841333 0.769096 0.361475
O O1 0.220730 0.001661 0.935179
O O2 0.349683 0.071122 0.000000
O O3 0.311669 0.879003 0.000000
O O4 0.872588 0.500000 0.250000
O O5 0.882146 0.690091 0.188528
O O6 0.877414 0.686694 0.311798
O O7 0.000000 0.611309 0.250000
O O8 0.617860 0.263391 0.066985
O O9 0.745386 0.299217 0.000000
O O10 0.930344 0.002677 0.942485
O O11 0.858097 0.109348 0.849798
O O12 0.861077 0.897730 0.846255
O O13 0.753600 0.751362 0.138174
O O14 0.628143 0.247131 0.565320
#
# Coordination Sequence:
#
# PCOD9525475 Si02
#       8
#     8  16   8  16  16   4   8  16
#     4  11  16  33  56  98 143 153 200 262 335 368
#     4  11  29  51  65  85 132 182 222 272 333 396
#     4  10  18  32  62 100 127 159 202 266 319 380
#     4  11  21  37  65 101 139 171 208 266 340 391
#     4  11  23  42  70 101 130 170 222 275 327 392
#     4  10  24  36  60 106 150 178 190 274 342 402
#     4  10  18  32  62 100 127 159 202 266 319 380
#     4  11  23  42  70 101 130 170 222 275 327 392
#
# _framework density 20.778592
#
# number of rings (size 3 to 8) (size 9 to 14) (size 15 to 20)
#    0.000    1.217    6.957    1.565    7.304    0.696 
#    0.000    0.870    0.000    2.087    0.000    0.000 
#    0.000    0.000    0.000    0.000    0.000    0.000 
#
# Total GULP energy -256249.084860 kJ/mol
# GULP energy per Si atom -5570.632280 kJ/mol
# Density = 2.073130 g / cm^3
# Si number density = 20.778592 Si / 1000 Ang^3
#
#
#
# Elastic Constant Matrix: (Units=GPa)
#
#
# Indices 1 2 3 4 5 6 
#
# 1 42.1491 35.0658 14.4543 0.0000 0.0000 0.0000
# 2 35.0658 212.5630 69.9140 0.0000 0.0000 0.0000
# 3 14.4543 69.9140 121.1745 0.0000 0.0000 0.0000
# 4 0.0000 0.0000 0.0000 45.0903 0.0000 0.0000
# 5 0.0000 0.0000 0.0000 0.0000 0.6702 0.0000
# 6 0.0000 0.0000 0.0000 0.0000 0.0000 16.5346
#
#
#
# Elastic Compliance Matrix: (Units=1/GPa)
#
#
# Indices 1 2 3 4 5 6 
#
# 1 0.027565 -0.004278 -0.000820 0.000000 0.000000 0.000000
# 2 -0.004278 0.006470 -0.003223 0.000000 0.000000 0.000000
# 3 -0.000820 -0.003223 0.010210 0.000000 0.000000 0.000000
# 4 0.000000 0.000000 0.000000 0.022178 0.000000 0.000000
# 5 0.000000 0.000000 0.000000 0.000000 1.491991 0.000000
# 6 0.000000 0.000000 0.000000 0.000000 0.000000 0.060479
#
#
# Mechanical properties :
#
#
# Convention : Reuss Voigt Hill
#
# Bulk Modulus (GPa) = 36.22627 68.30608 52.26618
# Shear Modulus (GPa) = 3.04000 29.55587 16.29793
#
# Velocity S-wave (km/s) = 1.21088 3.77559 2.80368
# Velocity P-wave (km/s) = 4.40763 7.20773 5.97405
#
# Compressibility (1/GPa) = 0.02760428
#
# Stress axis : x y z
#
# Youngs Moduli (GPa) = 36.27748 154.55537 97.94448
#
# Poissons Ratio (x) = 0.66113 0.08032
# Poissons Ratio (y) = 0.15518 0.31566
# Poissons Ratio (z) = 0.02975 0.49811
#
# Static dielectric constant tensor:
#      x y z
#    x 1.730890 0.000000 0.000000 
#    y 0.000000 1.840660 0.000000 
#    z 0.000000 0.000000 1.779930 
# 
# From -- ./inp_files/38937.got.cif
#   From: 2010.05.17/outbox.cif.g08.bks.cpg/sg72_20_cif.got.tgz:38937.got - 2010.06.03 17:03:01.
