data_PCOD9525116
_publ_section_title
;
Structure prediction by ZEFSAII (Michael W. Deem and Ramdas Pophale) SiO2 
 PCOD9525116
Probable space group: I B A M
;
_chemical_formula_sum "Si O2"
_cell_formula_units_Z 88
_cell_length_a 14.404209
_cell_length_b 13.333736
_cell_length_c 23.146787
_cell_angle_alpha 90.000000
_cell_angle_beta 90.000000
_cell_angle_gamma 90.000000
_cell_volume 4445.616355
_symmetry_space_group_name_H-M "I B A M"
_symmetry_group_IT_number 72
_symmetry_cell_setting 'orthorhombic'
loop_
_space_group_symop_operation_xyz
x,y,z
-x,-y,z
x,-y,1/2-z
-x,y,1/2-z
-x,-y,-z
x,y,-z
-x,y,1/2+z
x,-y,1/2+z
1/2+x,1/2+y,1/2+z
1/2-x,1/2-y,1/2+z
1/2+x,1/2-y,-z
1/2-x,1/2+y,-z
1/2-x,1/2-y,1/2-z
1/2+x,1/2+y,1/2-z
1/2-x,1/2+y,z
1/2+x,1/2-y,z
loop_
_atom_site_type_symbol
_atom_site_label
_atom_site_fract_x
_atom_site_fract_y
_atom_site_fract_z
Si Si1 0.151826 0.977536 0.612985
Si Si2 0.358886 0.981293 0.127423
Si Si3 0.513126 0.341261 0.617135
Si Si4 0.105912 0.559191 0.000000
Si Si5 0.541161 0.774840 0.500000
Si Si6 0.491303 0.147535 0.818113
Si Si7 0.792558 0.851031 0.000000
O O1 0.250132 0.007224 0.640733
O O2 0.177324 0.918006 0.554553
O O3 0.077797 0.900467 0.640532
O O4 0.092575 0.078028 0.604151
O O5 0.415507 0.070208 0.158038
O O6 0.411580 0.882122 0.149990
O O7 0.374329 0.999001 0.058946
O O8 0.491988 0.282762 0.557584
O O9 0.538909 0.257786 0.663436
O O10 0.181631 0.650465 0.000000
O O11 0.007511 0.616538 0.000000
O O12 0.652573 0.754320 0.500000
O O13 0.500000 0.136009 0.750000
#
# Coordination Sequence:
#
# PCOD9525116 Si02
#       7
#    16  16  16   8   8  16   8
#     4   9  19  37  60  87 117 153 187 227 285 341
#     4  10  21  39  59  84 120 149 186 234 285 344
#     4  10  20  37  61  88 117 150 190 231 280 345
#     4  10  18  34  57  91 118 142 188 232 278 343
#     4  10  17  33  57  88 120 154 179 224 289 333
#     4  11  24  42  58  80 112 153 195 241 289 335
#     4   8  17  32  55  86 127 153 176 224 279 355
#
# _framework density 19.794782000000001
#
# number of rings (size 3 to 8) (size 9 to 14) (size 15 to 20)
#    0.000    2.182    1.818    1.636    0.000    5.818 
#    3.273    7.273    0.000    0.000    0.000    0.000 
#    0.000    0.000    0.000    0.000    0.000    0.000 
#
# Total GULP energy -245396.596987 kJ/mol
# GULP energy per Si atom -5577.195386 kJ/mol
# Density = 1.974973 g / cm^3
# Si number density = 19.794782 Si / 1000 Ang^3
#
#
#
# Elastic Constant Matrix: (Units=GPa)
#
#
# Indices 1 2 3 4 5 6 
#
# 1 107.6348 -0.4163 9.1761 0.0000 0.0000 0.0000
# 2 -0.4163 42.4383 7.8867 0.0000 0.0000 0.0000
# 3 9.1761 7.8867 89.5227 0.0000 0.0000 0.0000
# 4 0.0000 0.0000 0.0000 84.3925 0.0000 0.0000
# 5 0.0000 0.0000 0.0000 0.0000 -18.9872 0.0000
# 6 0.0000 0.0000 0.0000 0.0000 0.0000 22.2660
#
#
#
# Elastic Compliance Matrix: (Units=1/GPa)
#
#
# Indices 1 2 3 4 5 6 
#
# 1 0.009376 0.000275 -0.000985 0.000000 0.000000 0.000000
# 2 0.000275 0.023964 -0.002139 0.000000 0.000000 0.000000
# 3 -0.000985 -0.002139 0.011460 0.000000 0.000000 0.000000
# 4 0.000000 0.000000 0.000000 0.011849 0.000000 0.000000
# 5 0.000000 0.000000 0.000000 0.000000 -0.052667 0.000000
# 6 0.000000 0.000000 0.000000 0.000000 0.000000 0.044912
#
#
# Mechanical properties :
#
#
# Convention : Reuss Voigt Hill
#
# Bulk Modulus (GPa) = 25.57522 30.32100 27.94811
# Shear Modulus (GPa) = 73.93611 32.39752 53.16682
#
# Velocity S-wave (km/s) = 6.11820 4.04997 5.18819
# Velocity P-wave (km/s) = 7.92831 6.10087 7.07385
#
# Compressibility (1/GPa) = 0.03910034
#
# Stress axis : x y z
#
# Youngs Moduli (GPa) = 106.65831 41.72947 87.26144
#
# Poissons Ratio (x) = -0.01148 0.08597
# Poissons Ratio (y) = -0.02934 0.18668
# Poissons Ratio (z) = 0.10509 0.08927
#
# Static dielectric constant tensor:
#      x y z
#    x 1.744610 0.000000 0.000000 
#    y 0.000000 1.740080 0.000000 
#    z 0.000000 0.000000 1.675460 
# 
# From -- ./inp_files/37979.got.cif
#   From: 2010.05.17/outbox.cif.g08.bks.cpg/sg72_19_cif.got.tgz:37979.got - 2010.06.03 17:03:01.
