data_PCOD9525264
_publ_section_title
;
Structure prediction by ZEFSAII (Michael W. Deem and Ramdas Pophale) SiO2 
 PCOD9525264
Probable space group: I B A M
;
_chemical_formula_sum "Si O2"
_cell_formula_units_Z 104
_cell_length_a 29.717946
_cell_length_b 8.569303
_cell_length_c 21.206473
_cell_angle_alpha 90.000000
_cell_angle_beta 90.000000
_cell_angle_gamma 90.000000
_cell_volume 5400.484604
_symmetry_space_group_name_H-M "I B A M"
_symmetry_group_IT_number 72
_symmetry_cell_setting 'orthorhombic'
loop_
_space_group_symop_operation_xyz
x,y,z
-x,-y,z
x,-y,1/2-z
-x,y,1/2-z
-x,-y,-z
x,y,-z
-x,y,1/2+z
x,-y,1/2+z
1/2+x,1/2+y,1/2+z
1/2-x,1/2-y,1/2+z
1/2+x,1/2-y,-z
1/2-x,1/2+y,-z
1/2-x,1/2-y,1/2-z
1/2+x,1/2+y,1/2-z
1/2-x,1/2+y,z
1/2+x,1/2-y,z
loop_
_atom_site_type_symbol
_atom_site_label
_atom_site_fract_x
_atom_site_fract_y
_atom_site_fract_z
Si Si1 0.531091 0.845563 0.431832
Si Si2 0.850949 0.746035 0.791066
Si Si3 0.578194 0.500000 0.250000
Si Si4 0.895483 0.526385 0.368311
Si Si5 0.314655 0.791309 0.350729
Si Si6 0.524421 0.760585 0.185304
Si Si7 0.725795 0.465389 0.174260
O O1 0.528336 0.765539 0.500000
O O2 0.511369 0.754807 0.371586
O O3 0.500000 0.000000 0.434643
O O4 0.580324 0.915277 0.418785
O O5 0.870722 0.592495 0.821673
O O6 0.833318 0.713056 0.720942
O O7 0.809562 0.823275 0.828303
O O8 0.889644 0.876411 0.784533
O O9 0.547792 0.597108 0.201849
O O10 0.857435 0.648893 0.390268
O O11 0.935768 0.620632 0.334027
O O12 0.295064 0.617456 0.358905
O O13 0.273281 0.910924 0.352662
O O14 0.500000 0.810730 0.250000
O O15 0.731099 0.500000 0.250000
#
# Coordination Sequence:
#
# PCOD9525264 Si02
#       7
#    16  16   8  16  16  16  16
#     4   9  21  39  58  81 111 148 198 251 302 359
#     4  11  19  30  47  75 113 146 187 222 279 345
#     4  12  21  34  48  76 114 146 186 236 285 348
#     4  11  21  32  55  76 104 144 186 236 283 345
#     4  11  19  30  47  76 111 151 186 223 280 349
#     4  11  23  36  55  82 112 145 191 243 305 355
#     4  10  18  30  43  72 118 156 178 218 280 352
#
# _framework density 19.257531
#
# number of rings (size 3 to 8) (size 9 to 14) (size 15 to 20)
#    0.000    1.385    3.846    5.308    2.154    3.385 
#    0.000    0.000    0.000    7.385    0.000    5.385 
#    0.000    0.000    0.000    0.000    0.000    0.000 
#
# Total GULP energy -290338.700228 kJ/mol
# GULP energy per Si atom -5583.436543 kJ/mol
# Density = 1.921370 g / cm^3
# Si number density = 19.257531 Si / 1000 Ang^3
#
#
#
# Elastic Constant Matrix: (Units=GPa)
#
#
# Indices 1 2 3 4 5 6 
#
# 1 128.3314 38.6033 32.7307 0.0000 0.0000 0.0000
# 2 38.6033 80.2559 16.1492 0.0000 0.0000 0.0000
# 3 32.7307 16.1492 69.5297 0.0000 0.0000 0.0000
# 4 0.0000 0.0000 0.0000 0.1567 0.0000 0.0000
# 5 0.0000 0.0000 0.0000 0.0000 5.0252 0.0000
# 6 0.0000 0.0000 0.0000 0.0000 0.0000 51.3609
#
#
#
# Elastic Compliance Matrix: (Units=1/GPa)
#
#
# Indices 1 2 3 4 5 6 
#
# 1 0.009964 -0.004038 -0.003753 0.000000 0.000000 0.000000
# 2 -0.004038 0.014707 -0.001515 0.000000 0.000000 0.000000
# 3 -0.003753 -0.001515 0.016501 0.000000 0.000000 0.000000
# 4 0.000000 0.000000 0.000000 6.380796 0.000000 0.000000
# 5 0.000000 0.000000 0.000000 0.000000 0.198996 0.000000
# 6 0.000000 0.000000 0.000000 0.000000 0.000000 0.019470
#
#
# Mechanical properties :
#
#
# Convention : Reuss Voigt Hill
#
# Bulk Modulus (GPa) = 44.32450 50.34259 47.33354
# Shear Modulus (GPa) = 0.75001 24.01750 12.38376
#
# Velocity S-wave (km/s) = 0.62475 3.53537 2.53861
# Velocity P-wave (km/s) = 4.85665 6.54703 5.76414
#
# Compressibility (1/GPa) = 0.02256088
#
# Stress axis : x y z
#
# Youngs Moduli (GPa) = 100.36144 67.99423 60.60296
#
# Poissons Ratio (x) = 0.27453 0.22743
# Poissons Ratio (y) = 0.40522 0.09183
# Poissons Ratio (z) = 0.37663 0.10303
#
# Static dielectric constant tensor:
#      x y z
#    x 1.731420 0.000000 0.000000 
#    y 0.000000 1.716780 0.000000 
#    z 0.000000 0.000000 1.673510 
# 
# From -- ./inp_files/45955.got.cif
#   From: 2010.05.17/outbox.cif.g08.bks.cpg/sg72_23_cif.got.tgz:45955.got - 2010.06.03 17:03:01.
