data_PCOD9525489
_publ_section_title
;
Structure prediction by ZEFSAII (Michael W. Deem and Ramdas Pophale) SiO2 
 PCOD9525489
Probable space group: I B A M
;
_chemical_formula_sum "Si O2"
_cell_formula_units_Z 80
_cell_length_a 20.857929
_cell_length_b 8.379932
_cell_length_c 25.162553
_cell_angle_alpha 90.000000
_cell_angle_beta 90.000000
_cell_angle_gamma 90.000000
_cell_volume 4398.112985
_symmetry_space_group_name_H-M "I B A M"
_symmetry_group_IT_number 72
_symmetry_cell_setting 'orthorhombic'
loop_
_space_group_symop_operation_xyz
x,y,z
-x,-y,z
x,-y,1/2-z
-x,y,1/2-z
-x,-y,-z
x,y,-z
-x,y,1/2+z
x,-y,1/2+z
1/2+x,1/2+y,1/2+z
1/2-x,1/2-y,1/2+z
1/2+x,1/2-y,-z
1/2-x,1/2+y,-z
1/2-x,1/2-y,1/2-z
1/2+x,1/2+y,1/2-z
1/2-x,1/2+y,z
1/2+x,1/2-y,z
loop_
_atom_site_type_symbol
_atom_site_label
_atom_site_fract_x
_atom_site_fract_y
_atom_site_fract_z
Si Si1 0.179948 0.676542 0.561563
Si Si2 0.662821 0.227352 0.679064
Si Si3 0.074097 0.467075 0.122642
Si Si4 0.931012 0.685309 0.231885
Si Si5 0.724521 0.465165 0.869383
O O1 0.192648 0.706428 0.500000
O O2 0.111262 0.597014 0.571869
O O3 0.230380 0.554371 0.587755
O O4 0.186696 0.833090 0.597631
O O5 0.630316 0.249507 0.736577
O O6 0.680567 0.399312 0.656111
O O7 0.610623 0.124980 0.645040
O O8 0.727584 0.120721 0.673044
O O9 0.077976 0.332429 0.169171
O O10 0.000000 0.500000 0.114128
O O11 0.933744 0.500000 0.250000
O O12 0.000000 0.755836 0.250000
#
# Coordination Sequence:
#
# PCOD9525489 Si02
#       5
#    16  16  16  16  16
#     4  10  20  35  56  77 106 146 185 229 278 322
#     4   9  17  32  55  81 107 141 176 219 278 322
#     4  10  18  33  55  80 106 141 190 225 258 326
#     4   9  14  29  54  79 101 141 181 213 259 318
#     4   9  19  35  53  81 111 139 178 232 272 330
#
# _framework density 18.189619
#
# number of rings (size 3 to 8) (size 9 to 14) (size 15 to 20)
#    0.000    2.600    4.000    0.600    0.000    0.400 
#    0.000   30.000    0.000    2.400    0.000    0.000 
#    0.000    0.000    0.000    0.000    0.000    0.000 
#
# Total GULP energy -222846.275930 kJ/mol
# GULP energy per Si atom -5571.156898 kJ/mol
# Density = 1.814822 g / cm^3
# Si number density = 18.189619 Si / 1000 Ang^3
#
#
#
# Elastic Constant Matrix: (Units=GPa)
#
#
# Indices 1 2 3 4 5 6 
#
# 1 97.5598 43.5861 43.3605 0.0000 0.0000 0.0000
# 2 43.5861 71.6910 15.9892 0.0000 0.0000 0.0000
# 3 43.3605 15.9892 52.6911 0.0000 0.0000 0.0000
# 4 0.0000 0.0000 0.0000 7.8854 0.0000 0.0000
# 5 0.0000 0.0000 0.0000 0.0000 17.8508 0.0000
# 6 0.0000 0.0000 0.0000 0.0000 0.0000 8.6000
#
#
#
# Elastic Compliance Matrix: (Units=1/GPa)
#
#
# Indices 1 2 3 4 5 6 
#
# 1 0.020822 -0.009479 -0.014259 0.000000 0.000000 0.000000
# 2 -0.009479 0.019277 0.001951 0.000000 0.000000 0.000000
# 3 -0.014259 0.001951 0.030120 0.000000 0.000000 0.000000
# 4 0.000000 0.000000 0.000000 0.126817 0.000000 0.000000
# 5 0.000000 0.000000 0.000000 0.000000 0.056020 0.000000
# 6 0.000000 0.000000 0.000000 0.000000 0.000000 0.116279
#
#
# Mechanical properties :
#
#
# Convention : Reuss Voigt Hill
#
# Bulk Modulus (GPa) = 37.52949 47.53482 42.53215
# Shear Modulus (GPa) = 11.85422 14.80097 13.32760
#
# Velocity S-wave (km/s) = 2.55562 2.85565 2.70979
# Velocity P-wave (km/s) = 5.42083 6.08791 5.76403
#
# Compressibility (1/GPa) = 0.02664571
#
# Stress axis : x y z
#
# Youngs Moduli (GPa) = 48.02521 51.87595 33.20038
#
# Poissons Ratio (x) = 0.49175 0.47339
# Poissons Ratio (y) = 0.45525 -0.06478
# Poissons Ratio (z) = 0.68477 -0.10122
#
# Static dielectric constant tensor:
#      x y z
#    x 1.647940 0.000000 0.000000 
#    y 0.000000 1.621750 0.000000 
#    z 0.000000 0.000000 1.644070 
# 
# From -- ./inp_files/48944.got.cif
#   From: 2010.05.17/outbox.cif.g08.bks.cpg/sg72_25_cif.got.tgz:48944.got - 2010.06.03 17:03:01.
