data_PCOD9525053
_publ_section_title
;
Structure prediction by ZEFSAII (Michael W. Deem and Ramdas Pophale) SiO2 
 PCOD9525053
Probable space group: I B A M
;
_chemical_formula_sum "Si O2"
_cell_formula_units_Z 128
_cell_length_a 12.496387
_cell_length_b 22.250436
_cell_length_c 27.130089
_cell_angle_alpha 90.000000
_cell_angle_beta 90.000000
_cell_angle_gamma 90.000000
_cell_volume 7543.522852
_symmetry_space_group_name_H-M "I B A M"
_symmetry_group_IT_number 72
_symmetry_cell_setting 'orthorhombic'
loop_
_space_group_symop_operation_xyz
x,y,z
-x,-y,z
x,-y,1/2-z
-x,y,1/2-z
-x,-y,-z
x,y,-z
-x,y,1/2+z
x,-y,1/2+z
1/2+x,1/2+y,1/2+z
1/2-x,1/2-y,1/2+z
1/2+x,1/2-y,-z
1/2-x,1/2+y,-z
1/2-x,1/2-y,1/2-z
1/2+x,1/2+y,1/2-z
1/2-x,1/2+y,z
1/2+x,1/2-y,z
loop_
_atom_site_type_symbol
_atom_site_label
_atom_site_fract_x
_atom_site_fract_y
_atom_site_fract_z
Si Si1 0.554201 0.435375 0.864476
Si Si2 0.684117 0.932710 0.306301
Si Si3 0.275201 0.069429 0.194968
Si Si4 0.708664 0.667582 0.129247
Si Si5 0.979291 0.649816 0.304299
Si Si6 0.083333 0.744370 0.624779
Si Si7 0.481357 0.330878 0.193509
Si Si8 0.986019 0.158861 0.941778
O O1 0.500000 0.500000 0.871777
O O2 0.670925 0.432517 0.839481
O O3 0.482348 0.399190 0.824991
O O4 0.547914 0.395658 0.914271
O O5 0.746660 0.925410 0.253989
O O6 0.741201 0.893636 0.348675
O O7 0.566951 0.903518 0.301531
O O8 0.674369 0.003566 0.313995
O O9 0.362679 0.121666 0.187135
O O10 0.802311 0.714245 0.117883
O O11 0.630008 0.693756 0.171835
O O12 0.632140 0.656910 0.082632
O O13 0.011160 0.693364 0.348989
O O14 0.000000 0.679934 0.250000
O O15 0.077666 0.797604 0.665133
O O16 0.036609 0.777907 0.576988
O O17 0.500000 0.325720 0.250000
O O18 0.986126 0.153578 0.000000
#
# Coordination Sequence:
#
# PCOD9525053 Si02
#       8
#    16  16  16  16  16  16  16  16
#     4  10  21  34  50  73 100 129 166 204 245 297
#     4   9  17  29  47  76 108 140 172 191 224 285
#     4  10  17  28  49  75 108 143 166 199 234 265
#     4   9  18  34  51  69  98 132 161 200 251 292
#     4   9  17  29  48  76 108 139 170 196 226 278
#     4   9  19  33  51  73  97 126 165 206 245 294
#     4  10  20  31  46  72 105 138 167 194 225 276
#     4  10  23  40  55  72  91 116 160 214 261 306
#
# _framework density 16.968198999999998
#
# number of rings (size 3 to 8) (size 9 to 14) (size 15 to 20)
#    0.000    2.750    0.000    3.000    0.000    8.000 
#    0.000    0.000    0.000    0.000    0.000    0.000 
#    0.000    7.000    0.000    0.000    0.000    0.000 
#
# Total GULP energy -356298.757279 kJ/mol
# GULP energy per Si atom -5567.168082 kJ/mol
# Density = 1.692958 g / cm^3
# Si number density = 16.968199 Si / 1000 Ang^3
#
#
#
# Elastic Constant Matrix: (Units=GPa)
#
#
# Indices 1 2 3 4 5 6 
#
# 1 76.8640 34.9024 40.5127 0.0000 0.0000 0.0000
# 2 34.9024 92.7203 39.1635 0.0000 0.0000 0.0000
# 3 40.5127 39.1635 118.4084 0.0000 0.0000 0.0000
# 4 0.0000 0.0000 0.0000 16.1325 0.0000 0.0000
# 5 0.0000 0.0000 0.0000 0.0000 13.7592 0.0000
# 6 0.0000 0.0000 0.0000 0.0000 0.0000 22.0992
#
#
#
# Elastic Compliance Matrix: (Units=1/GPa)
#
#
# Indices 1 2 3 4 5 6 
#
# 1 0.017481 -0.004712 -0.004422 0.000000 0.000000 0.000000
# 2 -0.004712 0.013807 -0.002954 0.000000 0.000000 0.000000
# 3 -0.004422 -0.002954 0.010936 0.000000 0.000000 0.000000
# 4 0.000000 0.000000 0.000000 0.061987 0.000000 0.000000
# 5 0.000000 0.000000 0.000000 0.000000 0.072679 0.000000
# 6 0.000000 0.000000 0.000000 0.000000 0.000000 0.045251
#
#
# Mechanical properties :
#
#
# Convention : Reuss Voigt Hill
#
# Bulk Modulus (GPa) = 55.41644 57.46109 56.43876
# Shear Modulus (GPa) = 19.81517 21.95911 20.88714
#
# Velocity S-wave (km/s) = 3.42099 3.60131 3.51231
# Velocity P-wave (km/s) = 6.95228 7.15752 7.05564
#
# Compressibility (1/GPa) = 0.01804519
#
# Stress axis : x y z
#
# Youngs Moduli (GPa) = 57.20635 72.42806 91.44497
#
# Poissons Ratio (x) = 0.34130 0.40440
# Poissons Ratio (y) = 0.26957 0.27016
# Poissons Ratio (z) = 0.25298 0.21398
#
# Static dielectric constant tensor:
#      x y z
#    x 1.615190 0.000000 0.000000 
#    y 0.000000 1.618100 0.000000 
#    z 0.000000 0.000000 1.559090 
# 
# From -- ./inp_files/48339.got.cif
#   From: 2010.05.17/outbox.cif.g08.bks.cpg/sg72_25_cif.got.tgz:48339.got - 2010.06.03 17:03:01.
