data_PCOD9525534
_publ_section_title
;
Structure prediction by ZEFSAII (Michael W. Deem and Ramdas Pophale) SiO2 
 PCOD9525534
Probable space group: I B A M
;
_chemical_formula_sum "Si O2"
_cell_formula_units_Z 96
_cell_length_a 21.573478
_cell_length_b 7.833359
_cell_length_c 26.838183
_cell_angle_alpha 90.000000
_cell_angle_beta 90.000000
_cell_angle_gamma 90.000000
_cell_volume 4535.459640
_symmetry_space_group_name_H-M "I B A M"
_symmetry_group_IT_number 72
_symmetry_cell_setting 'orthorhombic'
loop_
_space_group_symop_operation_xyz
x,y,z
-x,-y,z
x,-y,1/2-z
-x,y,1/2-z
-x,-y,-z
x,y,-z
-x,y,1/2+z
x,-y,1/2+z
1/2+x,1/2+y,1/2+z
1/2-x,1/2-y,1/2+z
1/2+x,1/2-y,-z
1/2-x,1/2+y,-z
1/2-x,1/2-y,1/2-z
1/2+x,1/2+y,1/2-z
1/2-x,1/2+y,z
1/2+x,1/2-y,z
loop_
_atom_site_type_symbol
_atom_site_label
_atom_site_fract_x
_atom_site_fract_y
_atom_site_fract_z
Si Si1 0.923557 0.098142 0.804064
Si Si2 0.346177 0.515997 0.500000
Si Si3 0.650416 0.042189 0.301691
Si Si4 0.346836 0.454795 0.606104
Si Si5 0.791344 0.602827 0.500000
Si Si6 0.472832 0.163684 0.693346
Si Si7 0.213150 0.582079 0.397378
O O1 0.901646 0.390480 0.695332
O O2 0.888798 0.990444 0.846277
O O3 0.882939 0.273696 0.799202
O O4 0.925503 0.000000 0.750000
O O5 0.379316 0.479672 0.552343
O O6 0.284104 0.396141 0.500000
O O7 0.320544 0.709962 0.500000
O O8 0.490700 0.668956 0.323045
O O9 0.691300 0.027267 0.350264
O O10 0.684839 0.000000 0.250000
O O11 0.287692 0.582182 0.604218
O O12 0.316789 0.267504 0.607674
O O13 0.807394 0.503117 0.449380
O O14 0.500000 0.161079 0.750000
O O15 0.500000 0.000000 0.664664
#
# Coordination Sequence:
#
# PCOD9525534 Si02
#       7
#    16   8  16  16   8  16  16
#     4  11  22  36  57  87 116 147 193 237 286 336
#     4  10  18  34  58  81 112 147 196 236 275 335
#     4  11  20  38  58  83 115 151 189 235 287 340
#     4  11  22  37  55  86 116 153 190 236 283 339
#     4  10  18  34  58  81 106 153 192 234 276 335
#     4   9  17  36  58  77 109 145 188 231 275 336
#     4  11  22  37  58  83 118 154 193 233 286 341
#
# _framework density 21.166542
#
# number of rings (size 3 to 8) (size 9 to 14) (size 15 to 20)
#    0.000    1.500    3.333    7.500    0.000    1.000 
#    0.000    3.333    0.000    1.000    0.000    7.000 
#    0.000    1.333    0.000    1.000    0.000    0.667 
#
# Total GULP energy -267689.387970 kJ/mol
# GULP energy per Si atom -5576.862249 kJ/mol
# Density = 2.111837 g / cm^3
# Si number density = 21.166542 Si / 1000 Ang^3
#
#
#
# Elastic Constant Matrix: (Units=GPa)
#
#
# Indices 1 2 3 4 5 6 
#
# 1 40.0387 16.5454 48.9286 0.0000 0.0000 0.0000
# 2 16.5454 143.0361 47.4584 0.0000 0.0000 0.0000
# 3 48.9286 47.4584 174.8180 0.0000 0.0000 0.0000
# 4 0.0000 0.0000 0.0000 33.6776 0.0000 0.0000
# 5 0.0000 0.0000 0.0000 0.0000 -11.2088 0.0000
# 6 0.0000 0.0000 0.0000 0.0000 0.0000 33.5805
#
#
#
# Elastic Compliance Matrix: (Units=1/GPa)
#
#
# Indices 1 2 3 4 5 6 
#
# 1 0.038077 -0.000955 -0.010398 0.000000 0.000000 0.000000
# 2 -0.000955 0.007707 -0.001825 0.000000 0.000000 0.000000
# 3 -0.010398 -0.001825 0.009126 0.000000 0.000000 0.000000
# 4 0.000000 0.000000 0.000000 0.029693 0.000000 0.000000
# 5 0.000000 0.000000 0.000000 0.000000 -0.089215 0.000000
# 6 0.000000 0.000000 0.000000 0.000000 0.000000 0.029779
#
#
# Mechanical properties :
#
#
# Convention : Reuss Voigt Hill
#
# Bulk Modulus (GPa) = 35.02033 64.86194 49.94113
# Shear Modulus (GPa) = 81.91243 27.54055 54.72649
#
# Velocity S-wave (km/s) = 6.22760 3.61104 5.09032
# Velocity P-wave (km/s) = 8.26388 6.93515 7.62850
#
# Compressibility (1/GPa) = 0.02855484
#
# Stress axis : x y z
#
# Youngs Moduli (GPa) = 26.26262 129.74842 109.57790
#
# Poissons Ratio (x) = 0.12385 1.13939
# Poissons Ratio (y) = 0.02507 0.20000
# Poissons Ratio (z) = 0.27308 0.23681
#
# Static dielectric constant tensor:
#      x y z
#    x 1.793680 0.000000 0.000000 
#    y 0.000000 1.911140 0.000000 
#    z 0.000000 0.000000 1.806720 
# 
# From -- ./inp_files/45681.got.cif
#   From: 2010.05.17/outbox.cif.g08.bks.cpg/sg72_23_cif.got.tgz:45681.got - 2010.06.03 17:03:01.
