data_PCOD9525280
_publ_section_title
;
Structure prediction by ZEFSAII (Michael W. Deem and Ramdas Pophale) SiO2 
 PCOD9525280
Probable space group: I B A M
;
_chemical_formula_sum "Si O2"
_cell_formula_units_Z 80
_cell_length_a 28.819878
_cell_length_b 10.096317
_cell_length_c 11.334525
_cell_angle_alpha 90.000000
_cell_angle_beta 90.000000
_cell_angle_gamma 90.000000
_cell_volume 3298.059152
_symmetry_space_group_name_H-M "I B A M"
_symmetry_group_IT_number 72
_symmetry_cell_setting 'orthorhombic'
loop_
_space_group_symop_operation_xyz
x,y,z
-x,-y,z
x,-y,1/2-z
-x,y,1/2-z
-x,-y,-z
x,y,-z
-x,y,1/2+z
x,-y,1/2+z
1/2+x,1/2+y,1/2+z
1/2-x,1/2-y,1/2+z
1/2+x,1/2-y,-z
1/2-x,1/2+y,-z
1/2-x,1/2-y,1/2-z
1/2+x,1/2+y,1/2-z
1/2-x,1/2+y,z
1/2+x,1/2-y,z
loop_
_atom_site_type_symbol
_atom_site_label
_atom_site_fract_x
_atom_site_fract_y
_atom_site_fract_z
Si Si1 0.590909 0.150689 0.752010
Si Si2 0.057819 0.657560 0.000000
Si Si3 0.132388 0.011087 0.625449
Si Si4 0.676825 0.778856 0.372144
Si Si5 0.268547 0.416440 0.131917
Si Si6 0.947678 0.660476 0.000000
O O1 0.578467 0.209338 0.624330
O O2 0.645775 0.150793 0.774520
O O3 0.571003 0.213959 0.873695
O O4 0.572455 0.000000 0.750000
O O5 0.064482 0.497047 0.000000
O O6 0.002784 0.677855 0.000000
O O7 0.107794 0.024407 0.500000
O O8 0.160918 0.872529 0.622721
O O9 0.176176 0.112488 0.632143
O O10 0.106361 0.000000 0.750000
O O11 0.663551 0.839031 0.500000
O O12 0.731484 0.798199 0.362123
O O13 0.259117 0.500000 0.250000
O O14 0.260215 0.476851 0.000000
#
# Coordination Sequence:
#
# PCOD9525280 Si02
#       6
#    16   8  16  16  16   8
#     4  10  18  30  47  71 103 136 165 198 236 287
#     4   9  18  28  46  74 101 129 171 196 228 284
#     4   9  19  35  52  69  92 123 164 208 254 301
#     4  10  19  33  50  68  97 133 164 202 255 299
#     4   9  18  32  48  67  91 123 163 204 245 290
#     4   9  16  30  48  68 101 141 159 190 240 292
#
# _framework density 24.256691
#
# number of rings (size 3 to 8) (size 9 to 14) (size 15 to 20)
#    0.000    2.600    1.000    1.200    0.000    5.600 
#    3.600    2.000    0.000    0.000    0.000    0.000 
#    0.000    4.800    0.000    0.000    0.000    0.000 
#
# Total GULP energy -222919.416493 kJ/mol
# GULP energy per Si atom -5572.985412 kJ/mol
# Density = 2.420148 g / cm^3
# Si number density = 24.256691 Si / 1000 Ang^3
#
#
#
# Elastic Constant Matrix: (Units=GPa)
#
#
# Indices 1 2 3 4 5 6 
#
# 1 56.4993 5.7200 44.0219 0.0000 0.0000 0.0000
# 2 5.7200 38.1108 27.8140 0.0000 0.0000 0.0000
# 3 44.0219 27.8140 294.7486 0.0000 0.0000 0.0000
# 4 0.0000 0.0000 0.0000 25.0600 0.0000 0.0000
# 5 0.0000 0.0000 0.0000 0.0000 35.5578 0.0000
# 6 0.0000 0.0000 0.0000 0.0000 0.0000 7.2611
#
#
#
# Elastic Compliance Matrix: (Units=1/GPa)
#
#
# Indices 1 2 3 4 5 6 
#
# 1 0.020058 -0.000885 -0.002912 0.000000 0.000000 0.000000
# 2 -0.000885 0.028219 -0.002531 0.000000 0.000000 0.000000
# 3 -0.002912 -0.002531 0.004066 0.000000 0.000000 0.000000
# 4 0.000000 0.000000 0.000000 0.039904 0.000000 0.000000
# 5 0.000000 0.000000 0.000000 0.000000 0.028123 0.000000
# 6 0.000000 0.000000 0.000000 0.000000 0.000000 0.137720
#
#
# Mechanical properties :
#
#
# Convention : Reuss Voigt Hill
#
# Bulk Modulus (GPa) = 25.19679 60.49673 42.84676
# Shear Modulus (GPa) = 17.60712 34.36264 25.98488
#
# Velocity S-wave (km/s) = 2.69711 3.76789 3.27654
# Velocity P-wave (km/s) = 4.48434 6.62750 5.65831
#
# Compressibility (1/GPa) = 0.03968760
#
# Stress axis : x y z
#
# Youngs Moduli (GPa) = 49.85533 35.43696 245.91248
#
# Poissons Ratio (x) = 0.03136 0.71615
# Poissons Ratio (y) = 0.04413 0.62233
# Poissons Ratio (z) = 0.14519 0.08968
#
# Static dielectric constant tensor:
#      x y z
#    x 1.907620 0.000000 0.000000 
#    y 0.000000 2.007860 0.000000 
#    z 0.000000 0.000000 2.072890 
# 
# From -- ./inp_files/11682.got.cif
#   From: 2010.05.17/outbox.cif.g08.bks.cpg/sg72_6_cif.got.tgz:11682.got - 2010.06.03 17:03:01.
