data_PCOD9525577
_publ_section_title
;
Structure prediction by ZEFSAII (Michael W. Deem and Ramdas Pophale) SiO2 
 PCOD9525577
Probable space group: I B A M
;
_chemical_formula_sum "Si O2"
_cell_formula_units_Z 68
_cell_length_a 5.212883
_cell_length_b 25.184762
_cell_length_c 19.677491
_cell_angle_alpha 90.000000
_cell_angle_beta 90.000000
_cell_angle_gamma 90.000000
_cell_volume 2583.363690
_symmetry_space_group_name_H-M "I B A M"
_symmetry_group_IT_number 72
_symmetry_cell_setting 'orthorhombic'
loop_
_space_group_symop_operation_xyz
x,y,z
-x,-y,z
x,-y,1/2-z
-x,y,1/2-z
-x,-y,-z
x,y,-z
-x,y,1/2+z
x,-y,1/2+z
1/2+x,1/2+y,1/2+z
1/2-x,1/2-y,1/2+z
1/2+x,1/2-y,-z
1/2-x,1/2+y,-z
1/2-x,1/2-y,1/2-z
1/2+x,1/2+y,1/2-z
1/2-x,1/2+y,z
1/2+x,1/2-y,z
loop_
_atom_site_type_symbol
_atom_site_label
_atom_site_fract_x
_atom_site_fract_y
_atom_site_fract_z
Si Si1 0.000000 0.000000 0.106917
Si Si2 0.000000 0.500000 0.750000
Si Si3 0.500000 0.829021 0.250000
Si Si4 0.840741 0.088593 0.186377
Si Si5 0.306829 0.941664 0.000000
Si Si6 0.698233 0.368494 0.000000
Si Si7 0.787555 0.715378 0.379645
O O1 0.052831 0.057823 0.141040
O O2 0.762212 0.020018 0.062110
O O3 0.177260 0.536726 0.704949
O O4 0.365359 0.864096 0.188549
O O5 0.699713 0.798397 0.201215
O O6 0.000000 0.106514 0.250000
O O7 0.574410 0.911905 0.000000
O O8 0.081486 0.896402 0.000000
O O9 0.732950 0.332535 0.067784
O O10 0.559527 0.756913 0.393363
#
# Coordination Sequence:
#
# PCOD9525577 Si02
#       7
#     8   4   8  16   8   8  16
#     4  11  23  44  64 102 143 195 238 284 348 401
#     4  10  18  36  56 100 116 196 226 276 318 400
#     4  11  28  41  72 106 142 184 236 297 360 421
#     4  11  22  38  63  93 141 186 230 277 334 420
#     4  11  28  43  74 101 146 185 240 301 332 421
#     4  12  26  52  74 109 136 191 240 294 366 428
#     4  12  27  49  78 105 141 181 235 303 372 439
#
# _framework density 26.32227
#
# number of rings (size 3 to 8) (size 9 to 14) (size 15 to 20)
#    0.000    0.706    2.353    4.235    6.588    3.765 
#    0.000    0.000    0.000    0.000    0.000    0.000 
#    0.000    0.000    0.000    0.000    0.000    0.000 
#
# Total GULP energy -189624.980574 kJ/mol
# GULP energy per Si atom -5577.205311 kJ/mol
# Density = 2.626236 g / cm^3
# Si number density = 26.322270 Si / 1000 Ang^3
#
#
#
# Elastic Constant Matrix: (Units=GPa)
#
#
# Indices 1 2 3 4 5 6 
#
# 1 93.4125 47.4897 -4.4851 0.0000 0.0000 0.0000
# 2 47.4897 126.2592 46.9964 0.0000 0.0000 0.0000
# 3 -4.4851 46.9964 102.8168 0.0000 0.0000 0.0000
# 4 0.0000 0.0000 0.0000 -75.8548 0.0000 0.0000
# 5 0.0000 0.0000 0.0000 0.0000 28.2497 0.0000
# 6 0.0000 0.0000 0.0000 0.0000 0.0000 217.3943
#
#
#
# Elastic Compliance Matrix: (Units=1/GPa)
#
#
# Indices 1 2 3 4 5 6 
#
# 1 0.014328 -0.006774 0.003721 0.000000 0.000000 0.000000
# 2 -0.006774 0.012747 -0.006122 0.000000 0.000000 0.000000
# 3 0.003721 -0.006122 0.012687 0.000000 0.000000 0.000000
# 4 0.000000 0.000000 0.000000 -0.013183 0.000000 0.000000
# 5 0.000000 0.000000 0.000000 0.000000 0.035399 0.000000
# 6 0.000000 0.000000 0.000000 0.000000 0.000000 0.004600
#
#
# Mechanical properties :
#
#
# Convention : Reuss Voigt Hill
#
# Bulk Modulus (GPa) = 46.70321 55.83229 51.26775
# Shear Modulus (GPa) = 54.31002 49.45699 51.88350
#
# Velocity S-wave (km/s) = 4.54725 4.33933 4.44451
# Velocity P-wave (km/s) = 6.73434 6.80908 6.77181
#
# Compressibility (1/GPa) = 0.02141180
#
# Stress axis : x y z
#
# Youngs Moduli (GPa) = 69.79399 78.44989 78.82280
#
# Poissons Ratio (x) = 0.53145 -0.29334
# Poissons Ratio (y) = 0.47281 0.48255
# Poissons Ratio (z) = -0.25974 0.48027
#
# Static dielectric constant tensor:
#      x y z
#    x 2.501130 0.000000 0.000000 
#    y 0.000000 2.104040 0.000000 
#    z 0.000000 0.000000 2.065190 
# 
# From -- ./inp_files/34872.got.cif
#   From: 2010.05.17/outbox.cif.g08.bks.cpg/sg72_18_cif.got.tgz:34872.got - 2010.06.03 17:03:01.
