data_PCOD9525452
_publ_section_title
;
Structure prediction by ZEFSAII (Michael W. Deem and Ramdas Pophale) SiO2 
 PCOD9525452
Probable space group: I B A M
;
_chemical_formula_sum "Si O2"
_cell_formula_units_Z 128
_cell_length_a 19.800713
_cell_length_b 19.260076
_cell_length_c 18.380148
_cell_angle_alpha 90.000000
_cell_angle_beta 90.000000
_cell_angle_gamma 90.000000
_cell_volume 7009.512742
_symmetry_space_group_name_H-M "I B A M"
_symmetry_group_IT_number 72
_symmetry_cell_setting 'orthorhombic'
loop_
_space_group_symop_operation_xyz
x,y,z
-x,-y,z
x,-y,1/2-z
-x,y,1/2-z
-x,-y,-z
x,y,-z
-x,y,1/2+z
x,-y,1/2+z
1/2+x,1/2+y,1/2+z
1/2-x,1/2-y,1/2+z
1/2+x,1/2-y,-z
1/2-x,1/2+y,-z
1/2-x,1/2-y,1/2-z
1/2+x,1/2+y,1/2-z
1/2-x,1/2+y,z
1/2+x,1/2-y,z
loop_
_atom_site_type_symbol
_atom_site_label
_atom_site_fract_x
_atom_site_fract_y
_atom_site_fract_z
Si Si1 0.776674 0.811906 0.168318
Si Si2 0.972892 0.332312 0.083434
Si Si3 0.783439 0.900095 0.586451
Si Si4 0.113583 0.474117 0.416595
Si Si5 0.149980 0.758268 0.913176
Si Si6 0.727049 0.552330 0.413821
Si Si7 0.312546 0.835021 0.803687
Si Si8 0.058999 0.590772 0.307711
O O1 0.710988 0.782224 0.125475
O O2 0.800078 0.880726 0.127766
O O3 0.749000 0.832935 0.247120
O O4 0.825314 0.745508 0.176549
O O5 0.928245 0.402832 0.083882
O O6 0.922358 0.271787 0.108693
O O7 0.033282 0.349778 0.137087
O O8 0.994185 0.319513 0.000000
O O9 0.771137 0.902348 0.500000
O O10 0.837567 0.839562 0.600446
O O11 0.715102 0.875821 0.626254
O O12 0.802574 0.977781 0.609240
O O13 0.108702 0.502548 0.500000
O O14 0.191917 0.456399 0.401890
O O15 0.081768 0.525759 0.357187
O O16 0.155909 0.745676 0.000000
O O17 0.717275 0.562129 0.500000
O O18 0.374764 0.876913 0.770557
O O19 0.000000 0.577261 0.250000
#
# Coordination Sequence:
#
# PCOD9525452 Si02
#       8
#    16  16  16  16  16  16  16  16
#     4  10  19  34  52  71  99 129 164 211 262 310
#     4  10  20  34  49  66  96 140 177 204 240 294
#     4   9  18  32  51  74 100 127 163 209 259 309
#     4  10  20  35  49  69 104 140 172 207 246 296
#     4   9  16  30  51  71  92 130 174 208 246 303
#     4  10  18  32  55  79 102 131 163 204 258 315
#     4  10  22  36  49  70 100 132 168 213 258 292
#     4  12  24  35  47  70 100 141 178 213 243 293
#
# _framework density 18.260898999999998
#
# number of rings (size 3 to 8) (size 9 to 14) (size 15 to 20)
#    0.000    2.000    2.500    1.875    0.000    3.500 
#    0.000    0.000    0.000    0.000    0.000    0.875 
#    0.000    5.000    0.000    0.000    0.000    0.000 
#
# Total GULP energy -357196.752494 kJ/mol
# GULP energy per Si atom -5581.199258 kJ/mol
# Density = 1.821934 g / cm^3
# Si number density = 18.260899 Si / 1000 Ang^3
#
#
#
# Elastic Constant Matrix: (Units=GPa)
#
#
# Indices 1 2 3 4 5 6 
#
# 1 21.5890 13.0085 6.9270 0.0000 0.0000 0.0000
# 2 13.0085 124.2649 34.9895 0.0000 0.0000 0.0000
# 3 6.9270 34.9895 46.0825 0.0000 0.0000 0.0000
# 4 0.0000 0.0000 0.0000 21.6089 0.0000 0.0000
# 5 0.0000 0.0000 0.0000 0.0000 19.3267 0.0000
# 6 0.0000 0.0000 0.0000 0.0000 0.0000 18.1179
#
#
#
# Elastic Compliance Matrix: (Units=1/GPa)
#
#
# Indices 1 2 3 4 5 6 
#
# 1 0.050168 -0.003979 -0.004520 0.000000 0.000000 0.000000
# 2 -0.003979 0.010551 -0.007413 0.000000 0.000000 0.000000
# 3 -0.004520 -0.007413 0.028008 0.000000 0.000000 0.000000
# 4 0.000000 0.000000 0.000000 0.046277 0.000000 0.000000
# 5 0.000000 0.000000 0.000000 0.000000 0.051742 0.000000
# 6 0.000000 0.000000 0.000000 0.000000 0.000000 0.055194
#
#
# Mechanical properties :
#
#
# Convention : Reuss Voigt Hill
#
# Bulk Modulus (GPa) = 17.57374 33.53181 25.55277
# Shear Modulus (GPa) = 17.08045 20.94480 19.01262
#
# Velocity S-wave (km/s) = 3.06168 3.39038 3.23021
# Velocity P-wave (km/s) = 4.70564 5.80764 5.28544
#
# Compressibility (1/GPa) = 0.05690308
#
# Stress axis : x y z
#
# Youngs Moduli (GPa) = 19.93313 94.77572 35.70365
#
# Poissons Ratio (x) = 0.37712 0.16137
# Poissons Ratio (y) = 0.07932 0.26468
# Poissons Ratio (z) = 0.09009 0.70259
#
# Static dielectric constant tensor:
#      x y z
#    x 1.619110 0.000000 0.000000 
#    y 0.000000 1.654830 0.000000 
#    z 0.000000 0.000000 1.670350 
# 
# From -- ./inp_files/32086.got.cif
#   From: 2010.05.17/outbox.cif.g08.bks.cpg/sg72_17_cif.got.tgz:32086.got - 2010.06.03 17:03:01.
