data_PCOD9525565
_publ_section_title
;
Structure prediction by ZEFSAII (Michael W. Deem and Ramdas Pophale) SiO2 
 PCOD9525565
Probable space group: I B A M
;
_chemical_formula_sum "Si O2"
_cell_formula_units_Z 120
_cell_length_a 18.399676
_cell_length_b 11.550502
_cell_length_c 25.212867
_cell_angle_alpha 90.000000
_cell_angle_beta 90.000000
_cell_angle_gamma 90.000000
_cell_volume 5358.377025
_symmetry_space_group_name_H-M "I B A M"
_symmetry_group_IT_number 72
_symmetry_cell_setting 'orthorhombic'
loop_
_space_group_symop_operation_xyz
x,y,z
-x,-y,z
x,-y,1/2-z
-x,y,1/2-z
-x,-y,-z
x,y,-z
-x,y,1/2+z
x,-y,1/2+z
1/2+x,1/2+y,1/2+z
1/2-x,1/2-y,1/2+z
1/2+x,1/2-y,-z
1/2-x,1/2+y,-z
1/2-x,1/2-y,1/2-z
1/2+x,1/2+y,1/2-z
1/2-x,1/2+y,z
1/2+x,1/2-y,z
loop_
_atom_site_type_symbol
_atom_site_label
_atom_site_fract_x
_atom_site_fract_y
_atom_site_fract_z
Si Si1 0.446848 0.911994 0.598789
Si Si2 0.975056 0.821966 0.660504
Si Si3 0.635992 0.458804 0.405945
Si Si4 0.762471 0.086127 0.678251
Si Si5 0.109481 0.808360 0.729791
Si Si6 0.798930 0.711820 0.418400
Si Si7 0.383149 0.952832 0.197019
Si Si8 0.177773 0.114112 0.000000
O O1 0.481623 0.797740 0.626794
O O2 0.372491 0.864155 0.572336
O O3 0.500000 0.000000 0.567123
O O4 0.421259 0.997269 0.645643
O O5 0.936881 0.910004 0.620560
O O6 0.921083 0.800474 0.710764
O O7 0.048192 0.862103 0.690527
O O8 0.685050 0.515199 0.360434
O O9 0.679710 0.345037 0.426630
O O10 0.629868 0.549980 0.453084
O O11 0.813392 0.130505 0.725205
O O12 0.726382 0.188092 0.642369
O O13 0.696497 0.006586 0.694572
O O14 0.119197 0.682782 0.704269
O O15 0.733189 0.669382 0.454542
O O16 0.420102 0.000000 0.250000
#
# Coordination Sequence:
#
# PCOD9525565 Si02
#       8
#    16  16  16  16  16  16  16   8
#     4  10  18  35  58  89 124 165 214 275 327 375
#     4  10  22  36  59  89 125 179 220 264 317 392
#     4  10  21  40  62  89 123 163 206 265 329 399
#     4  10  23  36  55  87 124 168 206 264 320 389
#     4  11  22  37  56  88 131 175 225 259 317 390
#     4   9  20  38  61  93 115 157 210 260 332 392
#     4  11  21  32  56  84 122 169 223 274 320 373
#     4  10  20  40  69  91 119 157 203 267 342 393
#
# _framework density 22.394839000000001
#
# number of rings (size 3 to 8) (size 9 to 14) (size 15 to 20)
#    0.000    1.867    2.667    1.200    1.867    1.333 
#    0.000    1.667    0.000    6.400    0.000    0.000 
#    0.000    0.000    0.000    0.000    0.000    0.000 
#
# Total GULP energy -334200.432497 kJ/mol
# GULP energy per Si atom -5570.007208 kJ/mol
# Density = 2.234387 g / cm^3
# Si number density = 22.394839 Si / 1000 Ang^3
#
#
#
# Elastic Constant Matrix: (Units=GPa)
#
#
# Indices 1 2 3 4 5 6 
#
# 1 84.7390 13.4930 2.6075 0.0000 0.0000 0.0000
# 2 13.4930 46.0268 -2.8473 0.0000 0.0000 0.0000
# 3 2.6075 -2.8473 54.9573 0.0000 0.0000 0.0000
# 4 0.0000 0.0000 0.0000 18.4651 0.0000 0.0000
# 5 0.0000 0.0000 0.0000 0.0000 18.8835 0.0000
# 6 0.0000 0.0000 0.0000 0.0000 0.0000 39.9919
#
#
#
# Elastic Compliance Matrix: (Units=1/GPa)
#
#
# Indices 1 2 3 4 5 6 
#
# 1 0.012412 -0.003687 -0.000780 0.000000 0.000000 0.000000
# 2 -0.003687 0.022892 0.001361 0.000000 0.000000 0.000000
# 3 -0.000780 0.001361 0.018303 0.000000 0.000000 0.000000
# 4 0.000000 0.000000 0.000000 0.054156 0.000000 0.000000
# 5 0.000000 0.000000 0.000000 0.000000 0.052956 0.000000
# 6 0.000000 0.000000 0.000000 0.000000 0.000000 0.025005
#
#
# Mechanical properties :
#
#
# Convention : Reuss Voigt Hill
#
# Bulk Modulus (GPa) = 21.09917 23.58105 22.34011
# Shear Modulus (GPa) = 24.06916 26.96609 25.51763
#
# Velocity S-wave (km/s) = 3.28192 3.47381 3.37922
# Velocity P-wave (km/s) = 4.87885 5.16162 5.02223
#
# Compressibility (1/GPa) = 0.04739522
#
# Stress axis : x y z
#
# Youngs Moduli (GPa) = 80.56715 43.68433 54.63445
#
# Poissons Ratio (x) = 0.16106 0.04261
# Poissons Ratio (y) = 0.29704 -0.07435
# Poissons Ratio (z) = 0.06284 -0.05945
#
# Static dielectric constant tensor:
#      x y z
#    x 1.895880 0.000000 0.000000 
#    y 0.000000 1.912660 0.000000 
#    z 0.000000 0.000000 1.808880 
# 
# From -- ./inp_files/45469.got.cif
#   From: 2010.05.17/outbox.cif.g08.bks.cpg/sg72_23_cif.got.tgz:45469.got - 2010.06.03 17:03:01.
