data_PCOD9525969
_publ_section_title
;
Structure prediction by ZEFSAII (Michael W. Deem and Ramdas Pophale) SiO2 
 PCOD9525969
Probable space group: I B A M
;
_chemical_formula_sum "Si O2"
_cell_formula_units_Z 84
_cell_length_a 24.606027
_cell_length_b 24.143547
_cell_length_c 9.318262
_cell_angle_alpha 90.000000
_cell_angle_beta 90.000000
_cell_angle_gamma 90.000000
_cell_volume 5535.762985
_symmetry_space_group_name_H-M "I B A M"
_symmetry_group_IT_number 72
_symmetry_cell_setting 'orthorhombic'
loop_
_space_group_symop_operation_xyz
x,y,z
-x,-y,z
x,-y,1/2-z
-x,y,1/2-z
-x,-y,-z
x,y,-z
-x,y,1/2+z
x,-y,1/2+z
1/2+x,1/2+y,1/2+z
1/2-x,1/2-y,1/2+z
1/2+x,1/2-y,-z
1/2-x,1/2+y,-z
1/2-x,1/2-y,1/2-z
1/2+x,1/2+y,1/2-z
1/2-x,1/2+y,z
1/2+x,1/2-y,z
loop_
_atom_site_type_symbol
_atom_site_label
_atom_site_fract_x
_atom_site_fract_y
_atom_site_fract_z
Si Si1 0.756071 0.338452 0.669236
Si Si2 0.207826 0.057289 0.829591
Si Si3 0.000000 0.000000 0.250000
Si Si4 0.554349 0.298559 0.670811
Si Si5 0.832788 0.258562 0.831372
Si Si6 0.417226 0.407985 0.660825
O O1 0.761996 0.349674 0.500000
O O2 0.741153 0.393068 0.757236
O O3 0.807987 0.306796 0.734181
O O4 0.706039 0.295136 0.686985
O O5 0.143570 0.070611 0.810493
O O6 0.219843 0.000000 0.750000
O O7 0.217961 0.053770 0.000000
O O8 0.040438 0.041411 0.167368
O O9 0.500000 0.279545 0.750000
O O10 0.546978 0.299977 0.500000
O O11 0.606388 0.260457 0.703713
O O12 0.567070 0.360456 0.727442
O O13 0.829871 0.273972 0.000000
O O14 0.418459 0.383798 0.500000
#
# Coordination Sequence:
#
# PCOD9525969 Si02
#       6
#    16  16   4  16  16  16
#     4  10  19  33  53  75  97 127 166 209 256 307
#     4  11  22  35  50  71  99 131 168 211 256 303
#     4  12  22  36  48  66  90 132 182 220 254 280
#     4  11  22  35  51  71  99 129 166 209 253 299
#     4   9  19  34  51  73  99 129 162 207 257 306
#     4  11  23  34  47  66  92 128 172 216 255 291
#
# _framework density 15.174061
#
# number of rings (size 3 to 8) (size 9 to 14) (size 15 to 20)
#    0.000    1.524    3.810    2.000    0.000    3.810 
#    0.000    0.000    0.000    0.000    0.000    0.000 
#    0.000    0.762    0.000    8.000    0.000    4.381 
#
# Total GULP energy -234463.456079 kJ/mol
# GULP energy per Si atom -5582.463240 kJ/mol
# Density = 1.513952 g / cm^3
# Si number density = 15.174061 Si / 1000 Ang^3
#
#
#
# Elastic Constant Matrix: (Units=GPa)
#
#
# Indices 1 2 3 4 5 6 
#
# 1 97.9906 61.9924 67.7598 0.0000 0.0000 0.0000
# 2 61.9924 89.7110 70.0158 0.0000 0.0000 0.0000
# 3 67.7598 70.0158 107.2620 0.0000 0.0000 0.0000
# 4 0.0000 0.0000 0.0000 22.7226 0.0000 0.0000
# 5 0.0000 0.0000 0.0000 0.0000 22.7387 0.0000
# 6 0.0000 0.0000 0.0000 0.0000 0.0000 25.7944
#
#
#
# Elastic Compliance Matrix: (Units=1/GPa)
#
#
# Indices 1 2 3 4 5 6 
#
# 1 0.020826 -0.008406 -0.007670 0.000000 0.000000 0.000000
# 2 -0.008406 0.026116 -0.011737 0.000000 0.000000 0.000000
# 3 -0.007670 -0.011737 0.021830 0.000000 0.000000 0.000000
# 4 0.000000 0.000000 0.000000 0.044009 0.000000 0.000000
# 5 0.000000 0.000000 0.000000 0.000000 0.043978 0.000000
# 6 0.000000 0.000000 0.000000 0.000000 0.000000 0.038768
#
#
# Mechanical properties :
#
#
# Convention : Reuss Voigt Hill
#
# Bulk Modulus (GPa) = 76.06442 77.16662 76.61552
# Shear Modulus (GPa) = 19.56688 20.59750 20.08219
#
# Velocity S-wave (km/s) = 3.59485 3.68831 3.64188
# Velocity P-wave (km/s) = 8.21385 8.31281 8.26348
#
# Compressibility (1/GPa) = 0.01314675
#
# Stress axis : x y z
#
# Youngs Moduli (GPa) = 48.01634 38.29095 45.80952
#
# Poissons Ratio (x) = 0.32186 0.35134
# Poissons Ratio (y) = 0.40361 0.53768
# Poissons Ratio (z) = 0.36826 0.44943
#
# Static dielectric constant tensor:
#      x y z
#    x 1.497850 0.000000 0.000000 
#    y 0.000000 1.476590 0.000000 
#    z 0.000000 0.000000 1.513690 
# 
# From -- ./inp_files/6937.got.cif
#   From: 2010.05.17/outbox.cif.g08.bks.cpg/sg72_4_cif.got.tgz:6937.got - 2010.06.03 17:03:01.
