data_PCOD9525469
_publ_section_title
;
Structure prediction by ZEFSAII (Michael W. Deem and Ramdas Pophale) SiO2 
 PCOD9525469
Probable space group: I B A M
;
_chemical_formula_sum "Si O2"
_cell_formula_units_Z 64
_cell_length_a 24.838502
_cell_length_b 14.355810
_cell_length_c 8.626887
_cell_angle_alpha 90.000000
_cell_angle_beta 90.000000
_cell_angle_gamma 90.000000
_cell_volume 3076.147893
_symmetry_space_group_name_H-M "I B A M"
_symmetry_group_IT_number 72
_symmetry_cell_setting 'orthorhombic'
loop_
_space_group_symop_operation_xyz
x,y,z
-x,-y,z
x,-y,1/2-z
-x,y,1/2-z
-x,-y,-z
x,y,-z
-x,y,1/2+z
x,-y,1/2+z
1/2+x,1/2+y,1/2+z
1/2-x,1/2-y,1/2+z
1/2+x,1/2-y,-z
1/2-x,1/2+y,-z
1/2-x,1/2-y,1/2-z
1/2+x,1/2+y,1/2-z
1/2-x,1/2+y,z
1/2+x,1/2-y,z
loop_
_atom_site_type_symbol
_atom_site_label
_atom_site_fract_x
_atom_site_fract_y
_atom_site_fract_z
Si Si1 0.443616 0.774911 0.314428
Si Si2 0.386067 0.395957 0.684663
Si Si3 0.660870 0.895058 0.814149
Si Si4 0.772396 0.106172 0.185394
O O1 0.500000 0.811711 0.250000
O O2 0.445613 0.768106 0.500000
O O3 0.431744 0.674049 0.241574
O O4 0.392730 0.839124 0.271470
O O5 0.393885 0.500000 0.750000
O O6 0.383056 0.399812 0.500000
O O7 0.329234 0.357754 0.751722
O O8 0.716422 0.852732 0.747251
O O9 0.656084 0.000000 0.750000
O O10 0.665689 0.897551 0.000000
O O11 0.771564 0.000000 0.250000
O O12 0.772910 0.106589 0.000000
#
# Coordination Sequence:
#
# PCOD9525469 Si02
#       4
#    16  16  16  16
#     4  11  25  43  61  85 116 153 200 247 290 342
#     4  11  22  39  63  89 120 155 192 238 292 348
#     4  10  21  38  61  88 120 155 193 239 291 347
#     4  10  18  32  57  88 121 153 190 235 287 348
#
# _framework density 20.805242
#
# number of rings (size 3 to 8) (size 9 to 14) (size 15 to 20)
#    0.000    1.500    0.000    9.000    0.000    6.000 
#    0.000    5.000    0.000    0.000    0.000    0.000 
#    0.000    0.000    0.000    0.000    0.000    0.000 
#
# Total GULP energy -178956.825537 kJ/mol
# GULP energy per Si atom -5592.400798 kJ/mol
# Density = 2.075789 g / cm^3
# Si number density = 20.805242 Si / 1000 Ang^3
#
#
#
# Elastic Constant Matrix: (Units=GPa)
#
#
# Indices 1 2 3 4 5 6 
#
# 1 111.4125 10.4348 34.2711 0.0000 0.0000 0.0000
# 2 10.4348 48.1564 6.6346 0.0000 0.0000 0.0000
# 3 34.2711 6.6346 114.3515 0.0000 0.0000 0.0000
# 4 0.0000 0.0000 0.0000 19.2024 0.0000 0.0000
# 5 0.0000 0.0000 0.0000 0.0000 39.8229 0.0000
# 6 0.0000 0.0000 0.0000 0.0000 0.0000 29.9542
#
#
#
# Elastic Compliance Matrix: (Units=1/GPa)
#
#
# Indices 1 2 3 4 5 6 
#
# 1 0.010035 -0.001774 -0.002905 0.000000 0.000000 0.000000
# 2 -0.001774 0.021247 -0.000701 0.000000 0.000000 0.000000
# 3 -0.002905 -0.000701 0.009656 0.000000 0.000000 0.000000
# 4 0.000000 0.000000 0.000000 0.052077 0.000000 0.000000
# 5 0.000000 0.000000 0.000000 0.000000 0.025111 0.000000
# 6 0.000000 0.000000 0.000000 0.000000 0.000000 0.033384
#
#
# Mechanical properties :
#
#
# Convention : Reuss Voigt Hill
#
# Bulk Modulus (GPa) = 33.13634 41.84460 37.49047
# Shear Modulus (GPa) = 29.01414 32.63456 30.82435
#
# Velocity S-wave (km/s) = 3.73843 3.96482 3.85329
# Velocity P-wave (km/s) = 5.88183 6.41217 6.15272
#
# Compressibility (1/GPa) = 0.03017835
#
# Stress axis : x y z
#
# Youngs Moduli (GPa) = 99.64805 47.06607 103.56087
#
# Poissons Ratio (x) = 0.08351 0.30081
# Poissons Ratio (y) = 0.17681 0.07259
# Poissons Ratio (z) = 0.28944 0.03299
#
# Static dielectric constant tensor:
#      x y z
#    x 1.772410 0.000000 0.000000 
#    y 0.000000 1.695970 0.000000 
#    z 0.000000 0.000000 1.693250 
# 
# From -- ./inp_files/3430.got.cif
#   From: 2010.05.17/outbox.cif.g08.bks.cpg/sg72_2_cif.got.tgz:3430.got - 2010.06.03 17:03:01.
