data_PCOD9525809
_publ_section_title
;
Structure prediction by ZEFSAII (Michael W. Deem and Ramdas Pophale) SiO2 
 PCOD9525809
Probable space group: I B A M
;
_chemical_formula_sum "Si O2"
_cell_formula_units_Z 112
_cell_length_a 32.811505
_cell_length_b 11.170953
_cell_length_c 15.732967
_cell_angle_alpha 90.000000
_cell_angle_beta 90.000000
_cell_angle_gamma 90.000000
_cell_volume 5766.695334
_symmetry_space_group_name_H-M "I B A M"
_symmetry_group_IT_number 72
_symmetry_cell_setting 'orthorhombic'
loop_
_space_group_symop_operation_xyz
x,y,z
-x,-y,z
x,-y,1/2-z
-x,y,1/2-z
-x,-y,-z
x,y,-z
-x,y,1/2+z
x,-y,1/2+z
1/2+x,1/2+y,1/2+z
1/2-x,1/2-y,1/2+z
1/2+x,1/2-y,-z
1/2-x,1/2+y,-z
1/2-x,1/2-y,1/2-z
1/2+x,1/2+y,1/2-z
1/2-x,1/2+y,z
1/2+x,1/2-y,z
loop_
_atom_site_type_symbol
_atom_site_label
_atom_site_fract_x
_atom_site_fract_y
_atom_site_fract_z
Si Si1 0.638491 0.676682 0.897912
Si Si2 0.623541 0.944741 0.896258
Si Si3 0.958843 0.431656 0.603964
Si Si4 0.987597 0.820144 0.097303
Si Si5 0.061532 0.041935 0.654603
Si Si6 0.215781 0.510204 0.103822
Si Si7 0.730691 0.716776 0.896247
O O1 0.621590 0.806056 0.871097
O O2 0.607037 0.577065 0.868782
O O3 0.685444 0.672840 0.870527
O O4 0.638945 0.674378 0.000000
O O5 0.668164 0.991953 0.870371
O O6 0.583634 0.013408 0.865649
O O7 0.623485 0.948455 0.000000
O O8 0.957390 0.436349 0.500000
O O9 0.964333 0.294913 0.630893
O O10 0.000000 0.500000 0.629737
O O11 0.029563 0.850201 0.143720
O O12 0.958042 0.934364 0.100680
O O13 0.999363 0.795990 0.000000
O O14 0.059632 0.000000 0.750000
O O15 0.238368 0.388198 0.132051
O O16 0.234031 0.641870 0.129581
O O17 0.217075 0.510669 0.000000
O O18 0.732342 0.718867 0.000000
#
# Coordination Sequence:
#
# PCOD9525809 Si02
#       7
#    16  16  16  16  16  16  16
#     4   9  16  29  49  70  93 124 164 199 238 292
#     4   8  14  25  43  67  96 127 159 198 246 292
#     4   9  16  26  43  69  96 121 152 190 233 285
#     4  10  19  32  50  70  95 122 156 194 238 286
#     4  11  21  33  48  66  93 128 160 199 238 282
#     4   8  13  23  37  60  96 130 157 195 249 296
#     4   8  14  24  40  64  94 126 159 197 246 299
#
# _framework density 19.421869000000001
#
# number of rings (size 3 to 8) (size 9 to 14) (size 15 to 20)
#    0.000    3.000    0.000    5.143    0.000    2.286 
#    2.571    0.000    0.000    6.000    0.000    4.000 
#    0.000    0.000    0.000    0.000    0.000    0.000 
#
# Total GULP energy -311994.248041 kJ/mol
# GULP energy per Si atom -5571.325858 kJ/mol
# Density = 1.937766 g / cm^3
# Si number density = 19.421869 Si / 1000 Ang^3
#
#
#
# Elastic Constant Matrix: (Units=GPa)
#
#
# Indices 1 2 3 4 5 6 
#
# 1 119.7536 77.9378 10.3933 0.0000 0.0000 0.0000
# 2 77.9378 92.2344 10.2114 0.0000 0.0000 0.0000
# 3 10.3933 10.2114 15.9692 0.0000 0.0000 0.0000
# 4 0.0000 0.0000 0.0000 -11.4711 0.0000 0.0000
# 5 0.0000 0.0000 0.0000 0.0000 -9.8931 0.0000
# 6 0.0000 0.0000 0.0000 0.0000 0.0000 41.4292
#
#
#
# Elastic Compliance Matrix: (Units=1/GPa)
#
#
# Indices 1 2 3 4 5 6 
#
# 1 0.018627 -0.015494 -0.002215 0.000000 0.000000 0.000000
# 2 -0.015494 0.024556 -0.005618 0.000000 0.000000 0.000000
# 3 -0.002215 -0.005618 0.067655 0.000000 0.000000 0.000000
# 4 0.000000 0.000000 0.000000 -0.087176 0.000000 0.000000
# 5 0.000000 0.000000 0.000000 0.000000 -0.101080 0.000000
# 6 0.000000 0.000000 0.000000 0.000000 0.000000 0.024138
#
#
# Mechanical properties :
#
#
# Convention : Reuss Voigt Hill
#
# Bulk Modulus (GPa) = 15.58057 47.22690 31.40373
# Shear Modulus (GPa) = 338.54128 12.64065 175.59096
#
# Velocity S-wave (km/s) = 13.21695 2.55394 9.51867
# Velocity P-wave (km/s) = 15.52278 5.75030 11.70518
#
# Compressibility (1/GPa) = 0.06418252
#
# Stress axis : x y z
#
# Youngs Moduli (GPa) = 53.68659 40.72244 14.78091
#
# Poissons Ratio (x) = 0.63096 0.03274
# Poissons Ratio (y) = 0.83183 0.08304
# Poissons Ratio (z) = 0.11892 0.22879
#
# Static dielectric constant tensor:
#      x y z
#    x 1.679680 0.000000 0.000000 
#    y 0.000000 1.729670 0.000000 
#    z 0.000000 0.000000 1.695430 
# 
# From -- ./inp_files/26394.got.cif
#   From: 2010.05.17/outbox.cif.g08.bks.cpg/sg72_14_cif.got.tgz:26394.got - 2010.06.03 17:03:01.
