data_PCOD9525684
_publ_section_title
;
Structure prediction by ZEFSAII (Michael W. Deem and Ramdas Pophale) SiO2 
 PCOD9525684
Probable space group: I B A M
;
_chemical_formula_sum "Si O2"
_cell_formula_units_Z 68
_cell_length_a 10.217978
_cell_length_b 19.061515
_cell_length_c 20.960510
_cell_angle_alpha 90.000000
_cell_angle_beta 90.000000
_cell_angle_gamma 90.000000
_cell_volume 4082.481486
_symmetry_space_group_name_H-M "I B A M"
_symmetry_group_IT_number 72
_symmetry_cell_setting 'orthorhombic'
loop_
_space_group_symop_operation_xyz
x,y,z
-x,-y,z
x,-y,1/2-z
-x,y,1/2-z
-x,-y,-z
x,y,-z
-x,y,1/2+z
x,-y,1/2+z
1/2+x,1/2+y,1/2+z
1/2-x,1/2-y,1/2+z
1/2+x,1/2-y,-z
1/2-x,1/2+y,-z
1/2-x,1/2-y,1/2-z
1/2+x,1/2+y,1/2-z
1/2-x,1/2+y,z
1/2+x,1/2-y,z
loop_
_atom_site_type_symbol
_atom_site_label
_atom_site_fract_x
_atom_site_fract_y
_atom_site_fract_z
Si Si1 0.103467 0.942285 0.373959
Si Si2 0.296778 0.178072 0.577512
Si Si3 0.001934 0.794750 0.077291
Si Si4 0.000000 0.000000 0.250000
Si Si5 0.851988 0.481374 0.577038
O O1 0.062010 0.866052 0.396878
O O2 0.085002 0.952878 0.298082
O O3 0.246697 0.964713 0.395579
O O4 0.000000 0.000000 0.401755
O O5 0.298620 0.177506 0.500000
O O6 0.414923 0.228508 0.597974
O O7 0.315352 0.097585 0.597957
O O8 0.154167 0.206571 0.596956
O O9 0.999047 0.797300 0.000000
O O10 0.843887 0.483931 0.500000
O O11 0.000000 0.500000 0.595128
#
# Coordination Sequence:
#
# PCOD9525684 Si02
#       5
#    16  16  16   4  16
#     4  10  19  35  56  72  97 136 179 220 256 302
#     4   9  18  30  43  72 110 136 162 199 251 322
#     4  10  19  30  50  76 105 138 166 204 265 322
#     4   8  20  36  56  76  92 128 192 238 252 280
#     4  10  20  32  51  82 112 134 167 213 263 319
#
# _framework density 16.656535999999999
#
# number of rings (size 3 to 8) (size 9 to 14) (size 15 to 20)
#    0.706    1.647    2.353    0.706    3.294    0.941 
#    0.000    0.588    0.000    5.647    0.000    0.000 
#    0.000    0.000    0.000    0.000    0.000    0.000 
#
# Total GULP energy -189367.357757 kJ/mol
# GULP energy per Si atom -5569.628169 kJ/mol
# Density = 1.661863 g / cm^3
# Si number density = 16.656536 Si / 1000 Ang^3
#
#
#
# Elastic Constant Matrix: (Units=GPa)
#
#
# Indices 1 2 3 4 5 6 
#
# 1 140.8279 29.4186 20.6812 0.0000 0.0000 0.0000
# 2 29.4186 48.6164 3.2043 0.0000 0.0000 0.0000
# 3 20.6812 3.2043 21.3567 0.0000 0.0000 0.0000
# 4 0.0000 0.0000 0.0000 7.4066 0.0000 0.0000
# 5 0.0000 0.0000 0.0000 0.0000 9.8972 0.0000
# 6 0.0000 0.0000 0.0000 0.0000 0.0000 35.4202
#
#
#
# Elastic Compliance Matrix: (Units=1/GPa)
#
#
# Indices 1 2 3 4 5 6 
#
# 1 0.009397 -0.005137 -0.008329 0.000000 0.000000 0.000000
# 2 -0.005137 0.023583 0.001437 0.000000 0.000000 0.000000
# 3 -0.008329 0.001437 0.054674 0.000000 0.000000 0.000000
# 4 0.000000 0.000000 0.000000 0.135014 0.000000 0.000000
# 5 0.000000 0.000000 0.000000 0.000000 0.101039 0.000000
# 6 0.000000 0.000000 0.000000 0.000000 0.000000 0.028232
#
#
# Mechanical properties :
#
#
# Convention : Reuss Voigt Hill
#
# Bulk Modulus (GPa) = 15.72467 35.26768 25.49618
# Shear Modulus (GPa) = 12.58819 21.04460 16.81639
#
# Velocity S-wave (km/s) = 2.75207 3.55835 3.18086
# Velocity P-wave (km/s) = 4.42262 6.17268 5.36943
#
# Compressibility (1/GPa) = 0.06359432
#
# Stress axis : x y z
#
# Youngs Moduli (GPa) = 106.41410 42.40289 18.29027
#
# Poissons Ratio (x) = 0.21784 0.15234
# Poissons Ratio (y) = 0.54670 -0.02628
# Poissons Ratio (z) = 0.88635 -0.06092
#
# Static dielectric constant tensor:
#      x y z
#    x 1.565540 0.000000 0.000000 
#    y 0.000000 1.550380 0.000000 
#    z 0.000000 0.000000 1.534260 
# 
# From -- ./inp_files/27752.got.cif
#   From: 2010.05.17/outbox.cif.g08.bks.cpg/sg72_14_cif.got.tgz:27752.got - 2010.06.03 17:03:01.
