data_PCOD9525077
_publ_section_title
;
Structure prediction by ZEFSAII (Michael W. Deem and Ramdas Pophale) SiO2 
 PCOD9525077
Probable space group: I B A M
;
_chemical_formula_sum "Si O2"
_cell_formula_units_Z 88
_cell_length_a 19.681489
_cell_length_b 13.825325
_cell_length_c 20.170884
_cell_angle_alpha 90.000000
_cell_angle_beta 90.000000
_cell_angle_gamma 90.000000
_cell_volume 5488.557684
_symmetry_space_group_name_H-M "I B A M"
_symmetry_group_IT_number 72
_symmetry_cell_setting 'orthorhombic'
loop_
_space_group_symop_operation_xyz
x,y,z
-x,-y,z
x,-y,1/2-z
-x,y,1/2-z
-x,-y,-z
x,y,-z
-x,y,1/2+z
x,-y,1/2+z
1/2+x,1/2+y,1/2+z
1/2-x,1/2-y,1/2+z
1/2+x,1/2-y,-z
1/2-x,1/2+y,-z
1/2-x,1/2-y,1/2-z
1/2+x,1/2+y,1/2-z
1/2-x,1/2+y,z
1/2+x,1/2-y,z
loop_
_atom_site_type_symbol
_atom_site_label
_atom_site_fract_x
_atom_site_fract_y
_atom_site_fract_z
Si Si1 0.518490 0.609776 0.377344
Si Si2 0.146190 0.728472 0.789549
Si Si3 0.874918 0.167806 0.926663
Si Si4 0.224138 0.102487 0.786063
Si Si5 0.500000 0.257847 0.250000
Si Si6 0.835185 0.943767 0.925495
O O1 0.500000 0.500000 0.357530
O O2 0.455942 0.649524 0.420453
O O3 0.519867 0.674790 0.312074
O O4 0.589876 0.602037 0.414708
O O5 0.146723 0.765079 0.865706
O O6 0.172520 0.820200 0.746518
O O7 0.200347 0.644507 0.777343
O O8 0.068958 0.703203 0.770078
O O9 0.843220 0.060268 0.919620
O O10 0.858259 0.205080 0.000000
O O11 0.208958 0.091732 0.863947
O O12 0.215068 0.000000 0.750000
O O13 0.811159 0.921677 0.000000
#
# Coordination Sequence:
#
# PCOD9525077 Si02
#       6
#    16  16  16  16   8  16
#     4   9  16  24  43  72 106 134 158 200 256 305
#     4  10  21  33  54  74  99 133 169 211 251 298
#     4   9  17  29  46  73 104 131 164 204 246 299
#     4  11  21  36  50  74 103 133 168 209 255 297
#     4  10  17  30  49  76  98 126 176 212 246 298
#     4  10  18  29  47  72 105 138 166 197 250 311
#
# _framework density 16.033356000000001
#
# number of rings (size 3 to 8) (size 9 to 14) (size 15 to 20)
#    0.000    2.182    3.636    0.818    0.000    2.909 
#    0.000    0.455    0.000    0.000    0.000    0.000 
#    0.000    4.727    0.000    0.000    0.000    0.000 
#
# Total GULP energy -245204.751096 kJ/mol
# GULP energy per Si atom -5572.835252 kJ/mol
# Density = 1.599686 g / cm^3
# Si number density = 16.033356 Si / 1000 Ang^3
#
#
#
# Elastic Constant Matrix: (Units=GPa)
#
#
# Indices 1 2 3 4 5 6 
#
# 1 77.4844 14.1147 16.4519 0.0000 0.0000 0.0000
# 2 14.1147 22.5769 8.6810 0.0000 0.0000 0.0000
# 3 16.4519 8.6810 102.6301 0.0000 0.0000 0.0000
# 4 0.0000 0.0000 0.0000 7.3331 0.0000 0.0000
# 5 0.0000 0.0000 0.0000 0.0000 9.7569 0.0000
# 6 0.0000 0.0000 0.0000 0.0000 0.0000 10.0563
#
#
#
# Elastic Compliance Matrix: (Units=1/GPa)
#
#
# Indices 1 2 3 4 5 6 
#
# 1 0.014829 -0.008638 -0.001646 0.000000 0.000000 0.000000
# 2 -0.008638 0.050813 -0.002913 0.000000 0.000000 0.000000
# 3 -0.001646 -0.002913 0.010254 0.000000 0.000000 0.000000
# 4 0.000000 0.000000 0.000000 0.136368 0.000000 0.000000
# 5 0.000000 0.000000 0.000000 0.000000 0.102492 0.000000
# 6 0.000000 0.000000 0.000000 0.000000 0.000000 0.099440
#
#
# Mechanical properties :
#
#
# Convention : Reuss Voigt Hill
#
# Bulk Modulus (GPa) = 20.20154 31.24296 25.72225
# Shear Modulus (GPa) = 10.93874 16.32553 13.63213
#
# Velocity S-wave (km/s) = 2.61482 3.19442 2.91904
# Velocity P-wave (km/s) = 4.66299 5.75624 5.23821
#
# Compressibility (1/GPa) = 0.04950116
#
# Stress axis : x y z
#
# Youngs Moduli (GPa) = 67.43606 19.67988 97.52200
#
# Poissons Ratio (x) = 0.16999 0.16057
# Poissons Ratio (y) = 0.58249 0.28412
# Poissons Ratio (z) = 0.11103 0.05734
#
# Static dielectric constant tensor:
#      x y z
#    x 1.542430 0.000000 0.000000 
#    y 0.000000 1.501560 0.000000 
#    z 0.000000 0.000000 1.546500 
# 
# From -- ./inp_files/32506.got.cif
#   From: 2010.05.17/outbox.cif.g08.bks.cpg/sg72_17_cif.got.tgz:32506.got - 2010.06.03 17:03:01.
