data_PCOD9525503
_publ_section_title
;
Structure prediction by ZEFSAII (Michael W. Deem and Ramdas Pophale) SiO2 
 PCOD9525503
Probable space group: I B A M
;
_chemical_formula_sum "Si O2"
_cell_formula_units_Z 116
_cell_length_a 28.682525
_cell_length_b 23.230785
_cell_length_c 8.951041
_cell_angle_alpha 90.000000
_cell_angle_beta 90.000000
_cell_angle_gamma 90.000000
_cell_volume 5964.235902
_symmetry_space_group_name_H-M "I B A M"
_symmetry_group_IT_number 72
_symmetry_cell_setting 'orthorhombic'
loop_
_space_group_symop_operation_xyz
x,y,z
-x,-y,z
x,-y,1/2-z
-x,y,1/2-z
-x,-y,-z
x,y,-z
-x,y,1/2+z
x,-y,1/2+z
1/2+x,1/2+y,1/2+z
1/2-x,1/2-y,1/2+z
1/2+x,1/2-y,-z
1/2-x,1/2+y,-z
1/2-x,1/2-y,1/2-z
1/2+x,1/2+y,1/2-z
1/2-x,1/2+y,z
1/2+x,1/2-y,z
loop_
_atom_site_type_symbol
_atom_site_label
_atom_site_fract_x
_atom_site_fract_y
_atom_site_fract_z
Si Si1 0.450895 0.319504 0.678626
Si Si2 0.684491 0.098653 0.820238
Si Si3 0.048810 0.696281 0.823813
Si Si4 0.298809 0.229851 0.679523
Si Si5 0.500000 0.000000 0.250000
Si Si6 0.850078 0.846200 0.821491
Si Si7 0.715072 0.558929 0.178978
Si Si8 0.917193 0.412381 0.328825
O O1 0.500000 0.338242 0.750000
O O2 0.456088 0.315439 0.500000
O O3 0.440066 0.256164 0.743986
O O4 0.404620 0.355788 0.712472
O O5 0.685933 0.165908 0.770373
O O6 0.731877 0.069500 0.764912
O O7 0.635387 0.066758 0.792683
O O8 0.688731 0.100368 0.000000
O O9 0.078660 0.641143 0.782482
O O10 0.000000 0.679376 0.750000
O O11 0.045388 0.704982 0.000000
O O12 0.293401 0.227741 0.500000
O O13 0.250000 0.250000 0.750000
O O14 0.335571 0.280332 0.713417
O O15 0.461253 0.955988 0.179612
O O16 0.816435 0.888307 0.732808
O O17 0.843467 0.853989 0.000000
O O18 0.697365 0.500000 0.250000
O O19 0.714726 0.555439 0.000000
O O20 0.916479 0.390548 0.500000
#
# Coordination Sequence:
#
# PCOD9525503 Si02
#       8
#    16  16  16  16   4  16  16  16
#     4  10  20  36  60  90 124 158 191 234 289 352
#     4   9  20  38  60  84 115 158 195 244 313 368
#     4  11  21  35  56  82 113 150 193 239 292 355
#     4  10  18  33  57  87 119 152 192 238 300 362
#     4  12  26  36  64  86 106 152 214 272 322 364
#     4  10  21  37  61  90 124 162 196 241 301 358
#     4  11  23  40  62  86 118 158 204 247 293 356
#     4  11  23  41  59  77 110 149 198 258 313 366
#
# _framework density 19.449263999999999
#
# number of rings (size 3 to 8) (size 9 to 14) (size 15 to 20)
#    0.000    1.655    2.069    3.931    0.966    3.862 
#    0.000    3.448    0.000    0.414    0.000    2.897 
#    0.000    0.000    0.000    0.000    0.000    0.000 
#
# Total GULP energy -323274.048875 kJ/mol
# GULP energy per Si atom -5573.690498 kJ/mol
# Density = 1.940500 g / cm^3
# Si number density = 19.449264 Si / 1000 Ang^3
#
#
#
# Elastic Constant Matrix: (Units=GPa)
#
#
# Indices 1 2 3 4 5 6 
#
# 1 139.9034 23.2829 41.1010 0.0000 0.0000 0.0000
# 2 23.2829 60.6281 15.7201 0.0000 0.0000 0.0000
# 3 41.1010 15.7201 46.2560 0.0000 0.0000 0.0000
# 4 0.0000 0.0000 0.0000 14.8383 0.0000 0.0000
# 5 0.0000 0.0000 0.0000 0.0000 35.2947 0.0000
# 6 0.0000 0.0000 0.0000 0.0000 0.0000 13.3532
#
#
#
# Elastic Compliance Matrix: (Units=1/GPa)
#
#
# Indices 1 2 3 4 5 6 
#
# 1 0.009822 -0.001655 -0.008165 0.000000 0.000000 0.000000
# 2 -0.001655 0.018367 -0.004772 0.000000 0.000000 0.000000
# 3 -0.008165 -0.004772 0.030495 0.000000 0.000000 0.000000
# 4 0.000000 0.000000 0.000000 0.067393 0.000000 0.000000
# 5 0.000000 0.000000 0.000000 0.000000 0.028333 0.000000
# 6 0.000000 0.000000 0.000000 0.000000 0.000000 0.074889
#
#
# Mechanical properties :
#
#
# Convention : Reuss Voigt Hill
#
# Bulk Modulus (GPa) = 33.89660 45.22174 39.55917
# Shear Modulus (GPa) = 18.63481 23.80946 21.22213
#
# Velocity S-wave (km/s) = 3.09872 3.50263 3.30685
# Velocity P-wave (km/s) = 5.50171 6.29758 5.91305
#
# Compressibility (1/GPa) = 0.02950149
#
# Stress axis : x y z
#
# Youngs Moduli (GPa) = 101.81341 54.44632 32.79182
#
# Poissons Ratio (x) = 0.09010 0.26774
# Poissons Ratio (y) = 0.16848 0.15647
# Poissons Ratio (z) = 0.83130 0.25979
#
# Static dielectric constant tensor:
#      x y z
#    x 1.720960 0.000000 0.000000 
#    y 0.000000 1.823680 0.000000 
#    z 0.000000 0.000000 1.649810 
# 
# From -- ./inp_files/8370.got.cif
#   From: 2010.05.17/outbox.cif.g08.bks.cpg/sg72_5_cif.got.tgz:8370.got - 2010.06.03 17:03:01.
