data_PCOD9525491
_publ_section_title
;
Structure prediction by ZEFSAII (Michael W. Deem and Ramdas Pophale) SiO2 
 PCOD9525491
Probable space group: I B A M
;
_chemical_formula_sum "Si O2"
_cell_formula_units_Z 88
_cell_length_a 8.586877
_cell_length_b 22.991249
_cell_length_c 21.838591
_cell_angle_alpha 90.000000
_cell_angle_beta 90.000000
_cell_angle_gamma 90.000000
_cell_volume 4311.440746
_symmetry_space_group_name_H-M "I B A M"
_symmetry_group_IT_number 72
_symmetry_cell_setting 'orthorhombic'
loop_
_space_group_symop_operation_xyz
x,y,z
-x,-y,z
x,-y,1/2-z
-x,y,1/2-z
-x,-y,-z
x,y,-z
-x,y,1/2+z
x,-y,1/2+z
1/2+x,1/2+y,1/2+z
1/2-x,1/2-y,1/2+z
1/2+x,1/2-y,-z
1/2-x,1/2+y,-z
1/2-x,1/2-y,1/2-z
1/2+x,1/2+y,1/2-z
1/2-x,1/2+y,z
1/2+x,1/2-y,z
loop_
_atom_site_type_symbol
_atom_site_label
_atom_site_fract_x
_atom_site_fract_y
_atom_site_fract_z
Si Si1 0.495761 0.374815 0.369803
Si Si2 0.676132 0.178185 0.894757
Si Si3 0.889435 0.163148 0.500000
Si Si4 0.374141 0.272605 0.298660
Si Si5 0.342410 0.250380 0.000000
Si Si6 0.489876 0.103608 0.500000
Si Si7 0.500000 0.500000 0.606646
Si Si8 0.246374 0.505251 0.000000
O O1 0.677281 0.355486 0.364107
O O2 0.451517 0.370338 0.441484
O O3 0.371677 0.330414 0.339905
O O4 0.486012 0.441966 0.353425
O O5 0.591203 0.218859 0.844740
O O6 0.768998 0.221834 0.939522
O O7 0.564052 0.140126 0.938706
O O8 0.709479 0.183337 0.500000
O O9 0.982678 0.225520 0.500000
O O10 0.500000 0.290866 0.250000
O O11 0.250000 0.250000 0.250000
O O12 0.652255 0.066664 0.500000
O O13 0.369003 0.049166 0.500000
O O14 0.352764 0.501248 0.560439
#
# Coordination Sequence:
#
# PCOD9525491 Si02
#       8
#    16  16   8  16   8   8   8   8
#     4  11  22  40  63  91 127 168 209 265 326 389
#     4  10  20  40  61  89 128 163 205 269 334 385
#     4  10  18  33  55  87 124 152 193 242 320 392
#     4  12  25  41  64  90 123 166 223 275 325 383
#     4   9  18  30  55  86 117 151 187 247 320 392
#     4  10  20  38  64  96 135 169 202 262 328 403
#     4  11  22  40  61  94 132 174 213 257 310 406
#     4  10  20  36  60 100 135 167 211 247 318 400
#
# _framework density 20.410810999999999
#
# number of rings (size 3 to 8) (size 9 to 14) (size 15 to 20)
#    0.000    1.455    5.455    1.636    0.000    1.455 
#    6.545    0.455    0.000    0.000    0.000    0.000 
#    0.000    0.000    0.000    0.000    0.000    0.000 
#
# Total GULP energy -245180.189280 kJ/mol
# GULP energy per Si atom -5572.277029 kJ/mol
# Density = 2.036435 g / cm^3
# Si number density = 20.410811 Si / 1000 Ang^3
#
#
#
# Elastic Constant Matrix: (Units=GPa)
#
#
# Indices 1 2 3 4 5 6 
#
# 1 40.8806 8.6100 4.6594 0.0000 0.0000 0.0000
# 2 8.6100 152.1235 35.0365 0.0000 0.0000 0.0000
# 3 4.6594 35.0365 79.6819 0.0000 0.0000 0.0000
# 4 0.0000 0.0000 0.0000 3.3362 0.0000 0.0000
# 5 0.0000 0.0000 0.0000 0.0000 28.2189 0.0000
# 6 0.0000 0.0000 0.0000 0.0000 0.0000 27.8155
#
#
#
# Elastic Compliance Matrix: (Units=1/GPa)
#
#
# Indices 1 2 3 4 5 6 
#
# 1 0.024818 -0.001191 -0.000928 0.000000 0.000000 0.000000
# 2 -0.001191 0.007371 -0.003172 0.000000 0.000000 0.000000
# 3 -0.000928 -0.003172 0.013999 0.000000 0.000000 0.000000
# 4 0.000000 0.000000 0.000000 0.299746 0.000000 0.000000
# 5 0.000000 0.000000 0.000000 0.000000 0.035437 0.000000
# 6 0.000000 0.000000 0.000000 0.000000 0.000000 0.035951
#
#
# Mechanical properties :
#
#
# Convention : Reuss Voigt Hill
#
# Bulk Modulus (GPa) = 28.08369 41.03308 34.55838
# Shear Modulus (GPa) = 11.36951 26.83278 19.10114
#
# Velocity S-wave (km/s) = 2.36272 3.62972 3.06246
# Velocity P-wave (km/s) = 4.60786 6.14115 5.42891
#
# Compressibility (1/GPa) = 0.03560786
#
# Stress axis : x y z
#
# Youngs Moduli (GPa) = 40.29328 135.65764 71.43505
#
# Poissons Ratio (x) = 0.16158 0.06626
# Poissons Ratio (y) = 0.04799 0.22657
# Poissons Ratio (z) = 0.03737 0.43026
#
# Static dielectric constant tensor:
#      x y z
#    x 1.804850 0.000000 0.000000 
#    y 0.000000 1.761910 0.000000 
#    z 0.000000 0.000000 1.695830 
# 
# From -- ./inp_files/35918.got.cif
#   From: 2010.05.17/outbox.cif.g08.bks.cpg/sg72_18_cif.got.tgz:35918.got - 2010.06.03 17:03:01.
