data_PCOD9525708
_publ_section_title
;
Structure prediction by ZEFSAII (Michael W. Deem and Ramdas Pophale) SiO2 
 PCOD9525708
Probable space group: I B A M
;
_chemical_formula_sum "Si O2"
_cell_formula_units_Z 72
_cell_length_a 23.435314
_cell_length_b 13.921021
_cell_length_c 13.898212
_cell_angle_alpha 90.000000
_cell_angle_beta 90.000000
_cell_angle_gamma 90.000000
_cell_volume 4534.201303
_symmetry_space_group_name_H-M "I B A M"
_symmetry_group_IT_number 72
_symmetry_cell_setting 'orthorhombic'
loop_
_space_group_symop_operation_xyz
x,y,z
-x,-y,z
x,-y,1/2-z
-x,y,1/2-z
-x,-y,-z
x,y,-z
-x,y,1/2+z
x,-y,1/2+z
1/2+x,1/2+y,1/2+z
1/2-x,1/2-y,1/2+z
1/2+x,1/2-y,-z
1/2-x,1/2+y,-z
1/2-x,1/2-y,1/2-z
1/2+x,1/2+y,1/2-z
1/2-x,1/2+y,z
1/2+x,1/2-y,z
loop_
_atom_site_type_symbol
_atom_site_label
_atom_site_fract_x
_atom_site_fract_y
_atom_site_fract_z
Si Si1 0.282587 0.104420 0.287056
Si Si2 0.413610 0.180986 0.894653
Si Si3 0.500000 0.136916 0.750000
Si Si4 0.209442 0.252605 0.608261
Si Si5 0.598008 0.951329 0.385765
O O1 0.241088 0.154827 0.363730
O O2 0.279018 0.170963 0.192397
O O3 0.345837 0.093976 0.335062
O O4 0.265574 0.000000 0.250000
O O5 0.458302 0.200476 0.813047
O O6 0.359076 0.248754 0.891353
O O7 0.396246 0.067820 0.881297
O O8 0.440197 0.186303 0.000000
O O9 0.458174 0.079540 0.675255
O O10 0.226311 0.283340 0.500000
O O11 0.593844 0.927047 0.500000
#
# Coordination Sequence:
#
# PCOD9525708 Si02
#       5
#    16  16   8  16  16
#     4  11  20  35  53  74 102 135 170 212 257 305
#     4  10  19  31  46  69 102 134 166 204 244 296
#     4  12  19  30  44  70 101 142 177 204 242 300
#     4  10  21  34  51  74 102 133 169 210 256 305
#     4  11  20  30  47  71 102 140 174 204 245 299
#
# _framework density 15.879313
#
# number of rings (size 3 to 8) (size 9 to 14) (size 15 to 20)
#    0.000    1.333    4.444    3.333    0.000    2.667 
#    0.000    0.000    0.000    0.000    0.000    0.778 
#    0.000    3.556    0.000    0.000    0.000    0.000 
#
# Total GULP energy -200489.613236 kJ/mol
# GULP energy per Si atom -5569.155923 kJ/mol
# Density = 1.584317 g / cm^3
# Si number density = 15.879313 Si / 1000 Ang^3
#
#
#
# Elastic Constant Matrix: (Units=GPa)
#
#
# Indices 1 2 3 4 5 6 
#
# 1 85.6102 34.8875 50.7145 0.0000 0.0000 0.0000
# 2 34.8875 41.4890 27.4508 0.0000 0.0000 0.0000
# 3 50.7145 27.4508 138.7532 0.0000 0.0000 0.0000
# 4 0.0000 0.0000 0.0000 20.8343 0.0000 0.0000
# 5 0.0000 0.0000 0.0000 0.0000 29.7263 0.0000
# 6 0.0000 0.0000 0.0000 0.0000 0.0000 20.5282
#
#
#
# Elastic Compliance Matrix: (Units=1/GPa)
#
#
# Indices 1 2 3 4 5 6 
#
# 1 0.020023 -0.013802 -0.004588 0.000000 0.000000 0.000000
# 2 -0.013802 0.037246 -0.002324 0.000000 0.000000 0.000000
# 3 -0.004588 -0.002324 0.009344 0.000000 0.000000 0.000000
# 4 0.000000 0.000000 0.000000 0.047998 0.000000 0.000000
# 5 0.000000 0.000000 0.000000 0.000000 0.033640 0.000000
# 6 0.000000 0.000000 0.000000 0.000000 0.000000 0.048714
#
#
# Mechanical properties :
#
#
# Convention : Reuss Voigt Hill
#
# Bulk Modulus (GPa) = 39.70547 54.66201 47.18374
# Shear Modulus (GPa) = 20.26036 24.40438 22.33237
#
# Velocity S-wave (km/s) = 3.57584 3.92454 3.75424
# Velocity P-wave (km/s) = 6.48904 7.41850 6.96929
#
# Compressibility (1/GPa) = 0.02518545
#
# Stress axis : x y z
#
# Youngs Moduli (GPa) = 49.94238 26.84841 107.02301
#
# Poissons Ratio (x) = 0.37055 0.49102
# Poissons Ratio (y) = 0.68928 0.24875
# Poissons Ratio (z) = 0.22913 0.06240
#
# Static dielectric constant tensor:
#      x y z
#    x 1.555710 0.000000 0.000000 
#    y 0.000000 1.503880 0.000000 
#    z 0.000000 0.000000 1.586690 
# 
# From -- ./inp_files/23992.got.cif
#   From: 2010.05.17/outbox.cif.g08.bks.cpg/sg72_12_cif.got.tgz:23992.got - 2010.06.03 17:03:01.
