data_PCOD9525722
_publ_section_title
;
Structure prediction by ZEFSAII (Michael W. Deem and Ramdas Pophale) SiO2 
 PCOD9525722
Probable space group: I B A M
;
_chemical_formula_sum "Si O2"
_cell_formula_units_Z 80
_cell_length_a 21.046761
_cell_length_b 26.149873
_cell_length_c 8.898586
_cell_angle_alpha 90.000000
_cell_angle_beta 90.000000
_cell_angle_gamma 90.000000
_cell_volume 4897.515909
_symmetry_space_group_name_H-M "I B A M"
_symmetry_group_IT_number 72
_symmetry_cell_setting 'orthorhombic'
loop_
_space_group_symop_operation_xyz
x,y,z
-x,-y,z
x,-y,1/2-z
-x,y,1/2-z
-x,-y,-z
x,y,-z
-x,y,1/2+z
x,-y,1/2+z
1/2+x,1/2+y,1/2+z
1/2-x,1/2-y,1/2+z
1/2+x,1/2-y,-z
1/2-x,1/2+y,-z
1/2-x,1/2-y,1/2-z
1/2+x,1/2+y,1/2-z
1/2-x,1/2+y,z
1/2+x,1/2-y,z
loop_
_atom_site_type_symbol
_atom_site_label
_atom_site_fract_x
_atom_site_fract_y
_atom_site_fract_z
Si Si1 0.567428 0.660672 0.324890
Si Si2 0.674361 0.860748 0.820623
Si Si3 0.654835 0.248761 0.823808
Si Si4 0.804052 0.151273 0.821632
Si Si5 0.567531 0.055285 0.679804
O O1 0.500000 0.651259 0.250000
O O2 0.566702 0.647109 0.500000
O O3 0.587361 0.720923 0.314810
O O4 0.627463 0.634142 0.242760
O O5 0.654387 0.806878 0.746764
O O6 0.743150 0.874612 0.752841
O O7 0.622093 0.903682 0.787544
O O8 0.679626 0.854594 0.000000
O O9 0.698208 0.289221 0.732623
O O10 0.672903 0.247084 0.000000
O O11 0.802288 0.148040 0.000000
O O12 0.500000 0.071360 0.750000
O O13 0.561049 0.050482 0.500000
O O14 0.582786 0.000000 0.750000
#
# Coordination Sequence:
#
# PCOD9525722 Si02
#       5
#    16  16  16  16  16
#     4   9  18  30  44  63  93 130 166 199 235 278
#     4  11  21  33  50  72  96 125 163 205 251 301
#     4   9  19  31  45  66  95 130 165 204 244 289
#     4  10  19  31  48  69  97 131 166 204 245 292
#     4  10  22  39  58  76  98 127 162 209 260 309
#
# _framework density 16.334813
#
# number of rings (size 3 to 8) (size 9 to 14) (size 15 to 20)
#    1.200    1.000    0.000    4.800    0.000    4.000 
#    0.000    4.000    0.000    0.000    0.000    0.000 
#    0.000    0.800    0.000    8.400    0.000    4.600 
#
# Total GULP energy -222731.117316 kJ/mol
# GULP energy per Si atom -5568.277933 kJ/mol
# Density = 1.629763 g / cm^3
# Si number density = 16.334813 Si / 1000 Ang^3
#
#
#
# Elastic Constant Matrix: (Units=GPa)
#
#
# Indices 1 2 3 4 5 6 
#
# 1 129.8691 51.7713 72.1206 0.0000 0.0000 0.0000
# 2 51.7713 41.2938 38.6932 0.0000 0.0000 0.0000
# 3 72.1206 38.6932 123.8105 0.0000 0.0000 0.0000
# 4 0.0000 0.0000 0.0000 15.3832 0.0000 0.0000
# 5 0.0000 0.0000 0.0000 0.0000 30.4742 0.0000
# 6 0.0000 0.0000 0.0000 0.0000 0.0000 23.8440
#
#
#
# Elastic Compliance Matrix: (Units=1/GPa)
#
#
# Indices 1 2 3 4 5 6 
#
# 1 0.017066 -0.017084 -0.004602 0.000000 0.000000 0.000000
# 2 -0.017084 0.051347 -0.006095 0.000000 0.000000 0.000000
# 3 -0.004602 -0.006095 0.012662 0.000000 0.000000 0.000000
# 4 0.000000 0.000000 0.000000 0.065006 0.000000 0.000000
# 5 0.000000 0.000000 0.000000 0.000000 0.032815 0.000000
# 6 0.000000 0.000000 0.000000 0.000000 0.000000 0.041939
#
#
# Mechanical properties :
#
#
# Convention : Reuss Voigt Hill
#
# Bulk Modulus (GPa) = 39.19617 68.90486 54.05052
# Shear Modulus (GPa) = 17.54981 22.76614 20.15798
#
# Velocity S-wave (km/s) = 3.28133 3.73731 3.51672
# Velocity P-wave (km/s) = 6.19708 7.80370 7.04633
#
# Compressibility (1/GPa) = 0.02551270
#
# Stress axis : x y z
#
# Youngs Moduli (GPa) = 58.59535 19.47530 78.97338
#
# Poissons Ratio (x) = 0.33272 0.36344
# Poissons Ratio (y) = 1.00105 0.48137
# Poissons Ratio (z) = 0.26966 0.11871
#
# Static dielectric constant tensor:
#      x y z
#    x 1.578290 0.000000 0.000000 
#    y 0.000000 1.520600 0.000000 
#    z 0.000000 0.000000 1.542860 
# 
# From -- ./inp_files/5009.got.cif
#   From: 2010.05.17/outbox.cif.g08.bks.cpg/sg72_3_cif.got.tgz:5009.got - 2010.06.03 17:03:01.
