data_PCOD9525519
_publ_section_title
;
Structure prediction by ZEFSAII (Michael W. Deem and Ramdas Pophale) SiO2 
 PCOD9525519
Probable space group: I B A M
;
_chemical_formula_sum "Si O2"
_cell_formula_units_Z 104
_cell_length_a 8.954246
_cell_length_b 28.178402
_cell_length_c 22.489033
_cell_angle_alpha 90.000000
_cell_angle_beta 90.000000
_cell_angle_gamma 90.000000
_cell_volume 5674.350573
_symmetry_space_group_name_H-M "I B A M"
_symmetry_group_IT_number 72
_symmetry_cell_setting 'orthorhombic'
loop_
_space_group_symop_operation_xyz
x,y,z
-x,-y,z
x,-y,1/2-z
-x,y,1/2-z
-x,-y,-z
x,y,-z
-x,y,1/2+z
x,-y,1/2+z
1/2+x,1/2+y,1/2+z
1/2-x,1/2-y,1/2+z
1/2+x,1/2-y,-z
1/2-x,1/2+y,-z
1/2-x,1/2-y,1/2-z
1/2+x,1/2+y,1/2-z
1/2-x,1/2+y,z
1/2+x,1/2-y,z
loop_
_atom_site_type_symbol
_atom_site_label
_atom_site_fract_x
_atom_site_fract_y
_atom_site_fract_z
Si Si1 0.102244 0.132589 0.500000
Si Si2 0.681704 0.603626 0.869500
Si Si3 0.802661 0.298035 0.131551
Si Si4 0.660793 0.793345 0.500000
Si Si5 0.671191 0.945096 0.266595
Si Si6 0.298234 0.316154 0.500000
Si Si7 0.637490 0.802991 0.367965
Si Si8 0.606470 0.625619 0.300954
O O1 0.162777 0.106850 0.440729
O O2 0.170184 0.186405 0.500000
O O3 0.925522 0.143384 0.500000
O O4 0.781803 0.564671 0.835371
O O5 0.761520 0.652891 0.848802
O O6 0.512764 0.601916 0.845383
O O7 0.788408 0.315451 0.062689
O O8 0.732311 0.245333 0.135406
O O9 0.700518 0.333896 0.167948
O O10 0.970928 0.298361 0.157020
O O11 0.635889 0.737399 0.500000
O O12 0.603856 0.811949 0.437796
O O13 0.500000 0.932397 0.250000
O O14 0.783953 0.912759 0.228428
O O15 0.691383 0.000000 0.250000
O O16 0.500000 0.646588 0.250000
#
# Coordination Sequence:
#
# PCOD9525519 Si02
#       8
#     8  16  16   8  16   8  16  16
#     4  10  18  34  52  83 124 155 190 248 292 342
#     4  10  20  37  58  87 119 152 194 240 298 343
#     4  11  20  32  49  76 110 154 194 233 281 334
#     4   8  19  26  46  74 106 151 197 230 266 324
#     4  10  22  42  68  89 109 143 191 247 296 360
#     4  10  19  26  52  71 111 151 196 234 277 330
#     4  10  20  31  50  76 115 152 194 235 276 332
#     4  10  21  36  56  80 109 143 189 236 283 344
#
# _framework density 18.328088999999999
#
# number of rings (size 3 to 8) (size 9 to 14) (size 15 to 20)
#    0.000    2.000    1.538    2.308   10.769    2.769 
#    0.000    7.692    0.000    4.615    0.000    0.000 
#    0.000    0.000    0.000    0.000    0.000    0.000 
#
# Total GULP energy -289567.438518 kJ/mol
# GULP energy per Si atom -5568.604587 kJ/mol
# Density = 1.828637 g / cm^3
# Si number density = 18.328089 Si / 1000 Ang^3
#
#
#
# Elastic Constant Matrix: (Units=GPa)
#
#
# Indices 1 2 3 4 5 6 
#
# 1 131.7405 40.3154 37.1808 0.0000 0.0000 0.0000
# 2 40.3154 67.9564 34.4174 0.0000 0.0000 0.0000
# 3 37.1808 34.4174 81.8747 0.0000 0.0000 0.0000
# 4 0.0000 0.0000 0.0000 29.5059 0.0000 0.0000
# 5 0.0000 0.0000 0.0000 0.0000 19.7312 0.0000
# 6 0.0000 0.0000 0.0000 0.0000 0.0000 20.3433
#
#
#
# Elastic Compliance Matrix: (Units=1/GPa)
#
#
# Indices 1 2 3 4 5 6 
#
# 1 0.009665 -0.004461 -0.002514 0.000000 0.000000 0.000000
# 2 -0.004461 0.020754 -0.006699 0.000000 0.000000 0.000000
# 3 -0.002514 -0.006699 0.016171 0.000000 0.000000 0.000000
# 4 0.000000 0.000000 0.000000 0.033891 0.000000 0.000000
# 5 0.000000 0.000000 0.000000 0.000000 0.050681 0.000000
# 6 0.000000 0.000000 0.000000 0.000000 0.000000 0.049156
#
#
# Mechanical properties :
#
#
# Convention : Reuss Voigt Hill
#
# Bulk Modulus (GPa) = 51.96422 56.15542 54.05982
# Shear Modulus (GPa) = 23.35561 25.22664 24.29112
#
# Velocity S-wave (km/s) = 3.57362 3.71400 3.64448
# Velocity P-wave (km/s) = 6.74103 7.00694 6.87527
#
# Compressibility (1/GPa) = 0.01924401
#
# Stress axis : x y z
#
# Youngs Moduli (GPa) = 103.46317 48.18279 61.83761
#
# Poissons Ratio (x) = 0.21493 0.15546
# Poissons Ratio (y) = 0.46152 0.41423
# Poissons Ratio (z) = 0.26011 0.32276
#
# Static dielectric constant tensor:
#      x y z
#    x 1.683330 0.000000 0.000000 
#    y 0.000000 1.589260 0.000000 
#    z 0.000000 0.000000 1.688180 
# 
# From -- ./inp_files/42661.got.cif
#   From: 2010.05.17/outbox.cif.g08.bks.cpg/sg72_22_cif.got.tgz:42661.got - 2010.06.03 17:03:01.
