data_PCOD9525128
_publ_section_title
;
Structure prediction by ZEFSAII (Michael W. Deem and Ramdas Pophale) SiO2 
 PCOD9525128
Probable space group: I B A M
;
_chemical_formula_sum "Si O2"
_cell_formula_units_Z 88
_cell_length_a 14.533117
_cell_length_b 20.234116
_cell_length_c 14.850110
_cell_angle_alpha 90.000000
_cell_angle_beta 90.000000
_cell_angle_gamma 90.000000
_cell_volume 4366.894259
_symmetry_space_group_name_H-M "I B A M"
_symmetry_group_IT_number 72
_symmetry_cell_setting 'orthorhombic'
loop_
_space_group_symop_operation_xyz
x,y,z
-x,-y,z
x,-y,1/2-z
-x,y,1/2-z
-x,-y,-z
x,y,-z
-x,y,1/2+z
x,-y,1/2+z
1/2+x,1/2+y,1/2+z
1/2-x,1/2-y,1/2+z
1/2+x,1/2-y,-z
1/2-x,1/2+y,-z
1/2-x,1/2-y,1/2-z
1/2+x,1/2+y,1/2-z
1/2-x,1/2+y,z
1/2+x,1/2-y,z
loop_
_atom_site_type_symbol
_atom_site_label
_atom_site_fract_x
_atom_site_fract_y
_atom_site_fract_z
Si Si1 0.021687 0.217603 0.500000
Si Si2 0.268714 0.437148 0.189311
Si Si3 0.745246 0.183961 0.690281
Si Si4 0.824211 0.120717 0.000000
Si Si5 0.196588 0.756785 0.500000
Si Si6 0.542114 0.188502 0.343638
Si Si7 0.050900 0.437739 0.152961
O O1 0.070784 0.147231 0.500000
O O2 0.059601 0.252914 0.588644
O O3 0.914243 0.236177 0.500000
O O4 0.296295 0.500000 0.250000
O O5 0.291131 0.373903 0.252181
O O6 0.158902 0.445297 0.167732
O O7 0.308850 0.421561 0.090622
O O8 0.750000 0.250000 0.750000
O O9 0.777322 0.204381 0.591264
O O10 0.640863 0.158822 0.679142
O O11 0.751000 0.184876 0.000000
O O12 0.500000 0.213167 0.250000
O O13 0.475305 0.133524 0.386730
O O14 0.000000 0.500000 0.107917
O O15 0.000000 0.432919 0.250000
#
# Coordination Sequence:
#
# PCOD9525128 Si02
#       7
#     8  16  16   8   8  16  16
#     4  12  24  42  62  93 135 171 222 290 335 388
#     4  12  23  42  69  95 142 183 220 279 346 415
#     4  12  21  38  62  96 134 173 224 276 326 410
#     4  12  26  45  65 104 139 179 234 289 343 417
#     4  12  24  41  67 100 136 178 229 286 354 398
#     4  11  19  34  59  88 130 177 208 260 331 401
#     4  10  17  34  59  93 136 173 207 251 333 426
#
# _framework density 20.151620999999999
#
# number of rings (size 3 to 8) (size 9 to 14) (size 15 to 20)
#    0.000    0.545    9.091    2.182    0.000    0.727 
#    0.000    3.636    0.000    3.273    0.000    0.000 
#    0.000    0.000    0.000    0.000    0.000    0.000 
#
# Total GULP energy -245294.020696 kJ/mol
# GULP energy per Si atom -5574.864107 kJ/mol
# Density = 2.010575 g / cm^3
# Si number density = 20.151621 Si / 1000 Ang^3
#
#
#
# Elastic Constant Matrix: (Units=GPa)
#
#
# Indices 1 2 3 4 5 6 
#
# 1 51.8601 5.9520 11.1823 0.0000 0.0000 0.0000
# 2 5.9520 128.9023 67.6740 0.0001 0.0000 0.0000
# 3 11.1823 67.6740 169.6220 0.0001 0.0001 0.0000
# 4 0.0000 0.0001 0.0001 38.4302 0.0000 0.0000
# 5 0.0000 0.0000 0.0001 0.0000 17.5759 0.0000
# 6 0.0000 0.0000 0.0000 0.0000 0.0000 22.7737
#
#
#
# Elastic Compliance Matrix: (Units=1/GPa)
#
#
# Indices 1 2 3 4 5 6 
#
# 1 0.019569 -0.000286 -0.001176 0.000000 0.000000 0.000000
# 2 -0.000286 0.009817 -0.003898 0.000000 0.000000 0.000000
# 3 -0.001176 -0.003898 0.007528 0.000000 0.000000 0.000000
# 4 0.000000 0.000000 0.000000 0.026021 0.000000 0.000000
# 5 0.000000 0.000000 0.000000 0.000000 0.056896 0.000000
# 6 0.000000 0.000000 0.000000 0.000000 0.000000 0.043910
#
#
# Mechanical properties :
#
#
# Convention : Reuss Voigt Hill
#
# Bulk Modulus (GPa) = 38.17605 57.77789 47.97697
# Shear Modulus (GPa) = 27.29348 33.46105 30.37726
#
# Velocity S-wave (km/s) = 3.68422 4.07930 3.88678
# Velocity P-wave (km/s) = 6.08962 7.13592 6.63343
#
# Compressibility (1/GPa) = 0.02619444
#
# Stress axis : x y z
#
# Youngs Moduli (GPa) = 51.10108 101.85904 132.83452
#
# Poissons Ratio (x) = 0.02916 0.15620
# Poissons Ratio (y) = 0.01463 0.51779
# Poissons Ratio (z) = 0.06009 0.39705
#
# Static dielectric constant tensor:
#      x y z
#    x 1.872880 0.000000 0.000000 
#    y 0.000000 1.812150 0.000000 
#    z 0.000000 0.000000 1.723490 
# 
# From -- ./inp_files/21733.got.cif
#   From: 2010.05.17/outbox.cif.g08.bks.cpg/sg72_11_cif.got.tgz:21733.got - 2010.06.03 17:03:01.
