data_PCOD9525843
_publ_section_title
;
Structure prediction by ZEFSAII (Michael W. Deem and Ramdas Pophale) SiO2 
 PCOD9525843
Probable space group: I B A M
;
_chemical_formula_sum "Si O2"
_cell_formula_units_Z 112
_cell_length_a 14.381165
_cell_length_b 27.869228
_cell_length_c 14.908114
_cell_angle_alpha 90.000000
_cell_angle_beta 90.000000
_cell_angle_gamma 90.000000
_cell_volume 5975.052324
_symmetry_space_group_name_H-M "I B A M"
_symmetry_group_IT_number 72
_symmetry_cell_setting 'orthorhombic'
loop_
_space_group_symop_operation_xyz
x,y,z
-x,-y,z
x,-y,1/2-z
-x,y,1/2-z
-x,-y,-z
x,y,-z
-x,y,1/2+z
x,-y,1/2+z
1/2+x,1/2+y,1/2+z
1/2-x,1/2-y,1/2+z
1/2+x,1/2-y,-z
1/2-x,1/2+y,-z
1/2-x,1/2-y,1/2-z
1/2+x,1/2+y,1/2-z
1/2-x,1/2+y,z
1/2+x,1/2-y,z
loop_
_atom_site_type_symbol
_atom_site_label
_atom_site_fract_x
_atom_site_fract_y
_atom_site_fract_z
Si Si1 0.107504 0.196498 0.750000
Si Si2 0.500000 0.942457 0.099947
Si Si3 0.291486 0.945503 0.353171
Si Si4 0.891950 0.688090 0.250000
Si Si5 0.754692 0.843211 0.602435
Si Si6 0.208514 0.554497 0.646830
Si Si7 0.254693 0.656789 0.897565
O O1 0.112355 0.254170 0.749999
O O2 0.161102 0.177292 0.662064
O O3 0.161102 0.177292 0.837936
O O4 0.000000 0.181945 0.750000
O O5 0.598458 0.932753 0.144638
O O6 0.401543 0.932753 0.144639
O O7 0.500000 0.000000 0.092580
O O8 0.500000 0.921038 0.000000
O O9 0.261627 0.946042 0.250000
O O10 0.241326 0.901189 0.399298
O O11 0.280918 0.000000 0.389146
O O12 0.835813 0.670512 0.162135
O O13 0.835813 0.670512 0.337865
O O14 0.000000 0.673022 0.250000
O O15 0.751293 0.825484 0.500000
O O16 0.758673 0.901189 0.600702
O O17 0.251293 0.674516 0.000000
#
# Coordination Sequence:
#
# PCOD9525843 Si02
#       7
#    16  16  16  16  16  16  16
#     4  10  23  45  64  82 111 146 194 252 305 350
#     4   9  17  27  41  69 109 153 193 222 259 323
#     4  10  19  32  51  77 115 158 192 226 273 333
#     4  10  23  41  60  86 122 155 186 234 290 347
#     4  11  22  37  61  90 119 152 194 239 284 343
#     4  10  19  32  51  77 115 158 192 226 273 333
#     4  11  22  37  61  90 119 152 194 239 284 343
#
# _framework density 18.744605
#
# number of rings (size 3 to 8) (size 9 to 14) (size 15 to 20)
#    0.000    1.857    2.857    3.000    2.000    6.857 
#    0.000    2.857    0.000    1.714    0.000    2.000 
#    0.000    0.000    0.000    0.000    0.000    0.000 
#
# Total GULP energy -312238.003606 kJ/mol
# GULP energy per Si atom -5575.678636 kJ/mol
# Density = 1.870194 g / cm^3
# Si number density = 18.744605 Si / 1000 Ang^3
#
#
#
# Elastic Constant Matrix: (Units=GPa)
#
#
# Indices 1 2 3 4 5 6 
#
# 1 109.0276 42.3240 57.1256 0.0000 0.0000 0.0000
# 2 42.3240 97.0506 30.6809 0.0001 0.0001 0.0000
# 3 57.1256 30.6809 165.1219 0.0003 0.0001 0.0000
# 4 0.0000 0.0001 0.0003 5.5971 0.0001 0.0000
# 5 0.0000 0.0001 0.0001 0.0001 46.0454 0.0000
# 6 0.0000 0.0000 0.0000 0.0000 0.0000 20.5746
#
#
#
# Elastic Compliance Matrix: (Units=1/GPa)
#
#
# Indices 1 2 3 4 5 6 
#
# 1 0.012778 -0.004436 -0.003597 0.000000 0.000000 0.000000
# 2 -0.004436 0.012487 -0.000786 0.000000 0.000000 0.000000
# 3 -0.003597 -0.000786 0.007446 0.000000 0.000000 0.000000
# 4 0.000000 0.000000 0.000000 0.178663 0.000000 0.000000
# 5 0.000000 0.000000 0.000000 0.000000 0.021718 0.000000
# 6 0.000000 0.000000 0.000000 0.000000 0.000000 0.048604
#
#
# Mechanical properties :
#
#
# Convention : Reuss Voigt Hill
#
# Bulk Modulus (GPa) = 66.33184 70.16233 68.24708
# Shear Modulus (GPa) = 16.42809 30.51474 23.47141
#
# Velocity S-wave (km/s) = 2.96365 4.03913 3.54244
# Velocity P-wave (km/s) = 6.86840 7.69836 7.29519
#
# Compressibility (1/GPa) = 0.01507572
#
# Stress axis : x y z
#
# Youngs Moduli (GPa) = 78.25735 80.08562 134.29343
#
# Poissons Ratio (x) = 0.35523 0.48300
# Poissons Ratio (y) = 0.34712 0.10549
# Poissons Ratio (z) = 0.28146 0.06291
#
# Static dielectric constant tensor:
#      x y z
#    x 1.631280 0.000000 0.000000 
#    y 0.000000 1.692690 0.000000 
#    z 0.000000 0.000000 1.698080 
# 
# From -- ./inp_files/22435.got.cif
#   From: 2010.05.17/outbox.cif.g08.bks.cpg/sg72_12_cif.got.tgz:22435.got - 2010.06.03 17:03:01.
