data_PCOD9525493
_publ_section_title
;
Structure prediction by ZEFSAII (Michael W. Deem and Ramdas Pophale) SiO2 
 PCOD9525493
Probable space group: I B A M
;
_chemical_formula_sum "Si O2"
_cell_formula_units_Z 112
_cell_length_a 15.581302
_cell_length_b 19.698531
_cell_length_c 15.797962
_cell_angle_alpha 90.000000
_cell_angle_beta 90.000000
_cell_angle_gamma 90.000000
_cell_volume 4848.848895
_symmetry_space_group_name_H-M "I B A M"
_symmetry_group_IT_number 72
_symmetry_cell_setting 'orthorhombic'
loop_
_space_group_symop_operation_xyz
x,y,z
-x,-y,z
x,-y,1/2-z
-x,y,1/2-z
-x,-y,-z
x,y,-z
-x,y,1/2+z
x,-y,1/2+z
1/2+x,1/2+y,1/2+z
1/2-x,1/2-y,1/2+z
1/2+x,1/2-y,-z
1/2-x,1/2+y,-z
1/2-x,1/2-y,1/2-z
1/2+x,1/2+y,1/2-z
1/2-x,1/2+y,z
1/2+x,1/2-y,z
loop_
_atom_site_type_symbol
_atom_site_label
_atom_site_fract_x
_atom_site_fract_y
_atom_site_fract_z
Si Si1 0.599039 0.890389 0.398595
Si Si2 0.733570 0.365265 0.138348
Si Si3 0.256983 0.015344 0.591899
Si Si4 0.422990 0.164407 0.102156
Si Si5 0.116516 0.072652 0.717648
Si Si6 0.270436 0.776656 0.846067
Si Si7 0.919038 0.817770 0.401998
O O1 0.599871 0.876216 0.500000
O O2 0.646553 0.962173 0.385867
O O3 0.500485 0.884470 0.373423
O O4 0.657219 0.833359 0.353832
O O5 0.739840 0.435774 0.089436
O O6 0.835598 0.350917 0.151906
O O7 0.666105 0.383792 0.211783
O O8 0.703918 0.292279 0.104517
O O9 0.238400 0.045110 0.500000
O O10 0.193216 0.048193 0.657157
O O11 0.453849 0.242190 0.116733
O O12 0.404502 0.159211 0.000000
O O13 0.055884 0.121901 0.662218
O O14 0.083793 0.000000 0.750000
O O15 0.250000 0.750000 0.750000
O O16 0.183137 0.805746 0.886658
O O17 0.936063 0.834640 0.500000
#
# Coordination Sequence:
#
# PCOD9525493 Si02
#       7
#    16  16  16  16  16  16  16
#     4  10  20  35  54  80 114 151 190 227 278 341
#     4  10  20  33  52  77 113 143 185 234 283 330
#     4  10  19  32  52  78 108 146 187 225 278 338
#     4   9  20  34  52  81 113 149 192 233 278 341
#     4  10  19  32  52  79 108 143 184 242 289 337
#     4  11  19  33  55  79 109 143 184 238 282 325
#     4  10  18  33  56  78 107 150 194 235 284 345
#
# _framework density 23.098265999999999
#
# number of rings (size 3 to 8) (size 9 to 14) (size 15 to 20)
#    0.000    2.000    2.857    1.286    0.000    2.286 
#    0.000    8.571    0.000    4.286    0.000    9.000 
#    0.000   14.857    0.000    0.000    0.000    0.000 
#
# Total GULP energy -312371.417111 kJ/mol
# GULP energy per Si atom -5578.061020 kJ/mol
# Density = 2.304569 g / cm^3
# Si number density = 23.098266 Si / 1000 Ang^3
#
#
#
# Elastic Constant Matrix: (Units=GPa)
#
#
# Indices 1 2 3 4 5 6 
#
# 1 51.6380 -8.6127 18.1509 0.0000 0.0000 0.0000
# 2 -8.6127 96.5709 23.8287 0.0000 0.0000 0.0000
# 3 18.1509 23.8287 63.3496 0.0000 0.0000 0.0000
# 4 0.0000 0.0000 0.0000 21.4063 0.0000 0.0000
# 5 0.0000 0.0000 0.0000 0.0000 17.4375 0.0000
# 6 0.0000 0.0000 0.0000 0.0000 0.0000 16.9923
#
#
#
# Elastic Compliance Matrix: (Units=1/GPa)
#
#
# Indices 1 2 3 4 5 6 
#
# 1 0.022875 0.004031 -0.008070 0.000000 0.000000 0.000000
# 2 0.004031 0.012125 -0.005716 0.000000 0.000000 0.000000
# 3 -0.008070 -0.005716 0.020248 0.000000 0.000000 0.000000
# 4 0.000000 0.000000 0.000000 0.046715 0.000000 0.000000
# 5 0.000000 0.000000 0.000000 0.000000 0.057348 0.000000
# 6 0.000000 0.000000 0.000000 0.000000 0.000000 0.058850
#
#
# Mechanical properties :
#
#
# Convention : Reuss Voigt Hill
#
# Bulk Modulus (GPa) = 27.98156 30.92134 29.45145
# Shear Modulus (GPa) = 20.03342 23.04667 21.54005
#
# Velocity S-wave (km/s) = 2.94821 3.16217 3.05706
# Velocity P-wave (km/s) = 4.87132 5.17188 5.02385
#
# Compressibility (1/GPa) = 0.03573783
#
# Stress axis : x y z
#
# Youngs Moduli (GPa) = 43.71623 82.47416 49.38816
#
# Poissons Ratio (x) = -0.33249 0.39859
# Poissons Ratio (y) = -0.17624 0.28230
# Poissons Ratio (z) = 0.35281 0.47141
#
# Static dielectric constant tensor:
#      x y z
#    x 1.820740 0.000000 0.000000 
#    y 0.000000 1.928760 0.000000 
#    z 0.000000 0.000000 1.986990 
# 
# From -- ./inp_files/31880.got.cif
#   From: 2010.05.17/outbox.cif.g08.bks.cpg/sg72_16_cif.got.tgz:31880.got - 2010.06.03 17:03:01.
