data_PCOD9525564
_publ_section_title
;
Structure prediction by ZEFSAII (Michael W. Deem and Ramdas Pophale) SiO2 
 PCOD9525564
Probable space group: I B A M
;
_chemical_formula_sum "Si O2"
_cell_formula_units_Z 96
_cell_length_a 16.247327
_cell_length_b 15.761395
_cell_length_c 20.012845
_cell_angle_alpha 90.000000
_cell_angle_beta 90.000000
_cell_angle_gamma 90.000000
_cell_volume 5124.900125
_symmetry_space_group_name_H-M "I B A M"
_symmetry_group_IT_number 72
_symmetry_cell_setting 'orthorhombic'
loop_
_space_group_symop_operation_xyz
x,y,z
-x,-y,z
x,-y,1/2-z
-x,y,1/2-z
-x,-y,-z
x,y,-z
-x,y,1/2+z
x,-y,1/2+z
1/2+x,1/2+y,1/2+z
1/2-x,1/2-y,1/2+z
1/2+x,1/2-y,-z
1/2-x,1/2+y,-z
1/2-x,1/2-y,1/2-z
1/2+x,1/2+y,1/2-z
1/2-x,1/2+y,z
1/2+x,1/2-y,z
loop_
_atom_site_type_symbol
_atom_site_label
_atom_site_fract_x
_atom_site_fract_y
_atom_site_fract_z
Si Si1 0.092936 0.020809 0.577394
Si Si2 0.525542 0.900654 0.821405
Si Si3 0.393000 0.158824 0.423693
Si Si4 0.760526 0.914832 0.340238
Si Si5 0.319026 0.662100 0.927348
Si Si6 0.780694 0.389106 0.807756
O O1 0.088868 0.051736 0.500000
O O2 0.136976 0.928850 0.575622
O O3 0.150462 0.081918 0.622904
O O4 0.000000 0.000000 0.600913
O O5 0.500000 0.863252 0.750000
O O6 0.473545 0.862582 0.881511
O O7 0.622462 0.888109 0.820877
O O8 0.500000 0.000000 0.821121
O O9 0.398166 0.127828 0.500000
O O10 0.311955 0.118781 0.388467
O O11 0.381184 0.259872 0.424819
O O12 0.749077 0.870310 0.267835
O O13 0.743357 0.013475 0.323468
O O14 0.261411 0.668661 0.863336
O O15 0.275735 0.667177 0.000000
#
# Coordination Sequence:
#
# PCOD9525564 Si02
#       6
#    16  16  16  16  16  16
#     4   9  18  36  60  81 109 151 192 232 281 332
#     4  11  19  37  58  83 116 149 184 233 284 339
#     4  11  22  36  54  82 116 146 187 237 282 338
#     4  10  18  35  58  85 108 145 189 231 277 338
#     4   9  21  39  54  77 114 147 184 237 286 332
#     4  10  19  36  60  80 110 149 187 225 286 339
#
# _framework density 18.732071999999999
#
# number of rings (size 3 to 8) (size 9 to 14) (size 15 to 20)
#    0.000    2.000    3.333    1.500    0.000    2.333 
#    3.000    6.667    0.000    0.000    0.000    0.000 
#    0.000    0.000    0.000    0.000    0.000    0.000 
#
# Total GULP energy -267413.877474 kJ/mol
# GULP energy per Si atom -5571.122447 kJ/mol
# Density = 1.868944 g / cm^3
# Si number density = 18.732072 Si / 1000 Ang^3
#
#
#
# Elastic Constant Matrix: (Units=GPa)
#
#
# Indices 1 2 3 4 5 6 
#
# 1 130.8731 -5.3093 83.6630 0.0000 0.0000 0.0000
# 2 -5.3093 18.8760 24.7939 0.0000 0.0000 0.0000
# 3 83.6630 24.7939 183.7232 0.0000 0.0000 0.0000
# 4 0.0000 0.0000 0.0000 28.7563 0.0000 0.0000
# 5 0.0000 0.0000 0.0000 0.0000 36.0777 0.0000
# 6 0.0000 0.0000 0.0000 0.0000 0.0000 7.7090
#
#
#
# Elastic Compliance Matrix: (Units=1/GPa)
#
#
# Indices 1 2 3 4 5 6 
#
# 1 0.013328 0.014246 -0.007992 0.000000 0.000000 0.000000
# 2 0.014246 0.079619 -0.017232 0.000000 0.000000 0.000000
# 3 -0.007992 -0.017232 0.011408 0.000000 0.000000 0.000000
# 4 0.000000 0.000000 0.000000 0.034775 0.000000 0.000000
# 5 0.000000 0.000000 0.000000 0.000000 0.027718 0.000000
# 6 0.000000 0.000000 0.000000 0.000000 0.000000 0.129719
#
#
# Mechanical properties :
#
#
# Convention : Reuss Voigt Hill
#
# Bulk Modulus (GPa) = 12.13613 59.97417 36.05515
# Shear Modulus (GPa) = 14.45140 29.86358 22.15749
#
# Velocity S-wave (km/s) = 2.78056 3.99714 3.44301
# Velocity P-wave (km/s) = 4.09897 7.30679 5.92413
#
# Compressibility (1/GPa) = 0.08239860
#
# Stress axis : x y z
#
# Youngs Moduli (GPa) = 75.03169 12.55986 87.66046
#
# Poissons Ratio (x) = -0.17893 0.70055
# Poissons Ratio (y) = -1.06889 1.51056
# Poissons Ratio (z) = 0.59962 0.21643
#
# Static dielectric constant tensor:
#      x y z
#    x 1.694580 0.000000 0.000000 
#    y 0.000000 1.671880 0.000000 
#    z 0.000000 0.000000 1.695530 
# 
# From -- ./inp_files/38020.got.cif
#   From: 2010.05.17/outbox.cif.g08.bks.cpg/sg72_20_cif.got.tgz:38020.got - 2010.06.03 17:03:01.
