data_PCOD9525797
_publ_section_title
;
Structure prediction by ZEFSAII (Michael W. Deem and Ramdas Pophale) SiO2 
 PCOD9525797
Probable space group: I B A M
;
_chemical_formula_sum "Si O2"
_cell_formula_units_Z 80
_cell_length_a 7.428064
_cell_length_b 29.920301
_cell_length_c 15.566731
_cell_angle_alpha 90.000000
_cell_angle_beta 90.000000
_cell_angle_gamma 90.000000
_cell_volume 3459.704575
_symmetry_space_group_name_H-M "I B A M"
_symmetry_group_IT_number 72
_symmetry_cell_setting 'orthorhombic'
loop_
_space_group_symop_operation_xyz
x,y,z
-x,-y,z
x,-y,1/2-z
-x,y,1/2-z
-x,-y,-z
x,y,-z
-x,y,1/2+z
x,-y,1/2+z
1/2+x,1/2+y,1/2+z
1/2-x,1/2-y,1/2+z
1/2+x,1/2-y,-z
1/2-x,1/2+y,-z
1/2-x,1/2-y,1/2-z
1/2+x,1/2+y,1/2-z
1/2-x,1/2+y,z
1/2+x,1/2-y,z
loop_
_atom_site_type_symbol
_atom_site_label
_atom_site_fract_x
_atom_site_fract_y
_atom_site_fract_z
Si Si1 0.311281 0.284808 0.325156
Si Si2 0.280153 0.551247 0.756389
Si Si3 0.823916 0.795845 0.405695
Si Si4 0.213906 0.879013 0.399040
Si Si5 0.274451 0.610201 0.596506
O O1 0.597358 0.303249 0.500000
O O2 0.273601 0.251054 0.403635
O O3 0.520905 0.295095 0.335472
O O4 0.231783 0.333754 0.346284
O O5 0.222204 0.500000 0.750000
O O6 0.500000 0.551372 0.750000
O O7 0.227568 0.578247 0.842417
O O8 0.217596 0.578294 0.672630
O O9 0.750000 0.750000 0.250000
O O10 0.702947 0.839315 0.389397
O O11 0.269195 0.877821 0.500000
O O12 0.993562 0.883806 0.399690
O O13 0.229154 0.595155 0.500000
#
# Coordination Sequence:
#
# PCOD9525797 Si02
#       5
#    16  16  16  16  16
#     4  11  20  31  48  70  97 130 165 199 236 282
#     4   9  16  25  39  60  85 116 155 195 236 285
#     4  10  19  32  48  68  95 129 163 196 237 287
#     4   9  17  29  42  60  89 124 155 189 238 290
#     4   8  15  27  42  60  87 120 154 192 237 283
#
# _framework density 23.123360000000002
#
# number of rings (size 3 to 8) (size 9 to 14) (size 15 to 20)
#    0.000    2.600    0.000    4.800    0.000    4.000 
#    0.000    4.000    0.000    0.000    0.000    0.000 
#    0.000   12.800    0.000   29.400    0.000   29.600 
#
# Total GULP energy -222738.680750 kJ/mol
# GULP energy per Si atom -5568.467019 kJ/mol
# Density = 2.307073 g / cm^3
# Si number density = 23.123360 Si / 1000 Ang^3
#
#
#
# Elastic Constant Matrix: (Units=GPa)
#
#
# Indices 1 2 3 4 5 6 
#
# 1 33.7899 1.2699 7.1234 0.0000 0.0000 0.0000
# 2 1.2699 206.5000 98.6378 0.0000 0.0000 0.0000
# 3 7.1234 98.6378 171.5736 -0.0002 0.0000 0.0000
# 4 0.0000 0.0000 -0.0002 19.9235 0.0000 0.0000
# 5 0.0000 0.0000 0.0000 0.0000 5.4181 0.0000
# 6 0.0000 0.0000 0.0000 0.0000 0.0000 5.7584
#
#
#
# Elastic Compliance Matrix: (Units=1/GPa)
#
#
# Indices 1 2 3 4 5 6 
#
# 1 0.029904 0.000564 -0.001566 0.000000 0.000000 0.000000
# 2 0.000564 0.006687 -0.003868 0.000000 0.000000 0.000000
# 3 -0.001566 -0.003868 0.008117 0.000000 0.000000 0.000000
# 4 0.000000 0.000000 0.000000 0.050192 0.000000 0.000000
# 5 0.000000 0.000000 0.000000 0.000000 0.184566 0.000000
# 6 0.000000 0.000000 0.000000 0.000000 0.000000 0.173660
#
#
# Mechanical properties :
#
#
# Convention : Reuss Voigt Hill
#
# Bulk Modulus (GPa) = 28.59726 69.54727 49.07226
# Shear Modulus (GPa) = 10.53699 26.54217 18.53958
#
# Velocity S-wave (km/s) = 2.13700 3.39167 2.83462
# Velocity P-wave (km/s) = 4.29920 6.74387 5.65522
#
# Compressibility (1/GPa) = 0.03496839
#
# Stress axis : x y z
#
# Youngs Moduli (GPa) = 33.44084 149.55472 123.20066
#
# Poissons Ratio (x) = -0.08435 0.19291
# Poissons Ratio (y) = -0.01886 0.47648
# Poissons Ratio (z) = 0.05236 0.57840
#
# Static dielectric constant tensor:
#      x y z
#    x 1.998800 0.000000 0.000000 
#    y 0.000000 1.899210 0.000000 
#    z 0.000000 0.000000 1.717900 
# 
# From -- ./inp_files/20432.got.cif
#   From: 2010.05.17/outbox.cif.g08.bks.cpg/sg72_11_cif.got.tgz:20432.got - 2010.06.03 17:03:01.
