data_PCOD9525461
_publ_section_title
;
Structure prediction by ZEFSAII (Michael W. Deem and Ramdas Pophale) SiO2 
 PCOD9525461
Probable space group: I B A M
;
_chemical_formula_sum "Si O2"
_cell_formula_units_Z 84
_cell_length_a 18.408528
_cell_length_b 23.852353
_cell_length_c 10.485891
_cell_angle_alpha 90.000000
_cell_angle_beta 90.000000
_cell_angle_gamma 90.000000
_cell_volume 4604.215360
_symmetry_space_group_name_H-M "I B A M"
_symmetry_group_IT_number 72
_symmetry_cell_setting 'orthorhombic'
loop_
_space_group_symop_operation_xyz
x,y,z
-x,-y,z
x,-y,1/2-z
-x,y,1/2-z
-x,-y,-z
x,y,-z
-x,y,1/2+z
x,-y,1/2+z
1/2+x,1/2+y,1/2+z
1/2-x,1/2-y,1/2+z
1/2+x,1/2-y,-z
1/2-x,1/2+y,-z
1/2-x,1/2-y,1/2-z
1/2+x,1/2+y,1/2-z
1/2-x,1/2+y,z
1/2+x,1/2-y,z
loop_
_atom_site_type_symbol
_atom_site_label
_atom_site_fract_x
_atom_site_fract_y
_atom_site_fract_z
Si Si1 0.933838 0.699395 0.149824
Si Si2 0.073673 0.894845 0.500000
Si Si3 0.160281 0.996126 0.000000
Si Si4 0.088111 0.181103 0.234865
Si Si5 0.243858 0.500000 0.250000
Si Si6 0.500000 0.000000 0.750000
Si Si7 0.126908 0.576742 0.645780
Si Si8 0.099514 0.128638 0.500000
O O1 0.892742 0.756603 0.187620
O O2 0.888919 0.642237 0.162085
O O3 0.000000 0.694450 0.250000
O O4 0.957187 0.704331 0.000000
O O5 0.094019 0.959862 0.500000
O O6 0.104400 0.864254 0.374156
O O7 0.987306 0.883493 0.500000
O O8 0.207102 0.006314 0.126119
O O9 0.136091 0.931789 0.000000
O O10 0.117772 0.162734 0.371863
O O11 0.000000 0.181952 0.250000
O O12 0.189916 0.552712 0.265731
O O13 0.553645 0.040869 0.828317
O O14 0.149298 0.566619 0.500000
#
# Coordination Sequence:
#
# PCOD9525461 Si02
#       8
#    16   8   8  16   8   4  16   8
#     4  10  19  33  56  88 118 155 188 232 288 346
#     4  10  19  36  59  88 114 142 186 244 301 347
#     4  12  23  40  62  81 112 152 202 236 292 365
#     4   9  18  32  53  86 120 148 175 233 298 352
#     4  11  24  41  57  82 113 166 192 238 285 340
#     4  10  18  32  56  94 114 150 194 248 282 326
#     4  10  20  37  57  83 122 154 196 238 288 331
#     4  10  21  36  59  88 118 142 184 246 303 343
#
# _framework density 18.244152
#
# number of rings (size 3 to 8) (size 9 to 14) (size 15 to 20)
#    0.000    1.905    2.857    1.714    4.000    0.000 
#    1.714    3.810    0.000    6.857    0.000    0.000 
#    0.000    0.000    0.000    0.000    0.000    0.000 
#
# Total GULP energy -234270.047184 kJ/mol
# GULP energy per Si atom -5577.858266 kJ/mol
# Density = 1.820263 g / cm^3
# Si number density = 18.244152 Si / 1000 Ang^3
#
#
#
# Elastic Constant Matrix: (Units=GPa)
#
#
# Indices 1 2 3 4 5 6 
#
# 1 27.7902 17.6407 30.2230 0.0000 0.0000 0.0000
# 2 17.6407 126.2805 60.4998 0.0000 0.0000 0.0000
# 3 30.2230 60.4998 156.5659 0.0000 0.0000 0.0000
# 4 0.0000 0.0000 0.0000 9.0675 0.0000 0.0000
# 5 0.0000 0.0000 0.0000 0.0000 26.3759 0.0000
# 6 0.0000 0.0000 0.0000 0.0000 0.0000 -4.2722
#
#
#
# Elastic Compliance Matrix: (Units=1/GPa)
#
#
# Indices 1 2 3 4 5 6 
#
# 1 0.046274 -0.002681 -0.007897 0.000000 0.000000 0.000000
# 2 -0.002681 0.009873 -0.003298 0.000000 0.000000 0.000000
# 3 -0.007897 -0.003298 0.009186 0.000000 0.000000 0.000000
# 4 0.000000 0.000000 0.000000 0.110284 0.000000 0.000000
# 5 0.000000 0.000000 0.000000 0.000000 0.037913 0.000000
# 6 0.000000 0.000000 0.000000 0.000000 0.000000 -0.234074
#
#
# Mechanical properties :
#
#
# Convention : Reuss Voigt Hill
#
# Bulk Modulus (GPa) = 26.60838 58.59596 42.60217
# Shear Modulus (GPa) = 253.36963 19.71912 136.54437
#
# Velocity S-wave (km/s) = 11.79740 3.29119 8.66056
# Velocity P-wave (km/s) = 14.14877 6.82861 11.10896
#
# Compressibility (1/GPa) = 0.03758215
#
# Stress axis : x y z
#
# Youngs Moduli (GPa) = 21.61058 101.28336 108.86513
#
# Poissons Ratio (x) = 0.27155 0.85965
# Poissons Ratio (y) = 0.05794 0.35900
# Poissons Ratio (z) = 0.17065 0.33400
#
# Static dielectric constant tensor:
#      x y z
#    x 1.607970 0.000000 0.000000 
#    y 0.000000 1.625130 0.000000 
#    z 0.000000 0.000000 1.629480 
# 
# From -- ./inp_files/13767.got.cif
#   From: 2010.05.17/outbox.cif.g08.bks.cpg/sg72_7_cif.got.tgz:13767.got - 2010.06.03 17:03:01.
