data_PCOD9525085
_publ_section_title
;
Structure prediction by ZEFSAII (Michael W. Deem and Ramdas Pophale) SiO2 
 PCOD9525085
Probable space group: I B A M
;
_chemical_formula_sum "Si O2"
_cell_formula_units_Z 88
_cell_length_a 13.811631
_cell_length_b 13.959336
_cell_length_c 23.841539
_cell_angle_alpha 90.000000
_cell_angle_beta 90.000000
_cell_angle_gamma 90.000000
_cell_volume 4596.677277
_symmetry_space_group_name_H-M "I B A M"
_symmetry_group_IT_number 72
_symmetry_cell_setting 'orthorhombic'
loop_
_space_group_symop_operation_xyz
x,y,z
-x,-y,z
x,-y,1/2-z
-x,y,1/2-z
-x,-y,-z
x,y,-z
-x,y,1/2+z
x,-y,1/2+z
1/2+x,1/2+y,1/2+z
1/2-x,1/2-y,1/2+z
1/2+x,1/2-y,-z
1/2-x,1/2+y,-z
1/2-x,1/2-y,1/2-z
1/2+x,1/2+y,1/2-z
1/2-x,1/2+y,z
1/2+x,1/2-y,z
loop_
_atom_site_type_symbol
_atom_site_label
_atom_site_fract_x
_atom_site_fract_y
_atom_site_fract_z
Si Si1 0.754418 0.367465 0.859259
Si Si2 0.431040 0.761839 0.128698
Si Si3 0.500000 0.267103 0.250000
Si Si4 0.803857 0.887228 0.740270
Si Si5 0.123936 0.223762 0.565605
Si Si6 0.772313 0.409150 0.381722
O O1 0.646586 0.324727 0.867098
O O2 0.765611 0.358210 0.791912
O O3 0.822855 0.303454 0.897011
O O4 0.770706 0.476767 0.877480
O O5 0.474739 0.784119 0.190844
O O6 0.515546 0.724831 0.088652
O O7 0.372423 0.854045 0.105262
O O8 0.405165 0.332118 0.239546
O O9 0.752600 0.873365 0.681173
O O10 0.823803 0.000000 0.750000
O O11 0.127475 0.244650 0.500000
O O12 0.186034 0.128534 0.578917
#
# Coordination Sequence:
#
# PCOD9525085 Si02
#       6
#    16  16   8  16  16  16
#     4   9  22  39  61  89 121 155 193 244 297 354
#     4  10  22  35  60  88 118 158 199 242 293 353
#     4  10  17  30  56  87 120 152 186 234 297 345
#     4   9  17  32  58  90 121 147 185 239 295 355
#     4  11  24  41  60  85 120 158 204 245 289 351
#     4  10  21  40  61  89 121 155 196 242 299 350
#
# _framework density 19.144262000000001
#
# number of rings (size 3 to 8) (size 9 to 14) (size 15 to 20)
#    0.000    2.182    1.818    0.273    2.545    7.273 
#    0.000    1.818    0.000    0.000    0.000    0.000 
#    0.000    0.000    0.000    0.000    0.000    0.000 
#
# Total GULP energy -245496.105740 kJ/mol
# GULP energy per Si atom -5579.456949 kJ/mol
# Density = 1.910069 g / cm^3
# Si number density = 19.144262 Si / 1000 Ang^3
#
#
#
# Elastic Constant Matrix: (Units=GPa)
#
#
# Indices 1 2 3 4 5 6 
#
# 1 57.2189 -4.1015 21.3534 0.0000 0.0000 0.0000
# 2 -4.1015 58.4561 2.3920 0.0000 0.0000 0.0000
# 3 21.3534 2.3920 78.1058 0.0000 0.0000 0.0000
# 4 0.0000 0.0000 0.0000 11.0184 0.0000 0.0000
# 5 0.0000 0.0000 0.0000 0.0000 15.6418 0.0000
# 6 0.0000 0.0000 0.0000 0.0000 0.0000 6.4628
#
#
#
# Elastic Compliance Matrix: (Units=1/GPa)
#
#
# Indices 1 2 3 4 5 6 
#
# 1 0.019610 0.001597 -0.005410 0.000000 0.000000 0.000000
# 2 0.001597 0.017258 -0.000965 0.000000 0.000000 0.000000
# 3 -0.005410 -0.000965 0.014312 0.000000 0.000000 0.000000
# 4 0.000000 0.000000 0.000000 0.090757 0.000000 0.000000
# 5 0.000000 0.000000 0.000000 0.000000 0.063931 0.000000
# 6 0.000000 0.000000 0.000000 0.000000 0.000000 0.154731
#
#
# Mechanical properties :
#
#
# Convention : Reuss Voigt Hill
#
# Bulk Modulus (GPa) = 24.02443 25.89650 24.96046
# Shear Modulus (GPa) = 13.01979 18.23374 15.62676
#
# Velocity S-wave (km/s) = 2.61068 3.08951 2.86013
# Velocity P-wave (km/s) = 4.65445 5.12671 4.89628
#
# Compressibility (1/GPa) = 0.04162430
#
# Stress axis : x y z
#
# Youngs Moduli (GPa) = 50.99371 57.94268 69.87239
#
# Poissons Ratio (x) = -0.09255 0.37802
# Poissons Ratio (y) = -0.08145 0.06744
# Poissons Ratio (z) = 0.27588 0.05593
#
# Static dielectric constant tensor:
#      x y z
#    x 1.676630 0.000000 0.000000 
#    y 0.000000 1.679520 0.000000 
#    z 0.000000 0.000000 1.685780 
# 
# From -- ./inp_files/43212.got.cif
#   From: 2010.05.17/outbox.cif.g08.bks.cpg/sg72_22_cif.got.tgz:43212.got - 2010.06.03 17:03:01.
