data_PCOD9525069
_publ_section_title
;
Structure prediction by ZEFSAII (Michael W. Deem and Ramdas Pophale) SiO2 
 PCOD9525069
Probable space group: I B A M
;
_chemical_formula_sum "Si O2"
_cell_formula_units_Z 116
_cell_length_a 26.621836
_cell_length_b 23.456622
_cell_length_c 8.897453
_cell_angle_alpha 90.000000
_cell_angle_beta 90.000000
_cell_angle_gamma 90.000000
_cell_volume 5556.088766
_symmetry_space_group_name_H-M "I B A M"
_symmetry_group_IT_number 72
_symmetry_cell_setting 'orthorhombic'
loop_
_space_group_symop_operation_xyz
x,y,z
-x,-y,z
x,-y,1/2-z
-x,y,1/2-z
-x,-y,-z
x,y,-z
-x,y,1/2+z
x,-y,1/2+z
1/2+x,1/2+y,1/2+z
1/2-x,1/2-y,1/2+z
1/2+x,1/2-y,-z
1/2-x,1/2+y,-z
1/2-x,1/2-y,1/2-z
1/2+x,1/2+y,1/2-z
1/2-x,1/2+y,z
1/2+x,1/2-y,z
loop_
_atom_site_type_symbol
_atom_site_label
_atom_site_fract_x
_atom_site_fract_y
_atom_site_fract_z
Si Si1 0.692079 0.562120 0.820084
Si Si2 0.186475 0.254930 0.831169
Si Si3 0.500000 0.500000 0.750000
Si Si4 0.922377 0.900443 0.327645
Si Si5 0.554413 0.831217 0.176844
Si Si6 0.425687 0.284828 0.331899
Si Si7 0.056787 0.557278 0.319122
Si Si8 0.261954 0.154891 0.178836
O O1 0.696580 0.500000 0.750000
O O2 0.635091 0.583622 0.782306
O O3 0.737677 0.600325 0.756695
O O4 0.694795 0.560590 0.000000
O O5 0.133992 0.222721 0.842307
O O6 0.222655 0.204728 0.776963
O O7 0.187671 0.312593 0.733353
O O8 0.202003 0.271904 0.000000
O O9 0.460151 0.454652 0.821737
O O10 0.920663 0.880383 0.500000
O O11 0.939328 0.847700 0.224007
O O12 0.500000 0.835987 0.250000
O O13 0.564656 0.765622 0.214803
O O14 0.581809 0.883840 0.261617
O O15 0.555482 0.841731 0.000000
O O16 0.446882 0.273558 0.500000
O O17 0.081076 0.500000 0.250000
O O18 0.054613 0.555462 0.500000
O O19 0.000000 0.556184 0.250000
O O20 0.262922 0.147122 0.000000
#
# Coordination Sequence:
#
# PCOD9525069 Si02
#       8
#    16  16   4  16  16  16  16  16
#     4  11  22  38  60  87 120 159 205 257 312 371
#     4   9  19  35  57  86 117 150 184 231 294 363
#     4  12  26  48  64  86 122 168 230 278 334 380
#     4  11  25  42  62  86 115 159 213 270 325 379
#     4  11  22  37  55  80 114 153 200 248 301 356
#     4  11  23  40  61  85 119 158 201 255 314 374
#     4  10  17  29  50  77 107 140 180 227 280 334
#     4  10  19  34  58  89 118 148 185 235 295 360
#
# _framework density 20.877994999999999
#
# number of rings (size 3 to 8) (size 9 to 14) (size 15 to 20)
#    0.000    1.517    2.069    5.172    0.966    3.310 
#    0.000    0.000    0.000    0.828    0.000    0.000 
#    0.000    0.000    0.000    0.000    0.000    0.000 
#
# Total GULP energy -322953.466392 kJ/mol
# GULP energy per Si atom -5568.163214 kJ/mol
# Density = 2.083048 g / cm^3
# Si number density = 20.877995 Si / 1000 Ang^3
#
#
#
# Elastic Constant Matrix: (Units=GPa)
#
#
# Indices 1 2 3 4 5 6 
#
# 1 24.3024 21.5418 8.1992 0.0000 0.0000 0.0000
# 2 21.5418 147.5815 70.4844 0.0000 0.0000 0.0000
# 3 8.1992 70.4844 123.5200 0.0000 0.0000 0.0000
# 4 0.0000 0.0000 0.0000 36.9943 0.0000 0.0000
# 5 0.0000 0.0000 0.0000 0.0000 16.5450 0.0000
# 6 0.0000 0.0000 0.0000 0.0000 0.0000 22.9076
#
#
#
# Elastic Compliance Matrix: (Units=1/GPa)
#
#
# Indices 1 2 3 4 5 6 
#
# 1 0.047372 -0.007441 0.001101 0.000000 0.000000 0.000000
# 2 -0.007441 0.010483 -0.005488 0.000000 0.000000 0.000000
# 3 0.001101 -0.005488 0.011154 0.000000 0.000000 0.000000
# 4 0.000000 0.000000 0.000000 0.027031 0.000000 0.000000
# 5 0.000000 0.000000 0.000000 0.000000 0.060441 0.000000
# 6 0.000000 0.000000 0.000000 0.000000 0.000000 0.043654
#
#
# Mechanical properties :
#
#
# Convention : Reuss Voigt Hill
#
# Bulk Modulus (GPa) = 22.04839 55.09495 38.57167
# Shear Modulus (GPa) = 20.92851 28.30129 24.61490
#
# Velocity S-wave (km/s) = 3.16954 3.68578 3.43736
# Velocity P-wave (km/s) = 4.89675 6.67530 5.85396
#
# Compressibility (1/GPa) = 0.04535478
#
# Stress axis : x y z
#
# Youngs Moduli (GPa) = 21.10947 95.39178 89.65062
#
# Poissons Ratio (x) = 0.70978 -0.09874
# Poissons Ratio (y) = 0.15707 0.49201
# Poissons Ratio (z) = -0.02325 0.52352
#
# Static dielectric constant tensor:
#      x y z
#    x 2.036730 0.000000 0.000000 
#    y 0.000000 1.864030 0.000000 
#    z 0.000000 0.000000 1.767100 
# 
# From -- ./inp_files/9365.got.cif
#   From: 2010.05.17/outbox.cif.g08.bks.cpg/sg72_5_cif.got.tgz:9365.got - 2010.06.03 17:03:01.
