data_PCOD9525434
_publ_section_title
;
Structure prediction by ZEFSAII (Michael W. Deem and Ramdas Pophale) SiO2 
 PCOD9525434
Probable space group: I B A M
;
_chemical_formula_sum "Si O2"
_cell_formula_units_Z 128
_cell_length_a 21.529129
_cell_length_b 18.785749
_cell_length_c 18.937030
_cell_angle_alpha 90.000000
_cell_angle_beta 90.000000
_cell_angle_gamma 90.000000
_cell_volume 7658.907820
_symmetry_space_group_name_H-M "I B A M"
_symmetry_group_IT_number 72
_symmetry_cell_setting 'orthorhombic'
loop_
_space_group_symop_operation_xyz
x,y,z
-x,-y,z
x,-y,1/2-z
-x,y,1/2-z
-x,-y,-z
x,y,-z
-x,y,1/2+z
x,-y,1/2+z
1/2+x,1/2+y,1/2+z
1/2-x,1/2-y,1/2+z
1/2+x,1/2-y,-z
1/2-x,1/2+y,-z
1/2-x,1/2-y,1/2-z
1/2+x,1/2+y,1/2-z
1/2-x,1/2+y,z
1/2+x,1/2-y,z
loop_
_atom_site_type_symbol
_atom_site_label
_atom_site_fract_x
_atom_site_fract_y
_atom_site_fract_z
Si Si1 0.072520 0.396105 0.329830
Si Si2 0.693220 0.381432 0.918794
Si Si3 0.930536 0.356737 0.324348
Si Si4 0.170422 0.311672 0.579634
Si Si5 0.382629 0.026562 0.582381
Si Si6 0.841768 0.769453 0.193655
Si Si7 0.736226 0.535394 0.083582
Si Si8 0.783900 0.818028 0.660988
O O1 0.085012 0.401776 0.246437
O O2 0.122812 0.344683 0.365246
O O3 0.079295 0.470268 0.370902
O O4 0.004071 0.362667 0.335665
O O5 0.764542 0.353792 0.915862
O O6 0.657266 0.330995 0.865042
O O7 0.696203 0.464900 0.900896
O O8 0.672451 0.373093 0.000000
O O9 0.898323 0.394742 0.390385
O O10 0.903069 0.278887 0.309371
O O11 0.146535 0.318853 0.500000
O O12 0.186332 0.231257 0.600414
O O13 0.397092 0.017239 0.500000
O O14 0.308983 0.015579 0.592316
O O15 0.824214 0.805027 0.268435
O O16 0.784367 0.715201 0.176934
O O17 0.721312 0.601906 0.133379
O O18 0.728450 0.553236 0.000000
#
# Coordination Sequence:
#
# PCOD9525434 Si02
#       8
#    16  16  16  16  16  16  16  16
#     4  11  22  37  54  72 103 149 182 220 266 311
#     4   9  19  33  51  75 108 141 171 215 272 322
#     4  11  23  38  52  72 107 144 183 226 268 311
#     4  10  18  32  53  76 103 138 179 221 260 316
#     4  11  22  35  52  77 109 144 186 220 252 314
#     4  10  20  34  51  77 104 139 180 225 269 320
#     4  10  19  33  52  78 109 143 173 216 275 326
#     4  10  19  32  52  76 104 137 178 222 271 325
#
# _framework density 16.712565999999999
#
# number of rings (size 3 to 8) (size 9 to 14) (size 15 to 20)
#    0.000    1.750    3.750    1.500    0.000    4.000 
#    2.250    0.000    0.000    0.000    0.000    0.875 
#    0.000    3.000    0.000    0.000    0.000    0.000 
#
# Total GULP energy -357070.749723 kJ/mol
# GULP energy per Si atom -5579.230464 kJ/mol
# Density = 1.667453 g / cm^3
# Si number density = 16.712566 Si / 1000 Ang^3
#
#
#
# Elastic Constant Matrix: (Units=GPa)
#
#
# Indices 1 2 3 4 5 6 
#
# 1 33.1473 19.1390 20.7212 0.0000 0.0000 0.0000
# 2 19.1390 109.6387 52.9379 0.0000 0.0000 0.0000
# 3 20.7212 52.9379 71.9085 0.0000 0.0000 0.0000
# 4 0.0000 0.0000 0.0000 31.1085 0.0000 0.0000
# 5 0.0000 0.0000 0.0000 0.0000 17.3754 0.0000
# 6 0.0000 0.0000 0.0000 0.0000 0.0000 23.5878
#
#
#
# Elastic Compliance Matrix: (Units=1/GPa)
#
#
# Indices 1 2 3 4 5 6 
#
# 1 0.037088 -0.002039 -0.009187 0.000000 0.000000 0.000000
# 2 -0.002039 0.014263 -0.009913 0.000000 0.000000 0.000000
# 3 -0.009187 -0.009913 0.023851 0.000000 0.000000 0.000000
# 4 0.000000 0.000000 0.000000 0.032146 0.000000 0.000000
# 5 0.000000 0.000000 0.000000 0.000000 0.057553 0.000000
# 6 0.000000 0.000000 0.000000 0.000000 0.000000 0.042395
#
#
# Mechanical properties :
#
#
# Convention : Reuss Voigt Hill
#
# Bulk Modulus (GPa) = 30.37047 44.47674 37.42361
# Shear Modulus (GPa) = 19.19040 22.54078 20.86559
#
# Velocity S-wave (km/s) = 3.39228 3.67649 3.53724
# Velocity P-wave (km/s) = 5.79267 6.68526 6.25491
#
# Compressibility (1/GPa) = 0.03292672
#
# Stress axis : x y z
#
# Youngs Moduli (GPa) = 26.96271 70.11148 41.92636
#
# Poissons Ratio (x) = 0.14293 0.38516
# Poissons Ratio (y) = 0.05497 0.41560
# Poissons Ratio (z) = 0.24769 0.69500
#
# Static dielectric constant tensor:
#      x y z
#    x 1.548150 0.000000 0.000000 
#    y 0.000000 1.567840 0.000000 
#    z 0.000000 0.000000 1.577820 
# 
# From -- ./inp_files/33550.got.cif
#   From: 2010.05.17/outbox.cif.g08.bks.cpg/sg72_17_cif.got.tgz:33550.got - 2010.06.03 17:03:01.
