data_PCOD9525933
_publ_section_title
;
Structure prediction by ZEFSAII (Michael W. Deem and Ramdas Pophale) SiO2 
 PCOD9525933
Probable space group: I B A M
;
_chemical_formula_sum "Si O2"
_cell_formula_units_Z 84
_cell_length_a 8.679717
_cell_length_b 21.248245
_cell_length_c 18.983256
_cell_angle_alpha 90.000000
_cell_angle_beta 90.000000
_cell_angle_gamma 90.000000
_cell_volume 3501.058239
_symmetry_space_group_name_H-M "I B A M"
_symmetry_group_IT_number 72
_symmetry_cell_setting 'orthorhombic'
loop_
_space_group_symop_operation_xyz
x,y,z
-x,-y,z
x,-y,1/2-z
-x,y,1/2-z
-x,-y,-z
x,y,-z
-x,y,1/2+z
x,-y,1/2+z
1/2+x,1/2+y,1/2+z
1/2-x,1/2-y,1/2+z
1/2+x,1/2-y,-z
1/2-x,1/2+y,-z
1/2-x,1/2-y,1/2-z
1/2+x,1/2+y,1/2-z
1/2-x,1/2+y,z
1/2+x,1/2-y,z
loop_
_atom_site_type_symbol
_atom_site_label
_atom_site_fract_x
_atom_site_fract_y
_atom_site_fract_z
Si Si1 0.500000 0.500000 0.250000
Si Si2 0.891073 0.788933 0.000000
Si Si3 0.335916 0.140235 0.500000
Si Si4 0.434987 0.301685 0.653789
Si Si5 0.320721 0.906014 0.500000
Si Si6 0.262466 0.427502 0.346209
Si Si7 0.772685 0.665686 0.841589
Si Si8 0.000000 0.419224 0.750000
O O1 0.397342 0.459858 0.303179
O O2 0.979147 0.804206 0.070783
O O3 0.740815 0.833370 0.000000
O O4 0.859181 0.715630 0.000000
O O5 0.495589 0.101092 0.500000
O O6 0.269234 0.133458 0.419970
O O7 0.300245 0.352996 0.661765
O O8 0.599990 0.319538 0.686957
O O9 0.364241 0.232392 0.662101
O O10 0.254751 0.937646 0.570461
O O11 0.107353 0.449722 0.308829
O O12 0.874023 0.620600 0.793344
#
# Coordination Sequence:
#
# PCOD9525933 Si02
#       8
#     4   8   8  16   8  16  16   8
#     4  12  28  50  76  96 128 174 224 308 364 414
#     4   8  19  28  59  87 130 176 217 258 310 384
#     4  10  19  32  57  92 134 178 223 260 318 394
#     4  10  21  37  57  94 133 177 222 267 321 398
#     4  10  20  43  66 100 135 179 229 282 324 408
#     4  11  25  46  71  99 132 176 231 287 351 403
#     4  11  22  33  59  91 138 180 217 262 322 402
#     4  12  24  40  64  96 128 172 212 270 340 414
#
# _framework density 23.992744999999999
#
# number of rings (size 3 to 8) (size 9 to 14) (size 15 to 20)
#    0.000    1.524    1.905    2.857   13.333    4.571 
#    0.000    0.000    0.000    3.429    0.000    0.000 
#    0.000    0.000    0.000    0.000    0.000    0.000 
#
# Total GULP energy -234562.865496 kJ/mol
# GULP energy per Si atom -5584.830131 kJ/mol
# Density = 2.393814 g / cm^3
# Si number density = 23.992745 Si / 1000 Ang^3
#
#
#
# Elastic Constant Matrix: (Units=GPa)
#
#
# Indices 1 2 3 4 5 6 
#
# 1 124.0038 6.6018 44.8492 0.0000 0.0000 0.0000
# 2 6.6018 39.8898 28.9603 0.0000 0.0000 0.0000
# 3 44.8492 28.9603 166.8296 0.0000 0.0000 0.0000
# 4 0.0000 0.0000 0.0000 6.0920 0.0000 0.0000
# 5 0.0000 0.0000 0.0000 0.0000 35.3678 0.0000
# 6 0.0000 0.0000 0.0000 0.0000 0.0000 -24.6844
#
#
#
# Elastic Compliance Matrix: (Units=1/GPa)
#
#
# Indices 1 2 3 4 5 6 
#
# 1 0.008936 0.000303 -0.002455 0.000000 0.000000 0.000000
# 2 0.000303 0.028694 -0.005063 0.000000 0.000000 0.000000
# 3 -0.002455 -0.005063 0.007533 0.000000 0.000000 0.000000
# 4 0.000000 0.000000 0.000000 0.164150 0.000000 0.000000
# 5 0.000000 0.000000 0.000000 0.000000 0.028274 0.000000
# 6 0.000000 0.000000 0.000000 0.000000 0.000000 -0.040511
#
#
# Mechanical properties :
#
#
# Convention : Reuss Voigt Hill
#
# Bulk Modulus (GPa) = 32.53633 54.61622 43.57627
# Shear Modulus (GPa) = 22.54790 20.04253 21.29522
#
# Velocity S-wave (km/s) = 3.06891 2.89339 2.98244
# Velocity P-wave (km/s) = 5.11351 5.82884 5.48285
#
# Compressibility (1/GPa) = 0.03073488
#
# Stress axis : x y z
#
# Youngs Moduli (GPa) = 111.90668 34.84999 132.74996
#
# Poissons Ratio (x) = -0.01057 0.32590
# Poissons Ratio (y) = -0.03395 0.67207
# Poissons Ratio (z) = 0.27473 0.17643
#
# Static dielectric constant tensor:
#      x y z
#    x 1.890080 0.000000 0.000000 
#    y 0.000000 1.902830 0.000000 
#    z 0.000000 0.000000 2.082520 
# 
# From -- ./inp_files/35820.got.cif
#   From: 2010.05.17/outbox.cif.g08.bks.cpg/sg72_18_cif.got.tgz:35820.got - 2010.06.03 17:03:01.
