data_PCOD9525082
_publ_section_title
;
Structure prediction by ZEFSAII (Michael W. Deem and Ramdas Pophale) SiO2 
 PCOD9525082
Probable space group: I B A M
;
_chemical_formula_sum "Si O2"
_cell_formula_units_Z 72
_cell_length_a 23.663713
_cell_length_b 14.005363
_cell_length_c 14.194733
_cell_angle_alpha 90.000000
_cell_angle_beta 90.000000
_cell_angle_gamma 90.000000
_cell_volume 4704.402662
_symmetry_space_group_name_H-M "I B A M"
_symmetry_group_IT_number 72
_symmetry_cell_setting 'orthorhombic'
loop_
_space_group_symop_operation_xyz
x,y,z
-x,-y,z
x,-y,1/2-z
-x,y,1/2-z
-x,-y,-z
x,y,-z
-x,y,1/2+z
x,-y,1/2+z
1/2+x,1/2+y,1/2+z
1/2-x,1/2-y,1/2+z
1/2+x,1/2-y,-z
1/2-x,1/2+y,-z
1/2-x,1/2-y,1/2-z
1/2+x,1/2+y,1/2-z
1/2-x,1/2+y,z
1/2+x,1/2-y,z
loop_
_atom_site_type_symbol
_atom_site_label
_atom_site_fract_x
_atom_site_fract_y
_atom_site_fract_z
Si Si1 0.779417 0.941075 0.500000
Si Si2 0.408892 0.438099 0.000000
Si Si3 0.662393 0.288149 0.204505
Si Si4 0.731992 0.101685 0.795495
Si Si5 0.846202 0.872522 0.000000
Si Si6 0.438089 0.397360 0.208215
O O1 0.843776 0.899881 0.500000
O O2 0.747857 0.911377 0.594738
O O3 0.792475 0.054885 0.500000
O O4 0.398547 0.552677 0.000000
O O5 0.438562 0.407440 0.095757
O O6 0.683347 0.180281 0.216646
O O7 0.712335 0.355860 0.244425
O O8 0.654365 0.312230 0.094684
O O9 0.605969 0.317848 0.259023
O O10 0.718282 0.000000 0.750000
O O11 0.417591 0.500000 0.250000
O O12 0.500000 0.381224 0.250000
#
# Coordination Sequence:
#
# PCOD9525082 Si02
#       6
#     8   8  16  16   8  16
#     4  10  17  31  53  71 110 132 175 205 264 307
#     4  10  18  32  54  72 108 135 173 213 252 316
#     4  11  20  33  51  76 104 135 173 213 258 310
#     4  11  20  33  52  75 105 136 170 214 259 309
#     4  10  17  30  54  70 110 131 171 209 260 311
#     4  11  21  34  53  74 106 141 172 215 261 309
#
# _framework density 15.304812999999999
#
# number of rings (size 3 to 8) (size 9 to 14) (size 15 to 20)
#    0.667    0.667    6.667    1.333    0.000    2.667 
#    0.000    1.111    0.000    0.667    0.000    0.000 
#    0.000    5.333    0.000    0.000    0.000    0.000 
#
# Total GULP energy -200786.774464 kJ/mol
# GULP energy per Si atom -5577.410402 kJ/mol
# Density = 1.526998 g / cm^3
# Si number density = 15.304813 Si / 1000 Ang^3
#
#
#
# Elastic Constant Matrix: (Units=GPa)
#
#
# Indices 1 2 3 4 5 6 
#
# 1 82.2308 53.2018 47.1736 0.0000 0.0000 0.0000
# 2 53.2018 103.3086 49.0592 0.0000 0.0000 0.0000
# 3 47.1736 49.0592 158.6990 0.0000 0.0000 0.0000
# 4 0.0000 0.0000 0.0000 13.1631 0.0000 0.0000
# 5 0.0000 0.0000 0.0000 0.0000 9.9475 0.0000
# 6 0.0000 0.0000 0.0000 0.0000 0.0000 20.6924
#
#
#
# Elastic Compliance Matrix: (Units=1/GPa)
#
#
# Indices 1 2 3 4 5 6 
#
# 1 0.019498 -0.008543 -0.003155 0.000000 0.000000 0.000000
# 2 -0.008543 0.015088 -0.002125 0.000000 0.000000 0.000000
# 3 -0.003155 -0.002125 0.007896 0.000000 0.000000 0.000000
# 4 0.000000 0.000000 0.000000 0.075970 0.000000 0.000000
# 5 0.000000 0.000000 0.000000 0.000000 0.100528 0.000000
# 6 0.000000 0.000000 0.000000 0.000000 0.000000 0.048327
#
#
# Mechanical properties :
#
#
# Convention : Reuss Voigt Hill
#
# Bulk Modulus (GPa) = 67.40030 71.45640 69.42835
# Shear Modulus (GPa) = 16.67237 21.74752 19.20994
#
# Velocity S-wave (km/s) = 3.30412 3.77365 3.54666
# Velocity P-wave (km/s) = 7.66097 8.11033 7.88885
#
# Compressibility (1/GPa) = 0.01483673
#
# Stress axis : x y z
#
# Youngs Moduli (GPa) = 51.28791 66.27718 126.64779
#
# Poissons Ratio (x) = 0.56619 0.39956
# Poissons Ratio (y) = 0.43814 0.26911
# Poissons Ratio (z) = 0.16181 0.14083
#
# Static dielectric constant tensor:
#      x y z
#    x 1.504280 0.000000 0.000000 
#    y 0.000000 1.495450 0.000000 
#    z 0.000000 0.000000 1.505960 
# 
# From -- ./inp_files/15335.got.cif
#   From: 2010.05.17/outbox.cif.g08.bks.cpg/sg72_8_cif.got.tgz:15335.got - 2010.06.03 17:03:01.
