data_PCOD9525800
_publ_section_title
;
Structure prediction by ZEFSAII (Michael W. Deem and Ramdas Pophale) SiO2 
 PCOD9525800
Probable space group: I B A M
;
_chemical_formula_sum "Si O2"
_cell_formula_units_Z 96
_cell_length_a 25.957206
_cell_length_b 26.048873
_cell_length_c 8.604139
_cell_angle_alpha 90.000000
_cell_angle_beta 90.000000
_cell_angle_gamma 90.000000
_cell_volume 5817.739887
_symmetry_space_group_name_H-M "I B A M"
_symmetry_group_IT_number 72
_symmetry_cell_setting 'orthorhombic'
loop_
_space_group_symop_operation_xyz
x,y,z
-x,-y,z
x,-y,1/2-z
-x,y,1/2-z
-x,-y,-z
x,y,-z
-x,y,1/2+z
x,-y,1/2+z
1/2+x,1/2+y,1/2+z
1/2-x,1/2-y,1/2+z
1/2+x,1/2-y,-z
1/2-x,1/2+y,-z
1/2-x,1/2-y,1/2-z
1/2+x,1/2+y,1/2-z
1/2-x,1/2+y,z
1/2+x,1/2-y,z
loop_
_atom_site_type_symbol
_atom_site_label
_atom_site_fract_x
_atom_site_fract_y
_atom_site_fract_z
Si Si1 0.865924 0.050675 0.817413
Si Si2 0.946456 0.876176 0.183538
Si Si3 0.828762 0.749996 0.686823
Si Si4 0.248087 0.945715 0.682805
Si Si5 0.552500 0.262124 0.312913
Si Si6 0.749033 0.834162 0.684520
O O1 0.900249 0.098891 0.777495
O O2 0.812232 0.054159 0.727764
O O3 0.893119 0.000000 0.750000
O O4 0.856227 0.046113 0.000000
O O5 0.946962 0.816207 0.223237
O O6 0.000000 0.897796 0.250000
O O7 0.941852 0.884844 0.000000
O O8 0.821573 0.746180 0.500000
O O9 0.889500 0.742039 0.717430
O O10 0.802887 0.805277 0.732897
O O11 0.794782 0.706615 0.769173
O O12 0.255142 0.947237 0.500000
O O13 0.264250 0.889697 0.744764
O O14 0.269276 0.000000 0.750000
O O15 0.500000 0.235188 0.250000
O O16 0.547837 0.269152 0.500000
O O17 0.752030 0.841092 0.500000
#
# Coordination Sequence:
#
# PCOD9525800 Si02
#       6
#    16  16  16  16  16  16
#     4  11  21  34  48  64  85 112 150 193 238 283
#     4  11  21  33  47  64  85 114 152 193 239 284
#     4   9  19  33  49  71 100 132 164 202 247 294
#     4  11  21  34  51  71  96 126 160 196 238 287
#     4  10  19  32  49  69  95 126 160 198 239 285
#     4  10  19  32  51  74 100 130 165 204 247 294
#
# _framework density 16.501252000000001
#
# number of rings (size 3 to 8) (size 9 to 14) (size 15 to 20)
#    0.000    1.667    0.000    8.500    0.000    3.667 
#    0.000    1.667    0.000    0.000    0.000    0.000 
#    0.000    0.667    0.000    7.000    0.000    3.833 
#
# Total GULP energy -267514.664890 kJ/mol
# GULP energy per Si atom -5573.222185 kJ/mol
# Density = 1.646369 g / cm^3
# Si number density = 16.501252 Si / 1000 Ang^3
#
#
#
# Elastic Constant Matrix: (Units=GPa)
#
#
# Indices 1 2 3 4 5 6 
#
# 1 65.0973 15.6066 19.5647 0.0000 0.0000 0.0000
# 2 15.6066 87.5118 36.6998 0.0000 0.0000 0.0000
# 3 19.5647 36.6998 76.3335 0.0000 0.0000 0.0000
# 4 0.0000 0.0000 0.0000 27.5750 0.0000 0.0000
# 5 0.0000 0.0000 0.0000 0.0000 21.6081 0.0000
# 6 0.0000 0.0000 0.0000 0.0000 0.0000 19.9247
#
#
#
# Elastic Compliance Matrix: (Units=1/GPa)
#
#
# Indices 1 2 3 4 5 6 
#
# 1 0.016798 -0.001491 -0.003589 0.000000 0.000000 0.000000
# 2 -0.001491 0.014445 -0.006563 0.000000 0.000000 0.000000
# 3 -0.003589 -0.006563 0.017176 0.000000 0.000000 0.000000
# 4 0.000000 0.000000 0.000000 0.036265 0.000000 0.000000
# 5 0.000000 0.000000 0.000000 0.000000 0.046279 0.000000
# 6 0.000000 0.000000 0.000000 0.000000 0.000000 0.050189
#
#
# Mechanical properties :
#
#
# Convention : Reuss Voigt Hill
#
# Bulk Modulus (GPa) = 39.78704 41.40945 40.59824
# Shear Modulus (GPa) = 23.49479 24.29300 23.89390
#
# Velocity S-wave (km/s) = 3.77745 3.84108 3.80939
# Velocity P-wave (km/s) = 6.57186 6.69485 6.63364
#
# Compressibility (1/GPa) = 0.02513382
#
# Stress axis : x y z
#
# Youngs Moduli (GPa) = 59.53253 69.22736 58.22241
#
# Poissons Ratio (x) = 0.10320 0.20894
# Poissons Ratio (y) = 0.08874 0.38211
# Poissons Ratio (z) = 0.21364 0.45433
#
# Static dielectric constant tensor:
#      x y z
#    x 1.584770 0.000000 0.000000 
#    y 0.000000 1.657690 0.000000 
#    z 0.000000 0.000000 1.554570 
# 
# From -- ./inp_files/8282.got.cif
#   From: 2010.05.17/outbox.cif.g08.bks.cpg/sg72_5_cif.got.tgz:8282.got - 2010.06.03 17:03:01.
