data_PCOD9525686
_publ_section_title
;
Structure prediction by ZEFSAII (Michael W. Deem and Ramdas Pophale) SiO2 
 PCOD9525686
Probable space group: I B A M
;
_chemical_formula_sum "Si O2"
_cell_formula_units_Z 112
_cell_length_a 5.275321
_cell_length_b 32.198434
_cell_length_c 30.867168
_cell_angle_alpha 90.000000
_cell_angle_beta 90.000000
_cell_angle_gamma 90.000000
_cell_volume 5243.006871
_symmetry_space_group_name_H-M "I B A M"
_symmetry_group_IT_number 72
_symmetry_cell_setting 'orthorhombic'
loop_
_space_group_symop_operation_xyz
x,y,z
-x,-y,z
x,-y,1/2-z
-x,y,1/2-z
-x,-y,-z
x,y,-z
-x,y,1/2+z
x,-y,1/2+z
1/2+x,1/2+y,1/2+z
1/2-x,1/2-y,1/2+z
1/2+x,1/2-y,-z
1/2-x,1/2+y,-z
1/2-x,1/2-y,1/2-z
1/2+x,1/2+y,1/2-z
1/2-x,1/2+y,z
1/2+x,1/2-y,z
loop_
_atom_site_type_symbol
_atom_site_label
_atom_site_fract_x
_atom_site_fract_y
_atom_site_fract_z
Si Si1 0.419470 0.416961 0.115782
Si Si2 0.681904 0.119774 0.548721
Si Si3 0.565405 0.836105 0.295806
Si Si4 0.635099 0.166514 0.110630
Si Si5 0.932084 0.892147 0.794668
Si Si6 0.085526 0.777856 0.950906
Si Si7 0.819148 0.539458 0.046111
O O1 0.606095 0.397114 0.080547
O O2 0.539828 0.419965 0.162791
O O3 0.327094 0.457665 0.091169
O O4 0.206331 0.381286 0.121712
O O5 0.768416 0.128363 0.500000
O O6 0.562805 0.160004 0.571676
O O7 0.479220 0.082184 0.545425
O O8 0.500000 0.813389 0.250000
O O9 0.547572 0.814822 0.343349
O O10 0.849879 0.855665 0.294628
O O11 0.345432 0.871488 0.295599
O O12 0.866710 0.190076 0.088058
O O13 0.000000 0.914875 0.750000
O O14 0.822762 0.753637 0.947084
O O15 0.102621 0.795649 0.000000
O O16 0.000000 0.500000 0.046208
O O17 0.671377 0.538976 0.000000
#
# Coordination Sequence:
#
# PCOD9525686 Si02
#       7
#    16  16  16  16  16  16  16
#     4  10  19  31  51  79 106 135 181 228 273 326
#     4  10  19  30  50  78 104 134 175 222 271 320
#     4   9  17  30  51  79 108 135 169 218 273 323
#     4  10  20  34  53  76 108 137 176 226 276 314
#     4   9  17  30  49  77 110 135 170 221 274 320
#     4  10  23  39  54  75 105 147 189 219 262 326
#     4   9  19  34  48  70 108 147 181 218 266 329
#
# _framework density 21.361788000000001
#
# number of rings (size 3 to 8) (size 9 to 14) (size 15 to 20)
#    0.000    2.429    1.429    0.857    2.000    2.286 
#    0.000    2.143    0.000    0.857    0.000    3.000 
#    0.000    0.000    0.000    0.000    0.000    0.000 
#
# Total GULP energy -311971.309216 kJ/mol
# GULP energy per Si atom -5570.916236 kJ/mol
# Density = 2.131317 g / cm^3
# Si number density = 21.361788 Si / 1000 Ang^3
#
#
#
# Elastic Constant Matrix: (Units=GPa)
#
#
# Indices 1 2 3 4 5 6 
#
# 1 77.3891 12.3064 8.7238 0.0000 0.0000 0.0000
# 2 12.3064 42.9203 23.6955 0.0000 0.0000 0.0000
# 3 8.7238 23.6955 177.6871 0.0000 0.0000 0.0000
# 4 0.0000 0.0000 0.0000 14.5547 0.0000 0.0000
# 5 0.0000 0.0000 0.0000 0.0000 30.1776 0.0000
# 6 0.0000 0.0000 0.0000 0.0000 0.0000 26.9256
#
#
#
# Elastic Compliance Matrix: (Units=1/GPa)
#
#
# Indices 1 2 3 4 5 6 
#
# 1 0.013543 -0.003796 -0.000159 0.000000 0.000000 0.000000
# 2 -0.003796 0.026214 -0.003309 0.000000 0.000000 0.000000
# 3 -0.000159 -0.003309 0.006077 0.000000 0.000000 0.000000
# 4 0.000000 0.000000 0.000000 0.068707 0.000000 0.000000
# 5 0.000000 0.000000 0.000000 0.000000 0.033137 0.000000
# 6 0.000000 0.000000 0.000000 0.000000 0.000000 0.037139
#
#
# Mechanical properties :
#
#
# Convention : Reuss Voigt Hill
#
# Bulk Modulus (GPa) = 31.94171 43.04974 37.49572
# Shear Modulus (GPa) = 23.83439 31.21629 27.52534
#
# Velocity S-wave (km/s) = 3.34391 3.82686 3.59351
# Velocity P-wave (km/s) = 5.46755 6.30261 5.89988
#
# Compressibility (1/GPa) = 0.03130703
#
# Stress axis : x y z
#
# Youngs Moduli (GPa) = 73.83791 38.14698 164.55485
#
# Poissons Ratio (x) = 0.14479 0.02613
# Poissons Ratio (y) = 0.28025 0.54459
# Poissons Ratio (z) = 0.01172 0.12625
#
# Static dielectric constant tensor:
#      x y z
#    x 1.873430 0.000000 0.000000 
#    y 0.000000 1.760560 0.000000 
#    z 0.000000 0.000000 1.896530 
# 
# From -- ./inp_files/50445.got.cif
#   From: 2010.05.17/outbox.cif.g08.bks.cpg/sg72_26_cif.got.tgz:50445.got - 2010.06.03 17:03:01.
