data_PCOD9525295
_publ_section_title
;
Structure prediction by ZEFSAII (Michael W. Deem and Ramdas Pophale) SiO2 
 PCOD9525295
Probable space group: I B A M
;
_chemical_formula_sum "Si O2"
_cell_formula_units_Z 116
_cell_length_a 26.722689
_cell_length_b 27.131971
_cell_length_c 10.183509
_cell_angle_alpha 90.000000
_cell_angle_beta 90.000000
_cell_angle_gamma 90.000000
_cell_volume 7383.443453
_symmetry_space_group_name_H-M "I B A M"
_symmetry_group_IT_number 72
_symmetry_cell_setting 'orthorhombic'
loop_
_space_group_symop_operation_xyz
x,y,z
-x,-y,z
x,-y,1/2-z
-x,y,1/2-z
-x,-y,-z
x,y,-z
-x,y,1/2+z
x,-y,1/2+z
1/2+x,1/2+y,1/2+z
1/2-x,1/2-y,1/2+z
1/2+x,1/2-y,-z
1/2-x,1/2+y,-z
1/2-x,1/2-y,1/2-z
1/2+x,1/2+y,1/2-z
1/2-x,1/2+y,z
1/2+x,1/2-y,z
loop_
_atom_site_type_symbol
_atom_site_label
_atom_site_fract_x
_atom_site_fract_y
_atom_site_fract_z
Si Si1 0.315571 0.847911 0.157822
Si Si2 0.210943 0.455444 0.843540
Si Si3 0.413483 0.569184 0.149297
Si Si4 0.861164 0.250198 0.655542
Si Si5 0.205151 0.185888 0.347231
Si Si6 0.000000 0.000000 0.250000
Si Si7 0.545666 0.679809 0.651966
Si Si8 0.172813 0.927156 0.851482
O O1 0.315278 0.904433 0.202121
O O2 0.358078 0.808196 0.190160
O O3 0.262416 0.823493 0.194344
O O4 0.313786 0.852183 0.000000
O O5 0.195909 0.500000 0.750000
O O6 0.271087 0.447327 0.829993
O O7 0.201731 0.463623 0.000000
O O8 0.462312 0.535339 0.170251
O O9 0.429235 0.626128 0.171898
O O10 0.368956 0.556855 0.248906
O O11 0.395745 0.564476 0.000000
O O12 0.847918 0.245448 0.500000
O O13 0.822352 0.221867 0.748100
O O14 0.913751 0.222744 0.672669
O O15 0.204183 0.202595 0.500000
O O16 0.179064 0.132159 0.343644
O O17 0.500000 0.684990 0.750000
O O18 0.529042 0.681403 0.500000
O O19 0.157377 0.940112 0.000000
#
# Coordination Sequence:
#
# PCOD9525295 Si02
#       8
#    16  16  16  16  16   4  16  16
#     4   8  16  30  47  68  98 127 154 185 227 282
#     4   9  18  33  49  69  96 129 159 186 223 271
#     4  11  23  38  52  66  84 113 160 208 248 290
#     4  10  18  30  49  71  93 121 154 193 235 282
#     4   9  16  28  46  69  95 125 151 180 230 287
#     4  12  26  40  48  62  86 120 156 210 268 292
#     4  10  21  36  52  70  90 118 157 200 247 293
#     4   9  19  33  49  67  91 121 153 190 237 284
#
# _framework density 15.710826000000001
#
# number of rings (size 3 to 8) (size 9 to 14) (size 15 to 20)
#    0.000    2.483    2.069    2.276    0.966    2.759 
#    0.000    2.759    0.000    0.000    0.000    0.000 
#    0.000    0.552    0.000    6.897    0.000    0.000 
#
# Total GULP energy -323238.193500 kJ/mol
# GULP energy per Si atom -5573.072302 kJ/mol
# Density = 1.567507 g / cm^3
# Si number density = 15.710826 Si / 1000 Ang^3
#
#
#
# Elastic Constant Matrix: (Units=GPa)
#
#
# Indices 1 2 3 4 5 6 
#
# 1 38.0344 37.4118 31.4125 0.0000 0.0000 0.0000
# 2 37.4118 109.3680 53.1270 0.0000 0.0000 0.0000
# 3 31.4125 53.1270 58.8124 0.0000 0.0000 0.0000
# 4 0.0000 0.0000 0.0000 24.2130 0.0000 0.0000
# 5 0.0000 0.0000 0.0000 0.0000 13.2863 0.0000
# 6 0.0000 0.0000 0.0000 0.0000 0.0000 20.8300
#
#
#
# Elastic Compliance Matrix: (Units=1/GPa)
#
#
# Indices 1 2 3 4 5 6 
#
# 1 0.050185 -0.007388 -0.020130 0.000000 0.000000 0.000000
# 2 -0.007388 0.017381 -0.011754 0.000000 0.000000 0.000000
# 3 -0.020130 -0.011754 0.038373 0.000000 0.000000 0.000000
# 4 0.000000 0.000000 0.000000 0.041300 0.000000 0.000000
# 5 0.000000 0.000000 0.000000 0.000000 0.075265 0.000000
# 6 0.000000 0.000000 0.000000 0.000000 0.000000 0.048008
#
#
# Mechanical properties :
#
#
# Convention : Reuss Voigt Hill
#
# Bulk Modulus (GPa) = 36.50593 50.01306 43.25949
# Shear Modulus (GPa) = 13.95912 17.28344 15.62128
#
# Velocity S-wave (km/s) = 2.98401 3.32037 3.15667
# Velocity P-wave (km/s) = 5.92951 6.82660 6.39380
#
# Compressibility (1/GPa) = 0.02739281
#
# Stress axis : x y z
#
# Youngs Moduli (GPa) = 19.92624 57.53562 26.05993
#
# Poissons Ratio (x) = 0.42509 0.52460
# Poissons Ratio (y) = 0.14722 0.30631
# Poissons Ratio (z) = 0.40112 0.67628
#
# Static dielectric constant tensor:
#      x y z
#    x 1.506710 0.000000 0.000000 
#    y 0.000000 1.566490 0.000000 
#    z 0.000000 0.000000 1.523970 
# 
# From -- ./inp_files/7548.got.cif
#   From: 2010.05.17/outbox.cif.g08.bks.cpg/sg72_4_cif.got.tgz:7548.got - 2010.06.03 17:03:01.
