data_PCOD9525910
_publ_section_title
;
Structure prediction by ZEFSAII (Michael W. Deem and Ramdas Pophale) SiO2 
 PCOD9525910
Probable space group: I B A M
;
_chemical_formula_sum "Si O2"
_cell_formula_units_Z 116
_cell_length_a 26.404336
_cell_length_b 24.014262
_cell_length_c 9.167014
_cell_angle_alpha 90.000000
_cell_angle_beta 90.000000
_cell_angle_gamma 90.000000
_cell_volume 5812.626128
_symmetry_space_group_name_H-M "I B A M"
_symmetry_group_IT_number 72
_symmetry_cell_setting 'orthorhombic'
loop_
_space_group_symop_operation_xyz
x,y,z
-x,-y,z
x,-y,1/2-z
-x,y,1/2-z
-x,-y,-z
x,y,-z
-x,y,1/2+z
x,-y,1/2+z
1/2+x,1/2+y,1/2+z
1/2-x,1/2-y,1/2+z
1/2+x,1/2-y,-z
1/2-x,1/2+y,-z
1/2-x,1/2-y,1/2-z
1/2+x,1/2+y,1/2-z
1/2-x,1/2+y,z
1/2+x,1/2-y,z
loop_
_atom_site_type_symbol
_atom_site_label
_atom_site_fract_x
_atom_site_fract_y
_atom_site_fract_z
Si Si1 0.000000 0.000000 0.250000
Si Si2 0.815101 0.779040 0.334503
Si Si3 0.165173 0.668484 0.673255
Si Si4 0.775284 0.553590 0.827238
Si Si5 0.563107 0.285568 0.339800
Si Si6 0.450439 0.179333 0.329594
Si Si7 0.317760 0.605395 0.826225
Si Si8 0.579621 0.590265 0.837850
O O1 0.961199 0.041410 0.169517
O O2 0.769053 0.455285 0.500000
O O3 0.807472 0.719533 0.256644
O O4 0.876055 0.782633 0.346674
O O5 0.803870 0.833541 0.238893
O O6 0.164399 0.681957 0.500000
O O7 0.192749 0.609975 0.694018
O O8 0.106147 0.662388 0.721020
O O9 0.799417 0.500000 0.750000
O O10 0.721875 0.564207 0.748535
O O11 0.705990 0.717942 0.000000
O O12 0.544591 0.266259 0.500000
O O13 0.548897 0.245198 0.208854
O O14 0.552044 0.350312 0.319500
O O15 0.500000 0.155226 0.250000
O O16 0.453957 0.168613 0.500000
O O17 0.374628 0.588726 0.776984
O O18 0.313755 0.605537 0.000000
O O19 0.603272 0.591018 0.000000
#
# Coordination Sequence:
#
# PCOD9525910 Si02
#       8
#     4  16  16  16  16  16  16  16
#     4  12  26  40  60  86 110 156 212 258 314 352
#     4   9  17  33  59  90 122 154 191 242 300 354
#     4   9  20  38  60  88 123 159 196 243 293 354
#     4  11  24  43  65  89 118 154 200 249 299 352
#     4   8  16  32  52  77 109 148 188 234 287 340
#     4  10  19  32  54  86 118 151 187 226 281 347
#     4  11  23  40  64  90 118 156 201 249 305 364
#     4  10  23  42  59  80 113 151 200 255 305 354
#
# _framework density 19.956557
#
# number of rings (size 3 to 8) (size 9 to 14) (size 15 to 20)
#    0.000    2.207    0.000    3.517    1.931    6.621 
#    0.000    0.000    0.000    0.414    0.000    2.897 
#    0.000    0.000    0.000    0.000    0.000    0.000 
#
# Total GULP energy -323650.698927 kJ/mol
# GULP energy per Si atom -5580.184464 kJ/mol
# Density = 1.991113 g / cm^3
# Si number density = 19.956557 Si / 1000 Ang^3
#
#
#
# Elastic Constant Matrix: (Units=GPa)
#
#
# Indices 1 2 3 4 5 6 
#
# 1 73.3537 25.2923 36.3205 0.0000 0.0000 0.0000
# 2 25.2923 102.5599 55.2502 0.0000 0.0000 0.0000
# 3 36.3205 55.2502 118.3500 0.0000 0.0000 0.0000
# 4 0.0000 0.0000 0.0000 22.9941 0.0000 0.0000
# 5 0.0000 0.0000 0.0000 0.0000 25.2319 0.0000
# 6 0.0000 0.0000 0.0000 0.0000 0.0000 23.8118
#
#
#
# Elastic Compliance Matrix: (Units=1/GPa)
#
#
# Indices 1 2 3 4 5 6 
#
# 1 0.016313 -0.001771 -0.004179 0.000000 0.000000 0.000000
# 2 -0.001771 0.013219 -0.005627 0.000000 0.000000 0.000000
# 3 -0.004179 -0.005627 0.012359 0.000000 0.000000 0.000000
# 4 0.000000 0.000000 0.000000 0.043489 0.000000 0.000000
# 5 0.000000 0.000000 0.000000 0.000000 0.039632 0.000000
# 6 0.000000 0.000000 0.000000 0.000000 0.000000 0.041996
#
#
# Mechanical properties :
#
#
# Convention : Reuss Voigt Hill
#
# Bulk Modulus (GPa) = 53.37752 58.66551 56.02152
# Shear Modulus (GPa) = 25.45703 26.23426 25.84565
#
# Velocity S-wave (km/s) = 3.57546 3.62963 3.60265
# Velocity P-wave (km/s) = 6.62194 6.85756 6.74078
#
# Compressibility (1/GPa) = 0.01873448
#
# Stress axis : x y z
#
# Youngs Moduli (GPa) = 61.30193 75.64983 80.91172
#
# Poissons Ratio (x) = 0.13401 0.33815
# Poissons Ratio (y) = 0.10860 0.45532
# Poissons Ratio (z) = 0.25619 0.42571
#
# Static dielectric constant tensor:
#      x y z
#    x 1.767460 0.000000 0.000000 
#    y 0.000000 1.706060 0.000000 
#    z 0.000000 0.000000 1.718950 
# 
# From -- ./inp_files/8404.got.cif
#   From: 2010.05.17/outbox.cif.g08.bks.cpg/sg72_5_cif.got.tgz:8404.got - 2010.06.03 17:03:01.
