data_PCOD9525827
_publ_section_title
;
Structure prediction by ZEFSAII (Michael W. Deem and Ramdas Pophale) SiO2 
 PCOD9525827
Probable space group: I B A M
;
_chemical_formula_sum "Si O2"
_cell_formula_units_Z 96
_cell_length_a 10.830354
_cell_length_b 29.369603
_cell_length_c 14.566688
_cell_angle_alpha 90.000000
_cell_angle_beta 90.000000
_cell_angle_gamma 90.000000
_cell_volume 4633.418694
_symmetry_space_group_name_H-M "I B A M"
_symmetry_group_IT_number 72
_symmetry_cell_setting 'orthorhombic'
loop_
_space_group_symop_operation_xyz
x,y,z
-x,-y,z
x,-y,1/2-z
-x,y,1/2-z
-x,-y,-z
x,y,-z
-x,y,1/2+z
x,-y,1/2+z
1/2+x,1/2+y,1/2+z
1/2-x,1/2-y,1/2+z
1/2+x,1/2-y,-z
1/2-x,1/2+y,-z
1/2-x,1/2-y,1/2-z
1/2+x,1/2+y,1/2-z
1/2-x,1/2+y,z
1/2+x,1/2-y,z
loop_
_atom_site_type_symbol
_atom_site_label
_atom_site_fract_x
_atom_site_fract_y
_atom_site_fract_z
Si Si1 0.624348 0.979999 0.352749
Si Si2 0.373664 0.518275 0.854022
Si Si3 0.521295 0.112886 0.110673
Si Si4 0.021977 0.716580 0.388066
Si Si5 0.761183 0.784177 0.887854
Si Si6 0.264316 0.611885 0.110808
O O1 0.750208 0.996989 0.396972
O O2 0.609661 0.925900 0.351196
O O3 0.500000 0.000000 0.396962
O O4 0.625307 0.000000 0.250000
O O5 0.500000 0.500000 0.896108
O O6 0.375058 0.500000 0.750000
O O7 0.353773 0.572457 0.853859
O O8 0.547994 0.164454 0.140405
O O9 0.378876 0.101927 0.134798
O O10 0.529893 0.111630 0.000000
O O11 0.022293 0.716992 0.500000
O O12 0.880270 0.727749 0.360844
O O13 0.130622 0.750218 0.357602
O O14 0.788681 0.836247 0.859306
O O15 0.761106 0.783936 0.000000
O O16 0.271905 0.611007 0.000000
#
# Coordination Sequence:
#
# PCOD9525827 Si02
#       6
#    16  16  16  16  16  16
#     4  10  19  32  51  72  92 122 171 205 231 285
#     4  10  21  36  50  67  96 130 167 200 246 293
#     4   9  17  29  48  75 102 128 159 201 246 280
#     4   8  14  26  43  65  96 128 157 189 232 285
#     4   8  14  26  44  66  95 128 156 189 235 284
#     4   9  17  30  49  73 101 131 161 197 243 288
#
# _framework density 20.719042999999999
#
# number of rings (size 3 to 8) (size 9 to 14) (size 15 to 20)
#    0.000    3.000    1.667    2.000    0.000    1.333 
#    3.000    0.000    0.000    0.000    0.000    9.333 
#    0.000    0.000    0.000    0.000    0.000    0.333 
#
# Total GULP energy -267802.091346 kJ/mol
# GULP energy per Si atom -5579.210236 kJ/mol
# Density = 2.067189 g / cm^3
# Si number density = 20.719043 Si / 1000 Ang^3
#
#
#
# Elastic Constant Matrix: (Units=GPa)
#
#
# Indices 1 2 3 4 5 6 
#
# 1 176.0604 106.8855 2.5959 -0.0001 0.0000 0.0000
# 2 106.8855 174.9233 16.2389 0.0000 0.0000 0.0000
# 3 2.5959 16.2389 64.3539 -0.0008 0.0003 0.0000
# 4 -0.0001 0.0000 -0.0008 32.6113 0.0001 0.0000
# 5 0.0000 0.0000 0.0003 0.0001 -10.1944 -0.0001
# 6 0.0000 0.0000 0.0000 0.0000 -0.0001 39.2318
#
#
#
# Elastic Compliance Matrix: (Units=1/GPa)
#
#
# Indices 1 2 3 4 5 6 
#
# 1 0.009100 -0.005659 0.001061 0.000000 0.000000 0.000000
# 2 -0.005659 0.009373 -0.002137 0.000000 0.000000 0.000000
# 3 0.001061 -0.002137 0.016035 0.000000 0.000000 0.000000
# 4 0.000000 0.000000 0.000000 0.030664 0.000000 0.000000
# 5 0.000000 0.000000 0.000000 0.000000 -0.098093 0.000000
# 6 0.000000 0.000000 0.000000 0.000000 0.000000 0.025490
#
#
# Mechanical properties :
#
#
# Convention : Reuss Voigt Hill
#
# Bulk Modulus (GPa) = 47.53192 74.08647 60.80919
# Shear Modulus (GPa) = 383.10652 31.63756 207.37204
#
# Velocity S-wave (km/s) = 13.61275 3.91190 10.01524
# Velocity P-wave (km/s) = 16.43371 7.49928 12.77314
#
# Compressibility (1/GPa) = 0.02103849
#
# Stress axis : x y z
#
# Youngs Moduli (GPa) = 109.89473 106.69076 62.36166
#
# Poissons Ratio (x) = 0.60373 -0.06616
# Poissons Ratio (y) = 0.62186 0.13326
# Poissons Ratio (z) = -0.11658 0.22798
#
# Static dielectric constant tensor:
#      x y z
#    x 1.791990 0.000000 0.000000 
#    y 0.000000 1.739390 0.000000 
#    z 0.000000 0.000000 1.691340 
# 
# From -- ./inp_files/29568.got.cif
#   From: 2010.05.17/outbox.cif.g08.bks.cpg/sg72_15_cif.got.tgz:29568.got - 2010.06.03 17:03:01.
