data_PCOD9525206
_publ_section_title
;
Structure prediction by ZEFSAII (Michael W. Deem and Ramdas Pophale) SiO2 
 PCOD9525206
Probable space group: I B A M
;
_chemical_formula_sum "Si O2"
_cell_formula_units_Z 116
_cell_length_a 35.237029
_cell_length_b 25.040719
_cell_length_c 9.272581
_cell_angle_alpha 90.000000
_cell_angle_beta 90.000000
_cell_angle_gamma 90.000000
_cell_volume 8181.759593
_symmetry_space_group_name_H-M "I B A M"
_symmetry_group_IT_number 72
_symmetry_cell_setting 'orthorhombic'
loop_
_space_group_symop_operation_xyz
x,y,z
-x,-y,z
x,-y,1/2-z
-x,y,1/2-z
-x,-y,-z
x,y,-z
-x,y,1/2+z
x,-y,1/2+z
1/2+x,1/2+y,1/2+z
1/2-x,1/2-y,1/2+z
1/2+x,1/2-y,-z
1/2-x,1/2+y,-z
1/2-x,1/2-y,1/2-z
1/2+x,1/2+y,1/2-z
1/2-x,1/2+y,z
1/2+x,1/2-y,z
loop_
_atom_site_type_symbol
_atom_site_label
_atom_site_fract_x
_atom_site_fract_y
_atom_site_fract_z
Si Si1 0.632797 0.593880 0.171370
Si Si2 0.616642 0.718676 0.826873
Si Si3 0.960916 0.796509 0.827883
Si Si4 0.743126 0.330598 0.669973
Si Si5 0.000000 0.000000 0.250000
Si Si6 0.284830 0.554027 0.326846
Si Si7 0.811084 0.747606 0.170272
Si Si8 0.438778 0.580899 0.158740
O O1 0.629029 0.657040 0.205331
O O2 0.672274 0.569031 0.222854
O O3 0.594931 0.567597 0.232906
O O4 0.632693 0.589358 0.000000
O O5 0.576223 0.727507 0.749837
O O6 0.649878 0.753984 0.757993
O O7 0.613923 0.724220 0.000000
O O8 0.955723 0.860655 0.808287
O O9 0.000000 0.780600 0.750000
O O10 0.961703 0.786080 0.000000
O O11 0.732239 0.324195 0.500000
O O12 0.739773 0.393038 0.703978
O O13 0.784419 0.304387 0.688188
O O14 0.714049 0.296126 0.765186
O O15 0.972285 0.961447 0.162870
O O16 0.272382 0.500000 0.250000
O O17 0.285242 0.546560 0.500000
O O18 0.818016 0.755645 0.000000
O O19 0.421446 0.583903 0.000000
#
# Coordination Sequence:
#
# PCOD9525206 Si02
#       8
#    16  16  16  16   4  16  16  16
#     4   9  19  34  48  59  79 106 134 170 219 267
#     4  10  18  31  49  66  87 113 138 175 225 270
#     4  10  19  33  47  63  82 106 138 172 213 264
#     4   9  18  33  47  63  91 119 142 176 225 268
#     4  12  22  36  44  58  70  96 132 178 230 272
#     4  10  20  34  47  63  86 116 146 177 215 263
#     4  10  18  28  48  72  89 110 143 182 221 268
#     4  10  22  34  45  57  72  95 129 173 217 264
#
# _framework density 14.17788
#
# number of rings (size 3 to 8) (size 9 to 14) (size 15 to 20)
#    0.000    2.207    2.069    1.448    0.966    3.862 
#    0.000    0.000    0.000    0.000    0.000    0.000 
#    0.000    0.000    0.000    0.000    0.000    0.690 
#
# Total GULP energy -323382.909655 kJ/mol
# GULP energy per Si atom -5575.567408 kJ/mol
# Density = 1.414561 g / cm^3
# Si number density = 14.177880 Si / 1000 Ang^3
#
#
#
# Elastic Constant Matrix: (Units=GPa)
#
#
# Indices 1 2 3 4 5 6 
#
# 1 93.4046 38.0287 49.6620 0.0000 0.0000 0.0000
# 2 38.0287 61.0483 29.1398 0.0000 0.0000 0.0000
# 3 49.6620 29.1398 53.4324 0.0000 0.0000 0.0000
# 4 0.0000 0.0000 0.0000 11.3491 0.0000 0.0000
# 5 0.0000 0.0000 0.0000 0.0000 21.6026 0.0000
# 6 0.0000 0.0000 0.0000 0.0000 0.0000 20.1830
#
#
#
# Elastic Compliance Matrix: (Units=1/GPa)
#
#
# Indices 1 2 3 4 5 6 
#
# 1 0.022424 -0.005435 -0.017878 0.000000 0.000000 0.000000
# 2 -0.005435 0.023463 -0.007744 0.000000 0.000000 0.000000
# 3 -0.017878 -0.007744 0.039555 0.000000 0.000000 0.000000
# 4 0.000000 0.000000 0.000000 0.088113 0.000000 0.000000
# 5 0.000000 0.000000 0.000000 0.000000 0.046291 0.000000
# 6 0.000000 0.000000 0.000000 0.000000 0.000000 0.049547
#
#
# Mechanical properties :
#
#
# Convention : Reuss Voigt Hill
#
# Bulk Modulus (GPa) = 42.86728 49.06071 45.96399
# Shear Modulus (GPa) = 14.73703 16.69728 15.71715
#
# Velocity S-wave (km/s) = 3.22753 3.43548 3.33313
# Velocity P-wave (km/s) = 6.64757 7.10039 6.87771
#
# Compressibility (1/GPa) = 0.02332782
#
# Stress axis : x y z
#
# Youngs Moduli (GPa) = 44.59415 42.62120 25.28142
#
# Poissons Ratio (x) = 0.23166 0.45198
# Poissons Ratio (y) = 0.24238 0.19577
# Poissons Ratio (z) = 0.79725 0.33005
#
# Static dielectric constant tensor:
#      x y z
#    x 1.472730 0.000000 0.000000 
#    y 0.000000 1.456050 0.000000 
#    z 0.000000 0.000000 1.483970 
# 
# From -- ./inp_files/9472.got.cif
#   From: 2010.05.17/outbox.cif.g08.bks.cpg/sg72_5_cif.got.tgz:9472.got - 2010.06.03 17:03:01.
