data_PCOD9525015
_publ_section_title
;
Structure prediction by ZEFSAII (Michael W. Deem and Ramdas Pophale) SiO2 
 PCOD9525015
Probable space group: I B A M
;
_chemical_formula_sum "Si O2"
_cell_formula_units_Z 80
_cell_length_a 10.224302
_cell_length_b 26.298160
_cell_length_c 16.129496
_cell_angle_alpha 90.000000
_cell_angle_beta 90.000000
_cell_angle_gamma 90.000000
_cell_volume 4336.904205
_symmetry_space_group_name_H-M "I B A M"
_symmetry_group_IT_number 72
_symmetry_cell_setting 'orthorhombic'
loop_
_space_group_symop_operation_xyz
x,y,z
-x,-y,z
x,-y,1/2-z
-x,y,1/2-z
-x,-y,-z
x,y,-z
-x,y,1/2+z
x,-y,1/2+z
1/2+x,1/2+y,1/2+z
1/2-x,1/2-y,1/2+z
1/2+x,1/2-y,-z
1/2-x,1/2+y,-z
1/2-x,1/2-y,1/2-z
1/2+x,1/2+y,1/2-z
1/2-x,1/2+y,z
1/2+x,1/2-y,z
loop_
_atom_site_type_symbol
_atom_site_label
_atom_site_fract_x
_atom_site_fract_y
_atom_site_fract_z
Si Si1 0.314498 0.032078 0.094727
Si Si2 0.627901 0.733118 0.693847
Si Si3 0.556724 0.833102 0.402045
Si Si4 0.920252 0.563656 0.835944
Si Si5 0.748219 0.857962 0.099403
O O1 0.465403 0.051933 0.097054
O O2 0.239188 0.082611 0.124459
O O3 0.316685 0.981273 0.149972
O O4 0.278256 0.020351 0.000000
O O5 0.500000 0.728181 0.750000
O O6 0.750000 0.750000 0.750000
O O7 0.602817 0.778725 0.629240
O O8 0.660343 0.680940 0.647040
O O9 0.577576 0.838903 0.500000
O O10 0.625682 0.879350 0.352680
O O11 0.401589 0.839986 0.384362
O O12 0.000000 0.560152 0.750000
O O13 0.767243 0.855761 0.000000
#
# Coordination Sequence:
#
# PCOD9525015 Si02
#       5
#    16  16  16  16  16
#     4   9  16  28  46  72 109 147 180 219 277 339
#     4  12  23  38  56  83 116 150 193 244 292 343
#     4  10  20  35  55  79 117 155 191 234 289 355
#     4  10  17  26  46  80 115 145 178 232 291 335
#     4   9  19  35  55  79 113 153 190 232 285 348
#
# _framework density 18.446337
#
# number of rings (size 3 to 8) (size 9 to 14) (size 15 to 20)
#    0.000    2.000    2.000    6.000    2.800    0.000 
#    0.000    0.000    0.000    0.000    0.000    2.800 
#    0.000    4.800    0.000    0.000    0.000    0.000 
#
# Total GULP energy -223010.294595 kJ/mol
# GULP energy per Si atom -5575.257365 kJ/mol
# Density = 1.840435 g / cm^3
# Si number density = 18.446337 Si / 1000 Ang^3
#
#
#
# Elastic Constant Matrix: (Units=GPa)
#
#
# Indices 1 2 3 4 5 6 
#
# 1 47.9324 35.6035 25.9166 0.0000 0.0000 0.0000
# 2 35.6035 190.4130 72.8817 0.0000 0.0000 0.0000
# 3 25.9166 72.8817 89.2234 0.0001 0.0000 0.0000
# 4 0.0000 0.0000 0.0001 27.9848 0.0000 0.0000
# 5 0.0000 0.0000 0.0000 0.0000 15.5433 0.0000
# 6 0.0000 0.0000 0.0000 0.0000 0.0000 27.8967
#
#
#
# Elastic Compliance Matrix: (Units=1/GPa)
#
#
# Indices 1 2 3 4 5 6 
#
# 1 0.025765 -0.002841 -0.005163 0.000000 0.000000 0.000000
# 2 -0.002841 0.007954 -0.005672 0.000000 0.000000 0.000000
# 3 -0.005163 -0.005672 0.017340 0.000000 0.000000 0.000000
# 4 0.000000 0.000000 0.000000 0.035734 0.000000 0.000000
# 5 0.000000 0.000000 0.000000 0.000000 0.064336 0.000000
# 6 0.000000 0.000000 0.000000 0.000000 0.000000 0.035847
#
#
# Mechanical properties :
#
#
# Convention : Reuss Voigt Hill
#
# Bulk Modulus (GPa) = 42.18161 66.26361 54.22261
# Shear Modulus (GPa) = 22.49918 27.16276 24.83097
#
# Velocity S-wave (km/s) = 3.49622 3.84152 3.67293
# Velocity P-wave (km/s) = 6.26218 7.46168 6.88809
#
# Compressibility (1/GPa) = 0.02370701
#
# Stress axis : x y z
#
# Youngs Moduli (GPa) = 38.81270 125.72386 57.66853
#
# Poissons Ratio (x) = 0.35723 0.29774
# Poissons Ratio (y) = 0.11028 0.32708
# Poissons Ratio (z) = 0.20039 0.71308
#
# Static dielectric constant tensor:
#      x y z
#    x 1.619490 0.000000 0.000000 
#    y 0.000000 1.705990 0.000000 
#    z 0.000000 0.000000 1.670820 
# 
# From -- ./inp_files/20168.got.cif
#   From: 2010.05.17/outbox.cif.g08.bks.cpg/sg72_11_cif.got.tgz:20168.got - 2010.06.03 17:03:01.
