data_PCOD9525694
_publ_section_title
;
Structure prediction by ZEFSAII (Michael W. Deem and Ramdas Pophale) SiO2 
 PCOD9525694
Probable space group: I B A M
;
_chemical_formula_sum "Si O2"
_cell_formula_units_Z 96
_cell_length_a 12.219180
_cell_length_b 19.664902
_cell_length_c 17.215205
_cell_angle_alpha 90.000000
_cell_angle_beta 90.000000
_cell_angle_gamma 90.000000
_cell_volume 4136.624002
_symmetry_space_group_name_H-M "I B A M"
_symmetry_group_IT_number 72
_symmetry_cell_setting 'orthorhombic'
loop_
_space_group_symop_operation_xyz
x,y,z
-x,-y,z
x,-y,1/2-z
-x,y,1/2-z
-x,-y,-z
x,y,-z
-x,y,1/2+z
x,-y,1/2+z
1/2+x,1/2+y,1/2+z
1/2-x,1/2-y,1/2+z
1/2+x,1/2-y,-z
1/2-x,1/2+y,-z
1/2-x,1/2-y,1/2-z
1/2+x,1/2+y,1/2-z
1/2-x,1/2+y,z
1/2+x,1/2-y,z
loop_
_atom_site_type_symbol
_atom_site_label
_atom_site_fract_x
_atom_site_fract_y
_atom_site_fract_z
Si Si1 0.309265 0.877504 0.877267
Si Si2 0.170998 0.003216 0.657776
Si Si3 0.380231 0.838033 0.286813
Si Si4 0.957829 0.576315 0.584427
Si Si5 0.620920 0.723814 0.086680
Si Si6 0.020246 0.099746 0.907349
O O1 0.270184 0.955832 0.881004
O O2 0.306778 0.853780 0.787286
O O3 0.432702 0.876501 0.908588
O O4 0.221803 0.828953 0.917063
O O5 0.071009 0.055045 0.636968
O O6 0.183432 0.000000 0.750000
O O7 0.134174 0.930740 0.623095
O O8 0.500000 0.825411 0.250000
O O9 0.387196 0.904079 0.341435
O O10 0.355186 0.777516 0.346080
O O11 0.905904 0.585902 0.500000
O O12 0.000000 0.500000 0.590008
O O13 0.513390 0.678008 0.105666
O O14 0.607134 0.753381 0.000000
O O15 0.011910 0.087813 0.000000
#
# Coordination Sequence:
#
# PCOD9525694 Si02
#       6
#    16  16  16  16  16  16
#     4  10  22  36  59  88 117 156 197 246 301 355
#     4  10  19  30  52  81 115 151 188 238 284 347
#     4  10  22  38  61  85 117 155 200 250 297 357
#     4  10  22  40  63  85 113 153 200 246 299 354
#     4  10  20  37  61  87 121 159 200 244 299 362
#     4   9  18  33  53  80 114 157 192 228 286 352
#
# _framework density 23.207329999999999
#
# number of rings (size 3 to 8) (size 9 to 14) (size 15 to 20)
#    0.000    2.167    0.000    3.500    2.333    7.000 
#    0.000    0.000    0.000    4.000    0.000    0.000 
#    0.000    0.000    0.000    0.000    0.000    0.000 
#
# Total GULP energy -268159.304160 kJ/mol
# GULP energy per Si atom -5586.652170 kJ/mol
# Density = 2.315451 g / cm^3
# Si number density = 23.207330 Si / 1000 Ang^3
#
#
#
# Elastic Constant Matrix: (Units=GPa)
#
#
# Indices 1 2 3 4 5 6 
#
# 1 49.0326 -1.2771 8.9382 0.0000 0.0000 0.0000
# 2 -1.2771 89.7391 33.1729 0.0000 0.0000 0.0000
# 3 8.9382 33.1729 132.3087 0.0000 0.0000 0.0000
# 4 0.0000 0.0000 0.0000 18.0850 0.0000 0.0000
# 5 0.0000 0.0000 0.0000 0.0000 29.4054 0.0000
# 6 0.0000 0.0000 0.0000 0.0000 0.0000 20.5608
#
#
#
# Elastic Compliance Matrix: (Units=1/GPa)
#
#
# Indices 1 2 3 4 5 6 
#
# 1 0.020714 0.000895 -0.001624 0.000000 0.000000 0.000000
# 2 0.000895 0.012320 -0.003149 0.000000 0.000000 0.000000
# 3 -0.001624 -0.003149 0.008457 0.000000 0.000000 0.000000
# 4 0.000000 0.000000 0.000000 0.055294 0.000000 0.000000
# 5 0.000000 0.000000 0.000000 0.000000 0.034007 0.000000
# 6 0.000000 0.000000 0.000000 0.000000 0.000000 0.048636
#
#
# Mechanical properties :
#
#
# Convention : Reuss Voigt Hill
#
# Bulk Modulus (GPa) = 29.64251 39.19424 34.41838
# Shear Modulus (GPa) = 25.19764 28.96000 27.07882
#
# Velocity S-wave (km/s) = 3.29867 3.53637 3.41958
# Velocity P-wave (km/s) = 5.22579 5.79655 5.51855
#
# Compressibility (1/GPa) = 0.03373533
#
# Stress axis : x y z
#
# Youngs Moduli (GPa) = 48.27674 81.16632 118.23935
#
# Poissons Ratio (x) = -0.07265 0.19199
# Poissons Ratio (y) = -0.04321 0.37239
# Poissons Ratio (z) = 0.07839 0.25563
#
# Static dielectric constant tensor:
#      x y z
#    x 1.905380 0.000000 0.000000 
#    y 0.000000 1.889580 0.000000 
#    z 0.000000 0.000000 1.826970 
# 
# From -- ./inp_files/21882.got.cif
#   From: 2010.05.17/outbox.cif.g08.bks.cpg/sg72_11_cif.got.tgz:21882.got - 2010.06.03 17:03:01.
