data_PCOD9525202
_publ_section_title
;
Structure prediction by ZEFSAII (Michael W. Deem and Ramdas Pophale) SiO2 
 PCOD9525202
Probable space group: I B A M
;
_chemical_formula_sum "Si O2"
_cell_formula_units_Z 128
_cell_length_a 21.325140
_cell_length_b 19.245237
_cell_length_c 18.394471
_cell_angle_alpha 90.000000
_cell_angle_beta 90.000000
_cell_angle_gamma 90.000000
_cell_volume 7549.226527
_symmetry_space_group_name_H-M "I B A M"
_symmetry_group_IT_number 72
_symmetry_cell_setting 'orthorhombic'
loop_
_space_group_symop_operation_xyz
x,y,z
-x,-y,z
x,-y,1/2-z
-x,y,1/2-z
-x,-y,-z
x,y,-z
-x,y,1/2+z
x,-y,1/2+z
1/2+x,1/2+y,1/2+z
1/2-x,1/2-y,1/2+z
1/2+x,1/2-y,-z
1/2-x,1/2+y,-z
1/2-x,1/2-y,1/2-z
1/2+x,1/2+y,1/2-z
1/2-x,1/2+y,z
1/2+x,1/2-y,z
loop_
_atom_site_type_symbol
_atom_site_label
_atom_site_fract_x
_atom_site_fract_y
_atom_site_fract_z
Si Si1 0.680744 0.558133 0.087486
Si Si2 0.294509 0.603167 0.086786
Si Si3 0.805220 0.672294 0.321891
Si Si4 0.251153 0.181525 0.335769
Si Si5 0.002793 0.219242 0.417919
Si Si6 0.538066 0.434425 0.412405
Si Si7 0.626411 0.269841 0.143011
Si Si8 0.565512 0.791852 0.783667
O O1 0.695638 0.477710 0.103877
O O2 0.726421 0.614263 0.123320
O O3 0.609449 0.571140 0.113265
O O4 0.683505 0.566513 0.000000
O O5 0.226778 0.627782 0.115447
O O6 0.343751 0.655234 0.125569
O O7 0.300989 0.612325 0.000000
O O8 0.797498 0.754185 0.341345
O O9 0.763665 0.664480 0.248825
O O10 0.877116 0.657165 0.302463
O O11 0.316815 0.214753 0.363267
O O12 0.026122 0.228378 0.500000
O O13 0.002516 0.137344 0.400304
O O14 0.045522 0.255182 0.358013
O O15 0.931450 0.244528 0.410189
O O16 0.500000 0.500000 0.382848
O O17 0.542529 0.443822 0.500000
O O18 0.595576 0.259826 0.222956
O O19 0.500000 0.819671 0.750000
#
# Coordination Sequence:
#
# PCOD9525202 Si02
#       8
#    16  16  16  16  16  16  16  16
#     4  10  20  32  47  73 105 133 166 207 250 297
#     4  10  20  32  49  74 102 132 167 208 252 302
#     4   9  18  33  50  70  96 128 165 205 251 298
#     4   9  18  32  50  70  95 130 169 210 251 294
#     4  10  18  28  47  73  97 128 170 211 253 300
#     4   9  17  28  42  62  95 135 164 190 230 284
#     4   9  18  33  51  70 100 138 173 209 252 304
#     4   9  18  32  50  72  99 127 162 211 258 301
#
# _framework density 16.955379000000001
#
# number of rings (size 3 to 8) (size 9 to 14) (size 15 to 20)
#    0.000    2.625    0.000    2.625    0.000    5.500 
#    0.000    0.000    0.000    7.875    0.000   14.875 
#    0.000   19.000    0.000    0.000    0.000    0.000 
#
# Total GULP energy -356514.359458 kJ/mol
# GULP energy per Si atom -5570.536867 kJ/mol
# Density = 1.691679 g / cm^3
# Si number density = 16.955379 Si / 1000 Ang^3
#
#
#
# Elastic Constant Matrix: (Units=GPa)
#
#
# Indices 1 2 3 4 5 6 
#
# 1 102.2425 28.8116 20.7591 0.0000 0.0000 0.0000
# 2 28.8116 54.4038 22.4713 0.0000 0.0000 0.0000
# 3 20.7591 22.4713 38.9326 0.0000 0.0000 0.0000
# 4 0.0000 0.0000 0.0000 13.8050 0.0000 0.0000
# 5 0.0000 0.0000 0.0000 0.0000 16.9724 0.0000
# 6 0.0000 0.0000 0.0000 0.0000 0.0000 17.4238
#
#
#
# Elastic Compliance Matrix: (Units=1/GPa)
#
#
# Indices 1 2 3 4 5 6 
#
# 1 0.011857 -0.004816 -0.003542 0.000000 0.000000 0.000000
# 2 -0.004816 0.026091 -0.012491 0.000000 0.000000 0.000000
# 3 -0.003542 -0.012491 0.034784 0.000000 0.000000 0.000000
# 4 0.000000 0.000000 0.000000 0.072437 0.000000 0.000000
# 5 0.000000 0.000000 0.000000 0.000000 0.058919 0.000000
# 6 0.000000 0.000000 0.000000 0.000000 0.000000 0.057393
#
#
# Mechanical properties :
#
#
# Convention : Reuss Voigt Hill
#
# Bulk Modulus (GPa) = 32.22445 37.74030 34.98238
# Shear Modulus (GPa) = 15.94764 17.87604 16.91184
#
# Velocity S-wave (km/s) = 3.07019 3.25052 3.16164
# Velocity P-wave (km/s) = 5.62270 6.03281 5.83136
#
# Compressibility (1/GPa) = 0.03103234
#
# Stress axis : x y z
#
# Youngs Moduli (GPa) = 84.33770 38.32715 28.74876
#
# Poissons Ratio (x) = 0.18459 0.10184
# Poissons Ratio (y) = 0.40618 0.35911
# Poissons Ratio (z) = 0.29876 0.47876
#
# Static dielectric constant tensor:
#      x y z
#    x 1.610620 0.000000 0.000000 
#    y 0.000000 1.547440 0.000000 
#    z 0.000000 0.000000 1.595710 
# 
# From -- ./inp_files/32971.got.cif
#   From: 2010.05.17/outbox.cif.g08.bks.cpg/sg72_17_cif.got.tgz:32971.got - 2010.06.03 17:03:01.
