data_PCOD9525268
_publ_section_title
;
Structure prediction by ZEFSAII (Michael W. Deem and Ramdas Pophale) SiO2 
 PCOD9525268
Probable space group: I B A M
;
_chemical_formula_sum "Si O2"
_cell_formula_units_Z 128
_cell_length_a 26.896954
_cell_length_b 17.952531
_cell_length_c 19.014299
_cell_angle_alpha 90.000000
_cell_angle_beta 90.000000
_cell_angle_gamma 90.000000
_cell_volume 9181.404145
_symmetry_space_group_name_H-M "I B A M"
_symmetry_group_IT_number 72
_symmetry_cell_setting 'orthorhombic'
loop_
_space_group_symop_operation_xyz
x,y,z
-x,-y,z
x,-y,1/2-z
-x,y,1/2-z
-x,-y,-z
x,y,-z
-x,y,1/2+z
x,-y,1/2+z
1/2+x,1/2+y,1/2+z
1/2-x,1/2-y,1/2+z
1/2+x,1/2-y,-z
1/2-x,1/2+y,-z
1/2-x,1/2-y,1/2-z
1/2+x,1/2+y,1/2-z
1/2-x,1/2+y,z
1/2+x,1/2-y,z
loop_
_atom_site_type_symbol
_atom_site_label
_atom_site_fract_x
_atom_site_fract_y
_atom_site_fract_z
Si Si1 0.134692 0.317579 0.837520
Si Si2 0.694294 0.680195 0.310918
Si Si3 0.251579 0.039048 0.825691
Si Si4 0.790684 0.781699 0.653990
Si Si5 0.150854 0.356978 0.674535
Si Si6 0.451726 0.104394 0.417017
Si Si7 0.065364 0.570889 0.916957
Si Si8 0.773591 0.397241 0.582148
O O1 0.148935 0.229713 0.840076
O O2 0.137527 0.339322 0.755390
O O3 0.082765 0.341833 0.871411
O O4 0.178150 0.363667 0.877838
O O5 0.707241 0.598289 0.338650
O O6 0.742053 0.732115 0.327783
O O7 0.693350 0.677168 0.225980
O O8 0.302035 0.087713 0.823482
O O9 0.245028 0.000000 0.750000
O O10 0.258795 0.975538 0.883436
O O11 0.832151 0.720297 0.638022
O O12 0.771776 0.840248 0.597247
O O13 0.106391 0.393508 0.632253
O O14 0.444849 0.120197 0.500000
O O15 0.510658 0.104358 0.402047
O O16 0.436072 0.018219 0.405335
O O17 0.075606 0.582284 0.000000
O O18 0.784213 0.403605 0.500000
#
# Coordination Sequence:
#
# PCOD9525268 Si02
#       8
#    16  16  16  16  16  16  16  16
#     4  10  18  30  45  65  85 114 155 182 219 267
#     4   8  15  28  45  60  81 114 146 179 213 261
#     4  11  17  29  45  63  89 119 149 180 223 262
#     4   8  15  29  41  58  83 111 144 176 213 256
#     4  10  19  28  46  65  85 115 150 184 217 262
#     4   9  18  32  45  59  87 121 149 185 225 260
#     4   9  19  32  44  61  86 117 152 187 225 261
#     4  11  20  28  42  65  88 116 149 182 216 263
#
# _framework density 13.941222
#
# number of rings (size 3 to 8) (size 9 to 14) (size 15 to 20)
#    0.000    2.500    2.500    3.375    0.000    2.500 
#    0.000    6.875    0.000    0.000    0.000    0.000 
#    0.000    1.000    1.000    3.875    0.000    0.000 
#
# Total GULP energy -356406.532283 kJ/mol
# GULP energy per Si atom -5568.852067 kJ/mol
# Density = 1.390949 g / cm^3
# Si number density = 13.941222 Si / 1000 Ang^3
#
#
#
# Elastic Constant Matrix: (Units=GPa)
#
#
# Indices 1 2 3 4 5 6 
#
# 1 60.6800 31.5222 31.0660 0.0000 0.0000 0.0000
# 2 31.5222 68.2559 28.7453 0.0000 0.0000 0.0000
# 3 31.0660 28.7453 51.7565 0.0000 0.0000 0.0000
# 4 0.0000 0.0000 0.0000 16.8847 0.0000 0.0000
# 5 0.0000 0.0000 0.0000 0.0000 22.7065 0.0000
# 6 0.0000 0.0000 0.0000 0.0000 0.0000 26.4967
#
#
#
# Elastic Compliance Matrix: (Units=1/GPa)
#
#
# Indices 1 2 3 4 5 6 
#
# 1 0.026219 -0.007154 -0.011764 0.000000 0.000000 0.000000
# 2 -0.007154 0.021076 -0.007411 0.000000 0.000000 0.000000
# 3 -0.011764 -0.007411 0.030499 0.000000 0.000000 0.000000
# 4 0.000000 0.000000 0.000000 0.059225 0.000000 0.000000
# 5 0.000000 0.000000 0.000000 0.000000 0.044040 0.000000
# 6 0.000000 0.000000 0.000000 0.000000 0.000000 0.037741
#
#
# Mechanical properties :
#
#
# Convention : Reuss Voigt Hill
#
# Bulk Modulus (GPa) = 39.78609 40.37325 40.07967
# Shear Modulus (GPa) = 17.86750 19.17483 18.52117
#
# Velocity S-wave (km/s) = 3.58387 3.71267 3.64884
# Velocity P-wave (km/s) = 6.76209 6.88484 6.82374
#
# Compressibility (1/GPa) = 0.02513441
#
# Stress axis : x y z
#
# Youngs Moduli (GPa) = 38.13987 47.44751 32.78828
#
# Poissons Ratio (x) = 0.33945 0.38573
# Poissons Ratio (y) = 0.27286 0.24300
# Poissons Ratio (z) = 0.44869 0.35164
#
# Static dielectric constant tensor:
#      x y z
#    x 1.453650 0.000000 0.000000 
#    y 0.000000 1.468530 0.000000 
#    z 0.000000 0.000000 1.453310 
# 
# From -- ./inp_files/33533.got.cif
#   From: 2010.05.17/outbox.cif.g08.bks.cpg/sg72_17_cif.got.tgz:33533.got - 2010.06.03 17:03:01.
