data_PCOD9525932
_publ_section_title
;
Structure prediction by ZEFSAII (Michael W. Deem and Ramdas Pophale) SiO2 
 PCOD9525932
Probable space group: I B A M
;
_chemical_formula_sum "Si O2"
_cell_formula_units_Z 64
_cell_length_a 19.244824
_cell_length_b 10.807439
_cell_length_c 15.499620
_cell_angle_alpha 90.000000
_cell_angle_beta 90.000000
_cell_angle_gamma 90.000000
_cell_volume 3223.723517
_symmetry_space_group_name_H-M "I B A M"
_symmetry_group_IT_number 72
_symmetry_cell_setting 'orthorhombic'
loop_
_space_group_symop_operation_xyz
x,y,z
-x,-y,z
x,-y,1/2-z
-x,y,1/2-z
-x,-y,-z
x,y,-z
-x,y,1/2+z
x,-y,1/2+z
1/2+x,1/2+y,1/2+z
1/2-x,1/2-y,1/2+z
1/2+x,1/2-y,-z
1/2-x,1/2+y,-z
1/2-x,1/2-y,1/2-z
1/2+x,1/2+y,1/2-z
1/2-x,1/2+y,z
1/2+x,1/2-y,z
loop_
_atom_site_type_symbol
_atom_site_label
_atom_site_fract_x
_atom_site_fract_y
_atom_site_fract_z
Si Si1 0.223083 0.626417 0.298345
Si Si2 0.921872 0.289548 0.742313
Si Si3 0.931699 0.915517 0.096001
Si Si4 0.652945 0.342228 0.596148
O O1 0.245233 0.500000 0.250000
O O2 0.250000 0.750000 0.250000
O O3 0.139783 0.628052 0.297977
O O4 0.264869 0.646721 0.386369
O O5 0.929818 0.177085 0.674923
O O6 0.889746 0.236679 0.832416
O O7 0.000000 0.342106 0.750000
O O8 0.871478 0.016131 0.103079
O O9 0.929915 0.857028 0.000000
O O10 0.000000 0.000000 0.100584
O O11 0.637490 0.296476 0.500000
#
# Coordination Sequence:
#
# PCOD9525932 Si02
#       4
#    16  16  16  16
#     4  10  22  41  61  86 119 165 209 253 311 369
#     4  11  21  34  59  88 122 162 197 259 313 373
#     4  10  19  32  57  91 122 158 207 256 309 363
#     4  10  20  35  57  88 122 161 207 256 304 366
#
# _framework density 19.852819
#
# number of rings (size 3 to 8) (size 9 to 14) (size 15 to 20)
#    0.000    1.750    2.500    3.750    0.000    1.500 
#    0.000    7.500    0.000    0.000    0.000   10.500 
#    0.000    0.000    0.000    0.000    0.000    0.000 
#
# Total GULP energy -178251.474273 kJ/mol
# GULP energy per Si atom -5570.358571 kJ/mol
# Density = 1.980763 g / cm^3
# Si number density = 19.852819 Si / 1000 Ang^3
#
#
#
# Elastic Constant Matrix: (Units=GPa)
#
#
# Indices 1 2 3 4 5 6 
#
# 1 151.4566 7.2390 38.2002 0.0000 0.0000 0.0000
# 2 7.2390 46.7843 9.3611 0.0000 0.0000 0.0000
# 3 38.2002 9.3611 110.6954 0.0000 0.0000 0.0000
# 4 0.0000 0.0000 0.0000 -12.1928 0.0000 0.0000
# 5 0.0000 0.0000 0.0000 0.0000 19.9835 0.0000
# 6 0.0000 0.0000 0.0000 0.0000 0.0000 20.3348
#
#
#
# Elastic Compliance Matrix: (Units=1/GPa)
#
#
# Indices 1 2 3 4 5 6 
#
# 1 0.007250 -0.000632 -0.002449 0.000000 0.000000 0.000000
# 2 -0.000632 0.021798 -0.001625 0.000000 0.000000 0.000000
# 3 -0.002449 -0.001625 0.010016 0.000000 0.000000 0.000000
# 4 0.000000 0.000000 0.000000 -0.082016 0.000000 0.000000
# 5 0.000000 0.000000 0.000000 0.000000 0.050041 0.000000
# 6 0.000000 0.000000 0.000000 0.000000 0.000000 0.049177
#
#
# Mechanical properties :
#
#
# Convention : Reuss Voigt Hill
#
# Bulk Modulus (GPa) = 33.72379 46.50410 40.11395
# Shear Modulus (GPa) = 66.17063 22.56751 44.36907
#
# Velocity S-wave (km/s) = 5.77953 3.37522 4.73260
# Velocity P-wave (km/s) = 7.84608 6.21810 7.07905
#
# Compressibility (1/GPa) = 0.02965266
#
# Stress axis : x y z
#
# Youngs Moduli (GPa) = 137.92459 45.87643 99.83785
#
# Poissons Ratio (x) = 0.02899 0.24446
# Poissons Ratio (y) = 0.08716 0.16227
# Poissons Ratio (z) = 0.33772 0.07456
#
# Static dielectric constant tensor:
#      x y z
#    x 1.636420 0.000000 0.000000 
#    y 0.000000 1.711700 0.000000 
#    z 0.000000 0.000000 1.716480 
# 
# From -- ./inp_files/19687.got.cif
#   From: 2010.05.17/outbox.cif.g08.bks.cpg/sg72_10_cif.got.tgz:19687.got - 2010.06.03 17:03:01.
