data_PCOD9525635
_publ_section_title
;
Structure prediction by ZEFSAII (Michael W. Deem and Ramdas Pophale) SiO2 
 PCOD9525635
Probable space group: I B A M
;
_chemical_formula_sum "Si O2"
_cell_formula_units_Z 112
_cell_length_a 18.383702
_cell_length_b 26.619476
_cell_length_c 13.947812
_cell_angle_alpha 90.000000
_cell_angle_beta 90.000000
_cell_angle_gamma 90.000000
_cell_volume 6825.564243
_symmetry_space_group_name_H-M "I B A M"
_symmetry_group_IT_number 72
_symmetry_cell_setting 'orthorhombic'
loop_
_space_group_symop_operation_xyz
x,y,z
-x,-y,z
x,-y,1/2-z
-x,y,1/2-z
-x,-y,-z
x,y,-z
-x,y,1/2+z
x,-y,1/2+z
1/2+x,1/2+y,1/2+z
1/2-x,1/2-y,1/2+z
1/2+x,1/2-y,-z
1/2-x,1/2+y,-z
1/2-x,1/2-y,1/2-z
1/2+x,1/2+y,1/2-z
1/2-x,1/2+y,z
1/2+x,1/2-y,z
loop_
_atom_site_type_symbol
_atom_site_label
_atom_site_fract_x
_atom_site_fract_y
_atom_site_fract_z
Si Si1 0.975481 0.838840 0.107873
Si Si2 0.258771 0.144738 0.612323
Si Si3 0.967302 0.948655 0.355855
Si Si4 0.695118 0.554606 0.781921
Si Si5 0.883641 0.215685 0.114711
Si Si6 0.182855 0.865374 0.615471
Si Si7 0.299588 0.796485 0.717218
O O1 0.893476 0.839245 0.145521
O O2 0.004985 0.896222 0.102071
O O3 0.041217 0.807630 0.152243
O O4 0.967662 0.819359 0.000000
O O5 0.276722 0.147386 0.500000
O O6 0.245818 0.088621 0.650749
O O7 0.181673 0.174677 0.627249
O O8 0.313464 0.171949 0.686083
O O9 0.880852 0.951033 0.340302
O O10 0.000000 0.946660 0.250000
O O11 0.000000 0.000000 0.398478
O O12 0.721366 0.500000 0.750000
O O13 0.684224 0.585574 0.682862
O O14 0.864568 0.268301 0.164109
O O15 0.887383 0.222808 0.000000
O O16 0.181732 0.874325 0.500000
O O17 0.250978 0.831026 0.646564
O O18 0.250000 0.750000 0.750000
#
# Coordination Sequence:
#
# PCOD9525635 Si02
#       7
#    16  16  16  16  16  16  16
#     4  10  19  29  43  63  86 114 150 194 235 270
#     4   9  18  30  44  60  80 106 146 193 234 278
#     4  11  18  27  39  53  80 116 155 195 230 258
#     4  11  19  29  43  60  84 120 157 194 236 267
#     4   9  16  28  46  66  85 110 148 189 233 284
#     4  10  20  32  44  65  92 117 152 199 238 272
#     4   9  18  31  47  64  80 112 145 190 244 285
#
# _framework density 16.408899999999999
#
# number of rings (size 3 to 8) (size 9 to 14) (size 15 to 20)
#    0.000    2.143    4.286    0.429    0.000    1.429 
#    0.000    0.000    0.000    0.429    0.000    1.000 
#    0.000    0.000    0.000    0.000    0.000  102.857 
#
# Total GULP energy -311856.820476 kJ/mol
# GULP energy per Si atom -5568.871794 kJ/mol
# Density = 1.637155 g / cm^3
# Si number density = 16.408900 Si / 1000 Ang^3
#
#
#
# Elastic Constant Matrix: (Units=GPa)
#
#
# Indices 1 2 3 4 5 6 
#
# 1 40.8031 41.5943 23.0368 0.0000 0.0000 0.0000
# 2 41.5943 93.0281 27.8318 0.0000 0.0000 0.0000
# 3 23.0368 27.8318 93.7456 0.0000 0.0000 0.0000
# 4 0.0000 0.0000 0.0000 14.5028 0.0000 0.0000
# 5 0.0000 0.0000 0.0000 0.0000 8.6601 0.0000
# 6 0.0000 0.0000 0.0000 0.0000 0.0000 24.8957
#
#
#
# Elastic Compliance Matrix: (Units=1/GPa)
#
#
# Indices 1 2 3 4 5 6 
#
# 1 0.047865 -0.019625 -0.005936 0.000000 0.000000 0.000000
# 2 -0.019625 0.019844 -0.001069 0.000000 0.000000 0.000000
# 3 -0.005936 -0.001069 0.012443 0.000000 0.000000 0.000000
# 4 0.000000 0.000000 0.000000 0.068952 0.000000 0.000000
# 5 0.000000 0.000000 0.000000 0.000000 0.115473 0.000000
# 6 0.000000 0.000000 0.000000 0.000000 0.000000 0.040168
#
#
# Mechanical properties :
#
#
# Convention : Reuss Voigt Hill
#
# Bulk Modulus (GPa) = 37.18507 45.83362 41.50934
# Shear Modulus (GPa) = 13.62514 18.61931 16.12222
#
# Velocity S-wave (km/s) = 2.88471 3.37220 3.13793
# Velocity P-wave (km/s) = 5.81430 6.56925 6.20327
#
# Compressibility (1/GPa) = 0.02689252
#
# Stress axis : x y z
#
# Youngs Moduli (GPa) = 20.89202 50.39310 80.36591
#
# Poissons Ratio (x) = 0.98899 0.47703
# Poissons Ratio (y) = 0.41001 0.08589
# Poissons Ratio (z) = 0.12401 0.05386
#
# Static dielectric constant tensor:
#      x y z
#    x 1.561380 0.000000 0.000000 
#    y 0.000000 1.540020 0.000000 
#    z 0.000000 0.000000 1.594920 
# 
# From -- ./inp_files/22271.got.cif
#   From: 2010.05.17/outbox.cif.g08.bks.cpg/sg72_12_cif.got.tgz:22271.got - 2010.06.03 17:03:01.
