data_PCOD9525520
_publ_section_title
;
Structure prediction by ZEFSAII (Michael W. Deem and Ramdas Pophale) SiO2 
 PCOD9525520
Probable space group: I B A M
;
_chemical_formula_sum "Si O2"
_cell_formula_units_Z 88
_cell_length_a 20.661665
_cell_length_b 8.411247
_cell_length_c 25.308806
_cell_angle_alpha 90.000000
_cell_angle_beta 90.000000
_cell_angle_gamma 90.000000
_cell_volume 4398.426702
_symmetry_space_group_name_H-M "I B A M"
_symmetry_group_IT_number 72
_symmetry_cell_setting 'orthorhombic'
loop_
_space_group_symop_operation_xyz
x,y,z
-x,-y,z
x,-y,1/2-z
-x,y,1/2-z
-x,-y,-z
x,y,-z
-x,y,1/2+z
x,-y,1/2+z
1/2+x,1/2+y,1/2+z
1/2-x,1/2-y,1/2+z
1/2+x,1/2-y,-z
1/2-x,1/2+y,-z
1/2-x,1/2-y,1/2-z
1/2+x,1/2+y,1/2-z
1/2-x,1/2+y,z
1/2+x,1/2-y,z
loop_
_atom_site_type_symbol
_atom_site_label
_atom_site_fract_x
_atom_site_fract_y
_atom_site_fract_z
Si Si1 0.570906 0.067284 0.897805
Si Si2 0.245216 0.890382 0.824660
Si Si3 0.637917 0.500000 0.250000
Si Si4 0.388324 0.158081 0.282588
Si Si5 0.237757 0.617439 0.000000
Si Si6 0.855981 0.307915 0.500000
Si Si7 0.190979 0.371030 0.390839
O O1 0.579781 0.154044 0.841124
O O2 0.600704 0.165016 0.947375
O O3 0.500000 0.000000 0.907521
O O4 0.616604 0.912971 0.892200
O O5 0.188389 0.991069 0.798560
O O6 0.310167 0.862274 0.791029
O O7 0.210443 0.728645 0.840228
O O8 0.270432 0.966725 0.879024
O O9 0.601315 0.668895 0.255805
O O10 0.409203 0.000000 0.250000
O O11 0.198788 0.449105 0.000000
O O12 0.212987 0.696773 0.053787
O O13 0.315047 0.644224 0.000000
#
# Coordination Sequence:
#
# PCOD9525520 Si02
#       7
#    16  16   8  16   8   8  16
#     4  10  22  40  59  83 119 165 213 245 289 370
#     4  11  19  33  52  86 118 147 186 247 316 375
#     4  12  20  32  58  87 121 150 196 254 312 386
#     4  11  22  36  58  92 120 162 200 251 321 367
#     4  10  18  34  52  96 120 136 184 248 312 368
#     4  10  21  36  66  92 117 156 196 250 322 372
#     4  10  20  32  57  84 115 150 186 241 313 358
#
# _framework density 20.007155000000001
#
# number of rings (size 3 to 8) (size 9 to 14) (size 15 to 20)
#    0.000    1.455    2.727    6.273    0.000    0.364 
#    0.000    0.000    0.000    8.727    0.000    3.818 
#    0.000    0.000    0.000    0.000    0.000    0.000 
#
# Total GULP energy -245162.472304 kJ/mol
# GULP energy per Si atom -5571.874371 kJ/mol
# Density = 1.996162 g / cm^3
# Si number density = 20.007155 Si / 1000 Ang^3
#
#
#
# Elastic Constant Matrix: (Units=GPa)
#
#
# Indices 1 2 3 4 5 6 
#
# 1 86.6900 21.1494 30.3437 0.0000 0.0000 0.0000
# 2 21.1494 87.3516 35.8435 0.0000 0.0000 0.0000
# 3 30.3437 35.8435 110.7731 0.0000 0.0000 0.0000
# 4 0.0000 0.0000 0.0000 23.0931 0.0000 0.0000
# 5 0.0000 0.0000 0.0000 0.0000 12.7944 0.0000
# 6 0.0000 0.0000 0.0000 0.0000 0.0000 11.7748
#
#
#
# Elastic Compliance Matrix: (Units=1/GPa)
#
#
# Indices 1 2 3 4 5 6 
#
# 1 0.013041 -0.001951 -0.002941 0.000000 0.000000 0.000000
# 2 -0.001951 0.013492 -0.003832 0.000000 0.000000 0.000000
# 3 -0.002941 -0.003832 0.011073 0.000000 0.000000 0.000000
# 4 0.000000 0.000000 0.000000 0.043303 0.000000 0.000000
# 5 0.000000 0.000000 0.000000 0.000000 0.078159 0.000000
# 6 0.000000 0.000000 0.000000 0.000000 0.000000 0.084927
#
#
# Mechanical properties :
#
#
# Convention : Reuss Voigt Hill
#
# Bulk Modulus (GPa) = 49.60374 51.05420 50.32897
# Shear Modulus (GPa) = 18.64551 22.69769 20.67160
#
# Velocity S-wave (km/s) = 3.05608 3.37186 3.21785
# Velocity P-wave (km/s) = 6.10735 6.38221 6.24629
#
# Compressibility (1/GPa) = 0.02015977
#
# Stress axis : x y z
#
# Youngs Moduli (GPa) = 76.68321 74.11541 90.31076
#
# Poissons Ratio (x) = 0.14457 0.26561
# Poissons Ratio (y) = 0.14958 0.34603
# Poissons Ratio (z) = 0.22553 0.28398
#
# Static dielectric constant tensor:
#      x y z
#    x 1.682910 0.000000 0.000000 
#    y 0.000000 1.803980 0.000000 
#    z 0.000000 0.000000 1.754370 
# 
# From -- ./inp_files/45288.got.cif
#   From: 2010.05.17/outbox.cif.g08.bks.cpg/sg72_23_cif.got.tgz:45288.got - 2010.06.03 17:03:01.
