data_PCOD9525006
_publ_section_title
;
Structure prediction by ZEFSAII (Michael W. Deem and Ramdas Pophale) SiO2 
 PCOD9525006
Probable space group: I B A M
;
_chemical_formula_sum "Si O2"
_cell_formula_units_Z 96
_cell_length_a 12.164942
_cell_length_b 20.145734
_cell_length_c 18.477458
_cell_angle_alpha 90.000000
_cell_angle_beta 90.000000
_cell_angle_gamma 90.000000
_cell_volume 4528.301779
_symmetry_space_group_name_H-M "I B A M"
_symmetry_group_IT_number 72
_symmetry_cell_setting 'orthorhombic'
loop_
_space_group_symop_operation_xyz
x,y,z
-x,-y,z
x,-y,1/2-z
-x,y,1/2-z
-x,-y,-z
x,y,-z
-x,y,1/2+z
x,-y,1/2+z
1/2+x,1/2+y,1/2+z
1/2-x,1/2-y,1/2+z
1/2+x,1/2-y,-z
1/2-x,1/2+y,-z
1/2-x,1/2-y,1/2-z
1/2+x,1/2+y,1/2-z
1/2-x,1/2+y,z
1/2+x,1/2-y,z
loop_
_atom_site_type_symbol
_atom_site_label
_atom_site_fract_x
_atom_site_fract_y
_atom_site_fract_z
Si Si1 0.387497 0.300224 0.272290
Si Si2 0.800383 0.542768 0.177005
Si Si3 0.335078 0.919787 0.583767
Si Si4 0.390637 0.658089 0.922109
Si Si5 0.148290 0.347255 0.727801
Si Si6 0.584911 0.441789 0.415995
O O1 0.500000 0.335149 0.250000
O O2 0.382302 0.290139 0.358113
O O3 0.280321 0.343616 0.259549
O O4 0.384957 0.228964 0.235069
O O5 0.775337 0.500000 0.250000
O O6 0.851483 0.492500 0.117821
O O7 0.879564 0.600836 0.208333
O O8 0.688485 0.564015 0.136338
O O9 0.371220 0.913578 0.500000
O O10 0.204586 0.898446 0.584051
O O11 0.379253 0.871805 0.647326
O O12 0.508439 0.623145 0.917067
O O13 0.375504 0.689639 0.000000
O O14 0.500000 0.500000 0.394147
O O15 0.619239 0.455203 0.500000
#
# Coordination Sequence:
#
# PCOD9525006 Si02
#       6
#    16  16  16  16  16  16
#     4  10  19  35  53  68  97 136 169 210 251 282
#     4  10  18  28  43  69 100 128 159 203 248 296
#     4   9  16  30  49  69  98 132 156 195 258 305
#     4   9  17  29  45  68  99 132 162 195 243 306
#     4   9  20  33  49  77 100 125 174 210 235 305
#     4  10  17  26  41  68 103 132 162 193 239 313
#
# _framework density 21.200001
#
# number of rings (size 3 to 8) (size 9 to 14) (size 15 to 20)
#    0.000    2.500    1.667    1.500    0.000    0.333 
#    0.000    2.500    0.000   11.500    0.000    1.167 
#    0.000    0.000    0.000    0.000    0.000    0.000 
#
# Total GULP energy -267368.893868 kJ/mol
# GULP energy per Si atom -5570.185289 kJ/mol
# Density = 2.115175 g / cm^3
# Si number density = 21.200001 Si / 1000 Ang^3
#
#
#
# Elastic Constant Matrix: (Units=GPa)
#
#
# Indices 1 2 3 4 5 6 
#
# 1 54.6391 -15.1855 13.2010 0.0000 0.0000 0.0000
# 2 -15.1855 44.8753 45.4159 0.0000 0.0000 0.0000
# 3 13.2010 45.4159 149.6205 0.0000 0.0000 0.0000
# 4 0.0000 0.0000 0.0000 27.0090 0.0000 0.0000
# 5 0.0000 0.0000 0.0000 0.0000 12.2824 0.0000
# 6 0.0000 0.0000 0.0000 0.0000 0.0000 -30.5232
#
#
#
# Elastic Compliance Matrix: (Units=1/GPa)
#
#
# Indices 1 2 3 4 5 6 
#
# 1 0.024023 0.014830 -0.006621 0.000000 0.000000 0.000000
# 2 0.014830 0.041320 -0.013851 0.000000 0.000000 0.000000
# 3 -0.006621 -0.013851 0.011472 0.000000 0.000000 0.000000
# 4 0.000000 0.000000 0.000000 0.037025 0.000000 0.000000
# 5 0.000000 0.000000 0.000000 0.000000 0.081417 0.000000
# 6 0.000000 0.000000 0.000000 0.000000 0.000000 -0.032762
#
#
# Mechanical properties :
#
#
# Convention : Reuss Voigt Hill
#
# Bulk Modulus (GPa) = 15.25975 37.33307 26.29641
# Shear Modulus (GPa) = 25.55940 15.46720 20.51330
#
# Velocity S-wave (km/s) = 3.47599 2.70401 3.11402
# Velocity P-wave (km/s) = 4.82945 5.23422 5.03591
#
# Compressibility (1/GPa) = 0.06553188
#
# Stress axis : x y z
#
# Youngs Moduli (GPa) = 41.62632 24.20136 87.16860
#
# Poissons Ratio (x) = -0.35891 0.57715
# Poissons Ratio (y) = -0.61733 1.20735
# Poissons Ratio (z) = 0.27561 0.33521
#
# Static dielectric constant tensor:
#      x y z
#    x 1.817270 0.000000 0.000000 
#    y 0.000000 1.788590 0.000000 
#    z 0.000000 0.000000 1.789540 
# 
# From -- ./inp_files/31819.got.cif
#   From: 2010.05.17/outbox.cif.g08.bks.cpg/sg72_16_cif.got.tgz:31819.got - 2010.06.03 17:03:01.
