data_PCOD9525625
_publ_section_title
;
Structure prediction by ZEFSAII (Michael W. Deem and Ramdas Pophale) SiO2 
 PCOD9525625
Probable space group: I B A M
;
_chemical_formula_sum "Si O2"
_cell_formula_units_Z 112
_cell_length_a 27.999762
_cell_length_b 15.665878
_cell_length_c 16.578743
_cell_angle_alpha 90.000000
_cell_angle_beta 90.000000
_cell_angle_gamma 90.000000
_cell_volume 7272.114013
_symmetry_space_group_name_H-M "I B A M"
_symmetry_group_IT_number 72
_symmetry_cell_setting 'orthorhombic'
loop_
_space_group_symop_operation_xyz
x,y,z
-x,-y,z
x,-y,1/2-z
-x,y,1/2-z
-x,-y,-z
x,y,-z
-x,y,1/2+z
x,-y,1/2+z
1/2+x,1/2+y,1/2+z
1/2-x,1/2-y,1/2+z
1/2+x,1/2-y,-z
1/2-x,1/2+y,-z
1/2-x,1/2-y,1/2-z
1/2+x,1/2+y,1/2-z
1/2-x,1/2+y,z
1/2+x,1/2-y,z
loop_
_atom_site_type_symbol
_atom_site_label
_atom_site_fract_x
_atom_site_fract_y
_atom_site_fract_z
Si Si1 0.513202 0.404135 0.344099
Si Si2 0.697152 0.635567 0.835809
Si Si3 0.080621 0.845766 0.594420
Si Si4 0.794025 0.594634 0.252770
Si Si5 0.337920 0.261710 0.682625
Si Si6 0.758793 0.304448 0.093006
Si Si7 0.109433 0.960757 0.903699
O O1 0.500000 0.500000 0.372934
O O2 0.500000 0.398818 0.250000
O O3 0.475986 0.343641 0.389214
O O4 0.569260 0.400635 0.362197
O O5 0.744902 0.594211 0.799036
O O6 0.670249 0.678367 0.760119
O O7 0.713951 0.714408 0.891876
O O8 0.661682 0.570060 0.878221
O O9 0.089938 0.836631 0.500000
O O10 0.111022 0.778383 0.644277
O O11 0.099415 0.940681 0.619893
O O12 0.814379 0.500000 0.250000
O O13 0.827128 0.666247 0.212158
O O14 0.780375 0.629066 0.342007
O O15 0.295999 0.287853 0.619867
O O16 0.762090 0.330409 0.000000
O O17 0.103454 0.954962 0.000000
#
# Coordination Sequence:
#
# PCOD9525625 Si02
#       7
#    16  16  16  16  16  16  16
#     4   9  17  29  42  60  88 124 158 189 225 265
#     4   9  18  29  45  63  86 119 151 187 231 280
#     4  10  19  29  43  64  92 125 156 188 228 273
#     4   9  19  33  47  66  89 121 157 197 238 285
#     4   9  18  31  45  62  86 119 153 189 234 281
#     4   9  17  31  46  63  89 115 149 195 239 277
#     4  10  19  28  42  66  92 121 159 196 226 268
#
# _framework density 15.401299
#
# number of rings (size 3 to 8) (size 9 to 14) (size 15 to 20)
#    0.000    2.714    0.000    3.857    4.000    2.857 
#    0.000    3.571    0.000    0.000    0.000    0.000 
#    0.000   14.286    0.000   19.143    0.000    0.429 
#
# Total GULP energy -312092.704052 kJ/mol
# GULP energy per Si atom -5573.084001 kJ/mol
# Density = 1.536625 g / cm^3
# Si number density = 15.401299 Si / 1000 Ang^3
#
#
#
# Elastic Constant Matrix: (Units=GPa)
#
#
# Indices 1 2 3 4 5 6 
#
# 1 52.5510 15.3573 28.3202 0.0000 0.0000 0.0000
# 2 15.3573 54.0067 26.0861 0.0000 0.0000 0.0000
# 3 28.3202 26.0861 73.6264 0.0000 0.0000 0.0000
# 4 0.0000 0.0000 0.0000 12.1406 0.0000 0.0000
# 5 0.0000 0.0000 0.0000 0.0000 18.2272 0.0000
# 6 0.0000 0.0000 0.0000 0.0000 0.0000 19.3005
#
#
#
# Elastic Compliance Matrix: (Units=1/GPa)
#
#
# Indices 1 2 3 4 5 6 
#
# 1 0.024376 -0.002899 -0.008349 0.000000 0.000000 0.000000
# 2 -0.002899 0.022684 -0.006922 0.000000 0.000000 0.000000
# 3 -0.008349 -0.006922 0.019246 0.000000 0.000000 0.000000
# 4 0.000000 0.000000 0.000000 0.082368 0.000000 0.000000
# 5 0.000000 0.000000 0.000000 0.000000 0.054863 0.000000
# 6 0.000000 0.000000 0.000000 0.000000 0.000000 0.051812
#
#
# Mechanical properties :
#
#
# Convention : Reuss Voigt Hill
#
# Bulk Modulus (GPa) = 33.37106 35.52347 34.44726
# Shear Modulus (GPa) = 16.57403 17.29505 16.93454
#
# Velocity S-wave (km/s) = 3.28402 3.35470 3.31955
# Velocity P-wave (km/s) = 6.00787 6.17419 6.09160
#
# Compressibility (1/GPa) = 0.02996609
#
# Stress axis : x y z
#
# Youngs Moduli (GPa) = 41.02467 44.08406 51.95883
#
# Poissons Ratio (x) = 0.12779 0.43380
# Poissons Ratio (y) = 0.11892 0.35966
# Poissons Ratio (z) = 0.34251 0.30515
#
# Static dielectric constant tensor:
#      x y z
#    x 1.525830 0.000000 0.000000 
#    y 0.000000 1.503370 0.000000 
#    z 0.000000 0.000000 1.525280 
# 
# From -- ./inp_files/22278.got.cif
#   From: 2010.05.17/outbox.cif.g08.bks.cpg/sg72_12_cif.got.tgz:22278.got - 2010.06.03 17:03:01.
