data_PCOD9525676
_publ_section_title
;
Structure prediction by ZEFSAII (Michael W. Deem and Ramdas Pophale) SiO2 
 PCOD9525676
Probable space group: I B A M
;
_chemical_formula_sum "Si O2"
_cell_formula_units_Z 128
_cell_length_a 20.875805
_cell_length_b 20.393817
_cell_length_c 16.053331
_cell_angle_alpha 90.000000
_cell_angle_beta 90.000000
_cell_angle_gamma 90.000000
_cell_volume 6834.502549
_symmetry_space_group_name_H-M "I B A M"
_symmetry_group_IT_number 72
_symmetry_cell_setting 'orthorhombic'
loop_
_space_group_symop_operation_xyz
x,y,z
-x,-y,z
x,-y,1/2-z
-x,y,1/2-z
-x,-y,-z
x,y,-z
-x,y,1/2+z
x,-y,1/2+z
1/2+x,1/2+y,1/2+z
1/2-x,1/2-y,1/2+z
1/2+x,1/2-y,-z
1/2-x,1/2+y,-z
1/2-x,1/2-y,1/2-z
1/2+x,1/2+y,1/2-z
1/2-x,1/2+y,z
1/2+x,1/2-y,z
loop_
_atom_site_type_symbol
_atom_site_label
_atom_site_fract_x
_atom_site_fract_y
_atom_site_fract_z
Si Si1 0.932413 0.296036 0.144474
Si Si2 0.925735 0.686403 0.843253
Si Si3 0.847054 0.584500 0.408436
Si Si4 0.684324 0.290105 0.646755
Si Si5 0.813421 0.216793 0.648892
Si Si6 0.207784 0.075529 0.846513
Si Si7 0.631138 0.956583 0.334065
Si Si8 0.782867 0.067062 0.154016
O O1 0.930945 0.297319 0.244939
O O2 0.899318 0.363065 0.116340
O O3 0.883399 0.239086 0.118353
O O4 0.006004 0.295207 0.117367
O O5 0.867631 0.731140 0.875884
O O6 0.910144 0.608762 0.845513
O O7 0.822201 0.598378 0.500000
O O8 0.784712 0.587314 0.350058
O O9 0.876187 0.512072 0.403500
O O10 0.744183 0.244316 0.621982
O O11 0.686521 0.287989 0.749009
O O12 0.695843 0.364079 0.616384
O O13 0.822962 0.141969 0.619013
O O14 0.191534 0.069161 0.748970
O O15 0.197347 0.003175 0.884575
O O16 0.705590 0.934738 0.338650
O O17 0.619300 0.000000 0.250000
#
# Coordination Sequence:
#
# PCOD9525676 Si02
#       8
#    16  16  16  16  16  16  16  16
#     4  10  19  32  45  70  98 128 169 201 240 289
#     4  10  19  30  49  72  96 125 165 212 243 271
#     4  11  21  32  47  69 101 136 159 193 244 296
#     4   9  15  24  45  70  98 119 154 204 245 281
#     4   9  15  24  46  72  93 119 153 206 246 279
#     4   9  15  27  46  70  95 118 162 196 242 289
#     4  11  17  30  49  69  96 124 166 205 232 283
#     4   9  14  24  48  75  93 118 156 210 243 275
#
# _framework density 18.728501999999999
#
# number of rings (size 3 to 8) (size 9 to 14) (size 15 to 20)
#    0.000    2.250    6.250    0.000    0.000    0.500 
#    0.000    1.250    0.000    8.250    0.000    5.250 
#    0.000    0.000    0.000    5.625    0.000    4.750 
#
# Total GULP energy -356382.680338 kJ/mol
# GULP energy per Si atom -5568.479380 kJ/mol
# Density = 1.868588 g / cm^3
# Si number density = 18.728502 Si / 1000 Ang^3
#
#
#
# Elastic Constant Matrix: (Units=GPa)
#
#
# Indices 1 2 3 4 5 6 
#
# 1 74.7391 76.4201 5.1508 0.0000 0.0000 0.0000
# 2 76.4201 182.2860 3.6099 0.0000 0.0000 0.0000
# 3 5.1508 3.6099 18.9793 0.0000 0.0000 0.0000
# 4 0.0000 0.0000 0.0000 -5.8649 0.0000 0.0000
# 5 0.0000 0.0000 0.0000 0.0000 -3.6354 0.0000
# 6 0.0000 0.0000 0.0000 0.0000 0.0000 33.1576
#
#
#
# Elastic Compliance Matrix: (Units=1/GPa)
#
#
# Indices 1 2 3 4 5 6 
#
# 1 0.023809 -0.009891 -0.004580 0.000000 0.000000 0.000000
# 2 -0.009891 0.009615 0.000855 0.000000 0.000000 0.000000
# 3 -0.004580 0.000855 0.053769 0.000000 0.000000 0.000000
# 4 0.000000 0.000000 0.000000 -0.170507 0.000000 0.000000
# 5 0.000000 0.000000 0.000000 0.000000 -0.275073 0.000000
# 6 0.000000 0.000000 0.000000 0.000000 0.000000 0.030159
#
#
# Mechanical properties :
#
#
# Convention : Reuss Voigt Hill
#
# Bulk Modulus (GPa) = 16.67714 49.59621 33.13667
# Shear Modulus (GPa) = -17.79300 17.45306 -0.16997
#
# Velocity S-wave (km/s) = -3.08563 3.05601 -0.30158
# Velocity P-wave (km/s) = 1.94186 6.24431 4.19647
#
# Compressibility (1/GPa) = 0.05996233
#
# Stress axis : x y z
#
# Youngs Moduli (GPa) = 42.00158 103.99965 18.59800
#
# Poissons Ratio (x) = 1.02862 0.08518
# Poissons Ratio (y) = 0.41542 -0.01591
# Poissons Ratio (z) = 0.19237 -0.08896
#
# Static dielectric constant tensor:
#      x y z
#    x 1.639020 0.000000 0.000000 
#    y 0.000000 1.695080 0.000000 
#    z 0.000000 0.000000 1.633030 
# 
# From -- ./inp_files/32936.got.cif
#   From: 2010.05.17/outbox.cif.g08.bks.cpg/sg72_17_cif.got.tgz:32936.got - 2010.06.03 17:03:01.
