data_PCOD9525156
_publ_section_title
;
Structure prediction by ZEFSAII (Michael W. Deem and Ramdas Pophale) SiO2 
 PCOD9525156
Probable space group: I B A M
;
_chemical_formula_sum "Si O2"
_cell_formula_units_Z 80
_cell_length_a 20.575416
_cell_length_b 21.477511
_cell_length_c 10.667245
_cell_angle_alpha 90.000000
_cell_angle_beta 90.000000
_cell_angle_gamma 90.000000
_cell_volume 4713.948621
_symmetry_space_group_name_H-M "I B A M"
_symmetry_group_IT_number 72
_symmetry_cell_setting 'orthorhombic'
loop_
_space_group_symop_operation_xyz
x,y,z
-x,-y,z
x,-y,1/2-z
-x,y,1/2-z
-x,-y,-z
x,y,-z
-x,y,1/2+z
x,-y,1/2+z
1/2+x,1/2+y,1/2+z
1/2-x,1/2-y,1/2+z
1/2+x,1/2-y,-z
1/2-x,1/2+y,-z
1/2-x,1/2-y,1/2-z
1/2+x,1/2+y,1/2-z
1/2-x,1/2+y,z
1/2+x,1/2-y,z
loop_
_atom_site_type_symbol
_atom_site_label
_atom_site_fract_x
_atom_site_fract_y
_atom_site_fract_z
Si Si1 0.861074 0.227967 0.500000
Si Si2 0.150275 0.784929 0.000000
Si Si3 0.577531 0.242071 0.743043
Si Si4 0.218104 0.358996 0.000000
Si Si5 0.766044 0.343484 0.000000
Si Si6 0.537822 0.065675 0.362404
Si Si7 0.838412 0.613349 0.263900
O O1 0.901510 0.227047 0.373407
O O2 0.820987 0.293303 0.500000
O O3 0.808487 0.173992 0.500000
O O4 0.105268 0.780365 0.123688
O O5 0.205510 0.839277 0.000000
O O6 0.192767 0.721055 0.000000
O O7 0.500000 0.235849 0.750000
O O8 0.616620 0.176079 0.737587
O O9 0.193882 0.392895 0.872691
O O10 0.785956 0.377692 0.127243
O O11 0.500000 0.098655 0.250000
O O12 0.535877 0.096095 0.500000
O O13 0.611249 0.061971 0.315047
O O14 0.500000 0.000000 0.374471
#
# Coordination Sequence:
#
# PCOD9525156 Si02
#       7
#     8   8  16   8   8  16  16
#     4   9  17  28  40  58  79 109 141 179 229 270
#     4   9  17  28  40  58  83 109 139 183 231 268
#     4  10  18  27  40  59  85 112 144 183 227 271
#     4   9  18  28  43  61  80 106 140 186 231 268
#     4   9  16  28  45  57  78 106 142 186 229 266
#     4  10  21  35  48  63  85 112 142 184 229 269
#     4  10  18  30  44  63  81 107 147 189 230 265
#
# _framework density 16.97091
#
# number of rings (size 3 to 8) (size 9 to 14) (size 15 to 20)
#    0.000    2.400    1.000    2.400    1.400    4.800 
#    3.600    0.000    0.000    0.000    0.000    0.000 
#    0.000    0.000    0.000    0.000    0.000    0.000 
#
# Total GULP energy -222686.210910 kJ/mol
# GULP energy per Si atom -5567.155273 kJ/mol
# Density = 1.693228 g / cm^3
# Si number density = 16.970910 Si / 1000 Ang^3
#
#
#
# Elastic Constant Matrix: (Units=GPa)
#
#
# Indices 1 2 3 4 5 6 
#
# 1 105.8854 24.5548 66.3345 0.0000 0.0000 0.0000
# 2 24.5548 22.4828 24.0613 0.0000 0.0000 0.0000
# 3 66.3345 24.0613 195.0391 0.0000 0.0000 0.0000
# 4 0.0000 0.0000 0.0000 0.4660 0.0000 0.0000
# 5 0.0000 0.0000 0.0000 0.0000 22.3149 0.0000
# 6 0.0000 0.0000 0.0000 0.0000 0.0000 25.7603
#
#
#
# Elastic Compliance Matrix: (Units=1/GPa)
#
#
# Indices 1 2 3 4 5 6 
#
# 1 0.014370 -0.012055 -0.003400 0.000000 0.000000 0.000000
# 2 -0.012055 0.061358 -0.003469 0.000000 0.000000 0.000000
# 3 -0.003400 -0.003469 0.006712 0.000000 0.000000 0.000000
# 4 0.000000 0.000000 0.000000 2.146051 0.000000 0.000000
# 5 0.000000 0.000000 0.000000 0.000000 0.044813 0.000000
# 6 0.000000 0.000000 0.000000 0.000000 0.000000 0.038819
#
#
# Mechanical properties :
#
#
# Convention : Reuss Voigt Hill
#
# Bulk Modulus (GPa) = 22.42672 61.47872 41.95272
# Shear Modulus (GPa) = 2.11431 23.60533 12.85982
#
# Velocity S-wave (km/s) = 1.11738 3.73356 2.75572
# Velocity P-wave (km/s) = 3.86112 7.40882 5.90757
#
# Compressibility (1/GPa) = 0.04458966
#
# Stress axis : x y z
#
# Youngs Moduli (GPa) = 69.58995 16.29779 148.99620
#
# Poissons Ratio (x) = 0.19648 0.50660
# Poissons Ratio (y) = 0.83894 0.51692
# Poissons Ratio (z) = 0.23661 0.05654
#
# Static dielectric constant tensor:
#      x y z
#    x 1.579360 0.000000 0.000000 
#    y 0.000000 1.626990 0.000000 
#    z 0.000000 0.000000 1.616160 
# 
# From -- ./inp_files/13874.got.cif
#   From: 2010.05.17/outbox.cif.g08.bks.cpg/sg72_7_cif.got.tgz:13874.got - 2010.06.03 17:03:01.
