data_PCOD9525522
_publ_section_title
;
Structure prediction by ZEFSAII (Michael W. Deem and Ramdas Pophale) SiO2 
 PCOD9525522
Probable space group: I B A M
;
_chemical_formula_sum "Si O2"
_cell_formula_units_Z 96
_cell_length_a 9.195995
_cell_length_b 29.905712
_cell_length_c 14.804831
_cell_angle_alpha 90.000000
_cell_angle_beta 90.000000
_cell_angle_gamma 90.000000
_cell_volume 4071.517701
_symmetry_space_group_name_H-M "I B A M"
_symmetry_group_IT_number 72
_symmetry_cell_setting 'orthorhombic'
loop_
_space_group_symop_operation_xyz
x,y,z
-x,-y,z
x,-y,1/2-z
-x,y,1/2-z
-x,-y,-z
x,y,-z
-x,y,1/2+z
x,-y,1/2+z
1/2+x,1/2+y,1/2+z
1/2-x,1/2-y,1/2+z
1/2+x,1/2-y,-z
1/2-x,1/2+y,-z
1/2-x,1/2-y,1/2-z
1/2+x,1/2+y,1/2-z
1/2-x,1/2+y,z
1/2+x,1/2-y,z
loop_
_atom_site_type_symbol
_atom_site_label
_atom_site_fract_x
_atom_site_fract_y
_atom_site_fract_z
Si Si1 0.341696 0.484050 0.889653
Si Si2 0.131549 0.729183 0.817848
Si Si3 0.677574 0.650531 0.350260
Si Si4 0.170690 0.402158 0.894838
Si Si5 0.629361 0.326515 0.360383
Si Si6 0.140696 0.435370 0.609426
O O1 0.500000 0.500000 0.858196
O O2 0.297466 0.434487 0.858109
O O3 0.210501 0.517447 0.862543
O O4 0.348584 0.484845 0.000000
O O5 0.250000 0.750000 0.750000
O O6 0.202424 0.688633 0.873201
O O7 0.102046 0.773790 0.875629
O O8 0.000000 0.715944 0.750000
O O9 0.519934 0.652074 0.395678
O O10 0.645562 0.662706 0.246150
O O11 0.747256 0.602873 0.363040
O O12 0.224315 0.350967 0.892736
O O13 0.016358 0.418200 0.856394
O O14 0.159349 0.413055 0.000000
O O15 0.134648 0.436937 0.500000
#
# Coordination Sequence:
#
# PCOD9525522 Si02
#       6
#    16  16  16  16  16  16
#     4   9  17  33  56  77 103 144 184 220 271 337
#     4  10  18  34  55  80 107 142 183 223 265 324
#     4  10  21  34  56  82 108 142 183 229 270 326
#     4  10  21  35  55  81 111 143 180 228 277 329
#     4  10  20  36  54  82 109 140 186 225 272 327
#     4  10  21  35  54  82 111 141 182 227 277 330
#
# _framework density 23.578431999999999
#
# number of rings (size 3 to 8) (size 9 to 14) (size 15 to 20)
#    0.000    2.167    3.333    1.500    4.667    4.000 
#    0.000    1.667    0.000    5.000    0.000    0.000 
#    0.000    0.000    0.000    0.000    0.000    0.000 
#
# Total GULP energy -267582.692669 kJ/mol
# GULP energy per Si atom -5574.639431 kJ/mol
# Density = 2.352477 g / cm^3
# Si number density = 23.578432 Si / 1000 Ang^3
#
#
#
# Elastic Constant Matrix: (Units=GPa)
#
#
# Indices 1 2 3 4 5 6 
#
# 1 115.1529 11.2524 1.9358 0.0000 0.0000 0.0000
# 2 11.2524 89.4402 -2.4488 0.0000 0.0000 0.0000
# 3 1.9358 -2.4488 50.5144 0.0001 0.0000 0.0000
# 4 0.0000 0.0000 0.0001 13.5562 0.0000 0.0000
# 5 0.0000 0.0000 0.0000 0.0000 9.5632 0.0000
# 6 0.0000 0.0000 0.0000 0.0000 0.0000 41.8940
#
#
#
# Elastic Compliance Matrix: (Units=1/GPa)
#
#
# Indices 1 2 3 4 5 6 
#
# 1 0.008800 -0.001118 -0.000391 0.000000 0.000000 0.000000
# 2 -0.001118 0.011338 0.000592 0.000000 0.000000 0.000000
# 3 -0.000391 0.000592 0.019840 0.000000 0.000000 0.000000
# 4 0.000000 0.000000 0.000000 0.073767 0.000000 0.000000
# 5 0.000000 0.000000 0.000000 0.000000 0.104567 0.000000
# 6 0.000000 0.000000 0.000000 0.000000 0.000000 0.023870
#
#
# Mechanical properties :
#
#
# Convention : Reuss Voigt Hill
#
# Bulk Modulus (GPa) = 26.21654 30.73183 28.47419
# Shear Modulus (GPa) = 19.47571 29.29389 24.38480
#
# Velocity S-wave (km/s) = 2.87713 3.52860 3.21939
# Velocity P-wave (km/s) = 4.70959 5.44642 5.09135
#
# Compressibility (1/GPa) = 0.03814385
#
# Stress axis : x y z
#
# Youngs Moduli (GPa) = 113.63743 88.20280 50.40312
#
# Poissons Ratio (x) = 0.09860 0.01973
# Poissons Ratio (y) = 0.12703 -0.02986
# Poissons Ratio (z) = 0.04448 -0.05226
#
# Static dielectric constant tensor:
#      x y z
#    x 1.947700 0.000000 0.000000 
#    y 0.000000 1.995290 0.000000 
#    z 0.000000 0.000000 1.956050 
# 
# From -- ./inp_files/36030.got.cif
#   From: 2010.05.17/outbox.cif.g08.bks.cpg/sg72_19_cif.got.tgz:36030.got - 2010.06.03 17:03:01.
