data_PCOD9525649
_publ_section_title
;
Structure prediction by ZEFSAII (Michael W. Deem and Ramdas Pophale) SiO2 
 PCOD9525649
Probable space group: I B A M
;
_chemical_formula_sum "Si O2"
_cell_formula_units_Z 120
_cell_length_a 25.858044
_cell_length_b 23.532764
_cell_length_c 14.308095
_cell_angle_alpha 90.000000
_cell_angle_beta 90.000000
_cell_angle_gamma 90.000000
_cell_volume 8706.636730
_symmetry_space_group_name_H-M "I B A M"
_symmetry_group_IT_number 72
_symmetry_cell_setting 'orthorhombic'
loop_
_space_group_symop_operation_xyz
x,y,z
-x,-y,z
x,-y,1/2-z
-x,y,1/2-z
-x,-y,-z
x,y,-z
-x,y,1/2+z
x,-y,1/2+z
1/2+x,1/2+y,1/2+z
1/2-x,1/2-y,1/2+z
1/2+x,1/2-y,-z
1/2-x,1/2+y,-z
1/2-x,1/2-y,1/2-z
1/2+x,1/2+y,1/2-z
1/2-x,1/2+y,z
1/2+x,1/2-y,z
loop_
_atom_site_type_symbol
_atom_site_label
_atom_site_fract_x
_atom_site_fract_y
_atom_site_fract_z
Si Si1 0.158476 0.809229 0.111818
Si Si2 0.057942 0.120059 0.887157
Si Si3 0.298860 0.500000 0.250000
Si Si4 0.893272 0.000000 0.887648
Si Si5 0.658476 0.309229 0.888182
Si Si6 0.057942 0.120059 0.387157
Si Si7 0.266085 0.625978 0.250000
Si Si8 0.306677 0.779403 0.250000
O O1 0.102885 0.835804 0.137634
O O2 0.290439 0.844894 0.250000
O O3 0.165709 0.747693 0.159731
O O4 0.164328 0.807954 0.000000
O O5 0.102885 0.164196 0.862366
O O6 0.000000 0.132578 0.854628
O O7 0.076192 0.056906 0.860032
O O8 0.056546 0.119862 0.000000
O O9 0.337962 0.500000 0.338105
O O10 0.267271 0.558338 0.250000
O O11 0.923808 0.056906 0.860031
O O12 0.887668 0.000000 0.000000
O O13 0.701186 0.349937 0.838977
O O14 0.665709 0.247693 0.840269
O O15 0.664328 0.307954 0.000000
O O16 0.056546 0.119862 0.500000
O O17 0.298815 0.650064 0.338977
O O18 0.250000 0.750000 0.250000
#
# Coordination Sequence:
#
# PCOD9525649 Si02
#       8
#    16  16   8  16  16  16  16  16
#     4   9  16  29  45  58  77 104 131 165 203 236
#     4   9  16  26  41  59  80 109 140 168 198 230
#     4  12  20  30  43  58  78 106 137 174 208 234
#     4  10  19  30  40  52  80 114 144 171 196 224
#     4   9  16  29  45  58  77 104 131 165 203 236
#     4   9  16  26  41  59  80 109 140 168 198 230
#     4  10  20  30  41  59  78  96 134 173 204 242
#     4   8  18  30  41  60  75  93 130 173 205 245
#
# _framework density 13.782590000000001
#
# number of rings (size 3 to 8) (size 9 to 14) (size 15 to 20)
#    0.000    2.933    2.667    0.400    0.000    6.400 
#    0.000    6.667    0.000    0.000    0.000    0.000 
#    0.000    0.000    0.000    2.400    0.000   11.333 
#
# Total GULP energy -334071.758762 kJ/mol
# GULP energy per Si atom -5567.862646 kJ/mol
# Density = 1.375122 g / cm^3
# Si number density = 13.782590 Si / 1000 Ang^3
#
#
#
# Elastic Constant Matrix: (Units=GPa)
#
#
# Indices 1 2 3 4 5 6 
#
# 1 76.2897 63.0919 25.4822 0.0000 0.0000 0.0000
# 2 63.0919 99.2803 29.3870 0.0000 0.0000 0.0000
# 3 25.4822 29.3870 101.2786 0.0000 0.0000 0.0000
# 4 0.0000 0.0000 0.0000 10.9651 0.0000 0.0000
# 5 0.0000 0.0000 0.0000 0.0000 25.5167 0.0000
# 6 0.0000 0.0000 0.0000 0.0000 0.0000 14.7484
#
#
#
# Elastic Compliance Matrix: (Units=1/GPa)
#
#
# Indices 1 2 3 4 5 6 
#
# 1 0.028015 -0.017194 -0.002060 0.000000 0.000000 0.000000
# 2 -0.017194 0.021571 -0.001933 0.000000 0.000000 0.000000
# 3 -0.002060 -0.001933 0.010953 0.000000 0.000000 0.000000
# 4 0.000000 0.000000 0.000000 0.091199 0.000000 0.000000
# 5 0.000000 0.000000 0.000000 0.000000 0.039190 0.000000
# 6 0.000000 0.000000 0.000000 0.000000 0.000000 0.067804
#
#
# Mechanical properties :
#
#
# Convention : Reuss Voigt Hill
#
# Bulk Modulus (GPa) = 55.04779 56.97454 56.01116
# Shear Modulus (GPa) = 16.27810 20.83853 18.55832
#
# Velocity S-wave (km/s) = 3.44039 3.89259 3.67346
# Velocity P-wave (km/s) = 7.47051 7.85053 7.66288
#
# Compressibility (1/GPa) = 0.01816603
#
# Stress axis : x y z
#
# Youngs Moduli (GPa) = 35.69474 46.35803 91.29984
#
# Poissons Ratio (x) = 0.79707 0.18806
# Poissons Ratio (y) = 0.61373 0.17649
# Poissons Ratio (z) = 0.07353 0.08961
#
# Static dielectric constant tensor:
#      x y z
#    x 1.450490 0.000000 0.000000 
#    y 0.000000 1.467260 0.000000 
#    z 0.000000 0.000000 1.497570 
# 
# From -- ./inp_files/25475.got.cif
#   From: 2010.05.17/outbox.cif.g08.bks.cpg/sg72_13_cif.got.tgz:25475.got - 2010.06.03 17:03:01.
