data_PCOD9525049
_publ_section_title
;
Structure prediction by ZEFSAII (Michael W. Deem and Ramdas Pophale) SiO2 
 PCOD9525049
Probable space group: I B A M
;
_chemical_formula_sum "Si O2"
_cell_formula_units_Z 96
_cell_length_a 21.539559
_cell_length_b 12.356475
_cell_length_c 17.544959
_cell_angle_alpha 90.000000
_cell_angle_beta 90.000000
_cell_angle_gamma 90.000000
_cell_volume 4669.643864
_symmetry_space_group_name_H-M "I B A M"
_symmetry_group_IT_number 72
_symmetry_cell_setting 'orthorhombic'
loop_
_space_group_symop_operation_xyz
x,y,z
-x,-y,z
x,-y,1/2-z
-x,y,1/2-z
-x,-y,-z
x,y,-z
-x,y,1/2+z
x,-y,1/2+z
1/2+x,1/2+y,1/2+z
1/2-x,1/2-y,1/2+z
1/2+x,1/2-y,-z
1/2-x,1/2+y,-z
1/2-x,1/2-y,1/2-z
1/2+x,1/2+y,1/2-z
1/2-x,1/2+y,z
1/2+x,1/2-y,z
loop_
_atom_site_type_symbol
_atom_site_label
_atom_site_fract_x
_atom_site_fract_y
_atom_site_fract_z
Si Si1 0.655285 0.160696 0.221048
Si Si2 0.456313 0.200456 0.178052
Si Si3 0.930846 0.673526 0.909830
Si Si4 0.629350 0.366698 0.412425
Si Si5 0.703821 0.616732 0.770986
Si Si6 0.447180 0.425358 0.411975
O O1 0.601848 0.139316 0.283567
O O2 0.625844 0.128857 0.140212
O O3 0.670041 0.289591 0.223874
O O4 0.722616 0.115615 0.240899
O O5 0.500000 0.234554 0.250000
O O6 0.502578 0.135617 0.122767
O O7 0.424569 0.296353 0.128862
O O8 0.933881 0.802997 0.889209
O O9 0.924434 0.659322 0.000000
O O10 0.636251 0.332383 0.500000
O O11 0.689002 0.355248 0.358900
O O12 0.610543 0.493110 0.412163
O O13 0.677453 0.500000 0.750000
O O14 0.500000 0.500000 0.372888
O O15 0.468346 0.409333 0.500000
#
# Coordination Sequence:
#
# PCOD9525049 Si02
#       6
#    16  16  16  16  16  16
#     4   9  20  34  49  74 100 128 173 209 236 302
#     4   9  17  29  45  68 100 132 158 196 248 301
#     4  10  17  28  48  72 102 132 159 201 256 299
#     4  10  18  29  47  72 100 129 165 204 243 295
#     4  10  20  36  53  68  96 137 173 206 249 291
#     4   9  15  23  38  67 103 129 151 185 238 305
#
# _framework density 20.558313999999999
#
# number of rings (size 3 to 8) (size 9 to 14) (size 15 to 20)
#    0.000    2.500    1.667    1.500    0.000    0.667 
#    0.000    2.500    0.000    9.500    0.000    1.167 
#    0.000    0.000    0.000    0.000    0.000    0.000 
#
# Total GULP energy -267283.768898 kJ/mol
# GULP energy per Si atom -5568.411852 kJ/mol
# Density = 2.051152 g / cm^3
# Si number density = 20.558314 Si / 1000 Ang^3
#
#
#
# Elastic Constant Matrix: (Units=GPa)
#
#
# Indices 1 2 3 4 5 6 
#
# 1 87.5970 -8.1745 39.7860 0.0000 0.0000 0.0000
# 2 -8.1745 40.0138 4.8570 0.0000 0.0000 0.0000
# 3 39.7860 4.8570 130.7606 0.0000 0.0000 0.0000
# 4 0.0000 0.0000 0.0000 6.7684 0.0000 0.0000
# 5 0.0000 0.0000 0.0000 0.0000 16.0890 0.0000
# 6 0.0000 0.0000 0.0000 0.0000 0.0000 2.0274
#
#
#
# Elastic Compliance Matrix: (Units=1/GPa)
#
#
# Indices 1 2 3 4 5 6 
#
# 1 0.013670 0.003312 -0.004282 0.000000 0.000000 0.000000
# 2 0.003312 0.025907 -0.001970 0.000000 0.000000 0.000000
# 3 -0.004282 -0.001970 0.009024 0.000000 0.000000 0.000000
# 4 0.000000 0.000000 0.000000 0.147746 0.000000 0.000000
# 5 0.000000 0.000000 0.000000 0.000000 0.062154 0.000000
# 6 0.000000 0.000000 0.000000 0.000000 0.000000 0.493244
#
#
# Mechanical properties :
#
#
# Convention : Reuss Voigt Hill
#
# Bulk Modulus (GPa) = 23.40775 36.81205 30.10990
# Shear Modulus (GPa) = 6.47781 19.77048 13.12414
#
# Velocity S-wave (km/s) = 1.77702 3.10446 2.52937
# Velocity P-wave (km/s) = 3.95236 5.54935 4.81749
#
# Compressibility (1/GPa) = 0.04272089
#
# Stress axis : x y z
#
# Youngs Moduli (GPa) = 73.15258 38.59924 110.81901
#
# Poissons Ratio (x) = -0.12786 0.47457
# Poissons Ratio (y) = -0.24232 0.21833
# Poissons Ratio (z) = 0.31327 0.07605
#
# Static dielectric constant tensor:
#      x y z
#    x 1.759030 0.000000 0.000000 
#    y 0.000000 1.782770 0.000000 
#    z 0.000000 0.000000 1.742710 
# 
# From -- ./inp_files/39713.got.cif
#   From: 2010.05.17/outbox.cif.g08.bks.cpg/sg72_20_cif.got.tgz:39713.got - 2010.06.03 17:03:01.
