data_PCOD9525954
_publ_section_title
;
Structure prediction by ZEFSAII (Michael W. Deem and Ramdas Pophale) SiO2 
 PCOD9525954
Probable space group: I B A M
;
_chemical_formula_sum "Si O2"
_cell_formula_units_Z 128
_cell_length_a 28.250191
_cell_length_b 11.753396
_cell_length_c 23.554743
_cell_angle_alpha 90.000000
_cell_angle_beta 90.000000
_cell_angle_gamma 90.000000
_cell_volume 7821.015154
_symmetry_space_group_name_H-M "I B A M"
_symmetry_group_IT_number 72
_symmetry_cell_setting 'orthorhombic'
loop_
_space_group_symop_operation_xyz
x,y,z
-x,-y,z
x,-y,1/2-z
-x,y,1/2-z
-x,-y,-z
x,y,-z
-x,y,1/2+z
x,-y,1/2+z
1/2+x,1/2+y,1/2+z
1/2-x,1/2-y,1/2+z
1/2+x,1/2-y,-z
1/2-x,1/2+y,-z
1/2-x,1/2-y,1/2-z
1/2+x,1/2+y,1/2-z
1/2-x,1/2+y,z
1/2+x,1/2-y,z
loop_
_atom_site_type_symbol
_atom_site_label
_atom_site_fract_x
_atom_site_fract_y
_atom_site_fract_z
Si Si1 0.057244 0.191701 0.259190
Si Si2 0.688607 0.380381 0.561592
Si Si3 0.790203 0.477996 0.564503
Si Si4 0.790914 0.314648 0.147904
Si Si5 0.640949 0.136855 0.752518
Si Si6 0.444210 0.509979 0.837152
Si Si7 0.183144 0.256362 0.132788
Si Si8 0.117035 0.080581 0.064905
O O1 0.090463 0.302040 0.259042
O O2 0.070265 0.115100 0.314597
O O3 0.000000 0.212274 0.250000
O O4 0.071328 0.106655 0.207711
O O5 0.692033 0.320025 0.500000
O O6 0.733425 0.464638 0.563983
O O7 0.691276 0.294488 0.613112
O O8 0.643538 0.459869 0.562866
O O9 0.806096 0.500012 0.500000
O O10 0.802035 0.576338 0.608712
O O11 0.807338 0.356406 0.587363
O O12 0.819228 0.327519 0.206293
O O13 0.733840 0.297773 0.151479
O O14 0.658947 0.184520 0.812999
O O15 0.636974 0.000000 0.750000
O O16 0.500000 0.500000 0.832718
O O17 0.429037 0.553247 0.898405
O O18 0.149816 0.165278 0.101575
O O19 0.110161 0.120094 0.000000
#
# Coordination Sequence:
#
# PCOD9525954 Si02
#       8
#    16  16  16  16  16  16  16  16
#     4   9  19  37  60  81 105 141 179 221 278 330
#     4   9  19  32  50  75 102 138 182 219 253 308
#     4  10  19  33  52  72 101 142 186 222 257 307
#     4  11  21  35  52  75 107 146 181 222 271 310
#     4  12  23  37  54  77 109 139 181 228 270 324
#     4   9  18  35  58  83 111 138 173 223 276 334
#     4  11  22  37  50  76 112 146 181 221 269 323
#     4  11  20  33  55  82 111 144 181 222 270 324
#
# _framework density 16.366163
#
# number of rings (size 3 to 8) (size 9 to 14) (size 15 to 20)
#    0.000    1.750    3.750    2.625    0.000    1.500 
#    0.000    0.000    0.000    0.000    0.000    0.000 
#    0.000    3.250    0.000    0.000    0.000    0.000 
#
# Total GULP energy -356457.912069 kJ/mol
# GULP energy per Si atom -5569.654876 kJ/mol
# Density = 1.632891 g / cm^3
# Si number density = 16.366163 Si / 1000 Ang^3
#
#
#
# Elastic Constant Matrix: (Units=GPa)
#
#
# Indices 1 2 3 4 5 6 
#
# 1 28.1546 26.5885 21.7461 0.0000 0.0000 0.0000
# 2 26.5885 69.2332 32.8766 0.0000 0.0000 0.0000
# 3 21.7461 32.8766 97.5552 0.0000 0.0000 0.0000
# 4 0.0000 0.0000 0.0000 20.5846 0.0000 0.0000
# 5 0.0000 0.0000 0.0000 0.0000 12.5503 0.0000
# 6 0.0000 0.0000 0.0000 0.0000 0.0000 25.0968
#
#
#
# Elastic Compliance Matrix: (Units=1/GPa)
#
#
# Indices 1 2 3 4 5 6 
#
# 1 0.059072 -0.019564 -0.006575 0.000000 0.000000 0.000000
# 2 -0.019564 0.023675 -0.003618 0.000000 0.000000 0.000000
# 3 -0.006575 -0.003618 0.012935 0.000000 0.000000 0.000000
# 4 0.000000 0.000000 0.000000 0.048580 0.000000 0.000000
# 5 0.000000 0.000000 0.000000 0.000000 0.079679 0.000000
# 6 0.000000 0.000000 0.000000 0.000000 0.000000 0.039846
#
#
# Mechanical properties :
#
#
# Convention : Reuss Voigt Hill
#
# Bulk Modulus (GPa) = 27.64720 39.70727 33.67723
# Shear Modulus (GPa) = 14.90947 19.22847 17.06897
#
# Velocity S-wave (km/s) = 3.02154 3.43139 3.23297
# Velocity P-wave (km/s) = 5.39468 6.32564 5.87862
#
# Compressibility (1/GPa) = 0.03617003
#
# Stress axis : x y z
#
# Youngs Moduli (GPa) = 16.92840 42.23808 77.30774
#
# Poissons Ratio (x) = 0.82635 0.50827
# Poissons Ratio (y) = 0.33119 0.27967
# Poissons Ratio (z) = 0.11130 0.15280
#
# Static dielectric constant tensor:
#      x y z
#    x 1.551840 0.000000 0.000000 
#    y 0.000000 1.552430 0.000000 
#    z 0.000000 0.000000 1.599470 
# 
# From -- ./inp_files/46049.got.cif
#   From: 2010.05.17/outbox.cif.g08.bks.cpg/sg72_24_cif.got.tgz:46049.got - 2010.06.03 17:03:01.
