data_PCOD9525332
_publ_section_title
;
Structure prediction by ZEFSAII (Michael W. Deem and Ramdas Pophale) SiO2 
 PCOD9525332
Probable space group: I B A M
;
_chemical_formula_sum "Si O2"
_cell_formula_units_Z 128
_cell_length_a 17.971360
_cell_length_b 18.883276
_cell_length_c 20.695617
_cell_angle_alpha 90.000000
_cell_angle_beta 90.000000
_cell_angle_gamma 90.000000
_cell_volume 7023.226318
_symmetry_space_group_name_H-M "I B A M"
_symmetry_group_IT_number 72
_symmetry_cell_setting 'orthorhombic'
loop_
_space_group_symop_operation_xyz
x,y,z
-x,-y,z
x,-y,1/2-z
-x,y,1/2-z
-x,-y,-z
x,y,-z
-x,y,1/2+z
x,-y,1/2+z
1/2+x,1/2+y,1/2+z
1/2-x,1/2-y,1/2+z
1/2+x,1/2-y,-z
1/2-x,1/2+y,-z
1/2-x,1/2-y,1/2-z
1/2+x,1/2+y,1/2-z
1/2-x,1/2+y,z
1/2+x,1/2-y,z
loop_
_atom_site_type_symbol
_atom_site_label
_atom_site_fract_x
_atom_site_fract_y
_atom_site_fract_z
Si Si1 0.293971 0.076397 0.725655
Si Si2 0.619635 0.429485 0.291475
Si Si3 0.752465 0.782466 0.569006
Si Si4 0.090044 0.858729 0.074866
Si Si5 0.545492 0.196795 0.423944
Si Si6 0.611756 0.830028 0.628500
Si Si7 0.321506 0.812304 0.667558
Si Si8 0.414338 0.281837 0.265815
O O1 0.209712 0.070695 0.698601
O O2 0.353578 0.112320 0.677614
O O3 0.290432 0.126480 0.788213
O O4 0.318625 0.000000 0.750000
O O5 0.600743 0.500000 0.250000
O O6 0.583313 0.410727 0.362476
O O7 0.597967 0.364461 0.244653
O O8 0.759114 0.745738 0.500000
O O9 0.823382 0.834066 0.574515
O O10 0.674937 0.821729 0.575028
O O11 0.759780 0.727495 0.626657
O O12 0.047160 0.783319 0.086068
O O13 0.073153 0.882629 0.000000
O O14 0.556271 0.186747 0.500000
O O15 0.469724 0.160549 0.400508
O O16 0.613977 0.166760 0.382592
O O17 0.604074 0.756197 0.667546
O O18 0.360219 0.755391 0.714328
O O19 0.500000 0.264266 0.250000
#
# Coordination Sequence:
#
# PCOD9525332 Si02
#       8
#    16  16  16  16  16  16  16  16
#     4  10  22  35  53  77 109 144 183 229 279 328
#     4  11  20  34  53  81 112 146 184 228 275 328
#     4  10  18  30  54  82 105 136 182 223 269 327
#     4   9  17  33  53  78 108 146 183 221 272 338
#     4  10  19  33  55  80 108 137 178 226 279 334
#     4  11  19  32  54  80 110 135 178 232 274 318
#     4  10  18  35  55  75 105 141 178 226 277 327
#     4  11  19  32  52  79 108 137 175 224 277 331
#
# _framework density 18.225242000000001
#
# number of rings (size 3 to 8) (size 9 to 14) (size 15 to 20)
#    0.000    1.750    5.000    2.250    0.000    2.250 
#    0.000    1.250    0.000   14.250    0.000    2.625 
#    0.000    0.000    0.000    0.000    0.000    0.000 
#
# Total GULP energy -356560.865756 kJ/mol
# GULP energy per Si atom -5571.263527 kJ/mol
# Density = 1.818376 g / cm^3
# Si number density = 18.225242 Si / 1000 Ang^3
#
#
#
# Elastic Constant Matrix: (Units=GPa)
#
#
# Indices 1 2 3 4 5 6 
#
# 1 55.9828 -13.4561 -7.5205 0.0000 0.0000 0.0000
# 2 -13.4561 65.6031 24.6220 0.0000 0.0000 0.0000
# 3 -7.5205 24.6220 89.1660 0.0000 0.0000 0.0000
# 4 0.0000 0.0000 0.0000 32.4473 0.0000 0.0000
# 5 0.0000 0.0000 0.0000 0.0000 27.9348 0.0000
# 6 0.0000 0.0000 0.0000 0.0000 0.0000 39.5900
#
#
#
# Elastic Compliance Matrix: (Units=1/GPa)
#
#
# Indices 1 2 3 4 5 6 
#
# 1 0.018816 0.003641 0.000582 0.000000 0.000000 0.000000
# 2 0.003641 0.017710 -0.004583 0.000000 0.000000 0.000000
# 3 0.000582 -0.004583 0.012530 0.000000 0.000000 0.000000
# 4 0.000000 0.000000 0.000000 0.030819 0.000000 0.000000
# 5 0.000000 0.000000 0.000000 0.000000 0.035798 0.000000
# 6 0.000000 0.000000 0.000000 0.000000 0.000000 0.025259
#
#
# Mechanical properties :
#
#
# Convention : Reuss Voigt Hill
#
# Bulk Modulus (GPa) = 20.68912 24.22695 22.45804
# Shear Modulus (GPa) = 31.69282 33.80153 32.74717
#
# Velocity S-wave (km/s) = 4.17460 4.31124 4.24347
# Velocity P-wave (km/s) = 5.88327 6.17287 6.02981
#
# Compressibility (1/GPa) = 0.04833459
#
# Stress axis : x y z
#
# Youngs Moduli (GPa) = 53.14642 56.46452 79.81025
#
# Poissons Ratio (x) = -0.20560 -0.04641
# Poissons Ratio (y) = -0.19351 0.36580
# Poissons Ratio (z) = -0.03091 0.25880
#
# Static dielectric constant tensor:
#      x y z
#    x 1.646060 0.000000 0.000000 
#    y 0.000000 1.623870 0.000000 
#    z 0.000000 0.000000 1.684520 
# 
# From -- ./inp_files/45053.got.cif
#   From: 2010.05.17/outbox.cif.g08.bks.cpg/sg72_23_cif.got.tgz:45053.got - 2010.06.03 17:03:01.
