data_PCOD9525255
_publ_section_title
;
Structure prediction by ZEFSAII (Michael W. Deem and Ramdas Pophale) SiO2 
 PCOD9525255
Probable space group: I B A M
;
_chemical_formula_sum "Si O2"
_cell_formula_units_Z 116
_cell_length_a 26.348953
_cell_length_b 27.301416
_cell_length_c 9.193445
_cell_angle_alpha 90.000000
_cell_angle_beta 90.000000
_cell_angle_gamma 90.000000
_cell_volume 6613.430859
_symmetry_space_group_name_H-M "I B A M"
_symmetry_group_IT_number 72
_symmetry_cell_setting 'orthorhombic'
loop_
_space_group_symop_operation_xyz
x,y,z
-x,-y,z
x,-y,1/2-z
-x,y,1/2-z
-x,-y,-z
x,y,-z
-x,y,1/2+z
x,-y,1/2+z
1/2+x,1/2+y,1/2+z
1/2-x,1/2-y,1/2+z
1/2+x,1/2-y,-z
1/2-x,1/2+y,-z
1/2-x,1/2-y,1/2-z
1/2+x,1/2+y,1/2-z
1/2-x,1/2+y,z
1/2+x,1/2-y,z
loop_
_atom_site_type_symbol
_atom_site_label
_atom_site_fract_x
_atom_site_fract_y
_atom_site_fract_z
Si Si1 0.702367 0.450415 0.172657
Si Si2 0.083179 0.423825 0.834283
Si Si3 0.173496 0.854011 0.831657
Si Si4 0.681628 0.078629 0.327292
Si Si5 0.209428 0.676711 0.668985
Si Si6 0.144126 0.750974 0.827166
Si Si7 0.500000 0.000000 0.750000
Si Si8 0.551897 0.823816 0.173075
O O1 0.685256 0.500000 0.250000
O O2 0.674593 0.402338 0.234381
O O3 0.762906 0.443675 0.203777
O O4 0.696637 0.453573 0.000000
O O5 0.134455 0.443496 0.759404
O O6 0.038252 0.463533 0.832396
O O7 0.066932 0.375967 0.743211
O O8 0.093830 0.409783 0.000000
O O9 0.230333 0.831264 0.823405
O O10 0.137858 0.808316 0.790918
O O11 0.164531 0.867796 0.000000
O O12 0.672697 0.077236 0.500000
O O13 0.685516 0.134281 0.269141
O O14 0.194642 0.671006 0.500000
O O15 0.188783 0.727159 0.732516
O O16 0.095220 0.716878 0.803146
O O17 0.156759 0.748687 0.000000
O O18 0.500000 0.808281 0.250000
O O19 0.545110 0.830229 0.000000
#
# Coordination Sequence:
#
# PCOD9525255 Si02
#       8
#    16  16  16  16  16  16   4  16
#     4  10  21  36  54  77 106 143 178 215 258 306
#     4  12  25  41  59  75  96 128 174 229 285 332
#     4   9  19  34  51  76 108 140 175 214 256 312
#     4  10  21  36  53  74 101 133 173 217 266 319
#     4  10  18  29  50  77 104 136 173 211 257 313
#     4  10  20  34  53  76 106 140 171 212 268 320
#     4  12  30  44  56  74  98 128 178 236 296 328
#     4  11  23  39  59  79 104 137 175 220 274 329
#
# _framework density 17.540063
#
# number of rings (size 3 to 8) (size 9 to 14) (size 15 to 20)
#    0.000    1.655    2.069    2.690    0.966    4.966 
#    0.000    0.000    0.000    0.000    0.000    0.000 
#    0.000    0.552    0.000    6.345    0.000    1.931 
#
# Total GULP energy -323822.172533 kJ/mol
# GULP energy per Si atom -5583.140906 kJ/mol
# Density = 1.750014 g / cm^3
# Si number density = 17.540063 Si / 1000 Ang^3
#
#
#
# Elastic Constant Matrix: (Units=GPa)
#
#
# Indices 1 2 3 4 5 6 
#
# 1 38.2495 28.9186 23.7850 0.0000 0.0000 0.0000
# 2 28.9186 131.4164 55.9485 0.0000 0.0000 0.0000
# 3 23.7850 55.9485 75.0315 0.0000 0.0000 0.0000
# 4 0.0000 0.0000 0.0000 7.3745 0.0000 0.0000
# 5 0.0000 0.0000 0.0000 0.0000 14.9657 0.0000
# 6 0.0000 0.0000 0.0000 0.0000 0.0000 25.2439
#
#
#
# Elastic Compliance Matrix: (Units=1/GPa)
#
#
# Indices 1 2 3 4 5 6 
#
# 1 0.034112 -0.004253 -0.007642 0.000000 0.000000 0.000000
# 2 -0.004253 0.011679 -0.007360 0.000000 0.000000 0.000000
# 3 -0.007642 -0.007360 0.021239 0.000000 0.000000 0.000000
# 4 0.000000 0.000000 0.000000 0.135601 0.000000 0.000000
# 5 0.000000 0.000000 0.000000 0.000000 0.066819 0.000000
# 6 0.000000 0.000000 0.000000 0.000000 0.000000 0.039614
#
#
# Mechanical properties :
#
#
# Convention : Reuss Voigt Hill
#
# Bulk Modulus (GPa) = 35.06508 51.33350 43.19929
# Shear Modulus (GPa) = 14.00244 18.58652 16.29448
#
# Velocity S-wave (km/s) = 2.82851 3.25878 3.05123
# Velocity P-wave (km/s) = 5.54095 6.59465 6.09063
#
# Compressibility (1/GPa) = 0.02851840
#
# Stress axis : x y z
#
# Youngs Moduli (GPa) = 29.31540 85.62525 47.08382
#
# Poissons Ratio (x) = 0.36415 0.35983
# Poissons Ratio (y) = 0.12467 0.34655
# Poissons Ratio (z) = 0.22404 0.63023
#
# Static dielectric constant tensor:
#      x y z
#    x 1.614040 0.000000 0.000000 
#    y 0.000000 1.620340 0.000000 
#    z 0.000000 0.000000 1.588300 
# 
# From -- ./inp_files/7518.got.cif
#   From: 2010.05.17/outbox.cif.g08.bks.cpg/sg72_4_cif.got.tgz:7518.got - 2010.06.03 17:03:01.
