data_PCOD9525808
_publ_section_title
;
Structure prediction by ZEFSAII (Michael W. Deem and Ramdas Pophale) SiO2 
 PCOD9525808
Probable space group: I B A M
;
_chemical_formula_sum "Si O2"
_cell_formula_units_Z 112
_cell_length_a 13.920112
_cell_length_b 36.710004
_cell_length_c 14.605137
_cell_angle_alpha 90.000000
_cell_angle_beta 90.000000
_cell_angle_gamma 90.000000
_cell_volume 7463.332606
_symmetry_space_group_name_H-M "I B A M"
_symmetry_group_IT_number 72
_symmetry_cell_setting 'orthorhombic'
loop_
_space_group_symop_operation_xyz
x,y,z
-x,-y,z
x,-y,1/2-z
-x,y,1/2-z
-x,-y,-z
x,y,-z
-x,y,1/2+z
x,-y,1/2+z
1/2+x,1/2+y,1/2+z
1/2-x,1/2-y,1/2+z
1/2+x,1/2-y,-z
1/2-x,1/2+y,-z
1/2-x,1/2-y,1/2-z
1/2+x,1/2+y,1/2-z
1/2-x,1/2+y,z
1/2+x,1/2-y,z
loop_
_atom_site_type_symbol
_atom_site_label
_atom_site_fract_x
_atom_site_fract_y
_atom_site_fract_z
Si Si1 0.111708 0.898283 0.107944
Si Si2 0.112023 0.222576 0.249997
Si Si3 0.383607 0.541243 0.750000
Si Si4 0.271315 0.324519 0.609194
Si Si5 0.111706 0.898283 0.392057
Si Si6 0.728683 0.324519 0.390805
Si Si7 0.111547 0.689890 0.250004
O O1 0.142872 0.933904 0.163318
O O2 0.175984 0.863021 0.127106
O O3 0.000001 0.890274 0.132089
O O4 0.115369 0.905317 0.000000
O O5 0.164854 0.205766 0.161422
O O6 0.164858 0.205766 0.338570
O O7 0.118697 0.266117 0.249997
O O8 0.000000 0.212240 0.250000
O O9 0.346426 0.500000 0.750000
O O10 0.500000 0.538798 0.750000
O O11 0.357128 0.566097 0.836680
O O12 0.265510 0.318737 0.500000
O O13 0.324018 0.363021 0.627101
O O14 0.169444 0.323762 0.660874
O O15 0.115366 0.905319 0.500000
O O16 0.734476 0.318736 0.500000
O O17 0.830562 0.323761 0.339138
O O18 0.000000 0.679728 0.250000
#
# Coordination Sequence:
#
# PCOD9525808 Si02
#       7
#    16  16  16  16  16  16  16
#     4   9  17  28  43  65  90 115 146 181 213 250
#     4  10  20  32  46  67  93 116 144 185 228 271
#     4   9  16  25  39  60  89 125 152 168 198 247
#     4  10  19  32  50  67  86 117 154 188 223 264
#     4   9  17  28  43  65  90 115 146 181 213 250
#     4  10  19  32  50  67  86 117 154 188 223 264
#     4  10  22  35  45  63  90 117 147 189 236 273
#
# _framework density 15.006701
#
# number of rings (size 3 to 8) (size 9 to 14) (size 15 to 20)
#    0.000    2.429    0.000    4.286    0.000    6.286 
#    0.000    5.714    0.000    0.000    0.000    0.000 
#    0.000    9.143    0.000   25.143    0.000    1.143 
#
# Total GULP energy -312159.468051 kJ/mol
# GULP energy per Si atom -5574.276215 kJ/mol
# Density = 1.497255 g / cm^3
# Si number density = 15.006701 Si / 1000 Ang^3
#
#
#
# Elastic Constant Matrix: (Units=GPa)
#
#
# Indices 1 2 3 4 5 6 
#
# 1 107.1766 44.9185 55.3351 -0.0081 0.0001 0.0000
# 2 44.9185 90.2390 52.2829 0.0001 -0.0001 0.0001
# 3 55.3351 52.2829 110.2268 -0.0373 0.0002 -0.0004
# 4 -0.0081 0.0001 -0.0373 -42.3271 0.0014 -0.0006
# 5 0.0001 -0.0001 0.0002 0.0014 16.4387 -0.0005
# 6 0.0000 0.0001 -0.0004 -0.0006 -0.0005 13.4066
#
#
#
# Elastic Compliance Matrix: (Units=1/GPa)
#
#
# Indices 1 2 3 4 5 6 
#
# 1 0.013501 -0.003852 -0.004950 0.000002 0.000000 0.000000
# 2 -0.003852 0.016380 -0.005836 0.000006 0.000000 0.000000
# 3 -0.004950 -0.005836 0.014325 -0.000012 0.000000 0.000000
# 4 0.000002 0.000006 -0.000012 -0.023626 0.000002 -0.000001
# 5 0.000000 0.000000 0.000000 0.000002 0.060832 0.000002
# 6 0.000000 0.000000 0.000000 -0.000001 0.000002 0.074590
#
#
# Mechanical properties :
#
#
# Convention : Reuss Voigt Hill
#
# Bulk Modulus (GPa) = 66.97951 68.07949 67.52950
# Shear Modulus (GPa) = 26.28032 7.84401 17.06217
#
# Velocity S-wave (km/s) = 4.18932 2.28875 3.37556
# Velocity P-wave (km/s) = 8.25412 7.24217 7.76465
#
# Compressibility (1/GPa) = 0.01492994
#
# Stress axis : x y z
#
# Youngs Moduli (GPa) = 74.07015 61.04899 69.80646
#
# Poissons Ratio (x) = 0.23517 0.34557
# Poissons Ratio (y) = 0.28533 0.40737
# Poissons Ratio (z) = 0.36667 0.35626
#
# Static dielectric constant tensor:
#      x y z
#    x 1.492780 0.000000 0.000000 
#    y 0.000000 1.487390 0.000000 
#    z 0.000000 0.000000 1.519930 
# 
# From -- ./inp_files/22434.got.cif
#   From: 2010.05.17/outbox.cif.g08.bks.cpg/sg72_12_cif.got.tgz:22434.got - 2010.06.03 17:03:01.
