data_PCOD9525632
_publ_section_title
;
Structure prediction by ZEFSAII (Michael W. Deem and Ramdas Pophale) SiO2 
 PCOD9525632
Probable space group: I B A M
;
_chemical_formula_sum "Si O2"
_cell_formula_units_Z 96
_cell_length_a 24.658619
_cell_length_b 24.394359
_cell_length_c 9.066491
_cell_angle_alpha 90.000000
_cell_angle_beta 90.000000
_cell_angle_gamma 90.000000
_cell_volume 5453.777250
_symmetry_space_group_name_H-M "I B A M"
_symmetry_group_IT_number 72
_symmetry_cell_setting 'orthorhombic'
loop_
_space_group_symop_operation_xyz
x,y,z
-x,-y,z
x,-y,1/2-z
-x,y,1/2-z
-x,-y,-z
x,y,-z
-x,y,1/2+z
x,-y,1/2+z
1/2+x,1/2+y,1/2+z
1/2-x,1/2-y,1/2+z
1/2+x,1/2-y,-z
1/2-x,1/2+y,-z
1/2-x,1/2-y,1/2-z
1/2+x,1/2+y,1/2-z
1/2-x,1/2+y,z
1/2+x,1/2-y,z
loop_
_atom_site_type_symbol
_atom_site_label
_atom_site_fract_x
_atom_site_fract_y
_atom_site_fract_z
Si Si1 0.556753 0.146668 0.676505
Si Si2 0.058516 0.775426 0.176490
Si Si3 0.729178 0.441487 0.178245
Si Si4 0.356380 0.646209 0.169963
Si Si5 0.856345 0.556979 0.677069
Si Si6 0.551488 0.443652 0.167829
O O1 0.500000 0.130611 0.750000
O O2 0.551366 0.142183 0.500000
O O3 0.566781 0.210785 0.708938
O O4 0.605526 0.107118 0.724004
O O5 0.110629 0.808149 0.239005
O O6 0.000000 0.790182 0.250000
O O7 0.054322 0.783595 0.000000
O O8 0.711588 0.500000 0.250000
O O9 0.697116 0.386207 0.225222
O O10 0.792864 0.434626 0.213147
O O11 0.722249 0.445942 0.000000
O O12 0.398724 0.596350 0.168656
O O13 0.347626 0.664851 0.000000
O O14 0.873972 0.500000 0.750000
O O15 0.859682 0.552037 0.500000
O O16 0.564013 0.500000 0.250000
O O17 0.500000 0.418548 0.250000
O O18 0.536899 0.454357 0.000000
#
# Coordination Sequence:
#
# PCOD9525632 Si02
#       6
#    16  16  16  16  16  16
#     4   9  19  35  54  77 104 133 164 201 247 297
#     4  10  20  34  52  72  97 131 169 209 252 297
#     4   9  18  33  52  73 100 134 169 207 250 295
#     4  10  20  32  47  69  95 127 167 206 247 293
#     4   9  18  34  55  78 105 134 164 200 244 296
#     4  10  19  29  41  59  85 115 150 195 245 291
#
# _framework density 17.60248
#
# number of rings (size 3 to 8) (size 9 to 14) (size 15 to 20)
#    0.000    2.500    0.000    2.500    0.000    5.000 
#    0.000    2.500    0.000    0.000    0.000    0.000 
#    0.000    0.000    0.000    0.000    0.000    0.000 
#
# Total GULP energy -267406.259969 kJ/mol
# GULP energy per Si atom -5570.963749 kJ/mol
# Density = 1.756242 g / cm^3
# Si number density = 17.602480 Si / 1000 Ang^3
#
#
#
# Elastic Constant Matrix: (Units=GPa)
#
#
# Indices 1 2 3 4 5 6 
#
# 1 91.0003 67.0781 30.0675 0.0000 0.0000 0.0000
# 2 67.0781 105.1599 37.8419 0.0000 0.0000 0.0000
# 3 30.0675 37.8419 51.9188 0.0000 0.0000 0.0000
# 4 0.0000 0.0000 0.0000 17.8159 0.0000 0.0000
# 5 0.0000 0.0000 0.0000 0.0000 22.3754 0.0000
# 6 0.0000 0.0000 0.0000 0.0000 0.0000 39.7334
#
#
#
# Elastic Compliance Matrix: (Units=1/GPa)
#
#
# Indices 1 2 3 4 5 6 
#
# 1 0.021144 -0.012309 -0.003273 0.000000 0.000000 0.000000
# 2 -0.012309 0.020056 -0.007490 0.000000 0.000000 0.000000
# 3 -0.003273 -0.007490 0.026615 0.000000 0.000000 0.000000
# 4 0.000000 0.000000 0.000000 0.056130 0.000000 0.000000
# 5 0.000000 0.000000 0.000000 0.000000 0.044692 0.000000
# 6 0.000000 0.000000 0.000000 0.000000 0.000000 0.025168
#
#
# Mechanical properties :
#
#
# Convention : Reuss Voigt Hill
#
# Bulk Modulus (GPa) = 46.14398 57.56155 51.85277
# Shear Modulus (GPa) = 20.22881 23.52437 21.87659
#
# Velocity S-wave (km/s) = 3.39367 3.65968 3.52918
# Velocity P-wave (km/s) = 6.45193 7.11544 6.79179
#
# Compressibility (1/GPa) = 0.02167130
#
# Stress axis : x y z
#
# Youngs Moduli (GPa) = 47.29542 49.86028 37.57212
#
# Poissons Ratio (x) = 0.61373 0.12298
# Poissons Ratio (y) = 0.58216 0.28141
# Poissons Ratio (z) = 0.15481 0.37344
#
# Static dielectric constant tensor:
#      x y z
#    x 1.617930 0.000000 0.000000 
#    y 0.000000 1.602740 0.000000 
#    z 0.000000 0.000000 1.609480 
# 
# From -- ./inp_files/6961.got.cif
#   From: 2010.05.17/outbox.cif.g08.bks.cpg/sg72_4_cif.got.tgz:6961.got - 2010.06.03 17:03:01.
