data_PCOD9525693
_publ_section_title
;
Structure prediction by ZEFSAII (Michael W. Deem and Ramdas Pophale) SiO2 
 PCOD9525693
Probable space group: I B A M
;
_chemical_formula_sum "Si O2"
_cell_formula_units_Z 112
_cell_length_a 10.507944
_cell_length_b 20.609411
_cell_length_c 27.935801
_cell_angle_alpha 90.000000
_cell_angle_beta 90.000000
_cell_angle_gamma 90.000000
_cell_volume 6049.847928
_symmetry_space_group_name_H-M "I B A M"
_symmetry_group_IT_number 72
_symmetry_cell_setting 'orthorhombic'
loop_
_space_group_symop_operation_xyz
x,y,z
-x,-y,z
x,-y,1/2-z
-x,y,1/2-z
-x,-y,-z
x,y,-z
-x,y,1/2+z
x,-y,1/2+z
1/2+x,1/2+y,1/2+z
1/2-x,1/2-y,1/2+z
1/2+x,1/2-y,-z
1/2-x,1/2+y,-z
1/2-x,1/2-y,1/2-z
1/2+x,1/2+y,1/2-z
1/2-x,1/2+y,z
1/2+x,1/2-y,z
loop_
_atom_site_type_symbol
_atom_site_label
_atom_site_fract_x
_atom_site_fract_y
_atom_site_fract_z
Si Si1 0.967175 0.659547 0.642966
Si Si2 0.232734 0.328836 0.190396
Si Si3 0.984438 0.815147 0.638017
Si Si4 0.782245 0.171530 0.701646
Si Si5 0.304662 0.525601 0.443970
Si Si6 0.072657 0.899421 0.555623
Si Si7 0.042717 0.575059 0.444144
O O1 0.095796 0.645598 0.673323
O O2 0.973552 0.737429 0.636142
O O3 0.972046 0.621615 0.592846
O O4 0.837980 0.645277 0.671792
O O5 0.344865 0.340986 0.152178
O O6 0.225802 0.250325 0.196996
O O7 0.270204 0.350914 0.243688
O O8 0.080668 0.840997 0.678698
O O9 0.049705 0.838717 0.589184
O O10 0.274890 0.514351 0.500000
O O11 0.437263 0.563264 0.442570
O O12 0.327158 0.452854 0.424809
O O13 0.189437 0.569633 0.427171
O O14 0.100106 0.884096 0.500000
O O15 0.032230 0.595874 0.500000
O O16 0.000000 0.500000 0.441695
#
# Coordination Sequence:
#
# PCOD9525693 Si02
#       7
#    16  16  16  16  16  16  16
#     4  10  20  33  51  78 105 135 174 213 262 315
#     4   9  17  33  52  73 104 138 168 209 257 311
#     4  10  19  30  51  82 108 132 168 212 269 316
#     4   9  18  31  51  77 104 133 171 212 253 308
#     4   8  16  32  51  70  93 133 182 209 236 296
#     4   9  17  30  51  77 104 131 168 216 257 304
#     4  10  21  35  52  72 101 141 183 216 250 309
#
# _framework density 18.512861999999998
#
# number of rings (size 3 to 8) (size 9 to 14) (size 15 to 20)
#    0.000    2.714    0.000    2.571    2.000    4.000 
#    0.000    0.000    0.000    6.857    0.000    4.000 
#    0.000    0.000    0.000    0.000    0.000    0.000 
#
# Total GULP energy -311763.912625 kJ/mol
# GULP energy per Si atom -5567.212725 kJ/mol
# Density = 1.847073 g / cm^3
# Si number density = 18.512862 Si / 1000 Ang^3
#
#
#
# Elastic Constant Matrix: (Units=GPa)
#
#
# Indices 1 2 3 4 5 6 
#
# 1 64.4199 5.6279 7.6469 0.0000 0.0000 0.0000
# 2 5.6279 21.3575 21.3226 0.0000 0.0000 0.0000
# 3 7.6469 21.3226 73.4704 0.0000 0.0000 0.0000
# 4 0.0000 0.0000 0.0000 -1.3424 0.0000 0.0000
# 5 0.0000 0.0000 0.0000 0.0000 26.1112 0.0000
# 6 0.0000 0.0000 0.0000 0.0000 0.0000 18.4839
#
#
#
# Elastic Compliance Matrix: (Units=1/GPa)
#
#
# Indices 1 2 3 4 5 6 
#
# 1 0.015909 -0.003575 -0.000618 0.000000 0.000000 0.000000
# 2 -0.003575 0.066726 -0.018993 0.000000 0.000000 0.000000
# 3 -0.000618 -0.018993 0.019187 0.000000 0.000000 0.000000
# 4 0.000000 0.000000 0.000000 -0.744933 0.000000 0.000000
# 5 0.000000 0.000000 0.000000 0.000000 0.038298 0.000000
# 6 0.000000 0.000000 0.000000 0.000000 0.000000 0.054101
#
#
# Mechanical properties :
#
#
# Convention : Reuss Voigt Hill
#
# Bulk Modulus (GPa) = 18.03430 25.38250 21.70840
# Shear Modulus (GPa) = -10.29113 16.96057 3.33472
#
# Velocity S-wave (km/s) = -2.36029 3.03008 1.34358
# Velocity P-wave (km/s) = 1.52797 5.09729 3.76278
#
# Compressibility (1/GPa) = 0.05544989
#
# Stress axis : x y z
#
# Youngs Moduli (GPa) = 62.85810 14.98661 52.11726
#
# Poissons Ratio (x) = 0.05357 0.03223
# Poissons Ratio (y) = 0.22470 0.98987
# Poissons Ratio (z) = 0.03887 0.28464
#
# Static dielectric constant tensor:
#      x y z
#    x 1.701880 0.000000 0.000000 
#    y 0.000000 1.633240 0.000000 
#    z 0.000000 0.000000 1.644420 
# 
# From -- ./inp_files/43541.got.cif
#   From: 2010.05.17/outbox.cif.g08.bks.cpg/sg72_22_cif.got.tgz:43541.got - 2010.06.03 17:03:01.
