data_PCOD9525203
_publ_section_title
;
Structure prediction by ZEFSAII (Michael W. Deem and Ramdas Pophale) SiO2 
 PCOD9525203
Probable space group: I B A M
;
_chemical_formula_sum "Si O2"
_cell_formula_units_Z 116
_cell_length_a 28.248268
_cell_length_b 27.061795
_cell_length_c 7.575067
_cell_angle_alpha 90.000000
_cell_angle_beta 90.000000
_cell_angle_gamma 90.000000
_cell_volume 5790.751164
_symmetry_space_group_name_H-M "I B A M"
_symmetry_group_IT_number 72
_symmetry_cell_setting 'orthorhombic'
loop_
_space_group_symop_operation_xyz
x,y,z
-x,-y,z
x,-y,1/2-z
-x,y,1/2-z
-x,-y,-z
x,y,-z
-x,y,1/2+z
x,-y,1/2+z
1/2+x,1/2+y,1/2+z
1/2-x,1/2-y,1/2+z
1/2+x,1/2-y,-z
1/2-x,1/2+y,-z
1/2-x,1/2-y,1/2-z
1/2+x,1/2+y,1/2-z
1/2-x,1/2+y,z
1/2+x,1/2-y,z
loop_
_atom_site_type_symbol
_atom_site_label
_atom_site_fract_x
_atom_site_fract_y
_atom_site_fract_z
Si Si1 0.747552 0.642475 0.790641
Si Si2 0.681682 0.223776 0.207684
Si Si3 0.179588 0.556927 0.208635
Si Si4 0.947932 0.203761 0.211834
Si Si5 0.000000 0.500000 0.750000
Si Si6 0.349765 0.668159 0.700929
Si Si7 0.928056 0.579615 0.282491
Si Si8 0.079393 0.688531 0.212862
O O1 0.775490 0.690672 0.720410
O O2 0.780802 0.595042 0.772591
O O3 0.694238 0.638403 0.717649
O O4 0.742404 0.651267 0.000000
O O5 0.670152 0.275486 0.299467
O O6 0.634093 0.191625 0.230082
O O7 0.688543 0.233660 0.000000
O O8 0.190319 0.500000 0.250000
O O9 0.126367 0.569591 0.269811
O O10 0.178152 0.563234 0.000000
O O11 0.902218 0.173899 0.281307
O O12 0.944185 0.260648 0.277982
O O13 0.000000 0.183939 0.250000
O O14 0.942406 0.205937 0.000000
O O15 0.038422 0.459548 0.811528
O O16 0.356603 0.650448 0.500000
O O17 0.932417 0.573584 0.500000
O O18 0.940753 0.635775 0.233079
O O19 0.078525 0.689038 0.000000
#
# Coordination Sequence:
#
# PCOD9525203 Si02
#       8
#    16  16  16  16   4  16  16  16
#     4  10  20  34  52  76 101 131 167 205 252 307
#     4  10  18  28  47  76 101 125 163 208 251 297
#     4  11  22  38  57  76  99 130 168 212 264 314
#     4   9  18  31  49  69  96 132 166 203 243 291
#     4  12  22  36  52  70  92 120 174 232 280 304
#     4   9  19  34  50  70 103 138 167 199 246 306
#     4  10  21  36  51  67  90 125 168 216 269 316
#     4   9  18  34  49  64  91 129 168 204 256 312
#
# _framework density 20.031943999999999
#
# number of rings (size 3 to 8) (size 9 to 14) (size 15 to 20)
#    0.000    2.207    2.069    2.276    0.966    3.310 
#    0.000    1.379    0.000    0.000    0.000    0.000 
#    0.000    0.552    0.000    6.345    0.000    1.931 
#
# Total GULP energy -323437.123049 kJ/mol
# GULP energy per Si atom -5576.502122 kJ/mol
# Density = 1.998635 g / cm^3
# Si number density = 20.031944 Si / 1000 Ang^3
#
#
#
# Elastic Constant Matrix: (Units=GPa)
#
#
# Indices 1 2 3 4 5 6 
#
# 1 181.8061 42.8370 1.8106 0.0000 0.0000 0.0000
# 2 42.8370 46.5451 0.8335 0.0000 0.0000 0.0000
# 3 1.8106 0.8335 52.1297 0.0000 0.0000 0.0000
# 4 0.0000 0.0000 0.0000 -22.8765 0.0000 0.0000
# 5 0.0000 0.0000 0.0000 0.0000 50.6928 0.0000
# 6 0.0000 0.0000 0.0000 0.0000 0.0000 33.4351
#
#
#
# Elastic Compliance Matrix: (Units=1/GPa)
#
#
# Indices 1 2 3 4 5 6 
#
# 1 0.007024 -0.006462 -0.000141 0.000000 0.000000 0.000000
# 2 -0.006462 0.027436 -0.000214 0.000000 0.000000 0.000000
# 3 -0.000141 -0.000214 0.019191 0.000000 0.000000 0.000000
# 4 0.000000 0.000000 0.000000 -0.043713 0.000000 0.000000
# 5 0.000000 0.000000 0.000000 0.000000 0.019727 0.000000
# 6 0.000000 0.000000 0.000000 0.000000 0.000000 0.029909
#
#
# Mechanical properties :
#
#
# Convention : Reuss Voigt Hill
#
# Bulk Modulus (GPa) = 24.98929 41.27146 33.13037
# Shear Modulus (GPa) = 57.77194 27.91693 42.84444
#
# Velocity S-wave (km/s) = 5.37611 3.73717 4.62974
# Velocity P-wave (km/s) = 7.14412 6.26654 6.71967
#
# Compressibility (1/GPa) = 0.04001715
#
# Stress axis : x y z
#
# Youngs Moduli (GPa) = 142.36086 36.44870 52.10718
#
# Poissons Ratio (x) = 0.23554 0.00733
# Poissons Ratio (y) = 0.91997 0.01116
# Poissons Ratio (z) = 0.02002 0.00781
#
# Static dielectric constant tensor:
#      x y z
#    x 1.782090 0.000000 0.000000 
#    y 0.000000 1.670610 0.000000 
#    z 0.000000 0.000000 1.813840 
# 
# From -- ./inp_files/8691.got.cif
#   From: 2010.05.17/outbox.cif.g08.bks.cpg/sg72_5_cif.got.tgz:8691.got - 2010.06.03 17:03:01.
