data_PCOD9525467
_publ_section_title
;
Structure prediction by ZEFSAII (Michael W. Deem and Ramdas Pophale) SiO2 
 PCOD9525467
Probable space group: I B A M
;
_chemical_formula_sum "Si O2"
_cell_formula_units_Z 96
_cell_length_a 14.554014
_cell_length_b 20.687090
_cell_length_c 14.389179
_cell_angle_alpha 90.000000
_cell_angle_beta 90.000000
_cell_angle_gamma 90.000000
_cell_volume 4332.296855
_symmetry_space_group_name_H-M "I B A M"
_symmetry_group_IT_number 72
_symmetry_cell_setting 'orthorhombic'
loop_
_space_group_symop_operation_xyz
x,y,z
-x,-y,z
x,-y,1/2-z
-x,y,1/2-z
-x,-y,-z
x,y,-z
-x,y,1/2+z
x,-y,1/2+z
1/2+x,1/2+y,1/2+z
1/2-x,1/2-y,1/2+z
1/2+x,1/2-y,-z
1/2-x,1/2+y,-z
1/2-x,1/2-y,1/2-z
1/2+x,1/2+y,1/2-z
1/2-x,1/2+y,z
1/2+x,1/2-y,z
loop_
_atom_site_type_symbol
_atom_site_label
_atom_site_fract_x
_atom_site_fract_y
_atom_site_fract_z
Si Si1 0.255619 0.609882 0.887036
Si Si2 0.077276 0.681827 0.386675
Si Si3 0.053514 0.435116 0.386612
Si Si4 0.959426 0.066240 0.646816
Si Si5 0.739530 0.738036 0.113711
Si Si6 0.457423 0.298147 0.106393
O O1 0.158999 0.577211 0.856252
O O2 0.349164 0.574501 0.854720
O O3 0.254697 0.686480 0.862541
O O4 0.258186 0.607325 0.000000
O O5 0.080388 0.678306 0.500000
O O6 0.181430 0.688915 0.354431
O O7 0.012171 0.623777 0.357641
O O8 0.030926 0.748468 0.355242
O O9 0.057538 0.435273 0.500000
O O10 0.000000 0.500000 0.358858
O O11 0.000000 0.067627 0.750000
O O12 0.002910 0.130602 0.604299
O O13 0.000000 0.000000 0.605164
O O14 0.642187 0.712133 0.149097
O O15 0.741946 0.736698 0.000000
O O16 0.445491 0.276497 0.000000
#
# Coordination Sequence:
#
# PCOD9525467 Si02
#       6
#    16  16  16  16  16  16
#     4  10  18  33  58  83 111 149 186 225 285 343
#     4   9  15  26  47  76 111 142 173 215 267 324
#     4   9  17  28  47  81 119 147 174 221 280 336
#     4  11  25  41  54  75 111 152 190 236 288 337
#     4   9  16  27  51  85 112 139 177 227 278 322
#     4  10  18  32  57  83 106 139 186 231 274 334
#
# _framework density 22.159147000000001
#
# number of rings (size 3 to 8) (size 9 to 14) (size 15 to 20)
#    0.000    2.333    3.333    0.500    0.000    2.667 
#    0.000    4.167    0.000    0.000    0.000    7.000 
#    0.000    0.000    0.000    0.000    0.000    0.167 
#
# Total GULP energy -267903.238636 kJ/mol
# GULP energy per Si atom -5581.317472 kJ/mol
# Density = 2.210871 g / cm^3
# Si number density = 22.159147 Si / 1000 Ang^3
#
#
#
# Elastic Constant Matrix: (Units=GPa)
#
#
# Indices 1 2 3 4 5 6 
#
# 1 213.2765 75.1297 5.7972 0.0000 0.0000 0.0000
# 2 75.1297 133.2433 -13.0941 0.0001 0.0000 0.0000
# 3 5.7972 -13.0941 64.8367 0.0002 0.0001 0.0000
# 4 0.0000 0.0001 0.0002 21.9355 0.0000 0.0000
# 5 0.0000 0.0000 0.0001 0.0000 108.3150 0.0000
# 6 0.0000 0.0000 0.0000 0.0000 0.0000 36.0415
#
#
#
# Elastic Compliance Matrix: (Units=1/GPa)
#
#
# Indices 1 2 3 4 5 6 
#
# 1 0.005946 -0.003474 -0.001233 0.000000 0.000000 0.000000
# 2 -0.003474 0.009687 0.002267 0.000000 0.000000 0.000000
# 3 -0.001233 0.002267 0.015991 0.000000 0.000000 0.000000
# 4 0.000000 0.000000 0.000000 0.045588 0.000000 0.000000
# 5 0.000000 0.000000 0.000000 0.000000 0.009232 0.000000
# 6 0.000000 0.000000 0.000000 0.000000 0.000000 0.027746
#
#
# Mechanical properties :
#
#
# Convention : Reuss Voigt Hill
#
# Bulk Modulus (GPa) = 37.39215 60.78025 49.08620
# Shear Modulus (GPa) = 39.06700 56.15997 47.61348
#
# Velocity S-wave (km/s) = 4.20339 5.03974 4.64044
# Velocity P-wave (km/s) = 6.36152 7.83286 7.13522
#
# Compressibility (1/GPa) = 0.02674358
#
# Stress axis : x y z
#
# Youngs Moduli (GPa) = 168.18075 103.23561 62.53352
#
# Poissons Ratio (x) = 0.35863 0.07712
# Poissons Ratio (y) = 0.58424 -0.14175
# Poissons Ratio (z) = 0.20740 -0.23402
#
# Static dielectric constant tensor:
#      x y z
#    x 1.832420 0.000000 0.000000 
#    y 0.000000 1.798140 0.000000 
#    z 0.000000 0.000000 2.023480 
# 
# From -- ./inp_files/21811.got.cif
#   From: 2010.05.17/outbox.cif.g08.bks.cpg/sg72_11_cif.got.tgz:21811.got - 2010.06.03 17:03:01.
