data_PCOD9525613
_publ_section_title
;
Structure prediction by ZEFSAII (Michael W. Deem and Ramdas Pophale) SiO2 
 PCOD9525613
Probable space group: I B A M
;
_chemical_formula_sum "Si O2"
_cell_formula_units_Z 128
_cell_length_a 18.449921
_cell_length_b 22.919860
_cell_length_c 13.783411
_cell_angle_alpha 90.000000
_cell_angle_beta 90.000000
_cell_angle_gamma 90.000000
_cell_volume 5828.585583
_symmetry_space_group_name_H-M "I B A M"
_symmetry_group_IT_number 72
_symmetry_cell_setting 'orthorhombic'
loop_
_space_group_symop_operation_xyz
x,y,z
-x,-y,z
x,-y,1/2-z
-x,y,1/2-z
-x,-y,-z
x,y,-z
-x,y,1/2+z
x,-y,1/2+z
1/2+x,1/2+y,1/2+z
1/2-x,1/2-y,1/2+z
1/2+x,1/2-y,-z
1/2-x,1/2+y,-z
1/2-x,1/2-y,1/2-z
1/2+x,1/2+y,1/2-z
1/2-x,1/2+y,z
1/2+x,1/2-y,z
loop_
_atom_site_type_symbol
_atom_site_label
_atom_site_fract_x
_atom_site_fract_y
_atom_site_fract_z
Si Si1 0.217439 0.399732 0.118153
Si Si2 0.079794 0.331019 0.893305
Si Si3 0.232217 0.971250 0.618381
Si Si4 0.578827 0.521291 0.117782
Si Si5 0.979042 0.562697 0.637239
Si Si6 0.873931 0.147048 0.882373
Si Si7 0.440666 0.231371 0.880583
Si Si8 0.835206 0.374038 0.887641
O O1 0.148804 0.362573 0.154888
O O2 0.227287 0.467849 0.147668
O O3 0.289468 0.362858 0.139918
O O4 0.210380 0.402582 0.000000
O O5 0.025285 0.385119 0.904737
O O6 0.023609 0.283968 0.850108
O O7 0.103382 0.309201 0.000000
O O8 0.236438 0.969640 0.500000
O O9 0.148248 0.982024 0.645283
O O10 0.266089 0.909662 0.653475
O O11 0.500000 0.500000 0.145352
O O12 0.589110 0.587524 0.151636
O O13 0.581642 0.522672 0.000000
O O14 0.896010 0.575619 0.617528
O O15 0.000000 0.500000 0.600671
O O16 0.000000 0.564124 0.750000
O O17 0.911248 0.206126 0.847977
O O18 0.878586 0.148595 0.000000
O O19 0.380675 0.182420 0.851474
O O20 0.443175 0.229806 0.000000
O O21 0.817908 0.359713 0.000000
#
# Coordination Sequence:
#
# PCOD9525613 Si02
#       8
#    16  16  16  16  16  16  16  16
#     4   8  13  21  35  53  71  94 125 161 196 227
#     4   9  16  26  40  57  76 102 139 170 190 230
#     4   8  13  21  34  52  72  97 132 168 196 229
#     4   8  13  21  33  50  75 107 136 160 198 251
#     4  10  19  27  36  55  82 108 131 162 205 245
#     4   8  13  22  34  49  74 103 127 159 203 241
#     4   8  14  23  34  50  73 100 129 162 199 233
#     4   9  16  26  40  56  76 106 142 171 196 236
#
# _framework density 21.960730999999999
#
# number of rings (size 3 to 8) (size 9 to 14) (size 15 to 20)
#    0.000    3.500    0.000    3.375    0.000    2.000 
#    0.000    1.250    0.000    7.500    0.000    3.500 
#    0.000    0.000    0.000   19.375    0.000   18.250 
#
# Total GULP energy -356648.248571 kJ/mol
# GULP energy per Si atom -5572.628884 kJ/mol
# Density = 2.191075 g / cm^3
# Si number density = 21.960731 Si / 1000 Ang^3
#
#
#
# Elastic Constant Matrix: (Units=GPa)
#
#
# Indices 1 2 3 4 5 6 
#
# 1 166.2074 94.9650 -3.1843 0.0000 0.0000 0.0000
# 2 94.9650 119.7586 -9.8940 0.0000 0.0000 0.0000
# 3 -3.1843 -9.8940 66.4479 0.0000 0.0000 0.0000
# 4 0.0000 0.0000 0.0000 12.5447 0.0000 0.0000
# 5 0.0000 0.0000 0.0000 0.0000 -12.6218 0.0000
# 6 0.0000 0.0000 0.0000 0.0000 0.0000 31.1171
#
#
#
# Elastic Compliance Matrix: (Units=1/GPa)
#
#
# Indices 1 2 3 4 5 6 
#
# 1 0.011041 -0.008820 -0.000784 0.000000 0.000000 0.000000
# 2 -0.008820 0.015500 0.001885 0.000000 0.000000 0.000000
# 3 -0.000784 0.001885 0.015293 0.000000 0.000000 0.000000
# 4 0.000000 0.000000 0.000000 0.079715 0.000000 0.000000
# 5 0.000000 0.000000 0.000000 0.000000 -0.079228 0.000000
# 6 0.000000 0.000000 0.000000 0.000000 0.000000 0.032137
#
#
# Mechanical properties :
#
#
# Convention : Reuss Voigt Hill
#
# Bulk Modulus (GPa) = 37.88517 57.35414 47.61966
# Shear Modulus (GPa) = 50.66200 24.24313 37.45257
#
# Velocity S-wave (km/s) = 4.80827 3.32615 4.13417
# Velocity P-wave (km/s) = 6.93648 6.39722 6.67230
#
# Compressibility (1/GPa) = 0.02639555
#
# Stress axis : x y z
#
# Youngs Moduli (GPa) = 90.57190 64.51685 65.39146
#
# Poissons Ratio (x) = 0.56903 0.05128
# Poissons Ratio (y) = 0.79884 -0.12328
# Poissons Ratio (z) = 0.07102 -0.12163
#
# Static dielectric constant tensor:
#      x y z
#    x 1.875120 0.000000 0.000000 
#    y 0.000000 1.774680 0.000000 
#    z 0.000000 0.000000 1.844130 
# 
# From -- ./inp_files/39388.got.cif
#   From: 2010.05.17/outbox.cif.g08.bks.cpg/sg72_20_cif.got.tgz:39388.got - 2010.06.03 17:03:01.
