data_PCOD9525301
_publ_section_title
;
Structure prediction by ZEFSAII (Michael W. Deem and Ramdas Pophale) SiO2 
 PCOD9525301
Probable space group: I B A M
;
_chemical_formula_sum "Si O2"
_cell_formula_units_Z 80
_cell_length_a 24.684338
_cell_length_b 23.991517
_cell_length_c 8.960650
_cell_angle_alpha 90.000000
_cell_angle_beta 90.000000
_cell_angle_gamma 90.000000
_cell_volume 5306.628784
_symmetry_space_group_name_H-M "I B A M"
_symmetry_group_IT_number 72
_symmetry_cell_setting 'orthorhombic'
loop_
_space_group_symop_operation_xyz
x,y,z
-x,-y,z
x,-y,1/2-z
-x,y,1/2-z
-x,-y,-z
x,y,-z
-x,y,1/2+z
x,-y,1/2+z
1/2+x,1/2+y,1/2+z
1/2-x,1/2-y,1/2+z
1/2+x,1/2-y,-z
1/2-x,1/2+y,-z
1/2-x,1/2-y,1/2-z
1/2+x,1/2+y,1/2-z
1/2-x,1/2+y,z
1/2+x,1/2-y,z
loop_
_atom_site_type_symbol
_atom_site_label
_atom_site_fract_x
_atom_site_fract_y
_atom_site_fract_z
Si Si1 0.737683 0.664944 0.178339
Si Si2 0.334363 0.441307 0.820735
Si Si3 0.942963 0.240330 0.676981
Si Si4 0.442568 0.607196 0.822016
Si Si5 0.166389 0.274265 0.677770
O O1 0.708380 0.607380 0.217329
O O2 0.793611 0.678307 0.260810
O O3 0.696596 0.715696 0.214714
O O4 0.746624 0.666405 0.000000
O O5 0.318322 0.500000 0.750000
O O6 0.392512 0.423808 0.754015
O O7 0.338139 0.444865 0.000000
O O8 0.944808 0.248413 0.500000
O O9 0.935852 0.173755 0.704904
O O10 0.892142 0.271946 0.747312
O O11 0.000000 0.256578 0.750000
O O12 0.500000 0.590656 0.750000
O O13 0.443105 0.597805 0.000000
O O14 0.161353 0.277793 0.500000
#
# Coordination Sequence:
#
# PCOD9525301 Si02
#       5
#    16  16  16  16  16
#     4   9  19  33  48  68  94 123 156 195 239 284
#     4  11  22  36  51  68  93 123 161 204 243 284
#     4  10  19  30  47  70  98 127 158 194 237 284
#     4  10  20  33  49  67  90 123 162 203 243 282
#     4  10  18  30  50  72  95 122 156 194 236 287
#
# _framework density 15.075483999999999
#
# number of rings (size 3 to 8) (size 9 to 14) (size 15 to 20)
#    0.000    2.000    2.000    2.400    0.000    4.400 
#    0.000    2.000    0.000    0.000    0.000    0.000 
#    0.000    0.800    0.000    8.400    0.000    4.600 
#
# Total GULP energy -223279.617936 kJ/mol
# GULP energy per Si atom -5581.990448 kJ/mol
# Density = 1.504117 g / cm^3
# Si number density = 15.075484 Si / 1000 Ang^3
#
#
#
# Elastic Constant Matrix: (Units=GPa)
#
#
# Indices 1 2 3 4 5 6 
#
# 1 120.5686 59.9033 56.2736 0.0000 0.0000 0.0000
# 2 59.9033 79.0436 42.6393 0.0000 0.0000 0.0000
# 3 56.2736 42.6393 50.6501 0.0000 0.0000 0.0000
# 4 0.0000 0.0000 0.0000 20.7549 0.0000 0.0000
# 5 0.0000 0.0000 0.0000 0.0000 30.4556 0.0000
# 6 0.0000 0.0000 0.0000 0.0000 0.0000 17.2087
#
#
#
# Elastic Compliance Matrix: (Units=1/GPa)
#
#
# Indices 1 2 3 4 5 6 
#
# 1 0.018379 -0.005337 -0.015927 0.000000 0.000000 0.000000
# 2 -0.005337 0.024726 -0.014885 0.000000 0.000000 0.000000
# 3 -0.015927 -0.014885 0.049970 0.000000 0.000000 0.000000
# 4 0.000000 0.000000 0.000000 0.048181 0.000000 0.000000
# 5 0.000000 0.000000 0.000000 0.000000 0.032835 0.000000
# 6 0.000000 0.000000 0.000000 0.000000 0.000000 0.058110
#
#
# Mechanical properties :
#
#
# Convention : Reuss Voigt Hill
#
# Bulk Modulus (GPa) = 48.13293 63.09942 55.61618
# Shear Modulus (GPa) = 16.05519 19.78025 17.91772
#
# Velocity S-wave (km/s) = 3.26695 3.62619 3.45125
# Velocity P-wave (km/s) = 6.79911 7.71226 7.27003
#
# Compressibility (1/GPa) = 0.02077580
#
# Stress axis : x y z
#
# Youngs Moduli (GPa) = 54.40859 40.44342 20.01211
#
# Poissons Ratio (x) = 0.21586 0.31873
# Poissons Ratio (y) = 0.29039 0.29789
# Poissons Ratio (z) = 0.86656 0.60202
#
# Static dielectric constant tensor:
#      x y z
#    x 1.481460 0.000000 0.000000 
#    y 0.000000 1.487240 0.000000 
#    z 0.000000 0.000000 1.496570 
# 
# From -- ./inp_files/7925.got.cif
#   From: 2010.05.17/outbox.cif.g08.bks.cpg/sg72_4_cif.got.tgz:7925.got - 2010.06.03 17:03:01.
