data_PCOD9525793
_publ_section_title
;
Structure prediction by ZEFSAII (Michael W. Deem and Ramdas Pophale) SiO2 
 PCOD9525793
Probable space group: I B A M
;
_chemical_formula_sum "Si O2"
_cell_formula_units_Z 80
_cell_length_a 24.225538
_cell_length_b 25.305423
_cell_length_c 8.584853
_cell_angle_alpha 90.000000
_cell_angle_beta 90.000000
_cell_angle_gamma 90.000000
_cell_volume 5262.836705
_symmetry_space_group_name_H-M "I B A M"
_symmetry_group_IT_number 72
_symmetry_cell_setting 'orthorhombic'
loop_
_space_group_symop_operation_xyz
x,y,z
-x,-y,z
x,-y,1/2-z
-x,y,1/2-z
-x,-y,-z
x,y,-z
-x,y,1/2+z
x,-y,1/2+z
1/2+x,1/2+y,1/2+z
1/2-x,1/2-y,1/2+z
1/2+x,1/2-y,-z
1/2-x,1/2+y,-z
1/2-x,1/2-y,1/2-z
1/2+x,1/2+y,1/2-z
1/2-x,1/2+y,z
1/2+x,1/2-y,z
loop_
_atom_site_type_symbol
_atom_site_label
_atom_site_fract_x
_atom_site_fract_y
_atom_site_fract_z
Si Si1 0.227624 0.830918 0.188166
Si Si2 0.060186 0.336199 0.313311
Si Si3 0.665278 0.229935 0.688304
Si Si4 0.258575 0.943723 0.812780
Si Si5 0.612013 0.056943 0.186773
O O1 0.284961 0.805761 0.246746
O O2 0.179756 0.790029 0.236444
O O3 0.225940 0.891648 0.240997
O O4 0.229065 0.831306 0.000000
O O5 0.059062 0.336872 0.500000
O O6 0.107254 0.294666 0.261244
O O7 0.078454 0.393995 0.254079
O O8 0.000000 0.322993 0.250000
O O9 0.667272 0.227727 0.500000
O O10 0.323224 0.937157 0.767114
O O11 0.239033 0.000000 0.750000
O O12 0.257201 0.945617 0.000000
O O13 0.593206 0.000000 0.250000
O O14 0.608811 0.057407 0.000000
#
# Coordination Sequence:
#
# PCOD9525793 Si02
#       5
#    16  16  16  16  16
#     4   9  16  29  47  67  89 114 141 175 218 264
#     4  11  22  34  47  64  86 116 151 190 225 261
#     4   9  18  30  46  66  87 111 145 181 218 262
#     4   9  17  27  43  65  91 118 143 173 213 257
#     4  10  19  32  47  64  86 116 151 189 224 260
#
# _framework density 15.200929
#
# number of rings (size 3 to 8) (size 9 to 14) (size 15 to 20)
#    0.000    2.400    2.000    1.200    0.000    2.800 
#    0.000    2.000    0.000    0.000    0.000    0.000 
#    0.000    0.800    0.000   10.000    0.000    0.000 
#
# Total GULP energy -222965.049824 kJ/mol
# GULP energy per Si atom -5574.126246 kJ/mol
# Density = 1.516633 g / cm^3
# Si number density = 15.200929 Si / 1000 Ang^3
#
#
#
# Elastic Constant Matrix: (Units=GPa)
#
#
# Indices 1 2 3 4 5 6 
#
# 1 85.8422 72.2371 20.5889 0.0000 0.0000 0.0000
# 2 72.2371 145.5305 20.6914 0.0000 0.0000 0.0000
# 3 20.5889 20.6914 14.9269 0.0000 0.0000 0.0000
# 4 0.0000 0.0000 0.0000 18.7108 0.0000 0.0000
# 5 0.0000 0.0000 0.0000 0.0000 13.9821 0.0000
# 6 0.0000 0.0000 0.0000 0.0000 0.0000 20.6849
#
#
#
# Elastic Compliance Matrix: (Units=1/GPa)
#
#
# Indices 1 2 3 4 5 6 
#
# 1 0.024329 -0.009098 -0.020946 0.000000 0.000000 0.000000
# 2 -0.009098 0.011961 -0.004030 0.000000 0.000000 0.000000
# 3 -0.020946 -0.004030 0.101471 0.000000 0.000000 0.000000
# 4 0.000000 0.000000 0.000000 0.053445 0.000000 0.000000
# 5 0.000000 0.000000 0.000000 0.000000 0.071520 0.000000
# 6 0.000000 0.000000 0.000000 0.000000 0.000000 0.048344
#
#
# Mechanical properties :
#
#
# Convention : Reuss Voigt Hill
#
# Bulk Modulus (GPa) = 14.36531 52.59271 33.47901
# Shear Modulus (GPa) = 12.42472 19.52772 15.97622
#
# Velocity S-wave (km/s) = 2.86206 3.58808 3.24543
# Velocity P-wave (km/s) = 4.51582 7.19994 6.00965
#
# Compressibility (1/GPa) = 0.06961216
#
# Stress axis : x y z
#
# Youngs Moduli (GPa) = 41.10246 83.60818 9.85502
#
# Poissons Ratio (x) = 0.76069 0.20642
# Poissons Ratio (y) = 0.37396 0.03972
# Poissons Ratio (z) = 0.86094 0.33695
#
# Static dielectric constant tensor:
#      x y z
#    x 1.487740 0.000000 0.000000 
#    y 0.000000 1.529400 0.000000 
#    z 0.000000 0.000000 1.476110 
# 
# From -- ./inp_files/4800.got.cif
#   From: 2010.05.17/outbox.cif.g08.bks.cpg/sg72_3_cif.got.tgz:4800.got - 2010.06.03 17:03:01.
