data_PCOD9525291
_publ_section_title
;
Structure prediction by ZEFSAII (Michael W. Deem and Ramdas Pophale) SiO2 
 PCOD9525291
Probable space group: I B A M
;
_chemical_formula_sum "Si O2"
_cell_formula_units_Z 80
_cell_length_a 20.692241
_cell_length_b 7.342434
_cell_length_c 23.563411
_cell_angle_alpha 90.000000
_cell_angle_beta 90.000000
_cell_angle_gamma 90.000000
_cell_volume 3580.022348
_symmetry_space_group_name_H-M "I B A M"
_symmetry_group_IT_number 72
_symmetry_cell_setting 'orthorhombic'
loop_
_space_group_symop_operation_xyz
x,y,z
-x,-y,z
x,-y,1/2-z
-x,y,1/2-z
-x,-y,-z
x,y,-z
-x,y,1/2+z
x,-y,1/2+z
1/2+x,1/2+y,1/2+z
1/2-x,1/2-y,1/2+z
1/2+x,1/2-y,-z
1/2-x,1/2+y,-z
1/2-x,1/2-y,1/2-z
1/2+x,1/2+y,1/2-z
1/2-x,1/2+y,z
1/2+x,1/2-y,z
loop_
_atom_site_type_symbol
_atom_site_label
_atom_site_fract_x
_atom_site_fract_y
_atom_site_fract_z
Si Si1 0.396175 0.544609 0.621462
Si Si2 0.934658 0.792469 0.272760
Si Si3 0.210459 0.655272 0.129915
Si Si4 0.255761 0.804515 0.500000
Si Si5 0.135545 0.012311 0.000000
Si Si6 0.659847 0.790495 0.318795
O O1 0.440605 0.672727 0.660142
O O2 0.329271 0.656904 0.628632
O O3 0.406268 0.522481 0.555352
O O4 0.387818 0.343112 0.646537
O O5 0.870839 0.706898 0.244109
O O6 0.000000 0.705548 0.250000
O O7 0.931343 0.000000 0.250000
O O8 0.270855 0.693548 0.171582
O O9 0.169125 0.486227 0.152701
O O10 0.229591 0.617337 0.063811
O O11 0.303872 0.630523 0.500000
O O12 0.176971 0.799007 0.500000
#
# Coordination Sequence:
#
# PCOD9525291 Si02
#       6
#    16  16  16   8   8  16
#     4  10  21  36  54  83 112 149 183 230 270 333
#     4   9  21  42  61  78 109 152 191 232 280 322
#     4  11  20  33  53  88 118 145 183 220 284 335
#     4  10  18  30  48  76 121 153 167 217 272 344
#     4  10  18  30  52  79 112 147 182 211 275 325
#     4  11  20  35  56  83 111 149 182 228 275 332
#
# _framework density 22.346228
#
# number of rings (size 3 to 8) (size 9 to 14) (size 15 to 20)
#    0.000    1.800    4.000    1.200    0.000    1.600 
#    3.600    2.000    0.000   12.000    0.000    4.200 
#    0.000    0.000    0.000    0.000    0.000    0.000 
#
# Total GULP energy -222808.267951 kJ/mol
# GULP energy per Si atom -5570.206699 kJ/mol
# Density = 2.229537 g / cm^3
# Si number density = 22.346228 Si / 1000 Ang^3
#
#
#
# Elastic Constant Matrix: (Units=GPa)
#
#
# Indices 1 2 3 4 5 6 
#
# 1 49.6508 5.3036 30.9363 0.0000 0.0000 0.0000
# 2 5.3036 103.8884 27.7645 0.0000 0.0000 0.0000
# 3 30.9363 27.7645 153.1905 0.0000 0.0000 0.0000
# 4 0.0000 0.0000 0.0000 23.2530 0.0000 0.0000
# 5 0.0000 0.0000 0.0000 0.0000 19.0379 0.0000
# 6 0.0000 0.0000 0.0000 0.0000 0.0000 -25.1441
#
#
#
# Elastic Compliance Matrix: (Units=1/GPa)
#
#
# Indices 1 2 3 4 5 6 
#
# 1 0.023040 0.000071 -0.004666 0.000000 0.000000 0.000000
# 2 0.000071 0.010116 -0.001848 0.000000 0.000000 0.000000
# 3 -0.004666 -0.001848 0.007805 0.000000 0.000000 0.000000
# 4 0.000000 0.000000 0.000000 0.043005 0.000000 0.000000
# 5 0.000000 0.000000 0.000000 0.000000 0.052527 0.000000
# 6 0.000000 0.000000 0.000000 0.000000 0.000000 -0.039771
#
#
# Mechanical properties :
#
#
# Convention : Reuss Voigt Hill
#
# Bulk Modulus (GPa) = 35.61806 48.30427 41.96116
# Shear Modulus (GPa) = 42.02871 19.61104 30.81988
#
# Velocity S-wave (km/s) = 4.34152 2.96564 3.71778
# Velocity P-wave (km/s) = 6.41136 5.77840 6.10309
#
# Compressibility (1/GPa) = 0.02807565
#
# Stress axis : x y z
#
# Youngs Moduli (GPa) = 43.40238 98.85415 128.12431
#
# Poissons Ratio (x) = -0.00699 0.59779
# Poissons Ratio (y) = -0.00307 0.23674
# Poissons Ratio (z) = 0.20250 0.18265
#
# Static dielectric constant tensor:
#      x y z
#    x 1.910890 0.000000 0.000000 
#    y 0.000000 1.908090 0.000000 
#    z 0.000000 0.000000 1.902370 
# 
# From -- ./inp_files/45213.got.cif
#   From: 2010.05.17/outbox.cif.g08.bks.cpg/sg72_23_cif.got.tgz:45213.got - 2010.06.03 17:03:01.
