data_PCOD9525102
_publ_section_title
;
Structure prediction by ZEFSAII (Michael W. Deem and Ramdas Pophale) SiO2 
 PCOD9525102
Probable space group: I B A M
;
_chemical_formula_sum "Si O2"
_cell_formula_units_Z 108
_cell_length_a 13.223532
_cell_length_b 23.040911
_cell_length_c 15.779247
_cell_angle_alpha 90.000000
_cell_angle_beta 90.000000
_cell_angle_gamma 90.000000
_cell_volume 4807.656068
_symmetry_space_group_name_H-M "I B A M"
_symmetry_group_IT_number 72
_symmetry_cell_setting 'orthorhombic'
loop_
_space_group_symop_operation_xyz
x,y,z
-x,-y,z
x,-y,1/2-z
-x,y,1/2-z
-x,-y,-z
x,y,-z
-x,y,1/2+z
x,-y,1/2+z
1/2+x,1/2+y,1/2+z
1/2-x,1/2-y,1/2+z
1/2+x,1/2-y,-z
1/2-x,1/2+y,-z
1/2-x,1/2-y,1/2-z
1/2+x,1/2+y,1/2-z
1/2-x,1/2+y,z
1/2+x,1/2-y,z
loop_
_atom_site_type_symbol
_atom_site_label
_atom_site_fract_x
_atom_site_fract_y
_atom_site_fract_z
Si Si1 0.732908 0.239085 0.592676
Si Si2 0.500000 0.000000 0.750000
Si Si3 0.590429 0.926737 0.097777
Si Si4 0.008539 0.065994 0.098736
Si Si5 0.664886 0.353902 0.341060
Si Si6 0.500264 0.197374 0.093901
Si Si7 0.208745 0.123695 0.831477
Si Si8 0.000000 0.228458 0.750000
O O1 0.773109 0.224859 0.500000
O O2 0.734570 0.307631 0.610649
O O3 0.614120 0.222521 0.591591
O O4 0.781059 0.192838 0.655358
O O5 0.433758 0.035506 0.819090
O O6 0.515359 0.871232 0.103640
O O7 0.705040 0.904448 0.110768
O O8 0.581644 0.949546 0.000000
O O9 0.098874 0.099745 0.144871
O O10 0.903445 0.100879 0.107837
O O11 0.035620 0.063331 0.000000
O O12 0.000000 0.000000 0.131198
O O13 0.725934 0.386766 0.267962
O O14 0.582132 0.313357 0.293006
O O15 0.544075 0.229404 0.176176
O O16 0.543249 0.209180 0.000000
#
# Coordination Sequence:
#
# PCOD9525102 Si02
#       8
#    16   4  16  16  16  16  16   8
#     4   9  18  34  58  84 119 161 203 259 322 381
#     4  12  24  40  68  94 114 154 210 284 330 386
#     4  10  22  41  64  91 122 161 210 265 331 400
#     4  11  24  41  62  90 129 181 233 274 323 394
#     4  11  21  36  57  93 129 165 210 269 322 385
#     4   8  16  31  53  79 115 157 193 240 309 378
#     4  11  21  40  63  91 125 171 216 265 328 402
#     4  10  17  32  51  87 120 155 200 250 300 368
#
# _framework density 22.464171
#
# number of rings (size 3 to 8) (size 9 to 14) (size 15 to 20)
#    0.000    1.926    1.481    3.778    0.000    2.963 
#    0.000    0.000    0.000    4.444    0.000    0.000 
#    0.000    0.000    0.000    0.000    0.000    0.000 
#
# Total GULP energy -301313.042017 kJ/mol
# GULP energy per Si atom -5579.871148 kJ/mol
# Density = 2.241304 g / cm^3
# Si number density = 22.464171 Si / 1000 Ang^3
#
#
#
# Elastic Constant Matrix: (Units=GPa)
#
#
# Indices 1 2 3 4 5 6 
#
# 1 52.1153 34.3524 6.0991 0.0000 0.0000 0.0000
# 2 34.3524 91.0614 37.2620 -0.0001 0.0001 0.0000
# 3 6.0991 37.2620 109.5526 -0.0003 0.0002 0.0000
# 4 0.0000 -0.0001 -0.0003 38.0508 0.0001 0.0000
# 5 0.0000 0.0001 0.0002 0.0001 36.2158 0.0000
# 6 0.0000 0.0000 0.0000 0.0000 0.0000 24.1782
#
#
#
# Elastic Compliance Matrix: (Units=1/GPa)
#
#
# Indices 1 2 3 4 5 6 
#
# 1 0.025984 -0.010700 0.002193 0.000000 0.000000 0.000000
# 2 -0.010700 0.017163 -0.005242 0.000000 0.000000 0.000000
# 3 0.002193 -0.005242 0.010789 0.000000 0.000000 0.000000
# 4 0.000000 0.000000 0.000000 0.026281 0.000000 0.000000
# 5 0.000000 0.000000 0.000000 0.000000 0.027612 0.000000
# 6 0.000000 0.000000 0.000000 0.000000 0.000000 0.041360
#
#
# Mechanical properties :
#
#
# Convention : Reuss Voigt Hill
#
# Bulk Modulus (GPa) = 37.82386 45.35069 41.58728
# Shear Modulus (GPa) = 26.95424 31.35668 29.15546
#
# Velocity S-wave (km/s) = 3.46768 3.74016 3.60650
# Velocity P-wave (km/s) = 5.73647 6.23567 5.99127
#
# Compressibility (1/GPa) = 0.02643834
#
# Stress axis : x y z
#
# Youngs Moduli (GPa) = 38.48460 58.26494 92.68782
#
# Poissons Ratio (x) = 0.62342 -0.20323
# Poissons Ratio (y) = 0.41177 0.48586
# Poissons Ratio (z) = -0.08438 0.30542
#
# Static dielectric constant tensor:
#      x y z
#    x 1.849700 0.000000 0.000000 
#    y 0.000000 1.857380 0.000000 
#    z 0.000000 0.000000 1.979650 
# 
# From -- ./inp_files/22192.got.cif
#   From: 2010.05.17/outbox.cif.g08.bks.cpg/sg72_12_cif.got.tgz:22192.got - 2010.06.03 17:03:01.
