data_PCOD9525300
_publ_section_title
;
Structure prediction by ZEFSAII (Michael W. Deem and Ramdas Pophale) SiO2 
 PCOD9525300
Probable space group: I B A M
;
_chemical_formula_sum "Si O2"
_cell_formula_units_Z 128
_cell_length_a 19.953824
_cell_length_b 22.168997
_cell_length_c 18.603304
_cell_angle_alpha 90.000000
_cell_angle_beta 90.000000
_cell_angle_gamma 90.000000
_cell_volume 8229.288063
_symmetry_space_group_name_H-M "I B A M"
_symmetry_group_IT_number 72
_symmetry_cell_setting 'orthorhombic'
loop_
_space_group_symop_operation_xyz
x,y,z
-x,-y,z
x,-y,1/2-z
-x,y,1/2-z
-x,-y,-z
x,y,-z
-x,y,1/2+z
x,-y,1/2+z
1/2+x,1/2+y,1/2+z
1/2-x,1/2-y,1/2+z
1/2+x,1/2-y,-z
1/2-x,1/2+y,-z
1/2-x,1/2-y,1/2-z
1/2+x,1/2+y,1/2-z
1/2-x,1/2+y,z
1/2+x,1/2-y,z
loop_
_atom_site_type_symbol
_atom_site_label
_atom_site_fract_x
_atom_site_fract_y
_atom_site_fract_z
Si Si1 0.192120 0.928035 0.580558
Si Si2 0.247603 0.779495 0.864476
Si Si3 0.339527 0.382469 0.824024
Si Si4 0.075331 0.787552 0.731363
Si Si5 0.666386 0.188774 0.721849
Si Si6 0.926142 0.023904 0.084544
Si Si7 0.863605 0.792990 0.078065
Si Si8 0.275607 0.937547 0.278054
O O1 0.218808 0.938960 0.500000
O O2 0.171597 0.858105 0.586071
O O3 0.242448 0.944282 0.643817
O O4 0.125319 0.968034 0.588556
O O5 0.202101 0.838191 0.877647
O O6 0.287623 0.794561 0.790868
O O7 0.200755 0.722364 0.845517
O O8 0.305206 0.757208 0.917289
O O9 0.376284 0.336929 0.768642
O O10 0.392656 0.424417 0.865746
O O11 0.285191 0.419561 0.776933
O O12 0.097094 0.722703 0.763449
O O13 0.088765 0.786235 0.646428
O O14 0.000000 0.802620 0.750000
O O15 0.672215 0.117394 0.717268
O O16 0.930245 0.042791 0.000000
O O17 0.000000 0.000000 0.106223
O O18 0.896941 0.790963 0.000000
O O19 0.304787 0.000000 0.250000
#
# Coordination Sequence:
#
# PCOD9525300 Si02
#       8
#    16  16  16  16  16  16  16  16
#     4  10  19  31  45  64  95 129 158 191 233 279
#     4   8  14  28  46  66  92 118 144 198 248 269
#     4  10  19  30  48  71  94 122 165 202 226 278
#     4  10  20  33  50  70  94 129 163 199 240 276
#     4   8  15  29  46  67  94 114 148 195 242 280
#     4  10  22  35  43  59  98 142 162 189 232 268
#     4  10  18  30  50  71  93 123 160 198 241 293
#     4  11  17  29  51  73  91 118 157 198 240 280
#
# _framework density 15.554201000000001
#
# number of rings (size 3 to 8) (size 9 to 14) (size 15 to 20)
#    0.000    2.375    3.750    1.500    1.750    0.500 
#    0.000    0.625    0.000    1.875    0.000    0.000 
#    0.000    0.000    0.000    7.000    0.000    0.000 
#
# Total GULP energy -356315.056431 kJ/mol
# GULP energy per Si atom -5567.422757 kJ/mol
# Density = 1.551880 g / cm^3
# Si number density = 15.554201 Si / 1000 Ang^3
#
#
#
# Elastic Constant Matrix: (Units=GPa)
#
#
# Indices 1 2 3 4 5 6 
#
# 1 23.1272 12.1801 13.1747 0.0000 0.0000 0.0000
# 2 12.1801 76.9967 20.1028 0.0000 0.0000 0.0000
# 3 13.1747 20.1028 73.3482 0.0000 0.0000 0.0000
# 4 0.0000 0.0000 0.0000 16.3103 0.0000 0.0000
# 5 0.0000 0.0000 0.0000 0.0000 11.4184 0.0000
# 6 0.0000 0.0000 0.0000 0.0000 0.0000 22.2927
#
#
#
# Elastic Compliance Matrix: (Units=1/GPa)
#
#
# Indices 1 2 3 4 5 6 
#
# 1 0.050675 -0.006075 -0.007437 0.000000 0.000000 0.000000
# 2 -0.006075 0.014717 -0.002942 0.000000 0.000000 0.000000
# 3 -0.007437 -0.002942 0.015776 0.000000 0.000000 0.000000
# 4 0.000000 0.000000 0.000000 0.061311 0.000000 0.000000
# 5 0.000000 0.000000 0.000000 0.000000 0.087578 0.000000
# 6 0.000000 0.000000 0.000000 0.000000 0.000000 0.044858
#
#
# Mechanical properties :
#
#
# Convention : Reuss Voigt Hill
#
# Bulk Modulus (GPa) = 20.72137 29.37634 25.04886
# Shear Modulus (GPa) = 15.43644 18.53859 16.98752
#
# Velocity S-wave (km/s) = 3.15370 3.45609 3.30835
# Velocity P-wave (km/s) = 5.15869 5.90369 5.54372
#
# Compressibility (1/GPa) = 0.04825935
#
# Stress axis : x y z
#
# Youngs Moduli (GPa) = 19.73354 67.94997 63.38776
#
# Poissons Ratio (x) = 0.41276 0.47144
# Poissons Ratio (y) = 0.11987 0.18651
# Poissons Ratio (z) = 0.14677 0.19993
#
# Static dielectric constant tensor:
#      x y z
#    x 1.500180 0.000000 0.000000 
#    y 0.000000 1.543120 0.000000 
#    z 0.000000 0.000000 1.534050 
# 
# From -- ./inp_files/32994.got.cif
#   From: 2010.05.17/outbox.cif.g08.bks.cpg/sg72_17_cif.got.tgz:32994.got - 2010.06.03 17:03:01.
