data_PCOD9525640
_publ_section_title
;
Structure prediction by ZEFSAII (Michael W. Deem and Ramdas Pophale) SiO2 
 PCOD9525640
Probable space group: I B A M
;
_chemical_formula_sum "Si O2"
_cell_formula_units_Z 80
_cell_length_a 19.807842
_cell_length_b 27.864014
_cell_length_c 8.796486
_cell_angle_alpha 90.000000
_cell_angle_beta 90.000000
_cell_angle_gamma 90.000000
_cell_volume 4855.009216
_symmetry_space_group_name_H-M "I B A M"
_symmetry_group_IT_number 72
_symmetry_cell_setting 'orthorhombic'
loop_
_space_group_symop_operation_xyz
x,y,z
-x,-y,z
x,-y,1/2-z
-x,y,1/2-z
-x,-y,-z
x,y,-z
-x,y,1/2+z
x,-y,1/2+z
1/2+x,1/2+y,1/2+z
1/2-x,1/2-y,1/2+z
1/2+x,1/2-y,-z
1/2-x,1/2+y,-z
1/2-x,1/2-y,1/2-z
1/2+x,1/2+y,1/2-z
1/2-x,1/2+y,z
1/2+x,1/2-y,z
loop_
_atom_site_type_symbol
_atom_site_label
_atom_site_fract_x
_atom_site_fract_y
_atom_site_fract_z
Si Si1 0.285196 0.701480 0.680391
Si Si2 0.074310 0.552380 0.183457
Si Si3 0.433503 0.190539 0.329074
Si Si4 0.931442 0.195397 0.671138
Si Si5 0.821826 0.636605 0.321887
O O1 0.283185 0.707361 0.500000
O O2 0.250000 0.750000 0.750000
O O3 0.361390 0.692555 0.737825
O O4 0.242964 0.654268 0.730022
O O5 0.090899 0.500000 0.250000
O O6 0.133646 0.590123 0.223568
O O7 0.000000 0.564350 0.250000
O O8 0.069296 0.551095 0.000000
O O9 0.500000 0.170557 0.250000
O O10 0.421770 0.171316 0.500000
O O11 0.441467 0.247263 0.343156
O O12 0.373720 0.179450 0.214524
O O13 0.923824 0.175906 0.500000
O O14 0.000000 0.176539 0.750000
O O15 0.806212 0.633305 0.500000
#
# Coordination Sequence:
#
# PCOD9525640 Si02
#       5
#    16  16  16  16  16
#     4  12  23  35  51  72 101 136 172 215 262 308
#     4  10  21  36  55  77 103 137 175 220 267 315
#     4  10  19  29  44  65  92 127 166 208 251 295
#     4  10  20  34  50  69  95 130 170 209 250 298
#     4  11  22  34  50  72  99 131 171 215 260 310
#
# _framework density 16.477826
#
# number of rings (size 3 to 8) (size 9 to 14) (size 15 to 20)
#    0.000    1.400    2.000    5.400    0.000    6.400 
#    0.000    0.000    0.000    0.000    0.000    0.000 
#    0.000    0.800    0.000    8.400    0.000    4.600 
#
# Total GULP energy -222933.259097 kJ/mol
# GULP energy per Si atom -5573.331477 kJ/mol
# Density = 1.644032 g / cm^3
# Si number density = 16.477826 Si / 1000 Ang^3
#
#
#
# Elastic Constant Matrix: (Units=GPa)
#
#
# Indices 1 2 3 4 5 6 
#
# 1 136.0823 35.7150 65.0958 0.0000 0.0000 0.0000
# 2 35.7150 56.6666 36.1892 0.0000 0.0000 0.0000
# 3 65.0958 36.1892 117.0664 0.0000 0.0000 0.0001
# 4 0.0000 0.0000 0.0000 12.1202 0.0000 0.0000
# 5 0.0000 0.0000 0.0000 0.0000 27.3189 0.0000
# 6 0.0000 0.0000 0.0001 0.0000 0.0000 2978.9484
#
#
#
# Elastic Compliance Matrix: (Units=1/GPa)
#
#
# Indices 1 2 3 4 5 6 
#
# 1 0.010578 -0.003626 -0.004761 0.000000 0.000000 0.000000
# 2 -0.003626 0.023231 -0.005165 0.000000 0.000000 0.000000
# 3 -0.004761 -0.005165 0.012786 0.000000 0.000000 0.000000
# 4 0.000000 0.000000 0.000000 0.082507 0.000000 0.000000
# 5 0.000000 0.000000 0.000000 0.000000 0.036605 0.000000
# 6 0.000000 0.000000 0.000000 0.000000 0.000000 0.000336
#
#
# Mechanical properties :
#
#
# Convention : Reuss Voigt Hill
#
# Bulk Modulus (GPa) = 51.30679 64.86836 58.08757
# Shear Modulus (GPa) = 25.04464 615.19851 320.12158
#
# Velocity S-wave (km/s) = 3.90282 19.34321 13.95335
# Velocity P-wave (km/s) = 7.17731 23.20199 17.17332
#
# Compressibility (1/GPa) = 0.01949060
#
# Stress axis : x y z
#
# Youngs Moduli (GPa) = 94.53982 43.04549 78.20983
#
# Poissons Ratio (x) = 0.15610 0.37234
# Poissons Ratio (y) = 0.34283 0.40396
# Poissons Ratio (z) = 0.45008 0.22233
#
# Static dielectric constant tensor:
#      x y z
#    x 1.534880 0.000000 0.000000 
#    y 0.000000 1.563120 0.000000 
#    z 0.000000 0.000000 1.585310 
# 
# From -- ./inp_files/4785.got.cif
#   From: 2010.05.17/outbox.cif.g08.bks.cpg/sg72_3_cif.got.tgz:4785.got - 2010.06.03 17:03:01.
