data_PCOD9525019
_publ_section_title
;
Structure prediction by ZEFSAII (Michael W. Deem and Ramdas Pophale) SiO2 
 PCOD9525019
Probable space group: I B A M
;
_chemical_formula_sum "Si O2"
_cell_formula_units_Z 96
_cell_length_a 21.242542
_cell_length_b 22.980131
_cell_length_c 8.632081
_cell_angle_alpha 90.000000
_cell_angle_beta 90.000000
_cell_angle_gamma 90.000000
_cell_volume 4213.805568
_symmetry_space_group_name_H-M "I B A M"
_symmetry_group_IT_number 72
_symmetry_cell_setting 'orthorhombic'
loop_
_space_group_symop_operation_xyz
x,y,z
-x,-y,z
x,-y,1/2-z
-x,y,1/2-z
-x,-y,-z
x,y,-z
-x,y,1/2+z
x,-y,1/2+z
1/2+x,1/2+y,1/2+z
1/2-x,1/2-y,1/2+z
1/2+x,1/2-y,-z
1/2-x,1/2+y,-z
1/2-x,1/2-y,1/2-z
1/2+x,1/2+y,1/2-z
1/2-x,1/2+y,z
1/2+x,1/2-y,z
loop_
_atom_site_type_symbol
_atom_site_label
_atom_site_fract_x
_atom_site_fract_y
_atom_site_fract_z
Si Si1 0.206468 0.562424 0.687127
Si Si2 0.759138 0.686268 0.171266
Si Si3 0.405246 0.203580 0.327256
Si Si4 0.429528 0.675419 0.683439
Si Si5 0.433427 0.086152 0.181617
Si Si6 0.427918 0.441354 0.315669
O O1 0.229878 0.500000 0.750000
O O2 0.208468 0.562755 0.500000
O O3 0.246181 0.620315 0.741639
O O4 0.132450 0.566206 0.740476
O O5 0.750000 0.750000 0.250000
O O6 0.833963 0.684920 0.151550
O O7 0.727983 0.687780 0.000000
O O8 0.435044 0.206008 0.500000
O O9 0.401263 0.265919 0.248485
O O10 0.434461 0.155520 0.215824
O O11 0.500000 0.677375 0.750000
O O12 0.431078 0.672694 0.500000
O O13 0.398343 0.617773 0.752543
O O14 0.500000 0.064178 0.250000
O O15 0.430577 0.073728 0.000000
O O16 0.398178 0.500000 0.250000
O O17 0.500000 0.440825 0.250000
O O18 0.430613 0.441968 0.500000
#
# Coordination Sequence:
#
# PCOD9525019 Si02
#       6
#    16  16  16  16  16  16
#     4  10  21  38  58  86 118 152 192 238 284 338
#     4   9  20  37  60  85 111 139 177 226 279 333
#     4  10  20  35  51  74 105 137 174 222 270 321
#     4  11  20  30  45  68  96 131 169 209 256 312
#     4  11  21  34  52  77 111 154 194 233 275 326
#     4  10  17  27  41  59  84 117 157 202 246 296
#
# _framework density 22.782256
#
# number of rings (size 3 to 8) (size 9 to 14) (size 15 to 20)
#    0.000    1.833    0.000    8.500    0.000    4.333 
#    0.000    1.667    0.000    1.000    0.000    2.333 
#    0.000    0.000    0.000    0.000    0.000    0.000 
#
# Total GULP energy -267661.671858 kJ/mol
# GULP energy per Si atom -5576.284830 kJ/mol
# Density = 2.273040 g / cm^3
# Si number density = 22.782256 Si / 1000 Ang^3
#
#
#
# Elastic Constant Matrix: (Units=GPa)
#
#
# Indices 1 2 3 4 5 6 
#
# 1 59.7752 4.0188 3.4354 0.0000 0.0000 0.0000
# 2 4.0188 214.0899 47.2458 0.0000 0.0000 0.0000
# 3 3.4354 47.2458 144.2004 0.0000 0.0000 0.0000
# 4 0.0000 0.0000 0.0000 38.4744 0.0000 0.0000
# 5 0.0000 0.0000 0.0000 0.0000 9.3946 0.0000
# 6 0.0000 0.0000 0.0000 0.0000 0.0000 12.8963
#
#
#
# Elastic Compliance Matrix: (Units=1/GPa)
#
#
# Indices 1 2 3 4 5 6 
#
# 1 0.016764 -0.000244 -0.000319 0.000000 0.000000 0.000000
# 2 -0.000244 0.005039 -0.001645 0.000000 0.000000 0.000000
# 3 -0.000319 -0.001645 0.007481 0.000000 0.000000 0.000000
# 4 0.000000 0.000000 0.000000 0.025991 0.000000 0.000000
# 5 0.000000 0.000000 0.000000 0.000000 0.106444 0.000000
# 6 0.000000 0.000000 0.000000 0.000000 0.000000 0.077542
#
#
# Mechanical properties :
#
#
# Convention : Reuss Voigt Hill
#
# Bulk Modulus (GPa) = 40.21416 58.60727 49.41072
# Shear Modulus (GPa) = 19.84383 36.37741 28.11062
#
# Velocity S-wave (km/s) = 2.95451 4.00026 3.51648
# Velocity P-wave (km/s) = 5.41560 6.86418 6.18246
#
# Compressibility (1/GPa) = 0.02486686
#
# Stress axis : x y z
#
# Youngs Moduli (GPa) = 59.65116 198.47006 133.66528
#
# Poissons Ratio (x) = 0.04847 0.04269
# Poissons Ratio (y) = 0.01457 0.21988
# Poissons Ratio (z) = 0.01905 0.32649
#
# Static dielectric constant tensor:
#      x y z
#    x 1.858450 0.000000 0.000000 
#    y 0.000000 2.037520 0.000000 
#    z 0.000000 0.000000 1.805670 
# 
# From -- ./inp_files/6979.got.cif
#   From: 2010.05.17/outbox.cif.g08.bks.cpg/sg72_4_cif.got.tgz:6979.got - 2010.06.03 17:03:01.
