data_PCOD9525420
_publ_section_title
;
Structure prediction by ZEFSAII (Michael W. Deem and Ramdas Pophale) SiO2 
 PCOD9525420
Probable space group: I B A M
;
_chemical_formula_sum "Si O2"
_cell_formula_units_Z 108
_cell_length_a 24.871638
_cell_length_b 5.318302
_cell_length_c 32.697179
_cell_angle_alpha 90.000000
_cell_angle_beta 90.000000
_cell_angle_gamma 90.000000
_cell_volume 4325.015498
_symmetry_space_group_name_H-M "I B A M"
_symmetry_group_IT_number 72
_symmetry_cell_setting 'orthorhombic'
loop_
_space_group_symop_operation_xyz
x,y,z
-x,-y,z
x,-y,1/2-z
-x,y,1/2-z
-x,-y,-z
x,y,-z
-x,y,1/2+z
x,-y,1/2+z
1/2+x,1/2+y,1/2+z
1/2-x,1/2-y,1/2+z
1/2+x,1/2-y,-z
1/2-x,1/2+y,-z
1/2-x,1/2-y,1/2-z
1/2+x,1/2+y,1/2-z
1/2-x,1/2+y,z
1/2+x,1/2-y,z
loop_
_atom_site_type_symbol
_atom_site_label
_atom_site_fract_x
_atom_site_fract_y
_atom_site_fract_z
Si Si1 0.287658 0.500000 0.750000
Si Si2 0.000000 0.000000 0.750000
Si Si3 0.889481 0.852102 0.045580
Si Si4 0.184394 0.022248 0.661483
Si Si5 0.439618 0.882175 0.208071
Si Si6 0.683036 0.850339 0.044487
Si Si7 0.801882 0.482626 0.628794
Si Si8 0.035097 0.748801 0.621658
O O1 0.250000 0.250000 0.750000
O O2 0.323757 0.519222 0.790726
O O3 0.955407 0.103612 0.719291
O O4 0.857454 0.587499 0.044818
O O5 0.931337 0.833664 0.082146
O O6 0.849081 0.090228 0.049856
O O7 0.914140 0.882033 0.000000
O O8 0.162950 0.289530 0.646749
O O9 0.249210 0.051345 0.656697
O O10 0.171935 0.789751 0.632227
O O11 0.428821 0.854832 0.160024
O O12 0.500000 0.000000 0.208706
O O13 0.412594 0.000000 0.250000
O O14 0.717008 0.916444 0.084653
O O15 0.710655 0.843983 0.000000
O O16 0.000000 0.500000 0.611015
O O17 0.000000 0.000000 0.632564
#
# Coordination Sequence:
#
# PCOD9525420 Si02
#       8
#     8   4  16  16  16  16  16  16
#     4  12  16  30  48  78 119 150 174 220 278 326
#     4   8  10  24  40  62  96 124 154 188 226 296
#     4  10  22  39  57  79 106 143 189 226 269 341
#     4  10  19  30  50  86 115 136 180 230 273 322
#     4   8  15  25  43  72 103 129 158 199 244 314
#     4  10  21  39  58  75 102 148 195 223 262 334
#     4  10  18  32  51  78 109 138 180 229 269 310
#     4  11  21  34  55  86 113 133 174 225 287 334
#
# _framework density 24.971008999999999
#
# number of rings (size 3 to 8) (size 9 to 14) (size 15 to 20)
#    0.000    2.222    3.704    1.778    0.000    0.593 
#    0.000    2.963    0.000    0.000    9.630    0.000 
#    0.000    0.000    0.000    0.000    0.000    0.000 
#
# Total GULP energy -300757.228209 kJ/mol
# GULP energy per Si atom -5569.578300 kJ/mol
# Density = 2.491417 g / cm^3
# Si number density = 24.971009 Si / 1000 Ang^3
#
#
#
# Elastic Constant Matrix: (Units=GPa)
#
#
# Indices 1 2 3 4 5 6 
#
# 1 52.1478 24.2554 31.3347 0.0000 0.0000 0.0000
# 2 24.2554 185.7245 36.8290 0.0000 0.0000 0.0000
# 3 31.3347 36.8290 209.6762 0.0000 0.0000 0.0000
# 4 0.0000 0.0000 0.0000 36.6833 0.0000 0.0000
# 5 0.0000 0.0000 0.0000 0.0000 58.4028 0.0000
# 6 0.0000 0.0000 0.0000 0.0000 0.0000 20.4024
#
#
#
# Elastic Compliance Matrix: (Units=1/GPa)
#
#
# Indices 1 2 3 4 5 6 
#
# 1 0.021976 -0.002299 -0.002880 0.000000 0.000000 0.000000
# 2 -0.002299 0.005819 -0.000679 0.000000 0.000000 0.000000
# 3 -0.002880 -0.000679 0.005319 0.000000 0.000000 0.000000
# 4 0.000000 0.000000 0.000000 0.027260 0.000000 0.000000
# 5 0.000000 0.000000 0.000000 0.000000 0.017122 0.000000
# 6 0.000000 0.000000 0.000000 0.000000 0.000000 0.049014
#
#
# Mechanical properties :
#
#
# Convention : Reuss Voigt Hill
#
# Bulk Modulus (GPa) = 46.73202 70.26518 58.49860
# Shear Modulus (GPa) = 34.39742 46.77299 40.58521
#
# Velocity S-wave (km/s) = 3.71549 4.33262 4.03587
# Velocity P-wave (km/s) = 6.09603 7.29579 6.72273
#
# Compressibility (1/GPa) = 0.02139860
#
# Stress axis : x y z
#
# Youngs Moduli (GPa) = 45.50347 171.84757 188.00870
#
# Poissons Ratio (x) = 0.39506 0.54154
# Poissons Ratio (y) = 0.10461 0.12757
# Poissons Ratio (z) = 0.13107 0.11661
#
# Static dielectric constant tensor:
#      x y z
#    x 1.981620 0.000000 0.000000 
#    y 0.000000 1.424070 0.000000 
#    z 0.000000 0.000000 2.085100 
# 
# From -- ./inp_files/52603.got.cif
#   From: 2010.05.17/outbox.cif.g08.bks.cpg/sg72_27_cif.got.tgz:52603.got - 2010.06.03 17:03:01.
