data_PCOD9525510
_publ_section_title
;
Structure prediction by ZEFSAII (Michael W. Deem and Ramdas Pophale) SiO2 
 PCOD9525510
Probable space group: I B A M
;
_chemical_formula_sum "Si O2"
_cell_formula_units_Z 96
_cell_length_a 26.624028
_cell_length_b 26.298016
_cell_length_c 10.228409
_cell_angle_alpha 90.000000
_cell_angle_beta 90.000000
_cell_angle_gamma 90.000000
_cell_volume 7161.513786
_symmetry_space_group_name_H-M "I B A M"
_symmetry_group_IT_number 72
_symmetry_cell_setting 'orthorhombic'
loop_
_space_group_symop_operation_xyz
x,y,z
-x,-y,z
x,-y,1/2-z
-x,y,1/2-z
-x,-y,-z
x,y,-z
-x,y,1/2+z
x,-y,1/2+z
1/2+x,1/2+y,1/2+z
1/2-x,1/2-y,1/2+z
1/2+x,1/2-y,-z
1/2-x,1/2+y,-z
1/2-x,1/2-y,1/2-z
1/2+x,1/2+y,1/2-z
1/2-x,1/2+y,z
1/2+x,1/2-y,z
loop_
_atom_site_type_symbol
_atom_site_label
_atom_site_fract_x
_atom_site_fract_y
_atom_site_fract_z
Si Si1 0.376555 0.740572 0.749443
Si Si2 0.558722 0.722385 0.000000
Si Si3 0.310365 0.355882 0.156414
Si Si4 0.942043 0.216218 0.500000
Si Si5 0.120397 0.059652 0.746001
Si Si6 0.280519 0.789101 0.157186
Si Si7 0.056860 0.097953 0.500000
Si Si8 0.060000 0.094382 0.000000
O O1 0.412192 0.744646 0.624383
O O2 0.343495 0.689833 0.718639
O O3 0.336626 0.784499 0.786267
O O4 0.412140 0.733214 0.872774
O O5 0.499638 0.733926 0.000000
O O6 0.560862 0.659930 0.000000
O O7 0.329598 0.406864 0.224596
O O8 0.252001 0.340523 0.170708
O O9 0.320462 0.357834 0.000000
O O10 0.940758 0.155243 0.500000
O O11 0.084734 0.075765 0.625850
O O12 0.130712 0.000000 0.750000
O O13 0.089857 0.074949 0.874642
O O14 0.250000 0.750000 0.250000
O O15 0.280186 0.776026 0.000000
O O16 0.998872 0.080686 0.500000
#
# Coordination Sequence:
#
# PCOD9525510 Si02
#       8
#    16   8  16   8  16  16   8   8
#     4  11  17  32  46  65  87 108 145 179 210 258
#     4  11  20  31  48  62  86 124 143 170 228 264
#     4  10  18  34  47  62  83 110 140 177 225 274
#     4  11  20  29  46  66  88 112 147 188 214 250
#     4  12  22  33  47  61  79 108 143 188 231 259
#     4   9  19  29  48  66  82 106 135 175 220 257
#     4  11  21  38  44  54  81 119 147 179 229 265
#     4  11  23  32  46  60  79 107 151 195 221 249
#
# _framework density 13.404987
#
# number of rings (size 3 to 8) (size 9 to 14) (size 15 to 20)
#    0.000    1.333    5.833    1.500    1.167    4.667 
#    0.000    0.000    0.000    0.000    0.000    0.000 
#    0.000    0.000    0.000    0.000    0.000    5.000 
#
# Total GULP energy -267469.042792 kJ/mol
# GULP energy per Si atom -5572.271725 kJ/mol
# Density = 1.337448 g / cm^3
# Si number density = 13.404987 Si / 1000 Ang^3
#
#
#
# Elastic Constant Matrix: (Units=GPa)
#
#
# Indices 1 2 3 4 5 6 
#
# 1 107.1814 51.0499 48.5053 0.0000 0.0000 0.0000
# 2 51.0499 49.3788 30.2132 0.0000 0.0000 0.0000
# 3 48.5053 30.2132 115.6310 0.0000 0.0000 0.0000
# 4 0.0000 0.0000 0.0000 -14.1668 0.0000 0.0000
# 5 0.0000 0.0000 0.0000 0.0000 -58.9579 0.0000
# 6 0.0000 0.0000 0.0000 0.0000 0.0000 17.8401
#
#
#
# Elastic Compliance Matrix: (Units=1/GPa)
#
#
# Indices 1 2 3 4 5 6 
#
# 1 0.019480 -0.018021 -0.003463 0.000000 0.000000 0.000000
# 2 -0.018021 0.040776 -0.003095 0.000000 0.000000 0.000000
# 3 -0.003463 -0.003095 0.010910 0.000000 0.000000 0.000000
# 4 0.000000 0.000000 0.000000 -0.070588 0.000000 0.000000
# 5 0.000000 0.000000 0.000000 0.000000 -0.016961 0.000000
# 6 0.000000 0.000000 0.000000 0.000000 0.000000 0.056053
#
#
# Mechanical properties :
#
#
# Convention : Reuss Voigt Hill
#
# Bulk Modulus (GPa) = 45.43718 59.08090 52.25904
# Shear Modulus (GPa) = 51.99446 -1.56206 25.21620
#
# Velocity S-wave (km/s) = 6.23471 -1.08065 4.34188
# Velocity P-wave (km/s) = 9.26273 6.52782 8.01282
#
# Compressibility (1/GPa) = 0.02200841
#
# Stress axis : x y z
#
# Youngs Moduli (GPa) = 51.33368 24.52425 91.66265
#
# Poissons Ratio (x) = 0.44195 0.31743
# Poissons Ratio (y) = 0.92507 0.28369
# Poissons Ratio (z) = 0.17777 0.07590
#
# Static dielectric constant tensor:
#      x y z
#    x 1.455010 0.000000 0.000000 
#    y 0.000000 1.420170 0.000000 
#    z 0.000000 0.000000 1.202610 
# 
# From -- ./inp_files/8316.got.cif
#   From: 2010.05.17/outbox.cif.g08.bks.cpg/sg72_5_cif.got.tgz:8316.got - 2010.06.03 17:03:01.
