data_PCOD9525648
_publ_section_title
;
Structure prediction by ZEFSAII (Michael W. Deem and Ramdas Pophale) SiO2 
 PCOD9525648
Probable space group: I B A M
;
_chemical_formula_sum "Si O2"
_cell_formula_units_Z 96
_cell_length_a 9.158931
_cell_length_b 24.001243
_cell_length_c 25.021348
_cell_angle_alpha 90.000000
_cell_angle_beta 90.000000
_cell_angle_gamma 90.000000
_cell_volume 5500.336053
_symmetry_space_group_name_H-M "I B A M"
_symmetry_group_IT_number 72
_symmetry_cell_setting 'orthorhombic'
loop_
_space_group_symop_operation_xyz
x,y,z
-x,-y,z
x,-y,1/2-z
-x,y,1/2-z
-x,-y,-z
x,y,-z
-x,y,1/2+z
x,-y,1/2+z
1/2+x,1/2+y,1/2+z
1/2-x,1/2-y,1/2+z
1/2+x,1/2-y,-z
1/2-x,1/2+y,-z
1/2-x,1/2-y,1/2-z
1/2+x,1/2+y,1/2-z
1/2-x,1/2+y,z
1/2+x,1/2-y,z
loop_
_atom_site_type_symbol
_atom_site_label
_atom_site_fract_x
_atom_site_fract_y
_atom_site_fract_z
Si Si1 0.694014 0.644825 0.667021
Si Si2 0.598274 0.240629 0.302122
Si Si3 0.170125 0.434218 0.258534
Si Si4 0.347209 0.638232 0.325847
Si Si5 0.200595 0.827908 0.058105
Si Si6 0.416826 0.267110 0.407207
O O1 0.790801 0.689638 0.699269
O O2 0.774519 0.587815 0.683501
O O3 0.523475 0.635498 0.681039
O O4 0.681055 0.679451 0.611415
O O5 0.500000 0.242995 0.250000
O O6 0.686162 0.297873 0.310555
O O7 0.493171 0.240960 0.354128
O O8 0.187597 0.500000 0.250000
O O9 0.265302 0.402844 0.213558
O O10 0.000000 0.420093 0.250000
O O11 0.306006 0.633709 0.388664
O O12 0.325016 0.781201 0.065754
O O13 0.049195 0.793571 0.060247
O O14 0.216300 0.855338 0.000000
#
# Coordination Sequence:
#
# PCOD9525648 Si02
#       6
#    16  16  16  16  16  16
#     4  10  19  33  52  77 108 141 174 208 259 319
#     4  10  19  29  50  80 112 144 167 209 259 324
#     4  11  25  39  53  77 107 140 176 218 265 322
#     4  10  22  34  53  78 107 144 179 212 262 314
#     4  10  20  33  50  76 108 143 181 218 262 305
#     4  10  19  32  48  76 110 146 176 213 259 318
#
# _framework density 17.453479000000002
#
# number of rings (size 3 to 8) (size 9 to 14) (size 15 to 20)
#    0.000    2.167    3.333    3.500    4.667    4.667 
#    0.000    0.000    0.000    0.000    0.000   12.833 
#    0.000    0.000    0.000    0.000    0.000    0.000 
#
# Total GULP energy -267380.015521 kJ/mol
# GULP energy per Si atom -5570.416990 kJ/mol
# Density = 1.741375 g / cm^3
# Si number density = 17.453479 Si / 1000 Ang^3
#
#
#
# Elastic Constant Matrix: (Units=GPa)
#
#
# Indices 1 2 3 4 5 6 
#
# 1 63.3655 32.2500 17.4812 0.0000 0.0000 0.0000
# 2 32.2500 53.1576 8.6123 0.0000 0.0000 0.0000
# 3 17.4812 8.6123 93.8833 0.0000 0.0000 0.0000
# 4 0.0000 0.0000 0.0000 12.0625 0.0000 0.0000
# 5 0.0000 0.0000 0.0000 0.0000 -1.3599 0.0000
# 6 0.0000 0.0000 0.0000 0.0000 0.0000 27.5485
#
#
#
# Elastic Compliance Matrix: (Units=1/GPa)
#
#
# Indices 1 2 3 4 5 6 
#
# 1 0.023710 -0.013876 -0.003142 0.000000 0.000000 0.000000
# 2 -0.013876 0.027216 0.000087 0.000000 0.000000 0.000000
# 3 -0.003142 0.000087 0.011229 0.000000 0.000000 0.000000
# 4 0.000000 0.000000 0.000000 0.082901 0.000000 0.000000
# 5 0.000000 0.000000 0.000000 0.000000 -0.735358 0.000000
# 6 0.000000 0.000000 0.000000 0.000000 0.000000 0.036300
#
#
# Mechanical properties :
#
#
# Convention : Reuss Voigt Hill
#
# Bulk Modulus (GPa) = 35.34366 36.34372 35.84369
# Shear Modulus (GPa) = -9.79031 17.78776 3.99873
#
# Velocity S-wave (km/s) = -2.37098 3.19588 1.51527
# Velocity P-wave (km/s) = 3.57754 5.87253 4.86237
#
# Compressibility (1/GPa) = 0.02829362
#
# Stress axis : x y z
#
# Youngs Moduli (GPa) = 42.17565 36.74298 89.05845
#
# Poissons Ratio (x) = 0.50984 0.27982
# Poissons Ratio (y) = 0.58522 -0.00775
# Poissons Ratio (z) = 0.13252 -0.00320
#
# Static dielectric constant tensor:
#      x y z
#    x 1.631970 0.000000 0.000000 
#    y 0.000000 1.578880 0.000000 
#    z 0.000000 0.000000 1.680340 
# 
# From -- ./inp_files/42381.got.cif
#   From: 2010.05.17/outbox.cif.g08.bks.cpg/sg72_22_cif.got.tgz:42381.got - 2010.06.03 17:03:01.
