data_PCOD9525484
_publ_section_title
;
Structure prediction by ZEFSAII (Michael W. Deem and Ramdas Pophale) SiO2 
 PCOD9525484
Probable space group: I B A M
;
_chemical_formula_sum "Si O2"
_cell_formula_units_Z 112
_cell_length_a 18.540845
_cell_length_b 19.519359
_cell_length_c 18.392323
_cell_angle_alpha 90.000000
_cell_angle_beta 90.000000
_cell_angle_gamma 90.000000
_cell_volume 6656.281191
_symmetry_space_group_name_H-M "I B A M"
_symmetry_group_IT_number 72
_symmetry_cell_setting 'orthorhombic'
loop_
_space_group_symop_operation_xyz
x,y,z
-x,-y,z
x,-y,1/2-z
-x,y,1/2-z
-x,-y,-z
x,y,-z
-x,y,1/2+z
x,-y,1/2+z
1/2+x,1/2+y,1/2+z
1/2-x,1/2-y,1/2+z
1/2+x,1/2-y,-z
1/2-x,1/2+y,-z
1/2-x,1/2-y,1/2-z
1/2+x,1/2+y,1/2-z
1/2-x,1/2+y,z
1/2+x,1/2-y,z
loop_
_atom_site_type_symbol
_atom_site_label
_atom_site_fract_x
_atom_site_fract_y
_atom_site_fract_z
Si Si1 0.944220 0.439350 0.086353
Si Si2 0.388893 0.718895 0.586086
Si Si3 0.169756 0.696641 0.677767
Si Si4 0.276987 0.181947 0.836787
Si Si5 0.221000 0.895029 0.912843
Si Si6 0.223524 0.457671 0.413329
Si Si7 0.996134 0.303828 0.336734
O O1 0.862634 0.464174 0.101206
O O2 0.967201 0.372021 0.130266
O O3 0.000000 0.500000 0.102454
O O4 0.948420 0.423551 0.000000
O O5 0.401596 0.722622 0.500000
O O6 0.328625 0.775318 0.608858
O O7 0.353314 0.645152 0.604201
O O8 0.459939 0.740305 0.629646
O O9 0.207387 0.771038 0.677037
O O10 0.178856 0.673130 0.761622
O O11 0.217360 0.647023 0.628184
O O12 0.089006 0.697697 0.648314
O O13 0.254947 0.110041 0.870412
O O14 0.232085 0.974389 0.893169
O O15 0.230977 0.889661 0.000000
O O16 0.231536 0.447294 0.500000
O O17 0.000000 0.303613 0.250000
#
# Coordination Sequence:
#
# PCOD9525484 Si02
#       7
#    16  16  16  16  16  16  16
#     4  10  20  32  49  75 111 147 176 210 263 331
#     4  10  19  35  55  76 106 147 187 222 270 328
#     4  10  21  34  52  77 112 140 179 225 268 325
#     4  10  19  35  54  78 104 143 182 223 270 322
#     4   9  20  35  54  78 107 144 186 228 267 320
#     4  10  18  33  54  77 105 141 183 222 264 316
#     4  12  21  33  52  80 109 144 176 222 276 326
#
# _framework density 16.826212000000002
#
# number of rings (size 3 to 8) (size 9 to 14) (size 15 to 20)
#    0.000    1.857    2.857    1.714    0.000    3.714 
#    0.000    2.857    0.000    0.857    0.000    4.000 
#    0.000    0.000    0.000    0.000    0.000    0.000 
#
# Total GULP energy -312359.029469 kJ/mol
# GULP energy per Si atom -5577.839812 kJ/mol
# Density = 1.678791 g / cm^3
# Si number density = 16.826212 Si / 1000 Ang^3
#
#
#
# Elastic Constant Matrix: (Units=GPa)
#
#
# Indices 1 2 3 4 5 6 
#
# 1 60.6325 43.0122 28.9632 0.0000 0.0000 0.0000
# 2 43.0122 130.5573 48.5722 0.0000 0.0000 0.0000
# 3 28.9632 48.5722 46.7503 0.0000 0.0000 0.0000
# 4 0.0000 0.0000 0.0000 8.8526 0.0000 0.0000
# 5 0.0000 0.0000 0.0000 0.0000 22.9400 0.0000
# 6 0.0000 0.0000 0.0000 0.0000 0.0000 20.5088
#
#
#
# Elastic Compliance Matrix: (Units=1/GPa)
#
#
# Indices 1 2 3 4 5 6 
#
# 1 0.024628 -0.003973 -0.011130 0.000000 0.000000 0.000000
# 2 -0.003973 0.013127 -0.011177 0.000000 0.000000 0.000000
# 3 -0.011130 -0.011177 0.039898 0.000000 0.000000 0.000000
# 4 0.000000 0.000000 0.000000 0.112961 0.000000 0.000000
# 5 0.000000 0.000000 0.000000 0.000000 0.043592 0.000000
# 6 0.000000 0.000000 0.000000 0.000000 0.000000 0.048760
#
#
# Mechanical properties :
#
#
# Convention : Reuss Voigt Hill
#
# Bulk Modulus (GPa) = 39.85171 53.22617 46.53894
# Shear Modulus (GPa) = 14.53962 18.28643 16.41303
#
# Velocity S-wave (km/s) = 2.94276 3.30021 3.12660
# Velocity P-wave (km/s) = 5.93988 6.79878 6.38379
#
# Compressibility (1/GPa) = 0.02509303
#
# Stress axis : x y z
#
# Youngs Moduli (GPa) = 40.60466 76.18166 25.06397
#
# Poissons Ratio (x) = 0.30266 0.27896
# Poissons Ratio (y) = 0.16132 0.28013
# Poissons Ratio (z) = 0.45193 0.85146
#
# Static dielectric constant tensor:
#      x y z
#    x 1.572470 0.000000 0.000000 
#    y 0.000000 1.567940 0.000000 
#    z 0.000000 0.000000 1.571220 
# 
# From -- ./inp_files/39199.got.cif
#   From: 2010.05.17/outbox.cif.g08.bks.cpg/sg72_20_cif.got.tgz:39199.got - 2010.06.03 17:03:01.
