data_PCOD9525974
_publ_section_title
;
Structure prediction by ZEFSAII (Michael W. Deem and Ramdas Pophale) SiO2 
 PCOD9525974
Probable space group: I B A M
;
_chemical_formula_sum "Si O2"
_cell_formula_units_Z 104
_cell_length_a 19.417470
_cell_length_b 18.401515
_cell_length_c 14.125893
_cell_angle_alpha 90.000000
_cell_angle_beta 90.000000
_cell_angle_gamma 90.000000
_cell_volume 5047.335053
_symmetry_space_group_name_H-M "I B A M"
_symmetry_group_IT_number 72
_symmetry_cell_setting 'orthorhombic'
loop_
_space_group_symop_operation_xyz
x,y,z
-x,-y,z
x,-y,1/2-z
-x,y,1/2-z
-x,-y,-z
x,y,-z
-x,y,1/2+z
x,-y,1/2+z
1/2+x,1/2+y,1/2+z
1/2-x,1/2-y,1/2+z
1/2+x,1/2-y,-z
1/2-x,1/2+y,-z
1/2-x,1/2-y,1/2-z
1/2+x,1/2+y,1/2-z
1/2-x,1/2+y,z
1/2+x,1/2-y,z
loop_
_atom_site_type_symbol
_atom_site_label
_atom_site_fract_x
_atom_site_fract_y
_atom_site_fract_z
Si Si1 0.500000 0.661022 0.750000
Si Si2 0.431538 0.450024 0.109814
Si Si3 0.517152 0.080762 0.640340
Si Si4 0.814368 0.065879 0.385488
Si Si5 0.837674 0.468657 0.114199
Si Si6 0.625784 0.128518 0.106092
Si Si7 0.613006 0.283124 0.115332
O O1 0.551105 0.611308 0.813583
O O2 0.456784 0.706636 0.825722
O O3 0.500000 0.500000 0.108774
O O4 0.367512 0.501169 0.138203
O O5 0.421857 0.424581 0.000000
O O6 0.500000 0.081462 0.750000
O O7 0.598919 0.086606 0.630795
O O8 0.457801 0.131279 0.599287
O O9 0.500000 0.000000 0.602512
O O10 0.812232 0.064535 0.500000
O O11 0.737050 0.054051 0.350186
O O12 0.843236 0.145112 0.361050
O O13 0.856040 0.550345 0.150789
O O14 0.834405 0.473751 0.000000
O O15 0.646563 0.206473 0.146178
O O16 0.654886 0.126166 0.000000
O O17 0.603190 0.282097 0.000000
#
# Coordination Sequence:
#
# PCOD9525974 Si02
#       7
#     8  16  16  16  16  16  16
#     4  12  21  32  56  82 101 150 192 234 283 340
#     4  10  19  33  53  79 110 140 192 249 278 323
#     4   9  17  30  51  79 107 136 176 233 275 317
#     4   9  18  33  55  81 110 144 184 235 284 334
#     4   9  17  33  59  83 104 144 195 231 278 346
#     4   9  18  33  54  77 105 141 181 225 280 335
#     4  10  21  35  53  82 117 148 183 234 289 338
#
# _framework density 20.604932999999999
#
# number of rings (size 3 to 8) (size 9 to 14) (size 15 to 20)
#    0.000    2.462    1.538    1.154    1.077    1.846 
#    0.000    6.154    3.385    1.846    0.000    0.000 
#    0.000    0.000    0.000    0.000    0.000    0.000 
#
# Total GULP energy -289740.151843 kJ/mol
# GULP energy per Si atom -5571.925997 kJ/mol
# Density = 2.055804 g / cm^3
# Si number density = 20.604933 Si / 1000 Ang^3
#
#
#
# Elastic Constant Matrix: (Units=GPa)
#
#
# Indices 1 2 3 4 5 6 
#
# 1 114.0048 20.4833 8.1053 0.0000 0.0000 0.0000
# 2 20.4833 81.8480 14.3825 0.0000 0.0000 0.0000
# 3 8.1053 14.3825 74.0469 0.0000 0.0000 0.0000
# 4 0.0000 0.0000 0.0000 3.3233 0.0000 0.0000
# 5 0.0000 0.0000 0.0000 0.0000 9.4645 0.0000
# 6 0.0000 0.0000 0.0000 0.0000 0.0000 10.5423
#
#
#
# Elastic Compliance Matrix: (Units=1/GPa)
#
#
# Indices 1 2 3 4 5 6 
#
# 1 0.009209 -0.002203 -0.000580 0.000000 0.000000 0.000000
# 2 -0.002203 0.013176 -0.002318 0.000000 0.000000 0.000000
# 3 -0.000580 -0.002318 0.014019 0.000000 0.000000 0.000000
# 4 0.000000 0.000000 0.000000 0.300908 0.000000 0.000000
# 5 0.000000 0.000000 0.000000 0.000000 0.105658 0.000000
# 6 0.000000 0.000000 0.000000 0.000000 0.000000 0.094856
#
#
# Mechanical properties :
#
#
# Convention : Reuss Voigt Hill
#
# Bulk Modulus (GPa) = 38.16544 39.53799 38.85172
# Shear Modulus (GPa) = 8.98051 19.79460 14.38755
#
# Velocity S-wave (km/s) = 2.08995 3.10283 2.64532
# Velocity P-wave (km/s) = 4.93827 5.66278 5.31289
#
# Compressibility (1/GPa) = 0.02620171
#
# Stress axis : x y z
#
# Youngs Moduli (GPa) = 108.59478 75.89363 71.33314
#
# Poissons Ratio (x) = 0.16716 0.04139
# Poissons Ratio (y) = 0.23919 0.16536
# Poissons Ratio (z) = 0.06300 0.17594
#
# Static dielectric constant tensor:
#      x y z
#    x 1.758630 0.000000 0.000000 
#    y 0.000000 1.750850 0.000000 
#    z 0.000000 0.000000 1.787970 
# 
# From -- ./inp_files/24314.got.cif
#   From: 2010.05.17/outbox.cif.g08.bks.cpg/sg72_13_cif.got.tgz:24314.got - 2010.06.03 17:03:01.
