data_PCOD9525101
_publ_section_title
;
Structure prediction by ZEFSAII (Michael W. Deem and Ramdas Pophale) SiO2 
 PCOD9525101
Probable space group: I B A M
;
_chemical_formula_sum "Si O2"
_cell_formula_units_Z 116
_cell_length_a 24.367943
_cell_length_b 9.539532
_cell_length_c 32.476442
_cell_angle_alpha 90.000000
_cell_angle_beta 90.000000
_cell_angle_gamma 90.000000
_cell_volume 7549.433827
_symmetry_space_group_name_H-M "I B A M"
_symmetry_group_IT_number 72
_symmetry_cell_setting 'orthorhombic'
loop_
_space_group_symop_operation_xyz
x,y,z
-x,-y,z
x,-y,1/2-z
-x,y,1/2-z
-x,-y,-z
x,y,-z
-x,y,1/2+z
x,-y,1/2+z
1/2+x,1/2+y,1/2+z
1/2-x,1/2-y,1/2+z
1/2+x,1/2-y,-z
1/2-x,1/2+y,-z
1/2-x,1/2-y,1/2-z
1/2+x,1/2+y,1/2-z
1/2-x,1/2+y,z
1/2+x,1/2-y,z
loop_
_atom_site_type_symbol
_atom_site_label
_atom_site_fract_x
_atom_site_fract_y
_atom_site_fract_z
Si Si1 0.688609 0.183225 0.791170
Si Si2 0.294004 0.855878 0.303280
Si Si3 0.110424 0.349473 0.367334
Si Si4 0.000000 0.500000 0.750000
Si Si5 0.477547 0.227493 0.454251
Si Si6 0.090444 0.453197 0.546320
Si Si7 0.494024 0.342506 0.129476
Si Si8 0.070082 0.629068 0.678641
O O1 0.684872 0.196657 0.741540
O O2 0.734119 0.289131 0.807960
O O3 0.629058 0.194786 0.811232
O O4 0.708191 0.024195 0.800091
O O5 0.336729 0.819209 0.339303
O O6 0.123201 0.396752 0.414260
O O7 0.080252 0.484003 0.346241
O O8 0.067282 0.221508 0.368268
O O9 0.039164 0.590000 0.720667
O O10 0.471303 0.287703 0.500000
O O11 0.533793 0.136302 0.453615
O O12 0.483977 0.334925 0.417398
O O13 0.429177 0.113803 0.447430
O O14 0.114081 0.440092 0.500000
O O15 0.500000 0.500000 0.145186
O O16 0.532238 0.234288 0.153767
#
# Coordination Sequence:
#
# PCOD9525101 Si02
#       8
#    16  16  16   4  16  16  16  16
#     4   9  19  33  51  72  92 118 164 207 250 284
#     4   9  18  33  52  70  90 119 159 206 246 291
#     4  10  17  32  51  70  94 131 168 199 241 294
#     4  12  20  32  58  68  90 136 178 204 250 304
#     4   8  14  26  43  65  97 132 159 194 240 289
#     4   8  13  23  45  72  92 118 164 206 233 274
#     4  11  21  30  43  72 106 131 160 202 250 299
#     4  11  20  33  52  70  94 132 171 207 237 305
#
# _framework density 15.365391000000001
#
# number of rings (size 3 to 8) (size 9 to 14) (size 15 to 20)
#    0.000    2.483    2.759    2.483    0.000    1.379 
#    0.000    0.345    0.000    0.000    0.000    4.828 
#    0.000    0.000    0.000    0.000    0.000    0.000 
#
# Total GULP energy -323033.481143 kJ/mol
# GULP energy per Si atom -5569.542778 kJ/mol
# Density = 1.533042 g / cm^3
# Si number density = 15.365391 Si / 1000 Ang^3
#
#
#
# Elastic Constant Matrix: (Units=GPa)
#
#
# Indices 1 2 3 4 5 6 
#
# 1 74.3994 23.6040 46.1621 0.0000 0.0000 0.0000
# 2 23.6040 32.1461 25.4687 0.0000 0.0000 0.0000
# 3 46.1621 25.4687 101.4839 0.0000 0.0000 0.0000
# 4 0.0000 0.0000 0.0000 13.2528 0.0000 0.0000
# 5 0.0000 0.0000 0.0000 0.0000 15.5400 0.0000
# 6 0.0000 0.0000 0.0000 0.0000 0.0000 23.4847
#
#
#
# Elastic Compliance Matrix: (Units=1/GPa)
#
#
# Indices 1 2 3 4 5 6 
#
# 1 0.020924 -0.009765 -0.007067 0.000000 0.000000 0.000000
# 2 -0.009765 0.043385 -0.006446 0.000000 0.000000 0.000000
# 3 -0.007067 -0.006446 0.014686 0.000000 0.000000 0.000000
# 4 0.000000 0.000000 0.000000 0.075456 0.000000 0.000000
# 5 0.000000 0.000000 0.000000 0.000000 0.064350 0.000000
# 6 0.000000 0.000000 0.000000 0.000000 0.000000 0.042581
#
#
# Mechanical properties :
#
#
# Convention : Reuss Voigt Hill
#
# Bulk Modulus (GPa) = 30.82719 44.27767 37.55243
# Shear Modulus (GPa) = 15.68621 17.97514 16.83068
#
# Velocity S-wave (km/s) = 3.19859 3.42401 3.31322
# Velocity P-wave (km/s) = 5.80927 6.67165 6.25533
#
# Compressibility (1/GPa) = 0.03243890
#
# Stress axis : x y z
#
# Youngs Moduli (GPa) = 47.79249 23.04933 68.09125
#
# Poissons Ratio (x) = 0.22507 0.48120
# Poissons Ratio (y) = 0.46668 0.43894
# Poissons Ratio (z) = 0.33775 0.14858
#
# Static dielectric constant tensor:
#      x y z
#    x 1.487870 0.000000 0.000000 
#    y 0.000000 1.507230 0.000000 
#    z 0.000000 0.000000 1.543120 
# 
# From -- ./inp_files/52513.got.cif
#   From: 2010.05.17/outbox.cif.g08.bks.cpg/sg72_27_cif.got.tgz:52513.got - 2010.06.03 17:03:01.
