data_PCOD9525029
_publ_section_title
;
Structure prediction by ZEFSAII (Michael W. Deem and Ramdas Pophale) SiO2 
 PCOD9525029
Probable space group: I B A M
;
_chemical_formula_sum "Si O2"
_cell_formula_units_Z 80
_cell_length_a 14.698916
_cell_length_b 13.329001
_cell_length_c 14.730629
_cell_angle_alpha 90.000000
_cell_angle_beta 90.000000
_cell_angle_gamma 90.000000
_cell_volume 2886.052322
_symmetry_space_group_name_H-M "I B A M"
_symmetry_group_IT_number 72
_symmetry_cell_setting 'orthorhombic'
loop_
_space_group_symop_operation_xyz
x,y,z
-x,-y,z
x,-y,1/2-z
-x,y,1/2-z
-x,-y,-z
x,y,-z
-x,y,1/2+z
x,-y,1/2+z
1/2+x,1/2+y,1/2+z
1/2-x,1/2-y,1/2+z
1/2+x,1/2-y,-z
1/2-x,1/2+y,-z
1/2-x,1/2-y,1/2-z
1/2+x,1/2+y,1/2-z
1/2-x,1/2+y,z
1/2+x,1/2-y,z
loop_
_atom_site_type_symbol
_atom_site_label
_atom_site_fract_x
_atom_site_fract_y
_atom_site_fract_z
Si Si1 0.057722 0.800165 0.106328
Si Si2 0.225514 0.513840 0.389933
Si Si3 0.546124 0.104987 0.889107
Si Si4 0.238333 0.293235 0.349195
Si Si5 0.400914 0.426273 0.605592
O O1 0.008929 0.700664 0.144550
O O2 0.998507 0.893706 0.143181
O O3 0.165735 0.783075 0.108445
O O4 0.035932 0.804180 0.000000
O O5 0.226887 0.514291 0.500000
O O6 0.152134 0.595422 0.361197
O O7 0.191585 0.403284 0.359676
O O8 0.329410 0.507477 0.355050
O O9 0.500000 0.000000 0.862859
O O10 0.544053 0.107735 0.000000
O O11 0.250000 0.250000 0.250000
O O12 0.336701 0.324858 0.390117
O O13 0.409586 0.455084 0.500000
#
# Coordination Sequence:
#
# PCOD9525029 Si02
#       5
#    16  16  16  16  16
#     4  10  17  27  47  72  95 130 174 216 265 320
#     4   8  14  27  42  63  94 122 162 217 267 311
#     4   9  13  21  43  70  92 117 160 219 274 307
#     4  10  18  27  41  63  96 136 169 213 254 311
#     4   8  16  29  43  65  95 126 167 215 260 312
#
# _framework density 27.719526999999999
#
# number of rings (size 3 to 8) (size 9 to 14) (size 15 to 20)
#    1.200    1.800    2.000    1.200    0.000    0.800 
#    0.000    0.000    0.000    1.200    0.000    1.400 
#    0.000    9.600    6.800    1.600    2.000    0.000 
#
# Total GULP energy -223263.891869 kJ/mol
# GULP energy per Si atom -5581.597297 kJ/mol
# Density = 2.765644 g / cm^3
# Si number density = 27.719527 Si / 1000 Ang^3
#
#
#
# Elastic Constant Matrix: (Units=GPa)
#
#
# Indices 1 2 3 4 5 6 
#
# 1 198.4750 30.6284 2.3233 0.0000 0.0000 0.0000
# 2 30.6284 118.2516 3.1111 0.0000 0.0000 0.0000
# 3 2.3233 3.1111 106.4180 0.0000 0.0000 0.0000
# 4 0.0000 0.0000 0.0000 -36.2973 0.0000 0.0000
# 5 0.0000 0.0000 0.0000 0.0000 -16.4466 0.0000
# 6 0.0000 0.0000 0.0000 0.0000 0.0000 48.8284
#
#
#
# Elastic Compliance Matrix: (Units=1/GPa)
#
#
# Indices 1 2 3 4 5 6 
#
# 1 0.005249 -0.001358 -0.000075 0.000000 0.000000 0.000000
# 2 -0.001358 0.008814 -0.000228 0.000000 0.000000 0.000000
# 3 -0.000075 -0.000228 0.009405 0.000000 0.000000 0.000000
# 4 0.000000 0.000000 0.000000 -0.027550 0.000000 0.000000
# 5 0.000000 0.000000 0.000000 0.000000 -0.060803 0.000000
# 6 0.000000 0.000000 0.000000 0.000000 0.000000 0.020480
#
#
# Mechanical properties :
#
#
# Convention : Reuss Voigt Hill
#
# Bulk Modulus (GPa) = 49.63465 55.03003 52.33234
# Shear Modulus (GPa) = -145.48254 25.02236 -60.23009
#
# Velocity S-wave (km/s) = -7.25243 3.00775 -4.66643
# Velocity P-wave (km/s) = 7.22395 5.65311 3.18023
#
# Compressibility (1/GPa) = 0.02014722
#
# Stress axis : x y z
#
# Youngs Moduli (GPa) = 190.52026 113.45381 106.32410
#
# Poissons Ratio (x) = 0.15402 0.00796
# Poissons Ratio (y) = 0.25864 0.02425
# Poissons Ratio (z) = 0.01427 0.02587
#
# Static dielectric constant tensor:
#      x y z
#    x 2.268160 0.000000 0.000000 
#    y 0.000000 2.299260 0.000000 
#    z 0.000000 0.000000 2.331790 
# 
# From -- ./inp_files/30623.got.cif
#   From: 2010.05.17/outbox.cif.g08.bks.cpg/sg72_16_cif.got.tgz:30623.got - 2010.06.03 17:03:01.
