data_PCOD9525232
_publ_section_title
;
Structure prediction by ZEFSAII (Michael W. Deem and Ramdas Pophale) SiO2 
 PCOD9525232
Probable space group: I B A M
;
_chemical_formula_sum "Si O2"
_cell_formula_units_Z 96
_cell_length_a 22.957049
_cell_length_b 22.474282
_cell_length_c 7.925558
_cell_angle_alpha 90.000000
_cell_angle_beta 90.000000
_cell_angle_gamma 90.000000
_cell_volume 4089.137702
_symmetry_space_group_name_H-M "I B A M"
_symmetry_group_IT_number 72
_symmetry_cell_setting 'orthorhombic'
loop_
_space_group_symop_operation_xyz
x,y,z
-x,-y,z
x,-y,1/2-z
-x,y,1/2-z
-x,-y,-z
x,y,-z
-x,y,1/2+z
x,-y,1/2+z
1/2+x,1/2+y,1/2+z
1/2-x,1/2-y,1/2+z
1/2+x,1/2-y,-z
1/2-x,1/2+y,-z
1/2-x,1/2-y,1/2-z
1/2+x,1/2+y,1/2-z
1/2-x,1/2+y,z
1/2+x,1/2-y,z
loop_
_atom_site_type_symbol
_atom_site_label
_atom_site_fract_x
_atom_site_fract_y
_atom_site_fract_z
Si Si1 0.436534 0.171546 0.203559
Si Si2 0.281609 0.692410 0.311316
Si Si3 0.579832 0.695687 0.807171
Si Si4 0.594045 0.565198 0.802384
Si Si5 0.773034 0.928400 0.813571
Si Si6 0.855123 0.436667 0.795850
O O1 0.500000 0.147209 0.250000
O O2 0.435519 0.240012 0.271827
O O3 0.388388 0.123248 0.261469
O O4 0.430085 0.176188 0.000000
O O5 0.262719 0.674802 0.500000
O O6 0.250000 0.750000 0.250000
O O7 0.350550 0.700329 0.318164
O O8 0.268575 0.642064 0.178388
O O9 0.570695 0.628927 0.729291
O O10 0.555819 0.694720 0.000000
O O11 0.571175 0.500000 0.750000
O O12 0.664229 0.562792 0.772189
O O13 0.584520 0.570326 0.000000
O O14 0.711242 0.941481 0.727487
O O15 0.776802 0.955593 0.000000
O O16 0.884199 0.500000 0.750000
O O17 0.850836 0.433001 0.000000
#
# Coordination Sequence:
#
# PCOD9525232 Si02
#       6
#    16  16  16  16  16  16
#     4  10  21  40  60  78  99 130 173 225 277 324
#     4  10  18  29  47  73 105 142 177 215 259 311
#     4   8  17  34  54  73 101 138 174 210 260 315
#     4  10  19  32  52  81 114 149 179 211 253 307
#     4  10  19  32  50  75 107 146 183 216 254 306
#     4  10  22  37  55  77 107 142 177 218 267 318
#
# _framework density 23.476832000000002
#
# number of rings (size 3 to 8) (size 9 to 14) (size 15 to 20)
#    0.000    2.333    0.000    4.000    0.000    6.333 
#    0.000    8.333    0.000    0.500    0.000    3.500 
#    0.000    0.000    0.000    0.000    0.000    0.000 
#
# Total GULP energy -267342.874785 kJ/mol
# GULP energy per Si atom -5569.643225 kJ/mol
# Density = 2.342340 g / cm^3
# Si number density = 23.476832 Si / 1000 Ang^3
#
#
#
# Elastic Constant Matrix: (Units=GPa)
#
#
# Indices 1 2 3 4 5 6 
#
# 1 77.1463 44.8533 4.3338 0.0000 0.0000 0.0000
# 2 44.8533 172.5355 11.5078 0.0000 0.0000 0.0000
# 3 4.3338 11.5078 50.7440 0.0000 0.0000 0.0000
# 4 0.0000 0.0000 0.0000 25.6404 0.0000 0.0000
# 5 0.0000 0.0000 0.0000 0.0000 10.3971 0.0000
# 6 0.0000 0.0000 0.0000 0.0000 0.0000 -2.3956
#
#
#
# Elastic Compliance Matrix: (Units=1/GPa)
#
#
# Indices 1 2 3 4 5 6 
#
# 1 0.015279 -0.003945 -0.000410 0.000000 0.000000 0.000000
# 2 -0.003945 0.006903 -0.001229 0.000000 0.000000 0.000000
# 3 -0.000410 -0.001229 0.020020 0.000000 0.000000 0.000000
# 4 0.000000 0.000000 0.000000 0.039001 0.000000 0.000000
# 5 0.000000 0.000000 0.000000 0.000000 0.096181 0.000000
# 6 0.000000 0.000000 0.000000 0.000000 0.000000 -0.417436
#
#
# Mechanical properties :
#
#
# Convention : Reuss Voigt Hill
#
# Bulk Modulus (GPa) = 32.22124 46.86841 39.54482
# Shear Modulus (GPa) = -22.87923 22.71043 -0.08440
#
# Velocity S-wave (km/s) = -3.12516 3.11361 -0.18981
# Velocity P-wave (km/s) = 0.85578 5.73874 4.10277
#
# Compressibility (1/GPa) = 0.03103543
#
# Stress axis : x y z
#
# Youngs Moduli (GPa) = 65.44997 144.85781 49.94893
#
# Poissons Ratio (x) = 0.57141 0.02050
# Poissons Ratio (y) = 0.25817 0.06137
# Poissons Ratio (z) = 0.02686 0.17798
#
# Static dielectric constant tensor:
#      x y z
#    x 1.867410 0.000000 0.000000 
#    y 0.000000 1.952290 0.000000 
#    z 0.000000 0.000000 1.926310 
# 
# From -- ./inp_files/6974.got.cif
#   From: 2010.05.17/outbox.cif.g08.bks.cpg/sg72_4_cif.got.tgz:6974.got - 2010.06.03 17:03:01.
