data_PCOD9525054
_publ_section_title
;
Structure prediction by ZEFSAII (Michael W. Deem and Ramdas Pophale) SiO2 
 PCOD9525054
Probable space group: I B A M
;
_chemical_formula_sum "Si O2"
_cell_formula_units_Z 120
_cell_length_a 28.604236
_cell_length_b 11.829084
_cell_length_c 18.410495
_cell_angle_alpha 90.000000
_cell_angle_beta 90.000000
_cell_angle_gamma 90.000000
_cell_volume 6229.410260
_symmetry_space_group_name_H-M "I B A M"
_symmetry_group_IT_number 72
_symmetry_cell_setting 'orthorhombic'
loop_
_space_group_symop_operation_xyz
x,y,z
-x,-y,z
x,-y,1/2-z
-x,y,1/2-z
-x,-y,-z
x,y,-z
-x,y,1/2+z
x,-y,1/2+z
1/2+x,1/2+y,1/2+z
1/2-x,1/2-y,1/2+z
1/2+x,1/2-y,-z
1/2-x,1/2+y,-z
1/2-x,1/2-y,1/2-z
1/2+x,1/2+y,1/2-z
1/2-x,1/2+y,z
1/2+x,1/2-y,z
loop_
_atom_site_type_symbol
_atom_site_label
_atom_site_fract_x
_atom_site_fract_y
_atom_site_fract_z
Si Si1 0.337071 0.546094 0.580636
Si Si2 0.318675 0.700959 0.086788
Si Si3 0.425957 0.500000 0.750000
Si Si4 0.374770 0.888504 0.659668
Si Si5 0.708029 0.222287 0.587051
Si Si6 0.977661 0.807621 0.827431
Si Si7 0.891206 0.356201 0.331963
Si Si8 0.078267 0.838052 0.125965
O O1 0.316344 0.531373 0.500000
O O2 0.332932 0.423671 0.615686
O O3 0.309998 0.653872 0.612405
O O4 0.390831 0.583764 0.575015
O O5 0.263271 0.713501 0.096754
O O6 0.348742 0.793153 0.128692
O O7 0.328824 0.708963 0.000000
O O8 0.454738 0.428816 0.690424
O O9 0.405700 0.603594 0.703312
O O10 0.321905 0.869452 0.631502
O O11 0.381102 0.864604 0.745530
O O12 0.403495 0.789239 0.620792
O O13 0.393202 0.013546 0.643232
O O14 0.698003 0.211925 0.500000
O O15 0.938040 0.717139 0.847124
O O16 0.000000 0.768943 0.750000
O O17 0.022523 0.829740 0.877661
#
# Coordination Sequence:
#
# PCOD9525054 Si02
#       8
#    16  16   8  16  16  16  16  16
#     4   9  19  35  56  83 109 141 191 242 284 337
#     4  10  22  38  61  85 112 153 194 237 290 345
#     4  10  17  28  52  80 102 140 186 230 268 320
#     4  10  22  36  55  84 118 153 191 238 293 327
#     4   9  20  39  61  83 109 150 198 237 287 353
#     4  10  18  32  54  82 112 152 190 233 279 340
#     4  11  22  37  54  85 124 147 192 244 280 341
#     4  10  18  33  54  80 110 147 192 227 282 335
#
# _framework density 19.263461
#
# number of rings (size 3 to 8) (size 9 to 14) (size 15 to 20)
#    0.000    2.133    2.667    2.600    1.867    1.600 
#    0.000    0.667    0.000    3.200    0.000    4.667 
#    0.000    0.000    0.000    0.000    0.000    0.000 
#
# Total GULP energy -334024.123378 kJ/mol
# GULP energy per Si atom -5567.068723 kJ/mol
# Density = 1.921962 g / cm^3
# Si number density = 19.263461 Si / 1000 Ang^3
#
#
#
# Elastic Constant Matrix: (Units=GPa)
#
#
# Indices 1 2 3 4 5 6 
#
# 1 107.4543 55.4660 21.1427 0.0000 0.0000 0.0000
# 2 55.4660 150.8794 15.3006 0.0000 0.0000 0.0000
# 3 21.1427 15.3006 15.3237 0.0000 0.0000 0.0000
# 4 0.0000 0.0000 0.0000 16.3402 0.0000 0.0000
# 5 0.0000 0.0000 0.0000 0.0000 24.1946 0.0000
# 6 0.0000 0.0000 0.0000 0.0000 0.0000 20.3092
#
#
#
# Elastic Compliance Matrix: (Units=1/GPa)
#
#
# Indices 1 2 3 4 5 6 
#
# 1 0.014372 -0.003641 -0.016194 0.000000 0.000000 0.000000
# 2 -0.003641 0.008297 -0.003261 0.000000 0.000000 0.000000
# 3 -0.016194 -0.003261 0.090858 0.000000 0.000000 0.000000
# 4 0.000000 0.000000 0.000000 0.061199 0.000000 0.000000
# 5 0.000000 0.000000 0.000000 0.000000 0.041332 0.000000
# 6 0.000000 0.000000 0.000000 0.000000 0.000000 0.049239
#
#
# Mechanical properties :
#
#
# Convention : Reuss Voigt Hill
#
# Bulk Modulus (GPa) = 14.85105 50.83065 32.84085
# Shear Modulus (GPa) = 14.97305 24.28534 19.62920
#
# Velocity S-wave (km/s) = 2.79099 3.55448 3.19562
# Velocity P-wave (km/s) = 4.25586 6.57952 5.54087
#
# Compressibility (1/GPa) = 0.06733533
#
# Stress axis : x y z
#
# Youngs Moduli (GPa) = 69.57885 120.52479 11.00618
#
# Poissons Ratio (x) = 0.43886 0.17824
# Poissons Ratio (y) = 0.25335 0.03589
# Poissons Ratio (z) = 1.12677 0.39298
#
# Static dielectric constant tensor:
#      x y z
#    x 1.699600 0.000000 0.000000 
#    y 0.000000 1.695410 0.000000 
#    z 0.000000 0.000000 1.754770 
# 
# From -- ./inp_files/40929.got.cif
#   From: 2010.05.17/outbox.cif.g08.bks.cpg/sg72_21_cif.got.tgz:40929.got - 2010.06.03 17:03:01.
