data_PCOD9525413
_publ_section_title
;
Structure prediction by ZEFSAII (Michael W. Deem and Ramdas Pophale) SiO2 
 PCOD9525413
Probable space group: I B A M
;
_chemical_formula_sum "Si O2"
_cell_formula_units_Z 128
_cell_length_a 19.140267
_cell_length_b 22.994863
_cell_length_c 17.656175
_cell_angle_alpha 90.000000
_cell_angle_beta 90.000000
_cell_angle_gamma 90.000000
_cell_volume 7770.973767
_symmetry_space_group_name_H-M "I B A M"
_symmetry_group_IT_number 72
_symmetry_cell_setting 'orthorhombic'
loop_
_space_group_symop_operation_xyz
x,y,z
-x,-y,z
x,-y,1/2-z
-x,y,1/2-z
-x,-y,-z
x,y,-z
-x,y,1/2+z
x,-y,1/2+z
1/2+x,1/2+y,1/2+z
1/2-x,1/2-y,1/2+z
1/2+x,1/2-y,-z
1/2-x,1/2+y,-z
1/2-x,1/2-y,1/2-z
1/2+x,1/2+y,1/2-z
1/2-x,1/2+y,z
1/2+x,1/2-y,z
loop_
_atom_site_type_symbol
_atom_site_label
_atom_site_fract_x
_atom_site_fract_y
_atom_site_fract_z
Si Si1 0.877840 0.783930 0.409431
Si Si2 0.127559 0.439060 0.346144
Si Si3 0.261271 0.335706 0.814053
Si Si4 0.351958 0.068082 0.667581
Si Si5 0.803761 0.331241 0.086916
Si Si6 0.529112 0.260100 0.909018
Si Si7 0.677067 0.717510 0.336944
Si Si8 0.008811 0.366809 0.157989
O O1 0.872034 0.781574 0.500000
O O2 0.821299 0.827353 0.376134
O O3 0.852671 0.720198 0.379753
O O4 0.958289 0.795609 0.390876
O O5 0.128688 0.440208 0.255600
O O6 0.145957 0.504516 0.370656
O O7 0.183546 0.391461 0.371688
O O8 0.052567 0.411110 0.367449
O O9 0.219263 0.394934 0.829062
O O10 0.300990 0.322527 0.734711
O O11 0.204631 0.283005 0.820096
O O12 0.416425 0.105791 0.637871
O O13 0.725937 0.307180 0.096364
O O14 0.822468 0.339645 0.000000
O O15 0.597032 0.279854 0.862337
O O16 0.508590 0.194883 0.883589
O O17 0.541595 0.261920 0.000000
O O18 0.000000 0.358727 0.250000
#
# Coordination Sequence:
#
# PCOD9525413 Si02
#       8
#    16  16  16  16  16  16  16  16
#     4   9  20  33  49  72 105 139 167 208 266 320
#     4  10  19  32  52  71 103 139 179 212 257 305
#     4  10  19  32  52  75 102 133 174 222 266 310
#     4  10  19  34  49  75 101 137 176 223 259 301
#     4  10  18  32  49  71 101 136 173 212 256 310
#     4  11  21  33  50  76 107 141 172 212 267 320
#     4  10  20  31  51  75 100 134 175 219 263 314
#     4  10  20  31  50  74 104 141 180 211 246 307
#
# _framework density 16.471551999999999
#
# number of rings (size 3 to 8) (size 9 to 14) (size 15 to 20)
#    0.000    2.000    3.750    0.750    1.750    2.000 
#    0.000    1.250    0.000    1.500    0.000    0.875 
#    0.000    3.000    0.000    0.000    0.000    0.000 
#
# Total GULP energy -356405.772634 kJ/mol
# GULP energy per Si atom -5568.840197 kJ/mol
# Density = 1.643406 g / cm^3
# Si number density = 16.471552 Si / 1000 Ang^3
#
#
#
# Elastic Constant Matrix: (Units=GPa)
#
#
# Indices 1 2 3 4 5 6 
#
# 1 138.6787 47.4121 20.0152 0.0000 0.0000 0.0000
# 2 47.4121 62.2154 8.1391 0.0000 0.0000 0.0000
# 3 20.0152 8.1391 15.7904 0.0000 0.0000 0.0000
# 4 0.0000 0.0000 0.0000 9.0230 0.0000 0.0000
# 5 0.0000 0.0000 0.0000 0.0000 22.0342 0.0000
# 6 0.0000 0.0000 0.0000 0.0000 0.0000 16.2812
#
#
#
# Elastic Compliance Matrix: (Units=1/GPa)
#
#
# Indices 1 2 3 4 5 6 
#
# 1 0.011162 -0.007136 -0.010470 0.000000 0.000000 0.000000
# 2 -0.007136 0.021798 -0.002190 0.000000 0.000000 0.000000
# 3 -0.010470 -0.002190 0.077730 0.000000 0.000000 0.000000
# 4 0.000000 0.000000 0.000000 0.110828 0.000000 0.000000
# 5 0.000000 0.000000 0.000000 0.000000 0.045384 0.000000
# 6 0.000000 0.000000 0.000000 0.000000 0.000000 0.061420
#
#
# Mechanical properties :
#
#
# Convention : Reuss Voigt Hill
#
# Bulk Modulus (GPa) = 14.06525 40.86859 27.46692
# Shear Modulus (GPa) = 12.76771 18.87557 15.82164
#
# Velocity S-wave (km/s) = 2.78715 3.38886 3.10263
# Velocity P-wave (km/s) = 4.34917 6.33861 5.43568
#
# Compressibility (1/GPa) = 0.07109718
#
# Stress axis : x y z
#
# Youngs Moduli (GPa) = 89.59122 45.87572 12.86509
#
# Poissons Ratio (x) = 0.32738 0.13470
# Poissons Ratio (y) = 0.63935 0.02817
# Poissons Ratio (z) = 0.93801 0.10047
#
# Static dielectric constant tensor:
#      x y z
#    x 1.568600 0.000000 0.000000 
#    y 0.000000 1.569470 0.000000 
#    z 0.000000 0.000000 1.583540 
# 
# From -- ./inp_files/32060.got.cif
#   From: 2010.05.17/outbox.cif.g08.bks.cpg/sg72_17_cif.got.tgz:32060.got - 2010.06.03 17:03:01.
