data_PCOD9525744
_publ_section_title
;
Structure prediction by ZEFSAII (Michael W. Deem and Ramdas Pophale) SiO2 
 PCOD9525744
Probable space group: I B A M
;
_chemical_formula_sum "Si O2"
_cell_formula_units_Z 96
_cell_length_a 24.844318
_cell_length_b 21.508907
_cell_length_c 9.991631
_cell_angle_alpha 90.000000
_cell_angle_beta 90.000000
_cell_angle_gamma 90.000000
_cell_volume 5339.269076
_symmetry_space_group_name_H-M "I B A M"
_symmetry_group_IT_number 72
_symmetry_cell_setting 'orthorhombic'
loop_
_space_group_symop_operation_xyz
x,y,z
-x,-y,z
x,-y,1/2-z
-x,y,1/2-z
-x,-y,-z
x,y,-z
-x,y,1/2+z
x,-y,1/2+z
1/2+x,1/2+y,1/2+z
1/2-x,1/2-y,1/2+z
1/2+x,1/2-y,-z
1/2-x,1/2+y,-z
1/2-x,1/2-y,1/2-z
1/2+x,1/2+y,1/2-z
1/2-x,1/2+y,z
1/2+x,1/2-y,z
loop_
_atom_site_type_symbol
_atom_site_label
_atom_site_fract_x
_atom_site_fract_y
_atom_site_fract_z
Si Si1 0.047204 0.233451 0.849880
Si Si2 0.838484 0.220753 0.765572
Si Si3 0.860759 0.915736 0.645299
Si Si4 0.048042 0.082649 0.151763
Si Si5 0.767177 0.667722 0.645577
Si Si6 0.264369 0.056755 0.655562
O O1 0.107451 0.247354 0.799970
O O2 0.045569 0.158000 0.854752
O O3 0.000000 0.253866 0.750000
O O4 0.038229 0.256720 0.000000
O O5 0.854835 0.159457 0.848318
O O6 0.807375 0.274219 0.844776
O O7 0.793388 0.194303 0.663376
O O8 0.885091 0.931672 0.500000
O O9 0.896774 0.932870 0.772180
O O10 0.800976 0.942885 0.652554
O O11 0.000000 0.064441 0.250000
O O12 0.044629 0.059641 0.000000
O O13 0.771321 0.636844 0.500000
O O14 0.778318 0.620568 0.766949
O O15 0.282120 0.054514 0.500000
O O16 0.282328 0.000000 0.750000
#
# Coordination Sequence:
#
# PCOD9525744 Si02
#       6
#    16  16  16  16  16  16
#     4   9  17  27  40  60  90 127 161 192 226 270
#     4   9  18  29  46  71 100 128 158 192 234 283
#     4   9  17  29  45  65  89 118 151 187 227 272
#     4   9  16  25  39  60  85 115 150 187 227 270
#     4  10  19  31  50  72  96 127 160 197 239 284
#     4  10  21  35  50  67  89 118 153 192 234 281
#
# _framework density 17.979990000000001
#
# number of rings (size 3 to 8) (size 9 to 14) (size 15 to 20)
#    0.000    2.667    0.000    2.000    0.000   14.000 
#    0.000    0.000    0.000    0.500    0.000    3.500 
#    0.000    0.667    0.000    4.667    0.000    1.333 
#
# Total GULP energy -267685.500998 kJ/mol
# GULP energy per Si atom -5576.781271 kJ/mol
# Density = 1.793907 g / cm^3
# Si number density = 17.979990 Si / 1000 Ang^3
#
#
#
# Elastic Constant Matrix: (Units=GPa)
#
#
# Indices 1 2 3 4 5 6 
#
# 1 68.4078 13.2711 38.2450 0.0000 0.0000 0.0000
# 2 13.2711 44.5571 27.6618 0.0000 0.0000 0.0000
# 3 38.2450 27.6618 162.7096 0.0000 0.0000 0.0000
# 4 0.0000 0.0000 0.0000 9.8986 0.0000 0.0000
# 5 0.0000 0.0000 0.0000 0.0000 0.8071 0.0000
# 6 0.0000 0.0000 0.0000 0.0000 0.0000 3.8071
#
#
#
# Elastic Compliance Matrix: (Units=1/GPa)
#
#
# Indices 1 2 3 4 5 6 
#
# 1 0.017162 -0.002915 -0.003538 0.000000 0.000000 0.000000
# 2 -0.002915 0.025586 -0.003665 0.000000 0.000000 0.000000
# 3 -0.003538 -0.003665 0.007601 0.000000 0.000000 0.000000
# 4 0.000000 0.000000 0.000000 0.101024 0.000000 0.000000
# 5 0.000000 0.000000 0.000000 0.000000 1.239070 0.000000
# 6 0.000000 0.000000 0.000000 0.000000 0.000000 0.262666
#
#
# Mechanical properties :
#
#
# Convention : Reuss Voigt Hill
#
# Bulk Modulus (GPa) = 33.20827 48.22560 40.71693
# Shear Modulus (GPa) = 2.97021 16.00234 9.48627
#
# Velocity S-wave (km/s) = 1.28668 2.98654 2.29945
# Velocity P-wave (km/s) = 4.55160 6.22676 5.45388
#
# Compressibility (1/GPa) = 0.03011298
#
# Stress axis : x y z
#
# Youngs Moduli (GPa) = 58.26857 39.08325 131.56783
#
# Poissons Ratio (x) = 0.11392 0.46554
# Poissons Ratio (y) = 0.16985 0.48216
# Poissons Ratio (z) = 0.20618 0.14323
#
# Static dielectric constant tensor:
#      x y z
#    x 1.610240 0.000000 0.000000 
#    y 0.000000 1.617110 0.000000 
#    z 0.000000 0.000000 1.642420 
# 
# From -- ./inp_files/8475.got.cif
#   From: 2010.05.17/outbox.cif.g08.bks.cpg/sg72_5_cif.got.tgz:8475.got - 2010.06.03 17:03:01.
