data_PCOD9525027
_publ_section_title
;
Structure prediction by ZEFSAII (Michael W. Deem and Ramdas Pophale) SiO2 
 PCOD9525027
Probable space group: I B A M
;
_chemical_formula_sum "Si O2"
_cell_formula_units_Z 96
_cell_length_a 22.853556
_cell_length_b 9.806473
_cell_length_c 18.051914
_cell_angle_alpha 90.000000
_cell_angle_beta 90.000000
_cell_angle_gamma 90.000000
_cell_volume 4045.664628
_symmetry_space_group_name_H-M "I B A M"
_symmetry_group_IT_number 72
_symmetry_cell_setting 'orthorhombic'
loop_
_space_group_symop_operation_xyz
x,y,z
-x,-y,z
x,-y,1/2-z
-x,y,1/2-z
-x,-y,-z
x,y,-z
-x,y,1/2+z
x,-y,1/2+z
1/2+x,1/2+y,1/2+z
1/2-x,1/2-y,1/2+z
1/2+x,1/2-y,-z
1/2-x,1/2+y,-z
1/2-x,1/2-y,1/2-z
1/2+x,1/2+y,1/2-z
1/2-x,1/2+y,z
1/2+x,1/2-y,z
loop_
_atom_site_type_symbol
_atom_site_label
_atom_site_fract_x
_atom_site_fract_y
_atom_site_fract_z
Si Si1 0.373994 0.781367 0.877008
Si Si2 0.436874 0.483056 0.414338
Si Si3 0.065228 0.663666 0.232828
Si Si4 0.753324 0.133758 0.412096
Si Si5 0.066573 0.558603 0.081325
Si Si6 0.680254 0.373826 0.591317
O O1 0.419605 0.675509 0.912619
O O2 0.387637 0.776803 0.789198
O O3 0.310785 0.726843 0.899020
O O4 0.389815 0.931788 0.905663
O O5 0.500000 0.500000 0.378105
O O6 0.441630 0.528078 0.500000
O O7 0.380913 0.562390 0.382665
O O8 0.064693 0.500000 0.250000
O O9 0.073404 0.667364 0.145560
O O10 0.000000 0.715600 0.250000
O O11 0.744630 0.118888 0.500000
O O12 0.699598 0.223863 0.383505
O O13 0.770349 0.984315 0.383886
O O14 0.000000 0.500000 0.086307
O O15 0.075679 0.616688 0.000000
O O16 0.680035 0.375806 0.500000
#
# Coordination Sequence:
#
# PCOD9525027 Si02
#       6
#    16  16  16  16  16  16
#     4  10  17  28  49  74 109 144 186 230 288 347
#     4   9  17  30  48  74 110 153 199 243 290 346
#     4   9  15  29  44  68 105 143 180 218 273 342
#     4   9  16  28  47  74 105 148 196 238 289 347
#     4  10  17  27  46  73 105 139 181 233 274 331
#     4   8  15  28  47  69 107 153 197 247 289 338
#
# _framework density 23.729106000000002
#
# number of rings (size 3 to 8) (size 9 to 14) (size 15 to 20)
#    0.000    2.833    3.333    2.500    0.000    0.000 
#    0.000    1.667    0.000    6.500    0.000   42.000 
#    0.000    0.667    0.000    0.000    0.000    0.000 
#
# Total GULP energy -268187.390648 kJ/mol
# GULP energy per Si atom -5587.237305 kJ/mol
# Density = 2.367510 g / cm^3
# Si number density = 23.729106 Si / 1000 Ang^3
#
#
#
# Elastic Constant Matrix: (Units=GPa)
#
#
# Indices 1 2 3 4 5 6 
#
# 1 86.6821 31.3464 -5.5008 0.0000 0.0000 0.0000
# 2 31.3464 91.2935 5.2776 0.0000 0.0000 0.0000
# 3 -5.5008 5.2776 91.3375 0.0000 0.0000 0.0000
# 4 0.0000 0.0000 0.0000 -24.8429 0.0000 0.0000
# 5 0.0000 0.0000 0.0000 0.0000 10.9678 0.0000
# 6 0.0000 0.0000 0.0000 0.0000 0.0000 23.9465
#
#
#
# Elastic Compliance Matrix: (Units=1/GPa)
#
#
# Indices 1 2 3 4 5 6 
#
# 1 0.013275 -0.004620 0.001066 0.000000 0.000000 0.000000
# 2 -0.004620 0.012598 -0.001006 0.000000 0.000000 0.000000
# 3 0.001066 -0.001006 0.011071 0.000000 0.000000 0.000000
# 4 0.000000 0.000000 0.000000 -0.040253 0.000000 0.000000
# 5 0.000000 0.000000 0.000000 0.000000 0.091176 0.000000
# 6 0.000000 0.000000 0.000000 0.000000 0.000000 0.041760
#
#
# Mechanical properties :
#
#
# Convention : Reuss Voigt Hill
#
# Bulk Modulus (GPa) = 35.93926 36.83993 36.38959
# Shear Modulus (GPa) = 33.77914 17.89359 25.83636
#
# Velocity S-wave (km/s) = 3.77707 2.74903 3.30328
# Velocity P-wave (km/s) = 5.84809 5.06311 5.46970
#
# Compressibility (1/GPa) = 0.02782473
#
# Stress axis : x y z
#
# Youngs Moduli (GPa) = 75.33163 79.37752 90.32793
#
# Poissons Ratio (x) = 0.36669 -0.09633
# Poissons Ratio (y) = 0.34800 0.09088
# Poissons Ratio (z) = -0.08033 0.07987
#
# Static dielectric constant tensor:
#      x y z
#    x 1.961640 0.000000 0.000000 
#    y 0.000000 1.911000 0.000000 
#    z 0.000000 0.000000 1.897920 
# 
# From -- ./inp_files/39703.got.cif
#   From: 2010.05.17/outbox.cif.g08.bks.cpg/sg72_20_cif.got.tgz:39703.got - 2010.06.03 17:03:01.
