data_PCOD9525266
_publ_section_title
;
Structure prediction by ZEFSAII (Michael W. Deem and Ramdas Pophale) SiO2 
 PCOD9525266
Probable space group: I B A M
;
_chemical_formula_sum "Si O2"
_cell_formula_units_Z 116
_cell_length_a 32.288123
_cell_length_b 31.667358
_cell_length_c 9.288708
_cell_angle_alpha 90.000000
_cell_angle_beta 90.000000
_cell_angle_gamma 90.000000
_cell_volume 9497.513978
_symmetry_space_group_name_H-M "I B A M"
_symmetry_group_IT_number 72
_symmetry_cell_setting 'orthorhombic'
loop_
_space_group_symop_operation_xyz
x,y,z
-x,-y,z
x,-y,1/2-z
-x,y,1/2-z
-x,-y,-z
x,y,-z
-x,y,1/2+z
x,-y,1/2+z
1/2+x,1/2+y,1/2+z
1/2-x,1/2-y,1/2+z
1/2+x,1/2-y,-z
1/2-x,1/2+y,-z
1/2-x,1/2-y,1/2-z
1/2+x,1/2+y,1/2-z
1/2-x,1/2+y,z
1/2+x,1/2-y,z
loop_
_atom_site_type_symbol
_atom_site_label
_atom_site_fract_x
_atom_site_fract_y
_atom_site_fract_z
Si Si1 0.458357 0.653725 0.171579
Si Si2 0.185418 0.257543 0.334444
Si Si3 0.062937 0.070204 0.339063
Si Si4 0.804119 0.876169 0.170774
Si Si5 0.627404 0.302632 0.830489
Si Si6 0.658330 0.543883 0.171082
Si Si7 0.000000 0.000000 0.750000
Si Si8 0.744206 0.183914 0.833681
O O1 0.500000 0.668037 0.250000
O O2 0.448997 0.606243 0.226261
O O3 0.418571 0.682292 0.207734
O O4 0.463436 0.653394 0.000000
O O5 0.178292 0.269424 0.500000
O O6 0.145944 0.235395 0.262220
O O7 0.221017 0.221125 0.333657
O O8 0.204262 0.295776 0.242168
O O9 0.061789 0.088942 0.500000
O O10 0.109301 0.053897 0.311180
O O11 0.030792 0.031554 0.332902
O O12 0.842109 0.842913 0.188540
O O13 0.816614 0.918415 0.253921
O O14 0.764459 0.853724 0.242215
O O15 0.798631 0.883025 0.000000
O O16 0.628861 0.291717 0.000000
O O17 0.667342 0.500000 0.250000
O O18 0.666480 0.541740 0.000000
O O19 0.736821 0.172433 0.000000
#
# Coordination Sequence:
#
# PCOD9525266 Si02
#       8
#    16  16  16  16  16  16   4  16
#     4  11  22  34  46  59  75  95 123 156 195 237
#     4   9  16  25  40  61  81 101 122 145 172 214
#     4  11  23  34  46  59  72  89 116 153 198 245
#     4  10  18  30  45  60  77  99 124 152 186 228
#     4   9  18  30  43  58  77 100 121 149 187 230
#     4  11  22  34  45  59  75  95 123 156 195 239
#     4  12  22  36  48  62  70  88 114 160 206 248
#     4   9  16  26  40  60  83 103 120 143 175 217
#
# _framework density 12.213723
#
# number of rings (size 3 to 8) (size 9 to 14) (size 15 to 20)
#    0.000    1.931    2.759    2.276    0.000    6.069 
#    0.000    0.000    0.000    0.000    0.000    0.000 
#    0.000    0.000    0.000    0.000    0.000    0.000 
#
# Total GULP energy -323467.790292 kJ/mol
# GULP energy per Si atom -5577.030867 kJ/mol
# Density = 1.218592 g / cm^3
# Si number density = 12.213723 Si / 1000 Ang^3
#
#
#
# Elastic Constant Matrix: (Units=GPa)
#
#
# Indices 1 2 3 4 5 6 
#
# 1 64.8421 48.1399 52.9480 0.0000 0.0000 0.0000
# 2 48.1399 58.5820 51.5159 0.0000 0.0000 0.0000
# 3 52.9480 51.5159 98.4246 0.0000 0.0000 0.0000
# 4 0.0000 0.0000 0.0000 17.7435 0.0000 0.0000
# 5 0.0000 0.0000 0.0000 0.0000 17.3563 0.0000
# 6 0.0000 0.0000 0.0000 0.0000 0.0000 23.8855
#
#
#
# Elastic Compliance Matrix: (Units=1/GPa)
#
#
# Indices 1 2 3 4 5 6 
#
# 1 0.043174 -0.027892 -0.008627 0.000000 0.000000 0.000000
# 2 -0.027892 0.049647 -0.010981 0.000000 0.000000 0.000000
# 3 -0.008627 -0.010981 0.020548 0.000000 0.000000 0.000000
# 4 0.000000 0.000000 0.000000 0.056359 0.000000 0.000000
# 5 0.000000 0.000000 0.000000 0.000000 0.057616 0.000000
# 6 0.000000 0.000000 0.000000 0.000000 0.000000 0.041866
#
#
# Mechanical properties :
#
#
# Convention : Reuss Voigt Hill
#
# Bulk Modulus (GPa) = 54.43708 58.56179 56.49944
# Shear Modulus (GPa) = 13.50139 16.41339 14.95739
#
# Velocity S-wave (km/s) = 3.32840 3.66983 3.50328
# Velocity P-wave (km/s) = 7.70962 8.12456 7.91981
#
# Compressibility (1/GPa) = 0.01836983
#
# Stress axis : x y z
#
# Youngs Moduli (GPa) = 23.16204 20.14236 48.66606
#
# Poissons Ratio (x) = 0.56181 0.41983
# Poissons Ratio (y) = 0.64604 0.53438
# Poissons Ratio (z) = 0.19982 0.22117
#
# Static dielectric constant tensor:
#      x y z
#    x 1.384280 0.000000 0.000000 
#    y 0.000000 1.372990 0.000000 
#    z 0.000000 0.000000 1.413640 
# 
# From -- ./inp_files/9495.got.cif
#   From: 2010.05.17/outbox.cif.g08.bks.cpg/sg72_5_cif.got.tgz:9495.got - 2010.06.03 17:03:01.
