data_PCOD9525382
_publ_section_title
;
Structure prediction by ZEFSAII (Michael W. Deem and Ramdas Pophale) SiO2 
 PCOD9525382
Probable space group: I B A M
;
_chemical_formula_sum "Si O2"
_cell_formula_units_Z 80
_cell_length_a 12.304502
_cell_length_b 11.795137
_cell_length_c 24.131389
_cell_angle_alpha 90.000000
_cell_angle_beta 90.000000
_cell_angle_gamma 90.000000
_cell_volume 3502.267801
_symmetry_space_group_name_H-M "I B A M"
_symmetry_group_IT_number 72
_symmetry_cell_setting 'orthorhombic'
loop_
_space_group_symop_operation_xyz
x,y,z
-x,-y,z
x,-y,1/2-z
-x,y,1/2-z
-x,-y,-z
x,y,-z
-x,y,1/2+z
x,-y,1/2+z
1/2+x,1/2+y,1/2+z
1/2-x,1/2-y,1/2+z
1/2+x,1/2-y,-z
1/2-x,1/2+y,-z
1/2-x,1/2-y,1/2-z
1/2+x,1/2+y,1/2-z
1/2-x,1/2+y,z
1/2+x,1/2-y,z
loop_
_atom_site_type_symbol
_atom_site_label
_atom_site_fract_x
_atom_site_fract_y
_atom_site_fract_z
Si Si1 0.547068 0.205836 0.160676
Si Si2 0.580414 0.157954 0.562899
Si Si3 0.655528 0.167034 0.731275
Si Si4 0.109059 0.073841 0.440271
Si Si5 0.716835 0.588771 0.364219
O O1 0.517340 0.134372 0.106009
O O2 0.599833 0.135488 0.210977
O O3 0.431060 0.231807 0.190893
O O4 0.622986 0.314298 0.145164
O O5 0.566407 0.117938 0.500000
O O6 0.581018 0.295055 0.562293
O O7 0.696225 0.125848 0.589072
O O8 0.750000 0.250000 0.750000
O O9 0.716295 0.078799 0.692190
O O10 0.166196 0.054038 0.500000
O O11 0.170997 0.028525 0.386963
O O12 0.000000 0.000000 0.441529
#
# Coordination Sequence:
#
# PCOD9525382 Si02
#       5
#    16  16  16  16  16
#     4   9  16  30  51  75 105 141 182 225 282 335
#     4  10  20  31  50  82 113 149 193 230 287 351
#     4   8  16  29  50  75 101 141 183 221 278 338
#     4  10  19  32  51  79 115 149 188 240 287 335
#     4  10  18  31  53  77 110 148 185 233 291 341
#
# _framework density 22.842343
#
# number of rings (size 3 to 8) (size 9 to 14) (size 15 to 20)
#    0.000    2.600    2.000    0.600    0.000    0.800 
#    0.000    0.000    0.000   67.200    0.000   29.400 
#    0.000    0.000    0.000    0.000    0.000    0.000 
#
# Total GULP energy -223023.811951 kJ/mol
# GULP energy per Si atom -5575.595299 kJ/mol
# Density = 2.279035 g / cm^3
# Si number density = 22.842343 Si / 1000 Ang^3
#
#
#
# Elastic Constant Matrix: (Units=GPa)
#
#
# Indices 1 2 3 4 5 6 
#
# 1 85.7676 10.1445 55.5379 0.0000 0.0000 0.0000
# 2 10.1445 55.1447 15.2501 0.0000 0.0000 0.0000
# 3 55.5379 15.2501 206.8947 0.0000 0.0000 0.0000
# 4 0.0000 0.0000 0.0000 13.1204 0.0000 0.0000
# 5 0.0000 0.0000 0.0000 0.0000 65.2516 0.0000
# 6 0.0000 0.0000 0.0000 0.0000 0.0000 22.3367
#
#
#
# Elastic Compliance Matrix: (Units=1/GPa)
#
#
# Indices 1 2 3 4 5 6 
#
# 1 0.014249 -0.001596 -0.003707 0.000000 0.000000 0.000000
# 2 -0.001596 0.018690 -0.000949 0.000000 0.000000 0.000000
# 3 -0.003707 -0.000949 0.005898 0.000000 0.000000 0.000000
# 4 0.000000 0.000000 0.000000 0.076217 0.000000 0.000000
# 5 0.000000 0.000000 0.000000 0.000000 0.015325 0.000000
# 6 0.000000 0.000000 0.000000 0.000000 0.000000 0.044769
#
#
# Mechanical properties :
#
#
# Convention : Reuss Voigt Hill
#
# Bulk Modulus (GPa) = 37.97578 56.63021 47.30300
# Shear Modulus (GPa) = 25.45412 37.93336 31.69374
#
# Velocity S-wave (km/s) = 3.34179 4.07954 3.72896
# Velocity P-wave (km/s) = 5.61706 6.85826 6.26846
#
# Compressibility (1/GPa) = 0.02633257
#
# Stress axis : x y z
#
# Youngs Moduli (GPa) = 70.18155 53.50391 169.53476
#
# Poissons Ratio (x) = 0.08539 0.62850
# Poissons Ratio (y) = 0.11201 0.16093
# Poissons Ratio (z) = 0.26018 0.05079
#
# Static dielectric constant tensor:
#      x y z
#    x 1.969180 0.000000 0.000000 
#    y 0.000000 1.809820 0.000000 
#    z 0.000000 0.000000 1.936850 
# 
# From -- ./inp_files/43085.got.cif
#   From: 2010.05.17/outbox.cif.g08.bks.cpg/sg72_22_cif.got.tgz:43085.got - 2010.06.03 17:03:01.
