data_PCOD9525834
_publ_section_title
;
Structure prediction by ZEFSAII (Michael W. Deem and Ramdas Pophale) SiO2 
 PCOD9525834
Probable space group: I B A M
;
_chemical_formula_sum "Si O2"
_cell_formula_units_Z 88
_cell_length_a 11.924729
_cell_length_b 11.989231
_cell_length_c 25.122968
_cell_angle_alpha 90.000000
_cell_angle_beta 90.000000
_cell_angle_gamma 90.000000
_cell_volume 3591.788795
_symmetry_space_group_name_H-M "I B A M"
_symmetry_group_IT_number 72
_symmetry_cell_setting 'orthorhombic'
loop_
_space_group_symop_operation_xyz
x,y,z
-x,-y,z
x,-y,1/2-z
-x,y,1/2-z
-x,-y,-z
x,y,-z
-x,y,1/2+z
x,-y,1/2+z
1/2+x,1/2+y,1/2+z
1/2-x,1/2-y,1/2+z
1/2+x,1/2-y,-z
1/2-x,1/2+y,-z
1/2-x,1/2-y,1/2-z
1/2+x,1/2+y,1/2-z
1/2-x,1/2+y,z
1/2+x,1/2-y,z
loop_
_atom_site_type_symbol
_atom_site_label
_atom_site_fract_x
_atom_site_fract_y
_atom_site_fract_z
Si Si1 0.696408 0.500000 0.750000
Si Si2 0.205331 0.452182 0.860309
Si Si3 0.000000 0.000000 0.408350
Si Si4 0.205956 0.888878 0.556650
Si Si5 0.551730 0.168939 0.939158
Si Si6 0.912105 0.212513 0.140072
Si Si7 0.000000 0.815279 0.250000
O O1 0.779210 0.519272 0.799133
O O2 0.609421 0.396067 0.758585
O O3 0.238283 0.567652 0.889766
O O4 0.100284 0.413992 0.895022
O O5 0.290885 0.345116 0.862682
O O6 0.107726 0.983231 0.443975
O O7 0.989953 0.896014 0.369696
O O8 0.267865 0.896142 0.500000
O O9 0.140521 0.772167 0.558610
O O10 0.438992 0.216528 0.912474
O O11 0.540876 0.129679 0.000000
O O12 0.958916 0.253174 0.197369
#
# Coordination Sequence:
#
# PCOD9525834 Si02
#       7
#     8  16   8  16  16  16   8
#     4   9  16  28  48  74 104 135 172 219 274 336
#     4  10  19  32  51  75 105 142 178 224 278 324
#     4   8  13  23  42  68  96 125 161 212 278 320
#     4   9  16  27  44  68  98 130 169 216 264 315
#     4  10  20  32  49  78 111 141 179 222 269 330
#     4   9  17  29  47  73 103 136 173 221 276 329
#     4   9  14  28  50  72 102 131 166 225 290 332
#
# _framework density 24.500325
#
# number of rings (size 3 to 8) (size 9 to 14) (size 15 to 20)
#    0.000    2.727    0.000    5.182    0.000    5.091 
#    0.000    8.182    0.000    1.091    0.000    3.818 
#    0.000    0.000    0.000    0.000    0.000    0.000 
#
# Total GULP energy -245016.425774 kJ/mol
# GULP energy per Si atom -5568.555131 kJ/mol
# Density = 2.444456 g / cm^3
# Si number density = 24.500325 Si / 1000 Ang^3
#
#
#
# Elastic Constant Matrix: (Units=GPa)
#
#
# Indices 1 2 3 4 5 6 
#
# 1 39.9199 23.0983 57.1550 0.0000 0.0000 0.0000
# 2 23.0983 43.1001 41.9964 0.0000 0.0000 0.0000
# 3 57.1550 41.9964 224.3048 0.0000 0.0000 0.0000
# 4 0.0000 0.0000 0.0000 -30.0217 0.0000 0.0000
# 5 0.0000 0.0000 0.0000 0.0000 4.6078 0.0000
# 6 0.0000 0.0000 0.0000 0.0000 0.0000 38.6885
#
#
#
# Elastic Compliance Matrix: (Units=1/GPa)
#
#
# Indices 1 2 3 4 5 6 
#
# 1 0.047631 -0.016758 -0.008999 0.000000 0.000000 0.000000
# 2 -0.016758 0.034275 -0.002147 0.000000 0.000000 0.000000
# 3 -0.008999 -0.002147 0.007153 0.000000 0.000000 0.000000
# 4 0.000000 0.000000 0.000000 -0.033309 0.000000 0.000000
# 5 0.000000 0.000000 0.000000 0.000000 0.217022 0.000000
# 6 0.000000 0.000000 0.000000 0.000000 0.000000 0.025847
#
#
# Mechanical properties :
#
#
# Convention : Reuss Voigt Hill
#
# Bulk Modulus (GPa) = 30.07443 61.31381 45.69412
# Shear Modulus (GPa) = 13.67942 14.99326 14.33634
#
# Velocity S-wave (km/s) = 2.36548 2.47647 2.42161
# Velocity P-wave (km/s) = 4.44549 5.76691 5.14877
#
# Compressibility (1/GPa) = 0.03325083
#
# Stress axis : x y z
#
# Youngs Moduli (GPa) = 20.99461 29.17579 139.79435
#
# Poissons Ratio (x) = 0.48892 1.25806
# Poissons Ratio (y) = 0.35182 0.30017
# Poissons Ratio (z) = 0.18894 0.06265
#
# Static dielectric constant tensor:
#      x y z
#    x 2.016430 0.000000 0.000000 
#    y 0.000000 2.022780 0.000000 
#    z 0.000000 0.000000 2.067980 
# 
# From -- ./inp_files/44271.got.cif
#   From: 2010.05.17/outbox.cif.g08.bks.cpg/sg72_23_cif.got.tgz:44271.got - 2010.06.03 17:03:01.
