data_PCOD9525718
_publ_section_title
;
Structure prediction by ZEFSAII (Michael W. Deem and Ramdas Pophale) SiO2 
 PCOD9525718
Probable space group: I B A M
;
_chemical_formula_sum "Si O2"
_cell_formula_units_Z 80
_cell_length_a 19.035357
_cell_length_b 27.031077
_cell_length_c 8.871341
_cell_angle_alpha 90.000000
_cell_angle_beta 90.000000
_cell_angle_gamma 90.000000
_cell_volume 4564.714807
_symmetry_space_group_name_H-M "I B A M"
_symmetry_group_IT_number 72
_symmetry_cell_setting 'orthorhombic'
loop_
_space_group_symop_operation_xyz
x,y,z
-x,-y,z
x,-y,1/2-z
-x,y,1/2-z
-x,-y,-z
x,y,-z
-x,y,1/2+z
x,-y,1/2+z
1/2+x,1/2+y,1/2+z
1/2-x,1/2-y,1/2+z
1/2+x,1/2-y,-z
1/2-x,1/2+y,-z
1/2-x,1/2-y,1/2-z
1/2+x,1/2+y,1/2-z
1/2-x,1/2+y,z
1/2+x,1/2-y,z
loop_
_atom_site_type_symbol
_atom_site_label
_atom_site_fract_x
_atom_site_fract_y
_atom_site_fract_z
Si Si1 0.857970 0.948593 0.320601
Si Si2 0.928161 0.445162 0.180883
Si Si3 0.924478 0.156483 0.181038
Si Si4 0.788268 0.797059 0.179776
Si Si5 0.277603 0.903366 0.320726
O O1 0.858958 0.952602 0.500000
O O2 0.902648 0.900015 0.276393
O O3 0.778842 0.937072 0.265083
O O4 0.882897 0.000000 0.250000
O O5 0.920680 0.500000 0.250000
O O6 0.857555 0.415613 0.219159
O O7 0.000000 0.423842 0.250000
O O8 0.934501 0.448331 0.000000
O O9 0.863745 0.191656 0.246387
O O10 0.000000 0.167942 0.250000
O O11 0.925635 0.159619 0.000000
O O12 0.750000 0.750000 0.250000
O O13 0.742617 0.846587 0.209179
O O14 0.795567 0.791472 0.000000
O O15 0.268874 0.912320 0.500000
#
# Coordination Sequence:
#
# PCOD9525718 Si02
#       5
#    16  16  16  16  16
#     4  10  20  32  50  76 106 139 176 213 253 305
#     4  10  19  31  47  70  99 133 168 205 249 299
#     4  10  21  37  56  80 108 140 176 215 260 311
#     4  10  20  37  59  81 105 135 172 217 264 313
#     4   9  19  34  52  73 100 133 172 216 259 304
#
# _framework density 17.525738
#
# number of rings (size 3 to 8) (size 9 to 14) (size 15 to 20)
#    0.000    2.200    0.000    3.600    0.000    6.800 
#    0.000    3.000    0.000    2.400    0.000    0.000 
#    0.000    0.000    0.000    0.000    0.000    0.000 
#
# Total GULP energy -223288.433030 kJ/mol
# GULP energy per Si atom -5582.210826 kJ/mol
# Density = 1.748585 g / cm^3
# Si number density = 17.525738 Si / 1000 Ang^3
#
#
#
# Elastic Constant Matrix: (Units=GPa)
#
#
# Indices 1 2 3 4 5 6 
#
# 1 156.0332 53.4427 53.3823 0.0000 0.0000 0.0000
# 2 53.4427 87.1488 43.9697 0.0000 0.0000 0.0000
# 3 53.3823 43.9697 58.4901 0.0000 0.0000 0.0000
# 4 0.0000 0.0000 0.0000 26.1007 0.0000 0.0000
# 5 0.0000 0.0000 0.0000 0.0000 27.8741 0.0000
# 6 0.0000 0.0000 0.0000 0.0000 0.0000 11.6250
#
#
#
# Elastic Compliance Matrix: (Units=1/GPa)
#
#
# Indices 1 2 3 4 5 6 
#
# 1 0.009612 -0.002366 -0.006994 0.000000 0.000000 0.000000
# 2 -0.002366 0.019068 -0.012175 0.000000 0.000000 0.000000
# 3 -0.006994 -0.012175 0.032633 0.000000 0.000000 0.000000
# 4 0.000000 0.000000 0.000000 0.038313 0.000000 0.000000
# 5 0.000000 0.000000 0.000000 0.000000 0.035876 0.000000
# 6 0.000000 0.000000 0.000000 0.000000 0.000000 0.086022
#
#
# Mechanical properties :
#
#
# Convention : Reuss Voigt Hill
#
# Bulk Modulus (GPa) = 54.81607 67.02904 60.92255
# Shear Modulus (GPa) = 18.47231 23.17846 20.82538
#
# Velocity S-wave (km/s) = 3.25007 3.64062 3.45088
# Velocity P-wave (km/s) = 6.74013 7.48340 7.12147
#
# Compressibility (1/GPa) = 0.01824283
#
# Stress axis : x y z
#
# Youngs Moduli (GPa) = 104.03633 52.44331 30.64352
#
# Poissons Ratio (x) = 0.12406 0.21433
# Poissons Ratio (y) = 0.24610 0.37310
# Poissons Ratio (z) = 0.72767 0.63852
#
# Static dielectric constant tensor:
#      x y z
#    x 1.588420 0.000000 0.000000 
#    y 0.000000 1.581690 0.000000 
#    z 0.000000 0.000000 1.584850 
# 
# From -- ./inp_files/4997.got.cif
#   From: 2010.05.17/outbox.cif.g08.bks.cpg/sg72_3_cif.got.tgz:4997.got - 2010.06.03 17:03:01.
