data_PCOD9525306
_publ_section_title
;
Structure prediction by ZEFSAII (Michael W. Deem and Ramdas Pophale) SiO2 
 PCOD9525306
Probable space group: I B A M
;
_chemical_formula_sum "Si O2"
_cell_formula_units_Z 88
_cell_length_a 23.430032
_cell_length_b 23.928545
_cell_length_c 9.312934
_cell_angle_alpha 90.000000
_cell_angle_beta 90.000000
_cell_angle_gamma 90.000000
_cell_volume 5221.264551
_symmetry_space_group_name_H-M "I B A M"
_symmetry_group_IT_number 72
_symmetry_cell_setting 'orthorhombic'
loop_
_space_group_symop_operation_xyz
x,y,z
-x,-y,z
x,-y,1/2-z
-x,y,1/2-z
-x,-y,-z
x,y,-z
-x,y,1/2+z
x,-y,1/2+z
1/2+x,1/2+y,1/2+z
1/2-x,1/2-y,1/2+z
1/2+x,1/2-y,-z
1/2-x,1/2+y,-z
1/2-x,1/2-y,1/2-z
1/2+x,1/2+y,1/2-z
1/2-x,1/2+y,z
1/2+x,1/2-y,z
loop_
_atom_site_type_symbol
_atom_site_label
_atom_site_fract_x
_atom_site_fract_y
_atom_site_fract_z
Si Si1 0.808975 0.251666 0.833580
Si Si2 0.560957 0.053232 0.829068
Si Si3 0.500000 0.744588 0.750000
Si Si4 0.903208 0.158978 0.160336
Si Si5 0.102948 0.322244 0.161236
Si Si6 0.938210 0.054680 0.327422
O O1 0.702073 0.238203 0.500000
O O2 0.750000 0.250000 0.750000
O O3 0.845916 0.194816 0.820980
O O4 0.851592 0.298031 0.771027
O O5 0.500000 0.059124 0.750000
O O6 0.591151 0.112722 0.812311
O O7 0.589045 0.000000 0.750000
O O8 0.554411 0.043012 0.000000
O O9 0.456574 0.702369 0.669603
O O10 0.544126 0.786372 0.671029
O O11 0.907893 0.111798 0.280822
O O12 0.904539 0.133733 0.000000
O O13 0.125389 0.315029 0.000000
O O14 0.942726 0.048670 0.500000
O O15 0.000000 0.059791 0.250000
O O16 0.911856 0.000000 0.250000
#
# Coordination Sequence:
#
# PCOD9525306 Si02
#       6
#    16  16   8  16  16  16
#     4  10  22  38  57  79 105 138 177 220 265 315
#     4  10  19  31  48  73 106 143 177 214 257 310
#     4  10  18  30  50  76 110 136 174 208 262 312
#     4  10  20  33  52  78 107 138 173 214 261 311
#     4  10  20  33  52  77 107 141 176 218 264 314
#     4  11  21  33  51  74 107 143 176 213 255 309
#
# _framework density 16.854154999999999
#
# number of rings (size 3 to 8) (size 9 to 14) (size 15 to 20)
#    0.000    1.818    1.818    4.364    0.000    5.818 
#    0.000    0.000    0.000    1.091    0.000    5.091 
#    0.000    0.000    0.000    0.000    0.000    0.000 
#
# Total GULP energy -245205.339737 kJ/mol
# GULP energy per Si atom -5572.848630 kJ/mol
# Density = 1.681579 g / cm^3
# Si number density = 16.854155 Si / 1000 Ang^3
#
#
#
# Elastic Constant Matrix: (Units=GPa)
#
#
# Indices 1 2 3 4 5 6 
#
# 1 82.2490 26.1072 53.1771 0.0000 0.0000 0.0000
# 2 26.1072 106.2597 73.4243 0.0000 0.0000 0.0000
# 3 53.1771 73.4243 162.1885 0.0000 0.0000 0.0000
# 4 0.0000 0.0000 0.0000 26.6126 0.0000 0.0000
# 5 0.0000 0.0000 0.0000 0.0000 20.3728 0.0000
# 6 0.0000 0.0000 0.0000 0.0000 0.0000 7.6149
#
#
#
# Elastic Compliance Matrix: (Units=1/GPa)
#
#
# Indices 1 2 3 4 5 6 
#
# 1 0.015442 -0.000430 -0.004868 0.000000 0.000000 0.000000
# 2 -0.000430 0.013707 -0.006064 0.000000 0.000000 0.000000
# 3 -0.004868 -0.006064 0.010507 0.000000 0.000000 0.000000
# 4 0.000000 0.000000 0.000000 0.037576 0.000000 0.000000
# 5 0.000000 0.000000 0.000000 0.000000 0.049085 0.000000
# 6 0.000000 0.000000 0.000000 0.000000 0.000000 0.131321
#
#
# Mechanical properties :
#
#
# Convention : Reuss Voigt Hill
#
# Bulk Modulus (GPa) = 59.06313 72.90161 65.98237
# Shear Modulus (GPa) = 17.48204 24.11931 20.80067
#
# Velocity S-wave (km/s) = 3.22414 3.78704 3.51687
# Velocity P-wave (km/s) = 6.99856 7.90383 7.46493
#
# Compressibility (1/GPa) = 0.01693104
#
# Stress axis : x y z
#
# Youngs Moduli (GPa) = 64.75707 72.95596 95.17244
#
# Poissons Ratio (x) = 0.03137 0.46334
# Poissons Ratio (y) = 0.02785 0.57715
# Poissons Ratio (z) = 0.31527 0.44242
#
# Static dielectric constant tensor:
#      x y z
#    x 1.537060 0.000000 0.000000 
#    y 0.000000 1.606680 0.000000 
#    z 0.000000 0.000000 1.582820 
# 
# From -- ./inp_files/5768.got.cif
#   From: 2010.05.17/outbox.cif.g08.bks.cpg/sg72_3_cif.got.tgz:5768.got - 2010.06.03 17:03:01.
