data_PCOD9525030
_publ_section_title
;
Structure prediction by ZEFSAII (Michael W. Deem and Ramdas Pophale) SiO2 
 PCOD9525030
Probable space group: I B A M
;
_chemical_formula_sum "Si O2"
_cell_formula_units_Z 120
_cell_length_a 14.924255
_cell_length_b 23.109268
_cell_length_c 22.955651
_cell_angle_alpha 90.000000
_cell_angle_beta 90.000000
_cell_angle_gamma 90.000000
_cell_volume 7917.142530
_symmetry_space_group_name_H-M "I B A M"
_symmetry_group_IT_number 72
_symmetry_cell_setting 'orthorhombic'
loop_
_space_group_symop_operation_xyz
x,y,z
-x,-y,z
x,-y,1/2-z
-x,y,1/2-z
-x,-y,-z
x,y,-z
-x,y,1/2+z
x,-y,1/2+z
1/2+x,1/2+y,1/2+z
1/2-x,1/2-y,1/2+z
1/2+x,1/2-y,-z
1/2-x,1/2+y,-z
1/2-x,1/2-y,1/2-z
1/2+x,1/2+y,1/2-z
1/2-x,1/2+y,z
1/2+x,1/2-y,z
loop_
_atom_site_type_symbol
_atom_site_label
_atom_site_fract_x
_atom_site_fract_y
_atom_site_fract_z
Si Si1 0.824398 0.320382 0.733783
Si Si2 0.238653 0.935143 0.745330
Si Si3 0.886402 0.058651 0.363130
Si Si4 0.500000 0.254506 0.750000
Si Si5 0.879541 0.825097 0.068359
Si Si6 0.408898 0.430114 0.846150
Si Si7 0.764562 0.739686 0.352252
Si Si8 0.937001 0.196475 0.871954
O O1 0.813989 0.388714 0.739123
O O2 0.918770 0.287635 0.732522
O O3 0.778240 0.298105 0.793634
O O4 0.773531 0.298563 0.676284
O O5 0.192544 0.928314 0.682402
O O6 0.155574 0.929200 0.790383
O O7 0.273749 0.000000 0.750000
O O8 0.881109 0.107148 0.412814
O O9 0.984442 0.066573 0.333225
O O10 0.884847 0.990344 0.378977
O O11 0.530487 0.293147 0.695136
O O12 0.803530 0.791889 0.105073
O O13 0.975586 0.799441 0.088165
O O14 0.865812 0.819077 0.000000
O O15 0.399260 0.368668 0.878066
O O16 0.859296 0.756427 0.380868
#
# Coordination Sequence:
#
# PCOD9525030 Si02
#       8
#    16  16  16   8  16  16  16  16
#     4  10  18  31  48  77  97 127 157 206 253 300
#     4  10  17  27  47  73 101 127 155 200 245 300
#     4   9  18  30  41  68 100 131 163 188 236 296
#     4  10  20  30  51  73 106 124 160 206 258 302
#     4  11  22  35  50  69 101 137 170 205 239 292
#     4   9  17  26  45  70  99 126 155 196 242 291
#     4  10  19  32  50  71 100 129 165 201 250 295
#     4  10  20  31  51  75  98 131 164 207 248 299
#
# _framework density 15.156984
#
# number of rings (size 3 to 8) (size 9 to 14) (size 15 to 20)
#    0.000    2.133    4.000    0.400    3.733    2.133 
#    0.000    5.667    0.000    0.000    0.000    0.000 
#    0.000    0.000    0.000   13.467    0.000    0.000 
#
# Total GULP energy -334011.612389 kJ/mol
# GULP energy per Si atom -5566.860206 kJ/mol
# Density = 1.512249 g / cm^3
# Si number density = 15.156984 Si / 1000 Ang^3
#
#
#
# Elastic Constant Matrix: (Units=GPa)
#
#
# Indices 1 2 3 4 5 6 
#
# 1 57.2824 32.7926 32.6451 0.0000 0.0000 0.0000
# 2 32.7926 94.0199 28.2640 0.0000 0.0000 0.0000
# 3 32.6451 28.2640 60.2598 0.0000 0.0000 0.0000
# 4 0.0000 0.0000 0.0000 12.9728 0.0000 0.0000
# 5 0.0000 0.0000 0.0000 0.0000 14.1971 0.0000
# 6 0.0000 0.0000 0.0000 0.0000 0.0000 20.7537
#
#
#
# Elastic Compliance Matrix: (Units=1/GPa)
#
#
# Indices 1 2 3 4 5 6 
#
# 1 0.027922 -0.006044 -0.012292 0.000000 0.000000 0.000000
# 2 -0.006044 0.013690 -0.003147 0.000000 0.000000 0.000000
# 3 -0.012292 -0.003147 0.024730 0.000000 0.000000 0.000000
# 4 0.000000 0.000000 0.000000 0.077084 0.000000 0.000000
# 5 0.000000 0.000000 0.000000 0.000000 0.070437 0.000000
# 6 0.000000 0.000000 0.000000 0.000000 0.000000 0.048184
#
#
# Mechanical properties :
#
#
# Convention : Reuss Voigt Hill
#
# Bulk Modulus (GPa) = 42.77705 44.32949 43.55327
# Shear Modulus (GPa) = 15.98438 17.44208 16.71323
#
# Velocity S-wave (km/s) = 3.25097 3.39597 3.32426
# Velocity P-wave (km/s) = 6.50966 6.68485 6.59783
#
# Compressibility (1/GPa) = 0.02337702
#
# Stress axis : x y z
#
# Youngs Moduli (GPa) = 35.81354 73.04583 40.43694
#
# Poissons Ratio (x) = 0.44147 0.49705
# Poissons Ratio (y) = 0.21645 0.12725
# Poissons Ratio (z) = 0.44022 0.22987
#
# Static dielectric constant tensor:
#      x y z
#    x 1.514950 0.000000 0.000000 
#    y 0.000000 1.534370 0.000000 
#    z 0.000000 0.000000 1.481390 
# 
# From -- ./inp_files/44600.got.cif
#   From: 2010.05.17/outbox.cif.g08.bks.cpg/sg72_23_cif.got.tgz:44600.got - 2010.06.03 17:03:01.
