data_PCOD9525628
_publ_section_title
;
Structure prediction by ZEFSAII (Michael W. Deem and Ramdas Pophale) SiO2 
 PCOD9525628
Probable space group: I B A M
;
_chemical_formula_sum "Si O2"
_cell_formula_units_Z 64
_cell_length_a 22.832256
_cell_length_b 8.059539
_cell_length_c 13.767829
_cell_angle_alpha 90.000000
_cell_angle_beta 90.000000
_cell_angle_gamma 90.000000
_cell_volume 2533.520890
_symmetry_space_group_name_H-M "I B A M"
_symmetry_group_IT_number 72
_symmetry_cell_setting 'orthorhombic'
loop_
_space_group_symop_operation_xyz
x,y,z
-x,-y,z
x,-y,1/2-z
-x,y,1/2-z
-x,-y,-z
x,y,-z
-x,y,1/2+z
x,-y,1/2+z
1/2+x,1/2+y,1/2+z
1/2-x,1/2-y,1/2+z
1/2+x,1/2-y,-z
1/2-x,1/2+y,-z
1/2-x,1/2-y,1/2-z
1/2+x,1/2+y,1/2-z
1/2-x,1/2+y,z
1/2+x,1/2-y,z
loop_
_atom_site_type_symbol
_atom_site_label
_atom_site_fract_x
_atom_site_fract_y
_atom_site_fract_z
Si Si1 0.658980 0.523799 0.386870
Si Si2 0.386473 0.047086 0.115780
Si Si3 0.933648 0.769381 0.222691
Si Si4 0.730752 0.864465 0.614051
O O1 0.644042 0.491122 0.500000
O O2 0.601148 0.586386 0.332809
O O3 0.701526 0.685467 0.380968
O O4 0.704343 0.387599 0.344206
O O5 0.404401 0.206903 0.176897
O O6 0.426774 0.893133 0.152398
O O7 0.320492 0.991175 0.142370
O O8 0.390424 0.067162 0.000000
O O9 0.000000 0.805446 0.250000
O O10 0.740185 0.897270 0.500000
#
# Coordination Sequence:
#
# PCOD9525628 Si02
#       4
#    16  16  16  16
#     4   9  17  31  50  75 105 132 164 209 253 300
#     4   9  17  29  44  65  95 128 164 207 248 291
#     4  10  19  28  43  69  98 133 168 200 247 301
#     4   8  15  28  47  71  99 129 162 204 257 303
#
# _framework density 25.261289000000001
#
# number of rings (size 3 to 8) (size 9 to 14) (size 15 to 20)
#    0.000    3.000    0.000    3.750    0.000    4.000 
#    0.000    0.000    0.000    0.000    0.000   10.500 
#    0.000   10.000    0.000    0.000    0.000    2.000 
#
# Total GULP energy -179091.989796 kJ/mol
# GULP energy per Si atom -5596.624681 kJ/mol
# Density = 2.520379 g / cm^3
# Si number density = 25.261289 Si / 1000 Ang^3
#
#
#
# Elastic Constant Matrix: (Units=GPa)
#
#
# Indices 1 2 3 4 5 6 
#
# 1 210.7148 30.5421 37.2706 0.0000 0.0000 0.0000
# 2 30.5421 62.5769 8.2146 0.0000 0.0000 0.0000
# 3 37.2706 8.2146 184.0210 0.0000 0.0000 0.0000
# 4 0.0000 0.0000 0.0000 29.9936 0.0000 0.0000
# 5 0.0000 0.0000 0.0000 0.0000 41.3489 0.0000
# 6 0.0000 0.0000 0.0000 0.0000 0.0000 40.1677
#
#
#
# Elastic Compliance Matrix: (Units=1/GPa)
#
#
# Indices 1 2 3 4 5 6 
#
# 1 0.005270 -0.002446 -0.000958 0.000000 0.000000 0.000000
# 2 -0.002446 0.017210 -0.000273 0.000000 0.000000 0.000000
# 3 -0.000958 -0.000273 0.005640 0.000000 0.000000 0.000000
# 4 0.000000 0.000000 0.000000 0.033340 0.000000 0.000000
# 5 0.000000 0.000000 0.000000 0.000000 0.024184 0.000000
# 6 0.000000 0.000000 0.000000 0.000000 0.000000 0.024896
#
#
# Mechanical properties :
#
#
# Convention : Reuss Voigt Hill
#
# Bulk Modulus (GPa) = 48.15583 67.70749 57.93166
# Shear Modulus (GPa) = 40.05862 47.72108 43.88985
#
# Velocity S-wave (km/s) = 3.98649 4.35109 4.17278
# Velocity P-wave (km/s) = 6.34775 7.21829 6.79697
#
# Compressibility (1/GPa) = 0.02076592
#
# Stress axis : x y z
#
# Youngs Moduli (GPa) = 189.76077 58.10545 177.29270
#
# Poissons Ratio (x) = 0.14214 0.16987
# Poissons Ratio (y) = 0.46420 0.04836
# Poissons Ratio (z) = 0.18181 0.01585
#
# Static dielectric constant tensor:
#      x y z
#    x 1.967190 0.000000 0.000000 
#    y 0.000000 2.102520 0.000000 
#    z 0.000000 0.000000 2.002380 
# 
# From -- ./inp_files/19846.got.cif
#   From: 2010.05.17/outbox.cif.g08.bks.cpg/sg72_10_cif.got.tgz:19846.got - 2010.06.03 17:03:01.
