data_PCOD9525908
_publ_section_title
;
Structure prediction by ZEFSAII (Michael W. Deem and Ramdas Pophale) SiO2 
 PCOD9525908
Probable space group: I B A M
;
_chemical_formula_sum "Si O2"
_cell_formula_units_Z 116
_cell_length_a 24.249505
_cell_length_b 26.712693
_cell_length_c 9.165747
_cell_angle_alpha 90.000000
_cell_angle_beta 90.000000
_cell_angle_gamma 90.000000
_cell_volume 5937.292107
_symmetry_space_group_name_H-M "I B A M"
_symmetry_group_IT_number 72
_symmetry_cell_setting 'orthorhombic'
loop_
_space_group_symop_operation_xyz
x,y,z
-x,-y,z
x,-y,1/2-z
-x,y,1/2-z
-x,-y,-z
x,y,-z
-x,y,1/2+z
x,-y,1/2+z
1/2+x,1/2+y,1/2+z
1/2-x,1/2-y,1/2+z
1/2+x,1/2-y,-z
1/2-x,1/2+y,-z
1/2-x,1/2-y,1/2-z
1/2+x,1/2+y,1/2-z
1/2-x,1/2+y,z
1/2+x,1/2-y,z
loop_
_atom_site_type_symbol
_atom_site_label
_atom_site_fract_x
_atom_site_fract_y
_atom_site_fract_z
Si Si1 0.687669 0.048418 0.827480
Si Si2 0.701376 0.435901 0.835316
Si Si3 0.720476 0.683591 0.663691
Si Si4 0.402164 0.319304 0.324895
Si Si5 0.445425 0.788056 0.826848
Si Si6 0.000000 0.000000 0.250000
Si Si7 0.330630 0.836595 0.824463
Si Si8 0.592006 0.576805 0.833327
O O1 0.751160 0.048691 0.775712
O O2 0.667562 0.104143 0.786306
O O3 0.661376 0.000000 0.750000
O O4 0.683155 0.042935 0.000000
O O5 0.710546 0.376247 0.846726
O O6 0.641520 0.443796 0.767032
O O7 0.706425 0.456495 0.000000
O O8 0.728575 0.703880 0.500000
O O9 0.659889 0.698876 0.719021
O O10 0.775919 0.688880 0.756779
O O11 0.399896 0.330642 0.500000
O O12 0.440169 0.271481 0.302765
O O13 0.420051 0.368585 0.236973
O O14 0.500000 0.807706 0.750000
O O15 0.388009 0.812371 0.776485
O O16 0.449188 0.796476 0.000000
O O17 0.958895 0.961578 0.331116
O O18 0.326156 0.832767 0.000000
O O19 0.610849 0.583456 0.000000
#
# Coordination Sequence:
#
# PCOD9525908 Si02
#       8
#    16  16  16  16  16   4  16  16
#     4  10  19  32  54  84 116 150 185 223 274 335
#     4   9  18  34  55  79 112 146 180 229 283 335
#     4   8  15  30  53  82 113 146 178 219 282 340
#     4   9  20  39  61  84 115 147 181 235 293 342
#     4  10  22  40  60  84 113 149 190 234 285 337
#     4  12  30  44  52  74 110 152 196 250 294 324
#     4   9  19  35  55  82 118 151 184 231 281 335
#     4  11  24  41  59  78 104 143 194 241 287 338
#
# _framework density 19.537526
#
# number of rings (size 3 to 8) (size 9 to 14) (size 15 to 20)
#    0.000    2.483    0.000    2.276    1.931    7.724 
#    0.000    0.000    0.000    0.414    0.000    2.897 
#    0.000    0.000    0.000    0.000    0.000    0.000 
#
# Total GULP energy -323445.365726 kJ/mol
# GULP energy per Si atom -5576.644237 kJ/mol
# Density = 1.949306 g / cm^3
# Si number density = 19.537526 Si / 1000 Ang^3
#
#
#
# Elastic Constant Matrix: (Units=GPa)
#
#
# Indices 1 2 3 4 5 6 
#
# 1 116.4200 32.1768 36.8851 0.0000 0.0000 0.0000
# 2 32.1768 66.5443 28.2914 0.0000 0.0000 0.0000
# 3 36.8851 28.2914 53.6833 0.0000 0.0000 0.0000
# 4 0.0000 0.0000 0.0000 14.8446 0.0000 0.0000
# 5 0.0000 0.0000 0.0000 0.0000 10.5325 0.0000
# 6 0.0000 0.0000 0.0000 0.0000 0.0000 25.9168
#
#
#
# Elastic Compliance Matrix: (Units=1/GPa)
#
#
# Indices 1 2 3 4 5 6 
#
# 1 0.011372 -0.002805 -0.006335 0.000000 0.000000 0.000000
# 2 -0.002805 0.020059 -0.008644 0.000000 0.000000 0.000000
# 3 -0.006335 -0.008644 0.027536 0.000000 0.000000 0.000000
# 4 0.000000 0.000000 0.000000 0.067364 0.000000 0.000000
# 5 0.000000 0.000000 0.000000 0.000000 0.094944 0.000000
# 6 0.000000 0.000000 0.000000 0.000000 0.000000 0.038585
#
#
# Mechanical properties :
#
#
# Convention : Reuss Voigt Hill
#
# Bulk Modulus (GPa) = 42.73784 47.92824 45.33304
# Shear Modulus (GPa) = 16.48921 19.54507 18.01714
#
# Velocity S-wave (km/s) = 2.90828 3.16632 3.04004
# Velocity P-wave (km/s) = 5.76192 6.16053 5.96455
#
# Compressibility (1/GPa) = 0.02339847
#
# Stress axis : x y z
#
# Youngs Moduli (GPa) = 87.93428 49.85295 36.31636
#
# Poissons Ratio (x) = 0.13986 0.23007
# Poissons Ratio (y) = 0.24670 0.31390
# Poissons Ratio (z) = 0.55708 0.43091
#
# Static dielectric constant tensor:
#      x y z
#    x 1.679750 0.000000 0.000000 
#    y 0.000000 1.753240 0.000000 
#    z 0.000000 0.000000 1.679750 
# 
# From -- ./inp_files/7527.got.cif
#   From: 2010.05.17/outbox.cif.g08.bks.cpg/sg72_4_cif.got.tgz:7527.got - 2010.06.03 17:03:01.
