data_PCOD9525539
_publ_section_title
;
Structure prediction by ZEFSAII (Michael W. Deem and Ramdas Pophale) SiO2 
 PCOD9525539
Probable space group: I B A M
;
_chemical_formula_sum "Si O2"
_cell_formula_units_Z 104
_cell_length_a 15.291414
_cell_length_b 14.980274
_cell_length_c 24.730581
_cell_angle_alpha 90.000000
_cell_angle_beta 90.000000
_cell_angle_gamma 90.000000
_cell_volume 5665.023594
_symmetry_space_group_name_H-M "I B A M"
_symmetry_group_IT_number 72
_symmetry_cell_setting 'orthorhombic'
loop_
_space_group_symop_operation_xyz
x,y,z
-x,-y,z
x,-y,1/2-z
-x,y,1/2-z
-x,-y,-z
x,y,-z
-x,y,1/2+z
x,-y,1/2+z
1/2+x,1/2+y,1/2+z
1/2-x,1/2-y,1/2+z
1/2+x,1/2-y,-z
1/2-x,1/2+y,-z
1/2-x,1/2-y,1/2-z
1/2+x,1/2+y,1/2-z
1/2-x,1/2+y,z
1/2+x,1/2-y,z
loop_
_atom_site_type_symbol
_atom_site_label
_atom_site_fract_x
_atom_site_fract_y
_atom_site_fract_z
Si Si1 0.754708 0.512472 0.437408
Si Si2 0.329622 0.170557 0.874135
Si Si3 0.976457 0.745843 0.865798
Si Si4 0.057050 0.917893 0.563269
Si Si5 0.324526 0.106356 0.244431
Si Si6 0.787249 0.341851 0.362161
Si Si7 0.500000 0.777714 0.250000
O O1 0.769948 0.487364 0.500000
O O2 0.814118 0.594575 0.418210
O O3 0.656990 0.551507 0.432601
O O4 0.768026 0.429194 0.397517
O O5 0.432472 0.194172 0.874721
O O6 0.294937 0.131698 0.816183
O O7 0.273761 0.260678 0.881829
O O8 0.963384 0.828092 0.905250
O O9 0.889315 0.685327 0.868841
O O10 0.986394 0.778502 0.803872
O O11 0.035792 0.904572 0.500000
O O12 0.000000 0.000000 0.584337
O O13 0.272692 0.140398 0.297663
O O14 0.417129 0.157014 0.246720
O O15 0.333560 0.000000 0.250000
#
# Coordination Sequence:
#
# PCOD9525539 Si02
#       7
#    16  16  16  16  16  16   8
#     4  11  24  40  61  90 121 160 207 257 302 355
#     4  11  22  39  61  90 122 157 201 256 304 364
#     4  10  21  38  62  87 121 159 198 244 312 360
#     4  10  21  40  63  85 115 160 210 248 296 363
#     4  10  18  34  59  85 118 159 201 241 307 366
#     4  11  22  39  61  88 123 160 200 252 306 365
#     4   8  19  32  55  90 120 154 194 245 292 375
#
# _framework density 18.358264999999999
#
# number of rings (size 3 to 8) (size 9 to 14) (size 15 to 20)
#    0.000    1.692    3.077    1.615    0.000    2.462 
#    0.000    1.154    0.000    0.000    0.000    0.000 
#    0.000    0.000    0.000    0.000    0.000    0.000 
#
# Total GULP energy -290010.536853 kJ/mol
# GULP energy per Si atom -5577.125709 kJ/mol
# Density = 1.831648 g / cm^3
# Si number density = 18.358265 Si / 1000 Ang^3
#
#
#
# Elastic Constant Matrix: (Units=GPa)
#
#
# Indices 1 2 3 4 5 6 
#
# 1 45.2354 3.7284 13.6521 0.0000 0.0000 0.0000
# 2 3.7284 78.3029 46.2968 0.0000 0.0000 0.0000
# 3 13.6521 46.2968 73.2875 0.0000 0.0000 0.0000
# 4 0.0000 0.0000 0.0000 54.7979 0.0000 0.0000
# 5 0.0000 0.0000 0.0000 0.0000 22.6623 0.0000
# 6 0.0000 0.0000 0.0000 0.0000 0.0000 12.6717
#
#
#
# Elastic Compliance Matrix: (Units=1/GPa)
#
#
# Indices 1 2 3 4 5 6 
#
# 1 0.023695 0.002365 -0.005908 0.000000 0.000000 0.000000
# 2 0.002365 0.020621 -0.013467 0.000000 0.000000 0.000000
# 3 -0.005908 -0.013467 0.023253 0.000000 0.000000 0.000000
# 4 0.000000 0.000000 0.000000 0.018249 0.000000 0.000000
# 5 0.000000 0.000000 0.000000 0.000000 0.044126 0.000000
# 6 0.000000 0.000000 0.000000 0.000000 0.000000 0.078916
#
#
# Mechanical properties :
#
#
# Convention : Reuss Voigt Hill
#
# Bulk Modulus (GPa) = 29.80787 36.02004 32.91395
# Shear Modulus (GPa) = 19.68031 26.90297 23.29164
#
# Velocity S-wave (km/s) = 3.27771 3.83226 3.56578
# Velocity P-wave (km/s) = 5.53141 6.26457 5.90937
#
# Compressibility (1/GPa) = 0.03354818
#
# Stress axis : x y z
#
# Youngs Moduli (GPa) = 42.20370 48.49500 43.00588
#
# Poissons Ratio (x) = -0.11468 0.25407
# Poissons Ratio (y) = -0.09980 0.57916
# Poissons Ratio (z) = 0.24933 0.65308
#
# Static dielectric constant tensor:
#      x y z
#    x 1.645000 0.000000 0.000000 
#    y 0.000000 1.584180 0.000000 
#    z 0.000000 0.000000 1.667650 
# 
# From -- ./inp_files/44366.got.cif
#   From: 2010.05.17/outbox.cif.g08.bks.cpg/sg72_23_cif.got.tgz:44366.got - 2010.06.03 17:03:01.
