data_PCOD9525591
_publ_section_title
;
Structure prediction by ZEFSAII (Michael W. Deem and Ramdas Pophale) SiO2 
 PCOD9525591
Probable space group: I B A M
;
_chemical_formula_sum "Si O2"
_cell_formula_units_Z 104
_cell_length_a 28.972335
_cell_length_b 12.275577
_cell_length_c 13.517213
_cell_angle_alpha 90.000000
_cell_angle_beta 90.000000
_cell_angle_gamma 90.000000
_cell_volume 4807.425584
_symmetry_space_group_name_H-M "I B A M"
_symmetry_group_IT_number 72
_symmetry_cell_setting 'orthorhombic'
loop_
_space_group_symop_operation_xyz
x,y,z
-x,-y,z
x,-y,1/2-z
-x,y,1/2-z
-x,-y,-z
x,y,-z
-x,y,1/2+z
x,-y,1/2+z
1/2+x,1/2+y,1/2+z
1/2-x,1/2-y,1/2+z
1/2+x,1/2-y,-z
1/2-x,1/2+y,-z
1/2-x,1/2-y,1/2-z
1/2+x,1/2+y,1/2-z
1/2-x,1/2+y,z
1/2+x,1/2-y,z
loop_
_atom_site_type_symbol
_atom_site_label
_atom_site_fract_x
_atom_site_fract_y
_atom_site_fract_z
Si Si1 0.675796 0.820817 0.887559
Si Si2 0.467103 0.832373 0.618371
Si Si3 0.555248 0.373603 0.746787
Si Si4 0.067035 0.569207 0.380688
Si Si5 0.291673 0.000000 0.750000
Si Si6 0.133542 0.742407 0.308361
Si Si7 0.229696 0.688859 0.609880
O O1 0.680381 0.937962 0.835938
O O2 0.647927 0.751514 0.806774
O O3 0.727002 0.769195 0.889338
O O4 0.657820 0.823759 0.000000
O O5 0.466760 0.823748 0.500000
O O6 0.445650 0.722932 0.663161
O O7 0.520411 0.862130 0.646437
O O8 0.439964 0.942864 0.646470
O O9 0.570417 0.500000 0.750000
O O10 0.500000 0.382654 0.750000
O O11 0.590944 0.323248 0.826744
O O12 0.069847 0.572836 0.500000
O O13 0.111289 0.626699 0.335888
O O14 0.264767 0.095148 0.692148
O O15 0.181604 0.750265 0.366633
O O16 0.226721 0.639989 0.500000
#
# Coordination Sequence:
#
# PCOD9525591 Si02
#       7
#    16  16  16  16   8  16  16
#     4  10  23  42  63  95 132 166 210 265 323 386
#     4   9  19  39  62  88 126 166 209 265 329 383
#     4  11  24  42  58  86 129 175 221 263 309 370
#     4   9  18  34  62  99 128 159 211 271 329 390
#     4  10  18  36  66  94 123 172 203 252 322 388
#     4  11  21  39  65  96 127 173 215 267 325 391
#     4  10  22  41  63  96 133 164 209 264 321 385
#
# _framework density 21.633201
#
# number of rings (size 3 to 8) (size 9 to 14) (size 15 to 20)
#    0.000    2.000    1.538    3.692    0.000    6.154 
#    5.538    6.154    0.000    0.000    0.000    3.231 
#    0.000    0.000    0.000    0.000    0.000    0.000 
#
# Total GULP energy -289816.017020 kJ/mol
# GULP energy per Si atom -5573.384943 kJ/mol
# Density = 2.158396 g / cm^3
# Si number density = 21.633201 Si / 1000 Ang^3
#
#
#
# Elastic Constant Matrix: (Units=GPa)
#
#
# Indices 1 2 3 4 5 6 
#
# 1 109.2412 32.7941 12.8686 0.0000 0.0000 0.0000
# 2 32.7941 114.8429 17.5463 0.0000 0.0000 0.0000
# 3 12.8686 17.5463 99.6317 0.0000 0.0000 0.0000
# 4 0.0000 0.0000 0.0000 22.3398 0.0000 0.0000
# 5 0.0000 0.0000 0.0000 0.0000 15.1921 0.0000
# 6 0.0000 0.0000 0.0000 0.0000 0.0000 15.5355
#
#
#
# Elastic Compliance Matrix: (Units=1/GPa)
#
#
# Indices 1 2 3 4 5 6 
#
# 1 0.010077 -0.002753 -0.000817 0.000000 0.000000 0.000000
# 2 -0.002753 0.009700 -0.001353 0.000000 0.000000 0.000000
# 3 -0.000817 -0.001353 0.010381 0.000000 0.000000 0.000000
# 4 0.000000 0.000000 0.000000 0.044763 0.000000 0.000000
# 5 0.000000 0.000000 0.000000 0.000000 0.065824 0.000000
# 6 0.000000 0.000000 0.000000 0.000000 0.000000 0.064369
#
#
# Mechanical properties :
#
#
# Convention : Reuss Voigt Hill
#
# Bulk Modulus (GPa) = 49.22902 50.01485 49.62194
# Shear Modulus (GPa) = 22.55007 27.98060 25.26533
#
# Velocity S-wave (km/s) = 3.23210 3.60030 3.42116
# Velocity P-wave (km/s) = 6.06088 6.36023 6.21236
#
# Compressibility (1/GPa) = 0.02031322
#
# Stress axis : x y z
#
# Youngs Moduli (GPa) = 99.23973 103.08990 96.33260
#
# Poissons Ratio (x) = 0.28377 0.07868
# Poissons Ratio (y) = 0.27317 0.13032
# Poissons Ratio (z) = 0.08105 0.13946
#
# Static dielectric constant tensor:
#      x y z
#    x 0.617160 0.000000 0.000000 
#    y 0.000000 1.822650 0.000000 
#    z 0.000000 0.000000 1.841010 
# 
# From -- ./inp_files/26335.got.cif
#   From: 2010.05.17/outbox.cif.g08.bks.cpg/sg72_14_cif.got.tgz:26335.got - 2010.06.03 17:03:01.
