data_PCOD9525141
_publ_section_title
;
Structure prediction by ZEFSAII (Michael W. Deem and Ramdas Pophale) SiO2 
 PCOD9525141
Probable space group: I B A M
;
_chemical_formula_sum "Si O2"
_cell_formula_units_Z 56
_cell_length_a 18.907405
_cell_length_b 12.385766
_cell_length_c 10.217414
_cell_angle_alpha 90.000000
_cell_angle_beta 90.000000
_cell_angle_gamma 90.000000
_cell_volume 2392.741536
_symmetry_space_group_name_H-M "I B A M"
_symmetry_group_IT_number 72
_symmetry_cell_setting 'orthorhombic'
loop_
_space_group_symop_operation_xyz
x,y,z
-x,-y,z
x,-y,1/2-z
-x,y,1/2-z
-x,-y,-z
x,y,-z
-x,y,1/2+z
x,-y,1/2+z
1/2+x,1/2+y,1/2+z
1/2-x,1/2-y,1/2+z
1/2+x,1/2-y,-z
1/2-x,1/2+y,-z
1/2-x,1/2-y,1/2-z
1/2+x,1/2+y,1/2-z
1/2-x,1/2+y,z
1/2+x,1/2-y,z
loop_
_atom_site_type_symbol
_atom_site_label
_atom_site_fract_x
_atom_site_fract_y
_atom_site_fract_z
Si Si1 0.696591 0.228185 0.333313
Si Si2 0.633302 0.557340 0.500000
Si Si3 0.699590 0.029259 0.500000
Si Si4 0.438131 0.620731 0.352663
Si Si5 0.804582 0.711418 0.000000
O O1 0.715713 0.257114 0.500000
O O2 0.683957 0.102043 0.372131
O O3 0.628162 0.303668 0.321589
O O4 0.717527 0.219824 0.169902
O O5 0.714664 0.516150 0.500000
O O6 0.593264 0.499707 0.380829
O O7 0.642802 0.684909 0.500000
O O8 0.668083 0.910860 0.500000
O O9 0.500000 0.633775 0.250000
O O10 0.464370 0.650961 0.500000
#
# Coordination Sequence:
#
# PCOD9525141 Si02
#       5
#    16   8   8  16   8
#     4  10  20  36  65 105 148 187 246 323 379 445
#     4   8  17  36  63 103 146 186 248 303 374 439
#     4  10  17  38  68  97 149 184 248 326 385 434
#     4  10  19  41  69 108 156 197 250 307 385 462
#     4  10  18  38  63  99 140 186 242 323 369 433
#
# _framework density 23.404115000000001
#
# number of rings (size 3 to 8) (size 9 to 14) (size 15 to 20)
#    0.857    1.714    5.714    0.000    0.000    1.143 
#    5.143    0.000    0.000   22.286    0.000    4.000 
#    0.000    0.000    0.000    0.000    0.000    0.000 
#
# Total GULP energy -156178.291764 kJ/mol
# GULP energy per Si atom -5577.796134 kJ/mol
# Density = 2.335085 g / cm^3
# Si number density = 23.404115 Si / 1000 Ang^3
#
#
#
# Elastic Constant Matrix: (Units=GPa)
#
#
# Indices 1 2 3 4 5 6 
#
# 1 132.6754 79.2060 81.9855 0.0000 0.0000 0.0000
# 2 79.2060 218.1500 89.4336 0.0000 0.0000 0.0000
# 3 81.9855 89.4336 214.6528 0.0000 0.0000 0.0000
# 4 0.0000 0.0000 0.0000 35.8168 0.0000 0.0000
# 5 0.0000 0.0000 0.0000 0.0000 64.2381 0.0000
# 6 0.0000 0.0000 0.0000 0.0000 0.0000 39.6548
#
#
#
# Elastic Compliance Matrix: (Units=1/GPa)
#
#
# Indices 1 2 3 4 5 6 
#
# 1 0.011093 -0.002763 -0.003086 0.000000 0.000000 0.000000
# 2 -0.002763 0.006216 -0.001535 0.000000 0.000000 0.000000
# 3 -0.003086 -0.001535 0.006477 0.000000 0.000000 0.000000
# 4 0.000000 0.000000 0.000000 0.027920 0.000000 0.000000
# 5 0.000000 0.000000 0.000000 0.000000 0.015567 0.000000
# 6 0.000000 0.000000 0.000000 0.000000 0.000000 0.025218
#
#
# Mechanical properties :
#
#
# Convention : Reuss Voigt Hill
#
# Bulk Modulus (GPa) = 110.86962 118.52539 114.69750
# Shear Modulus (GPa) = 45.34544 48.93215 47.13880
#
# Velocity S-wave (km/s) = 4.40648 4.57743 4.49277
# Velocity P-wave (km/s) = 8.56528 8.87074 8.71935
#
# Compressibility (1/GPa) = 0.00901960
#
# Stress axis : x y z
#
# Youngs Moduli (GPa) = 90.14316 160.86809 154.39618
#
# Poissons Ratio (x) = 0.44442 0.47647
# Poissons Ratio (y) = 0.24903 0.23696
# Poissons Ratio (z) = 0.27819 0.24690
#
# Static dielectric constant tensor:
#      x y z
#    x 1.825820 0.000000 0.000000 
#    y 0.000000 1.833840 0.000000 
#    z 0.000000 0.000000 2.241090 
# 
# From -- ./inp_files/3597.got.cif
#   From: 2010.05.17/outbox.cif.g08.bks.cpg/sg72_2_cif.got.tgz:3597.got - 2010.06.03 17:03:01.
