data_PCOD9525363
_publ_section_title
;
Structure prediction by ZEFSAII (Michael W. Deem and Ramdas Pophale) SiO2 
 PCOD9525363
Probable space group: I B A M
;
_chemical_formula_sum "Si O2"
_cell_formula_units_Z 116
_cell_length_a 27.360013
_cell_length_b 28.033007
_cell_length_c 8.009935
_cell_angle_alpha 90.000000
_cell_angle_beta 90.000000
_cell_angle_gamma 90.000000
_cell_volume 6143.487468
_symmetry_space_group_name_H-M "I B A M"
_symmetry_group_IT_number 72
_symmetry_cell_setting 'orthorhombic'
loop_
_space_group_symop_operation_xyz
x,y,z
-x,-y,z
x,-y,1/2-z
-x,y,1/2-z
-x,-y,-z
x,y,-z
-x,y,1/2+z
x,-y,1/2+z
1/2+x,1/2+y,1/2+z
1/2-x,1/2-y,1/2+z
1/2+x,1/2-y,-z
1/2-x,1/2+y,-z
1/2-x,1/2-y,1/2-z
1/2+x,1/2+y,1/2-z
1/2-x,1/2+y,z
1/2+x,1/2-y,z
loop_
_atom_site_type_symbol
_atom_site_label
_atom_site_fract_x
_atom_site_fract_y
_atom_site_fract_z
Si Si1 0.447898 0.283797 0.800478
Si Si2 0.000000 0.500000 0.250000
Si Si3 0.310263 0.789504 0.693406
Si Si4 0.414768 0.818357 0.803160
Si Si5 0.430167 0.077328 0.695285
Si Si6 0.676511 0.053079 0.307123
Si Si7 0.157604 0.185197 0.295918
Si Si8 0.744912 0.372511 0.307786
O O1 0.500000 0.304843 0.750000
O O2 0.443793 0.230277 0.727851
O O3 0.399074 0.311893 0.744764
O O4 0.445572 0.279757 0.000000
O O5 0.040276 0.460475 0.305911
O O6 0.294611 0.788864 0.500000
O O7 0.364102 0.812608 0.704829
O O8 0.318057 0.735620 0.755971
O O9 0.274444 0.822668 0.796913
O O10 0.440013 0.867965 0.756370
O O11 0.403231 0.821995 0.000000
O O12 0.443789 0.068889 0.500000
O O13 0.371994 0.069651 0.709957
O O14 0.662595 0.052371 0.500000
O O15 0.721615 0.088873 0.282376
O O16 0.689744 0.000000 0.250000
O O17 0.158773 0.185166 0.500000
O O18 0.191337 0.141417 0.240031
O O19 0.740736 0.387487 0.500000
#
# Coordination Sequence:
#
# PCOD9525363 Si02
#       8
#    16   4  16  16  16  16  16  16
#     4  10  20  36  54  77 107 143 182 217 263 313
#     4  12  26  40  60  78  98 128 186 236 296 324
#     4  10  18  31  50  77 108 140 174 213 264 319
#     4  10  20  34  52  74 100 135 178 222 272 324
#     4  11  24  41  57  76 101 130 174 229 285 332
#     4  12  25  41  61  80 104 137 176 223 276 332
#     4   8  18  33  51  76 109 143 178 218 258 315
#     4  11  20  34  55  79 107 140 176 218 269 321
#
# _framework density 18.881785000000001
#
# number of rings (size 3 to 8) (size 9 to 14) (size 15 to 20)
#    0.000    1.655    2.069    4.345    0.966    1.103 
#    0.000    7.586    0.000    0.000    0.000    0.000 
#    0.000    0.552    0.000    6.345    0.000    1.931 
#
# Total GULP energy -323654.205982 kJ/mol
# GULP energy per Si atom -5580.244931 kJ/mol
# Density = 1.883881 g / cm^3
# Si number density = 18.881785 Si / 1000 Ang^3
#
#
#
# Elastic Constant Matrix: (Units=GPa)
#
#
# Indices 1 2 3 4 5 6 
#
# 1 116.4813 54.6223 1.4527 0.0000 0.0000 0.0000
# 2 54.6223 58.4548 7.7029 0.0000 0.0000 0.0000
# 3 1.4527 7.7029 48.7223 0.0000 0.0000 0.0000
# 4 0.0000 0.0000 0.0000 14.5774 0.0000 0.0000
# 5 0.0000 0.0000 0.0000 0.0000 12.8400 0.0000
# 6 0.0000 0.0000 0.0000 0.0000 0.0000 12.4516
#
#
#
# Elastic Compliance Matrix: (Units=1/GPa)
#
#
# Indices 1 2 3 4 5 6 
#
# 1 0.015444 -0.014677 0.001860 0.000000 0.000000 0.000000
# 2 -0.014677 0.031419 -0.004530 0.000000 0.000000 0.000000
# 3 0.001860 -0.004530 0.021185 0.000000 0.000000 0.000000
# 4 0.000000 0.000000 0.000000 0.068599 0.000000 0.000000
# 5 0.000000 0.000000 0.000000 0.000000 0.077882 0.000000
# 6 0.000000 0.000000 0.000000 0.000000 0.000000 0.080311
#
#
# Mechanical properties :
#
#
# Convention : Reuss Voigt Hill
#
# Bulk Modulus (GPa) = 29.98051 39.02383 34.50217
# Shear Modulus (GPa) = 14.67774 18.63250 16.65512
#
# Velocity S-wave (km/s) = 2.79112 3.14474 2.97319
# Velocity P-wave (km/s) = 5.12832 5.82221 5.48625
#
# Compressibility (1/GPa) = 0.03335500
#
# Stress axis : x y z
#
# Youngs Moduli (GPa) = 64.74825 31.82806 47.20288
#
# Poissons Ratio (x) = 0.46714 -0.08779
# Poissons Ratio (y) = 0.95031 0.21381
# Poissons Ratio (z) = -0.12043 0.14417
#
# Static dielectric constant tensor:
#      x y z
#    x 1.694550 0.000000 0.000000 
#    y 0.000000 1.647120 0.000000 
#    z 0.000000 0.000000 1.687760 
# 
# From -- ./inp_files/8684.got.cif
#   From: 2010.05.17/outbox.cif.g08.bks.cpg/sg72_5_cif.got.tgz:8684.got - 2010.06.03 17:03:01.
