data_PCOD9525660
_publ_section_title
;
Structure prediction by ZEFSAII (Michael W. Deem and Ramdas Pophale) SiO2 
 PCOD9525660
Probable space group: I B A M
;
_chemical_formula_sum "Si O2"
_cell_formula_units_Z 96
_cell_length_a 19.418355
_cell_length_b 32.585884
_cell_length_c 8.858110
_cell_angle_alpha 90.000000
_cell_angle_beta 90.000000
_cell_angle_gamma 90.000000
_cell_volume 5605.095450
_symmetry_space_group_name_H-M "I B A M"
_symmetry_group_IT_number 72
_symmetry_cell_setting 'orthorhombic'
loop_
_space_group_symop_operation_xyz
x,y,z
-x,-y,z
x,-y,1/2-z
-x,y,1/2-z
-x,-y,-z
x,y,-z
-x,y,1/2+z
x,-y,1/2+z
1/2+x,1/2+y,1/2+z
1/2-x,1/2-y,1/2+z
1/2+x,1/2-y,-z
1/2-x,1/2+y,-z
1/2-x,1/2-y,1/2-z
1/2+x,1/2+y,1/2-z
1/2-x,1/2+y,z
1/2+x,1/2-y,z
loop_
_atom_site_type_symbol
_atom_site_label
_atom_site_fract_x
_atom_site_fract_y
_atom_site_fract_z
Si Si1 0.073535 0.255738 0.179994
Si Si2 0.075183 0.410757 0.680663
Si Si3 0.655939 0.827045 0.820929
Si Si4 0.073152 0.839154 0.318361
Si Si5 0.285912 0.380920 0.317568
Si Si6 0.704776 0.044175 0.819516
O O1 0.131636 0.286765 0.235565
O O2 0.086122 0.208427 0.225900
O O3 0.000000 0.268267 0.250000
O O4 0.068457 0.257298 0.000000
O O5 0.074591 0.416778 0.500000
O O6 0.103244 0.364606 0.709977
O O7 0.130929 0.440812 0.755546
O O8 0.000000 0.416153 0.750000
O O9 0.730976 0.844907 0.781441
O O10 0.654572 0.819062 0.000000
O O11 0.068533 0.840129 0.500000
O O12 0.137869 0.866886 0.273810
O O13 0.000000 0.851748 0.250000
O O14 0.282599 0.386663 0.500000
O O15 0.258876 0.421743 0.237674
O O16 0.720959 0.000000 0.750000
O O17 0.703101 0.042594 0.000000
#
# Coordination Sequence:
#
# PCOD9525660 Si02
#       6
#    16  16  16  16  16  16
#     4  10  19  30  46  70 101 138 178 216 253 295
#     4  10  20  34  51  74 105 141 180 219 257 296
#     4   9  18  31  48  70 100 138 176 214 254 294
#     4   9  19  35  54  76 103 134 168 208 255 306
#     4   9  19  37  56  75 102 134 167 207 257 307
#     4  11  22  37  57  80 104 132 167 206 253 307
#
# _framework density 17.127272000000001
#
# number of rings (size 3 to 8) (size 9 to 14) (size 15 to 20)
#    0.000    2.333    0.000    4.000    0.000    7.000 
#    0.000    1.667    0.000    0.500    0.000    3.500 
#    0.000    0.000    0.000    0.000    0.000    0.000 
#
# Total GULP energy -267912.658430 kJ/mol
# GULP energy per Si atom -5581.513717 kJ/mol
# Density = 1.708829 g / cm^3
# Si number density = 17.127272 Si / 1000 Ang^3
#
#
#
# Elastic Constant Matrix: (Units=GPa)
#
#
# Indices 1 2 3 4 5 6 
#
# 1 148.5547 85.5894 56.4106 -0.0004 -0.0003 0.0000
# 2 85.5894 74.3135 45.9522 -0.0012 0.0010 0.0002
# 3 56.4106 45.9522 61.4094 -0.0055 0.0007 -0.0008
# 4 -0.0004 -0.0012 -0.0055 21.9100 0.0011 0.0001
# 5 -0.0003 0.0010 0.0007 0.0011 26.5122 -0.0018
# 6 0.0000 0.0002 -0.0008 0.0001 -0.0018 7.9511
#
#
#
# Elastic Compliance Matrix: (Units=1/GPa)
#
#
# Indices 1 2 3 4 5 6 
#
# 1 0.020157 -0.021899 -0.002130 -0.000001 0.000001 0.000000
# 2 -0.021899 0.048836 -0.016428 -0.000002 -0.000002 -0.000003
# 3 -0.002130 -0.016428 0.030533 0.000007 0.000000 0.000004
# 4 -0.000001 -0.000002 0.000007 0.045641 -0.000002 -0.000001
# 5 0.000001 -0.000002 0.000000 -0.000002 0.037718 0.000009
# 6 0.000000 -0.000003 0.000004 -0.000001 0.000009 0.125769
#
#
# Mechanical properties :
#
#
# Convention : Reuss Voigt Hill
#
# Bulk Modulus (GPa) = 53.72176 73.35356 63.53766
# Shear Modulus (GPa) = 12.63354 17.69636 15.16495
#
# Velocity S-wave (km/s) = 2.71888 3.21787 2.97884
# Velocity P-wave (km/s) = 6.42578 7.53178 7.00066
#
# Compressibility (1/GPa) = 0.01861443
#
# Stress axis : x y z
#
# Youngs Moduli (GPa) = 49.61020 20.47664 32.75144
#
# Poissons Ratio (x) = 0.44841 0.06975
# Poissons Ratio (y) = 1.08640 0.53802
# Poissons Ratio (z) = 0.10565 0.33638
#
# Static dielectric constant tensor:
#      x y z
#    x 1.565090 0.000000 0.000000 
#    y 0.000000 1.568850 0.000000 
#    z 0.000000 0.000000 1.571480 
# 
# From -- ./inp_files/6033.got.cif
#   From: 2010.05.17/outbox.cif.g08.bks.cpg/sg72_4_cif.got.tgz:6033.got - 2010.06.03 17:03:01.
