data_PCOD9525375
_publ_section_title
;
Structure prediction by ZEFSAII (Michael W. Deem and Ramdas Pophale) SiO2 
 PCOD9525375
Probable space group: I B A M
;
_chemical_formula_sum "Si O2"
_cell_formula_units_Z 64
_cell_length_a 8.089733
_cell_length_b 22.447522
_cell_length_c 14.437341
_cell_angle_alpha 90.000000
_cell_angle_beta 90.000000
_cell_angle_gamma 90.000000
_cell_volume 2621.741135
_symmetry_space_group_name_H-M "I B A M"
_symmetry_group_IT_number 72
_symmetry_cell_setting 'orthorhombic'
loop_
_space_group_symop_operation_xyz
x,y,z
-x,-y,z
x,-y,1/2-z
-x,y,1/2-z
-x,-y,-z
x,y,-z
-x,y,1/2+z
x,-y,1/2+z
1/2+x,1/2+y,1/2+z
1/2-x,1/2-y,1/2+z
1/2+x,1/2-y,-z
1/2-x,1/2+y,-z
1/2-x,1/2-y,1/2-z
1/2+x,1/2+y,1/2-z
1/2-x,1/2+y,z
1/2+x,1/2-y,z
loop_
_atom_site_type_symbol
_atom_site_label
_atom_site_fract_x
_atom_site_fract_y
_atom_site_fract_z
Si Si1 0.760692 0.067472 0.723501
Si Si2 0.082030 0.160971 0.106821
Si Si3 0.582771 0.773464 0.850205
Si Si4 0.941348 0.395317 0.395987
O O1 0.903191 0.102599 0.668930
O O2 0.701350 0.096850 0.819916
O O3 0.601981 0.073528 0.652922
O O4 0.796029 0.000000 0.750000
O O5 0.231558 0.202561 0.144468
O O6 0.930186 0.206346 0.113760
O O7 0.110721 0.145739 0.000000
O O8 0.500000 0.775005 0.750000
O O9 0.485190 0.825554 0.902771
O O10 0.908411 0.418022 0.500000
#
# Coordination Sequence:
#
# PCOD9525375 Si02
#       4
#    16  16  16  16
#     4  10  20  33  51  79 114 157 198 243 291 345
#     4  11  22  38  60  92 123 157 196 246 303 364
#     4  11  20  36  59  87 123 155 190 245 305 362
#     4  10  18  31  52  81 114 150 191 245 303 350
#
# _framework density 24.411259000000001
#
# number of rings (size 3 to 8) (size 9 to 14) (size 15 to 20)
#    0.000    1.500    5.000    6.750    0.000    3.000 
#    0.000    0.000    0.000    0.750    0.000    1.750 
#    0.000    0.000    0.000    0.000    0.000    0.000 
#
# Total GULP energy -179037.277894 kJ/mol
# GULP energy per Si atom -5594.914934 kJ/mol
# Density = 2.435570 g / cm^3
# Si number density = 24.411259 Si / 1000 Ang^3
#
#
#
# Elastic Constant Matrix: (Units=GPa)
#
#
# Indices 1 2 3 4 5 6 
#
# 1 52.7744 30.2938 23.2606 0.0000 0.0000 0.0000
# 2 30.2938 192.5329 54.1516 0.0000 0.0000 0.0000
# 3 23.2606 54.1516 227.2581 0.0000 0.0000 0.0000
# 4 0.0000 0.0000 0.0000 -7.1142 0.0000 0.0000
# 5 0.0000 0.0000 0.0000 0.0000 7.0899 0.0000
# 6 0.0000 0.0000 0.0000 0.0000 0.0000 21.8025
#
#
#
# Elastic Compliance Matrix: (Units=1/GPa)
#
#
# Indices 1 2 3 4 5 6 
#
# 1 0.021284 -0.002933 -0.001480 0.000000 0.000000 0.000000
# 2 -0.002933 0.005971 -0.001123 0.000000 0.000000 0.000000
# 3 -0.001480 -0.001123 0.004819 0.000000 0.000000 0.000000
# 4 0.000000 0.000000 0.000000 -0.140564 0.000000 0.000000
# 5 0.000000 0.000000 0.000000 0.000000 0.141046 0.000000
# 6 0.000000 0.000000 0.000000 0.000000 0.000000 0.045866
#
#
# Mechanical properties :
#
#
# Convention : Reuss Voigt Hill
#
# Bulk Modulus (GPa) = 47.60900 76.44194 62.02547
# Shear Modulus (GPa) = 51.81636 28.67959 40.24798
#
# Velocity S-wave (km/s) = 4.61221 3.43133 4.06488
# Velocity P-wave (km/s) = 6.92160 6.86155 6.89164
#
# Compressibility (1/GPa) = 0.02100443
#
# Stress axis : x y z
#
# Youngs Moduli (GPa) = 46.98311 167.47282 207.50164
#
# Poissons Ratio (x) = 0.49116 0.30704
# Poissons Ratio (y) = 0.13779 0.23295
# Poissons Ratio (z) = 0.06952 0.18801
#
# Static dielectric constant tensor:
#      x y z
#    x 2.062040 0.000000 0.000000 
#    y 0.000000 1.942740 0.000000 
#    z 0.000000 0.000000 1.916020 
# 
# From -- ./inp_files/18619.got.cif
#   From: 2010.05.17/outbox.cif.g08.bks.cpg/sg72_10_cif.got.tgz:18619.got - 2010.06.03 17:03:01.
