data_PCOD9525798
_publ_section_title
;
Structure prediction by ZEFSAII (Michael W. Deem and Ramdas Pophale) SiO2 
 PCOD9525798
Probable space group: I B A M
;
_chemical_formula_sum "Si O2"
_cell_formula_units_Z 104
_cell_length_a 25.900706
_cell_length_b 9.009671
_cell_length_c 25.543819
_cell_angle_alpha 90.000000
_cell_angle_beta 90.000000
_cell_angle_gamma 90.000000
_cell_volume 5960.824876
_symmetry_space_group_name_H-M "I B A M"
_symmetry_group_IT_number 72
_symmetry_cell_setting 'orthorhombic'
loop_
_space_group_symop_operation_xyz
x,y,z
-x,-y,z
x,-y,1/2-z
-x,y,1/2-z
-x,-y,-z
x,y,-z
-x,y,1/2+z
x,-y,1/2+z
1/2+x,1/2+y,1/2+z
1/2-x,1/2-y,1/2+z
1/2+x,1/2-y,-z
1/2-x,1/2+y,-z
1/2-x,1/2-y,1/2-z
1/2+x,1/2+y,1/2-z
1/2-x,1/2+y,z
1/2+x,1/2-y,z
loop_
_atom_site_type_symbol
_atom_site_label
_atom_site_fract_x
_atom_site_fract_y
_atom_site_fract_z
Si Si1 0.282526 0.874987 0.593035
Si Si2 0.132562 0.256502 0.833278
Si Si3 0.132664 0.500000 0.750000
Si Si4 0.814584 0.681373 0.942666
Si Si5 0.645972 0.264784 0.669975
Si Si6 0.940246 0.985555 0.312989
Si Si7 0.720826 0.538814 0.694710
O O1 0.237518 0.774784 0.568956
O O2 0.331726 0.784390 0.613993
O O3 0.258236 0.948621 0.645694
O O4 0.299075 0.009591 0.557276
O O5 0.111663 0.388134 0.796196
O O6 0.148621 0.299222 0.892198
O O7 0.092013 0.123091 0.835330
O O8 0.185067 0.186055 0.807407
O O9 0.152291 0.630123 0.789389
O O10 0.835200 0.724761 0.000000
O O11 0.588581 0.333296 0.671042
O O12 0.682265 0.401206 0.687107
O O13 0.936114 0.000000 0.250000
O O14 0.000000 0.000000 0.327457
O O15 0.747056 0.500000 0.750000
#
# Coordination Sequence:
#
# PCOD9525798 Si02
#       7
#    16  16   8  16  16  16  16
#     4  11  22  33  52  77 108 151 189 227 267 321
#     4  10  20  34  56  81 109 145 184 231 280 322
#     4  12  18  30  55  82 112 138 178 234 269 336
#     4  11  23  38  53  77 114 154 194 226 268 326
#     4  11  20  33  51  80 114 145 185 228 266 332
#     4  10  20  39  60  79 112 151 179 221 287 353
#     4  10  19  32  48  73 113 154 180 210 268 336
#
# _framework density 17.44725
#
# number of rings (size 3 to 8) (size 9 to 14) (size 15 to 20)
#    0.000    1.385    6.154    1.385    1.077    0.615 
#    0.000    1.538    1.692    0.462    0.000    1.077 
#    0.000    0.000    0.000    0.000    0.000    0.000 
#
# Total GULP energy -289650.821328 kJ/mol
# GULP energy per Si atom -5570.208102 kJ/mol
# Density = 1.740754 g / cm^3
# Si number density = 17.447250 Si / 1000 Ang^3
#
#
#
# Elastic Constant Matrix: (Units=GPa)
#
#
# Indices 1 2 3 4 5 6 
#
# 1 73.2174 18.7596 25.8511 0.0000 0.0000 0.0000
# 2 18.7596 78.4395 20.8384 0.0000 0.0000 0.0000
# 3 25.8511 20.8384 100.1876 0.0000 0.0000 0.0000
# 4 0.0000 0.0000 0.0000 11.3743 0.0000 0.0000
# 5 0.0000 0.0000 0.0000 0.0000 2.7280 0.0000
# 6 0.0000 0.0000 0.0000 0.0000 0.0000 12.9112
#
#
#
# Elastic Compliance Matrix: (Units=1/GPa)
#
#
# Indices 1 2 3 4 5 6 
#
# 1 0.015593 -0.002816 -0.003438 0.000000 0.000000 0.000000
# 2 -0.002816 0.014003 -0.002186 0.000000 0.000000 0.000000
# 3 -0.003438 -0.002186 0.011323 0.000000 0.000000 0.000000
# 4 0.000000 0.000000 0.000000 0.087917 0.000000 0.000000
# 5 0.000000 0.000000 0.000000 0.000000 0.366573 0.000000
# 6 0.000000 0.000000 0.000000 0.000000 0.000000 0.077452
#
#
# Mechanical properties :
#
#
# Convention : Reuss Voigt Hill
#
# Bulk Modulus (GPa) = 41.59778 42.52695 42.06237
# Shear Modulus (GPa) = 8.36465 17.82906 13.09686
#
# Velocity S-wave (km/s) = 2.19195 3.20016 2.74278
# Velocity P-wave (km/s) = 5.50454 6.17108 5.84732
#
# Compressibility (1/GPa) = 0.02403975
#
# Stress axis : x y z
#
# Youngs Moduli (GPa) = 64.13027 71.41398 88.31601
#
# Poissons Ratio (x) = 0.20110 0.30361
# Poissons Ratio (y) = 0.18059 0.19305
# Poissons Ratio (z) = 0.22047 0.15610
#
# Static dielectric constant tensor:
#      x y z
#    x 1.617180 0.000000 0.000000 
#    y 0.000000 1.624480 0.000000 
#    z 0.000000 0.000000 1.616640 
# 
# From -- ./inp_files/45956.got.cif
#   From: 2010.05.17/outbox.cif.g08.bks.cpg/sg72_23_cif.got.tgz:45956.got - 2010.06.03 17:03:01.
