data_PCOD9525775
_publ_section_title
;
Structure prediction by ZEFSAII (Michael W. Deem and Ramdas Pophale) SiO2 
 PCOD9525775
Probable space group: I B A M
;
_chemical_formula_sum "Si O2"
_cell_formula_units_Z 112
_cell_length_a 12.292010
_cell_length_b 29.050685
_cell_length_c 15.045231
_cell_angle_alpha 90.000000
_cell_angle_beta 90.000000
_cell_angle_gamma 90.000000
_cell_volume 5372.521255
_symmetry_space_group_name_H-M "I B A M"
_symmetry_group_IT_number 72
_symmetry_cell_setting 'orthorhombic'
loop_
_space_group_symop_operation_xyz
x,y,z
-x,-y,z
x,-y,1/2-z
-x,y,1/2-z
-x,-y,-z
x,y,-z
-x,y,1/2+z
x,-y,1/2+z
1/2+x,1/2+y,1/2+z
1/2-x,1/2-y,1/2+z
1/2+x,1/2-y,-z
1/2-x,1/2+y,-z
1/2-x,1/2-y,1/2-z
1/2+x,1/2+y,1/2-z
1/2-x,1/2+y,z
1/2+x,1/2-y,z
loop_
_atom_site_type_symbol
_atom_site_label
_atom_site_fract_x
_atom_site_fract_y
_atom_site_fract_z
Si Si1 0.659296 0.764192 0.893930
Si Si2 0.095293 0.164833 0.607842
Si Si3 0.710947 0.896560 0.652478
Si Si4 0.003696 0.342288 0.856631
Si Si5 0.352096 0.327383 0.398362
Si Si6 0.307003 0.906122 0.365593
Si Si7 0.873764 0.495622 0.358323
O O1 0.650171 0.712444 0.860691
O O2 0.547775 0.793071 0.880414
O O3 0.762170 0.792953 0.856961
O O4 0.673220 0.762127 0.000000
O O5 0.093430 0.164598 0.500000
O O6 0.168767 0.121862 0.635210
O O7 0.971229 0.166880 0.641329
O O8 0.624328 0.858363 0.617793
O O9 0.697161 0.901622 0.758595
O O10 0.677702 0.946745 0.616175
O O11 0.918045 0.380016 0.892497
O O12 0.000000 0.344407 0.750000
O O13 0.369114 0.311461 0.500000
O O14 0.292752 0.376489 0.400166
O O15 0.311422 0.959189 0.391183
O O16 0.873105 0.500000 0.250000
O O17 0.000000 0.500000 0.384966
#
# Coordination Sequence:
#
# PCOD9525775 Si02
#       7
#    16  16  16  16  16  16  16
#     4   9  19  35  55  73  96 141 187 215 253 315
#     4  10  22  37  52  73 104 140 178 219 263 308
#     4  10  19  31  53  83 110 132 168 221 266 307
#     4   9  17  31  50  81 111 130 165 214 265 312
#     4   9  19  37  54  70 100 141 181 214 255 316
#     4   9  17  33  55  79 105 136 172 210 260 320
#     4   9  15  29  55  82 107 137 169 209 266 322
#
# _framework density 20.846823000000001
#
# number of rings (size 3 to 8) (size 9 to 14) (size 15 to 20)
#    0.000    2.714    1.429    0.000    2.000    1.143 
#    2.571    3.571    0.000    5.143    0.000    0.000 
#    0.000    0.000    0.000    0.000    0.000    0.000 
#
# Total GULP energy -312412.717437 kJ/mol
# GULP energy per Si atom -5578.798526 kJ/mol
# Density = 2.079937 g / cm^3
# Si number density = 20.846823 Si / 1000 Ang^3
#
#
#
# Elastic Constant Matrix: (Units=GPa)
#
#
# Indices 1 2 3 4 5 6 
#
# 1 137.2403 65.0503 5.0961 0.0000 0.0000 0.0000
# 2 65.0503 125.1368 1.8421 0.0001 -0.0001 0.0000
# 3 5.0961 1.8421 42.8096 0.0008 -0.0002 -0.0001
# 4 0.0000 0.0001 0.0008 11.2404 -0.0001 0.0000
# 5 0.0000 -0.0001 -0.0002 -0.0001 16.1767 0.0000
# 6 0.0000 0.0000 -0.0001 0.0000 0.0000 15.9858
#
#
#
# Elastic Compliance Matrix: (Units=1/GPa)
#
#
# Indices 1 2 3 4 5 6 
#
# 1 0.009706 -0.005032 -0.000939 0.000000 0.000000 0.000000
# 2 -0.005032 0.010605 0.000143 0.000000 0.000000 0.000000
# 3 -0.000939 0.000143 0.023465 -0.000002 0.000000 0.000000
# 4 0.000000 0.000000 -0.000002 0.088965 0.000000 0.000000
# 5 0.000000 0.000000 0.000000 0.000000 0.061817 0.000000
# 6 0.000000 0.000000 0.000000 0.000000 0.000000 0.062555
#
#
# Mechanical properties :
#
#
# Convention : Reuss Voigt Hill
#
# Bulk Modulus (GPa) = 31.13339 49.90709 40.52024
# Shear Modulus (GPa) = 17.89061 24.22716 21.05888
#
# Velocity S-wave (km/s) = 2.93267 3.41273 3.18177
# Velocity P-wave (km/s) = 5.14142 6.28656 5.74261
#
# Compressibility (1/GPa) = 0.03211985
#
# Stress axis : x y z
#
# Youngs Moduli (GPa) = 103.02468 94.29606 42.61691
#
# Poissons Ratio (x) = 0.47449 0.04002
# Poissons Ratio (y) = 0.51841 -0.00608
# Poissons Ratio (z) = 0.09674 -0.01345
#
# Static dielectric constant tensor:
#      x y z
#    x 1.741690 0.000000 0.000000 
#    y 0.000000 1.738560 0.000000 
#    z 0.000000 0.000000 1.814620 
# 
# From -- ./inp_files/37291.got.cif
#   From: 2010.05.17/outbox.cif.g08.bks.cpg/sg72_19_cif.got.tgz:37291.got - 2010.06.03 17:03:01.
