data_PCOD9525544
_publ_section_title
;
Structure prediction by ZEFSAII (Michael W. Deem and Ramdas Pophale) SiO2 
 PCOD9525544
Probable space group: I B A M
;
_chemical_formula_sum "Si O2"
_cell_formula_units_Z 104
_cell_length_a 8.228737
_cell_length_b 27.694362
_cell_length_c 23.140029
_cell_angle_alpha 90.000000
_cell_angle_beta 90.000000
_cell_angle_gamma 90.000000
_cell_volume 5273.372445
_symmetry_space_group_name_H-M "I B A M"
_symmetry_group_IT_number 72
_symmetry_cell_setting 'orthorhombic'
loop_
_space_group_symop_operation_xyz
x,y,z
-x,-y,z
x,-y,1/2-z
-x,y,1/2-z
-x,-y,-z
x,y,-z
-x,y,1/2+z
x,-y,1/2+z
1/2+x,1/2+y,1/2+z
1/2-x,1/2-y,1/2+z
1/2+x,1/2-y,-z
1/2-x,1/2+y,-z
1/2-x,1/2-y,1/2-z
1/2+x,1/2+y,1/2-z
1/2-x,1/2+y,z
1/2+x,1/2-y,z
loop_
_atom_site_type_symbol
_atom_site_label
_atom_site_fract_x
_atom_site_fract_y
_atom_site_fract_z
Si Si1 0.045803 0.102682 0.500000
Si Si2 0.647011 0.589416 0.874788
Si Si3 0.823263 0.296794 0.129096
Si Si4 0.650911 0.826079 0.500000
Si Si5 0.684910 0.949351 0.271528
Si Si6 0.205609 0.338881 0.500000
Si Si7 0.687392 0.805034 0.375431
Si Si8 0.618864 0.629883 0.296637
O O1 0.092296 0.076420 0.439801
O O2 0.179363 0.145708 0.500000
O O3 0.861762 0.124770 0.500000
O O4 0.776081 0.556996 0.839678
O O5 0.721348 0.643947 0.873540
O O6 0.485834 0.593838 0.836376
O O7 0.792096 0.309448 0.060820
O O8 0.788393 0.241060 0.143758
O O9 0.703745 0.331197 0.163924
O O10 0.006472 0.308924 0.149092
O O11 0.484258 0.858124 0.500000
O O12 0.649763 0.794942 0.442860
O O13 0.500000 0.949699 0.250000
O O14 0.761889 0.903269 0.240294
O O15 0.758573 0.000000 0.250000
O O16 0.500000 0.654000 0.250000
#
# Coordination Sequence:
#
# PCOD9525544 Si02
#       8
#     8  16  16   8  16   8  16  16
#     4  10  18  34  60  83 128 157 195 252 299 368
#     4  10  20  37  59  89 119 157 199 247 310 356
#     4  11  20  33  50  78 112 158 198 241 290 347
#     4   8  19  31  46  82 110 161 207 241 277 349
#     4  10  22  42  68  90 112 148 197 255 309 372
#     4  10  19  31  54  77 115 161 204 240 297 343
#     4  10  20  32  51  77 118 153 198 242 285 346
#     4  10  21  36  56  81 110 145 194 240 291 357
#
# _framework density 19.721726
#
# number of rings (size 3 to 8) (size 9 to 14) (size 15 to 20)
#    0.000    2.000    1.538    2.308    2.154    2.769 
#    0.000    7.692    0.000    4.615    0.000    0.000 
#    0.000    0.000    0.000    0.000    0.000    0.000 
#
# Total GULP energy -289570.117202 kJ/mol
# GULP energy per Si atom -5568.656100 kJ/mol
# Density = 1.967684 g / cm^3
# Si number density = 19.721726 Si / 1000 Ang^3
#
#
#
# Elastic Constant Matrix: (Units=GPa)
#
#
# Indices 1 2 3 4 5 6 
#
# 1 75.4058 -5.4756 7.2899 0.0000 0.0000 0.0000
# 2 -5.4756 43.0093 6.8320 0.0000 0.0000 0.0000
# 3 7.2899 6.8320 81.9374 0.0000 0.0000 0.0000
# 4 0.0000 0.0000 0.0000 8.0871 0.0000 0.0000
# 5 0.0000 0.0000 0.0000 0.0000 22.8903 0.0000
# 6 0.0000 0.0000 0.0000 0.0000 0.0000 -3.7270
#
#
#
# Elastic Compliance Matrix: (Units=1/GPa)
#
#
# Indices 1 2 3 4 5 6 
#
# 1 0.013535 0.001940 -0.001366 0.000000 0.000000 0.000000
# 2 0.001940 0.023841 -0.002160 0.000000 0.000000 0.000000
# 3 -0.001366 -0.002160 0.012506 0.000000 0.000000 0.000000
# 4 0.000000 0.000000 0.000000 0.123654 0.000000 0.000000
# 5 0.000000 0.000000 0.000000 0.000000 0.043687 0.000000
# 6 0.000000 0.000000 0.000000 0.000000 0.000000 -0.268313
#
#
# Mechanical properties :
#
#
# Convention : Reuss Voigt Hill
#
# Bulk Modulus (GPa) = 21.40917 24.18279 22.79598
# Shear Modulus (GPa) = -154.56896 18.23050 -68.16923
#
# Velocity S-wave (km/s) = -8.86257 3.04367 -5.88563
# Velocity P-wave (km/s) = 9.68750 4.96392 5.88248
#
# Compressibility (1/GPa) = 0.04670895
#
# Stress axis : x y z
#
# Youngs Moduli (GPa) = 73.88520 41.94460 79.96094
#
# Poissons Ratio (x) = -0.08138 0.10922
# Poissons Ratio (y) = -0.14334 0.17275
# Poissons Ratio (z) = 0.10092 0.09062
#
# Static dielectric constant tensor:
#      x y z
#    x 1.745630 0.000000 0.000000 
#    y 0.000000 1.661000 0.000000 
#    z 0.000000 0.000000 1.754930 
# 
# From -- ./inp_files/42662.got.cif
#   From: 2010.05.17/outbox.cif.g08.bks.cpg/sg72_22_cif.got.tgz:42662.got - 2010.06.03 17:03:01.
