data_PCOD9525472
_publ_section_title
;
Structure prediction by ZEFSAII (Michael W. Deem and Ramdas Pophale) SiO2 
 PCOD9525472
Probable space group: I B A M
;
_chemical_formula_sum "Si O2"
_cell_formula_units_Z 96
_cell_length_a 14.665058
_cell_length_b 14.770053
_cell_length_c 20.285271
_cell_angle_alpha 90.000000
_cell_angle_beta 90.000000
_cell_angle_gamma 90.000000
_cell_volume 4393.864428
_symmetry_space_group_name_H-M "I B A M"
_symmetry_group_IT_number 72
_symmetry_cell_setting 'orthorhombic'
loop_
_space_group_symop_operation_xyz
x,y,z
-x,-y,z
x,-y,1/2-z
-x,y,1/2-z
-x,-y,-z
x,y,-z
-x,y,1/2+z
x,-y,1/2+z
1/2+x,1/2+y,1/2+z
1/2-x,1/2-y,1/2+z
1/2+x,1/2-y,-z
1/2-x,1/2+y,-z
1/2-x,1/2-y,1/2-z
1/2+x,1/2+y,1/2-z
1/2-x,1/2+y,z
1/2+x,1/2-y,z
loop_
_atom_site_type_symbol
_atom_site_label
_atom_site_fract_x
_atom_site_fract_y
_atom_site_fract_z
Si Si1 0.160562 0.461078 0.320047
Si Si2 0.884609 0.145352 0.121276
Si Si3 0.940660 0.234132 0.629178
Si Si4 0.357266 0.229403 0.764962
Si Si5 0.379817 0.463216 0.322272
Si Si6 0.820814 0.613761 0.925260
O O1 0.128197 0.500000 0.250000
O O2 0.133637 0.355486 0.314990
O O3 0.270265 0.460475 0.319595
O O4 0.141291 0.532661 0.378313
O O5 0.885785 0.181144 0.196604
O O6 0.781283 0.146216 0.095546
O O7 0.962445 0.211724 0.094597
O O8 0.907872 0.040209 0.125586
O O9 0.918588 0.283925 0.699982
O O10 0.908817 0.134062 0.651293
O O11 0.881830 0.296804 0.581847
O O12 0.250000 0.250000 0.750000
O O13 0.407315 0.500000 0.250000
O O14 0.817683 0.580916 0.000000
#
# Coordination Sequence:
#
# PCOD9525472 Si02
#       6
#    16  16  16  16  16  16
#     4  10  18  36  65  89 127 172 222 287 341 400
#     4  11  23  37  60  96 138 172 219 277 342 419
#     4  12  22  37  64  99 135 177 222 279 345 412
#     4  12  18  36  64  98 130 168 215 278 346 406
#     4  10  18  32  58  99 138 167 199 262 345 415
#     4  11  25  45  66  93 133 185 236 286 352 424
#
# _framework density 21.848649000000002
#
# number of rings (size 3 to 8) (size 9 to 14) (size 15 to 20)
#    0.000    1.000    6.667    2.000    0.000    1.333 
#    0.000    8.333    0.000    6.000    0.000    0.000 
#    0.000    0.000    0.000    0.000    0.000    0.000 
#
# Total GULP energy -267326.248070 kJ/mol
# GULP energy per Si atom -5569.296835 kJ/mol
# Density = 2.179892 g / cm^3
# Si number density = 21.848649 Si / 1000 Ang^3
#
#
#
# Elastic Constant Matrix: (Units=GPa)
#
#
# Indices 1 2 3 4 5 6 
#
# 1 53.1926 45.7929 1.8649 0.0000 0.0000 0.0000
# 2 45.7929 155.4776 31.4277 0.0000 0.0000 0.0000
# 3 1.8649 31.4277 87.2864 0.0000 0.0000 0.0000
# 4 0.0000 0.0000 0.0000 20.3534 0.0000 0.0000
# 5 0.0000 0.0000 0.0000 0.0000 -2.0783 0.0000
# 6 0.0000 0.0000 0.0000 0.0000 0.0000 28.7549
#
#
#
# Elastic Compliance Matrix: (Units=1/GPa)
#
#
# Indices 1 2 3 4 5 6 
#
# 1 0.025621 -0.008019 0.002340 0.000000 0.000000 0.000000
# 2 -0.008019 0.009447 -0.003230 0.000000 0.000000 0.000000
# 3 0.002340 -0.003230 0.012569 0.000000 0.000000 0.000000
# 4 0.000000 0.000000 0.000000 0.049132 0.000000 0.000000
# 5 0.000000 0.000000 0.000000 0.000000 -0.481156 0.000000
# 6 0.000000 0.000000 0.000000 0.000000 0.000000 0.034777
#
#
# Mechanical properties :
#
#
# Convention : Reuss Voigt Hill
#
# Bulk Modulus (GPa) = 33.53583 50.45862 41.99723
# Shear Modulus (GPa) = -15.53509 23.86406 4.16448
#
# Velocity S-wave (km/s) = -2.66941 3.30850 1.38210
# Velocity P-wave (km/s) = 2.42517 6.14326 4.67018
#
# Compressibility (1/GPa) = 0.02981885
#
# Stress axis : x y z
#
# Youngs Moduli (GPa) = 39.03012 105.85843 79.55778
#
# Poissons Ratio (x) = 0.84890 -0.18616
# Poissons Ratio (y) = 0.31299 0.25697
# Poissons Ratio (z) = -0.09133 0.34191
#
# Static dielectric constant tensor:
#      x y z
#    x 1.940650 0.000000 0.000000 
#    y 0.000000 1.831050 0.000000 
#    z 0.000000 0.000000 1.846600 
# 
# From -- ./inp_files/38026.got.cif
#   From: 2010.05.17/outbox.cif.g08.bks.cpg/sg72_20_cif.got.tgz:38026.got - 2010.06.03 17:03:01.
