data_PCOD9525506
_publ_section_title
;
Structure prediction by ZEFSAII (Michael W. Deem and Ramdas Pophale) SiO2 
 PCOD9525506
Probable space group: I B A M
;
_chemical_formula_sum "Si O2"
_cell_formula_units_Z 68
_cell_length_a 7.047230
_cell_length_b 16.237477
_cell_length_c 28.940296
_cell_angle_alpha 90.000000
_cell_angle_beta 90.000000
_cell_angle_gamma 90.000000
_cell_volume 3311.615933
_symmetry_space_group_name_H-M "I B A M"
_symmetry_group_IT_number 72
_symmetry_cell_setting 'orthorhombic'
loop_
_space_group_symop_operation_xyz
x,y,z
-x,-y,z
x,-y,1/2-z
-x,y,1/2-z
-x,-y,-z
x,y,-z
-x,y,1/2+z
x,-y,1/2+z
1/2+x,1/2+y,1/2+z
1/2-x,1/2-y,1/2+z
1/2+x,1/2-y,-z
1/2-x,1/2+y,-z
1/2-x,1/2-y,1/2-z
1/2+x,1/2+y,1/2-z
1/2-x,1/2+y,z
1/2+x,1/2-y,z
loop_
_atom_site_type_symbol
_atom_site_label
_atom_site_fract_x
_atom_site_fract_y
_atom_site_fract_z
Si Si1 0.615464 0.821172 0.500000
Si Si2 0.047020 0.873103 0.399722
Si Si3 0.500000 0.000000 0.250000
Si Si4 0.052440 0.871308 0.500000
Si Si5 0.113734 0.319920 0.101384
Si Si6 0.633493 0.927410 0.839614
O O1 0.634030 0.721885 0.500000
O O2 0.531863 0.843243 0.550191
O O3 0.826199 0.857258 0.500000
O O4 0.096036 0.909436 0.450411
O O5 0.124327 0.778886 0.398721
O O6 0.158773 0.923090 0.361000
O O7 0.821367 0.860964 0.394091
O O8 0.376711 0.055353 0.214941
O O9 0.980084 0.347897 0.142902
O O10 0.500000 0.000000 0.859991
#
# Coordination Sequence:
#
# PCOD9525506 Si02
#       6
#     8  16   4   8  16  16
#     4   8  16  26  46  85 123 148 178 219 265 332
#     4  10  18  33  59  89 118 151 188 226 274 334
#     4   8  24  48  58  74 116 142 194 252 310 334
#     4   8  16  26  46  85 123 148 178 219 265 332
#     4  10  18  33  59  89 118 151 188 226 274 334
#     4  10  22  41  60  78 114 150 189 246 294 345
#
# _framework density 20.533781000000001
#
# number of rings (size 3 to 8) (size 9 to 14) (size 15 to 20)
#    0.706    1.882    2.353    0.000    3.294    0.941 
#    0.000    5.882    0.000    4.235    0.000    0.000 
#    0.000    0.000    0.000    0.000    0.000    0.000 
#
# Total GULP energy -189344.166490 kJ/mol
# GULP energy per Si atom -5568.946073 kJ/mol
# Density = 2.048705 g / cm^3
# Si number density = 20.533781 Si / 1000 Ang^3
#
#
#
# Elastic Constant Matrix: (Units=GPa)
#
#
# Indices 1 2 3 4 5 6 
#
# 1 92.2814 9.7825 45.6388 0.0000 0.0000 0.0000
# 2 9.7825 43.1238 28.0444 0.0000 0.0000 0.0000
# 3 45.6388 28.0444 171.0383 0.0000 0.0000 0.0000
# 4 0.0000 0.0000 0.0000 34.9859 0.0000 0.0000
# 5 0.0000 0.0000 0.0000 0.0000 -192.3327 0.0000
# 6 0.0000 0.0000 0.0000 0.0000 0.0000 27.9246
#
#
#
# Elastic Compliance Matrix: (Units=1/GPa)
#
#
# Indices 1 2 3 4 5 6 
#
# 1 0.012505 -0.000746 -0.003214 0.000000 0.000000 0.000000
# 2 -0.000746 0.026001 -0.004064 0.000000 0.000000 0.000000
# 3 -0.003214 -0.004064 0.007371 0.000000 0.000000 0.000000
# 4 0.000000 0.000000 0.000000 0.028583 0.000000 0.000000
# 5 0.000000 0.000000 0.000000 0.000000 -0.005199 0.000000
# 6 0.000000 0.000000 0.000000 0.000000 0.000000 0.035811
#
#
# Mechanical properties :
#
#
# Convention : Reuss Voigt Hill
#
# Bulk Modulus (GPa) = 33.52614 52.59721 43.06167
# Shear Modulus (GPa) = 38.14921 -11.01927 13.56497
#
# Velocity S-wave (km/s) = 4.31498 -2.31906 2.57304
# Velocity P-wave (km/s) = 6.41780 4.30114 5.46297
#
# Compressibility (1/GPa) = 0.02982748
#
# Stress axis : x y z
#
# Youngs Moduli (GPa) = 79.96614 38.45945 135.67123
#
# Poissons Ratio (x) = 0.02870 0.43611
# Poissons Ratio (y) = 0.05968 0.55139
# Poissons Ratio (z) = 0.25705 0.15631
#
# Static dielectric constant tensor:
#      x y z
#    x 1.783570 0.000000 0.000000 
#    y 0.000000 1.785100 0.000000 
#    z 0.000000 0.000000 1.732840 
# 
# From -- ./inp_files/50749.got.cif
#   From: 2010.05.17/outbox.cif.g08.bks.cpg/sg72_26_cif.got.tgz:50749.got - 2010.06.03 17:03:01.
