data_PCOD9525558
_publ_section_title
;
Structure prediction by ZEFSAII (Michael W. Deem and Ramdas Pophale) SiO2 
 PCOD9525558
Probable space group: I B A M
;
_chemical_formula_sum "Si O2"
_cell_formula_units_Z 112
_cell_length_a 14.984854
_cell_length_b 14.488876
_cell_length_c 28.719458
_cell_angle_alpha 90.000000
_cell_angle_beta 90.000000
_cell_angle_gamma 90.000000
_cell_volume 6235.387544
_symmetry_space_group_name_H-M "I B A M"
_symmetry_group_IT_number 72
_symmetry_cell_setting 'orthorhombic'
loop_
_space_group_symop_operation_xyz
x,y,z
-x,-y,z
x,-y,1/2-z
-x,y,1/2-z
-x,-y,-z
x,y,-z
-x,y,1/2+z
x,-y,1/2+z
1/2+x,1/2+y,1/2+z
1/2-x,1/2-y,1/2+z
1/2+x,1/2-y,-z
1/2-x,1/2+y,-z
1/2-x,1/2-y,1/2-z
1/2+x,1/2+y,1/2-z
1/2-x,1/2+y,z
1/2+x,1/2-y,z
loop_
_atom_site_type_symbol
_atom_site_label
_atom_site_fract_x
_atom_site_fract_y
_atom_site_fract_z
Si Si1 0.393985 0.483064 0.051316
Si Si2 0.242346 0.743234 0.872556
Si Si3 0.182602 0.397661 0.696666
Si Si4 0.997505 0.722725 0.697180
Si Si5 0.435791 0.311663 0.894018
Si Si6 0.381187 0.306644 0.554158
Si Si7 0.684778 0.115035 0.804177
O O1 0.500000 0.500000 0.047433
O O2 0.389464 0.408196 0.091789
O O3 0.355892 0.584714 0.060052
O O4 0.363186 0.449541 0.000000
O O5 0.246999 0.654487 0.839118
O O6 0.145740 0.740690 0.896565
O O7 0.318316 0.748305 0.910969
O O8 0.248636 0.830294 0.837742
O O9 0.176188 0.506125 0.686361
O O10 0.212552 0.380161 0.749917
O O11 0.084931 0.349577 0.694297
O O12 0.089792 0.667403 0.689857
O O13 0.000000 0.760185 0.750000
O O14 0.978861 0.798116 0.657147
O O15 0.516380 0.295791 0.929846
O O16 0.371186 0.283396 0.500000
#
# Coordination Sequence:
#
# PCOD9525558 Si02
#       7
#    16  16  16  16  16  16  16
#     4   8  16  32  55  75  99 139 186 226 266 322
#     4  11  22  33  57  85 111 141 183 230 277 324
#     4   9  20  33  55  82 112 146 186 220 267 329
#     4   9  17  32  54  82 109 144 186 223 266 327
#     4  10  19  34  54  82 108 143 179 232 274 323
#     4  10  21  38  57  78 106 144 187 232 276 325
#     4  10  18  35  55  80 113 149 179 224 272 324
#
# _framework density 17.961995000000002
#
# number of rings (size 3 to 8) (size 9 to 14) (size 15 to 20)
#    0.000    2.429    1.429    2.143    2.000    2.857 
#    0.000    0.000    0.000    3.857    0.000    2.000 
#    0.000    0.000    0.000    0.000    0.000    0.000 
#
# Total GULP energy -311813.551775 kJ/mol
# GULP energy per Si atom -5568.099139 kJ/mol
# Density = 1.792111 g / cm^3
# Si number density = 17.961995 Si / 1000 Ang^3
#
#
#
# Elastic Constant Matrix: (Units=GPa)
#
#
# Indices 1 2 3 4 5 6 
#
# 1 47.5089 -1.4017 27.9051 0.0000 0.0000 0.0000
# 2 -1.4017 61.2903 54.5757 0.0000 0.0000 0.0000
# 3 27.9051 54.5757 107.7235 0.0000 0.0000 0.0000
# 4 0.0000 0.0000 0.0000 24.6171 0.0000 0.0000
# 5 0.0000 0.0000 0.0000 0.0000 18.4185 0.0000
# 6 0.0000 0.0000 0.0000 0.0000 0.0000 14.7988
#
#
#
# Elastic Compliance Matrix: (Units=1/GPa)
#
#
# Indices 1 2 3 4 5 6 
#
# 1 0.030209 0.013954 -0.014895 0.000000 0.000000 0.000000
# 2 0.013954 0.036171 -0.021940 0.000000 0.000000 0.000000
# 3 -0.014895 -0.021940 0.024257 0.000000 0.000000 0.000000
# 4 0.000000 0.000000 0.000000 0.040622 0.000000 0.000000
# 5 0.000000 0.000000 0.000000 0.000000 0.054293 0.000000
# 6 0.000000 0.000000 0.000000 0.000000 0.000000 0.067573
#
#
# Mechanical properties :
#
#
# Convention : Reuss Voigt Hill
#
# Bulk Modulus (GPa) = 22.28389 42.07565 32.17977
# Shear Modulus (GPa) = 15.93134 20.59645 18.26390
#
# Velocity S-wave (km/s) = 2.98140 3.38992 3.19220
# Velocity P-wave (km/s) = 4.92795 6.22879 5.61616
#
# Compressibility (1/GPa) = 0.04487548
#
# Stress axis : x y z
#
# Youngs Moduli (GPa) = 33.10246 27.64611 41.22524
#
# Poissons Ratio (x) = -0.38578 0.61405
# Poissons Ratio (y) = -0.46192 0.90449
# Poissons Ratio (z) = 0.49306 0.60656
#
# Static dielectric constant tensor:
#      x y z
#    x 1.623980 0.000000 0.000000 
#    y 0.000000 1.638630 0.000000 
#    z 0.000000 0.000000 1.643460 
# 
# From -- ./inp_files/48726.got.cif
#   From: 2010.05.17/outbox.cif.g08.bks.cpg/sg72_25_cif.got.tgz:48726.got - 2010.06.03 17:03:01.
