data_PCOD9525303
_publ_section_title
;
Structure prediction by ZEFSAII (Michael W. Deem and Ramdas Pophale) SiO2 
 PCOD9525303
Probable space group: I B A M
;
_chemical_formula_sum "Si O2"
_cell_formula_units_Z 88
_cell_length_a 5.466080
_cell_length_b 18.485933
_cell_length_c 35.762852
_cell_angle_alpha 90.000000
_cell_angle_beta 90.000000
_cell_angle_gamma 90.000000
_cell_volume 3613.678432
_symmetry_space_group_name_H-M "I B A M"
_symmetry_group_IT_number 72
_symmetry_cell_setting 'orthorhombic'
loop_
_space_group_symop_operation_xyz
x,y,z
-x,-y,z
x,-y,1/2-z
-x,y,1/2-z
-x,-y,-z
x,y,-z
-x,y,1/2+z
x,-y,1/2+z
1/2+x,1/2+y,1/2+z
1/2-x,1/2-y,1/2+z
1/2+x,1/2-y,-z
1/2-x,1/2+y,-z
1/2-x,1/2-y,1/2-z
1/2+x,1/2+y,1/2-z
1/2-x,1/2+y,z
1/2+x,1/2-y,z
loop_
_atom_site_type_symbol
_atom_site_label
_atom_site_fract_x
_atom_site_fract_y
_atom_site_fract_z
Si Si1 0.244659 0.952770 0.500000
Si Si2 0.866046 0.837621 0.210603
Si Si3 0.855421 0.324983 0.682298
Si Si4 0.567331 0.370172 0.072953
Si Si5 0.555303 0.158338 0.097549
Si Si6 0.000000 0.000000 0.867380
Si Si7 0.500000 0.000000 0.368967
O O1 0.196678 0.904722 0.536690
O O2 0.500000 0.000000 0.500000
O O3 0.000000 0.000000 0.500000
O O4 0.832790 0.751049 0.204196
O O5 0.085853 0.860085 0.183116
O O6 0.000000 0.852048 0.250000
O O7 0.591869 0.863987 0.200785
O O8 0.903558 0.310574 0.638899
O O9 0.292051 0.338222 0.070476
O O10 0.523979 0.432087 0.104244
O O11 0.783450 0.316882 0.085939
O O12 0.519013 0.071517 0.105660
O O13 0.252783 0.000441 0.845936
#
# Coordination Sequence:
#
# PCOD9525303 Si02
#       7
#     8  16  16  16  16   8   8
#     4  12  22  30  48  68  92 136 182 216 268 308
#     4  10  19  33  53  81 107 123 152 204 253 319
#     4  10  18  30  50  75 103 133 159 190 256 312
#     4  10  19  30  42  64  94 125 173 211 249 290
#     4  10  19  31  46  67  99 134 167 208 242 300
#     4   8  14  25  40  54  80 116 153 198 232 274
#     4   8  16  26  40  59  87 126 158 190 228 270
#
# _framework density 24.35192
#
# number of rings (size 3 to 8) (size 9 to 14) (size 15 to 20)
#    0.000    2.182    0.909    4.909    5.091    0.000 
#    0.000    0.000    0.000    0.000    0.000    7.000 
#    0.000   58.182    0.000    0.000    0.000    0.000 
#
# Total GULP energy -245045.898616 kJ/mol
# GULP energy per Si atom -5569.224969 kJ/mol
# Density = 2.429649 g / cm^3
# Si number density = 24.351920 Si / 1000 Ang^3
#
#
#
# Elastic Constant Matrix: (Units=GPa)
#
#
# Indices 1 2 3 4 5 6 
#
# 1 276.9105 -5.9484 8.9755 0.0000 0.0000 0.0000
# 2 -5.9484 73.0921 -2.5924 0.0000 0.0000 0.0000
# 3 8.9755 -2.5924 82.9553 0.0000 0.0000 0.0000
# 4 0.0000 0.0000 0.0000 -260.8627 0.0000 0.0000
# 5 0.0000 0.0000 0.0000 0.0000 32.8356 0.0000
# 6 0.0000 0.0000 0.0000 0.0000 0.0000 -8.7246
#
#
#
# Elastic Compliance Matrix: (Units=1/GPa)
#
#
# Indices 1 2 3 4 5 6 
#
# 1 0.003630 0.000282 -0.000384 0.000000 0.000000 0.000000
# 2 0.000282 0.013718 0.000398 0.000000 0.000000 0.000000
# 3 -0.000384 0.000398 0.012109 0.000000 0.000000 0.000000
# 4 0.000000 0.000000 0.000000 -0.003833 0.000000 0.000000
# 5 0.000000 0.000000 0.000000 0.000000 0.030455 0.000000
# 6 0.000000 0.000000 0.000000 0.000000 0.000000 -0.114619
#
#
# Mechanical properties :
#
#
# Convention : Reuss Voigt Hill
#
# Bulk Modulus (GPa) = 33.27897 48.20305 40.74101
# Shear Modulus (GPa) = -101.79877 -18.51547 -60.15712
#
# Velocity S-wave (km/s) = -6.47255 -2.76040 -4.97563
# Velocity P-wave (km/s) = 6.49331 3.11088 4.03023
#
# Compressibility (1/GPa) = 0.03004901
#
# Stress axis : x y z
#
# Youngs Moduli (GPa) = 275.49937 72.89467 82.58547
#
# Poissons Ratio (x) = -0.02054 0.03171
# Poissons Ratio (y) = -0.07763 -0.03289
# Poissons Ratio (z) = 0.10577 -0.02903
#
# Static dielectric constant tensor:
#      x y z
#    x 2.187220 0.000000 0.000000 
#    y 0.000000 2.172520 0.000000 
#    z 0.000000 0.000000 1.903580 
# 
# From -- ./inp_files/50385.got.cif
#   From: 2010.05.17/outbox.cif.g08.bks.cpg/sg72_26_cif.got.tgz:50385.got - 2010.06.03 17:03:01.
