data_PCOD9525242
_publ_section_title
;
Structure prediction by ZEFSAII (Michael W. Deem and Ramdas Pophale) SiO2 
 PCOD9525242
Probable space group: I B A M
;
_chemical_formula_sum "Si O2"
_cell_formula_units_Z 64
_cell_length_a 5.373505
_cell_length_b 13.752666
_cell_length_c 31.755599
_cell_angle_alpha 90.000000
_cell_angle_beta 90.000000
_cell_angle_gamma 90.000000
_cell_volume 2346.739386
_symmetry_space_group_name_H-M "I B A M"
_symmetry_group_IT_number 72
_symmetry_cell_setting 'orthorhombic'
loop_
_space_group_symop_operation_xyz
x,y,z
-x,-y,z
x,-y,1/2-z
-x,y,1/2-z
-x,-y,-z
x,y,-z
-x,y,1/2+z
x,-y,1/2+z
1/2+x,1/2+y,1/2+z
1/2-x,1/2-y,1/2+z
1/2+x,1/2-y,-z
1/2-x,1/2+y,-z
1/2-x,1/2-y,1/2-z
1/2+x,1/2+y,1/2-z
1/2-x,1/2+y,z
1/2+x,1/2-y,z
loop_
_atom_site_type_symbol
_atom_site_label
_atom_site_fract_x
_atom_site_fract_y
_atom_site_fract_z
Si Si1 0.696182 0.610493 0.548120
Si Si2 0.932341 0.634657 0.330220
Si Si3 0.807331 0.390357 0.579620
Si Si4 0.073738 0.144706 0.298415
O O1 0.608514 0.611293 0.500000
O O2 0.751050 0.500258 0.563992
O O3 0.473011 0.651349 0.577154
O O4 0.975936 0.652783 0.550045
O O5 0.058658 0.616252 0.375305
O O6 0.895073 0.748933 0.319662
O O7 0.152092 0.599757 0.299695
O O8 0.655094 0.595043 0.323063
O O9 0.000000 0.156346 0.250000
#
# Coordination Sequence:
#
# PCOD9525242 Si02
#       4
#    16  16  16  16
#     4  10  19  33  50  73  97 126 164 204 241 291
#     4  10  18  29  48  75  99 125 157 203 248 282
#     4  10  18  29  48  75  99 122 158 205 247 283
#     4  10  19  33  50  73 100 127 163 202 238 292
#
# _framework density 27.271879999999999
#
# number of rings (size 3 to 8) (size 9 to 14) (size 15 to 20)
#    0.000    2.000    0.000    9.000    0.000    0.000 
#    0.000    0.000    0.000    0.000    0.000  203.000 
#    0.000    0.000    0.000    0.000    0.000    0.000 
#
# Total GULP energy -178778.709885 kJ/mol
# GULP energy per Si atom -5586.834684 kJ/mol
# Density = 2.720981 g / cm^3
# Si number density = 27.271880 Si / 1000 Ang^3
#
#
#
# Elastic Constant Matrix: (Units=GPa)
#
#
# Indices 1 2 3 4 5 6 
#
# 1 299.9273 0.5688 31.5227 0.0000 0.0000 0.0000
# 2 0.5688 109.2623 -12.4746 0.0000 0.0000 0.0000
# 3 31.5227 -12.4746 154.3977 0.0001 0.0000 0.0000
# 4 0.0000 0.0000 0.0001 -876.4389 0.0000 0.0000
# 5 0.0000 0.0000 0.0000 0.0000 59.5082 0.0000
# 6 0.0000 0.0000 0.0000 0.0000 0.0000 5.1120
#
#
#
# Elastic Compliance Matrix: (Units=1/GPa)
#
#
# Indices 1 2 3 4 5 6 
#
# 1 0.003408 -0.000098 -0.000704 0.000000 0.000000 0.000000
# 2 -0.000098 0.009240 0.000767 0.000000 0.000000 0.000000
# 3 -0.000704 0.000767 0.006682 0.000000 0.000000 0.000000
# 4 0.000000 0.000000 0.000000 -0.001141 0.000000 0.000000
# 5 0.000000 0.000000 0.000000 0.000000 0.016804 0.000000
# 6 0.000000 0.000000 0.000000 0.000000 0.000000 0.195617
#
#
# Mechanical properties :
#
#
# Convention : Reuss Voigt Hill
#
# Bulk Modulus (GPa) = 51.91980 66.98013 59.44997
# Shear Modulus (GPa) = 21.08799 -126.09904 -52.50553
#
# Velocity S-wave (km/s) = 2.78375 -6.80721 -4.39254
# Velocity P-wave (km/s) = 5.42324 6.09678 1.96966
#
# Compressibility (1/GPa) = 0.01926047
#
# Stress axis : x y z
#
# Youngs Moduli (GPa) = 293.40179 108.22137 149.64672
#
# Poissons Ratio (x) = 0.01062 0.10532
# Poissons Ratio (y) = 0.02878 -0.11472
# Poissons Ratio (z) = 0.20649 -0.08296
#
# Static dielectric constant tensor:
#      x y z
#    x 2.324450 0.000000 0.000000 
#    y 0.000000 2.619160 0.000000 
#    z 0.000000 0.000000 2.111090 
# 
# From -- ./inp_files/50162.got.cif
#   From: 2010.05.17/outbox.cif.g08.bks.cpg/sg72_26_cif.got.tgz:50162.got - 2010.06.03 17:03:01.
