data_PCOD9525430
_publ_section_title
;
Structure prediction by ZEFSAII (Michael W. Deem and Ramdas Pophale) SiO2 
 PCOD9525430
Probable space group: I B A M
;
_chemical_formula_sum "Si O2"
_cell_formula_units_Z 72
_cell_length_a 10.977575
_cell_length_b 13.246954
_cell_length_c 19.313908
_cell_angle_alpha 90.000000
_cell_angle_beta 90.000000
_cell_angle_gamma 90.000000
_cell_volume 2808.617513
_symmetry_space_group_name_H-M "I B A M"
_symmetry_group_IT_number 72
_symmetry_cell_setting 'orthorhombic'
loop_
_space_group_symop_operation_xyz
x,y,z
-x,-y,z
x,-y,1/2-z
-x,y,1/2-z
-x,-y,-z
x,y,-z
-x,y,1/2+z
x,-y,1/2+z
1/2+x,1/2+y,1/2+z
1/2-x,1/2-y,1/2+z
1/2+x,1/2-y,-z
1/2-x,1/2+y,-z
1/2-x,1/2-y,1/2-z
1/2+x,1/2+y,1/2-z
1/2-x,1/2+y,z
1/2+x,1/2-y,z
loop_
_atom_site_type_symbol
_atom_site_label
_atom_site_fract_x
_atom_site_fract_y
_atom_site_fract_z
Si Si1 0.901477 0.123709 0.374771
Si Si2 0.544554 0.851333 0.652205
Si Si3 0.498851 0.135725 0.500000
Si Si4 0.711010 0.866238 0.229213
Si Si5 0.079126 0.870141 0.000000
Si Si6 0.749771 0.054696 0.500000
O O1 0.938606 0.231528 0.345051
O O2 0.827789 0.081486 0.307643
O O3 0.798588 0.116596 0.433856
O O4 0.015770 0.099693 0.425949
O O5 0.567395 0.873163 0.572489
O O6 0.645344 0.903720 0.700465
O O7 0.406284 0.868211 0.677509
O O8 0.564436 0.248779 0.500000
O O9 0.607866 0.058170 0.500000
O O10 0.750000 0.750000 0.250000
O O11 0.195240 0.942422 0.000000
#
# Coordination Sequence:
#
# PCOD9525430 Si02
#       6
#    16  16   8  16   8   8
#     4   9  16  28  47  74 117 157 200 259 317 371
#     4   9  17  28  44  75 116 154 214 257 302 374
#     4  10  18  32  52  78 124 168 219 253 325 387
#     4   9  16  27  45  73 115 156 211 255 309 367
#     4   9  20  31  48  85 124 165 213 275 314 386
#     4  11  18  31  52  81 124 163 209 266 332 369
#
# _framework density 25.635389
#
# number of rings (size 3 to 8) (size 9 to 14) (size 15 to 20)
#    0.000    2.667    2.222    2.000    0.000    0.000 
#    0.000    0.000    0.000    0.000    0.000  163.333 
#    0.000    7.111    0.000    4.444    0.000    0.222 
#
# Total GULP energy -200408.992809 kJ/mol
# GULP energy per Si atom -5566.916467 kJ/mol
# Density = 2.557704 g / cm^3
# Si number density = 25.635389 Si / 1000 Ang^3
#
#
#
# Elastic Constant Matrix: (Units=GPa)
#
#
# Indices 1 2 3 4 5 6 
#
# 1 115.6484 29.5222 53.7664 0.0000 0.0000 0.0000
# 2 29.5222 102.1490 30.0900 0.0000 0.0000 0.0000
# 3 53.7664 30.0900 153.3228 0.0000 0.0000 0.0000
# 4 0.0000 0.0000 0.0000 -11.1146 0.0000 0.0000
# 5 0.0000 0.0000 0.0000 0.0000 142.8087 0.0000
# 6 0.0000 0.0000 0.0000 0.0000 0.0000 38.6110
#
#
#
# Elastic Compliance Matrix: (Units=1/GPa)
#
#
# Indices 1 2 3 4 5 6 
#
# 1 0.010746 -0.002118 -0.003353 0.000000 0.000000 0.000000
# 2 -0.002118 0.010808 -0.001378 0.000000 0.000000 0.000000
# 3 -0.003353 -0.001378 0.007968 0.000000 0.000000 0.000000
# 4 0.000000 0.000000 0.000000 -0.089972 0.000000 0.000000
# 5 0.000000 0.000000 0.000000 0.000000 0.007002 0.000000
# 6 0.000000 0.000000 0.000000 0.000000 0.000000 0.025899
#
#
# Mechanical properties :
#
#
# Convention : Reuss Voigt Hill
#
# Bulk Modulus (GPa) = 63.19469 66.43080 64.81275
# Shear Modulus (GPa) = -583.11982 51.24381 -265.93800
#
# Velocity S-wave (km/s) = -15.09836 4.47581 -10.19627
# Velocity P-wave (km/s) = 16.71055 7.25813 10.64336
#
# Compressibility (1/GPa) = 0.01582411
#
# Stress axis : x y z
#
# Youngs Moduli (GPa) = 93.05465 92.52582 125.49559
#
# Poissons Ratio (x) = 0.19599 0.42076
# Poissons Ratio (y) = 0.19711 0.17297
# Poissons Ratio (z) = 0.31199 0.12752
#
# Static dielectric constant tensor:
#      x y z
#    x 2.217600 0.000000 0.000000 
#    y 0.000000 2.192590 0.000000 
#    z 0.000000 0.000000 2.016200 
# 
# From -- ./inp_files/29090.got.cif
#   From: 2010.05.17/outbox.cif.g08.bks.cpg/sg72_15_cif.got.tgz:29090.got - 2010.06.03 17:03:01.
