data_PCOD9525348
_publ_section_title
;
Structure prediction by ZEFSAII (Michael W. Deem and Ramdas Pophale) SiO2 
 PCOD9525348
Probable space group: I B A M
;
_chemical_formula_sum "Si O2"
_cell_formula_units_Z 128
_cell_length_a 19.613293
_cell_length_b 24.201866
_cell_length_c 16.587345
_cell_angle_alpha 90.000000
_cell_angle_beta 90.000000
_cell_angle_gamma 90.000000
_cell_volume 7873.652544
_symmetry_space_group_name_H-M "I B A M"
_symmetry_group_IT_number 72
_symmetry_cell_setting 'orthorhombic'
loop_
_space_group_symop_operation_xyz
x,y,z
-x,-y,z
x,-y,1/2-z
-x,y,1/2-z
-x,-y,-z
x,y,-z
-x,y,1/2+z
x,-y,1/2+z
1/2+x,1/2+y,1/2+z
1/2-x,1/2-y,1/2+z
1/2+x,1/2-y,-z
1/2-x,1/2+y,-z
1/2-x,1/2-y,1/2-z
1/2+x,1/2+y,1/2-z
1/2-x,1/2+y,z
1/2+x,1/2-y,z
loop_
_atom_site_type_symbol
_atom_site_label
_atom_site_fract_x
_atom_site_fract_y
_atom_site_fract_z
Si Si1 0.504613 0.385706 0.346510
Si Si2 0.137318 0.935626 0.402755
Si Si3 0.767319 0.836995 0.594971
Si Si4 0.854293 0.939707 0.402672
Si Si5 0.226918 0.165818 0.094248
Si Si6 0.358996 0.227129 0.362650
Si Si7 0.506023 0.742565 0.151994
Si Si8 0.155629 0.732900 0.170045
O O1 0.500000 0.385795 0.250000
O O2 0.438773 0.417401 0.379500
O O3 0.574343 0.414477 0.373153
O O4 0.504207 0.321680 0.373831
O O5 0.141208 0.935224 0.500000
O O6 0.189900 0.888870 0.373363
O O7 0.152972 0.997435 0.373523
O O8 0.782390 0.829468 0.500000
O O9 0.794430 0.897024 0.619932
O O10 0.687937 0.823163 0.607976
O O11 0.808951 0.790290 0.643443
O O12 0.856451 0.941557 0.500000
O O13 0.174065 0.216850 0.102139
O O14 0.294515 0.184815 0.140242
O O15 0.242969 0.158748 0.000000
O O16 0.439186 0.226817 0.380866
O O17 0.350093 0.231307 0.266246
O O18 0.500000 0.742550 0.250000
O O19 0.579734 0.767879 0.133486
#
# Coordination Sequence:
#
# PCOD9525348 Si02
#       8
#    16  16  16  16  16  16  16  16
#     4  11  20  32  47  68  96 125 163 199 225 265
#     4  10  21  35  48  64  93 131 163 192 232 275
#     4  10  19  31  46  68  92 118 156 195 228 269
#     4  10  21  35  48  64  93 131 163 192 232 275
#     4  10  19  31  46  68  92 118 156 195 228 269
#     4  10  18  31  49  67  92 122 150 186 234 281
#     4   9  18  30  46  69  95 123 152 182 229 281
#     4  10  18  31  49  67  92 122 150 186 234 281
#
# _framework density 16.25675
#
# number of rings (size 3 to 8) (size 9 to 14) (size 15 to 20)
#    0.000    2.000    2.500    3.750    0.000    3.000 
#    0.000    2.500    0.000    0.000    0.000    0.875 
#    0.000    7.000    0.000    0.000    0.000    0.000 
#
# Total GULP energy -357056.910513 kJ/mol
# GULP energy per Si atom -5579.014227 kJ/mol
# Density = 1.621975 g / cm^3
# Si number density = 16.256750 Si / 1000 Ang^3
#
#
#
# Elastic Constant Matrix: (Units=GPa)
#
#
# Indices 1 2 3 4 5 6 
#
# 1 116.3058 68.6726 0.0340 0.0000 0.0000 0.0000
# 2 68.6726 111.0469 8.0750 0.0000 0.0000 0.0000
# 3 0.0340 8.0750 19.2720 0.0000 0.0000 0.0000
# 4 0.0000 0.0000 0.0000 0.7022 0.0000 0.0000
# 5 0.0000 0.0000 0.0000 0.0000 17.9239 0.0000
# 6 0.0000 0.0000 0.0000 0.0000 0.0000 18.4251
#
#
#
# Elastic Compliance Matrix: (Units=1/GPa)
#
#
# Indices 1 2 3 4 5 6 
#
# 1 0.013789 -0.008793 0.003660 0.000000 0.000000 0.000000
# 2 -0.008793 0.014896 -0.006226 0.000000 0.000000 0.000000
# 3 0.003660 -0.006226 0.054491 0.000000 0.000000 0.000000
# 4 0.000000 0.000000 0.000000 1.424084 0.000000 0.000000
# 5 0.000000 0.000000 0.000000 0.000000 0.055792 0.000000
# 6 0.000000 0.000000 0.000000 0.000000 0.000000 0.054274
#
#
# Mechanical properties :
#
#
# Convention : Reuss Voigt Hill
#
# Bulk Modulus (GPa) = 16.54057 44.46530 30.50293
# Shear Modulus (GPa) = 3.01169 18.73312 10.87240
#
# Velocity S-wave (km/s) = 1.36257 3.39828 2.58891
# Velocity P-wave (km/s) = 3.55980 6.54286 5.26693
#
# Compressibility (1/GPa) = 0.06045743
#
# Stress axis : x y z
#
# Youngs Moduli (GPa) = 72.52138 67.13260 18.35171
#
# Poissons Ratio (x) = 0.59033 -0.06717
# Poissons Ratio (y) = 0.63771 0.11426
# Poissons Ratio (z) = -0.26544 0.41796
#
# Static dielectric constant tensor:
#      x y z
#    x 1.550550 0.000000 0.000000 
#    y 0.000000 1.540530 0.000000 
#    z 0.000000 0.000000 1.572140 
# 
# From -- ./inp_files/32959.got.cif
#   From: 2010.05.17/outbox.cif.g08.bks.cpg/sg72_17_cif.got.tgz:32959.got - 2010.06.03 17:03:01.
