data_PCOD9525115
_publ_section_title
;
Structure prediction by ZEFSAII (Michael W. Deem and Ramdas Pophale) SiO2 
 PCOD9525115
Probable space group: I B A M
;
_chemical_formula_sum "Si O2"
_cell_formula_units_Z 112
_cell_length_a 10.377187
_cell_length_b 25.617262
_cell_length_c 21.781372
_cell_angle_alpha 90.000000
_cell_angle_beta 90.000000
_cell_angle_gamma 90.000000
_cell_volume 5790.253600
_symmetry_space_group_name_H-M "I B A M"
_symmetry_group_IT_number 72
_symmetry_cell_setting 'orthorhombic'
loop_
_space_group_symop_operation_xyz
x,y,z
-x,-y,z
x,-y,1/2-z
-x,y,1/2-z
-x,-y,-z
x,y,-z
-x,y,1/2+z
x,-y,1/2+z
1/2+x,1/2+y,1/2+z
1/2-x,1/2-y,1/2+z
1/2+x,1/2-y,-z
1/2-x,1/2+y,-z
1/2-x,1/2-y,1/2-z
1/2+x,1/2+y,1/2-z
1/2-x,1/2+y,z
1/2+x,1/2-y,z
loop_
_atom_site_type_symbol
_atom_site_label
_atom_site_fract_x
_atom_site_fract_y
_atom_site_fract_z
Si Si1 0.363185 0.529857 0.890816
Si Si2 0.149229 0.192853 0.821468
Si Si3 0.245038 0.880926 0.854967
Si Si4 0.381365 0.035537 0.571204
Si Si5 0.373987 0.200158 0.268973
Si Si6 0.640047 0.577622 0.734406
Si Si7 0.023013 0.138687 0.071226
O O1 0.500000 0.500000 0.886859
O O2 0.253104 0.496287 0.923057
O O3 0.310718 0.545451 0.823320
O O4 0.398896 0.584238 0.923641
O O5 0.290929 0.205032 0.793494
O O6 0.080832 0.245047 0.798100
O O7 0.119932 0.137440 0.788911
O O8 0.108060 0.180904 0.891016
O O9 0.352236 0.910081 0.894921
O O10 0.293227 0.828780 0.821480
O O11 0.216014 0.919183 0.797475
O O12 0.113550 0.870238 0.893095
O O13 0.408426 0.046222 0.500000
O O14 0.500000 0.000000 0.594934
O O15 0.500000 0.168225 0.250000
O O16 0.500000 0.557152 0.750000
O O17 0.001638 0.151572 0.000000
#
# Coordination Sequence:
#
# PCOD9525115 Si02
#       7
#    16  16  16  16  16  16  16
#     4  11  21  36  63  90 117 154 210 251 299 362
#     4   9  20  36  63  91 119 155 197 249 305 367
#     4  11  22  37  60  92 120 157 203 253 309 366
#     4  11  25  43  59  81 122 169 206 244 305 375
#     4  10  22  37  64  91 121 157 199 251 318 382
#     4  10  17  33  56  91 122 143 184 256 307 340
#     4  11  22  38  62  91 125 159 209 258 292 354
#
# _framework density 19.342849999999999
#
# number of rings (size 3 to 8) (size 9 to 14) (size 15 to 20)
#    0.000    1.571    4.286    1.286    4.000    6.000 
#    0.000    2.143    0.000    0.857    0.000    0.000 
#    0.000    0.000    0.000    0.000    0.000    0.000 
#
# Total GULP energy -312018.631588 kJ/mol
# GULP energy per Si atom -5571.761278 kJ/mol
# Density = 1.929882 g / cm^3
# Si number density = 19.342850 Si / 1000 Ang^3
#
#
#
# Elastic Constant Matrix: (Units=GPa)
#
#
# Indices 1 2 3 4 5 6 
#
# 1 55.6326 16.4604 29.6651 0.0000 0.0000 0.0000
# 2 16.4604 82.9294 26.0238 0.0000 0.0000 0.0000
# 3 29.6651 26.0238 127.2602 0.0000 0.0000 0.0000
# 4 0.0000 0.0000 0.0000 3.1307 0.0000 0.0000
# 5 0.0000 0.0000 0.0000 0.0000 22.1558 0.0000
# 6 0.0000 0.0000 0.0000 0.0000 0.0000 17.6685
#
#
#
# Elastic Compliance Matrix: (Units=1/GPa)
#
#
# Indices 1 2 3 4 5 6 
#
# 1 0.021130 -0.002830 -0.004347 0.000000 0.000000 0.000000
# 2 -0.002830 0.013264 -0.002053 0.000000 0.000000 0.000000
# 3 -0.004347 -0.002053 0.009291 0.000000 0.000000 0.000000
# 4 0.000000 0.000000 0.000000 0.319412 0.000000 0.000000
# 5 0.000000 0.000000 0.000000 0.000000 0.045135 0.000000
# 6 0.000000 0.000000 0.000000 0.000000 0.000000 0.056598
#
#
# Mechanical properties :
#
#
# Convention : Reuss Voigt Hill
#
# Bulk Modulus (GPa) = 39.64119 45.56899 42.60509
# Shear Modulus (GPa) = 10.16882 21.50252 15.83567
#
# Velocity S-wave (km/s) = 2.29533 3.33776 2.86437
# Velocity P-wave (km/s) = 5.25007 6.20193 5.74574
#
# Compressibility (1/GPa) = 0.02522629
#
# Stress axis : x y z
#
# Youngs Moduli (GPa) = 47.32539 75.39004 107.63128
#
# Poissons Ratio (x) = 0.21336 0.46786
# Poissons Ratio (y) = 0.13393 0.22094
# Poissons Ratio (z) = 0.20572 0.15476
#
# Static dielectric constant tensor:
#      x y z
#    x 1.711640 0.000000 0.000000 
#    y 0.000000 1.719490 0.000000 
#    z 0.000000 0.000000 1.697360 
# 
# From -- ./inp_files/37313.got.cif
#   From: 2010.05.17/outbox.cif.g08.bks.cpg/sg72_19_cif.got.tgz:37313.got - 2010.06.03 17:03:01.
