data_PCOD9525762
_publ_section_title
;
Structure prediction by ZEFSAII (Michael W. Deem and Ramdas Pophale) SiO2 
 PCOD9525762
Probable space group: I B A M
;
_chemical_formula_sum "Si O2"
_cell_formula_units_Z 48
_cell_length_a 4.938959
_cell_length_b 25.596739
_cell_length_c 14.618195
_cell_angle_alpha 90.000000
_cell_angle_beta 90.000000
_cell_angle_gamma 90.000000
_cell_volume 1848.050404
_symmetry_space_group_name_H-M "I B A M"
_symmetry_group_IT_number 72
_symmetry_cell_setting 'orthorhombic'
loop_
_space_group_symop_operation_xyz
x,y,z
-x,-y,z
x,-y,1/2-z
-x,y,1/2-z
-x,-y,-z
x,y,-z
-x,y,1/2+z
x,-y,1/2+z
1/2+x,1/2+y,1/2+z
1/2-x,1/2-y,1/2+z
1/2+x,1/2-y,-z
1/2-x,1/2+y,-z
1/2-x,1/2-y,1/2-z
1/2+x,1/2+y,1/2-z
1/2-x,1/2+y,z
1/2+x,1/2-y,z
loop_
_atom_site_type_symbol
_atom_site_label
_atom_site_fract_x
_atom_site_fract_y
_atom_site_fract_z
Si Si1 0.634731 0.228284 0.850637
Si Si2 0.542018 0.942182 0.106882
Si Si3 0.977284 0.127653 0.893886
O O1 0.500000 0.237175 0.750000
O O2 0.337803 0.229427 0.896336
O O3 0.818015 0.176752 0.850800
O O4 0.248936 0.916956 0.107377
O O5 0.754895 0.899872 0.147342
O O6 0.500000 0.000000 0.145850
O O7 0.631929 0.948749 0.000000
O O8 0.026614 0.141330 0.000000
#
# Coordination Sequence:
#
# PCOD9525762 Si02
#       3
#    16  16  16
#     4  10  21  36  52  72 102 142 185 228 279 333
#     4   9  17  30  49  76 109 139 169 212 268 329
#     4  10  19  31  51  78 105 138 181 225 271 324
#
# _framework density 25.973317999999999
#
# number of rings (size 3 to 8) (size 9 to 14) (size 15 to 20)
#    0.000    2.333    0.000    3.000    0.000    5.333 
#    0.000    0.000    0.000    1.000    0.000    4.667 
#    0.000    0.000    0.000    0.000    0.000    0.333 
#
# Total GULP energy -133740.048175 kJ/mol
# GULP energy per Si atom -5572.502007 kJ/mol
# Density = 2.591420 g / cm^3
# Si number density = 25.973318 Si / 1000 Ang^3
#
#
#
# Elastic Constant Matrix: (Units=GPa)
#
#
# Indices 1 2 3 4 5 6 
#
# 1 148.8191 -33.5264 6.3294 0.0000 0.0000 0.0000
# 2 -33.5264 53.3421 27.7778 0.0000 0.0000 0.0000
# 3 6.3294 27.7778 86.8636 0.0000 0.0000 0.0000
# 4 0.0000 0.0000 0.0000 13.3871 0.0000 0.0000
# 5 0.0000 0.0000 0.0000 0.0000 14.0138 0.0000
# 6 0.0000 0.0000 0.0000 0.0000 0.0000 24.9687
#
#
#
# Elastic Compliance Matrix: (Units=1/GPa)
#
#
# Indices 1 2 3 4 5 6 
#
# 1 0.008338 0.006667 -0.002740 0.000000 0.000000 0.000000
# 2 0.006667 0.027824 -0.009384 0.000000 0.000000 0.000000
# 3 -0.002740 -0.009384 0.014713 0.000000 0.000000 0.000000
# 4 0.000000 0.000000 0.000000 0.074699 0.000000 0.000000
# 5 0.000000 0.000000 0.000000 0.000000 0.071358 0.000000
# 6 0.000000 0.000000 0.000000 0.000000 0.000000 0.040050
#
#
# Mechanical properties :
#
#
# Convention : Reuss Voigt Hill
#
# Bulk Modulus (GPa) = 25.02317 32.24294 28.63305
# Shear Modulus (GPa) = 19.14134 29.70353 24.42243
#
# Velocity S-wave (km/s) = 2.71765 3.38541 3.06974
# Velocity P-wave (km/s) = 4.41617 5.26518 4.85926
#
# Compressibility (1/GPa) = 0.03996296
#
# Stress axis : x y z
#
# Youngs Moduli (GPa) = 119.93096 35.94023 67.96862
#
# Poissons Ratio (x) = -0.23963 0.18621
# Poissons Ratio (y) = -0.79962 0.63779
# Poissons Ratio (z) = 0.32857 0.33725
#
# Static dielectric constant tensor:
#      x y z
#    x 2.247980 0.000000 0.000000 
#    y 0.000000 2.158050 0.000000 
#    z 0.000000 0.000000 6.092570 
# 
# From -- ./inp_files/17406.got.cif
#   From: 2010.05.17/outbox.cif.g08.bks.cpg/sg72_9_cif.got.tgz:17406.got - 2010.06.03 17:03:01.
