data_PCOD9525083
_publ_section_title
;
Structure prediction by ZEFSAII (Michael W. Deem and Ramdas Pophale) SiO2 
 PCOD9525083
Probable space group: I B A M
;
_chemical_formula_sum "Si O2"
_cell_formula_units_Z 116
_cell_length_a 29.454277
_cell_length_b 21.712600
_cell_length_c 7.584382
_cell_angle_alpha 90.000000
_cell_angle_beta 90.000000
_cell_angle_gamma 90.000000
_cell_volume 4850.431742
_symmetry_space_group_name_H-M "I B A M"
_symmetry_group_IT_number 72
_symmetry_cell_setting 'orthorhombic'
loop_
_space_group_symop_operation_xyz
x,y,z
-x,-y,z
x,-y,1/2-z
-x,y,1/2-z
-x,-y,-z
x,y,-z
-x,y,1/2+z
x,-y,1/2+z
1/2+x,1/2+y,1/2+z
1/2-x,1/2-y,1/2+z
1/2+x,1/2-y,-z
1/2-x,1/2+y,-z
1/2-x,1/2-y,1/2-z
1/2+x,1/2+y,1/2-z
1/2-x,1/2+y,z
1/2+x,1/2-y,z
loop_
_atom_site_type_symbol
_atom_site_label
_atom_site_fract_x
_atom_site_fract_y
_atom_site_fract_z
Si Si1 0.224905 0.372760 0.216859
Si Si2 0.631538 0.070486 0.210917
Si Si3 0.500000 0.500000 0.750000
Si Si4 0.547498 0.146456 0.208812
Si Si5 0.680209 0.397295 0.299789
Si Si6 0.185298 0.243546 0.202121
Si Si7 0.077697 0.094041 0.717234
Si Si8 0.913245 0.766676 0.702734
O O1 0.180258 0.407830 0.277125
O O2 0.270196 0.407799 0.281789
O O3 0.215375 0.300957 0.267999
O O4 0.227001 0.371967 0.000000
O O5 0.590116 0.109919 0.283110
O O6 0.623891 0.000000 0.250000
O O7 0.632718 0.079222 0.000000
O O8 0.460842 0.449060 0.698343
O O9 0.500000 0.115250 0.250000
O O10 0.549165 0.215011 0.284634
O O11 0.551685 0.151656 0.000000
O O12 0.680399 0.420220 0.500000
O O13 0.683424 0.322133 0.299169
O O14 0.630796 0.417560 0.229344
O O15 0.131721 0.260418 0.204273
O O16 0.197949 0.231478 0.000000
O O17 0.073841 0.087177 0.500000
O O18 0.071749 0.165948 0.766006
O O19 0.900265 0.775787 0.500000
#
# Coordination Sequence:
#
# PCOD9525083 Si02
#       8
#    16  16   4  16  16  16  16  16
#     4   9  17  33  57  82 115 157 193 239 303 361
#     4  10  22  41  60  84 118 159 205 247 297 361
#     4  12  22  40  60  82 116 160 200 248 304 356
#     4  11  23  40  62  90 123 156 196 248 301 354
#     4   9  18  35  57  83 116 154 196 245 299 360
#     4  10  17  30  54  86 122 155 189 239 304 367
#     4   9  21  39  58  83 113 151 199 245 295 355
#     4  10  20  37  60  88 119 155 202 251 302 363
#
# _framework density 23.915396000000001
#
# number of rings (size 3 to 8) (size 9 to 14) (size 15 to 20)
#    0.000    2.207    1.379    2.690    0.966    1.379 
#    1.241    8.966    0.000    0.000    0.000    0.000 
#    0.000    0.000    0.000    0.000    0.000    0.000 
#
# Total GULP energy -323365.681108 kJ/mol
# GULP energy per Si atom -5575.270364 kJ/mol
# Density = 2.386096 g / cm^3
# Si number density = 23.915396 Si / 1000 Ang^3
#
#
#
# Elastic Constant Matrix: (Units=GPa)
#
#
# Indices 1 2 3 4 5 6 
#
# 1 218.6741 69.9264 10.0704 0.0000 0.0000 0.0000
# 2 69.9264 96.9342 4.6161 0.0000 0.0000 0.0000
# 3 10.0704 4.6161 73.4046 0.0000 0.0000 0.0000
# 4 0.0000 0.0000 0.0000 -18.5616 0.0000 0.0000
# 5 0.0000 0.0000 0.0000 0.0000 12.1517 0.0000
# 6 0.0000 0.0000 0.0000 0.0000 0.0000 42.2696
#
#
#
# Elastic Compliance Matrix: (Units=1/GPa)
#
#
# Indices 1 2 3 4 5 6 
#
# 1 0.005966 -0.004278 -0.000549 0.000000 0.000000 0.000000
# 2 -0.004278 0.013414 -0.000257 0.000000 0.000000 0.000000
# 3 -0.000549 -0.000257 0.013715 0.000000 0.000000 0.000000
# 4 0.000000 0.000000 0.000000 -0.053875 0.000000 0.000000
# 5 0.000000 0.000000 0.000000 0.000000 0.082293 0.000000
# 6 0.000000 0.000000 0.000000 0.000000 0.000000 0.023658
#
#
# Mechanical properties :
#
#
# Convention : Reuss Voigt Hill
#
# Bulk Modulus (GPa) = 43.61602 62.02651 52.82127
# Shear Modulus (GPa) = 48.55226 27.46527 38.00876
#
# Velocity S-wave (km/s) = 4.51063 3.39253 3.99093
# Velocity P-wave (km/s) = 6.73831 6.42945 6.58569
#
# Compressibility (1/GPa) = 0.02292736
#
# Stress axis : x y z
#
# Youngs Moduli (GPa) = 167.60969 74.54680 72.91476
#
# Poissons Ratio (x) = 0.31889 0.04007
# Poissons Ratio (y) = 0.71699 0.01872
# Poissons Ratio (z) = 0.09210 0.01914
#
# Static dielectric constant tensor:
#      x y z
#    x 2.020290 0.000000 0.000000 
#    y 0.000000 1.887320 0.000000 
#    z 0.000000 0.000000 1.955960 
# 
# From -- ./inp_files/8433.got.cif
#   From: 2010.05.17/outbox.cif.g08.bks.cpg/sg72_5_cif.got.tgz:8433.got - 2010.06.03 17:03:01.
