data_PCOD9525362
_publ_section_title
;
Structure prediction by ZEFSAII (Michael W. Deem and Ramdas Pophale) SiO2 
 PCOD9525362
Probable space group: I B A M
;
_chemical_formula_sum "Si O2"
_cell_formula_units_Z 96
_cell_length_a 18.373571
_cell_length_b 20.373181
_cell_length_c 15.103676
_cell_angle_alpha 90.000000
_cell_angle_beta 90.000000
_cell_angle_gamma 90.000000
_cell_volume 5653.730153
_symmetry_space_group_name_H-M "I B A M"
_symmetry_group_IT_number 72
_symmetry_cell_setting 'orthorhombic'
loop_
_space_group_symop_operation_xyz
x,y,z
-x,-y,z
x,-y,1/2-z
-x,y,1/2-z
-x,-y,-z
x,y,-z
-x,y,1/2+z
x,-y,1/2+z
1/2+x,1/2+y,1/2+z
1/2-x,1/2-y,1/2+z
1/2+x,1/2-y,-z
1/2-x,1/2+y,-z
1/2-x,1/2-y,1/2-z
1/2+x,1/2+y,1/2-z
1/2-x,1/2+y,z
1/2+x,1/2-y,z
loop_
_atom_site_type_symbol
_atom_site_label
_atom_site_fract_x
_atom_site_fract_y
_atom_site_fract_z
Si Si1 0.220715 0.700476 0.824261
Si Si2 0.514686 0.414136 0.500000
Si Si3 0.709717 0.442161 0.805910
Si Si4 0.929381 0.897623 0.692488
Si Si5 0.943319 0.740344 0.675095
Si Si6 0.348772 0.558468 0.000000
Si Si7 0.808333 0.786814 0.000000
Si Si8 0.027629 0.240655 0.000000
O O1 0.250000 0.750000 0.750000
O O2 0.245743 0.625465 0.810794
O O3 0.133874 0.705122 0.826994
O O4 0.259231 0.724403 0.914407
O O5 0.558619 0.421579 0.408184
O O6 0.436481 0.450808 0.500000
O O7 0.489500 0.337437 0.500000
O O8 0.747264 0.500000 0.750000
O O9 0.638624 0.424741 0.746810
O O10 0.685912 0.463310 0.905819
O O11 0.926094 0.818130 0.689316
O O12 0.000000 0.915303 0.750000
O O13 0.000000 0.719708 0.750000
O O14 0.987695 0.732229 0.585321
O O15 0.332026 0.636671 0.000000
O O16 0.885565 0.749695 0.000000
#
# Coordination Sequence:
#
# PCOD9525362 Si02
#       8
#    16   8  16  16  16   8   8   8
#     4  11  20  36  56  80 111 145 182 231 279 328
#     4   9  16  28  49  72 106 141 182 221 254 310
#     4  11  23  37  53  76 106 146 186 226 278 338
#     4  10  18  31  50  76 108 143 181 220 265 327
#     4  10  19  31  54  79 107 143 181 226 274 320
#     4   9  18  36  52  69 104 147 182 216 266 334
#     4   9  19  31  55  84 111 147 178 220 279 335
#     4   9  17  29  48  79 111 137 179 227 266 322
#
# _framework density 16.979941
#
# number of rings (size 3 to 8) (size 9 to 14) (size 15 to 20)
#    0.000    2.000    3.333    1.500    4.667    1.000 
#    0.000    1.667    0.000    0.500    0.000    0.000 
#    0.000    6.667    0.000    0.000    0.000    0.000 
#
# Total GULP energy -267817.920990 kJ/mol
# GULP energy per Si atom -5579.540021 kJ/mol
# Density = 1.694129 g / cm^3
# Si number density = 16.979941 Si / 1000 Ang^3
#
#
#
# Elastic Constant Matrix: (Units=GPa)
#
#
# Indices 1 2 3 4 5 6 
#
# 1 139.6058 41.4325 74.3817 0.0000 0.0000 0.0000
# 2 41.4325 57.3565 42.6798 0.0000 0.0000 0.0000
# 3 74.3817 42.6798 178.6932 0.0000 0.0000 0.0000
# 4 0.0000 0.0000 0.0000 21.9080 0.0000 0.0000
# 5 0.0000 0.0000 0.0000 0.0000 23.7673 0.0000
# 6 0.0000 0.0000 0.0000 0.0000 0.0000 20.2734
#
#
#
# Elastic Compliance Matrix: (Units=1/GPa)
#
#
# Indices 1 2 3 4 5 6 
#
# 1 0.010334 -0.005186 -0.003063 0.000000 0.000000 0.000000
# 2 -0.005186 0.023805 -0.003527 0.000000 0.000000 0.000000
# 3 -0.003063 -0.003527 0.007714 0.000000 0.000000 0.000000
# 4 0.000000 0.000000 0.000000 0.045646 0.000000 0.000000
# 5 0.000000 0.000000 0.000000 0.000000 0.042075 0.000000
# 6 0.000000 0.000000 0.000000 0.000000 0.000000 0.049326
#
#
# Mechanical properties :
#
#
# Convention : Reuss Voigt Hill
#
# Bulk Modulus (GPa) = 54.64120 76.96041 65.80080
# Shear Modulus (GPa) = 23.97491 27.66715 25.82103
#
# Velocity S-wave (km/s) = 3.76168 4.04096 3.90382
# Velocity P-wave (km/s) = 7.14959 8.19727 7.69129
#
# Compressibility (1/GPa) = 0.01830121
#
# Stress axis : x y z
#
# Youngs Moduli (GPa) = 96.76779 42.00713 129.64087
#
# Poissons Ratio (x) = 0.21784 0.39709
# Poissons Ratio (y) = 0.50181 0.45727
# Poissons Ratio (z) = 0.29640 0.14817
#
# Static dielectric constant tensor:
#      x y z
#    x 1.548230 0.000000 0.000000 
#    y 0.000000 1.605780 0.000000 
#    z 0.000000 0.000000 1.508920 
# 
# From -- ./inp_files/22073.got.cif
#   From: 2010.05.17/outbox.cif.g08.bks.cpg/sg72_12_cif.got.tgz:22073.got - 2010.06.03 17:03:01.
