data_PCOD9525883
_publ_section_title
;
Structure prediction by ZEFSAII (Michael W. Deem and Ramdas Pophale) SiO2 
 PCOD9525883
Probable space group: I B A M
;
_chemical_formula_sum "Si O2"
_cell_formula_units_Z 88
_cell_length_a 21.071224
_cell_length_b 9.584267
_cell_length_c 24.322807
_cell_angle_alpha 90.000000
_cell_angle_beta 90.000000
_cell_angle_gamma 90.000000
_cell_volume 4912.045280
_symmetry_space_group_name_H-M "I B A M"
_symmetry_group_IT_number 72
_symmetry_cell_setting 'orthorhombic'
loop_
_space_group_symop_operation_xyz
x,y,z
-x,-y,z
x,-y,1/2-z
-x,y,1/2-z
-x,-y,-z
x,y,-z
-x,y,1/2+z
x,-y,1/2+z
1/2+x,1/2+y,1/2+z
1/2-x,1/2-y,1/2+z
1/2+x,1/2-y,-z
1/2-x,1/2+y,-z
1/2-x,1/2-y,1/2-z
1/2+x,1/2+y,1/2-z
1/2-x,1/2+y,z
1/2+x,1/2-y,z
loop_
_atom_site_type_symbol
_atom_site_label
_atom_site_fract_x
_atom_site_fract_y
_atom_site_fract_z
Si Si1 0.857732 0.973670 0.331215
Si Si2 0.549348 0.281288 0.205882
Si Si3 0.964060 0.636201 0.386237
Si Si4 0.124948 0.660211 0.792666
Si Si5 0.933123 0.077565 0.063491
Si Si6 0.242811 0.500000 0.750000
O O1 0.878723 0.822633 0.309544
O O2 0.876135 0.967958 0.395769
O O3 0.788552 0.982501 0.303049
O O4 0.899197 0.103150 0.309713
O O5 0.500000 0.341680 0.250000
O O6 0.512017 0.219015 0.154453
O O7 0.581455 0.153988 0.238767
O O8 0.905376 0.589876 0.346615
O O9 0.942625 0.755910 0.428349
O O10 0.000000 0.500000 0.408333
O O11 0.194006 0.618191 0.771290
O O12 0.920521 0.044395 0.000000
O O13 0.000000 0.000000 0.078961
#
# Coordination Sequence:
#
# PCOD9525883 Si02
#       6
#    16  16  16  16  16   8
#     4  11  21  32  54  79 109 151 187 234 271 340
#     4  10  19  32  53  81 121 147 185 219 284 341
#     4  10  20  34  56  84 116 150 180 235 292 336
#     4  10  21  33  48  80 120 150 186 219 275 344
#     4  10  21  38  59  82 108 143 193 246 286 330
#     4  12  22  34  52  82 118 156 190 222 278 342
#
# _framework density 17.915144000000002
#
# number of rings (size 3 to 8) (size 9 to 14) (size 15 to 20)
#    0.000    1.636    3.636    1.636    0.000    6.545 
#    0.000    0.000    0.000    4.364    0.000    1.273 
#    0.000    0.000    0.000    0.000    0.000    0.000 
#
# Total GULP energy -244952.070038 kJ/mol
# GULP energy per Si atom -5567.092501 kJ/mol
# Density = 1.787437 g / cm^3
# Si number density = 17.915144 Si / 1000 Ang^3
#
#
#
# Elastic Constant Matrix: (Units=GPa)
#
#
# Indices 1 2 3 4 5 6 
#
# 1 100.2962 16.3978 35.6608 0.0000 0.0000 0.0000
# 2 16.3978 67.2021 12.4347 0.0000 0.0000 0.0000
# 3 35.6608 12.4347 88.3953 0.0000 0.0000 0.0000
# 4 0.0000 0.0000 0.0000 19.6343 0.0000 0.0000
# 5 0.0000 0.0000 0.0000 0.0000 16.2239 0.0000
# 6 0.0000 0.0000 0.0000 0.0000 0.0000 -7.6802
#
#
#
# Elastic Compliance Matrix: (Units=1/GPa)
#
#
# Indices 1 2 3 4 5 6 
#
# 1 0.011915 -0.002072 -0.004515 0.000000 0.000000 0.000000
# 2 -0.002072 0.015638 -0.001364 0.000000 0.000000 0.000000
# 3 -0.004515 -0.001364 0.013326 0.000000 0.000000 0.000000
# 4 0.000000 0.000000 0.000000 0.050931 0.000000 0.000000
# 5 0.000000 0.000000 0.000000 0.000000 0.061637 0.000000
# 6 0.000000 0.000000 0.000000 0.000000 0.000000 -0.130206
#
#
# Mechanical properties :
#
#
# Convention : Reuss Voigt Hill
#
# Bulk Modulus (GPa) = 40.03657 42.76445 41.40051
# Shear Modulus (GPa) = 105.33022 18.39565 61.86293
#
# Velocity S-wave (km/s) = 7.67604 3.20788 5.88269
# Velocity P-wave (km/s) = 10.04781 6.13539 8.32471
#
# Compressibility (1/GPa) = 0.02497717
#
# Stress axis : x y z
#
# Youngs Moduli (GPa) = 83.93074 63.94508 75.03988
#
# Poissons Ratio (x) = 0.13248 0.33882
# Poissons Ratio (y) = 0.17389 0.10236
# Poissons Ratio (z) = 0.37896 0.08723
#
# Static dielectric constant tensor:
#      x y z
#    x 1.659840 0.000000 0.000000 
#    y 0.000000 1.707950 0.000000 
#    z 0.000000 0.000000 1.636060 
# 
# From -- ./inp_files/45254.got.cif
#   From: 2010.05.17/outbox.cif.g08.bks.cpg/sg72_23_cif.got.tgz:45254.got - 2010.06.03 17:03:01.
