data_PCOD9525451
_publ_section_title
;
Structure prediction by ZEFSAII (Michael W. Deem and Ramdas Pophale) SiO2 
 PCOD9525451
Probable space group: I B A M
;
_chemical_formula_sum "Si O2"
_cell_formula_units_Z 96
_cell_length_a 10.324684
_cell_length_b 30.649084
_cell_length_c 14.591107
_cell_angle_alpha 90.000000
_cell_angle_beta 90.000000
_cell_angle_gamma 90.000000
_cell_volume 4617.240645
_symmetry_space_group_name_H-M "I B A M"
_symmetry_group_IT_number 72
_symmetry_cell_setting 'orthorhombic'
loop_
_space_group_symop_operation_xyz
x,y,z
-x,-y,z
x,-y,1/2-z
-x,y,1/2-z
-x,-y,-z
x,y,-z
-x,y,1/2+z
x,-y,1/2+z
1/2+x,1/2+y,1/2+z
1/2-x,1/2-y,1/2+z
1/2+x,1/2-y,-z
1/2-x,1/2+y,-z
1/2-x,1/2-y,1/2-z
1/2+x,1/2+y,1/2-z
1/2-x,1/2+y,z
1/2+x,1/2-y,z
loop_
_atom_site_type_symbol
_atom_site_label
_atom_site_fract_x
_atom_site_fract_y
_atom_site_fract_z
Si Si1 0.996399 0.718178 0.387819
Si Si2 0.705222 0.291096 0.387918
Si Si3 0.107862 0.531582 0.894699
Si Si4 0.365506 0.483040 0.146827
Si Si5 0.968972 0.621601 0.389879
Si Si6 0.773872 0.888707 0.389944
O O1 0.994381 0.718282 0.500000
O O2 0.147714 0.721929 0.362176
O O3 0.946337 0.670608 0.355285
O O4 0.902729 0.756862 0.357105
O O5 0.703571 0.291687 0.500000
O O6 0.680718 0.340971 0.357707
O O7 0.241317 0.506023 0.896632
O O8 0.000000 0.500000 0.852227
O O9 0.112684 0.580372 0.854077
O O10 0.065025 0.538860 0.000000
O O11 0.500000 0.500000 0.105809
O O12 0.362898 0.500000 0.250000
O O13 0.346864 0.431154 0.145912
O O14 0.950689 0.625593 0.500000
O O15 0.119322 0.609620 0.372824
O O16 0.788469 0.890145 0.500000
#
# Coordination Sequence:
#
# PCOD9525451 Si02
#       6
#    16  16  16  16  16  16
#     4   8  13  23  38  62  98 130 155 189 238 292
#     4   8  14  24  42  66  97 131 158 194 245 298
#     4  10  18  32  55  78  99 126 166 211 253 304
#     4  11  24  38  49  68 103 136 173 211 258 306
#     4   8  14  26  46  71 100 129 157 200 253 296
#     4   9  16  31  52  72  98 135 170 203 253 307
#
# _framework density 20.791637999999999
#
# number of rings (size 3 to 8) (size 9 to 14) (size 15 to 20)
#    0.000    3.000    1.667    2.500    0.000    1.667 
#    3.000    0.000    0.000    0.000    0.000    1.167 
#    0.000    0.000    0.000    0.000    0.000    0.000 
#
# Total GULP energy -267652.686660 kJ/mol
# GULP energy per Si atom -5576.097639 kJ/mol
# Density = 2.074432 g / cm^3
# Si number density = 20.791638 Si / 1000 Ang^3
#
#
#
# Elastic Constant Matrix: (Units=GPa)
#
#
# Indices 1 2 3 4 5 6 
#
# 1 107.2155 109.9087 -4.8892 0.0000 0.0000 0.0000
# 2 109.9087 238.9078 10.8398 0.0001 0.0000 0.0000
# 3 -4.8892 10.8398 48.2420 0.0006 0.0000 -0.0001
# 4 0.0000 0.0001 0.0006 47.0303 -0.0001 0.0000
# 5 0.0000 0.0000 0.0000 -0.0001 0.9575 0.0001
# 6 0.0000 0.0000 -0.0001 0.0000 0.0001 36.8883
#
#
#
# Elastic Compliance Matrix: (Units=1/GPa)
#
#
# Indices 1 2 3 4 5 6 
#
# 1 0.018312 -0.008596 0.003787 0.000000 0.000000 0.000000
# 2 -0.008596 0.008264 -0.002728 0.000000 0.000000 0.000000
# 3 0.003787 -0.002728 0.021726 0.000000 0.000001 0.000000
# 4 0.000000 0.000000 0.000000 0.021263 0.000002 0.000000
# 5 0.000000 0.000000 0.000001 0.000002 1.044368 -0.000002
# 6 0.000000 0.000000 0.000000 0.000000 -0.000002 0.027109
#
#
# Mechanical properties :
#
#
# Convention : Reuss Voigt Hill
#
# Bulk Modulus (GPa) = 30.09522 69.56486 49.83004
# Shear Modulus (GPa) = 4.28379 35.54230 19.91304
#
# Velocity S-wave (km/s) = 1.43695 4.13904 3.09810
# Velocity P-wave (km/s) = 4.15442 7.50819 6.06762
#
# Compressibility (1/GPa) = 0.03322787
#
# Stress axis : x y z
#
# Youngs Moduli (GPa) = 54.60974 121.00528 46.02847
#
# Poissons Ratio (x) = 1.04017 -0.17433
# Poissons Ratio (y) = 0.46943 0.12557
# Poissons Ratio (z) = -0.20683 0.33012
#
# Static dielectric constant tensor:
#      x y z
#    x 1.740970 0.000000 0.000000 
#    y 0.000000 1.778670 0.000000 
#    z 0.000000 0.000000 0.072740 
# 
# From -- ./inp_files/29600.got.cif
#   From: 2010.05.17/outbox.cif.g08.bks.cpg/sg72_15_cif.got.tgz:29600.got - 2010.06.03 17:03:01.
