data_PCOD9525482
_publ_section_title
;
Structure prediction by ZEFSAII (Michael W. Deem and Ramdas Pophale) SiO2 
 PCOD9525482
Probable space group: I B A M
;
_chemical_formula_sum "Si O2"
_cell_formula_units_Z 116
_cell_length_a 18.838752
_cell_length_b 20.237215
_cell_length_c 15.875116
_cell_angle_alpha 90.000000
_cell_angle_beta 90.000000
_cell_angle_gamma 90.000000
_cell_volume 6052.290733
_symmetry_space_group_name_H-M "I B A M"
_symmetry_group_IT_number 72
_symmetry_cell_setting 'orthorhombic'
loop_
_space_group_symop_operation_xyz
x,y,z
-x,-y,z
x,-y,1/2-z
-x,y,1/2-z
-x,-y,-z
x,y,-z
-x,y,1/2+z
x,-y,1/2+z
1/2+x,1/2+y,1/2+z
1/2-x,1/2-y,1/2+z
1/2+x,1/2-y,-z
1/2-x,1/2+y,-z
1/2-x,1/2-y,1/2-z
1/2+x,1/2+y,1/2-z
1/2-x,1/2+y,z
1/2+x,1/2-y,z
loop_
_atom_site_type_symbol
_atom_site_label
_atom_site_fract_x
_atom_site_fract_y
_atom_site_fract_z
Si Si1 0.234601 0.675707 0.170832
Si Si2 0.520189 0.250369 0.345022
Si Si3 0.212367 0.375778 0.144251
Si Si4 0.637629 0.260617 0.094657
Si Si5 0.592031 0.029423 0.901975
Si Si6 0.100996 0.627410 0.907215
Si Si7 0.336773 0.698513 0.402891
Si Si8 0.000000 0.500000 0.250000
O O1 0.218417 0.636989 0.256244
O O2 0.317039 0.689209 0.152604
O O3 0.185005 0.638771 0.103646
O O4 0.200130 0.749335 0.161770
O O5 0.500000 0.265968 0.250000
O O6 0.446189 0.256246 0.393208
O O7 0.556674 0.177370 0.348728
O O8 0.580788 0.298515 0.381266
O O9 0.167560 0.313135 0.109798
O O10 0.168662 0.439322 0.115921
O O11 0.291737 0.367830 0.108611
O O12 0.655358 0.280021 0.000000
O O13 0.546667 0.044037 0.816233
O O14 0.589850 0.950148 0.899535
O O15 0.570816 0.048382 0.000000
O O16 0.077985 0.648621 0.000000
O O17 0.327077 0.720087 0.500000
#
# Coordination Sequence:
#
# PCOD9525482 Si02
#       8
#    16  16  16  16  16  16  16   4
#     4  10  18  33  53  77 103 140 183 232 282 337
#     4  11  21  33  52  81 113 149 184 231 281 344
#     4  11  21  36  55  78 105 144 187 237 281 334
#     4  11  20  31  52  79 109 140 181 232 288 348
#     4  11  25  41  58  81 110 150 201 239 279 338
#     4  10  21  37  54  74 108 150 191 234 277 329
#     4  10  19  35  55  75 106 142 181 230 285 338
#     4  12  26  40  56  74 112 152 184 236 284 324
#
# _framework density 19.166297
#
# number of rings (size 3 to 8) (size 9 to 14) (size 15 to 20)
#    0.000    1.379    0.000   10.552    2.897    0.000 
#    0.000    0.000    0.000    0.000    0.000    0.966 
#    0.000    7.724    0.000    0.138    0.000    0.138 
#
# Total GULP energy -323276.133162 kJ/mol
# GULP energy per Si atom -5573.726434 kJ/mol
# Density = 1.912267 g / cm^3
# Si number density = 19.166297 Si / 1000 Ang^3
#
#
#
# Elastic Constant Matrix: (Units=GPa)
#
#
# Indices 1 2 3 4 5 6 
#
# 1 145.8969 29.3069 33.4868 0.0000 0.0000 0.0000
# 2 29.3069 25.8759 20.7935 0.0000 0.0000 0.0000
# 3 33.4868 20.7935 111.0187 0.0000 0.0000 0.0000
# 4 0.0000 0.0000 0.0000 15.6688 0.0000 0.0000
# 5 0.0000 0.0000 0.0000 0.0000 15.3258 0.0000
# 6 0.0000 0.0000 0.0000 0.0000 0.0000 33.1934
#
#
#
# Elastic Compliance Matrix: (Units=1/GPa)
#
#
# Indices 1 2 3 4 5 6 
#
# 1 0.008956 -0.009385 -0.000944 0.000000 0.000000 0.000000
# 2 -0.009385 0.055328 -0.007532 0.000000 0.000000 0.000000
# 3 -0.000944 -0.007532 0.010703 0.000000 0.000000 0.000000
# 4 0.000000 0.000000 0.000000 0.063821 0.000000 0.000000
# 5 0.000000 0.000000 0.000000 0.000000 0.065249 0.000000
# 6 0.000000 0.000000 0.000000 0.000000 0.000000 0.030126
#
#
# Mechanical properties :
#
#
# Convention : Reuss Voigt Hill
#
# Bulk Modulus (GPa) = 25.46765 49.99624 37.73194
# Shear Modulus (GPa) = 17.66820 26.11788 21.89304
#
# Velocity S-wave (km/s) = 3.03947 3.69548 3.38341
# Velocity P-wave (km/s) = 5.06304 6.65965 5.91546
#
# Compressibility (1/GPa) = 0.03926551
#
# Stress axis : x y z
#
# Youngs Moduli (GPa) = 111.65707 18.07393 93.43334
#
# Poissons Ratio (x) = 0.16963 0.08816
# Poissons Ratio (y) = 1.04793 0.70374
# Poissons Ratio (z) = 0.10536 0.13613
#
# Static dielectric constant tensor:
#      x y z
#    x 1.739880 0.000000 0.000000 
#    y 0.000000 1.681780 0.000000 
#    z 0.000000 0.000000 1.754680 
# 
# From -- ./inp_files/23520.got.cif
#   From: 2010.05.17/outbox.cif.g08.bks.cpg/sg72_12_cif.got.tgz:23520.got - 2010.06.03 17:03:01.
