data_PCOD9525848
_publ_section_title
;
Structure prediction by ZEFSAII (Michael W. Deem and Ramdas Pophale) SiO2 
 PCOD9525848
Probable space group: I B A M
;
_chemical_formula_sum "Si O2"
_cell_formula_units_Z 88
_cell_length_a 13.661259
_cell_length_b 15.556158
_cell_length_c 20.875324
_cell_angle_alpha 90.000000
_cell_angle_beta 90.000000
_cell_angle_gamma 90.000000
_cell_volume 4436.355041
_symmetry_space_group_name_H-M "I B A M"
_symmetry_group_IT_number 72
_symmetry_cell_setting 'orthorhombic'
loop_
_space_group_symop_operation_xyz
x,y,z
-x,-y,z
x,-y,1/2-z
-x,y,1/2-z
-x,-y,-z
x,y,-z
-x,y,1/2+z
x,-y,1/2+z
1/2+x,1/2+y,1/2+z
1/2-x,1/2-y,1/2+z
1/2+x,1/2-y,-z
1/2-x,1/2+y,-z
1/2-x,1/2-y,1/2-z
1/2+x,1/2+y,1/2-z
1/2-x,1/2+y,z
1/2+x,1/2-y,z
loop_
_atom_site_type_symbol
_atom_site_label
_atom_site_fract_x
_atom_site_fract_y
_atom_site_fract_z
Si Si1 0.047185 0.088159 0.610050
Si Si2 0.355322 0.674517 0.072993
Si Si3 0.743397 0.514160 0.926714
Si Si4 0.500000 0.368733 0.250000
Si Si5 0.838264 0.261563 0.700186
Si Si6 0.892489 0.542959 0.186645
O O1 0.043404 0.084684 0.687506
O O2 0.972333 0.160967 0.585759
O O3 0.158448 0.084236 0.587457
O O4 0.000000 0.000000 0.584411
O O5 0.305386 0.580596 0.081399
O O6 0.312603 0.736904 0.127058
O O7 0.340230 0.702601 0.000000
O O8 0.828993 0.524249 0.875780
O O9 0.776015 0.521940 0.000000
O O10 0.584537 0.309293 0.222214
O O11 0.750000 0.250000 0.750000
O O12 0.887965 0.355184 0.699680
O O13 0.846212 0.500000 0.250000
O O14 0.000000 0.500000 0.180154
#
# Coordination Sequence:
#
# PCOD9525848 Si02
#       6
#    16  16  16   8  16  16
#     4   9  17  30  53  84 115 143 180 230 295 363
#     4   9  19  35  56  84 115 144 180 236 300 353
#     4  10  20  36  59  84 113 149 189 238 295 357
#     4  10  19  32  51  80 112 146 190 246 299 344
#     4  11  22  37  59  83 112 151 199 247 292 350
#     4  11  24  41  59  80 112 155 200 243 292 352
#
# _framework density 19.836103000000001
#
# number of rings (size 3 to 8) (size 9 to 14) (size 15 to 20)
#    0.000    2.000    0.000    4.091    0.000    6.182 
#    0.000    0.000    0.000    5.455    0.000    0.000 
#    0.000    0.000    0.000    0.000    0.000    0.000 
#
# Total GULP energy -245461.200771 kJ/mol
# GULP energy per Si atom -5578.663654 kJ/mol
# Density = 1.979096 g / cm^3
# Si number density = 19.836103 Si / 1000 Ang^3
#
#
#
# Elastic Constant Matrix: (Units=GPa)
#
#
# Indices 1 2 3 4 5 6 
#
# 1 91.4764 17.3241 56.9322 0.0000 0.0000 0.0000
# 2 17.3241 69.1012 36.5765 0.0000 0.0000 0.0000
# 3 56.9322 36.5765 160.4964 0.0000 0.0000 0.0000
# 4 0.0000 0.0000 0.0000 5.0431 0.0000 0.0000
# 5 0.0000 0.0000 0.0000 0.0000 29.5344 0.0000
# 6 0.0000 0.0000 0.0000 0.0000 0.0000 24.6547
#
#
#
# Elastic Compliance Matrix: (Units=1/GPa)
#
#
# Indices 1 2 3 4 5 6 
#
# 1 0.014091 -0.001009 -0.004768 0.000000 0.000000 0.000000
# 2 -0.001009 0.016529 -0.003409 0.000000 0.000000 0.000000
# 3 -0.004768 -0.003409 0.008699 0.000000 0.000000 0.000000
# 4 0.000000 0.000000 0.000000 0.198289 0.000000 0.000000
# 5 0.000000 0.000000 0.000000 0.000000 0.033859 0.000000
# 6 0.000000 0.000000 0.000000 0.000000 0.000000 0.040560
#
#
# Mechanical properties :
#
#
# Convention : Reuss Voigt Hill
#
# Bulk Modulus (GPa) = 47.74117 60.30442 54.02279
# Shear Modulus (GPa) = 14.82005 25.86253 20.34129
#
# Velocity S-wave (km/s) = 2.73632 3.61475 3.20577
# Velocity P-wave (km/s) = 5.83981 6.92020 6.40283
#
# Compressibility (1/GPa) = 0.02094628
#
# Stress axis : x y z
#
# Youngs Moduli (GPa) = 70.96977 60.50010 114.95481
#
# Poissons Ratio (x) = 0.06102 0.54815
# Poissons Ratio (y) = 0.07158 0.39189
# Poissons Ratio (z) = 0.33841 0.20625
#
# Static dielectric constant tensor:
#      x y z
#    x 1.701200 0.000000 0.000000 
#    y 0.000000 1.715230 0.000000 
#    z 0.000000 0.000000 1.737820 
# 
# From -- ./inp_files/37914.got.cif
#   From: 2010.05.17/outbox.cif.g08.bks.cpg/sg72_19_cif.got.tgz:37914.got - 2010.06.03 17:03:01.
