data_PCOD9525502
_publ_section_title
;
Structure prediction by ZEFSAII (Michael W. Deem and Ramdas Pophale) SiO2 
 PCOD9525502
Probable space group: I B A M
;
_chemical_formula_sum "Si O2"
_cell_formula_units_Z 116
_cell_length_a 29.002418
_cell_length_b 23.429937
_cell_length_c 7.889455
_cell_angle_alpha 90.000000
_cell_angle_beta 90.000000
_cell_angle_gamma 90.000000
_cell_volume 5361.080541
_symmetry_space_group_name_H-M "I B A M"
_symmetry_group_IT_number 72
_symmetry_cell_setting 'orthorhombic'
loop_
_space_group_symop_operation_xyz
x,y,z
-x,-y,z
x,-y,1/2-z
-x,y,1/2-z
-x,-y,-z
x,y,-z
-x,y,1/2+z
x,-y,1/2+z
1/2+x,1/2+y,1/2+z
1/2-x,1/2-y,1/2+z
1/2+x,1/2-y,-z
1/2-x,1/2+y,-z
1/2-x,1/2-y,1/2-z
1/2+x,1/2+y,1/2-z
1/2-x,1/2+y,z
1/2+x,1/2-y,z
loop_
_atom_site_type_symbol
_atom_site_label
_atom_site_fract_x
_atom_site_fract_y
_atom_site_fract_z
Si Si1 0.448739 0.323369 0.701757
Si Si2 0.679091 0.101139 0.797971
Si Si3 0.052264 0.692017 0.802181
Si Si4 0.301405 0.229161 0.704148
Si Si5 0.500000 0.000000 0.250000
Si Si6 0.850670 0.843038 0.792563
Si Si7 0.720967 0.562297 0.297968
Si Si8 0.917301 0.423819 0.303215
O O1 0.500000 0.342934 0.750000
O O2 0.448076 0.321977 0.500000
O O3 0.441592 0.258276 0.761819
O O4 0.403021 0.356078 0.761381
O O5 0.686197 0.166026 0.730020
O O6 0.727474 0.070467 0.769167
O O7 0.634191 0.067190 0.732381
O O8 0.671288 0.104834 0.000000
O O9 0.080561 0.645008 0.701864
O O10 0.000000 0.679764 0.750000
O O11 0.059556 0.682450 0.000000
O O12 0.303664 0.226323 0.500000
O O13 0.250000 0.250000 0.750000
O O14 0.335494 0.279528 0.761450
O O15 0.459838 0.952674 0.297269
O O16 0.812912 0.888265 0.732740
O O17 0.849611 0.843566 0.000000
O O18 0.703348 0.500000 0.250000
O O19 0.723188 0.567248 0.500000
O O20 0.923592 0.442091 0.500000
#
# Coordination Sequence:
#
# PCOD9525502 Si02
#       8
#    16  16  16  16   4  16  16  16
#     4  10  19  35  59  88 121 154 188 232 288 349
#     4  10  22  39  61  88 118 155 194 246 312 367
#     4  11  21  35  56  82 113 150 191 235 288 350
#     4  10  18  33  57  87 119 152 190 236 297 360
#     4  12  26  40  64  86 106 148 214 268 314 356
#     4   9  19  36  60  86 120 161 193 234 297 355
#     4  11  23  41  62  86 117 156 202 243 289 352
#     4  11  24  42  60  79 110 148 196 255 309 358
#
# _framework density 21.637428
#
# number of rings (size 3 to 8) (size 9 to 14) (size 15 to 20)
#    0.000    1.655    2.069    3.931    0.966    3.310 
#    0.000    5.517    0.000    0.414    0.000    2.897 
#    0.000    0.000    0.000    0.000    0.000    0.000 
#
# Total GULP energy -323554.498540 kJ/mol
# GULP energy per Si atom -5578.525837 kJ/mol
# Density = 2.158818 g / cm^3
# Si number density = 21.637428 Si / 1000 Ang^3
#
#
#
# Elastic Constant Matrix: (Units=GPa)
#
#
# Indices 1 2 3 4 5 6 
#
# 1 167.7034 30.3471 13.0115 0.0000 0.0000 0.0000
# 2 30.3471 68.3297 1.8346 0.0000 0.0000 0.0000
# 3 13.0115 1.8346 54.6078 0.0000 0.0000 0.0000
# 4 0.0000 0.0000 0.0000 15.7571 0.0000 0.0000
# 5 0.0000 0.0000 0.0000 0.0000 17.2819 0.0000
# 6 0.0000 0.0000 0.0000 0.0000 0.0000 61.7696
#
#
#
# Elastic Compliance Matrix: (Units=1/GPa)
#
#
# Indices 1 2 3 4 5 6 
#
# 1 0.006601 -0.002892 -0.001476 0.000000 0.000000 0.000000
# 2 -0.002892 0.015915 0.000154 0.000000 0.000000 0.000000
# 3 -0.001476 0.000154 0.018659 0.000000 0.000000 0.000000
# 4 0.000000 0.000000 0.000000 0.063464 0.000000 0.000000
# 5 0.000000 0.000000 0.000000 0.000000 0.057864 0.000000
# 6 0.000000 0.000000 0.000000 0.000000 0.000000 0.016189
#
#
# Mechanical properties :
#
#
# Convention : Reuss Voigt Hill
#
# Bulk Modulus (GPa) = 30.53585 42.33635 36.43610
# Shear Modulus (GPa) = 25.24818 35.32489 30.28653
#
# Velocity S-wave (km/s) = 3.41966 4.04491 3.74535
# Velocity P-wave (km/s) = 5.45300 6.43613 5.96486
#
# Compressibility (1/GPa) = 0.03274839
#
# Stress axis : x y z
#
# Youngs Moduli (GPa) = 151.49884 62.83316 53.59395
#
# Poissons Ratio (x) = 0.18171 0.07908
# Poissons Ratio (y) = 0.43813 -0.00827
# Poissons Ratio (z) = 0.22355 -0.00970
#
# Static dielectric constant tensor:
#      x y z
#    x 1.814800 0.000000 0.000000 
#    y 0.000000 1.784260 0.000000 
#    z 0.000000 0.000000 1.807380 
# 
# From -- ./inp_files/7253.got.cif
#   From: 2010.05.17/outbox.cif.g08.bks.cpg/sg72_4_cif.got.tgz:7253.got - 2010.06.03 17:03:01.
