data_PCOD9525327
_publ_section_title
;
Structure prediction by ZEFSAII (Michael W. Deem and Ramdas Pophale) SiO2 
 PCOD9525327
Probable space group: I B A M
;
_chemical_formula_sum "Si O2"
_cell_formula_units_Z 104
_cell_length_a 29.910459
_cell_length_b 20.708644
_cell_length_c 8.497399
_cell_angle_alpha 90.000000
_cell_angle_beta 90.000000
_cell_angle_gamma 90.000000
_cell_volume 5263.331830
_symmetry_space_group_name_H-M "I B A M"
_symmetry_group_IT_number 72
_symmetry_cell_setting 'orthorhombic'
loop_
_space_group_symop_operation_xyz
x,y,z
-x,-y,z
x,-y,1/2-z
-x,y,1/2-z
-x,-y,-z
x,y,-z
-x,y,1/2+z
x,-y,1/2+z
1/2+x,1/2+y,1/2+z
1/2-x,1/2-y,1/2+z
1/2+x,1/2-y,-z
1/2-x,1/2+y,-z
1/2-x,1/2-y,1/2-z
1/2+x,1/2+y,1/2-z
1/2-x,1/2+y,z
1/2+x,1/2-y,z
loop_
_atom_site_type_symbol
_atom_site_label
_atom_site_fract_x
_atom_site_fract_y
_atom_site_fract_z
Si Si1 0.129940 0.882153 0.673320
Si Si2 0.450391 0.698606 0.815243
Si Si3 0.314452 0.500000 0.750000
Si Si4 0.696655 0.288675 0.318628
Si Si5 0.619517 0.197244 0.311174
Si Si6 0.253234 0.895393 0.313292
Si Si7 0.149433 0.569850 0.313275
O O1 0.139533 0.852190 0.500000
O O2 0.078238 0.867651 0.704835
O O3 0.157954 0.843578 0.802745
O O4 0.149707 0.953582 0.664820
O O5 0.500000 0.694871 0.750000
O O6 0.420002 0.754454 0.737554
O O7 0.452995 0.712215 0.000000
O O8 0.277944 0.556015 0.710411
O O9 0.709335 0.279515 0.500000
O O10 0.667519 0.228098 0.259590
O O11 0.737038 0.322338 0.224161
O O12 0.621181 0.192214 0.500000
O O13 0.616111 0.127314 0.233702
O O14 0.245434 0.908002 0.500000
O O15 0.303645 0.911861 0.270345
O O16 0.135436 0.500000 0.250000
O O17 0.156039 0.567559 0.500000
#
# Coordination Sequence:
#
# PCOD9525327 Si02
#       7
#    16  16   8  16  16  16  16
#     4   9  19  33  51  77 112 151 192 239 289 343
#     4  10  20  38  63  90 116 146 187 236 294 355
#     4  10  18  30  53  76 110 154 205 244 284 328
#     4   9  18  32  53  80 109 144 189 239 287 334
#     4  10  21  39  61  86 116 148 185 234 290 346
#     4  11  22  35  53  77 111 154 200 245 284 334
#     4  12  25  40  59  82 113 152 193 236 284 340
#
# _framework density 19.759347999999999
#
# number of rings (size 3 to 8) (size 9 to 14) (size 15 to 20)
#    0.000    1.846    0.769    4.615    0.000    8.615 
#    0.000    0.385    0.000    2.308    0.000    3.231 
#    0.000    0.000    0.000    0.000    0.000    0.000 
#
# Total GULP energy -289563.309597 kJ/mol
# GULP energy per Si atom -5568.525185 kJ/mol
# Density = 1.971437 g / cm^3
# Si number density = 19.759348 Si / 1000 Ang^3
#
#
#
# Elastic Constant Matrix: (Units=GPa)
#
#
# Indices 1 2 3 4 5 6 
#
# 1 86.8441 5.1708 13.7717 0.0000 0.0000 0.0000
# 2 5.1708 76.8518 18.3130 0.0000 0.0000 0.0000
# 3 13.7717 18.3130 65.5939 0.0000 0.0000 0.0000
# 4 0.0000 0.0000 0.0000 22.8859 0.0000 0.0000
# 5 0.0000 0.0000 0.0000 0.0000 21.1890 0.0000
# 6 0.0000 0.0000 0.0000 0.0000 0.0000 23.3716
#
#
#
# Elastic Compliance Matrix: (Units=1/GPa)
#
#
# Indices 1 2 3 4 5 6 
#
# 1 0.011915 -0.000220 -0.002440 0.000000 0.000000 0.000000
# 2 -0.000220 0.013943 -0.003847 0.000000 0.000000 0.000000
# 3 -0.002440 -0.003847 0.016832 0.000000 0.000000 0.000000
# 4 0.000000 0.000000 0.000000 0.043695 0.000000 0.000000
# 5 0.000000 0.000000 0.000000 0.000000 0.047194 0.000000
# 6 0.000000 0.000000 0.000000 0.000000 0.000000 0.042787
#
#
# Mechanical properties :
#
#
# Convention : Reuss Voigt Hill
#
# Bulk Modulus (GPa) = 33.69712 33.75563 33.72638
# Shear Modulus (GPa) = 25.09134 26.29161 25.69148
#
# Velocity S-wave (km/s) = 3.56736 3.65168 3.60977
# Velocity P-wave (km/s) = 5.83599 5.90764 5.87193
#
# Compressibility (1/GPa) = 0.02967612
#
# Stress axis : x y z
#
# Youngs Moduli (GPa) = 83.92814 71.71815 59.41223
#
# Poissons Ratio (x) = 0.01579 0.14497
# Poissons Ratio (y) = 0.01848 0.22853
# Poissons Ratio (z) = 0.20479 0.27587
#
# Static dielectric constant tensor:
#      x y z
#    x 1.696710 0.000000 0.000000 
#    y 0.000000 1.753110 0.000000 
#    z 0.000000 0.000000 1.774570 
# 
# From -- ./inp_files/9216.got.cif
#   From: 2010.05.17/outbox.cif.g08.bks.cpg/sg72_5_cif.got.tgz:9216.got - 2010.06.03 17:03:01.
