data_PCOD9525391
_publ_section_title
;
Structure prediction by ZEFSAII (Michael W. Deem and Ramdas Pophale) SiO2 
 PCOD9525391
Probable space group: I B A M
;
_chemical_formula_sum "Si O2"
_cell_formula_units_Z 112
_cell_length_a 26.525550
_cell_length_b 12.401908
_cell_length_c 14.343194
_cell_angle_alpha 90.000000
_cell_angle_beta 90.000000
_cell_angle_gamma 90.000000
_cell_volume 4718.443679
_symmetry_space_group_name_H-M "I B A M"
_symmetry_group_IT_number 72
_symmetry_cell_setting 'orthorhombic'
loop_
_space_group_symop_operation_xyz
x,y,z
-x,-y,z
x,-y,1/2-z
-x,y,1/2-z
-x,-y,-z
x,y,-z
-x,y,1/2+z
x,-y,1/2+z
1/2+x,1/2+y,1/2+z
1/2-x,1/2-y,1/2+z
1/2+x,1/2-y,-z
1/2-x,1/2+y,-z
1/2-x,1/2-y,1/2-z
1/2+x,1/2+y,1/2-z
1/2-x,1/2+y,z
1/2+x,1/2-y,z
loop_
_atom_site_type_symbol
_atom_site_label
_atom_site_fract_x
_atom_site_fract_y
_atom_site_fract_z
Si Si1 0.899379 0.063530 0.886153
Si Si2 0.601716 0.314960 0.886003
Si Si3 0.811370 0.774896 0.611693
Si Si4 0.299394 0.191275 0.395193
Si Si5 0.012930 0.217222 0.386852
Si Si6 0.450513 0.048955 0.146387
Si Si7 0.659043 0.028444 0.358862
O O1 0.854351 0.142522 0.854331
O O2 0.953488 0.114138 0.858911
O O3 0.892016 0.939854 0.858040
O O4 0.899259 0.063442 0.000000
O O5 0.649365 0.243116 0.853417
O O6 0.545352 0.280429 0.855735
O O7 0.600882 0.309126 0.000000
O O8 0.809273 0.793523 0.500000
O O9 0.754975 0.790994 0.649724
O O10 0.825552 0.650989 0.626989
O O11 0.296558 0.238164 0.500000
O O12 0.306525 0.063374 0.401280
O O13 0.012657 0.219624 0.500000
O O14 0.042015 0.323433 0.353530
O O15 0.397596 0.017160 0.103536
O O16 0.500000 0.000000 0.100498
O O17 0.449123 0.000000 0.250000
O O18 0.659022 0.000000 0.250000
#
# Coordination Sequence:
#
# PCOD9525391 Si02
#       7
#    16  16  16  16  16  16  16
#     4   9  17  31  53  83 114 147 185 232 289 344
#     4   9  18  32  53  85 119 147 185 239 297 347
#     4  10  21  37  60  86 114 151 196 243 289 349
#     4  10  22  37  59  87 116 150 191 243 293 349
#     4  10  18  31  54  86 117 146 189 243 292 345
#     4  10  21  36  54  80 112 160 194 228 282 340
#     4  11  23  39  59  84 116 156 196 240 291 345
#
# _framework density 23.736640000000001
#
# number of rings (size 3 to 8) (size 9 to 14) (size 15 to 20)
#    0.000    2.143    1.429    1.714    2.000    3.143 
#    0.000    0.000    0.000    0.000    0.000    4.000 
#    0.000    0.000    0.000    0.000    0.000    0.571 
#
# Total GULP energy -313117.329333 kJ/mol
# GULP energy per Si atom -5591.380881 kJ/mol
# Density = 2.368261 g / cm^3
# Si number density = 23.736640 Si / 1000 Ang^3
#
#
#
# Elastic Constant Matrix: (Units=GPa)
#
#
# Indices 1 2 3 4 5 6 
#
# 1 159.9834 16.3589 5.4078 0.0000 0.0000 0.0000
# 2 16.3589 65.5658 -6.6483 0.0000 0.0000 0.0000
# 3 5.4078 -6.6483 76.3635 0.0000 0.0000 0.0000
# 4 0.0000 0.0000 0.0000 24.9514 0.0000 0.0000
# 5 0.0000 0.0000 0.0000 0.0000 -3.3247 0.0000
# 6 0.0000 0.0000 0.0000 0.0000 0.0000 32.7880
#
#
#
# Elastic Compliance Matrix: (Units=1/GPa)
#
#
# Indices 1 2 3 4 5 6 
#
# 1 0.006442 -0.001668 -0.000601 0.000000 0.000000 0.000000
# 2 -0.001668 0.015820 0.001495 0.000000 0.000000 0.000000
# 3 -0.000601 0.001495 0.013268 0.000000 0.000000 0.000000
# 4 0.000000 0.000000 0.000000 0.040078 0.000000 0.000000
# 5 0.000000 0.000000 0.000000 0.000000 -0.300783 0.000000
# 6 0.000000 0.000000 0.000000 0.000000 0.000000 0.030499
#
#
# Mechanical properties :
#
#
# Convention : Reuss Voigt Hill
#
# Bulk Modulus (GPa) = 29.42823 36.90550 33.16687
# Shear Modulus (GPa) = -27.50254 30.00257 1.25001
#
# Velocity S-wave (km/s) = -3.40759 3.55910 0.72647
# Velocity P-wave (km/s) = 1.74858 5.69836 3.83495
#
# Compressibility (1/GPa) = 0.03398097
#
# Stress axis : x y z
#
# Youngs Moduli (GPa) = 155.24201 63.21232 75.36907
#
# Poissons Ratio (x) = 0.10545 0.04533
# Poissons Ratio (y) = 0.25897 -0.11271
# Poissons Ratio (z) = 0.09336 -0.09453
#
# Static dielectric constant tensor:
#      x y z
#    x 1.896850 0.000000 0.000000 
#    y 0.000000 1.924500 0.000000 
#    z 0.000000 0.000000 1.901400 
# 
# From -- ./inp_files/40344.got.cif
#   From: 2010.05.17/outbox.cif.g08.bks.cpg/sg72_21_cif.got.tgz:40344.got - 2010.06.03 17:03:01.
