data_PCOD9525117
_publ_section_title
;
Structure prediction by ZEFSAII (Michael W. Deem and Ramdas Pophale) SiO2 
 PCOD9525117
Probable space group: I B A M
;
_chemical_formula_sum "Si O2"
_cell_formula_units_Z 60
_cell_length_a 18.901295
_cell_length_b 9.889645
_cell_length_c 16.981227
_cell_angle_alpha 90.000000
_cell_angle_beta 90.000000
_cell_angle_gamma 90.000000
_cell_volume 3174.251477
_symmetry_space_group_name_H-M "I B A M"
_symmetry_group_IT_number 72
_symmetry_cell_setting 'orthorhombic'
loop_
_space_group_symop_operation_xyz
x,y,z
-x,-y,z
x,-y,1/2-z
-x,y,1/2-z
-x,-y,-z
x,y,-z
-x,y,1/2+z
x,-y,1/2+z
1/2+x,1/2+y,1/2+z
1/2-x,1/2-y,1/2+z
1/2+x,1/2-y,-z
1/2-x,1/2+y,-z
1/2-x,1/2-y,1/2-z
1/2+x,1/2+y,1/2-z
1/2-x,1/2+y,z
1/2+x,1/2-y,z
loop_
_atom_site_type_symbol
_atom_site_label
_atom_site_fract_x
_atom_site_fract_y
_atom_site_fract_z
Si Si1 0.110536 0.794276 0.743452
Si Si2 0.164297 0.148452 0.585689
Si Si3 0.740380 0.385326 0.139478
Si Si4 0.360596 0.000000 0.250000
Si Si5 0.500000 0.500000 0.750000
O O1 0.116600 0.825434 0.836915
O O2 0.186567 0.830719 0.706261
O O3 0.096977 0.636066 0.730880
O O4 0.052732 0.895121 0.707521
O O5 0.129962 0.164755 0.500000
O O6 0.227501 0.258504 0.593508
O O7 0.197935 0.999683 0.593065
O O8 0.807386 0.457924 0.180082
#
# Coordination Sequence:
#
# PCOD9525117 Si02
#       5
#    16  16  16   8   4
#     4  11  21  35  58  79 110 150 192 227 263 331
#     4  11  20  31  53  87 116 137 170 229 293 339
#     4  11  17  35  55  84 109 143 179 224 287 343
#     4  10  17  33  58  77 107 134 178 232 288 308
#     4  12  22  38  58  80 102 150 218 226 240 318
#
# _framework density 18.902094000000002
#
# number of rings (size 3 to 8) (size 9 to 14) (size 15 to 20)
#    0.000    1.067    8.000    2.400    0.000    0.533 
#    0.000    0.667    0.000    0.000    0.000    3.733 
#    0.000    0.000    0.000    0.000    0.000    0.000 
#
# Total GULP energy -167213.975416 kJ/mol
# GULP energy per Si atom -5573.799181 kJ/mol
# Density = 1.885907 g / cm^3
# Si number density = 18.902094 Si / 1000 Ang^3
#
#
#
# Elastic Constant Matrix: (Units=GPa)
#
#
# Indices 1 2 3 4 5 6 
#
# 1 51.0911 32.9391 1.4667 0.0000 0.0000 0.0000
# 2 32.9391 168.9455 15.9738 0.0000 0.0000 0.0000
# 3 1.4667 15.9738 92.5839 0.0000 0.0000 0.0000
# 4 0.0000 0.0000 0.0000 8.3606 0.0000 0.0000
# 5 0.0000 0.0000 0.0000 0.0000 4.7736 0.0000
# 6 0.0000 0.0000 0.0000 0.0000 0.0000 23.7666
#
#
#
# Elastic Compliance Matrix: (Units=1/GPa)
#
#
# Indices 1 2 3 4 5 6 
#
# 1 0.022402 -0.004406 0.000405 0.000000 0.000000 0.000000
# 2 -0.004406 0.006884 -0.001118 0.000000 0.000000 0.000000
# 3 0.000405 -0.001118 0.010987 0.000000 0.000000 0.000000
# 4 0.000000 0.000000 0.000000 0.119608 0.000000 0.000000
# 5 0.000000 0.000000 0.000000 0.000000 0.209487 0.000000
# 6 0.000000 0.000000 0.000000 0.000000 0.000000 0.042076
#
#
# Mechanical properties :
#
#
# Convention : Reuss Voigt Hill
#
# Bulk Modulus (GPa) = 33.29341 45.93106 39.61224
# Shear Modulus (GPa) = 11.58229 24.86289 18.22259
#
# Velocity S-wave (km/s) = 2.47807 3.63071 3.10829
# Velocity P-wave (km/s) = 5.08327 6.47521 5.82099
#
# Compressibility (1/GPa) = 0.03003597
#
# Stress axis : x y z
#
# Youngs Moduli (GPa) = 44.63915 145.26870 91.01276
#
# Poissons Ratio (x) = 0.64005 -0.03689
# Poissons Ratio (y) = 0.19668 0.10174
# Poissons Ratio (z) = -0.01809 0.16239
#
# Static dielectric constant tensor:
#      x y z
#    x 1.668540 0.000000 0.000000 
#    y 0.000000 1.704520 0.000000 
#    z 0.000000 0.000000 1.768920 
# 
# From -- ./inp_files/27919.got.cif
#   From: 2010.05.17/outbox.cif.g08.bks.cpg/sg72_14_cif.got.tgz:27919.got - 2010.06.03 17:03:01.
