data_PCOD9525670
_publ_section_title
;
Structure prediction by ZEFSAII (Michael W. Deem and Ramdas Pophale) SiO2 
 PCOD9525670
Probable space group: I B A M
;
_chemical_formula_sum "Si O2"
_cell_formula_units_Z 112
_cell_length_a 17.610589
_cell_length_b 27.663429
_cell_length_c 14.377886
_cell_angle_alpha 90.000000
_cell_angle_beta 90.000000
_cell_angle_gamma 90.000000
_cell_volume 7004.464348
_symmetry_space_group_name_H-M "I B A M"
_symmetry_group_IT_number 72
_symmetry_cell_setting 'orthorhombic'
loop_
_space_group_symop_operation_xyz
x,y,z
-x,-y,z
x,-y,1/2-z
-x,y,1/2-z
-x,-y,-z
x,y,-z
-x,y,1/2+z
x,-y,1/2+z
1/2+x,1/2+y,1/2+z
1/2-x,1/2-y,1/2+z
1/2+x,1/2-y,-z
1/2-x,1/2+y,-z
1/2-x,1/2-y,1/2-z
1/2+x,1/2+y,1/2-z
1/2-x,1/2+y,z
1/2+x,1/2-y,z
loop_
_atom_site_type_symbol
_atom_site_label
_atom_site_fract_x
_atom_site_fract_y
_atom_site_fract_z
Si Si1 0.000183 0.408502 0.108064
Si Si2 0.437059 0.195746 0.607926
Si Si3 0.737772 0.162348 0.392840
Si Si4 0.602881 0.757558 0.104328
Si Si5 0.342091 0.073086 0.803026
Si Si6 0.332362 0.268327 0.718980
Si Si7 0.855281 0.530991 0.107182
O O1 0.050777 0.360874 0.127320
O O2 0.055219 0.454777 0.111190
O O3 0.929210 0.411069 0.176588
O O4 0.972442 0.403342 0.000000
O O5 0.414279 0.200323 0.500000
O O6 0.520194 0.219502 0.618829
O O7 0.377755 0.224908 0.669706
O O8 0.751053 0.150830 0.500000
O O9 0.666034 0.199770 0.390075
O O10 0.712092 0.115029 0.338583
O O11 0.811446 0.188159 0.349206
O O12 0.622251 0.720770 0.186632
O O13 0.606815 0.737389 0.000000
O O14 0.324978 0.061355 0.695366
O O15 0.338176 0.024036 0.864327
O O16 0.250000 0.250000 0.750000
O O17 0.831806 0.541122 0.000000
#
# Coordination Sequence:
#
# PCOD9525670 Si02
#       7
#    16  16  16  16  16  16  16
#     4  10  19  30  48  70  93 121 165 213 249 283
#     4  10  19  32  51  72  94 128 170 213 248 289
#     4  10  19  33  50  69  93 125 170 206 242 297
#     4   9  18  32  49  69  92 124 165 204 243 292
#     4  11  20  33  52  66  91 132 165 206 250 289
#     4  10  21  31  45  68  95 128 160 209 250 294
#     4  10  22  33  44  69  96 120 162 213 253 285
#
# _framework density 15.989801999999999
#
# number of rings (size 3 to 8) (size 9 to 14) (size 15 to 20)
#    0.000    2.000    1.429    3.000    4.000    4.000 
#    0.000    0.714    0.000    0.000    0.000    0.000 
#    0.000    0.000    0.000   10.286    1.143   66.286 
#
# Total GULP energy -312220.957905 kJ/mol
# GULP energy per Si atom -5575.374248 kJ/mol
# Density = 1.595341 g / cm^3
# Si number density = 15.989802 Si / 1000 Ang^3
#
#
#
# Elastic Constant Matrix: (Units=GPa)
#
#
# Indices 1 2 3 4 5 6 
#
# 1 19.3321 9.0354 18.6345 0.0000 0.0000 0.0000
# 2 9.0354 46.9722 37.3573 0.0000 0.0000 0.0000
# 3 18.6345 37.3573 123.3111 0.0000 0.0000 0.0000
# 4 0.0000 0.0000 0.0000 23.3037 0.0000 0.0000
# 5 0.0000 0.0000 0.0000 0.0000 24.6594 0.0000
# 6 0.0000 0.0000 0.0000 0.0000 0.0000 18.2381
#
#
#
# Elastic Compliance Matrix: (Units=1/GPa)
#
#
# Indices 1 2 3 4 5 6 
#
# 1 0.061752 -0.005871 -0.007553 0.000000 0.000000 0.000000
# 2 -0.005871 0.028605 -0.007779 0.000000 0.000000 0.000000
# 3 -0.007553 -0.007779 0.011608 0.000000 0.000000 0.000000
# 4 0.000000 0.000000 0.000000 0.042912 0.000000 0.000000
# 5 0.000000 0.000000 0.000000 0.000000 0.040552 0.000000
# 6 0.000000 0.000000 0.000000 0.000000 0.000000 0.054830
#
#
# Mechanical properties :
#
#
# Convention : Reuss Voigt Hill
#
# Bulk Modulus (GPa) = 16.79024 35.51886 26.15455
# Shear Modulus (GPa) = 16.52794 21.54613 19.03704
#
# Velocity S-wave (km/s) = 3.21854 3.67480 3.45421
# Velocity P-wave (km/s) = 4.93309 6.34565 5.68342
#
# Compressibility (1/GPa) = 0.05955841
#
# Stress axis : x y z
#
# Youngs Moduli (GPa) = 16.19379 34.95887 86.15092
#
# Poissons Ratio (x) = 0.20526 0.65070
# Poissons Ratio (y) = 0.09508 0.67014
# Poissons Ratio (z) = 0.12231 0.27193
#
# Static dielectric constant tensor:
#      x y z
#    x 1.505910 0.000000 0.000000 
#    y 0.000000 1.543430 0.000000 
#    z 0.000000 0.000000 1.616410 
# 
# From -- ./inp_files/22314.got.cif
#   From: 2010.05.17/outbox.cif.g08.bks.cpg/sg72_12_cif.got.tgz:22314.got - 2010.06.03 17:03:01.
