data_PCOD9525211
_publ_section_title
;
Structure prediction by ZEFSAII (Michael W. Deem and Ramdas Pophale) SiO2 
 PCOD9525211
Probable space group: I B A M
;
_chemical_formula_sum "Si O2"
_cell_formula_units_Z 96
_cell_length_a 24.892252
_cell_length_b 31.019427
_cell_length_c 8.478188
_cell_angle_alpha 90.000000
_cell_angle_beta 90.000000
_cell_angle_gamma 90.000000
_cell_volume 6546.376855
_symmetry_space_group_name_H-M "I B A M"
_symmetry_group_IT_number 72
_symmetry_cell_setting 'orthorhombic'
loop_
_space_group_symop_operation_xyz
x,y,z
-x,-y,z
x,-y,1/2-z
-x,y,1/2-z
-x,-y,-z
x,y,-z
-x,y,1/2+z
x,-y,1/2+z
1/2+x,1/2+y,1/2+z
1/2-x,1/2-y,1/2+z
1/2+x,1/2-y,-z
1/2-x,1/2+y,-z
1/2-x,1/2-y,1/2-z
1/2+x,1/2+y,1/2-z
1/2-x,1/2+y,z
1/2+x,1/2-y,z
loop_
_atom_site_type_symbol
_atom_site_label
_atom_site_fract_x
_atom_site_fract_y
_atom_site_fract_z
Si Si1 0.556867 0.714487 0.310884
Si Si2 0.671265 0.721905 0.189277
Si Si3 0.554918 0.186830 0.810989
Si Si4 0.141284 0.618378 0.689352
Si Si5 0.941046 0.548863 0.311613
Si Si6 0.282556 0.814589 0.689146
O O1 0.500000 0.695472 0.250000
O O2 0.555833 0.713239 0.500000
O O3 0.615839 0.701082 0.252058
O O4 0.557073 0.764333 0.252238
O O5 0.682407 0.772023 0.242561
O O6 0.722880 0.695987 0.250599
O O7 0.670059 0.722071 0.000000
O O8 0.500000 0.167324 0.750000
O O9 0.602212 0.156960 0.755871
O O10 0.555459 0.188056 0.000000
O O11 0.142487 0.615457 0.500000
O O12 0.110252 0.576530 0.753475
O O13 0.197012 0.639056 0.748204
O O14 0.935411 0.500000 0.250000
O O15 0.942745 0.549498 0.500000
O O16 0.000000 0.564194 0.250000
O O17 0.283920 0.815001 0.500000
#
# Coordination Sequence:
#
# PCOD9525211 Si02
#       6
#    16  16  16  16  16  16
#     4  10  18  29  42  59  81 108 141 178 218 261
#     4  10  19  31  45  61  84 113 145 182 224 267
#     4   9  18  27  38  55  78 104 133 171 216 258
#     4  11  20  32  47  66  87 110 142 182 224 270
#     4  11  22  37  53  70  90 116 148 185 233 284
#     4  10  20  31  45  63  84 113 146 181 222 268
#
# _framework density 14.6646
#
# number of rings (size 3 to 8) (size 9 to 14) (size 15 to 20)
#    0.000    1.833    1.667    4.500    0.000    4.667 
#    0.000    0.000    0.000    0.000    0.000    0.000 
#    0.000    0.000    0.000    0.000    0.000    0.833 
#
# Total GULP energy -267280.923516 kJ/mol
# GULP energy per Si atom -5568.352573 kJ/mol
# Density = 1.463122 g / cm^3
# Si number density = 14.664600 Si / 1000 Ang^3
#
#
#
# Elastic Constant Matrix: (Units=GPa)
#
#
# Indices 1 2 3 4 5 6 
#
# 1 109.8785 33.0303 31.3881 0.0000 0.0000 0.0000
# 2 33.0303 51.9441 20.1167 0.0000 0.0000 0.0000
# 3 31.3881 20.1167 60.2052 0.0000 0.0000 0.0000
# 4 0.0000 0.0000 0.0000 16.4125 0.0000 0.0000
# 5 0.0000 0.0000 0.0000 0.0000 26.5711 0.0000
# 6 0.0000 0.0000 0.0000 0.0000 0.0000 22.3220
#
#
#
# Elastic Compliance Matrix: (Units=1/GPa)
#
#
# Indices 1 2 3 4 5 6 
#
# 1 0.012154 -0.006059 -0.004312 0.000000 0.000000 0.000000
# 2 -0.006059 0.025133 -0.005239 0.000000 0.000000 0.000000
# 3 -0.004312 -0.005239 0.020609 0.000000 0.000000 0.000000
# 4 0.000000 0.000000 0.000000 0.060929 0.000000 0.000000
# 5 0.000000 0.000000 0.000000 0.000000 0.037635 0.000000
# 6 0.000000 0.000000 0.000000 0.000000 0.000000 0.044799
#
#
# Mechanical properties :
#
#
# Convention : Reuss Voigt Hill
#
# Bulk Modulus (GPa) = 37.48705 43.45532 40.47118
# Shear Modulus (GPa) = 20.71508 22.22732 21.47120
#
# Velocity S-wave (km/s) = 3.76252 3.89744 3.83057
# Velocity P-wave (km/s) = 6.67037 7.06757 6.87184
#
# Compressibility (1/GPa) = 0.02667588
#
# Stress axis : x y z
#
# Youngs Moduli (GPa) = 82.27735 39.78832 48.52339
#
# Poissons Ratio (x) = 0.24106 0.20924
# Poissons Ratio (y) = 0.49848 0.25422
# Poissons Ratio (z) = 0.35479 0.20846
#
# Static dielectric constant tensor:
#      x y z
#    x 1.559710 0.000000 0.000000 
#    y 0.000000 1.485170 0.000000 
#    z 0.000000 0.000000 1.492550 
# 
# From -- ./inp_files/7088.got.cif
#   From: 2010.05.17/outbox.cif.g08.bks.cpg/sg72_4_cif.got.tgz:7088.got - 2010.06.03 17:03:01.
