data_PCOD9525226
_publ_section_title
;
Structure prediction by ZEFSAII (Michael W. Deem and Ramdas Pophale) SiO2 
 PCOD9525226
Probable space group: I B A M
;
_chemical_formula_sum "Si O2"
_cell_formula_units_Z 60
_cell_length_a 5.367246
_cell_length_b 14.511576
_cell_length_c 37.301415
_cell_angle_alpha 90.000000
_cell_angle_beta 90.000000
_cell_angle_gamma 90.000000
_cell_volume 2905.302705
_symmetry_space_group_name_H-M "I B A M"
_symmetry_group_IT_number 72
_symmetry_cell_setting 'orthorhombic'
loop_
_space_group_symop_operation_xyz
x,y,z
-x,-y,z
x,-y,1/2-z
-x,y,1/2-z
-x,-y,-z
x,y,-z
-x,y,1/2+z
x,-y,1/2+z
1/2+x,1/2+y,1/2+z
1/2-x,1/2-y,1/2+z
1/2+x,1/2-y,-z
1/2-x,1/2+y,-z
1/2-x,1/2-y,1/2-z
1/2+x,1/2+y,1/2-z
1/2-x,1/2+y,z
1/2+x,1/2-y,z
loop_
_atom_site_type_symbol
_atom_site_label
_atom_site_fract_x
_atom_site_fract_y
_atom_site_fract_z
Si Si1 0.769848 0.097879 0.815771
Si Si2 0.772309 0.607673 0.345775
Si Si3 0.359454 0.187889 0.000000
Si Si4 0.000000 0.000000 0.750000
Si Si5 0.653723 0.187931 0.421954
O O1 0.502888 0.142532 0.821796
O O2 0.006824 0.147569 0.833227
O O3 0.749164 0.000863 0.837249
O O4 0.835630 0.064834 0.775768
O O5 0.827015 0.624873 0.387154
O O6 0.342202 0.139706 0.961204
O O7 0.623303 0.242031 0.000000
O O8 0.396015 0.245410 0.420142
#
# Coordination Sequence:
#
# PCOD9525226 Si02
#       5
#    16  16   8   4  16
#     4   9  18  29  48  68  89 113 145 185 223 264
#     4   9  17  29  43  68  92 115 144 183 224 261
#     4   8  16  28  42  64  86 114 154 188 216 244
#     4   8  16  30  48  74  88 108 148 190 228 248
#     4  10  18  29  47  67  91 119 150 187 221 259
#
# _framework density 20.651893999999999
#
# number of rings (size 3 to 8) (size 9 to 14) (size 15 to 20)
#    0.000    3.200    0.000    1.600    0.000    8.533 
#    0.000    0.000    0.000    6.400    0.000   98.933 
#    0.000    0.000    0.000    0.000    0.000    0.000 
#
# Total GULP energy -167002.962034 kJ/mol
# GULP energy per Si atom -5566.765401 kJ/mol
# Density = 2.060489 g / cm^3
# Si number density = 20.651894 Si / 1000 Ang^3
#
#
#
# Elastic Constant Matrix: (Units=GPa)
#
#
# Indices 1 2 3 4 5 6 
#
# 1 178.7801 0.7035 25.4012 0.0000 0.0000 0.0000
# 2 0.7035 44.4965 20.7955 0.0000 0.0000 0.0000
# 3 25.4012 20.7955 199.9229 0.0000 0.0000 0.0000
# 4 0.0000 0.0000 0.0000 -13.3669 0.0000 0.0000
# 5 0.0000 0.0000 0.0000 0.0000 29.0244 0.0000
# 6 0.0000 0.0000 0.0000 0.0000 0.0000 -2.0991
#
#
#
# Elastic Compliance Matrix: (Units=1/GPa)
#
#
# Indices 1 2 3 4 5 6 
#
# 1 0.005699 0.000261 -0.000751 0.000000 0.000000 0.000000
# 2 0.000261 0.023634 -0.002492 0.000000 0.000000 0.000000
# 3 -0.000751 -0.002492 0.005357 0.000000 0.000000 0.000000
# 4 0.000000 0.000000 0.000000 -0.074812 0.000000 0.000000
# 5 0.000000 0.000000 0.000000 0.000000 0.034454 0.000000
# 6 0.000000 0.000000 0.000000 0.000000 0.000000 -0.476395
#
#
# Mechanical properties :
#
#
# Convention : Reuss Voigt Hill
#
# Bulk Modulus (GPa) = 34.81153 57.44444 46.12798
# Shear Modulus (GPa) = -10.71757 27.79829 8.54036
#
# Velocity S-wave (km/s) = -2.28055 3.67282 2.03577
# Velocity P-wave (km/s) = 3.15569 6.77216 5.28302
#
# Compressibility (1/GPa) = 0.02872612
#
# Stress axis : x y z
#
# Youngs Moduli (GPa) = 175.46393 42.31203 186.68764
#
# Poissons Ratio (x) = -0.01104 0.14025
# Poissons Ratio (y) = -0.04580 0.46513
# Poissons Ratio (z) = 0.13182 0.10542
#
# Static dielectric constant tensor:
#      x y z
#    x 1.898670 0.000000 0.000000 
#    y 0.000000 1.659020 0.000000 
#    z 0.000000 0.000000 1.753680 
# 
# From -- ./inp_files/41348.got.cif
#   From: 2010.05.17/outbox.cif.g08.bks.cpg/sg72_21_cif.got.tgz:41348.got - 2010.06.03 17:03:01.
