data_PCOD9525177
_publ_section_title
;
Structure prediction by ZEFSAII (Michael W. Deem and Ramdas Pophale) SiO2 
 PCOD9525177
Probable space group: I B A M
;
_chemical_formula_sum "Si O2"
_cell_formula_units_Z 96
_cell_length_a 27.191234
_cell_length_b 30.301323
_cell_length_c 7.962036
_cell_angle_alpha 90.000000
_cell_angle_beta 90.000000
_cell_angle_gamma 90.000000
_cell_volume 6560.163221
_symmetry_space_group_name_H-M "I B A M"
_symmetry_group_IT_number 72
_symmetry_cell_setting 'orthorhombic'
loop_
_space_group_symop_operation_xyz
x,y,z
-x,-y,z
x,-y,1/2-z
-x,y,1/2-z
-x,-y,-z
x,y,-z
-x,y,1/2+z
x,-y,1/2+z
1/2+x,1/2+y,1/2+z
1/2-x,1/2-y,1/2+z
1/2+x,1/2-y,-z
1/2-x,1/2+y,-z
1/2-x,1/2-y,1/2-z
1/2+x,1/2+y,1/2-z
1/2-x,1/2+y,z
1/2+x,1/2-y,z
loop_
_atom_site_type_symbol
_atom_site_label
_atom_site_fract_x
_atom_site_fract_y
_atom_site_fract_z
Si Si1 0.054618 0.140925 0.700406
Si Si2 0.849830 0.193553 0.699811
Si Si3 0.791336 0.048392 0.202584
Si Si4 0.095012 0.048319 0.298035
Si Si5 0.798686 0.722476 0.797783
Si Si6 0.246023 0.860543 0.801172
O O1 0.058006 0.139923 0.500000
O O2 0.097451 0.173040 0.763040
O O3 0.065764 0.091066 0.764333
O O4 0.000000 0.154482 0.750000
O O5 0.841269 0.192266 0.500000
O O6 0.841991 0.244424 0.757513
O O7 0.806933 0.163511 0.780377
O O8 0.848193 0.051708 0.262444
O O9 0.760667 0.090187 0.267993
O O10 0.772709 0.000000 0.250000
O O11 0.792892 0.051118 0.000000
O O12 0.095903 0.049995 0.500000
O O13 0.075694 0.000000 0.250000
O O14 0.750000 0.750000 0.750000
O O15 0.787145 0.673293 0.731518
O O16 0.801612 0.719008 0.000000
O O17 0.255406 0.864823 0.000000
#
# Coordination Sequence:
#
# PCOD9525177 Si02
#       6
#    16  16  16  16  16  16
#     4  11  22  35  46  58  74  97 127 161 203 244
#     4  10  18  28  42  61  79  97 123 158 195 233
#     4   9  16  26  39  56  76 102 130 157 193 230
#     4   9  18  31  44  56  71  94 125 161 202 240
#     4   8  15  25  40  60  79  98 122 151 187 228
#     4   9  15  27  43  58  79 104 127 155 190 229
#
# _framework density 14.633782
#
# number of rings (size 3 to 8) (size 9 to 14) (size 15 to 20)
#    0.000    2.667    1.667    1.000    0.000    3.000 
#    0.000    1.667    0.000    0.000    0.000    0.000 
#    0.000    0.000    0.000    0.000    0.000    0.833 
#
# Total GULP energy -267229.735815 kJ/mol
# GULP energy per Si atom -5567.286163 kJ/mol
# Density = 1.460047 g / cm^3
# Si number density = 14.633782 Si / 1000 Ang^3
#
#
#
# Elastic Constant Matrix: (Units=GPa)
#
#
# Indices 1 2 3 4 5 6 
#
# 1 47.5324 46.7986 -4.6190 0.0000 0.0000 0.0000
# 2 46.7986 106.6189 -4.7340 0.0000 0.0000 0.0000
# 3 -4.6190 -4.7340 9.4164 0.0000 0.0000 0.0000
# 4 0.0000 0.0000 0.0000 12.7179 0.0000 0.0000
# 5 0.0000 0.0000 0.0000 0.0000 9.4410 0.0000
# 6 0.0000 0.0000 0.0000 0.0000 0.0000 20.0962
#
#
#
# Elastic Compliance Matrix: (Units=1/GPa)
#
#
# Indices 1 2 3 4 5 6 
#
# 1 0.038038 -0.016230 0.010499 0.000000 0.000000 0.000000
# 2 -0.016230 0.016518 0.000343 0.000000 0.000000 0.000000
# 3 0.010499 0.000343 0.111520 0.000000 0.000000 0.000000
# 4 0.000000 0.000000 0.000000 0.078629 0.000000 0.000000
# 5 0.000000 0.000000 0.000000 0.000000 0.105920 0.000000
# 6 0.000000 0.000000 0.000000 0.000000 0.000000 0.049761
#
#
# Mechanical properties :
#
#
# Convention : Reuss Voigt Hill
#
# Bulk Modulus (GPa) = 6.43911 26.49545 16.46728
# Shear Modulus (GPa) = 10.80080 16.85918 13.82999
#
# Velocity S-wave (km/s) = 2.71970 3.39790 3.07754
# Velocity P-wave (km/s) = 3.77784 5.79131 4.88934
#
# Compressibility (1/GPa) = 0.15530092
#
# Stress axis : x y z
#
# Youngs Moduli (GPa) = 26.28952 60.53888 8.96701
#
# Poissons Ratio (x) = 0.98254 -0.09415
# Poissons Ratio (y) = 0.42668 -0.00308
# Poissons Ratio (z) = -0.27602 -0.02077
#
# Static dielectric constant tensor:
#      x y z
#    x 1.471610 0.000000 0.000000 
#    y 0.000000 1.541610 0.000000 
#    z 0.000000 0.000000 1.512360 
# 
# From -- ./inp_files/8457.got.cif
#   From: 2010.05.17/outbox.cif.g08.bks.cpg/sg72_5_cif.got.tgz:8457.got - 2010.06.03 17:03:01.
