data_PCOD9525826
_publ_section_title
;
Structure prediction by ZEFSAII (Michael W. Deem and Ramdas Pophale) SiO2 
 PCOD9525826
Probable space group: I B A M
;
_chemical_formula_sum "Si O2"
_cell_formula_units_Z 112
_cell_length_a 11.595672
_cell_length_b 23.499222
_cell_length_c 23.363873
_cell_angle_alpha 90.000000
_cell_angle_beta 90.000000
_cell_angle_gamma 90.000000
_cell_volume 6366.404711
_symmetry_space_group_name_H-M "I B A M"
_symmetry_group_IT_number 72
_symmetry_cell_setting 'orthorhombic'
loop_
_space_group_symop_operation_xyz
x,y,z
-x,-y,z
x,-y,1/2-z
-x,y,1/2-z
-x,-y,-z
x,y,-z
-x,y,1/2+z
x,-y,1/2+z
1/2+x,1/2+y,1/2+z
1/2-x,1/2-y,1/2+z
1/2+x,1/2-y,-z
1/2-x,1/2+y,-z
1/2-x,1/2-y,1/2-z
1/2+x,1/2+y,1/2-z
1/2-x,1/2+y,z
1/2+x,1/2-y,z
loop_
_atom_site_type_symbol
_atom_site_label
_atom_site_fract_x
_atom_site_fract_y
_atom_site_fract_z
Si Si1 0.889509 0.343967 0.065751
Si Si2 0.015064 0.816812 0.161465
Si Si3 0.631501 0.487837 0.681955
Si Si4 0.095131 0.304408 0.138146
Si Si5 0.789180 0.894461 0.845535
Si Si6 0.183936 0.787548 0.063560
Si Si7 0.775494 0.132079 0.784416
O O1 0.788147 0.372119 0.102815
O O2 0.858823 0.277236 0.061366
O O3 0.003218 0.343844 0.105387
O O4 0.902624 0.364953 0.000000
O O5 0.962875 0.753138 0.162678
O O6 0.914000 0.863173 0.155564
O O7 0.095453 0.819348 0.104965
O O8 0.108123 0.829537 0.211411
O O9 0.500000 0.500000 0.662974
O O10 0.630652 0.500000 0.750000
O O11 0.702492 0.537468 0.651807
O O12 0.684930 0.424861 0.681035
O O13 0.190053 0.286618 0.091148
O O14 0.168749 0.337223 0.185728
O O15 0.744704 0.880256 0.781370
O O16 0.186144 0.811676 0.000000
#
# Coordination Sequence:
#
# PCOD9525826 Si02
#       7
#    16  16  16  16  16  16  16
#     4  10  21  36  54  77 108 148 191 232 270 321
#     4  10  19  32  50  82 113 141 172 224 285 333
#     4   9  17  33  59  82 105 142 184 226 267 323
#     4  10  20  36  52  79 116 149 183 221 283 338
#     4  11  20  35  56  84 111 141 184 230 279 331
#     4   9  18  33  52  74 105 149 195 228 264 323
#     4  10  21  36  55  83 114 146 181 222 281 343
#
# _framework density 17.592347
#
# number of rings (size 3 to 8) (size 9 to 14) (size 15 to 20)
#    0.000    2.143    2.857    0.857    0.000    2.286 
#    5.143    0.714    0.000    8.143    0.000    0.000 
#    0.000    0.000    0.000    0.000    0.000    0.000 
#
# Total GULP energy -311994.053051 kJ/mol
# GULP energy per Si atom -5571.322376 kJ/mol
# Density = 1.755231 g / cm^3
# Si number density = 17.592347 Si / 1000 Ang^3
#
#
#
# Elastic Constant Matrix: (Units=GPa)
#
#
# Indices 1 2 3 4 5 6 
#
# 1 78.2427 21.1226 28.8864 0.0000 0.0000 0.0000
# 2 21.1226 66.6118 32.7626 0.0000 0.0000 0.0000
# 3 28.8864 32.7626 67.6735 0.0000 0.0000 0.0000
# 4 0.0000 0.0000 0.0000 7.4744 0.0000 0.0000
# 5 0.0000 0.0000 0.0000 0.0000 10.8590 0.0000
# 6 0.0000 0.0000 0.0000 0.0000 0.0000 12.3996
#
#
#
# Elastic Compliance Matrix: (Units=1/GPa)
#
#
# Indices 1 2 3 4 5 6 
#
# 1 0.015406 -0.002167 -0.005527 0.000000 0.000000 0.000000
# 2 -0.002167 0.020009 -0.008762 0.000000 0.000000 0.000000
# 3 -0.005527 -0.008762 0.021378 0.000000 0.000000 0.000000
# 4 0.000000 0.000000 0.000000 0.133791 0.000000 0.000000
# 5 0.000000 0.000000 0.000000 0.000000 0.092089 0.000000
# 6 0.000000 0.000000 0.000000 0.000000 0.000000 0.080648
#
#
# Mechanical properties :
#
#
# Convention : Reuss Voigt Hill
#
# Bulk Modulus (GPa) = 41.87366 42.00789 41.94078
# Shear Modulus (GPa) = 12.37031 14.79702 13.58367
#
# Velocity S-wave (km/s) = 2.65460 2.90333 2.78175
# Velocity P-wave (km/s) = 5.76626 5.93038 5.84890
#
# Compressibility (1/GPa) = 0.02388136
#
# Stress axis : x y z
#
# Youngs Moduli (GPa) = 64.90865 49.97758 46.77711
#
# Poissons Ratio (x) = 0.10829 0.25854
# Poissons Ratio (y) = 0.14065 0.40986
# Poissons Ratio (z) = 0.35876 0.43790
#
# Static dielectric constant tensor:
#      x y z
#    x 1.610360 0.000000 0.000000 
#    y 0.000000 1.607450 0.000000 
#    z 0.000000 0.000000 1.626830 
# 
# From -- ./inp_files/43618.got.cif
#   From: 2010.05.17/outbox.cif.g08.bks.cpg/sg72_22_cif.got.tgz:43618.got - 2010.06.03 17:03:01.
