data_PCOD9525005
_publ_section_title
;
Structure prediction by ZEFSAII (Michael W. Deem and Ramdas Pophale) SiO2 
 PCOD9525005
Probable space group: I B A M
;
_chemical_formula_sum "Si O2"
_cell_formula_units_Z 96
_cell_length_a 24.903585
_cell_length_b 19.024364
_cell_length_c 8.205515
_cell_angle_alpha 90.000000
_cell_angle_beta 90.000000
_cell_angle_gamma 90.000000
_cell_volume 3887.566769
_symmetry_space_group_name_H-M "I B A M"
_symmetry_group_IT_number 72
_symmetry_cell_setting 'orthorhombic'
loop_
_space_group_symop_operation_xyz
x,y,z
-x,-y,z
x,-y,1/2-z
-x,y,1/2-z
-x,-y,-z
x,y,-z
-x,y,1/2+z
x,-y,1/2+z
1/2+x,1/2+y,1/2+z
1/2-x,1/2-y,1/2+z
1/2+x,1/2-y,-z
1/2-x,1/2+y,-z
1/2-x,1/2-y,1/2-z
1/2+x,1/2+y,1/2-z
1/2-x,1/2+y,z
1/2+x,1/2-y,z
loop_
_atom_site_type_symbol
_atom_site_label
_atom_site_fract_x
_atom_site_fract_y
_atom_site_fract_z
Si Si1 0.327426 0.761118 0.181570
Si Si2 0.281703 0.893080 0.303731
Si Si3 0.065704 0.722510 0.818486
Si Si4 0.594754 0.924082 0.196225
Si Si5 0.942298 0.118855 0.690976
Si Si6 0.827520 0.111353 0.810024
O O1 0.281019 0.815075 0.223046
O O2 0.369898 0.776632 0.323140
O O3 0.322402 0.678282 0.190887
O O4 0.347483 0.778538 0.000000
O O5 0.279448 0.892545 0.500000
O O6 0.341514 0.920197 0.254184
O O7 0.227966 0.927964 0.231386
O O8 0.060648 0.644197 0.743571
O O9 0.055649 0.796072 0.727294
O O10 0.042243 0.726914 0.000000
O O11 0.574170 0.000000 0.250000
O O12 0.593267 0.919471 0.000000
O O13 0.937045 0.108449 0.500000
O O14 0.888846 0.087339 0.775677
O O15 0.000000 0.091291 0.750000
O O16 0.825843 0.129951 0.000000
#
# Coordination Sequence:
#
# PCOD9525005 Si02
#       6
#    16  16  16  16  16  16
#     4  10  17  26  41  63  89 120 151 183 221 270
#     4  10  19  31  43  62  91 123 154 188 227 273
#     4   9  17  31  47  67  92 121 155 194 234 278
#     4   9  19  32  49  69  94 124 157 195 236 279
#     4  11  21  34  51  71  94 124 156 193 234 279
#     4  11  20  30  44  65  91 121 153 188 225 272
#
# _framework density 24.694110999999999
#
# number of rings (size 3 to 8) (size 9 to 14) (size 15 to 20)
#    0.000    2.000    0.000    9.000    0.000    4.000 
#    0.000    0.000    0.000    0.500    0.000    3.500 
#    0.000    0.667    0.000    7.000    0.000    3.833 
#
# Total GULP energy -267324.528116 kJ/mol
# GULP energy per Si atom -5569.261002 kJ/mol
# Density = 2.463791 g / cm^3
# Si number density = 24.694111 Si / 1000 Ang^3
#
#
#
# Elastic Constant Matrix: (Units=GPa)
#
#
# Indices 1 2 3 4 5 6 
#
# 1 143.0448 -4.8988 22.3012 0.0000 0.0000 0.0000
# 2 -4.8988 80.6701 -0.1999 0.0000 0.0000 0.0000
# 3 22.3012 -0.1999 121.7233 0.0000 0.0000 0.0000
# 4 0.0000 0.0000 0.0000 -3.5343 0.0000 0.0000
# 5 0.0000 0.0000 0.0000 0.0000 19.6834 0.0000
# 6 0.0000 0.0000 0.0000 0.0000 0.0000 -8.8072
#
#
#
# Elastic Compliance Matrix: (Units=1/GPa)
#
#
# Indices 1 2 3 4 5 6 
#
# 1 0.007212 0.000435 -0.001321 0.000000 0.000000 0.000000
# 2 0.000435 0.012422 -0.000059 0.000000 0.000000 0.000000
# 3 -0.001321 -0.000059 0.008457 0.000000 0.000000 0.000000
# 4 0.000000 0.000000 0.000000 -0.282938 0.000000 0.000000
# 5 0.000000 0.000000 0.000000 0.000000 0.050804 0.000000
# 6 0.000000 0.000000 0.000000 0.000000 0.000000 -0.113544
#
#
# Mechanical properties :
#
#
# Convention : Reuss Voigt Hill
#
# Bulk Modulus (GPa) = 38.16653 42.20480 40.18567
# Shear Modulus (GPa) = -16.28862 23.35075 3.53107
#
# Velocity S-wave (km/s) = -2.57108 3.07840 1.19709
# Velocity P-wave (km/s) = 2.58366 5.45559 4.26842
#
# Compressibility (1/GPa) = 0.02620097
#
# Stress axis : x y z
#
# Youngs Moduli (GPa) = 138.66589 80.49965 118.24247
#
# Poissons Ratio (x) = -0.03499 0.15614
# Poissons Ratio (y) = -0.06027 0.00700
# Poissons Ratio (z) = 0.18311 0.00477
#
# Static dielectric constant tensor:
#      x y z
#    x 2.053260 0.000000 0.000000 
#    y 0.000000 2.073030 0.000000 
#    z 0.000000 0.000000 1.861110 
# 
# From -- ./inp_files/8283.got.cif
#   From: 2010.05.17/outbox.cif.g08.bks.cpg/sg72_5_cif.got.tgz:8283.got - 2010.06.03 17:03:01.
