data_PCOD9525072
_publ_section_title
;
Structure prediction by ZEFSAII (Michael W. Deem and Ramdas Pophale) SiO2 
 PCOD9525072
Probable space group: I B A M
;
_chemical_formula_sum "Si O2"
_cell_formula_units_Z 96
_cell_length_a 10.413394
_cell_length_b 24.936231
_cell_length_c 18.370752
_cell_angle_alpha 90.000000
_cell_angle_beta 90.000000
_cell_angle_gamma 90.000000
_cell_volume 4770.347837
_symmetry_space_group_name_H-M "I B A M"
_symmetry_group_IT_number 72
_symmetry_cell_setting 'orthorhombic'
loop_
_space_group_symop_operation_xyz
x,y,z
-x,-y,z
x,-y,1/2-z
-x,y,1/2-z
-x,-y,-z
x,y,-z
-x,y,1/2+z
x,-y,1/2+z
1/2+x,1/2+y,1/2+z
1/2-x,1/2-y,1/2+z
1/2+x,1/2-y,-z
1/2-x,1/2+y,-z
1/2-x,1/2-y,1/2-z
1/2+x,1/2+y,1/2-z
1/2-x,1/2+y,z
1/2+x,1/2-y,z
loop_
_atom_site_type_symbol
_atom_site_label
_atom_site_fract_x
_atom_site_fract_y
_atom_site_fract_z
Si Si1 0.285272 0.389834 0.580526
Si Si2 0.310985 0.664552 0.218715
Si Si3 0.488502 0.170802 0.919073
Si Si4 0.655928 0.994141 0.417559
Si Si5 0.594836 0.751999 0.187420
Si Si6 0.116080 0.408854 0.802688
O O1 0.345490 0.387177 0.500000
O O2 0.365899 0.364710 0.647055
O O3 0.231626 0.450116 0.592220
O O4 0.153351 0.355282 0.577887
O O5 0.384459 0.691211 0.287095
O O6 0.228419 0.715854 0.190551
O O7 0.214783 0.621174 0.251122
O O8 0.472252 0.230680 0.887130
O O9 0.563310 0.134006 0.861701
O O10 0.543826 0.169590 0.000000
O O11 0.685848 0.974366 0.500000
O O12 0.680846 0.954976 0.350551
O O13 0.500000 0.000000 0.416322
O O14 0.500000 0.774795 0.250000
O O15 0.000000 0.427640 0.750000
#
# Coordination Sequence:
#
# PCOD9525072 Si02
#       6
#    16  16  16  16  16  16
#     4   9  17  30  44  66  97 129 159 190 230 288
#     4  10  19  30  50  68  93 125 161 200 240 284
#     4  10  17  30  46  63  94 128 157 190 236 290
#     4  10  18  27  42  66  99 132 157 186 235 297
#     4  10  18  34  50  67  91 124 161 202 245 282
#     4  12  18  29  43  69  98 130 159 194 236 289
#
# _framework density 20.124317999999999
#
# number of rings (size 3 to 8) (size 9 to 14) (size 15 to 20)
#    0.000    1.833    6.667    0.500    0.000    2.333 
#    0.000    2.500    0.000    0.000    0.000    2.333 
#    0.000    2.667    0.000    0.000    0.000    0.000 
#
# Total GULP energy -267268.125539 kJ/mol
# GULP energy per Si atom -5568.085949 kJ/mol
# Density = 2.007851 g / cm^3
# Si number density = 20.124318 Si / 1000 Ang^3
#
#
#
# Elastic Constant Matrix: (Units=GPa)
#
#
# Indices 1 2 3 4 5 6 
#
# 1 7.2307 10.4274 5.5187 0.0000 0.0000 0.0000
# 2 10.4274 92.0495 66.1567 0.0000 0.0000 0.0000
# 3 5.5187 66.1567 148.8926 0.0000 0.0000 0.0000
# 4 0.0000 0.0000 0.0000 23.2082 0.0000 0.0000
# 5 0.0000 0.0000 0.0000 0.0000 9.7347 0.0000
# 6 0.0000 0.0000 0.0000 0.0000 0.0000 10.3547
#
#
#
# Elastic Compliance Matrix: (Units=1/GPa)
#
#
# Indices 1 2 3 4 5 6 
#
# 1 0.166362 -0.021176 0.003243 0.000000 0.000000 0.000000
# 2 -0.021176 0.018656 -0.007504 0.000000 0.000000 0.000000
# 3 0.003243 -0.007504 0.009930 0.000000 0.000000 0.000000
# 4 0.000000 0.000000 0.000000 0.043088 0.000000 0.000000
# 5 0.000000 0.000000 0.000000 0.000000 0.102726 0.000000
# 6 0.000000 0.000000 0.000000 0.000000 0.000000 0.096575
#
#
# Mechanical properties :
#
#
# Convention : Reuss Voigt Hill
#
# Bulk Modulus (GPa) = 6.94093 45.81984 26.38038
# Shear Modulus (GPa) = 9.32424 19.73084 14.52754
#
# Velocity S-wave (km/s) = 2.15485 3.13461 2.68972
# Velocity P-wave (km/s) = 3.10607 5.99323 4.77318
#
# Compressibility (1/GPa) = 0.14407296
#
# Stress axis : x y z
#
# Youngs Moduli (GPa) = 6.01099 53.60189 100.70018
#
# Poissons Ratio (x) = 1.13508 -0.32656
# Poissons Ratio (y) = 0.12729 0.75570
# Poissons Ratio (z) = -0.01949 0.40225
#
# Static dielectric constant tensor:
#      x y z
#    x 1.797540 0.000000 0.000000 
#    y 0.000000 1.744260 0.000000 
#    z 0.000000 0.000000 1.794280 
# 
# From -- ./inp_files/29440.got.cif
#   From: 2010.05.17/outbox.cif.g08.bks.cpg/sg72_15_cif.got.tgz:29440.got - 2010.06.03 17:03:01.
