data_PCOD9525928
_publ_section_title
;
Structure prediction by ZEFSAII (Michael W. Deem and Ramdas Pophale) SiO2 
 PCOD9525928
Probable space group: I B A M
;
_chemical_formula_sum "Si O2"
_cell_formula_units_Z 116
_cell_length_a 24.476753
_cell_length_b 14.844101
_cell_length_c 17.836209
_cell_angle_alpha 90.000000
_cell_angle_beta 90.000000
_cell_angle_gamma 90.000000
_cell_volume 6480.526019
_symmetry_space_group_name_H-M "I B A M"
_symmetry_group_IT_number 72
_symmetry_cell_setting 'orthorhombic'
loop_
_space_group_symop_operation_xyz
x,y,z
-x,-y,z
x,-y,1/2-z
-x,y,1/2-z
-x,-y,-z
x,y,-z
-x,y,1/2+z
x,-y,1/2+z
1/2+x,1/2+y,1/2+z
1/2-x,1/2-y,1/2+z
1/2+x,1/2-y,-z
1/2-x,1/2+y,-z
1/2-x,1/2-y,1/2-z
1/2+x,1/2+y,1/2-z
1/2-x,1/2+y,z
1/2+x,1/2-y,z
loop_
_atom_site_type_symbol
_atom_site_label
_atom_site_fract_x
_atom_site_fract_y
_atom_site_fract_z
Si Si1 0.054088 0.939808 0.416125
Si Si2 0.000000 0.500000 0.750000
Si Si3 0.691753 0.040959 0.913110
Si Si4 0.555662 0.698574 0.711873
Si Si5 0.771647 0.173169 0.846722
Si Si6 0.792876 0.375596 0.805835
Si Si7 0.126265 0.935433 0.186054
Si Si8 0.103960 0.388610 0.801417
O O1 0.070553 0.915250 0.500000
O O2 0.043364 0.854616 0.363959
O O3 0.098171 0.000705 0.374044
O O4 0.000000 0.000000 0.418716
O O5 0.955118 0.563710 0.791624
O O6 0.730506 0.128653 0.905493
O O7 0.635554 0.069951 0.872247
O O8 0.716299 0.958970 0.862325
O O9 0.685363 0.015525 0.000000
O O10 0.500000 0.730802 0.750000
O O11 0.583621 0.627960 0.769261
O O12 0.594131 0.782024 0.693426
O O13 0.783074 0.279859 0.846993
O O14 0.745896 0.139585 0.766787
O O15 0.829638 0.126072 0.852687
O O16 0.853210 0.394209 0.769126
O O17 0.151286 0.000000 0.250000
#
# Coordination Sequence:
#
# PCOD9525928 Si02
#       8
#    16   4  16  16  16  16  16  16
#     4  10  21  35  51  77 121 162 186 229 302 363
#     4  12  20  36  70  92 110 148 210 256 302 356
#     4  11  24  41  59  86 129 162 188 244 313 369
#     4  11  20  33  58  87 110 149 201 250 289 344
#     4  10  20  37  64  89 113 154 209 247 293 349
#     4  10  20  39  64  88 116 155 201 255 299 351
#     4  10  19  32  57  85 114 147 201 250 283 340
#     4  11  21  38  64  90 114 149 203 256 299 348
#
# _framework density 17.899781999999998
#
# number of rings (size 3 to 8) (size 9 to 14) (size 15 to 20)
#    0.000    1.517    4.828    2.069    0.000    1.655 
#    0.000    0.345    0.000    2.483    0.000    0.000 
#    0.000    0.000    0.000    0.000    0.000    0.000 
#
# Total GULP energy -323156.539100 kJ/mol
# GULP energy per Si atom -5571.664467 kJ/mol
# Density = 1.785904 g / cm^3
# Si number density = 17.899782 Si / 1000 Ang^3
#
#
#
# Elastic Constant Matrix: (Units=GPa)
#
#
# Indices 1 2 3 4 5 6 
#
# 1 52.7030 13.1095 19.9349 0.0000 0.0000 0.0000
# 2 13.1095 96.5168 41.5175 0.0000 0.0000 0.0000
# 3 19.9349 41.5175 97.3088 0.0000 0.0000 0.0000
# 4 0.0000 0.0000 0.0000 -26.3723 0.0000 0.0000
# 5 0.0000 0.0000 0.0000 0.0000 6.2667 0.0000
# 6 0.0000 0.0000 0.0000 0.0000 0.0000 34.0921
#
#
#
# Elastic Compliance Matrix: (Units=1/GPa)
#
#
# Indices 1 2 3 4 5 6 
#
# 1 0.020682 -0.001208 -0.003721 0.000000 0.000000 0.000000
# 2 -0.001208 0.012760 -0.005197 0.000000 0.000000 0.000000
# 3 -0.003721 -0.005197 0.013256 0.000000 0.000000 0.000000
# 4 0.000000 0.000000 0.000000 -0.037919 0.000000 0.000000
# 5 0.000000 0.000000 0.000000 0.000000 0.159574 0.000000
# 6 0.000000 0.000000 0.000000 0.000000 0.000000 0.029332
#
#
# Mechanical properties :
#
#
# Convention : Reuss Voigt Hill
#
# Bulk Modulus (GPa) = 37.81318 43.96139 40.88728
# Shear Modulus (GPa) = 22.05019 14.26173 18.15596
#
# Velocity S-wave (km/s) = 3.51361 2.82575 3.18828
# Velocity P-wave (km/s) = 6.13444 5.93797 6.03701
#
# Compressibility (1/GPa) = 0.02644581
#
# Stress axis : x y z
#
# Youngs Moduli (GPa) = 48.35010 78.36700 75.43641
#
# Poissons Ratio (x) = 0.09470 0.28073
# Poissons Ratio (y) = 0.05843 0.39203
# Poissons Ratio (z) = 0.17993 0.40726
#
# Static dielectric constant tensor:
#      x y z
#    x 1.619200 0.000000 0.000000 
#    y 0.000000 1.613090 0.000000 
#    z 0.000000 0.000000 1.600220 
# 
# From -- ./inp_files/33435.got.cif
#   From: 2010.05.17/outbox.cif.g08.bks.cpg/sg72_17_cif.got.tgz:33435.got - 2010.06.03 17:03:01.
