data_PCOD9525246
_publ_section_title
;
Structure prediction by ZEFSAII (Michael W. Deem and Ramdas Pophale) SiO2 
 PCOD9525246
Probable space group: I B A M
;
_chemical_formula_sum "Si O2"
_cell_formula_units_Z 56
_cell_length_a 12.890382
_cell_length_b 19.140795
_cell_length_c 10.027667
_cell_angle_alpha 90.000000
_cell_angle_beta 90.000000
_cell_angle_gamma 90.000000
_cell_volume 2474.147932
_symmetry_space_group_name_H-M "I B A M"
_symmetry_group_IT_number 72
_symmetry_cell_setting 'orthorhombic'
loop_
_space_group_symop_operation_xyz
x,y,z
-x,-y,z
x,-y,1/2-z
-x,y,1/2-z
-x,-y,-z
x,y,-z
-x,y,1/2+z
x,-y,1/2+z
1/2+x,1/2+y,1/2+z
1/2-x,1/2-y,1/2+z
1/2+x,1/2-y,-z
1/2-x,1/2+y,-z
1/2-x,1/2-y,1/2-z
1/2+x,1/2+y,1/2-z
1/2-x,1/2+y,z
1/2+x,1/2-y,z
loop_
_atom_site_type_symbol
_atom_site_label
_atom_site_fract_x
_atom_site_fract_y
_atom_site_fract_z
Si Si1 0.990619 0.884332 0.000000
Si Si2 0.170283 0.999261 0.000000
Si Si3 0.182567 0.353231 0.338409
Si Si4 0.817633 0.500000 0.250000
Si Si5 0.367662 0.301660 0.154232
O O1 0.020981 0.835815 0.877003
O O2 0.885114 0.925619 0.000000
O O3 0.078677 0.943816 0.000000
O O4 0.241986 0.989224 0.125834
O O5 0.190517 0.359145 0.500000
O O6 0.131636 0.424921 0.283004
O O7 0.291756 0.340710 0.258101
O O8 0.125627 0.279889 0.311006
O O9 0.319855 0.304689 0.000000
#
# Coordination Sequence:
#
# PCOD9525246 Si02
#       5
#     8   8  16   8  16
#     4   9  18  33  46  62  90 138 183 208 256 318
#     4  11  22  31  48  66 108 144 178 211 262 325
#     4  10  18  29  49  69  93 129 180 225 266 310
#     4  12  20  33  44  78 106 142 177 218 266 334
#     4   8  16  33  50  63  84 132 185 225 259 303
#
# _framework density 22.634053000000002
#
# number of rings (size 3 to 8) (size 9 to 14) (size 15 to 20)
#    0.857    1.429    4.286    0.000    0.000    2.286 
#    0.000    0.000    0.000    0.000    0.000    0.000 
#    0.000    0.000    0.000   30.857    3.429    0.571 
#
# Total GULP energy -155951.235016 kJ/mol
# GULP energy per Si atom -5569.686965 kJ/mol
# Density = 2.258254 g / cm^3
# Si number density = 22.634053 Si / 1000 Ang^3
#
#
#
# Elastic Constant Matrix: (Units=GPa)
#
#
# Indices 1 2 3 4 5 6 
#
# 1 26.5518 21.6782 8.2558 0.0000 0.0000 0.0000
# 2 21.6782 210.6773 33.6724 0.0000 0.0000 0.0000
# 3 8.2558 33.6724 156.0645 0.0001 0.0000 0.0000
# 4 0.0000 0.0000 0.0001 47.1346 0.0000 0.0000
# 5 0.0000 0.0000 0.0000 0.0000 20.6604 0.0000
# 6 0.0000 0.0000 0.0000 0.0000 0.0000 31.9501
#
#
#
# Elastic Compliance Matrix: (Units=1/GPa)
#
#
# Indices 1 2 3 4 5 6 
#
# 1 0.041376 -0.004047 -0.001316 0.000000 0.000000 0.000000
# 2 -0.004047 0.005312 -0.000932 0.000000 0.000000 0.000000
# 3 -0.001316 -0.000932 0.006678 0.000000 0.000000 0.000000
# 4 0.000000 0.000000 0.000000 0.021216 0.000000 0.000000
# 5 0.000000 0.000000 0.000000 0.000000 0.048402 0.000000
# 6 0.000000 0.000000 0.000000 0.000000 0.000000 0.031299
#
#
# Mechanical properties :
#
#
# Convention : Reuss Voigt Hill
#
# Bulk Modulus (GPa) = 24.52397 57.83403 41.17900
# Shear Modulus (GPa) = 27.70635 41.92816 34.81726
#
# Velocity S-wave (km/s) = 3.50251 4.30866 3.92633
# Velocity P-wave (km/s) = 5.21683 7.09648 6.22797
#
# Compressibility (1/GPa) = 0.04077644
#
# Stress axis : x y z
#
# Youngs Moduli (GPa) = 24.16881 188.25274 149.73887
#
# Poissons Ratio (x) = 0.76190 0.19699
# Poissons Ratio (y) = 0.09782 0.13956
# Poissons Ratio (z) = 0.03179 0.17546
#
# Static dielectric constant tensor:
#      x y z
#    x 1.860960 0.000000 0.000000 
#    y 0.000000 1.925840 0.000000 
#    z 0.000000 0.000000 1.858290 
# 
# From -- ./inp_files/5429.got.cif
#   From: 2010.05.17/outbox.cif.g08.bks.cpg/sg72_3_cif.got.tgz:5429.got - 2010.06.03 17:03:01.
