data_PCOD9525840
_publ_section_title
;
Structure prediction by ZEFSAII (Michael W. Deem and Ramdas Pophale) SiO2 
 PCOD9525840
Probable space group: I B A M
;
_chemical_formula_sum "Si O2"
_cell_formula_units_Z 104
_cell_length_a 21.782106
_cell_length_b 27.133177
_cell_length_c 9.625394
_cell_angle_alpha 90.000000
_cell_angle_beta 90.000000
_cell_angle_gamma 90.000000
_cell_volume 5688.778585
_symmetry_space_group_name_H-M "I B A M"
_symmetry_group_IT_number 72
_symmetry_cell_setting 'orthorhombic'
loop_
_space_group_symop_operation_xyz
x,y,z
-x,-y,z
x,-y,1/2-z
-x,y,1/2-z
-x,-y,-z
x,y,-z
-x,y,1/2+z
x,-y,1/2+z
1/2+x,1/2+y,1/2+z
1/2-x,1/2-y,1/2+z
1/2+x,1/2-y,-z
1/2-x,1/2+y,-z
1/2-x,1/2-y,1/2-z
1/2+x,1/2+y,1/2-z
1/2-x,1/2+y,z
1/2+x,1/2-y,z
loop_
_atom_site_type_symbol
_atom_site_label
_atom_site_fract_x
_atom_site_fract_y
_atom_site_fract_z
Si Si1 0.112823 0.193892 0.341888
Si Si2 0.410700 0.545728 0.157391
Si Si3 0.938208 0.608679 0.836181
Si Si4 0.000000 0.127400 0.750000
Si Si5 0.317313 0.950436 0.834974
Si Si6 0.190199 0.900448 0.162652
Si Si7 0.062922 0.723447 0.336312
O O1 0.115886 0.212349 0.500000
O O2 0.050217 0.161540 0.325264
O O3 0.168175 0.155667 0.316694
O O4 0.109220 0.237887 0.232222
O O5 0.432094 0.500000 0.250000
O O6 0.459880 0.590051 0.157735
O O7 0.350762 0.566573 0.235344
O O8 0.398297 0.530326 0.000000
O O9 0.881823 0.574176 0.794146
O O10 0.919552 0.666156 0.820027
O O11 0.000000 0.599924 0.750000
O O12 0.950608 0.601179 0.000000
O O13 0.261129 0.912609 0.813796
O O14 0.305963 0.000000 0.750000
O O15 0.319562 0.961120 0.000000
O O16 0.175950 0.911939 0.000000
O O17 0.053740 0.733445 0.500000
O O18 0.000000 0.729663 0.250000
#
# Coordination Sequence:
#
# PCOD9525840 Si02
#       7
#    16  16  16   8  16  16  16
#     4  10  19  32  51  76 106 140 181 226 272 317
#     4  11  22  34  49  70 100 139 183 231 279 323
#     4   9  20  38  59  85 115 144 175 217 269 327
#     4  10  21  32  48  70 100 136 179 226 274 318
#     4  10  21  39  61  83 110 144 181 221 270 328
#     4   9  20  37  55  76 105 142 183 225 269 321
#     4  10  19  32  53  79 109 145 182 221 270 324
#
# _framework density 18.281604999999999
#
# number of rings (size 3 to 8) (size 9 to 14) (size 15 to 20)
#    0.000    2.154    0.769    2.077    0.000    8.308 
#    0.000    2.308    0.000    0.000    0.000    0.000 
#    0.000    0.000    0.000    0.000    0.000    0.000 
#
# Total GULP energy -290129.915408 kJ/mol
# GULP energy per Si atom -5579.421450 kJ/mol
# Density = 1.824000 g / cm^3
# Si number density = 18.281605 Si / 1000 Ang^3
#
#
#
# Elastic Constant Matrix: (Units=GPa)
#
#
# Indices 1 2 3 4 5 6 
#
# 1 92.4286 26.1462 30.3159 0.0000 0.0000 0.0000
# 2 26.1462 31.8007 21.0183 0.0000 0.0000 0.0000
# 3 30.3159 21.0183 82.6055 0.0000 0.0000 0.0000
# 4 0.0000 0.0000 0.0000 22.1525 0.0000 0.0000
# 5 0.0000 0.0000 0.0000 0.0000 12.6597 0.0000
# 6 0.0000 0.0000 0.0000 0.0000 0.0000 23.8864
#
#
#
# Elastic Compliance Matrix: (Units=1/GPa)
#
#
# Indices 1 2 3 4 5 6 
#
# 1 0.014607 -0.010179 -0.002771 0.000000 0.000000 0.000000
# 2 -0.010179 0.044896 -0.007688 0.000000 0.000000 0.000000
# 3 -0.002771 -0.007688 0.015079 0.000000 0.000000 0.000000
# 4 0.000000 0.000000 0.000000 0.045142 0.000000 0.000000
# 5 0.000000 0.000000 0.000000 0.000000 0.078991 0.000000
# 6 0.000000 0.000000 0.000000 0.000000 0.000000 0.041865
#
#
# Mechanical properties :
#
#
# Convention : Reuss Voigt Hill
#
# Bulk Modulus (GPa) = 30.02368 40.19953 35.11161
# Shear Modulus (GPa) = 17.06741 20.36335 18.71538
#
# Velocity S-wave (km/s) = 3.05878 3.34109 3.20305
# Velocity P-wave (km/s) = 5.37897 6.07624 5.73821
#
# Compressibility (1/GPa) = 0.03330704
#
# Stress axis : x y z
#
# Youngs Moduli (GPa) = 68.45875 22.27386 66.31836
#
# Poissons Ratio (x) = 0.22672 0.18377
# Poissons Ratio (y) = 0.69681 0.50984
# Poissons Ratio (z) = 0.18970 0.17124
#
# Static dielectric constant tensor:
#      x y z
#    x 1.620920 0.000000 0.000000 
#    y 0.000000 1.633510 0.000000 
#    z 0.000000 0.000000 1.619130 
# 
# From -- ./inp_files/6138.got.cif
#   From: 2010.05.17/outbox.cif.g08.bks.cpg/sg72_4_cif.got.tgz:6138.got - 2010.06.03 17:03:01.
