data_PCOD9525802
_publ_section_title
;
Structure prediction by ZEFSAII (Michael W. Deem and Ramdas Pophale) SiO2 
 PCOD9525802
Probable space group: I B A M
;
_chemical_formula_sum "Si O2"
_cell_formula_units_Z 80
_cell_length_a 14.648432
_cell_length_b 33.557381
_cell_length_c 9.081582
_cell_angle_alpha 90.000000
_cell_angle_beta 90.000000
_cell_angle_gamma 90.000000
_cell_volume 4464.169817
_symmetry_space_group_name_H-M "I B A M"
_symmetry_group_IT_number 72
_symmetry_cell_setting 'orthorhombic'
loop_
_space_group_symop_operation_xyz
x,y,z
-x,-y,z
x,-y,1/2-z
-x,y,1/2-z
-x,-y,-z
x,y,-z
-x,y,1/2+z
x,-y,1/2+z
1/2+x,1/2+y,1/2+z
1/2-x,1/2-y,1/2+z
1/2+x,1/2-y,-z
1/2-x,1/2+y,-z
1/2-x,1/2-y,1/2-z
1/2+x,1/2+y,1/2-z
1/2-x,1/2+y,z
1/2+x,1/2-y,z
loop_
_atom_site_type_symbol
_atom_site_label
_atom_site_fract_x
_atom_site_fract_y
_atom_site_fract_z
Si Si1 0.900876 0.040345 0.323580
Si Si2 0.654703 0.701343 0.166687
Si Si3 0.589591 0.140328 0.674487
Si Si4 0.371302 0.221166 0.333718
Si Si5 0.205015 0.878262 0.675795
O O1 0.909726 0.035304 0.500000
O O2 0.840603 0.079324 0.294992
O O3 0.000000 0.046278 0.250000
O O4 0.862879 0.000000 0.250000
O O5 0.610364 0.735512 0.266621
O O6 0.761677 0.714273 0.158496
O O7 0.655521 0.657825 0.239654
O O8 0.618754 0.700747 0.000000
O O9 0.500000 0.122334 0.750000
O O10 0.580268 0.138270 0.500000
O O11 0.595878 0.186101 0.727742
O O12 0.687657 0.121910 0.717002
O O13 0.407143 0.216912 0.500000
O O14 0.200160 0.870140 0.500000
#
# Coordination Sequence:
#
# PCOD9525802 Si02
#       5
#    16  16  16  16  16
#     4  10  20  36  58  83 107 131 159 196 246 304
#     4   9  16  26  44  69  95 126 167 212 254 294
#     4  10  19  32  49  71 100 135 176 217 253 294
#     4   9  16  27  43  64  93 130 170 211 254 295
#     4   9  19  34  52  74 103 136 168 206 254 305
#
# _framework density 17.920463999999999
#
# number of rings (size 3 to 8) (size 9 to 14) (size 15 to 20)
#    0.000    2.600    0.000    3.000    0.000    7.200 
#    0.000    1.000    0.000    3.000    0.000    4.200 
#    0.000    0.000    0.000    0.000    0.000    0.000 
#
# Total GULP energy -223132.159530 kJ/mol
# GULP energy per Si atom -5578.303988 kJ/mol
# Density = 1.787968 g / cm^3
# Si number density = 17.920464 Si / 1000 Ang^3
#
#
#
# Elastic Constant Matrix: (Units=GPa)
#
#
# Indices 1 2 3 4 5 6 
#
# 1 49.6717 41.2299 23.8664 -0.0007 0.0006 0.0005
# 2 41.2299 136.0294 58.0397 -0.0010 0.0006 0.0005
# 3 23.8664 58.0397 77.3342 -0.0049 0.0077 0.0034
# 4 -0.0007 -0.0010 -0.0049 25.1827 0.0014 -0.0001
# 5 0.0006 0.0006 0.0077 0.0014 21.1231 -0.0013
# 6 0.0005 0.0005 0.0034 -0.0001 -0.0013 8.1181
#
#
#
# Elastic Compliance Matrix: (Units=1/GPa)
#
#
# Indices 1 2 3 4 5 6 
#
# 1 0.027453 -0.006923 -0.003277 0.000000 0.000001 0.000000
# 2 -0.006923 0.012560 -0.007290 -0.000001 0.000002 0.000003
# 3 -0.003277 -0.007290 0.019413 0.000003 -0.000007 -0.000008
# 4 0.000000 -0.000001 0.000003 0.039710 -0.000003 0.000000
# 5 0.000001 0.000002 -0.000007 -0.000003 0.047342 0.000008
# 6 0.000000 0.000003 -0.000008 0.000000 0.000008 0.123182
#
#
# Mechanical properties :
#
#
# Convention : Reuss Voigt Hill
#
# Bulk Modulus (GPa) = 40.90440 56.58970 48.74705
# Shear Modulus (GPa) = 15.98533 20.21139 18.09836
#
# Velocity S-wave (km/s) = 2.98990 3.36197 3.18138
# Velocity P-wave (km/s) = 5.89868 6.83501 6.38403
#
# Compressibility (1/GPa) = 0.02444725
#
# Stress axis : x y z
#
# Youngs Moduli (GPa) = 36.42620 79.61810 51.51127
#
# Poissons Ratio (x) = 0.55117 0.16879
# Poissons Ratio (y) = 0.25217 0.37551
# Poissons Ratio (z) = 0.11936 0.58041
#
# Static dielectric constant tensor:
#      x y z
#    x 1.663590 0.000000 0.000000 
#    y 0.000000 1.578230 0.000000 
#    z 0.000000 0.000000 1.613370 
# 
# From -- ./inp_files/4773.got.cif
#   From: 2010.05.17/outbox.cif.g08.bks.cpg/sg72_3_cif.got.tgz:4773.got - 2010.06.03 17:03:01.
