data_PCOD9525471
_publ_section_title
;
Structure prediction by ZEFSAII (Michael W. Deem and Ramdas Pophale) SiO2 
 PCOD9525471
Probable space group: I B A M
;
_chemical_formula_sum "Si O2"
_cell_formula_units_Z 112
_cell_length_a 15.576144
_cell_length_b 15.838577
_cell_length_c 24.303051
_cell_angle_alpha 90.000000
_cell_angle_beta 90.000000
_cell_angle_gamma 90.000000
_cell_volume 5995.658827
_symmetry_space_group_name_H-M "I B A M"
_symmetry_group_IT_number 72
_symmetry_cell_setting 'orthorhombic'
loop_
_space_group_symop_operation_xyz
x,y,z
-x,-y,z
x,-y,1/2-z
-x,y,1/2-z
-x,-y,-z
x,y,-z
-x,y,1/2+z
x,-y,1/2+z
1/2+x,1/2+y,1/2+z
1/2-x,1/2-y,1/2+z
1/2+x,1/2-y,-z
1/2-x,1/2+y,-z
1/2-x,1/2-y,1/2-z
1/2+x,1/2+y,1/2-z
1/2-x,1/2+y,z
1/2+x,1/2-y,z
loop_
_atom_site_type_symbol
_atom_site_label
_atom_site_fract_x
_atom_site_fract_y
_atom_site_fract_z
Si Si1 0.021720 0.902805 0.185783
Si Si2 0.177110 0.678964 0.258066
Si Si3 0.819271 0.647988 0.061874
Si Si4 0.782201 0.388857 0.144424
Si Si5 0.410294 0.967256 0.562290
Si Si6 0.783278 0.921266 0.657185
Si Si7 0.888598 0.774599 0.855950
O O1 0.122772 0.895930 0.176787
O O2 0.000000 0.888241 0.250000
O O3 0.964983 0.841420 0.148157
O O4 0.000000 0.000000 0.173352
O O5 0.250000 0.750000 0.250000
O O6 0.163829 0.639519 0.198257
O O7 0.217067 0.606640 0.296052
O O8 0.108684 0.723854 0.297786
O O9 0.857534 0.554167 0.058525
O O10 0.739437 0.632695 0.102800
O O11 0.885445 0.709134 0.093682
O O12 0.799950 0.677453 0.000000
O O13 0.851510 0.402527 0.096125
O O14 0.733191 0.479080 0.150212
O O15 0.703546 0.322918 0.138564
O O16 0.427842 0.936140 0.500000
O O17 0.500000 0.000000 0.587781
#
# Coordination Sequence:
#
# PCOD9525471 Si02
#       7
#    16  16  16  16  16  16  16
#     4  11  21  33  56  86 122 158 193 228 282 351
#     4   9  18  31  51  78 110 145 184 228 281 328
#     4   9  20  40  61  79 110 149 191 245 299 343
#     4  10  18  32  58  80 108 150 191 229 281 344
#     4   9  19  38  60  82 105 142 196 245 290 346
#     4  10  19  34  58  82 110 152 194 235 275 347
#     4  10  20  36  52  84 120 149 188 237 284 343
#
# _framework density 18.680181999999999
#
# number of rings (size 3 to 8) (size 9 to 14) (size 15 to 20)
#    0.000    2.286    1.429    2.143    2.000    0.571 
#   10.286    0.714    0.000    8.571    0.000    0.000 
#    0.000    0.000    0.000    0.000    0.000    0.143 
#
# Total GULP energy -311914.787534 kJ/mol
# GULP energy per Si atom -5569.906920 kJ/mol
# Density = 1.863767 g / cm^3
# Si number density = 18.680182 Si / 1000 Ang^3
#
#
#
# Elastic Constant Matrix: (Units=GPa)
#
#
# Indices 1 2 3 4 5 6 
#
# 1 59.0108 2.5935 9.1714 0.0000 0.0000 0.0000
# 2 2.5935 59.4281 30.0047 0.0000 0.0000 0.0000
# 3 9.1714 30.0047 95.2158 0.0000 0.0000 0.0000
# 4 0.0000 0.0000 0.0000 11.6695 0.0000 0.0000
# 5 0.0000 0.0000 0.0000 0.0000 16.0231 0.0000
# 6 0.0000 0.0000 0.0000 0.0000 0.0000 20.4322
#
#
#
# Elastic Compliance Matrix: (Units=1/GPa)
#
#
# Indices 1 2 3 4 5 6 
#
# 1 0.017204 0.000102 -0.001689 0.000000 0.000000 0.000000
# 2 0.000102 0.020011 -0.006316 0.000000 0.000000 0.000000
# 3 -0.001689 -0.006316 0.012655 0.000000 0.000000 0.000000
# 4 0.000000 0.000000 0.000000 0.085693 0.000000 0.000000
# 5 0.000000 0.000000 0.000000 0.000000 0.062410 0.000000
# 6 0.000000 0.000000 0.000000 0.000000 0.000000 0.048942
#
#
# Mechanical properties :
#
#
# Convention : Reuss Voigt Hill
#
# Bulk Modulus (GPa) = 29.35579 33.02153 31.18866
# Shear Modulus (GPa) = 18.24300 21.08397 19.66348
#
# Velocity S-wave (km/s) = 3.12844 3.36323 3.24796
# Velocity P-wave (km/s) = 5.36643 5.72690 5.54960
#
# Compressibility (1/GPa) = 0.03406484
#
# Stress axis : x y z
#
# Youngs Moduli (GPa) = 58.12557 49.97142 79.01726
#
# Poissons Ratio (x) = -0.00510 0.13349
# Poissons Ratio (y) = -0.00594 0.49906
# Poissons Ratio (z) = 0.09819 0.31561
#
# Static dielectric constant tensor:
#      x y z
#    x 1.666670 0.000000 0.000000 
#    y 0.000000 1.442370 0.000000 
#    z 0.000000 0.000000 1.680630 
# 
# From -- ./inp_files/44343.got.cif
#   From: 2010.05.17/outbox.cif.g08.bks.cpg/sg72_23_cif.got.tgz:44343.got - 2010.06.03 17:03:01.
