data_PCOD9525259
_publ_section_title
;
Structure prediction by ZEFSAII (Michael W. Deem and Ramdas Pophale) SiO2 
 PCOD9525259
Probable space group: I B A M
;
_chemical_formula_sum "Si O2"
_cell_formula_units_Z 48
_cell_length_a 14.210498
_cell_length_b 8.165952
_cell_length_c 17.570300
_cell_angle_alpha 90.000000
_cell_angle_beta 90.000000
_cell_angle_gamma 90.000000
_cell_volume 2038.897050
_symmetry_space_group_name_H-M "I B A M"
_symmetry_group_IT_number 72
_symmetry_cell_setting 'orthorhombic'
loop_
_space_group_symop_operation_xyz
x,y,z
-x,-y,z
x,-y,1/2-z
-x,y,1/2-z
-x,-y,-z
x,y,-z
-x,y,1/2+z
x,-y,1/2+z
1/2+x,1/2+y,1/2+z
1/2-x,1/2-y,1/2+z
1/2+x,1/2-y,-z
1/2-x,1/2+y,-z
1/2-x,1/2-y,1/2-z
1/2+x,1/2+y,1/2-z
1/2-x,1/2+y,z
1/2+x,1/2-y,z
loop_
_atom_site_type_symbol
_atom_site_label
_atom_site_fract_x
_atom_site_fract_y
_atom_site_fract_z
Si Si1 0.738099 0.226452 0.413970
Si Si2 0.447900 0.340957 0.586926
Si Si3 0.368375 0.042256 0.336968
O O1 0.726190 0.291464 0.500000
O O2 0.836032 0.123731 0.417593
O O3 0.770360 0.356924 0.350717
O O4 0.651510 0.116908 0.388147
O O5 0.500000 0.500000 0.619041
O O6 0.481256 0.314920 0.500000
O O7 0.446084 0.170191 0.632727
O O8 0.381886 0.000000 0.250000
#
# Coordination Sequence:
#
# PCOD9525259 Si02
#       3
#    16  16  16
#     4   9  17  30  51  81 122 165 205 246 296 367
#     4   8  16  30  51  79 119 168 210 248 297 362
#     4  10  18  29  51  88 126 160 199 253 304 363
#
# _framework density 23.542138999999999
#
# number of rings (size 3 to 8) (size 9 to 14) (size 15 to 20)
#    2.000    1.000    0.000    3.000    0.000    0.000 
#    0.000    0.000    0.000    3.000    0.000   11.667 
#    0.000   12.000    0.000    0.000    0.000    0.000 
#
# Total GULP energy -133648.034660 kJ/mol
# GULP energy per Si atom -5568.668111 kJ/mol
# Density = 2.348856 g / cm^3
# Si number density = 23.542139 Si / 1000 Ang^3
#
#
#
# Elastic Constant Matrix: (Units=GPa)
#
#
# Indices 1 2 3 4 5 6 
#
# 1 96.7101 39.9199 37.4670 0.0000 0.0000 0.0000
# 2 39.9199 92.7247 59.6903 0.0000 0.0000 0.0000
# 3 37.4670 59.6903 125.3308 0.0000 0.0000 0.0000
# 4 0.0000 0.0000 0.0000 35.8636 0.0000 0.0000
# 5 0.0000 0.0000 0.0000 0.0000 2.3503 0.0000
# 6 0.0000 0.0000 0.0000 0.0000 0.0000 55.5795
#
#
#
# Elastic Compliance Matrix: (Units=1/GPa)
#
#
# Indices 1 2 3 4 5 6 
#
# 1 0.012832 -0.004406 -0.001738 0.000000 0.000000 0.000000
# 2 -0.004406 0.017066 -0.006811 0.000000 0.000000 0.000000
# 3 -0.001738 -0.006811 0.011742 0.000000 0.000000 0.000000
# 4 0.000000 0.000000 0.000000 0.027883 0.000000 0.000000
# 5 0.000000 0.000000 0.000000 0.000000 0.425483 0.000000
# 6 0.000000 0.000000 0.000000 0.000000 0.000000 0.017992
#
#
# Mechanical properties :
#
#
# Convention : Reuss Voigt Hill
#
# Bulk Modulus (GPa) = 63.56740 65.43558 64.50149
# Shear Modulus (GPa) = 9.18863 30.60457 19.89660
#
# Velocity S-wave (km/s) = 1.97776 3.60945 2.91030
# Velocity P-wave (km/s) = 5.68116 6.72505 6.22502
#
# Compressibility (1/GPa) = 0.01573133
#
# Stress axis : x y z
#
# Youngs Moduli (GPa) = 77.92989 58.59718 85.16418
#
# Poissons Ratio (x) = 0.25817 0.14799
# Poissons Ratio (y) = 0.34334 0.58002
# Poissons Ratio (z) = 0.13542 0.39908
#
# Static dielectric constant tensor:
#      x y z
#    x 1.974310 0.000000 0.000000 
#    y 0.000000 1.997950 0.000000 
#    z 0.000000 0.000000 1.799730 
# 
# From -- ./inp_files/18217.got.cif
#   From: 2010.05.17/outbox.cif.g08.bks.cpg/sg72_10_cif.got.tgz:18217.got - 2010.06.03 17:03:01.
