data_PCOD9525447
_publ_section_title
;
Structure prediction by ZEFSAII (Michael W. Deem and Ramdas Pophale) SiO2 
 PCOD9525447
Probable space group: I B A M
;
_chemical_formula_sum "Si O2"
_cell_formula_units_Z 88
_cell_length_a 11.418699
_cell_length_b 16.523770
_cell_length_c 19.315356
_cell_angle_alpha 90.000000
_cell_angle_beta 90.000000
_cell_angle_gamma 90.000000
_cell_volume 3644.420520
_symmetry_space_group_name_H-M "I B A M"
_symmetry_group_IT_number 72
_symmetry_cell_setting 'orthorhombic'
loop_
_space_group_symop_operation_xyz
x,y,z
-x,-y,z
x,-y,1/2-z
-x,y,1/2-z
-x,-y,-z
x,y,-z
-x,y,1/2+z
x,-y,1/2+z
1/2+x,1/2+y,1/2+z
1/2-x,1/2-y,1/2+z
1/2+x,1/2-y,-z
1/2-x,1/2+y,-z
1/2-x,1/2-y,1/2-z
1/2+x,1/2+y,1/2-z
1/2-x,1/2+y,z
1/2+x,1/2-y,z
loop_
_atom_site_type_symbol
_atom_site_label
_atom_site_fract_x
_atom_site_fract_y
_atom_site_fract_z
Si Si1 0.869457 0.478296 0.157799
Si Si2 0.997613 0.095140 0.333666
Si Si3 0.289717 0.686403 0.000000
Si Si4 0.141130 0.439750 0.500000
Si Si5 0.595596 0.836596 0.500000
Si Si6 0.744744 0.314526 0.150848
Si Si7 0.751970 0.638621 0.860661
O O1 0.868759 0.480034 0.074053
O O2 0.829555 0.386706 0.176431
O O3 0.787803 0.554507 0.177628
O O4 0.000000 0.500000 0.179039
O O5 0.112656 0.132756 0.367981
O O6 0.000000 0.103167 0.250000
O O7 0.880389 0.141494 0.354821
O O8 0.000000 0.000000 0.350048
O O9 0.220231 0.704592 0.929141
O O10 0.276960 0.590611 0.000000
O O11 0.405943 0.738525 0.000000
O O12 0.028477 0.379656 0.500000
O O13 0.670647 0.856253 0.430747
O O14 0.728850 0.223744 0.179684
#
# Coordination Sequence:
#
# PCOD9525447 Si02
#       7
#    16  16   8   8   8  16  16
#     4  11  20  35  59  93 126 163 205 247 308 383
#     4  11  25  47  66  84 124 174 221 276 325 364
#     4   8  20  33  56  93 134 160 201 250 312 385
#     4  10  18  32  54  85 135 175 191 242 319 387
#     4  10  19  34  57  98 133 166 202 249 320 392
#     4  10  23  40  64  96 128 165 208 259 318 389
#     4  11  23  38  66  95 125 170 209 255 319 390
#
# _framework density 24.146501000000001
#
# number of rings (size 3 to 8) (size 9 to 14) (size 15 to 20)
#    0.000    1.636    3.636    0.818    2.545    5.818 
#    0.000    0.909    0.000    1.091    0.000    0.000 
#    0.000    0.000    0.000    0.000    0.000    0.000 
#
# Total GULP energy -245156.941098 kJ/mol
# GULP energy per Si atom -5571.748661 kJ/mol
# Density = 2.409154 g / cm^3
# Si number density = 24.146501 Si / 1000 Ang^3
#
#
#
# Elastic Constant Matrix: (Units=GPa)
#
#
# Indices 1 2 3 4 5 6 
#
# 1 134.0192 80.9466 -8.4461 0.0000 0.0000 0.0000
# 2 80.9466 217.8650 21.7311 0.0000 0.0000 0.0000
# 3 -8.4461 21.7311 102.7727 0.0000 0.0000 0.0000
# 4 0.0000 0.0000 0.0000 -32.6723 0.0000 0.0000
# 5 0.0000 0.0000 0.0000 0.0000 115.0528 0.0000
# 6 0.0000 0.0000 0.0000 0.0000 0.0000 54.7352
#
#
#
# Elastic Compliance Matrix: (Units=1/GPa)
#
#
# Indices 1 2 3 4 5 6 
#
# 1 0.009878 -0.003832 0.001622 0.000000 0.000000 0.000000
# 2 -0.003832 0.006175 -0.001621 0.000000 0.000000 0.000000
# 3 0.001622 -0.001621 0.010206 0.000000 0.000000 0.000000
# 4 0.000000 0.000000 0.000000 -0.030607 0.000000 0.000000
# 5 0.000000 0.000000 0.000000 0.000000 0.008692 0.000000
# 6 0.000000 0.000000 0.000000 0.000000 0.000000 0.018270
#
#
# Mechanical properties :
#
#
# Convention : Reuss Voigt Hill
#
# Bulk Modulus (GPa) = 53.76716 71.45779 62.61247
# Shear Modulus (GPa) = 137.07860 51.45149 94.26504
#
# Velocity S-wave (km/s) = 7.54273 4.62107 6.25488
# Velocity P-wave (km/s) = 9.90820 7.62431 8.84032
#
# Compressibility (1/GPa) = 0.01859871
#
# Stress axis : x y z
#
# Youngs Moduli (GPa) = 101.23121 161.93183 97.97950
#
# Poissons Ratio (x) = 0.62053 -0.15893
# Poissons Ratio (y) = 0.38792 0.15880
# Poissons Ratio (z) = -0.16421 0.26245
#
# Static dielectric constant tensor:
#      x y z
#    x 1.881880 0.000000 0.000000 
#    y 0.000000 2.082650 0.000000 
#    z 0.000000 0.000000 2.016100 
# 
# From -- ./inp_files/43239.got.cif
#   From: 2010.05.17/outbox.cif.g08.bks.cpg/sg72_22_cif.got.tgz:43239.got - 2010.06.03 17:03:01.
