data_PCOD9525780
_publ_section_title
;
Structure prediction by ZEFSAII (Michael W. Deem and Ramdas Pophale) SiO2 
 PCOD9525780
Probable space group: I B A M
;
_chemical_formula_sum "Si O2"
_cell_formula_units_Z 104
_cell_length_a 19.694284
_cell_length_b 27.617830
_cell_length_c 9.273504
_cell_angle_alpha 90.000000
_cell_angle_beta 90.000000
_cell_angle_gamma 90.000000
_cell_volume 5043.982974
_symmetry_space_group_name_H-M "I B A M"
_symmetry_group_IT_number 72
_symmetry_cell_setting 'orthorhombic'
loop_
_space_group_symop_operation_xyz
x,y,z
-x,-y,z
x,-y,1/2-z
-x,y,1/2-z
-x,-y,-z
x,y,-z
-x,y,1/2+z
x,-y,1/2+z
1/2+x,1/2+y,1/2+z
1/2-x,1/2-y,1/2+z
1/2+x,1/2-y,-z
1/2-x,1/2+y,-z
1/2-x,1/2-y,1/2-z
1/2+x,1/2+y,1/2-z
1/2-x,1/2+y,z
1/2+x,1/2-y,z
loop_
_atom_site_type_symbol
_atom_site_label
_atom_site_fract_x
_atom_site_fract_y
_atom_site_fract_z
Si Si1 0.218135 0.206741 0.340323
Si Si2 0.273066 0.949577 0.821908
Si Si3 0.901634 0.697877 0.500000
Si Si4 0.844375 0.353997 0.269908
Si Si5 0.874967 0.951196 0.174447
Si Si6 0.986294 0.224726 0.500000
Si Si7 0.549894 0.831055 0.500000
Si Si8 0.398515 0.655948 0.160633
O O1 0.201604 0.224047 0.500000
O O2 0.250000 0.250000 0.250000
O O3 0.278691 0.168123 0.347534
O O4 0.153419 0.181562 0.267543
O O5 0.321452 0.908920 0.753465
O O6 0.196833 0.942472 0.757311
O O7 0.294503 0.000000 0.750000
O O8 0.273408 0.949118 0.000000
O O9 0.859459 0.681122 0.363109
O O10 0.939964 0.750252 0.500000
O O11 0.969596 0.663871 0.500000
O O12 0.912166 0.351870 0.363416
O O13 0.913697 0.900040 0.195525
O O14 0.903452 0.000000 0.250000
O O15 0.866793 0.959076 0.000000
O O16 0.938867 0.272594 0.500000
O O17 0.962629 0.190316 0.629371
O O18 0.364060 0.654196 0.000000
#
# Coordination Sequence:
#
# PCOD9525780 Si02
#       8
#    16  16   8  16  16   8   8  16
#     4  12  24  36  55  88 124 163 201 253 320 397
#     4  11  22  36  57  85 125 163 211 268 325 386
#     4  10  26  37  70  82 112 159 227 271 318 390
#     4  12  23  40  62  89 119 163 213 264 322 387
#     4  10  19  31  53  87 125 174 213 248 305 394
#     4   8  20  41  61  83 116 162 214 269 321 357
#     4  10  20  44  57  83 113 157 194 278 322 367
#     4   9  19  36  58  81 128 164 204 254 317 381
#
# _framework density 20.618627
#
# number of rings (size 3 to 8) (size 9 to 14) (size 15 to 20)
#    0.923    0.615    3.077    3.692    4.308    0.615 
#    0.000    0.000    0.000    2.769    0.000    0.000 
#    0.000    0.000    0.000   24.923    0.308    0.000 
#
# Total GULP energy -289718.632269 kJ/mol
# GULP energy per Si atom -5571.512159 kJ/mol
# Density = 2.057170 g / cm^3
# Si number density = 20.618627 Si / 1000 Ang^3
#
#
#
# Elastic Constant Matrix: (Units=GPa)
#
#
# Indices 1 2 3 4 5 6 
#
# 1 71.0501 44.5647 42.8035 0.0000 0.0000 0.0000
# 2 44.5647 169.0551 39.6410 0.0000 0.0000 0.0000
# 3 42.8035 39.6410 128.0526 0.0000 0.0000 0.0000
# 4 0.0000 0.0000 0.0000 30.6449 0.0000 0.0000
# 5 0.0000 0.0000 0.0000 0.0000 22.0946 0.0000
# 6 0.0000 0.0000 0.0000 0.0000 0.0000 -5.0004
#
#
#
# Elastic Compliance Matrix: (Units=1/GPa)
#
#
# Indices 1 2 3 4 5 6 
#
# 1 0.019807 -0.003956 -0.005396 0.000000 0.000000 0.000000
# 2 -0.003956 0.007168 -0.000897 0.000000 0.000000 0.000000
# 3 -0.005396 -0.000897 0.009891 0.000000 0.000000 0.000000
# 4 0.000000 0.000000 0.000000 0.032632 0.000000 0.000000
# 5 0.000000 0.000000 0.000000 0.000000 0.045260 0.000000
# 6 0.000000 0.000000 0.000000 0.000000 0.000000 -0.199985
#
#
# Mechanical properties :
#
#
# Convention : Reuss Voigt Hill
#
# Bulk Modulus (GPa) = 61.09438 69.13069 65.11253
# Shear Modulus (GPa) = -84.35434 25.62439 -29.36497
#
# Velocity S-wave (km/s) = -6.40317 3.52913 -3.77795
# Velocity P-wave (km/s) = 4.99724 7.08572 3.55211
#
# Compressibility (1/GPa) = 0.01636812
#
# Stress axis : x y z
#
# Youngs Moduli (GPa) = 50.48802 139.50236 101.10603
#
# Poissons Ratio (x) = 0.55186 0.54557
# Poissons Ratio (y) = 0.19973 0.09067
# Poissons Ratio (z) = 0.27244 0.12510
#
# Static dielectric constant tensor:
#      x y z
#    x 1.715820 0.000000 0.000000 
#    y 0.000000 1.809090 0.000000 
#    z 0.000000 0.000000 1.771690 
# 
# From -- ./inp_files/7229.got.cif
#   From: 2010.05.17/outbox.cif.g08.bks.cpg/sg72_4_cif.got.tgz:7229.got - 2010.06.03 17:03:01.
