data_PCOD9525806
_publ_section_title
;
Structure prediction by ZEFSAII (Michael W. Deem and Ramdas Pophale) SiO2 
 PCOD9525806
Probable space group: I B A M
;
_chemical_formula_sum "Si O2"
_cell_formula_units_Z 116
_cell_length_a 30.152250
_cell_length_b 12.065574
_cell_length_c 14.287311
_cell_angle_alpha 90.000000
_cell_angle_beta 90.000000
_cell_angle_gamma 90.000000
_cell_volume 5197.783801
_symmetry_space_group_name_H-M "I B A M"
_symmetry_group_IT_number 72
_symmetry_cell_setting 'orthorhombic'
loop_
_space_group_symop_operation_xyz
x,y,z
-x,-y,z
x,-y,1/2-z
-x,y,1/2-z
-x,-y,-z
x,y,-z
-x,y,1/2+z
x,-y,1/2+z
1/2+x,1/2+y,1/2+z
1/2-x,1/2-y,1/2+z
1/2+x,1/2-y,-z
1/2-x,1/2+y,-z
1/2-x,1/2-y,1/2-z
1/2+x,1/2+y,1/2-z
1/2-x,1/2+y,z
1/2+x,1/2-y,z
loop_
_atom_site_type_symbol
_atom_site_label
_atom_site_fract_x
_atom_site_fract_y
_atom_site_fract_z
Si Si1 0.610906 0.825268 0.886139
Si Si2 0.985907 0.306674 0.847809
Si Si3 0.000000 0.500000 0.500000
Si Si4 0.655742 0.426310 0.114609
Si Si5 0.689553 0.666184 0.885349
Si Si6 0.126039 0.424161 0.885669
Si Si7 0.927487 0.205606 0.612652
Si Si8 0.710489 0.789970 0.614164
O O1 0.565182 0.771729 0.852535
O O2 0.654384 0.759091 0.856079
O O3 0.613354 0.953141 0.854619
O O4 0.609866 0.824877 0.000000
O O5 0.000000 0.355480 0.750000
O O6 0.992966 0.403447 0.921472
O O7 0.021023 0.207368 0.862683
O O8 0.671974 0.546325 0.144989
O O9 0.606611 0.388507 0.145409
O O10 0.689391 0.327805 0.141975
O O11 0.655580 0.428165 0.000000
O O12 0.739560 0.690099 0.853993
O O13 0.690241 0.666755 0.000000
O O14 0.093325 0.324797 0.857533
O O15 0.175495 0.385680 0.859238
O O16 0.123809 0.427442 0.000000
O O17 0.925107 0.205071 0.500000
O O18 0.711129 0.789869 0.500000
#
# Coordination Sequence:
#
# PCOD9525806 Si02
#       8
#    16  16   4  16  16  16  16  16
#     4  10  19  32  49  76 117 161 193 252 308 351
#     4  12  24  37  59  87 121 162 202 242 304 362
#     4  12  22  40  60  90 126 156 194 248 296 364
#     4   8  15  27  45  72 105 148 205 249 299 362
#     4   9  17  26  44  73 112 154 199 248 306 355
#     4   8  15  25  44  70 102 146 188 226 293 356
#     4   9  16  32  54  73 107 153 192 245 298 346
#     4   8  14  24  40  70 109 149 189 246 295 359
#
# _framework density 22.317204
#
# number of rings (size 3 to 8) (size 9 to 14) (size 15 to 20)
#    0.000    2.759    1.379    2.690    3.862    0.000 
#    0.000    0.690    0.000    4.966    0.000    3.862 
#    8.276    0.000    0.000    0.000    0.000    0.414 
#
# Total GULP energy -323615.336355 kJ/mol
# GULP energy per Si atom -5579.574765 kJ/mol
# Density = 2.226641 g / cm^3
# Si number density = 22.317204 Si / 1000 Ang^3
#
#
#
# Elastic Constant Matrix: (Units=GPa)
#
#
# Indices 1 2 3 4 5 6 
#
# 1 174.2195 42.4102 7.9627 0.0000 0.0000 0.0000
# 2 42.4102 72.3425 2.7173 0.0000 0.0000 0.0000
# 3 7.9627 2.7173 67.6813 0.0000 0.0000 0.0000
# 4 0.0000 0.0000 0.0000 17.5721 0.0000 0.0000
# 5 0.0000 0.0000 0.0000 0.0000 15.9903 0.0000
# 6 0.0000 0.0000 0.0000 0.0000 0.0000 2.6975
#
#
#
# Elastic Compliance Matrix: (Units=1/GPa)
#
#
# Indices 1 2 3 4 5 6 
#
# 1 0.006722 -0.003917 -0.000634 0.000000 0.000000 0.000000
# 2 -0.003917 0.016127 -0.000187 0.000000 0.000000 0.000000
# 3 -0.000634 -0.000187 0.014857 0.000000 0.000000 0.000000
# 4 0.000000 0.000000 0.000000 0.056908 0.000000 0.000000
# 5 0.000000 0.000000 0.000000 0.000000 0.062538 0.000000
# 6 0.000000 0.000000 0.000000 0.000000 0.000000 0.370707
#
#
# Mechanical properties :
#
#
# Convention : Reuss Voigt Hill
#
# Bulk Modulus (GPa) = 35.42163 46.71374 41.06769
# Shear Modulus (GPa) = 9.14505 24.66221 16.90363
#
# Velocity S-wave (km/s) = 2.02649 3.32788 2.75512
# Velocity P-wave (km/s) = 4.62406 5.97859 5.34441
#
# Compressibility (1/GPa) = 0.02823134
#
# Stress axis : x y z
#
# Youngs Moduli (GPa) = 148.75657 62.00964 67.30758
#
# Poissons Ratio (x) = 0.24290 0.04265
# Poissons Ratio (y) = 0.58270 0.01256
# Poissons Ratio (z) = 0.09425 0.01157
#
# Static dielectric constant tensor:
#      x y z
#    x 1.840560 0.000000 0.000000 
#    y 0.000000 1.752110 0.000000 
#    z 0.000000 0.000000 1.883570 
# 
# From -- ./inp_files/34321.got.cif
#   From: 2010.05.17/outbox.cif.g08.bks.cpg/sg72_18_cif.got.tgz:34321.got - 2010.06.03 17:03:01.
