data_PCOD9525495
_publ_section_title
;
Structure prediction by ZEFSAII (Michael W. Deem and Ramdas Pophale) SiO2 
 PCOD9525495
Probable space group: I B A M
;
_chemical_formula_sum "Si O2"
_cell_formula_units_Z 96
_cell_length_a 21.616932
_cell_length_b 17.706759
_cell_length_c 13.919633
_cell_angle_alpha 90.000000
_cell_angle_beta 90.000000
_cell_angle_gamma 90.000000
_cell_volume 5327.959534
_symmetry_space_group_name_H-M "I B A M"
_symmetry_group_IT_number 72
_symmetry_cell_setting 'orthorhombic'
loop_
_space_group_symop_operation_xyz
x,y,z
-x,-y,z
x,-y,1/2-z
-x,y,1/2-z
-x,-y,-z
x,y,-z
-x,y,1/2+z
x,-y,1/2+z
1/2+x,1/2+y,1/2+z
1/2-x,1/2-y,1/2+z
1/2+x,1/2-y,-z
1/2-x,1/2+y,-z
1/2-x,1/2-y,1/2-z
1/2+x,1/2+y,1/2-z
1/2-x,1/2+y,z
1/2+x,1/2-y,z
loop_
_atom_site_type_symbol
_atom_site_label
_atom_site_fract_x
_atom_site_fract_y
_atom_site_fract_z
Si Si1 0.812560 0.586840 0.284596
Si Si2 0.446695 0.436798 0.000000
Si Si3 0.562344 0.843341 0.187910
Si Si4 0.174549 0.962972 0.500000
Si Si5 0.674523 0.412908 0.214924
Si Si6 0.558782 0.947847 0.000000
Si Si7 0.939430 0.832431 0.315491
Si Si8 0.309077 0.040704 0.000000
O O1 0.819751 0.500000 0.250000
O O2 0.874338 0.631940 0.257755
O O3 0.743824 0.611714 0.253268
O O4 0.808890 0.587158 0.401020
O O5 0.500000 0.500000 0.000000
O O6 0.450346 0.384310 0.092670
O O7 0.380530 0.477866 0.000000
O O8 0.500000 0.853246 0.250000
O O9 0.568024 0.755683 0.160174
O O10 0.557734 0.895848 0.094345
O O11 0.170087 0.915933 0.598867
O O12 0.243161 0.001182 0.500000
O O13 0.667058 0.500000 0.250000
O O14 0.620875 0.362953 0.260163
O O15 0.623010 0.995882 0.000000
O O16 0.500000 0.000000 0.000000
O O17 0.000000 0.839471 0.250000
#
# Coordination Sequence:
#
# PCOD9525495 Si02
#       8
#    16   8  16   8  16   8  16   8
#     4   9  19  34  59  84 110 145 188 236 279 341
#     4  12  23  35  60  83 106 153 195 235 280 331
#     4  10  23  39  56  84 117 152 187 231 294 344
#     4  10  18  33  56  86 111 140 188 234 276 328
#     4  10  19  35  58  86 112 146 193 234 281 336
#     4  10  21  37  62  85 110 150 189 236 282 340
#     4  11  24  39  55  81 120 151 187 238 285 344
#     4   8  18  33  52  84 113 135 175 237 286 318
#
# _framework density 18.018153999999999
#
# number of rings (size 3 to 8) (size 9 to 14) (size 15 to 20)
#    0.000    2.000    1.667    1.500    4.667    0.667 
#    0.000    0.833    0.000    0.000    0.000    0.000 
#    0.000    0.000    0.000    0.000    0.000    0.000 
#
# Total GULP energy -267499.007489 kJ/mol
# GULP energy per Si atom -5572.895989 kJ/mol
# Density = 1.797714 g / cm^3
# Si number density = 18.018154 Si / 1000 Ang^3
#
#
#
# Elastic Constant Matrix: (Units=GPa)
#
#
# Indices 1 2 3 4 5 6 
#
# 1 186.7120 85.0040 31.9634 0.0000 0.0000 0.0000
# 2 85.0040 87.7709 37.6168 0.0000 0.0000 0.0000
# 3 31.9634 37.6168 80.5950 0.0000 0.0000 0.0000
# 4 0.0000 0.0000 0.0000 27.2487 0.0000 0.0000
# 5 0.0000 0.0000 0.0000 0.0000 13.3297 0.0000
# 6 0.0000 0.0000 0.0000 0.0000 0.0000 22.4941
#
#
#
# Elastic Compliance Matrix: (Units=1/GPa)
#
#
# Indices 1 2 3 4 5 6 
#
# 1 0.009608 -0.009591 0.000666 0.000000 0.000000 0.000000
# 2 -0.009591 0.023815 -0.007312 0.000000 0.000000 0.000000
# 3 0.000666 -0.007312 0.015556 0.000000 0.000000 0.000000
# 4 0.000000 0.000000 0.000000 0.036699 0.000000 0.000000
# 5 0.000000 0.000000 0.000000 0.000000 0.075021 0.000000
# 6 0.000000 0.000000 0.000000 0.000000 0.000000 0.044456
#
#
# Mechanical properties :
#
#
# Convention : Reuss Voigt Hill
#
# Bulk Modulus (GPa) = 60.58276 73.80514 67.19395
# Shear Modulus (GPa) = 20.56498 25.98072 23.27285
#
# Velocity S-wave (km/s) = 3.38205 3.80138 3.59783
# Velocity P-wave (km/s) = 6.99623 7.76645 7.39138
#
# Compressibility (1/GPa) = 0.01650635
#
# Stress axis : x y z
#
# Youngs Moduli (GPa) = 104.07806 41.98968 64.28199
#
# Poissons Ratio (x) = 0.40271 -0.04280
# Poissons Ratio (y) = 0.99817 0.47003
# Poissons Ratio (z) = -0.06929 0.30703
#
# Static dielectric constant tensor:
#      x y z
#    x 1.656950 0.000000 0.000000 
#    y 0.000000 1.581600 0.000000 
#    z 0.000000 0.000000 1.520660 
# 
# From -- ./inp_files/21931.got.cif
#   From: 2010.05.17/outbox.cif.g08.bks.cpg/sg72_11_cif.got.tgz:21931.got - 2010.06.03 17:03:01.
