data_PCOD9525981
_publ_section_title
;
Structure prediction by ZEFSAII (Michael W. Deem and Ramdas Pophale) SiO2 
 PCOD9525981
Probable space group: I B A M
;
_chemical_formula_sum "Si O2"
_cell_formula_units_Z 72
_cell_length_a 29.285630
_cell_length_b 5.251272
_cell_length_c 25.177259
_cell_angle_alpha 90.000000
_cell_angle_beta 90.000000
_cell_angle_gamma 90.000000
_cell_volume 3871.930316
_symmetry_space_group_name_H-M "I B A M"
_symmetry_group_IT_number 72
_symmetry_cell_setting 'orthorhombic'
loop_
_space_group_symop_operation_xyz
x,y,z
-x,-y,z
x,-y,1/2-z
-x,y,1/2-z
-x,-y,-z
x,y,-z
-x,y,1/2+z
x,-y,1/2+z
1/2+x,1/2+y,1/2+z
1/2-x,1/2-y,1/2+z
1/2+x,1/2-y,-z
1/2-x,1/2+y,-z
1/2-x,1/2-y,1/2-z
1/2+x,1/2+y,1/2-z
1/2-x,1/2+y,z
1/2+x,1/2-y,z
loop_
_atom_site_type_symbol
_atom_site_label
_atom_site_fract_x
_atom_site_fract_y
_atom_site_fract_z
Si Si1 0.096415 0.573175 0.310722
Si Si2 0.544927 0.667177 0.942079
Si Si3 0.873465 0.936951 0.627163
Si Si4 0.000000 0.500000 0.648387
Si Si5 0.219225 0.937312 0.062066
O O1 0.105290 0.500000 0.250000
O O2 0.115213 0.333303 0.344962
O O3 0.041232 0.616652 0.317361
O O4 0.119503 0.831405 0.331879
O O5 0.500000 0.500000 0.948672
O O6 0.589419 0.523824 0.920374
O O7 0.529195 0.836065 0.892940
O O8 0.554212 0.789789 0.000000
O O9 0.824003 0.934597 0.600626
O O10 0.250504 0.689179 0.070346
O O11 0.204299 0.935470 0.000000
#
# Coordination Sequence:
#
# PCOD9525981 Si02
#       5
#    16  16  16   8  16
#     4  11  23  38  59  82 115 156 204 249 285 333
#     4  10  19  33  53  83 123 156 185 225 282 357
#     4  11  22  39  60  87 117 155 194 238 296 344
#     4  10  20  36  52  82 116 162 202 238 286 332
#     4  10  21  39  64  93 120 149 188 235 290 353
#
# _framework density 18.595376000000002
#
# number of rings (size 3 to 8) (size 9 to 14) (size 15 to 20)
#    0.000    1.556    2.222    3.333    0.000    0.000 
#    0.000    4.444    0.000   13.333    0.000    0.000 
#    0.000    0.000    0.000    0.000    0.000    0.000 
#
# Total GULP energy -200538.226212 kJ/mol
# GULP energy per Si atom -5570.506284 kJ/mol
# Density = 1.855305 g / cm^3
# Si number density = 18.595376 Si / 1000 Ang^3
#
#
#
# Elastic Constant Matrix: (Units=GPa)
#
#
# Indices 1 2 3 4 5 6 
#
# 1 115.8213 31.2632 57.6965 0.0000 0.0000 0.0000
# 2 31.2632 81.0019 5.9107 0.0000 0.0000 0.0000
# 3 57.6965 5.9107 58.8172 0.0000 0.0000 0.0000
# 4 0.0000 0.0000 0.0000 12.1051 0.0000 0.0000
# 5 0.0000 0.0000 0.0000 0.0000 -155.2886 0.0000
# 6 0.0000 0.0000 0.0000 0.0000 0.0000 18.1947
#
#
#
# Elastic Compliance Matrix: (Units=1/GPa)
#
#
# Indices 1 2 3 4 5 6 
#
# 1 0.019547 -0.006190 -0.018552 0.000000 0.000000 0.000000
# 2 -0.006190 0.014397 0.004626 0.000000 0.000000 0.000000
# 3 -0.018552 0.004626 0.034736 0.000000 0.000000 0.000000
# 4 0.000000 0.000000 0.000000 0.082610 0.000000 0.000000
# 5 0.000000 0.000000 0.000000 0.000000 -0.006440 0.000000
# 6 0.000000 0.000000 0.000000 0.000000 0.000000 0.054961
#
#
# Mechanical properties :
#
#
# Convention : Reuss Voigt Hill
#
# Bulk Modulus (GPa) = 35.15480 49.48680 42.32080
# Shear Modulus (GPa) = 20.03794 -14.27975 2.87910
#
# Velocity S-wave (km/s) = 3.28621 -2.77414 1.24565
# Velocity P-wave (km/s) = 5.77452 4.05081 4.98769
#
# Compressibility (1/GPa) = 0.02844562
#
# Stress axis : x y z
#
# Youngs Moduli (GPa) = 51.15930 69.45847 28.78876
#
# Poissons Ratio (x) = 0.42998 0.53410
# Poissons Ratio (y) = 0.31670 -0.13317
# Poissons Ratio (z) = 0.94912 -0.32129
#
# Static dielectric constant tensor:
#      x y z
#    x 1.654040 0.000000 0.000000 
#    y 0.000000 1.636860 0.000000 
#    z 0.000000 0.000000 1.761330 
# 
# From -- ./inp_files/41457.got.cif
#   From: 2010.05.17/outbox.cif.g08.bks.cpg/sg72_21_cif.got.tgz:41457.got - 2010.06.03 17:03:01.
