data_PCOD9525532
_publ_section_title
;
Structure prediction by ZEFSAII (Michael W. Deem and Ramdas Pophale) SiO2 
 PCOD9525532
Probable space group: I B A M
;
_chemical_formula_sum "Si O2"
_cell_formula_units_Z 104
_cell_length_a 15.121732
_cell_length_b 18.678857
_cell_length_c 21.431141
_cell_angle_alpha 90.000000
_cell_angle_beta 90.000000
_cell_angle_gamma 90.000000
_cell_volume 6053.368713
_symmetry_space_group_name_H-M "I B A M"
_symmetry_group_IT_number 72
_symmetry_cell_setting 'orthorhombic'
loop_
_space_group_symop_operation_xyz
x,y,z
-x,-y,z
x,-y,1/2-z
-x,y,1/2-z
-x,-y,-z
x,y,-z
-x,y,1/2+z
x,-y,1/2+z
1/2+x,1/2+y,1/2+z
1/2-x,1/2-y,1/2+z
1/2+x,1/2-y,-z
1/2-x,1/2+y,-z
1/2-x,1/2-y,1/2-z
1/2+x,1/2+y,1/2-z
1/2-x,1/2+y,z
1/2+x,1/2-y,z
loop_
_atom_site_type_symbol
_atom_site_label
_atom_site_fract_x
_atom_site_fract_y
_atom_site_fract_z
Si Si1 0.361247 0.437693 0.203868
Si Si2 0.607053 0.666699 0.571421
Si Si3 0.442641 0.702583 0.341431
Si Si4 0.106762 0.000719 0.930669
Si Si5 0.807933 0.640040 0.241814
Si Si6 0.257255 0.239163 0.853252
Si Si7 0.000000 0.328372 0.750000
O O1 0.395436 0.500000 0.250000
O O2 0.414847 0.362453 0.205102
O O3 0.363105 0.460411 0.131390
O O4 0.261460 0.420542 0.224513
O O5 0.585057 0.682909 0.500000
O O6 0.520326 0.677180 0.613605
O O7 0.634200 0.583464 0.575041
O O8 0.687824 0.714577 0.595534
O O9 0.349962 0.725303 0.373791
O O10 0.476902 0.772611 0.305335
O O11 0.133775 0.973677 0.000000
O O12 0.000000 0.000000 0.929732
O O13 0.789782 0.704121 0.192642
O O14 0.781785 0.671817 0.309265
O O15 0.911971 0.625906 0.239136
#
# Coordination Sequence:
#
# PCOD9525532 Si02
#       7
#    16  16  16  16  16  16   8
#     4  11  22  33  52  82 111 139 184 222 253 322
#     4  11  21  35  53  75 108 144 184 217 259 327
#     4  10  21  32  53  81 108 139 171 223 273 318
#     4  10  21  35  48  70 110 149 175 211 268 320
#     4   9  18  33  53  78 106 135 173 225 270 319
#     4   9  18  34  50  76 107 138 170 217 278 318
#     4  10  18  34  58  74 110 134 168 222 288 318
#
# _framework density 17.180516000000001
#
# number of rings (size 3 to 8) (size 9 to 14) (size 15 to 20)
#    0.000    2.000    3.077    1.846    2.154    0.923 
#    0.000    2.692    0.000    0.000    0.000    0.000 
#    0.000    6.769    0.000    0.000    0.000    0.000 
#
# Total GULP energy -289918.213670 kJ/mol
# GULP energy per Si atom -5575.350263 kJ/mol
# Density = 1.714141 g / cm^3
# Si number density = 17.180516 Si / 1000 Ang^3
#
#
#
# Elastic Constant Matrix: (Units=GPa)
#
#
# Indices 1 2 3 4 5 6 
#
# 1 111.0290 19.7464 17.9225 0.0000 0.0000 0.0000
# 2 19.7464 43.1847 16.1014 0.0000 0.0000 0.0000
# 3 17.9225 16.1014 46.6906 0.0000 0.0000 0.0000
# 4 0.0000 0.0000 0.0000 21.8540 0.0000 0.0000
# 5 0.0000 0.0000 0.0000 0.0000 0.6329 0.0000
# 6 0.0000 0.0000 0.0000 0.0000 0.0000 13.0987
#
#
#
# Elastic Compliance Matrix: (Units=1/GPa)
#
#
# Indices 1 2 3 4 5 6 
#
# 1 0.010075 -0.003632 -0.002615 0.000000 0.000000 0.000000
# 2 -0.003632 0.027882 -0.008221 0.000000 0.000000 0.000000
# 3 -0.002615 -0.008221 0.025256 0.000000 0.000000 0.000000
# 4 0.000000 0.000000 0.000000 0.045758 0.000000 0.000000
# 5 0.000000 0.000000 0.000000 0.000000 1.580085 0.000000
# 6 0.000000 0.000000 0.000000 0.000000 0.000000 0.076343
#
#
# Mechanical properties :
#
#
# Convention : Reuss Voigt Hill
#
# Bulk Modulus (GPa) = 29.17339 34.27165 31.72252
# Shear Modulus (GPa) = 2.76892 16.92605 9.84748
#
# Velocity S-wave (km/s) = 1.27089 3.14218 2.39671
# Velocity P-wave (km/s) = 4.37846 5.75809 5.11501
#
# Compressibility (1/GPa) = 0.03427781
#
# Stress axis : x y z
#
# Youngs Moduli (GPa) = 99.25905 35.86510 39.59389
#
# Poissons Ratio (x) = 0.13025 0.10353
# Poissons Ratio (y) = 0.36048 0.32551
# Poissons Ratio (z) = 0.25954 0.29485
#
# Static dielectric constant tensor:
#      x y z
#    x 1.600540 0.000000 0.000000 
#    y 0.000000 1.602530 0.000000 
#    z 0.000000 0.000000 1.591210 
# 
# From -- ./inp_files/38403.got.cif
#   From: 2010.05.17/outbox.cif.g08.bks.cpg/sg72_20_cif.got.tgz:38403.got - 2010.06.03 17:03:01.
