data_PCOD9525976
_publ_section_title
;
Structure prediction by ZEFSAII (Michael W. Deem and Ramdas Pophale) SiO2 
 PCOD9525976
Probable space group: I B A M
;
_chemical_formula_sum "Si O2"
_cell_formula_units_Z 116
_cell_length_a 26.464371
_cell_length_b 16.591951
_cell_length_c 14.780087
_cell_angle_alpha 90.000000
_cell_angle_beta 90.000000
_cell_angle_gamma 90.000000
_cell_volume 6489.870384
_symmetry_space_group_name_H-M "I B A M"
_symmetry_group_IT_number 72
_symmetry_cell_setting 'orthorhombic'
loop_
_space_group_symop_operation_xyz
x,y,z
-x,-y,z
x,-y,1/2-z
-x,y,1/2-z
-x,-y,-z
x,y,-z
-x,y,1/2+z
x,-y,1/2+z
1/2+x,1/2+y,1/2+z
1/2-x,1/2-y,1/2+z
1/2+x,1/2-y,-z
1/2-x,1/2+y,-z
1/2-x,1/2-y,1/2-z
1/2+x,1/2+y,1/2-z
1/2-x,1/2+y,z
1/2+x,1/2-y,z
loop_
_atom_site_type_symbol
_atom_site_label
_atom_site_fract_x
_atom_site_fract_y
_atom_site_fract_z
Si Si1 0.030314 0.926753 0.398625
Si Si2 0.293690 0.617474 0.601995
Si Si3 0.954109 0.242125 0.690583
Si Si4 0.430465 0.094536 0.395586
Si Si5 0.359580 0.534345 0.848908
Si Si6 0.000000 0.500000 0.250000
Si Si7 0.179458 0.354848 0.894247
Si Si8 0.158256 0.796872 0.270629
O O1 0.010271 0.915656 0.500000
O O2 0.027324 0.842078 0.349547
O O3 0.088598 0.952785 0.400992
O O4 0.000000 0.000000 0.355298
O O5 0.300890 0.648650 0.500000
O O6 0.322751 0.532630 0.611093
O O7 0.233954 0.604381 0.616395
O O8 0.315290 0.679125 0.676807
O O9 0.941394 0.309831 0.616632
O O10 0.901663 0.221553 0.741718
O O11 0.000000 0.274650 0.750000
O O12 0.440891 0.070093 0.500000
O O13 0.463458 0.049416 0.319337
O O14 0.369940 0.089887 0.378022
O O15 0.373629 0.500000 0.750000
O O16 0.336665 0.622776 0.832193
O O17 0.178541 0.279535 0.825736
O O18 0.175118 0.328230 0.000000
#
# Coordination Sequence:
#
# PCOD9525976 Si02
#       8
#    16  16  16  16  16   4  16  16
#     4  10  21  31  47  76 107 147 188 227 269 316
#     4  10  19  33  53  79 112 145 179 227 278 321
#     4  10  20  35  56  78 111 148 190 230 271 322
#     4  10  21  40  63  87 114 145 184 227 278 345
#     4   9  19  32  47  72 101 141 182 221 269 314
#     4  12  22  40  64  94 114 140 174 228 298 334
#     4   9  19  36  60  82 105 143 184 223 271 327
#     4   9  19  34  54  78 104 143 189 225 268 322
#
# _framework density 17.874009000000001
#
# number of rings (size 3 to 8) (size 9 to 14) (size 15 to 20)
#    0.000    2.345    0.690    1.448    5.793    3.862 
#    3.724    0.690    0.000    0.000    0.000    0.000 
#    0.000    0.000    0.000    0.000    0.000    0.000 
#
# Total GULP energy -323088.809250 kJ/mol
# GULP energy per Si atom -5570.496711 kJ/mol
# Density = 1.783333 g / cm^3
# Si number density = 17.874009 Si / 1000 Ang^3
#
#
#
# Elastic Constant Matrix: (Units=GPa)
#
#
# Indices 1 2 3 4 5 6 
#
# 1 69.2739 27.2763 53.7009 0.0000 0.0000 0.0000
# 2 27.2763 57.6516 29.7577 0.0000 0.0000 0.0000
# 3 53.7009 29.7577 98.3510 0.0000 0.0000 0.0000
# 4 0.0000 0.0000 0.0000 148.6927 0.0000 0.0000
# 5 0.0000 0.0000 0.0000 0.0000 27.0622 0.0000
# 6 0.0000 0.0000 0.0000 0.0000 0.0000 22.1254
#
#
#
# Elastic Compliance Matrix: (Units=1/GPa)
#
#
# Indices 1 2 3 4 5 6 
#
# 1 0.026700 -0.006053 -0.012747 0.000000 0.000000 0.000000
# 2 -0.006053 0.021928 -0.003330 0.000000 0.000000 0.000000
# 3 -0.012747 -0.003330 0.018135 0.000000 0.000000 0.000000
# 4 0.000000 0.000000 0.000000 0.006725 0.000000 0.000000
# 5 0.000000 0.000000 0.000000 0.000000 0.036952 0.000000
# 6 0.000000 0.000000 0.000000 0.000000 0.000000 0.045197
#
#
# Mechanical properties :
#
#
# Convention : Reuss Voigt Hill
#
# Bulk Modulus (GPa) = 44.43683 49.63848 47.03765
# Shear Modulus (GPa) = 24.10809 47.21217 35.66013
#
# Velocity S-wave (km/s) = 3.67656 5.14502 4.47148
# Velocity P-wave (km/s) = 6.55270 7.94522 7.28232
#
# Compressibility (1/GPa) = 0.02250385
#
# Stress axis : x y z
#
# Youngs Moduli (GPa) = 37.45249 45.60377 55.14084
#
# Poissons Ratio (x) = 0.27603 0.70290
# Poissons Ratio (y) = 0.22669 0.18360
# Poissons Ratio (z) = 0.47742 0.15185
#
# Static dielectric constant tensor:
#      x y z
#    x 1.625210 0.000000 0.000000 
#    y 0.000000 1.600060 0.000000 
#    z 0.000000 0.000000 1.623000 
# 
# From -- ./inp_files/26048.got.cif
#   From: 2010.05.17/outbox.cif.g08.bks.cpg/sg72_14_cif.got.tgz:26048.got - 2010.06.03 17:03:01.
