data_PCOD9525562
_publ_section_title
;
Structure prediction by ZEFSAII (Michael W. Deem and Ramdas Pophale) SiO2 
 PCOD9525562
Probable space group: I B A M
;
_chemical_formula_sum "Si O2"
_cell_formula_units_Z 64
_cell_length_a 17.982953
_cell_length_b 10.299245
_cell_length_c 16.050633
_cell_angle_alpha 90.000000
_cell_angle_beta 90.000000
_cell_angle_gamma 90.000000
_cell_volume 2972.751201
_symmetry_space_group_name_H-M "I B A M"
_symmetry_group_IT_number 72
_symmetry_cell_setting 'orthorhombic'
loop_
_space_group_symop_operation_xyz
x,y,z
-x,-y,z
x,-y,1/2-z
-x,y,1/2-z
-x,-y,-z
x,y,-z
-x,y,1/2+z
x,-y,1/2+z
1/2+x,1/2+y,1/2+z
1/2-x,1/2-y,1/2+z
1/2+x,1/2-y,-z
1/2-x,1/2+y,-z
1/2-x,1/2-y,1/2-z
1/2+x,1/2+y,1/2-z
1/2-x,1/2+y,z
1/2+x,1/2-y,z
loop_
_atom_site_type_symbol
_atom_site_label
_atom_site_fract_x
_atom_site_fract_y
_atom_site_fract_z
Si Si1 0.817667 0.753793 0.601812
Si Si2 0.563188 0.892598 0.500000
Si Si3 0.429536 0.403280 0.500000
Si Si4 0.799399 0.533906 0.904141
Si Si5 0.587764 0.469853 0.659737
O O1 0.821145 0.748203 0.500000
O O2 0.803561 0.608856 0.634065
O O3 0.753075 0.853531 0.629596
O O4 0.892463 0.823483 0.633737
O O5 0.542032 0.742711 0.500000
O O6 0.616982 0.915765 0.420495
O O7 0.500000 0.000000 0.500000
O O8 0.500000 0.500000 0.500000
O O9 0.384831 0.439017 0.583694
O O10 0.771853 0.515153 0.000000
O O11 0.500000 0.500000 0.665213
O O12 0.620372 0.500000 0.750000
#
# Coordination Sequence:
#
# PCOD9525562 Si02
#       5
#    16   8   8  16  16
#     4  10  18  35  57  84 116 158 200 240 306 354
#     4  10  22  33  55  97 124 150 208 248 304 367
#     4  10  22  35  65  87 117 158 197 238 311 355
#     4   8  20  31  55  85 121 154 193 249 293 360
#     4  10  22  36  59  92 119 153 207 255 296 365
#
# _framework density 21.528880000000001
#
# number of rings (size 3 to 8) (size 9 to 14) (size 15 to 20)
#    0.750    1.750    1.250    0.000   10.500    0.000 
#    0.000    1.250    0.000    0.000    0.000    0.000 
#    0.000    0.000    0.000    0.000    0.000    0.000 
#
# Total GULP energy -178256.469268 kJ/mol
# GULP energy per Si atom -5570.514665 kJ/mol
# Density = 2.147988 g / cm^3
# Si number density = 21.528880 Si / 1000 Ang^3
#
#
#
# Elastic Constant Matrix: (Units=GPa)
#
#
# Indices 1 2 3 4 5 6 
#
# 1 92.1666 51.4091 -4.4394 0.0000 0.0000 0.0000
# 2 51.4091 206.0164 15.1836 0.0000 0.0000 0.0000
# 3 -4.4394 15.1836 90.6100 0.0000 0.0000 0.0000
# 4 0.0000 0.0000 0.0000 -4.4450 0.0000 0.0000
# 5 0.0000 0.0000 0.0000 0.0000 0.8620 0.0000
# 6 0.0000 0.0000 0.0000 0.0000 0.0000 37.7997
#
#
#
# Elastic Compliance Matrix: (Units=1/GPa)
#
#
# Indices 1 2 3 4 5 6 
#
# 1 0.012726 -0.003262 0.001170 0.000000 0.000000 0.000000
# 2 -0.003262 0.005751 -0.001123 0.000000 0.000000 0.000000
# 3 0.001170 -0.001123 0.011282 0.000000 0.000000 0.000000
# 4 0.000000 0.000000 0.000000 -0.224972 0.000000 0.000000
# 5 0.000000 0.000000 0.000000 0.000000 1.160096 0.000000
# 6 0.000000 0.000000 0.000000 0.000000 0.000000 0.026455
#
#
# Mechanical properties :
#
#
# Convention : Reuss Voigt Hill
#
# Bulk Modulus (GPa) = 42.86711 57.01109 49.93910
# Shear Modulus (GPa) = 4.97243 28.61932 16.79588
#
# Velocity S-wave (km/s) = 1.52140 3.64997 2.79616
# Velocity P-wave (km/s) = 4.80009 6.65596 5.80270
#
# Compressibility (1/GPa) = 0.02332791
#
# Stress axis : x y z
#
# Youngs Moduli (GPa) = 78.58147 173.89116 88.63755
#
# Poissons Ratio (x) = 0.56719 -0.10371
# Poissons Ratio (y) = 0.25632 0.09958
# Poissons Ratio (z) = -0.09195 0.19536
#
# Static dielectric constant tensor:
#      x y z
#    x 1.719360 0.000000 0.000000 
#    y 0.000000 1.777560 0.000000 
#    z 0.000000 0.000000 1.848120 
# 
# From -- ./inp_files/32242.got.cif
#   From: 2010.05.17/outbox.cif.g08.bks.cpg/sg72_17_cif.got.tgz:32242.got - 2010.06.03 17:03:01.
