data_PCOD9525668
_publ_section_title
;
Structure prediction by ZEFSAII (Michael W. Deem and Ramdas Pophale) SiO2 
 PCOD9525668
Probable space group: I B A M
;
_chemical_formula_sum "Si O2"
_cell_formula_units_Z 96
_cell_length_a 11.964890
_cell_length_b 17.201484
_cell_length_c 26.081794
_cell_angle_alpha 90.000000
_cell_angle_beta 90.000000
_cell_angle_gamma 90.000000
_cell_volume 5367.994800
_symmetry_space_group_name_H-M "I B A M"
_symmetry_group_IT_number 72
_symmetry_cell_setting 'orthorhombic'
loop_
_space_group_symop_operation_xyz
x,y,z
-x,-y,z
x,-y,1/2-z
-x,y,1/2-z
-x,-y,-z
x,y,-z
-x,y,1/2+z
x,-y,1/2+z
1/2+x,1/2+y,1/2+z
1/2-x,1/2-y,1/2+z
1/2+x,1/2-y,-z
1/2-x,1/2+y,-z
1/2-x,1/2-y,1/2-z
1/2+x,1/2+y,1/2-z
1/2-x,1/2+y,z
1/2+x,1/2-y,z
loop_
_atom_site_type_symbol
_atom_site_label
_atom_site_fract_x
_atom_site_fract_y
_atom_site_fract_z
Si Si1 0.616667 0.706510 0.366735
Si Si2 0.262560 0.117543 0.944368
Si Si3 0.757031 0.150261 0.132674
Si Si4 0.618291 0.957450 0.558513
Si Si5 0.075247 0.242536 0.558414
Si Si6 0.035053 0.085316 0.309529
O O1 0.691695 0.644193 0.396448
O O2 0.692304 0.775212 0.343706
O O3 0.539253 0.743212 0.410909
O O4 0.537003 0.657501 0.330445
O O5 0.372510 0.171467 0.942319
O O6 0.293868 0.028234 0.943085
O O7 0.208690 0.135163 0.000000
O O8 0.665882 0.098761 0.102301
O O9 0.838980 0.187054 0.089183
O O10 0.837460 0.104685 0.172635
O O11 0.611825 0.923711 0.500000
O O12 0.500000 0.000000 0.569241
O O13 0.063172 0.216087 0.500000
O O14 0.000000 0.082325 0.250000
O O15 0.000000 0.000000 0.331058
#
# Coordination Sequence:
#
# PCOD9525668 Si02
#       6
#    16  16  16  16  16  16
#     4  10  19  32  52  76 101 130 167 214 263 311
#     4   9  17  28  44  69 101 137 170 199 239 296
#     4  10  20  33  52  78 105 138 179 223 268 316
#     4  10  19  30  47  74 110 147 177 206 248 308
#     4   9  17  29  46  72 107 142 175 209 248 304
#     4  10  22  40  59  77  98 131 176 224 280 336
#
# _framework density 17.883773999999999
#
# number of rings (size 3 to 8) (size 9 to 14) (size 15 to 20)
#    0.000    2.333    0.000    3.000    0.000    4.000 
#    0.000    0.000    0.000    8.000    0.000    1.167 
#    0.000    0.000    0.000    0.000    0.000    0.000 
#
# Total GULP energy -267319.650051 kJ/mol
# GULP energy per Si atom -5569.159376 kJ/mol
# Density = 1.784307 g / cm^3
# Si number density = 17.883774 Si / 1000 Ang^3
#
#
#
# Elastic Constant Matrix: (Units=GPa)
#
#
# Indices 1 2 3 4 5 6 
#
# 1 76.0704 23.1807 22.8641 0.0000 0.0000 0.0000
# 2 23.1807 65.2416 25.7449 0.0000 0.0000 0.0000
# 3 22.8641 25.7449 55.3525 0.0000 0.0000 0.0000
# 4 0.0000 0.0000 0.0000 14.3915 0.0000 0.0000
# 5 0.0000 0.0000 0.0000 0.0000 10.3088 0.0000
# 6 0.0000 0.0000 0.0000 0.0000 0.0000 22.1934
#
#
#
# Elastic Compliance Matrix: (Units=1/GPa)
#
#
# Indices 1 2 3 4 5 6 
#
# 1 0.015706 -0.003699 -0.004767 0.000000 0.000000 0.000000
# 2 -0.003699 0.019645 -0.007609 0.000000 0.000000 0.000000
# 3 -0.004767 -0.007609 0.023574 0.000000 0.000000 0.000000
# 4 0.000000 0.000000 0.000000 0.069485 0.000000 0.000000
# 5 0.000000 0.000000 0.000000 0.000000 0.097004 0.000000
# 6 0.000000 0.000000 0.000000 0.000000 0.000000 0.045058
#
#
# Mechanical properties :
#
#
# Convention : Reuss Voigt Hill
#
# Bulk Modulus (GPa) = 37.34927 37.80489 37.57708
# Shear Modulus (GPa) = 16.04894 17.70374 16.87634
#
# Velocity S-wave (km/s) = 2.99892 3.14973 3.07525
# Velocity P-wave (km/s) = 5.73769 5.86625 5.80233
#
# Compressibility (1/GPa) = 0.02677429
#
# Stress axis : x y z
#
# Youngs Moduli (GPa) = 63.67099 50.90481 42.41968
#
# Poissons Ratio (x) = 0.18831 0.20221
# Poissons Ratio (y) = 0.23554 0.32276
# Poissons Ratio (z) = 0.30351 0.38732
#
# Static dielectric constant tensor:
#      x y z
#    x 1.649960 0.000000 0.000000 
#    y 0.000000 1.635290 0.000000 
#    z 0.000000 0.000000 1.610510 
# 
# From -- ./inp_files/43325.got.cif
#   From: 2010.05.17/outbox.cif.g08.bks.cpg/sg72_22_cif.got.tgz:43325.got - 2010.06.03 17:03:01.
