data_PCOD9525025
_publ_section_title
;
Structure prediction by ZEFSAII (Michael W. Deem and Ramdas Pophale) SiO2 
 PCOD9525025
Probable space group: I B A M
;
_chemical_formula_sum "Si O2"
_cell_formula_units_Z 80
_cell_length_a 17.899078
_cell_length_b 26.799255
_cell_length_c 8.560601
_cell_angle_alpha 90.000000
_cell_angle_beta 90.000000
_cell_angle_gamma 90.000000
_cell_volume 4106.365829
_symmetry_space_group_name_H-M "I B A M"
_symmetry_group_IT_number 72
_symmetry_cell_setting 'orthorhombic'
loop_
_space_group_symop_operation_xyz
x,y,z
-x,-y,z
x,-y,1/2-z
-x,y,1/2-z
-x,-y,-z
x,y,-z
-x,y,1/2+z
x,-y,1/2+z
1/2+x,1/2+y,1/2+z
1/2-x,1/2-y,1/2+z
1/2+x,1/2-y,-z
1/2-x,1/2+y,-z
1/2-x,1/2-y,1/2-z
1/2+x,1/2+y,1/2-z
1/2-x,1/2+y,z
1/2+x,1/2-y,z
loop_
_atom_site_type_symbol
_atom_site_label
_atom_site_fract_x
_atom_site_fract_y
_atom_site_fract_z
Si Si1 0.877688 0.447949 0.185570
Si Si2 0.798869 0.159850 0.810841
Si Si3 0.422134 0.737365 0.687562
Si Si4 0.374834 0.157434 0.687431
Si Si5 0.207311 0.949366 0.187276
O O1 0.910279 0.500000 0.250000
O O2 0.906376 0.395035 0.249654
O O3 0.791035 0.448016 0.242299
O O4 0.881362 0.448565 0.000000
O O5 0.852594 0.203738 0.755332
O O6 0.712419 0.163189 0.760956
O O7 0.827194 0.104174 0.769802
O O8 0.797805 0.162427 0.000000
O O9 0.500000 0.716079 0.750000
O O10 0.422311 0.738008 0.500000
O O11 0.414355 0.793434 0.750103
O O12 0.376908 0.155884 0.500000
O O13 0.170758 0.000000 0.250000
O O14 0.213809 0.952122 0.000000
#
# Coordination Sequence:
#
# PCOD9525025 Si02
#       5
#    16  16  16  16  16
#     4  10  17  27  45  73 105 136 165 202 247 297
#     4   8  17  32  52  75 103 133 168 210 254 299
#     4  11  22  37  53  73 100 135 172 212 257 306
#     4  10  19  34  54  78 103 132 168 212 256 301
#     4   9  15  26  44  71 102 132 163 204 252 301
#
# _framework density 19.481947000000002
#
# number of rings (size 3 to 8) (size 9 to 14) (size 15 to 20)
#    0.000    2.400    0.000    6.600    0.000    0.000 
#    0.000   11.000    0.000    1.200    0.000    8.400 
#    0.000    0.000    0.000    0.000    0.000    0.000 
#
# Total GULP energy -223087.663528 kJ/mol
# GULP energy per Si atom -5577.191588 kJ/mol
# Density = 1.943761 g / cm^3
# Si number density = 19.481947 Si / 1000 Ang^3
#
#
#
# Elastic Constant Matrix: (Units=GPa)
#
#
# Indices 1 2 3 4 5 6 
#
# 1 60.6747 42.3125 16.6782 0.0000 0.0000 0.0000
# 2 42.3125 140.6874 35.2465 0.0000 0.0000 0.0000
# 3 16.6782 35.2465 91.2574 -0.0002 -0.0001 0.0000
# 4 0.0000 0.0000 -0.0002 47.4146 0.0000 0.0000
# 5 0.0000 0.0000 -0.0001 0.0000 13.8470 0.0000
# 6 0.0000 0.0000 0.0000 0.0000 0.0000 -15.4172
#
#
#
# Elastic Compliance Matrix: (Units=1/GPa)
#
#
# Indices 1 2 3 4 5 6 
#
# 1 0.021052 -0.005943 -0.001552 0.000000 0.000000 0.000000
# 2 -0.005943 0.009547 -0.002601 0.000000 0.000000 0.000000
# 3 -0.001552 -0.002601 0.012246 0.000000 0.000000 0.000000
# 4 0.000000 0.000000 0.000000 0.021091 0.000000 0.000000
# 5 0.000000 0.000000 0.000000 0.000000 0.072218 0.000000
# 6 0.000000 0.000000 0.000000 0.000000 0.000000 -0.064863
#
#
# Mechanical properties :
#
#
# Convention : Reuss Voigt Hill
#
# Bulk Modulus (GPa) = 44.14387 53.45488 48.79937
# Shear Modulus (GPa) = 50.48748 22.39438 36.44093
#
# Velocity S-wave (km/s) = 5.09620 3.39410 4.32962
# Velocity P-wave (km/s) = 7.57208 6.54657 7.07792
#
# Compressibility (1/GPa) = 0.02265320
#
# Stress axis : x y z
#
# Youngs Moduli (GPa) = 47.50085 104.74562 81.65666
#
# Poissons Ratio (x) = 0.62247 0.12675
# Poissons Ratio (y) = 0.28228 0.21241
# Poissons Ratio (z) = 0.07373 0.27247
#
# Static dielectric constant tensor:
#      x y z
#    x 1.691010 0.000000 0.000000 
#    y 0.000000 1.882740 0.000000 
#    z 0.000000 0.000000 1.654600 
# 
# From -- ./inp_files/4786.got.cif
#   From: 2010.05.17/outbox.cif.g08.bks.cpg/sg72_3_cif.got.tgz:4786.got - 2010.06.03 17:03:01.
