data_PCOD9525090
_publ_section_title
;
Structure prediction by ZEFSAII (Michael W. Deem and Ramdas Pophale) SiO2 
 PCOD9525090
Probable space group: I B A M
;
_chemical_formula_sum "Si O2"
_cell_formula_units_Z 80
_cell_length_a 21.535809
_cell_length_b 12.466295
_cell_length_c 18.012142
_cell_angle_alpha 90.000000
_cell_angle_beta 90.000000
_cell_angle_gamma 90.000000
_cell_volume 4835.751249
_symmetry_space_group_name_H-M "I B A M"
_symmetry_group_IT_number 72
_symmetry_cell_setting 'orthorhombic'
loop_
_space_group_symop_operation_xyz
x,y,z
-x,-y,z
x,-y,1/2-z
-x,y,1/2-z
-x,-y,-z
x,y,-z
-x,y,1/2+z
x,-y,1/2+z
1/2+x,1/2+y,1/2+z
1/2-x,1/2-y,1/2+z
1/2+x,1/2-y,-z
1/2-x,1/2+y,-z
1/2-x,1/2-y,1/2-z
1/2+x,1/2+y,1/2-z
1/2-x,1/2+y,z
1/2+x,1/2-y,z
loop_
_atom_site_type_symbol
_atom_site_label
_atom_site_fract_x
_atom_site_fract_y
_atom_site_fract_z
Si Si1 0.069547 0.519433 0.839462
Si Si2 0.309344 0.551458 0.670082
Si Si3 0.672202 0.849043 0.657478
Si Si4 0.348273 0.214660 0.826805
Si Si5 0.774962 0.148981 0.414911
O O1 0.069086 0.500000 0.750000
O O2 0.119993 0.433179 0.866789
O O3 0.095531 0.638913 0.852578
O O4 0.000000 0.500000 0.866997
O O5 0.323856 0.500000 0.750000
O O6 0.237624 0.590839 0.669940
O O7 0.348681 0.659046 0.655344
O O8 0.311226 0.457145 0.610173
O O9 0.656159 0.798222 0.737724
O O10 0.683626 0.753684 0.600152
O O11 0.285338 0.166125 0.862629
O O12 0.755509 0.142156 0.500000
#
# Coordination Sequence:
#
# PCOD9525090 Si02
#       5
#    16  16  16  16  16
#     4   9  17  31  53  80 101 127 170 216 248 292
#     4  11  16  29  50  73 101 135 167 199 255 313
#     4  10  17  31  52  72 102 136 164 201 255 309
#     4  10  18  31  51  73 102 136 167 203 254 312
#     4  11  21  30  47  77 105 131 165 214 257 299
#
# _framework density 16.543448000000001
#
# number of rings (size 3 to 8) (size 9 to 14) (size 15 to 20)
#    0.000    1.800    6.000    1.800    0.000    3.200 
#    0.000    0.000    0.000    3.600    0.000    1.400 
#    0.000    0.000    0.000    0.000    0.000    0.000 
#
# Total GULP energy -222947.587361 kJ/mol
# GULP energy per Si atom -5573.689684 kJ/mol
# Density = 1.650579 g / cm^3
# Si number density = 16.543448 Si / 1000 Ang^3
#
#
#
# Elastic Constant Matrix: (Units=GPa)
#
#
# Indices 1 2 3 4 5 6 
#
# 1 76.3755 44.5264 -3.1132 0.0000 0.0000 0.0000
# 2 44.5264 139.4349 15.9682 0.0000 0.0000 0.0000
# 3 -3.1132 15.9682 32.0391 0.0000 0.0000 0.0000
# 4 0.0000 0.0000 0.0000 9.6858 0.0000 0.0000
# 5 0.0000 0.0000 0.0000 0.0000 0.9304 0.0000
# 6 0.0000 0.0000 0.0000 0.0000 0.0000 19.5415
#
#
#
# Elastic Compliance Matrix: (Units=1/GPa)
#
#
# Indices 1 2 3 4 5 6 
#
# 1 0.016688 -0.005848 0.004536 0.000000 0.000000 0.000000
# 2 -0.005848 0.009656 -0.005381 0.000000 0.000000 0.000000
# 3 0.004536 -0.005381 0.034334 0.000000 0.000000 0.000000
# 4 0.000000 0.000000 0.000000 0.103244 0.000000 0.000000
# 5 0.000000 0.000000 0.000000 0.000000 1.074823 0.000000
# 6 0.000000 0.000000 0.000000 0.000000 0.000000 0.051173
#
#
# Mechanical properties :
#
#
# Convention : Reuss Voigt Hill
#
# Bulk Modulus (GPa) = 21.14508 40.29026 30.71767
# Shear Modulus (GPa) = 3.79056 18.72940 11.25998
#
# Velocity S-wave (km/s) = 1.51534 3.36837 2.61172
# Velocity P-wave (km/s) = 3.98384 6.28768 5.26336
#
# Compressibility (1/GPa) = 0.04729232
#
# Stress axis : x y z
#
# Youngs Moduli (GPa) = 59.92415 103.56655 29.12533
#
# Poissons Ratio (x) = 0.60571 -0.13212
# Poissons Ratio (y) = 0.35047 0.15671
# Poissons Ratio (z) = -0.27184 0.55725
#
# Static dielectric constant tensor:
#      x y z
#    x 1.544370 0.000000 0.000000 
#    y 0.000000 1.589120 0.000000 
#    z 0.000000 0.000000 1.557010 
# 
# From -- ./inp_files/33332.got.cif
#   From: 2010.05.17/outbox.cif.g08.bks.cpg/sg72_17_cif.got.tgz:33332.got - 2010.06.03 17:03:01.
