data_PCOD9525131
_publ_section_title
;
Structure prediction by ZEFSAII (Michael W. Deem and Ramdas Pophale) SiO2 
 PCOD9525131
Probable space group: I B A M
;
_chemical_formula_sum "Si O2"
_cell_formula_units_Z 88
_cell_length_a 7.941141
_cell_length_b 21.713870
_cell_length_c 23.627058
_cell_angle_alpha 90.000000
_cell_angle_beta 90.000000
_cell_angle_gamma 90.000000
_cell_volume 4074.082208
_symmetry_space_group_name_H-M "I B A M"
_symmetry_group_IT_number 72
_symmetry_cell_setting 'orthorhombic'
loop_
_space_group_symop_operation_xyz
x,y,z
-x,-y,z
x,-y,1/2-z
-x,y,1/2-z
-x,-y,-z
x,y,-z
-x,y,1/2+z
x,-y,1/2+z
1/2+x,1/2+y,1/2+z
1/2-x,1/2-y,1/2+z
1/2+x,1/2-y,-z
1/2-x,1/2+y,-z
1/2-x,1/2-y,1/2-z
1/2+x,1/2+y,1/2-z
1/2-x,1/2+y,z
1/2+x,1/2-y,z
loop_
_atom_site_type_symbol
_atom_site_label
_atom_site_fract_x
_atom_site_fract_y
_atom_site_fract_z
Si Si1 0.875013 0.299639 0.629207
Si Si2 0.476297 0.225910 0.500000
Si Si3 0.507630 0.901327 0.000000
Si Si4 0.605396 0.363899 0.500000
Si Si5 0.542642 0.066204 0.122466
Si Si6 0.553994 0.430423 0.612680
Si Si7 0.990279 0.823467 0.682832
O O1 0.887066 0.282968 0.562004
O O2 0.987382 0.361676 0.641071
O O3 0.691536 0.315924 0.652870
O O4 0.918153 0.237152 0.661061
O O5 0.596821 0.165456 0.500000
O O6 0.566198 0.291494 0.500000
O O7 0.537719 0.934686 0.940897
O O8 0.304444 0.884329 0.000000
O O9 0.524793 0.394057 0.554854
O O10 0.744633 0.066054 0.120067
O O11 0.500000 0.000000 0.150588
O O12 0.500000 0.500000 0.609536
O O13 0.457899 0.390693 0.660129
O O14 0.000000 0.823503 0.750000
#
# Coordination Sequence:
#
# PCOD9525131 Si02
#       7
#    16   8   8   8  16  16  16
#     4  10  22  37  62  90 119 158 203 257 316 374
#     4  10  18  32  58  86 121 155 198 257 316 371
#     4   8  17  29  49  76 117 161 191 234 299 369
#     4  10  17  35  53  80 124 153 192 257 316 368
#     4   9  18  34  53  80 118 152 190 242 300 360
#     4  10  21  36  58  85 116 157 200 248 307 377
#     4  11  23  41  61  85 119 160 206 257 308 372
#
# _framework density 21.599957
#
# number of rings (size 3 to 8) (size 9 to 14) (size 15 to 20)
#    0.000    2.182    1.818    2.182    0.000    1.818 
#    0.000    0.000    0.000    2.727    0.000    0.000 
#    0.000    0.000    0.000    0.000    0.000    0.000 
#
# Total GULP energy -244943.580108 kJ/mol
# GULP energy per Si atom -5566.899548 kJ/mol
# Density = 2.155079 g / cm^3
# Si number density = 21.599957 Si / 1000 Ang^3
#
#
#
# Elastic Constant Matrix: (Units=GPa)
#
#
# Indices 1 2 3 4 5 6 
#
# 1 14.2466 14.2701 -0.2060 0.0000 0.0000 0.0000
# 2 14.2701 201.5411 37.5103 0.0000 0.0000 0.0000
# 3 -0.2060 37.5103 94.9479 0.0000 0.0000 0.0000
# 4 0.0000 0.0000 0.0000 37.7769 0.0000 0.0000
# 5 0.0000 0.0000 0.0000 0.0000 2.6945 0.0000
# 6 0.0000 0.0000 0.0000 0.0000 0.0000 22.5768
#
#
#
# Elastic Compliance Matrix: (Units=1/GPa)
#
#
# Indices 1 2 3 4 5 6 
#
# 1 0.076086 -0.005848 0.002475 0.000000 0.000000 0.000000
# 2 -0.005848 0.005805 -0.002306 0.000000 0.000000 0.000000
# 3 0.002475 -0.002306 0.011448 0.000000 0.000000 0.000000
# 4 0.000000 0.000000 0.000000 0.026471 0.000000 0.000000
# 5 0.000000 0.000000 0.000000 0.000000 0.371120 0.000000
# 6 0.000000 0.000000 0.000000 0.000000 0.000000 0.044293
#
#
# Mechanical properties :
#
#
# Convention : Reuss Voigt Hill
#
# Bulk Modulus (GPa) = 12.19782 45.98716 29.09249
# Shear Modulus (GPa) = 8.71220 29.88707 19.29964
#
# Velocity S-wave (km/s) = 2.01052 3.72380 2.99240
# Velocity P-wave (km/s) = 3.32400 6.31075 5.04354
#
# Compressibility (1/GPa) = 0.08198184
#
# Stress axis : x y z
#
# Youngs Moduli (GPa) = 13.14311 172.26454 87.34778
#
# Poissons Ratio (x) = 1.00739 -0.21622
# Poissons Ratio (y) = 0.07686 0.20143
# Poissons Ratio (z) = -0.03253 0.39725
#
# Static dielectric constant tensor:
#      x y z
#    x 1.896460 0.000000 0.000000 
#    y 0.000000 1.912800 0.000000 
#    z 0.000000 0.000000 1.776840 
# 
# From -- ./inp_files/42316.got.cif
#   From: 2010.05.17/outbox.cif.g08.bks.cpg/sg72_22_cif.got.tgz:42316.got - 2010.06.03 17:03:01.
