data_PCOD9525147
_publ_section_title
;
Structure prediction by ZEFSAII (Michael W. Deem and Ramdas Pophale) SiO2 
 PCOD9525147
Probable space group: I B A M
;
_chemical_formula_sum "Si O2"
_cell_formula_units_Z 52
_cell_length_a 28.385763
_cell_length_b 8.814854
_cell_length_c 10.271435
_cell_angle_alpha 90.000000
_cell_angle_beta 90.000000
_cell_angle_gamma 90.000000
_cell_volume 2570.081042
_symmetry_space_group_name_H-M "I B A M"
_symmetry_group_IT_number 72
_symmetry_cell_setting 'orthorhombic'
loop_
_space_group_symop_operation_xyz
x,y,z
-x,-y,z
x,-y,1/2-z
-x,y,1/2-z
-x,-y,-z
x,y,-z
-x,y,1/2+z
x,-y,1/2+z
1/2+x,1/2+y,1/2+z
1/2-x,1/2-y,1/2+z
1/2+x,1/2-y,-z
1/2-x,1/2+y,-z
1/2-x,1/2-y,1/2-z
1/2+x,1/2+y,1/2-z
1/2-x,1/2+y,z
1/2+x,1/2-y,z
loop_
_atom_site_type_symbol
_atom_site_label
_atom_site_fract_x
_atom_site_fract_y
_atom_site_fract_z
Si Si1 0.190925 0.284103 0.500000
Si Si2 0.540058 0.711180 0.648417
Si Si3 0.793062 0.357596 0.500000
Si Si4 0.361581 0.183892 0.262793
Si Si5 0.500000 0.000000 0.250000
O O1 0.204859 0.461000 0.500000
O O2 0.239317 0.192999 0.500000
O O3 0.159750 0.260125 0.627566
O O4 0.500000 0.654490 0.750000
O O5 0.535924 0.655975 0.500000
O O6 0.593308 0.713657 0.700179
O O7 0.529121 0.891321 0.656056
O O8 0.822062 0.303287 0.625931
O O9 0.371996 0.000000 0.250000
#
# Coordination Sequence:
#
# PCOD9525147 Si02
#       5
#     8  16   8  16   4
#     4  10  22  32  53  71  99 131 170 210 245 292
#     4  10  18  26  40  64  97 130 161 193 238 299
#     4  10  20  36  49  73  97 133 166 212 247 288
#     4  10  18  30  48  67  98 132 165 198 251 295
#     4   8  18  20  42  56  98 124 160 188 234 288
#
# _framework density 20.232824999999998
#
# number of rings (size 3 to 8) (size 9 to 14) (size 15 to 20)
#    0.923    1.231    3.077    1.385    2.154    0.000 
#    0.000    0.000    0.000    0.000    0.000    0.000 
#    0.000    7.385    0.000    0.000    0.000    0.000 
#
# Total GULP energy -144800.325102 kJ/mol
# GULP energy per Si atom -5569.243273 kJ/mol
# Density = 2.018677 g / cm^3
# Si number density = 20.232825 Si / 1000 Ang^3
#
#
#
# Elastic Constant Matrix: (Units=GPa)
#
#
# Indices 1 2 3 4 5 6 
#
# 1 149.7112 24.3071 94.9335 0.0000 0.0000 0.0000
# 2 24.3071 22.6870 20.0282 0.0000 0.0000 0.0000
# 3 94.9335 20.0282 209.8898 0.0000 0.0000 0.0000
# 4 0.0000 0.0000 0.0000 -13.0446 0.0000 0.0000
# 5 0.0000 0.0000 0.0000 0.0000 60.9159 0.0000
# 6 0.0000 0.0000 0.0000 0.0000 0.0000 -16.7232
#
#
#
# Elastic Compliance Matrix: (Units=1/GPa)
#
#
# Indices 1 2 3 4 5 6 
#
# 1 0.010462 -0.007679 -0.003999 0.000000 0.000000 0.000000
# 2 -0.007679 0.053768 -0.001658 0.000000 0.000000 0.000000
# 3 -0.003999 -0.001658 0.006732 0.000000 0.000000 0.000000
# 4 0.000000 0.000000 0.000000 -0.076660 0.000000 0.000000
# 5 0.000000 0.000000 0.000000 0.000000 0.016416 0.000000
# 6 0.000000 0.000000 0.000000 0.000000 0.000000 -0.059797
#
#
# Mechanical properties :
#
#
# Convention : Reuss Voigt Hill
#
# Bulk Modulus (GPa) = 22.57807 73.42506 48.00157
# Shear Modulus (GPa) = -654.09628 22.43090 -315.83269
#
# Velocity S-wave (km/s) = -17.99963 3.33324 -12.50752
# Velocity P-wave (km/s) = 20.51338 7.15422 13.59441
#
# Compressibility (1/GPa) = 0.04429076
#
# Stress axis : x y z
#
# Youngs Moduli (GPa) = 95.58125 18.59829 148.55495
#
# Poissons Ratio (x) = 0.14281 0.59413
# Poissons Ratio (y) = 0.73394 0.24625
# Poissons Ratio (z) = 0.38227 0.03083
#
# Static dielectric constant tensor:
#      x y z
#    x 1.720540 0.000000 0.000000 
#    y 0.000000 1.757870 0.000000 
#    z 0.000000 0.000000 0.761880 
# 
# From -- ./inp_files/2502.got.cif
#   From: 2010.05.17/outbox.cif.g08.bks.cpg/sg72_2_cif.got.tgz:2502.got - 2010.06.03 17:03:01.
