data_PCOD9525758
_publ_section_title
;
Structure prediction by ZEFSAII (Michael W. Deem and Ramdas Pophale) SiO2 
 PCOD9525758
Probable space group: I B A M
;
_chemical_formula_sum "Si O2"
_cell_formula_units_Z 112
_cell_length_a 11.022279
_cell_length_b 23.962819
_cell_length_c 23.297167
_cell_angle_alpha 90.000000
_cell_angle_beta 90.000000
_cell_angle_gamma 90.000000
_cell_volume 6153.361360
_symmetry_space_group_name_H-M "I B A M"
_symmetry_group_IT_number 72
_symmetry_cell_setting 'orthorhombic'
loop_
_space_group_symop_operation_xyz
x,y,z
-x,-y,z
x,-y,1/2-z
-x,y,1/2-z
-x,-y,-z
x,y,-z
-x,y,1/2+z
x,-y,1/2+z
1/2+x,1/2+y,1/2+z
1/2-x,1/2-y,1/2+z
1/2+x,1/2-y,-z
1/2-x,1/2+y,-z
1/2-x,1/2-y,1/2-z
1/2+x,1/2+y,1/2-z
1/2-x,1/2+y,z
1/2+x,1/2-y,z
loop_
_atom_site_type_symbol
_atom_site_label
_atom_site_fract_x
_atom_site_fract_y
_atom_site_fract_z
Si Si1 0.792983 0.984649 0.433488
Si Si2 0.640804 0.066616 0.757158
Si Si3 0.184921 0.177683 0.069244
Si Si4 0.312268 0.085911 0.134133
Si Si5 0.306341 0.192529 0.568969
Si Si6 0.568507 0.377416 0.569321
Si Si7 0.091961 0.587759 0.617056
O O1 0.813666 0.000798 0.500000
O O2 0.896197 0.940646 0.413995
O O3 0.668464 0.948482 0.428234
O O4 0.771074 0.038272 0.394321
O O5 0.500000 0.083155 0.750000
O O6 0.709282 0.091520 0.702319
O O7 0.665304 0.081514 0.822922
O O8 0.649745 0.000000 0.750000
O O9 0.288406 0.142821 0.100617
O O10 0.184743 0.242836 0.084598
O O11 0.059366 0.147801 0.087124
O O12 0.197507 0.173588 0.000000
O O13 0.453600 0.068546 0.125563
O O14 0.318471 0.189050 0.500000
O O15 0.177340 0.164647 0.585174
O O16 0.404134 0.151804 0.597475
O O17 0.567609 0.378907 0.500000
#
# Coordination Sequence:
#
# PCOD9525758 Si02
#       7
#    16  16  16  16  16  16  16
#     4  10  19  31  50  78 109 138 169 214 270 319
#     4   9  17  33  53  74 104 139 174 211 264 321
#     4  10  21  34  51  78 110 144 177 214 259 314
#     4  11  21  31  51  83 106 133 177 221 263 313
#     4   9  19  34  54  77 104 143 179 213 263 313
#     4   8  17  34  50  69 105 148 177 201 255 325
#     4  10  19  33  54  78 104 138 176 221 267 307
#
# _framework density 18.201433999999999
#
# number of rings (size 3 to 8) (size 9 to 14) (size 15 to 20)
#    0.000    2.429    1.429    2.143    2.000    3.429 
#    0.000    2.857    0.000    3.429    0.000    0.000 
#    0.000    0.000    0.000    0.000    0.000    0.000 
#
# Total GULP energy -312095.653024 kJ/mol
# GULP energy per Si atom -5573.136661 kJ/mol
# Density = 1.816001 g / cm^3
# Si number density = 18.201434 Si / 1000 Ang^3
#
#
#
# Elastic Constant Matrix: (Units=GPa)
#
#
# Indices 1 2 3 4 5 6 
#
# 1 39.4158 12.8783 12.5643 0.0000 0.0000 0.0000
# 2 12.8783 111.8537 39.9492 0.0000 0.0000 0.0000
# 3 12.5643 39.9492 70.3524 0.0000 0.0000 0.0000
# 4 0.0000 0.0000 0.0000 17.4282 0.0000 0.0000
# 5 0.0000 0.0000 0.0000 0.0000 12.8383 0.0000
# 6 0.0000 0.0000 0.0000 0.0000 0.0000 20.2631
#
#
#
# Elastic Compliance Matrix: (Units=1/GPa)
#
#
# Indices 1 2 3 4 5 6 
#
# 1 0.027172 -0.001750 -0.003859 0.000000 0.000000 0.000000
# 2 -0.001750 0.011327 -0.006120 0.000000 0.000000 0.000000
# 3 -0.003859 -0.006120 0.018378 0.000000 0.000000 0.000000
# 4 0.000000 0.000000 0.000000 0.057378 0.000000 0.000000
# 5 0.000000 0.000000 0.000000 0.000000 0.077892 0.000000
# 6 0.000000 0.000000 0.000000 0.000000 0.000000 0.049351
#
#
# Mechanical properties :
#
#
# Convention : Reuss Voigt Hill
#
# Bulk Modulus (GPa) = 29.92165 39.15618 34.53891
# Shear Modulus (GPa) = 18.10958 20.52125 19.31541
#
# Velocity S-wave (km/s) = 3.15771 3.36140 3.26114
# Velocity P-wave (km/s) = 5.45616 6.05184 5.76170
#
# Compressibility (1/GPa) = 0.03342062
#
# Stress axis : x y z
#
# Youngs Moduli (GPa) = 36.80196 88.28124 54.41200
#
# Poissons Ratio (x) = 0.15452 0.20997
# Poissons Ratio (y) = 0.06441 0.33298
# Poissons Ratio (z) = 0.14201 0.54025
#
# Static dielectric constant tensor:
#      x y z
#    x 1.660420 0.000000 0.000000 
#    y 0.000000 1.629020 0.000000 
#    z 0.000000 0.000000 1.645050 
# 
# From -- ./inp_files/43614.got.cif
#   From: 2010.05.17/outbox.cif.g08.bks.cpg/sg72_22_cif.got.tgz:43614.got - 2010.06.03 17:03:01.
