data_PCOD9525788
_publ_section_title
;
Structure prediction by ZEFSAII (Michael W. Deem and Ramdas Pophale) SiO2 
 PCOD9525788
Probable space group: I B A M
;
_chemical_formula_sum "Si O2"
_cell_formula_units_Z 88
_cell_length_a 13.685759
_cell_length_b 11.703472
_cell_length_c 20.714463
_cell_angle_alpha 90.000000
_cell_angle_beta 90.000000
_cell_angle_gamma 90.000000
_cell_volume 3317.854125
_symmetry_space_group_name_H-M "I B A M"
_symmetry_group_IT_number 72
_symmetry_cell_setting 'orthorhombic'
loop_
_space_group_symop_operation_xyz
x,y,z
-x,-y,z
x,-y,1/2-z
-x,y,1/2-z
-x,-y,-z
x,y,-z
-x,y,1/2+z
x,-y,1/2+z
1/2+x,1/2+y,1/2+z
1/2-x,1/2-y,1/2+z
1/2+x,1/2-y,-z
1/2-x,1/2+y,-z
1/2-x,1/2-y,1/2-z
1/2+x,1/2+y,1/2-z
1/2-x,1/2+y,z
1/2+x,1/2-y,z
loop_
_atom_site_type_symbol
_atom_site_label
_atom_site_fract_x
_atom_site_fract_y
_atom_site_fract_z
Si Si1 0.143479 0.738073 0.130974
Si Si2 0.617091 0.773432 0.271771
Si Si3 0.135753 0.094940 0.000000
Si Si4 0.953281 0.892947 0.867376
Si Si5 0.392316 0.026506 0.364535
Si Si6 0.175979 0.701971 0.000000
Si Si7 0.057054 0.647446 0.500000
O O1 0.167684 0.760601 0.204945
O O2 0.149897 0.599970 0.128102
O O3 0.037133 0.797882 0.120314
O O4 0.197266 0.773073 0.065215
O O5 0.500000 0.782781 0.250000
O O6 0.623412 0.672180 0.323605
O O7 0.648054 0.886804 0.310857
O O8 0.092748 0.053940 0.932375
O O9 0.251401 0.095248 0.000000
O O10 0.102958 0.227437 0.000000
O O11 0.000000 0.000000 0.831312
O O12 0.409741 0.085067 0.434269
O O13 0.500000 0.000000 0.338573
O O14 0.061899 0.663839 0.000000
#
# Coordination Sequence:
#
# PCOD9525788 Si02
#       7
#    16  16   8  16  16   8   8
#     4  11  22  37  62  97 131 161 208 277 329 393
#     4  10  19  31  60 100 122 166 208 259 333 398
#     4  12  23  44  66  93 131 180 218 270 333 391
#     4  11  22  40  66  89 129 177 222 262 315 392
#     4  12  17  31  65  95 129 158 196 260 343 391
#     4  12  23  40  66  94 129 169 227 272 332 399
#     4  12  20  39  64  98 134 164 210 279 327 392
#
# _framework density 26.523167999999998
#
# number of rings (size 3 to 8) (size 9 to 14) (size 15 to 20)
#    0.000    0.727    9.091    1.636    0.000    3.273 
#    0.000    4.545    0.000    0.000   14.182    0.000 
#    0.000    0.000    0.000    0.000    0.000    0.000 
#
# Total GULP energy -246019.351090 kJ/mol
# GULP energy per Si atom -5591.348888 kJ/mol
# Density = 2.646280 g / cm^3
# Si number density = 26.523168 Si / 1000 Ang^3
#
#
#
# Elastic Constant Matrix: (Units=GPa)
#
#
# Indices 1 2 3 4 5 6 
#
# 1 104.1238 21.3301 34.2165 0.0000 0.0000 0.0000
# 2 21.3301 100.6970 19.6321 0.0000 0.0000 0.0000
# 3 34.2165 19.6321 213.6951 0.0000 0.0000 0.0000
# 4 0.0000 0.0000 0.0000 -11.5384 0.0000 0.0000
# 5 0.0000 0.0000 0.0000 0.0000 24.3137 0.0000
# 6 0.0000 0.0000 0.0000 0.0000 0.0000 24.8695
#
#
#
# Elastic Compliance Matrix: (Units=1/GPa)
#
#
# Indices 1 2 3 4 5 6 
#
# 1 0.010493 -0.001930 -0.001503 0.000000 0.000000 0.000000
# 2 -0.001930 0.010467 -0.000653 0.000000 0.000000 0.000000
# 3 -0.001503 -0.000653 0.004980 0.000000 0.000000 0.000000
# 4 0.000000 0.000000 0.000000 -0.086667 0.000000 0.000000
# 5 0.000000 0.000000 0.000000 0.000000 0.041129 0.000000
# 6 0.000000 0.000000 0.000000 0.000000 0.000000 0.040210
#
#
# Mechanical properties :
#
#
# Convention : Reuss Voigt Hill
#
# Bulk Modulus (GPa) = 56.27548 63.20815 59.74181
# Shear Modulus (GPa) = 144.06936 30.41811 87.24374
#
# Velocity S-wave (km/s) = 7.37809 3.39019 5.74150
# Velocity P-wave (km/s) = 9.68737 6.26159 8.15637
#
# Compressibility (1/GPa) = 0.01776973
#
# Stress axis : x y z
#
# Youngs Moduli (GPa) = 95.30055 95.54040 200.79699
#
# Poissons Ratio (x) = 0.18436 0.30177
# Poissons Ratio (y) = 0.18390 0.13104
# Poissons Ratio (z) = 0.14322 0.06235
#
# Static dielectric constant tensor:
#      x y z
#    x 2.220430 0.000000 0.000000 
#    y 0.000000 2.053270 0.000000 
#    z 0.000000 0.000000 2.146670 
# 
# From -- ./inp_files/38921.got.cif
#   From: 2010.05.17/outbox.cif.g08.bks.cpg/sg72_20_cif.got.tgz:38921.got - 2010.06.03 17:03:01.
