data_PCOD9525934
_publ_section_title
;
Structure prediction by ZEFSAII (Michael W. Deem and Ramdas Pophale) SiO2 
 PCOD9525934
Probable space group: I B A M
;
_chemical_formula_sum "Si O2"
_cell_formula_units_Z 96
_cell_length_a 27.729725
_cell_length_b 8.994215
_cell_length_c 17.732777
_cell_angle_alpha 90.000000
_cell_angle_beta 90.000000
_cell_angle_gamma 90.000000
_cell_volume 4422.680638
_symmetry_space_group_name_H-M "I B A M"
_symmetry_group_IT_number 72
_symmetry_cell_setting 'orthorhombic'
loop_
_space_group_symop_operation_xyz
x,y,z
-x,-y,z
x,-y,1/2-z
-x,y,1/2-z
-x,-y,-z
x,y,-z
-x,y,1/2+z
x,-y,1/2+z
1/2+x,1/2+y,1/2+z
1/2-x,1/2-y,1/2+z
1/2+x,1/2-y,-z
1/2-x,1/2+y,-z
1/2-x,1/2-y,1/2-z
1/2+x,1/2+y,1/2-z
1/2-x,1/2+y,z
1/2+x,1/2-y,z
loop_
_atom_site_type_symbol
_atom_site_label
_atom_site_fract_x
_atom_site_fract_y
_atom_site_fract_z
Si Si1 0.471541 0.138264 0.862041
Si Si2 0.809569 0.085158 0.169888
Si Si3 0.419326 0.575756 0.330357
Si Si4 0.780739 0.428204 0.166242
Si Si5 0.436005 0.291422 0.416147
Si Si6 0.383468 0.038196 0.340672
O O1 0.451159 0.278129 0.817698
O O2 0.512358 0.208779 0.914609
O O3 0.500000 0.000000 0.825959
O O4 0.421901 0.060798 0.887255
O O5 0.864409 0.104602 0.142180
O O6 0.787578 0.251389 0.174014
O O7 0.815592 0.000000 0.250000
O O8 0.769316 0.982426 0.129144
O O9 0.417667 0.500000 0.250000
O O10 0.441712 0.459449 0.388712
O O11 0.779442 0.500000 0.250000
O O12 0.829743 0.498623 0.133875
O O13 0.415810 0.284431 0.500000
O O14 0.400175 0.205472 0.358468
O O15 0.387741 0.000000 0.250000
#
# Coordination Sequence:
#
# PCOD9525934 Si02
#       6
#    16  16  16  16  16  16
#     4  10  22  40  59  86 121 166 216 269 322 383
#     4  10  20  32  57  94 133 167 208 269 328 389
#     4  11  23  39  64  97 131 168 224 277 326 390
#     4  10  19  32  57  94 132 167 207 265 329 388
#     4  11  26  42  64  93 132 174 216 271 337 398
#     4  10  21  37  64  96 130 167 216 266 322 385
#
# _framework density 21.706291
#
# number of rings (size 3 to 8) (size 9 to 14) (size 15 to 20)
#    0.000    1.667    1.667    3.500    9.333   11.333 
#    0.000    0.000    0.000    1.000    0.000    0.000 
#    0.000    0.000    0.000    0.000    0.000    0.000 
#
# Total GULP energy -267372.416651 kJ/mol
# GULP energy per Si atom -5570.258680 kJ/mol
# Density = 2.165689 g / cm^3
# Si number density = 21.706291 Si / 1000 Ang^3
#
#
#
# Elastic Constant Matrix: (Units=GPa)
#
#
# Indices 1 2 3 4 5 6 
#
# 1 144.5141 50.3144 21.4808 0.0000 0.0000 0.0000
# 2 50.3144 159.5407 24.9218 0.0000 0.0000 0.0000
# 3 21.4808 24.9218 46.2381 0.0000 0.0000 0.0000
# 4 0.0000 0.0000 0.0000 1.9263 0.0000 0.0000
# 5 0.0000 0.0000 0.0000 0.0000 11.3015 0.0000
# 6 0.0000 0.0000 0.0000 0.0000 0.0000 21.2195
#
#
#
# Elastic Compliance Matrix: (Units=1/GPa)
#
#
# Indices 1 2 3 4 5 6 
#
# 1 0.008047 -0.002134 -0.002589 0.000000 0.000000 0.000000
# 2 -0.002134 0.007410 -0.003003 0.000000 0.000000 0.000000
# 3 -0.002589 -0.003003 0.024448 0.000000 0.000000 0.000000
# 4 0.000000 0.000000 0.000000 0.519139 0.000000 0.000000
# 5 0.000000 0.000000 0.000000 0.000000 0.088484 0.000000
# 6 0.000000 0.000000 0.000000 0.000000 0.000000 0.047126
#
#
# Mechanical properties :
#
#
# Convention : Reuss Voigt Hill
#
# Bulk Modulus (GPa) = 40.89014 60.41413 50.65214
# Shear Modulus (GPa) = 6.96131 23.79452 15.37791
#
# Velocity S-wave (km/s) = 1.79277 3.31449 2.66457
# Velocity P-wave (km/s) = 4.81292 6.52233 5.73171
#
# Compressibility (1/GPa) = 0.02445577
#
# Stress axis : x y z
#
# Youngs Moduli (GPa) = 124.26489 134.95479 40.90288
#
# Poissons Ratio (x) = 0.28793 0.10588
# Poissons Ratio (y) = 0.26512 0.12282
# Poissons Ratio (z) = 0.32167 0.40523
#
# Static dielectric constant tensor:
#      x y z
#    x 1.895040 0.000000 0.000000 
#    y 0.000000 1.843770 0.000000 
#    z 0.000000 0.000000 1.787610 
# 
# From -- ./inp_files/40708.got.cif
#   From: 2010.05.17/outbox.cif.g08.bks.cpg/sg72_21_cif.got.tgz:40708.got - 2010.06.03 17:03:01.
