data_PCOD9525227
_publ_section_title
;
Structure prediction by ZEFSAII (Michael W. Deem and Ramdas Pophale) SiO2 
 PCOD9525227
Probable space group: I B A M
;
_chemical_formula_sum "Si O2"
_cell_formula_units_Z 96
_cell_length_a 7.629346
_cell_length_b 13.627734
_cell_length_c 37.091908
_cell_angle_alpha 90.000000
_cell_angle_beta 90.000000
_cell_angle_gamma 90.000000
_cell_volume 3856.471561
_symmetry_space_group_name_H-M "I B A M"
_symmetry_group_IT_number 72
_symmetry_cell_setting 'orthorhombic'
loop_
_space_group_symop_operation_xyz
x,y,z
-x,-y,z
x,-y,1/2-z
-x,y,1/2-z
-x,-y,-z
x,y,-z
-x,y,1/2+z
x,-y,1/2+z
1/2+x,1/2+y,1/2+z
1/2-x,1/2-y,1/2+z
1/2+x,1/2-y,-z
1/2-x,1/2+y,-z
1/2-x,1/2-y,1/2-z
1/2+x,1/2+y,1/2-z
1/2-x,1/2+y,z
1/2+x,1/2-y,z
loop_
_atom_site_type_symbol
_atom_site_label
_atom_site_fract_x
_atom_site_fract_y
_atom_site_fract_z
Si Si1 0.163775 0.630519 0.665539
Si Si2 0.721435 0.091656 0.344007
Si Si3 0.520689 0.869014 0.958662
Si Si4 0.438053 0.360850 0.458783
Si Si5 0.521326 0.620098 0.790930
Si Si6 0.227389 0.941869 0.094055
O O1 0.176602 0.512991 0.674221
O O2 0.293800 0.665284 0.696278
O O3 0.259034 0.636451 0.626858
O O4 0.960111 0.650451 0.658375
O O5 0.877556 0.142605 0.322222
O O6 0.228252 0.954456 0.383351
O O7 0.473268 0.754613 0.954648
O O8 0.397538 0.923183 0.930266
O O9 0.730439 0.880650 0.954786
O O10 0.473960 0.895141 0.000000
O O11 0.485951 0.386552 0.500000
O O12 0.568138 0.413057 0.431367
O O13 0.500000 0.500000 0.789859
O O14 0.500000 0.653869 0.750000
#
# Coordination Sequence:
#
# PCOD9525227 Si02
#       6
#    16  16  16  16  16  16
#     4   8  17  30  45  69 100 132 157 186 223 279
#     4   8  17  30  45  69 100 132 157 186 223 279
#     4  10  19  31  48  68  89 114 150 198 250 284
#     4  10  19  31  49  68  88 115 151 201 247 287
#     4   9  16  28  48  72 102 130 152 192 226 260
#     4  10  18  29  47  68  94 125 154 186 241 282
#
# _framework density 24.893221
#
# number of rings (size 3 to 8) (size 9 to 14) (size 15 to 20)
#    1.000    1.833    1.667    0.500    0.000    3.333 
#    0.000    3.333    0.000    8.000    0.000   18.667 
#    0.000    5.333    0.000    0.667    0.000    0.000 
#
# Total GULP energy -267684.330325 kJ/mol
# GULP energy per Si atom -5576.756882 kJ/mol
# Density = 2.483656 g / cm^3
# Si number density = 24.893221 Si / 1000 Ang^3
#
#
#
# Elastic Constant Matrix: (Units=GPa)
#
#
# Indices 1 2 3 4 5 6 
#
# 1 183.8590 39.7665 130.4122 0.0000 0.0000 0.0000
# 2 39.7665 98.5716 33.8332 0.0000 0.0000 0.0000
# 3 130.4122 33.8332 225.0451 0.0000 0.0000 0.0000
# 4 0.0000 0.0000 0.0000 3.9875 0.0000 0.0000
# 5 0.0000 0.0000 0.0000 0.0000 43.6597 0.0000
# 6 0.0000 0.0000 0.0000 0.0000 0.0000 23.4947
#
#
#
# Elastic Compliance Matrix: (Units=1/GPa)
#
#
# Indices 1 2 3 4 5 6 
#
# 1 0.009621 -0.002075 -0.005263 0.000000 0.000000 0.000000
# 2 -0.002075 0.011144 -0.000473 0.000000 0.000000 0.000000
# 3 -0.005263 -0.000473 0.007565 0.000000 0.000000 0.000000
# 4 0.000000 0.000000 0.000000 0.250784 0.000000 0.000000
# 5 0.000000 0.000000 0.000000 0.000000 0.022904 0.000000
# 6 0.000000 0.000000 0.000000 0.000000 0.000000 0.042563
#
#
# Mechanical properties :
#
#
# Convention : Reuss Voigt Hill
#
# Bulk Modulus (GPa) = 78.69343 101.72216 90.20780
# Shear Modulus (GPa) = 13.71968 34.45928 24.08948
#
# Velocity S-wave (km/s) = 2.35019 3.72463 3.11418
# Velocity P-wave (km/s) = 6.24864 7.71034 7.01765
#
# Compressibility (1/GPa) = 0.01270754
#
# Stress axis : x y z
#
# Youngs Moduli (GPa) = 103.93825 89.73173 132.19107
#
# Poissons Ratio (x) = 0.18618 0.69578
# Poissons Ratio (y) = 0.21565 0.06254
# Poissons Ratio (z) = 0.54707 0.04245
#
# Static dielectric constant tensor:
#      x y z
#    x 2.023660 0.000000 0.000000 
#    y 0.000000 2.110360 0.000000 
#    z 0.000000 0.000000 1.946960 
# 
# From -- ./inp_files/47496.got.cif
#   From: 2010.05.17/outbox.cif.g08.bks.cpg/sg72_24_cif.got.tgz:47496.got - 2010.06.03 17:03:01.
