data_PCOD9525169
_publ_section_title
;
Structure prediction by ZEFSAII (Michael W. Deem and Ramdas Pophale) SiO2 
 PCOD9525169
Probable space group: I B A M
;
_chemical_formula_sum "Si O2"
_cell_formula_units_Z 128
_cell_length_a 13.801826
_cell_length_b 21.619447
_cell_length_c 21.150415
_cell_angle_alpha 90.000000
_cell_angle_beta 90.000000
_cell_angle_gamma 90.000000
_cell_volume 6311.026768
_symmetry_space_group_name_H-M "I B A M"
_symmetry_group_IT_number 72
_symmetry_cell_setting 'orthorhombic'
loop_
_space_group_symop_operation_xyz
x,y,z
-x,-y,z
x,-y,1/2-z
-x,y,1/2-z
-x,-y,-z
x,y,-z
-x,y,1/2+z
x,-y,1/2+z
1/2+x,1/2+y,1/2+z
1/2-x,1/2-y,1/2+z
1/2+x,1/2-y,-z
1/2-x,1/2+y,-z
1/2-x,1/2-y,1/2-z
1/2+x,1/2+y,1/2-z
1/2-x,1/2+y,z
1/2+x,1/2-y,z
loop_
_atom_site_type_symbol
_atom_site_label
_atom_site_fract_x
_atom_site_fract_y
_atom_site_fract_z
Si Si1 0.793114 0.590642 0.209976
Si Si2 0.856976 0.723285 0.816781
Si Si3 0.870036 0.746037 0.326874
Si Si4 0.156394 0.649020 0.071372
Si Si5 0.217174 0.539967 0.151099
Si Si6 0.940833 0.945332 0.892723
Si Si7 0.928293 0.873557 0.694039
Si Si8 0.117009 0.809695 0.568908
O O1 0.849392 0.649063 0.181352
O O2 0.808511 0.530601 0.166724
O O3 0.811217 0.575550 0.283744
O O4 0.678733 0.606455 0.213239
O O5 0.896254 0.735844 0.746492
O O6 0.746198 0.747247 0.820955
O O7 0.903481 0.762378 0.873726
O O8 0.893851 0.691816 0.375671
O O9 0.909002 0.812811 0.347794
O O10 0.164963 0.578626 0.096082
O O11 0.267613 0.674410 0.069822
O O12 0.117997 0.653391 0.000000
O O13 0.332688 0.540689 0.133676
O O14 0.929803 0.877944 0.924838
O O15 0.016427 0.929953 0.837348
O O16 0.000000 0.000000 0.927739
O O17 0.000000 0.855342 0.750000
O O18 0.092713 0.783157 0.500000
#
# Coordination Sequence:
#
# PCOD9525169 Si02
#       8
#    16  16  16  16  16  16  16  16
#     4  10  18  27  46  71 104 130 164 213 257 299
#     4   9  16  30  47  67  90 120 168 222 259 294
#     4   9  17  28  46  67  91 121 169 212 259 291
#     4   9  17  32  50  66  91 128 171 214 260 308
#     4  10  18  29  45  72 103 138 169 205 252 305
#     4  11  20  30  44  68 105 140 179 203 236 304
#     4  11  19  27  42  71 100 136 169 209 247 296
#     4   9  19  33  49  64  88 133 178 215 257 299
#
# _framework density 20.281960999999999
#
# number of rings (size 3 to 8) (size 9 to 14) (size 15 to 20)
#    0.000    2.250    3.750    0.750    3.500    0.500 
#    0.000    1.250    0.000    1.500    0.000    0.000 
#    0.000    7.000    0.000    5.625    0.000    0.625 
#
# Total GULP energy -356390.896480 kJ/mol
# GULP energy per Si atom -5568.607757 kJ/mol
# Density = 2.023580 g / cm^3
# Si number density = 20.281961 Si / 1000 Ang^3
#
#
#
# Elastic Constant Matrix: (Units=GPa)
#
#
# Indices 1 2 3 4 5 6 
#
# 1 29.8121 15.4441 7.0419 0.0000 0.0000 0.0000
# 2 15.4441 132.3751 83.0045 0.0000 0.0000 0.0000
# 3 7.0419 83.0045 127.1707 0.0000 0.0000 0.0000
# 4 0.0000 0.0000 0.0000 20.1787 0.0000 0.0000
# 5 0.0000 0.0000 0.0000 0.0000 -7.7077 0.0000
# 6 0.0000 0.0000 0.0000 0.0000 0.0000 33.9692
#
#
#
# Elastic Compliance Matrix: (Units=1/GPa)
#
#
# Indices 1 2 3 4 5 6 
#
# 1 0.035820 -0.004969 0.001260 0.000000 0.000000 0.000000
# 2 -0.004969 0.013477 -0.008522 0.000000 0.000000 0.000000
# 3 0.001260 -0.008522 0.013356 0.000000 0.000000 0.000000
# 4 0.000000 0.000000 0.000000 0.049557 0.000000 0.000000
# 5 0.000000 0.000000 0.000000 0.000000 -0.129740 0.000000
# 6 0.000000 0.000000 0.000000 0.000000 0.000000 0.029438
#
#
# Mechanical properties :
#
#
# Convention : Reuss Voigt Hill
#
# Bulk Modulus (GPa) = 26.18380 55.59321 40.88850
# Shear Modulus (GPa) = 101.83150 21.54586 61.68868
#
# Velocity S-wave (km/s) = 7.09344 3.26286 5.52101
# Velocity P-wave (km/s) = 8.94579 6.45482 7.80038
#
# Compressibility (1/GPa) = 0.03819156
#
# Stress axis : x y z
#
# Youngs Moduli (GPa) = 27.91735 74.19840 74.87431
#
# Poissons Ratio (x) = 0.36869 -0.09433
# Poissons Ratio (y) = 0.13872 0.63805
# Poissons Ratio (z) = -0.03517 0.63229
#
# Static dielectric constant tensor:
#      x y z
#    x 1.706780 0.000000 0.000000 
#    y 0.000000 1.777790 0.000000 
#    z 0.000000 0.000000 1.729810 
# 
# From -- ./inp_files/39343.got.cif
#   From: 2010.05.17/outbox.cif.g08.bks.cpg/sg72_20_cif.got.tgz:39343.got - 2010.06.03 17:03:01.
