data_PCOD9525867
_publ_section_title
;
Structure prediction by ZEFSAII (Michael W. Deem and Ramdas Pophale) SiO2 
 PCOD9525867
Probable space group: I B A M
;
_chemical_formula_sum "Si O2"
_cell_formula_units_Z 88
_cell_length_a 5.938661
_cell_length_b 27.630503
_cell_length_c 24.175303
_cell_angle_alpha 90.000000
_cell_angle_beta 90.000000
_cell_angle_gamma 90.000000
_cell_volume 3966.881726
_symmetry_space_group_name_H-M "I B A M"
_symmetry_group_IT_number 72
_symmetry_cell_setting 'orthorhombic'
loop_
_space_group_symop_operation_xyz
x,y,z
-x,-y,z
x,-y,1/2-z
-x,y,1/2-z
-x,-y,-z
x,y,-z
-x,y,1/2+z
x,-y,1/2+z
1/2+x,1/2+y,1/2+z
1/2-x,1/2-y,1/2+z
1/2+x,1/2-y,-z
1/2-x,1/2+y,-z
1/2-x,1/2-y,1/2-z
1/2+x,1/2+y,1/2-z
1/2-x,1/2+y,z
1/2+x,1/2-y,z
loop_
_atom_site_type_symbol
_atom_site_label
_atom_site_fract_x
_atom_site_fract_y
_atom_site_fract_z
Si Si1 0.870675 0.393631 0.696314
Si Si2 0.412285 0.445642 0.110569
Si Si3 0.257686 0.973905 0.000000
Si Si4 0.248075 0.135784 0.117486
Si Si5 0.085781 0.200766 0.691498
Si Si6 0.650745 0.764421 0.917324
O O1 0.680697 0.427076 0.669430
O O2 0.777186 0.339085 0.705215
O O3 0.000000 0.411704 0.750000
O O4 0.054779 0.390002 0.649199
O O5 0.500000 0.500000 0.117961
O O6 0.595452 0.405799 0.092401
O O7 0.244644 0.446575 0.058571
O O8 0.500000 0.000000 0.000000
O O9 0.000000 0.000000 0.000000
O O10 0.349716 0.177731 0.080156
O O11 0.100337 0.167004 0.161461
O O12 0.154436 0.239759 0.644882
O O13 0.000000 0.221454 0.750000
O O14 0.402630 0.748948 0.938953
#
# Coordination Sequence:
#
# PCOD9525867 Si02
#       6
#    16  16   8  16  16  16
#     4  11  21  37  62  89 135 186 223 267 327 414
#     4  10  25  44  69  95 128 167 222 288 346 406
#     4  10  24  48  80 106 122 154 222 304 360 394
#     4  10  21  36  56  88 129 170 219 269 327 397
#     4  10  19  32  52  82 127 179 230 274 314 377
#     4  10  20  33  52  85 123 173 218 274 324 372
#
# _framework density 22.183672000000001
#
# number of rings (size 3 to 8) (size 9 to 14) (size 15 to 20)
#    0.000    1.818    3.636    0.000    5.091    3.636 
#    0.000    2.727    0.000    0.000    0.000   11.455 
#    0.000    0.000    0.000    0.000    0.000    0.000 
#
# Total GULP energy -245156.717056 kJ/mol
# GULP energy per Si atom -5571.743569 kJ/mol
# Density = 2.213318 g / cm^3
# Si number density = 22.183672 Si / 1000 Ang^3
#
#
#
# Elastic Constant Matrix: (Units=GPa)
#
#
# Indices 1 2 3 4 5 6 
#
# 1 100.8922 23.0797 26.8191 0.0000 0.0000 0.0000
# 2 23.0797 115.7315 49.6633 0.0000 0.0000 0.0000
# 3 26.8191 49.6633 89.1132 0.0000 0.0000 0.0000
# 4 0.0000 0.0000 0.0000 -638.8093 0.0001 -0.0002
# 5 0.0000 0.0000 0.0000 0.0001 -154.8548 0.0000
# 6 0.0000 0.0000 0.0000 -0.0002 0.0000 177.4513
#
#
#
# Elastic Compliance Matrix: (Units=1/GPa)
#
#
# Indices 1 2 3 4 5 6 
#
# 1 0.010861 -0.001003 -0.002710 0.000000 0.000000 0.000000
# 2 -0.001003 0.011449 -0.006079 0.000000 0.000000 0.000000
# 3 -0.002710 -0.006079 0.015425 0.000000 0.000000 0.000000
# 4 0.000000 0.000000 0.000000 -0.001565 0.000000 0.000000
# 5 0.000000 0.000000 0.000000 0.000000 -0.006458 0.000000
# 6 0.000000 0.000000 0.000000 0.000000 0.000000 0.005635
#
#
# Mechanical properties :
#
#
# Convention : Reuss Voigt Hill
#
# Bulk Modulus (GPa) = 55.08999 56.09569 55.59284
# Shear Modulus (GPa) = 81.99115 -109.49759 -13.75322
#
# Velocity S-wave (km/s) = 6.08608 -7.03326 -2.49262
# Velocity P-wave (km/s) = 8.61827 6.37289 4.10249
#
# Compressibility (1/GPa) = 0.01815212
#
# Stress axis : x y z
#
# Youngs Moduli (GPa) = 92.06961 87.34115 64.82998
#
# Poissons Ratio (x) = 0.08762 0.17567
# Poissons Ratio (y) = 0.09237 0.39409
# Poissons Ratio (z) = 0.24948 0.53094
#
# Static dielectric constant tensor:
#      x y z
#    x 2.148980 0.000000 0.000000 
#    y 0.000000 1.823190 0.000000 
#    z 0.000000 0.000000 1.930110 
# 
# From -- ./inp_files/41624.got.cif
#   From: 2010.05.17/outbox.cif.g08.bks.cpg/sg72_21_cif.got.tgz:41624.got - 2010.06.03 17:03:01.
