data_PCOD9525692
_publ_section_title
;
Structure prediction by ZEFSAII (Michael W. Deem and Ramdas Pophale) SiO2 
 PCOD9525692
Probable space group: I B A M
;
_chemical_formula_sum "Si O2"
_cell_formula_units_Z 60
_cell_length_a 14.755068
_cell_length_b 4.976531
_cell_length_c 34.766236
_cell_angle_alpha 90.000000
_cell_angle_beta 90.000000
_cell_angle_gamma 90.000000
_cell_volume 2552.851797
_symmetry_space_group_name_H-M "I B A M"
_symmetry_group_IT_number 72
_symmetry_cell_setting 'orthorhombic'
loop_
_space_group_symop_operation_xyz
x,y,z
-x,-y,z
x,-y,1/2-z
-x,y,1/2-z
-x,-y,-z
x,y,-z
-x,y,1/2+z
x,-y,1/2+z
1/2+x,1/2+y,1/2+z
1/2-x,1/2-y,1/2+z
1/2+x,1/2-y,-z
1/2-x,1/2+y,-z
1/2-x,1/2-y,1/2-z
1/2+x,1/2+y,1/2-z
1/2-x,1/2+y,z
1/2+x,1/2-y,z
loop_
_atom_site_type_symbol
_atom_site_label
_atom_site_fract_x
_atom_site_fract_y
_atom_site_fract_z
Si Si1 0.313104 0.065442 0.500000
Si Si2 0.312517 0.192170 0.418159
Si Si3 0.664578 0.588902 0.209838
Si Si4 0.000000 0.000000 0.250000
Si Si5 0.607213 0.939818 0.336778
O O1 0.275143 0.763478 0.500000
O O2 0.359013 0.131668 0.459333
O O3 0.225013 0.994385 0.417002
O O4 0.370083 0.122948 0.380940
O O5 0.715262 0.500000 0.250000
O O6 0.568795 0.687336 0.227556
O O7 0.677067 0.828950 0.179358
O O8 0.633795 0.320039 0.188123
O O9 0.500000 0.000000 0.335314
#
# Coordination Sequence:
#
# PCOD9525692 Si02
#       5
#     8  16  16   4  16
#     4   8  16  34  55  74  95 134 176 200 236 306
#     4  10  21  36  56  77 104 136 170 208 252 310
#     4  10  19  30  51  75 104 135 177 213 247 294
#     4   8  16  30  48  74 100 132 184 206 250 278
#     4  12  19  33  53  82 103 131 171 220 258 293
#
# _framework density 23.503128
#
# number of rings (size 3 to 8) (size 9 to 14) (size 15 to 20)
#    0.800    1.067    2.667    2.400    0.000    2.133 
#    0.000    0.667    0.000   16.000    0.000   14.933 
#    0.000    0.000    0.000    0.000    0.000    0.000 
#
# Total GULP energy -167171.742126 kJ/mol
# GULP energy per Si atom -5572.391404 kJ/mol
# Density = 2.344963 g / cm^3
# Si number density = 23.503128 Si / 1000 Ang^3
#
#
#
# Elastic Constant Matrix: (Units=GPa)
#
#
# Indices 1 2 3 4 5 6 
#
# 1 65.7938 0.9392 19.8111 0.0000 0.0000 0.0000
# 2 0.9392 133.1043 33.7575 0.0000 0.0000 0.0000
# 3 19.8111 33.7575 221.8944 0.0000 0.0000 0.0000
# 4 0.0000 0.0000 0.0000 34.4056 0.0000 0.0000
# 5 0.0000 0.0000 0.0000 0.0000 30.3170 0.0000
# 6 0.0000 0.0000 0.0000 0.0000 0.0000 -187.8918
#
#
#
# Elastic Compliance Matrix: (Units=1/GPa)
#
#
# Indices 1 2 3 4 5 6 
#
# 1 0.015627 0.000253 -0.001434 0.000000 0.000000 0.000000
# 2 0.000253 0.007819 -0.001212 0.000000 0.000000 0.000000
# 3 -0.001434 -0.001212 0.004819 0.000000 0.000000 0.000000
# 4 0.000000 0.000000 0.000000 0.029065 0.000000 0.000000
# 5 0.000000 0.000000 0.000000 0.000000 0.032985 0.000000
# 6 0.000000 0.000000 0.000000 0.000000 0.000000 -0.005322
#
#
# Mechanical properties :
#
#
# Convention : Reuss Voigt Hill
#
# Bulk Modulus (GPa) = 42.58994 58.86755 50.72875
# Shear Modulus (GPa) = 51.22748 -0.21487 25.50631
#
# Velocity S-wave (km/s) = 4.67369 -0.30269 3.29786
# Velocity P-wave (km/s) = 6.87639 4.99789 6.01098
#
# Compressibility (1/GPa) = 0.02347972
#
# Stress axis : x y z
#
# Youngs Moduli (GPa) = 63.99142 127.90145 207.50965
#
# Poissons Ratio (x) = -0.03240 0.29752
# Poissons Ratio (y) = -0.01621 0.25152
# Poissons Ratio (z) = 0.09175 0.15503
#
# Static dielectric constant tensor:
#      x y z
#    x 1.980950 0.000000 0.000000 
#    y 0.000000 1.963140 0.000000 
#    z 0.000000 0.000000 1.988910 
# 
# From -- ./inp_files/51944.got.cif
#   From: 2010.05.17/outbox.cif.g08.bks.cpg/sg72_26_cif.got.tgz:51944.got - 2010.06.03 17:03:01.
