data_PCOD9525074
_publ_section_title
;
Structure prediction by ZEFSAII (Michael W. Deem and Ramdas Pophale) SiO2 
 PCOD9525074
Probable space group: I B A M
;
_chemical_formula_sum "Si O2"
_cell_formula_units_Z 80
_cell_length_a 7.220174
_cell_length_b 26.091371
_cell_length_c 16.893228
_cell_angle_alpha 90.000000
_cell_angle_beta 90.000000
_cell_angle_gamma 90.000000
_cell_volume 3182.417893
_symmetry_space_group_name_H-M "I B A M"
_symmetry_group_IT_number 72
_symmetry_cell_setting 'orthorhombic'
loop_
_space_group_symop_operation_xyz
x,y,z
-x,-y,z
x,-y,1/2-z
-x,y,1/2-z
-x,-y,-z
x,y,-z
-x,y,1/2+z
x,-y,1/2+z
1/2+x,1/2+y,1/2+z
1/2-x,1/2-y,1/2+z
1/2+x,1/2-y,-z
1/2-x,1/2+y,-z
1/2-x,1/2-y,1/2-z
1/2+x,1/2+y,1/2-z
1/2-x,1/2+y,z
1/2+x,1/2-y,z
loop_
_atom_site_type_symbol
_atom_site_label
_atom_site_fract_x
_atom_site_fract_y
_atom_site_fract_z
Si Si1 0.726377 0.406357 0.740834
Si Si2 0.875995 0.949154 0.586668
Si Si3 0.267690 0.295105 0.814165
Si Si4 0.117604 0.788307 0.588500
Si Si5 0.243084 0.605967 0.086989
O O1 0.500000 0.407406 0.750000
O O2 0.751109 0.441136 0.662992
O O3 0.794411 0.349681 0.716883
O O4 0.808419 0.418049 0.827905
O O5 0.784157 0.950800 0.500000
O O6 0.034315 0.905114 0.583032
O O7 0.000000 0.000000 0.595677
O O8 0.250000 0.250000 0.750000
O O9 0.175350 0.269215 0.890689
O O10 0.475714 0.302797 0.843132
O O11 0.041784 0.790470 0.500000
O O12 0.274686 0.832298 0.592571
O O13 0.171038 0.589113 0.000000
#
# Coordination Sequence:
#
# PCOD9525074 Si02
#       5
#    16  16  16  16  16
#     4  10  17  30  47  68  98 135 167 211 262 310
#     4   9  17  28  46  70  98 132 169 211 267 328
#     4  12  20  34  51  73 101 141 182 221 263 318
#     4  11  22  34  50  72 102 142 181 219 263 317
#     4   9  17  30  44  65  97 132 167 210 260 311
#
# _framework density 25.138121000000002
#
# number of rings (size 3 to 8) (size 9 to 14) (size 15 to 20)
#    0.000    1.800    6.000    1.200    0.000    4.400 
#    0.000    0.000    0.000    0.000    0.000    0.000 
#    0.000    1.600    2.400   12.000    7.200    0.400 
#
# Total GULP energy -223100.051959 kJ/mol
# GULP energy per Si atom -5577.501299 kJ/mol
# Density = 2.508091 g / cm^3
# Si number density = 25.138121 Si / 1000 Ang^3
#
#
#
# Elastic Constant Matrix: (Units=GPa)
#
#
# Indices 1 2 3 4 5 6 
#
# 1 41.1603 12.5563 10.3252 0.0000 0.0000 0.0000
# 2 12.5563 70.0852 52.1587 0.0000 0.0000 0.0000
# 3 10.3252 52.1587 301.4035 -0.0002 0.0001 0.0000
# 4 0.0000 0.0000 -0.0002 23.0976 0.0000 0.0000
# 5 0.0000 0.0000 0.0001 0.0000 8.1400 0.0000
# 6 0.0000 0.0000 0.0000 0.0000 0.0000 13.8379
#
#
#
# Elastic Compliance Matrix: (Units=1/GPa)
#
#
# Indices 1 2 3 4 5 6 
#
# 1 0.025702 -0.004533 -0.000096 0.000000 0.000000 0.000000
# 2 -0.004533 0.017177 -0.002817 0.000000 0.000000 0.000000
# 3 -0.000096 -0.002817 0.003809 0.000000 0.000000 0.000000
# 4 0.000000 0.000000 0.000000 0.043295 0.000000 0.000000
# 5 0.000000 0.000000 0.000000 0.000000 0.122850 0.000000
# 6 0.000000 0.000000 0.000000 0.000000 0.000000 0.072265
#
#
# Mechanical properties :
#
#
# Convention : Reuss Voigt Hill
#
# Bulk Modulus (GPa) = 31.45155 62.52551 46.98853
# Shear Modulus (GPa) = 16.09843 31.52234 23.81038
#
# Velocity S-wave (km/s) = 2.53336 3.54498 3.08097
# Velocity P-wave (km/s) = 4.59302 6.45621 5.60261
#
# Compressibility (1/GPa) = 0.03179493
#
# Stress axis : x y z
#
# Youngs Moduli (GPa) = 38.90711 58.21672 262.56130
#
# Poissons Ratio (x) = 0.26392 0.02520
# Poissons Ratio (y) = 0.17638 0.73970
# Poissons Ratio (z) = 0.00373 0.16401
#
# Static dielectric constant tensor:
#      x y z
#    x 2.028960 0.000000 0.000000 
#    y 0.000000 2.071130 0.000000 
#    z 0.000000 0.000000 2.066990 
# 
# From -- ./inp_files/28310.got.cif
#   From: 2010.05.17/outbox.cif.g08.bks.cpg/sg72_15_cif.got.tgz:28310.got - 2010.06.03 17:03:01.
