data_PCOD9525406
_publ_section_title
;
Structure prediction by ZEFSAII (Michael W. Deem and Ramdas Pophale) SiO2 
 PCOD9525406
Probable space group: I B A M
;
_chemical_formula_sum "Si O2"
_cell_formula_units_Z 48
_cell_length_a 17.331427
_cell_length_b 27.018738
_cell_length_c 5.361578
_cell_angle_alpha 90.000000
_cell_angle_beta 90.000000
_cell_angle_gamma 90.000000
_cell_volume 2510.683744
_symmetry_space_group_name_H-M "I B A M"
_symmetry_group_IT_number 72
_symmetry_cell_setting 'orthorhombic'
loop_
_space_group_symop_operation_xyz
x,y,z
-x,-y,z
x,-y,1/2-z
-x,y,1/2-z
-x,-y,-z
x,y,-z
-x,y,1/2+z
x,-y,1/2+z
1/2+x,1/2+y,1/2+z
1/2-x,1/2-y,1/2+z
1/2+x,1/2-y,-z
1/2-x,1/2+y,-z
1/2-x,1/2-y,1/2-z
1/2+x,1/2+y,1/2-z
1/2-x,1/2+y,z
1/2+x,1/2-y,z
loop_
_atom_site_type_symbol
_atom_site_label
_atom_site_fract_x
_atom_site_fract_y
_atom_site_fract_z
Si Si1 0.801798 0.745527 0.000000
Si Si2 0.215725 0.362082 0.000000
Si Si3 0.682141 0.353222 0.000000
Si Si4 0.782003 0.468977 0.500000
Si Si5 0.518338 0.624773 0.500000
Si Si6 0.597970 0.531472 0.000000
O O1 0.750000 0.750000 0.750000
O O2 0.832534 0.689251 0.000000
O O3 0.849217 0.796556 0.000000
O O4 0.267725 0.360407 0.251525
O O5 0.176684 0.415711 0.000000
O O6 0.608330 0.388810 0.000000
O O7 0.797815 0.500000 0.250000
O O8 0.689598 0.457184 0.500000
O O9 0.500000 0.653445 0.750000
O O10 0.458664 0.578737 0.500000
O O11 0.584134 0.500000 0.250000
#
# Coordination Sequence:
#
# PCOD9525406 Si02
#       6
#     8   8   8   8   8   8
#     4   8  16  29  48  65  76  94 126 174 222 258
#     4  10  18  32  48  62  79 102 134 175 221 255
#     4  10  19  32  46  62  80 100 137 181 215 249
#     4  10  19  30  43  59  82 111 142 175 206 237
#     4  12  23  32  42  57  78 109 140 172 208 239
#     4  10  21  33  41  52  75 110 149 178 200 228
#
# _framework density 19.118300000000001
#
# number of rings (size 3 to 8) (size 9 to 14) (size 15 to 20)
#    0.000    2.000    0.000    5.000    0.000    4.667 
#    0.000    5.000    0.000    0.000    0.000    0.000 
#    0.000    0.000    0.000    0.000    0.000    5.000 
#
# Total GULP energy -133808.481371 kJ/mol
# GULP energy per Si atom -5575.353390 kJ/mol
# Density = 1.907479 g / cm^3
# Si number density = 19.118300 Si / 1000 Ang^3
#
#
#
# Elastic Constant Matrix: (Units=GPa)
#
#
# Indices 1 2 3 4 5 6 
#
# 1 4.5533 -3.4666 5.9945 0.0000 0.0000 0.0000
# 2 -3.4666 155.4820 31.8007 0.0000 0.0000 0.0000
# 3 5.9945 31.8007 173.9618 -0.0001 -0.0003 0.0000
# 4 0.0000 0.0000 -0.0001 22.9153 0.0000 0.0000
# 5 0.0000 0.0000 -0.0003 0.0000 11.2486 0.0000
# 6 0.0000 0.0000 0.0000 0.0000 0.0000 16.2471
#
#
#
# Elastic Compliance Matrix: (Units=1/GPa)
#
#
# Indices 1 2 3 4 5 6 
#
# 1 0.237661 0.007245 -0.009514 0.000000 0.000000 0.000000
# 2 0.007245 0.006902 -0.001511 0.000000 0.000000 0.000000
# 3 -0.009514 -0.001511 0.006353 0.000000 0.000000 0.000000
# 4 0.000000 0.000000 0.000000 0.043639 0.000000 0.000000
# 5 0.000000 0.000000 0.000000 0.000000 0.088900 0.000000
# 6 0.000000 0.000000 0.000000 0.000000 0.000000 0.061550
#
#
# Mechanical properties :
#
#
# Convention : Reuss Voigt Hill
#
# Bulk Modulus (GPa) = 4.10922 44.73936 24.42429
# Shear Modulus (GPa) = 9.36884 30.06011 19.71447
#
# Velocity S-wave (km/s) = 2.21610 3.96955 3.21469
# Velocity P-wave (km/s) = 2.94994 6.66798 5.15578
#
# Compressibility (1/GPa) = 0.24335528
#
# Stress axis : x y z
#
# Youngs Moduli (GPa) = 4.20767 144.87986 157.41809
#
# Poissons Ratio (x) = -1.04962 1.49765
# Poissons Ratio (y) = -0.03048 0.23792
# Poissons Ratio (z) = 0.04003 0.21897
#
# Static dielectric constant tensor:
#      x y z
#    x 1.635200 0.000000 0.000000 
#    y 0.000000 1.758480 0.000000 
#    z 0.000000 0.000000 1.729570 
# 
# From -- ./inp_files/498.got.cif
#   From: 2010.05.17/outbox.cif.g08.bks.cpg/sg72_1_cif.got.tgz:498.got - 2010.06.03 17:03:01.
