data_PCOD9525034
_publ_section_title
;
Structure prediction by ZEFSAII (Michael W. Deem and Ramdas Pophale) SiO2 
 PCOD9525034
Probable space group: I B A M
;
_chemical_formula_sum "Si O2"
_cell_formula_units_Z 128
_cell_length_a 24.012135
_cell_length_b 19.608957
_cell_length_c 14.615772
_cell_angle_alpha 90.000000
_cell_angle_beta 90.000000
_cell_angle_gamma 90.000000
_cell_volume 6881.878964
_symmetry_space_group_name_H-M "I B A M"
_symmetry_group_IT_number 72
_symmetry_cell_setting 'orthorhombic'
loop_
_space_group_symop_operation_xyz
x,y,z
-x,-y,z
x,-y,1/2-z
-x,y,1/2-z
-x,-y,-z
x,y,-z
-x,y,1/2+z
x,-y,1/2+z
1/2+x,1/2+y,1/2+z
1/2-x,1/2-y,1/2+z
1/2+x,1/2-y,-z
1/2-x,1/2+y,-z
1/2-x,1/2-y,1/2-z
1/2+x,1/2+y,1/2-z
1/2-x,1/2+y,z
1/2+x,1/2-y,z
loop_
_atom_site_type_symbol
_atom_site_label
_atom_site_fract_x
_atom_site_fract_y
_atom_site_fract_z
Si Si1 0.569000 0.875340 0.612261
Si Si2 0.355795 0.266873 0.111426
Si Si3 0.554421 0.163976 0.612014
Si Si4 0.248303 0.174549 0.110728
Si Si5 0.604199 0.022516 0.396743
Si Si6 0.321210 0.200998 0.611691
Si Si7 0.215348 0.888152 0.890490
Si Si8 0.228525 0.477454 0.651747
O O1 0.570831 0.876952 0.500000
O O2 0.509469 0.845676 0.639076
O O3 0.579850 0.952955 0.644371
O O4 0.620009 0.827818 0.642518
O O5 0.412459 0.231186 0.143359
O O6 0.305033 0.215126 0.133638
O O7 0.336252 0.342034 0.143026
O O8 0.358241 0.269315 0.000000
O O9 0.555999 0.165973 0.500000
O O10 0.586946 0.095535 0.642904
O O11 0.197801 0.223588 0.140117
O O12 0.248899 0.098842 0.148917
O O13 0.247252 0.168546 0.000000
O O14 0.580926 0.024073 0.500000
O O15 0.671104 0.017863 0.403824
O O16 0.321264 0.200955 0.500000
O O17 0.271954 0.149797 0.640836
O O18 0.223908 0.967614 0.871430
O O19 0.214890 0.882039 0.000000
O O20 0.207979 0.500000 0.750000
#
# Coordination Sequence:
#
# PCOD9525034 Si02
#       8
#    16  16  16  16  16  16  16  16
#     4   9  15  23  41  70  94 112 143 183 214 245
#     4   8  14  25  44  67  86 110 144 181 216 255
#     4   9  15  23  41  70  94 112 143 183 214 245
#     4   9  16  29  47  63  84 114 147 178 216 266
#     4  10  17  28  44  62  90 125 153 173 202 251
#     4   8  14  25  44  67  86 110 144 181 216 255
#     4   9  16  29  47  63  84 114 147 178 216 266
#     4  12  22  29  41  65  91 117 148 184 222 254
#
# _framework density 18.599571000000001
#
# number of rings (size 3 to 8) (size 9 to 14) (size 15 to 20)
#    0.000    2.750    2.500    3.000    0.000    1.500 
#    0.000    2.500    0.000    1.500    0.000    0.875 
#    0.000    7.000    0.000    0.000    0.000    0.000 
#
# Total GULP energy -356883.378503 kJ/mol
# GULP energy per Si atom -5576.302789 kJ/mol
# Density = 1.855724 g / cm^3
# Si number density = 18.599571 Si / 1000 Ang^3
#
#
#
# Elastic Constant Matrix: (Units=GPa)
#
#
# Indices 1 2 3 4 5 6 
#
# 1 88.2382 47.5617 -6.2028 0.0000 0.0000 0.0000
# 2 47.5617 107.7006 -4.6524 0.0000 0.0000 0.0000
# 3 -6.2028 -4.6524 34.9464 0.0000 0.0000 0.0000
# 4 0.0000 0.0000 0.0000 3.0152 0.0000 0.0000
# 5 0.0000 0.0000 0.0000 0.0000 -10.2060 0.0000
# 6 0.0000 0.0000 0.0000 0.0000 0.0000 22.4083
#
#
#
# Elastic Compliance Matrix: (Units=1/GPa)
#
#
# Indices 1 2 3 4 5 6 
#
# 1 0.014984 -0.006540 0.001789 0.000000 0.000000 0.000000
# 2 -0.006540 0.012193 0.000462 0.000000 0.000000 0.000000
# 3 0.001789 0.000462 0.028994 0.000000 0.000000 0.000000
# 4 0.000000 0.000000 0.000000 0.331652 0.000000 0.000000
# 5 0.000000 0.000000 0.000000 0.000000 -0.097981 0.000000
# 6 0.000000 0.000000 0.000000 0.000000 0.000000 0.044626
#
#
# Mechanical properties :
#
#
# Convention : Reuss Voigt Hill
#
# Bulk Modulus (GPa) = 21.01086 33.81090 27.41088
# Shear Modulus (GPa) = 13.93110 15.98873 14.95992
#
# Velocity S-wave (km/s) = 2.73976 2.93512 2.83912
# Velocity P-wave (km/s) = 4.61837 5.45017 5.05142
#
# Compressibility (1/GPa) = 0.04759444
#
# Stress axis : x y z
#
# Youngs Moduli (GPa) = 66.73922 82.01454 34.48946
#
# Poissons Ratio (x) = 0.53635 -0.06170
# Poissons Ratio (y) = 0.43645 -0.01595
# Poissons Ratio (z) = -0.11939 -0.03793
#
# Static dielectric constant tensor:
#      x y z
#    x 1.631440 0.000000 0.000000 
#    y 0.000000 1.660080 0.000000 
#    z 0.000000 0.000000 1.756230 
# 
# From -- ./inp_files/33539.got.cif
#   From: 2010.05.17/outbox.cif.g08.bks.cpg/sg72_17_cif.got.tgz:33539.got - 2010.06.03 17:03:01.
