data_PCOD9525925
_publ_section_title
;
Structure prediction by ZEFSAII (Michael W. Deem and Ramdas Pophale) SiO2 
 PCOD9525925
Probable space group: I B A M
;
_chemical_formula_sum "Si O2"
_cell_formula_units_Z 112
_cell_length_a 14.329430
_cell_length_b 23.575952
_cell_length_c 15.289407
_cell_angle_alpha 90.000000
_cell_angle_beta 90.000000
_cell_angle_gamma 90.000000
_cell_volume 5165.219661
_symmetry_space_group_name_H-M "I B A M"
_symmetry_group_IT_number 72
_symmetry_cell_setting 'orthorhombic'
loop_
_space_group_symop_operation_xyz
x,y,z
-x,-y,z
x,-y,1/2-z
-x,y,1/2-z
-x,-y,-z
x,y,-z
-x,y,1/2+z
x,-y,1/2+z
1/2+x,1/2+y,1/2+z
1/2-x,1/2-y,1/2+z
1/2+x,1/2-y,-z
1/2-x,1/2+y,-z
1/2-x,1/2-y,1/2-z
1/2+x,1/2+y,1/2-z
1/2-x,1/2+y,z
1/2+x,1/2-y,z
loop_
_atom_site_type_symbol
_atom_site_label
_atom_site_fract_x
_atom_site_fract_y
_atom_site_fract_z
Si Si1 0.522649 0.938257 0.351945
Si Si2 0.109973 0.722023 0.337510
Si Si3 0.110484 0.062293 0.893936
Si Si4 0.285957 0.116983 0.601832
Si Si5 0.401615 0.432736 0.893184
Si Si6 0.709142 0.327053 0.100194
Si Si7 0.420338 0.178485 0.140128
O O1 0.500000 0.941428 0.250000
O O2 0.630888 0.921711 0.361039
O O3 0.460853 0.884222 0.381947
O O4 0.500000 0.000000 0.391314
O O5 0.181283 0.681271 0.387598
O O6 0.153670 0.783796 0.338286
O O7 0.098097 0.691914 0.243109
O O8 0.007591 0.719289 0.381463
O O9 0.187276 0.108698 0.870297
O O10 0.006752 0.081259 0.864938
O O11 0.121975 0.997326 0.865767
O O12 0.110545 0.059688 0.000000
O O13 0.282683 0.102583 0.500000
O O14 0.183149 0.105873 0.638489
O O15 0.404784 0.431067 0.000000
O O16 0.818952 0.314802 0.099971
O O17 0.674321 0.320134 0.000000
#
# Coordination Sequence:
#
# PCOD9525925 Si02
#       7
#    16  16  16  16  16  16  16
#     4  10  20  37  58  83 115 154 195 235 300 362
#     4  10  21  41  57  80 114 156 195 241 291 355
#     4   8  16  32  50  77 115 147 181 230 289 347
#     4  10  19  32  56  86 112 147 195 246 295 350
#     4   8  15  30  52  77 112 150 182 226 286 348
#     4  11  23  35  58  89 116 151 196 248 299 350
#     4  10  21  41  60  81 113 156 199 240 296 361
#
# _framework density 21.683492000000001
#
# number of rings (size 3 to 8) (size 9 to 14) (size 15 to 20)
#    0.000    2.429    2.857    1.714    2.000    4.286 
#    0.000    1.429    0.000    0.000    0.000    2.000 
#    0.000    0.000    0.000    0.000    0.000    0.000 
#
# Total GULP energy -312290.653669 kJ/mol
# GULP energy per Si atom -5576.618816 kJ/mol
# Density = 2.163414 g / cm^3
# Si number density = 21.683492 Si / 1000 Ang^3
#
#
#
# Elastic Constant Matrix: (Units=GPa)
#
#
# Indices 1 2 3 4 5 6 
#
# 1 104.2867 18.3749 -2.5787 0.0000 0.0000 0.0000
# 2 18.3749 30.4766 -11.5017 0.0003 0.0008 -0.0002
# 3 -2.5787 -11.5017 42.2314 0.0004 0.0012 -0.0002
# 4 0.0000 0.0003 0.0004 3.9400 0.0012 -0.0002
# 5 0.0000 0.0008 0.0012 0.0012 205.3035 -0.0014
# 6 0.0000 -0.0002 -0.0002 -0.0002 -0.0014 12.4489
#
#
#
# Elastic Compliance Matrix: (Units=1/GPa)
#
#
# Indices 1 2 3 4 5 6 
#
# 1 0.010787 -0.006971 -0.001240 0.000001 0.000000 0.000000
# 2 -0.006971 0.041077 0.010761 -0.000004 0.000000 0.000001
# 3 -0.001240 0.010761 0.026534 -0.000004 0.000000 0.000001
# 4 0.000001 -0.000004 -0.000004 0.253809 -0.000001 0.000004
# 5 0.000000 0.000000 0.000000 -0.000001 0.004871 0.000001
# 6 0.000000 0.000001 0.000001 0.000004 0.000001 0.080328
#
#
# Mechanical properties :
#
#
# Convention : Reuss Voigt Hill
#
# Bulk Modulus (GPa) = 11.97642 20.62043 16.29842
# Shear Modulus (GPa) = 11.36006 55.85182 33.60594
#
# Velocity S-wave (km/s) = 2.29138 5.08072 3.94107
# Velocity P-wave (km/s) = 3.54060 6.62938 5.31434
#
# Compressibility (1/GPa) = 0.08349744
#
# Stress axis : x y z
#
# Youngs Moduli (GPa) = 92.70729 24.34474 37.68722
#
# Poissons Ratio (x) = 0.16972 0.04673
# Poissons Ratio (y) = 0.64630 -0.40557
# Poissons Ratio (z) = 0.11496 -0.26199
#
# Static dielectric constant tensor:
#      x y z
#    x 1.793360 0.000000 0.000000 
#    y 0.000000 1.797540 0.000000 
#    z 0.000000 0.000000 1.849380 
# 
# From -- ./inp_files/37298.got.cif
#   From: 2010.05.17/outbox.cif.g08.bks.cpg/sg72_19_cif.got.tgz:37298.got - 2010.06.03 17:03:01.
