data_PCOD9525008
_publ_section_title
;
Structure prediction by ZEFSAII (Michael W. Deem and Ramdas Pophale) SiO2 
 PCOD9525008
Probable space group: I B A M
;
_chemical_formula_sum "Si O2"
_cell_formula_units_Z 100
_cell_length_a 14.471404
_cell_length_b 28.097960
_cell_length_c 14.199843
_cell_angle_alpha 90.000000
_cell_angle_beta 90.000000
_cell_angle_gamma 90.000000
_cell_volume 5773.896578
_symmetry_space_group_name_H-M "I B A M"
_symmetry_group_IT_number 72
_symmetry_cell_setting 'orthorhombic'
loop_
_space_group_symop_operation_xyz
x,y,z
-x,-y,z
x,-y,1/2-z
-x,y,1/2-z
-x,-y,-z
x,y,-z
-x,y,1/2+z
x,-y,1/2+z
1/2+x,1/2+y,1/2+z
1/2-x,1/2-y,1/2+z
1/2+x,1/2-y,-z
1/2-x,1/2+y,-z
1/2-x,1/2-y,1/2-z
1/2+x,1/2+y,1/2-z
1/2-x,1/2+y,z
1/2+x,1/2-y,z
loop_
_atom_site_type_symbol
_atom_site_label
_atom_site_fract_x
_atom_site_fract_y
_atom_site_fract_z
Si Si1 0.450899 0.923486 0.887108
Si Si2 0.370947 0.768396 0.606642
Si Si3 0.564094 0.730962 0.612944
Si Si4 0.828821 0.329932 0.389524
Si Si5 0.219113 0.819993 0.284977
Si Si6 0.360108 0.875498 0.393722
Si Si7 0.500000 0.000000 0.750000
O O1 0.386717 0.877725 0.866127
O O2 0.557770 0.909797 0.865504
O O3 0.436669 0.968363 0.820167
O O4 0.443832 0.932722 0.000000
O O5 0.340848 0.756666 0.500000
O O6 0.455727 0.735861 0.635947
O O7 0.284495 0.777335 0.673386
O O8 0.408142 0.822982 0.602936
O O9 0.572560 0.722061 0.500000
O O10 0.609608 0.782980 0.630113
O O11 0.620294 0.692328 0.672530
O O12 0.808503 0.330981 0.500000
O O13 0.737971 0.325987 0.325025
O O14 0.269905 0.865863 0.331753
O O15 0.331194 0.886854 0.500000
#
# Coordination Sequence:
#
# PCOD9525008 Si02
#       7
#    16  16  16  16  16  16   4
#     4  10  19  32  44  58  83 110 140 180 227 266
#     4   8  15  26  41  62  84 108 140 183 225 255
#     4  10  17  27  42  61  84 109 144 187 224 255
#     4  10  19  30  42  56  79 111 142 179 221 259
#     4  10  17  26  42  63  82 108 152 191 215 251
#     4   8  14  27  44  60  80 108 137 175 220 259
#     4  12  22  28  44  66  76 100 146 190 220 270
#
# _framework density 17.319326
#
# number of rings (size 3 to 8) (size 9 to 14) (size 15 to 20)
#    0.960    1.600    1.600    2.640    0.000    1.920 
#    0.000    0.000    0.000    0.960    0.000    0.000 
#    0.000    0.000    0.000    0.000    0.000   12.800 
#
# Total GULP energy -278478.926972 kJ/mol
# GULP energy per Si atom -5569.578539 kJ/mol
# Density = 1.727991 g / cm^3
# Si number density = 17.319326 Si / 1000 Ang^3
#
#
#
# Elastic Constant Matrix: (Units=GPa)
#
#
# Indices 1 2 3 4 5 6 
#
# 1 34.5506 2.2560 11.2009 0.0000 0.0000 0.0000
# 2 2.2560 48.4022 16.2187 0.0000 0.0000 0.0000
# 3 11.2009 16.2187 54.0387 -0.0001 0.0000 0.0000
# 4 0.0000 0.0000 -0.0001 28.2184 0.0000 0.0000
# 5 0.0000 0.0000 0.0000 0.0000 24.7703 0.0000
# 6 0.0000 0.0000 0.0000 0.0000 0.0000 12.4664
#
#
#
# Elastic Compliance Matrix: (Units=1/GPa)
#
#
# Indices 1 2 3 4 5 6 
#
# 1 0.031055 0.000789 -0.006674 0.000000 0.000000 0.000000
# 2 0.000789 0.022990 -0.007064 0.000000 0.000000 0.000000
# 3 -0.006674 -0.007064 0.022009 0.000000 0.000000 0.000000
# 4 0.000000 0.000000 0.000000 0.035438 0.000000 0.000000
# 5 0.000000 0.000000 0.000000 0.000000 0.040371 0.000000
# 6 0.000000 0.000000 0.000000 0.000000 0.000000 0.080215
#
#
# Mechanical properties :
#
#
# Convention : Reuss Voigt Hill
#
# Bulk Modulus (GPa) = 19.93743 21.81586 20.87665
# Shear Modulus (GPa) = 18.20206 20.24543 19.22374
#
# Velocity S-wave (km/s) = 3.24538 3.42270 3.33522
# Velocity P-wave (km/s) = 5.05767 5.31446 5.18765
#
# Compressibility (1/GPa) = 0.05015691
#
# Stress axis : x y z
#
# Youngs Moduli (GPa) = 32.20088 43.49647 45.43683
#
# Poissons Ratio (x) = -0.03431 0.30323
# Poissons Ratio (y) = -0.02540 0.32095
# Poissons Ratio (z) = 0.21490 0.30724
#
# Static dielectric constant tensor:
#      x y z
#    x 1.593780 0.000000 0.000000 
#    y 0.000000 1.625050 0.000000 
#    z 0.000000 0.000000 1.682100 
# 
# From -- ./inp_files/22236.got.cif
#   From: 2010.05.17/outbox.cif.g08.bks.cpg/sg72_12_cif.got.tgz:22236.got - 2010.06.03 17:03:01.
