data_PCOD9525401
_publ_section_title
;
Structure prediction by ZEFSAII (Michael W. Deem and Ramdas Pophale) SiO2 
 PCOD9525401
Probable space group: I B A M
;
_chemical_formula_sum "Si O2"
_cell_formula_units_Z 80
_cell_length_a 9.494161
_cell_length_b 25.027595
_cell_length_c 19.459442
_cell_angle_alpha 90.000000
_cell_angle_beta 90.000000
_cell_angle_gamma 90.000000
_cell_volume 4623.875089
_symmetry_space_group_name_H-M "I B A M"
_symmetry_group_IT_number 72
_symmetry_cell_setting 'orthorhombic'
loop_
_space_group_symop_operation_xyz
x,y,z
-x,-y,z
x,-y,1/2-z
-x,y,1/2-z
-x,-y,-z
x,y,-z
-x,y,1/2+z
x,-y,1/2+z
1/2+x,1/2+y,1/2+z
1/2-x,1/2-y,1/2+z
1/2+x,1/2-y,-z
1/2-x,1/2+y,-z
1/2-x,1/2-y,1/2-z
1/2+x,1/2+y,1/2-z
1/2-x,1/2+y,z
1/2+x,1/2-y,z
loop_
_atom_site_type_symbol
_atom_site_label
_atom_site_fract_x
_atom_site_fract_y
_atom_site_fract_z
Si Si1 0.115280 0.352986 0.080849
Si Si2 0.956689 0.438679 0.827930
Si Si3 0.300932 0.370887 0.313458
Si Si4 0.109564 0.155733 0.659884
Si Si5 0.566611 0.218022 0.325064
O O1 0.279056 0.355603 0.100653
O O2 0.038804 0.402719 0.117484
O O3 0.044649 0.301888 0.118280
O O4 0.092673 0.351864 0.000000
O O5 0.792500 0.422419 0.832154
O O6 0.000000 0.500000 0.836587
O O7 0.000000 0.422890 0.750000
O O8 0.330948 0.367729 0.231739
O O9 0.452219 0.366502 0.349237
O O10 0.204393 0.319281 0.330791
O O11 0.098994 0.219659 0.669052
O O12 0.500000 0.208475 0.250000
#
# Coordination Sequence:
#
# PCOD9525401 Si02
#       5
#    16  16  16  16  16
#     4  11  23  37  53  80 120 154 186 230 286 344
#     4  10  20  39  63  82 104 140 198 252 286 334
#     4  10  18  31  56  87 106 138 187 240 280 325
#     4  11  19  31  55  85 117 146 182 233 283 331
#     4  11  18  33  57  84 111 153 196 227 263 330
#
# _framework density 17.301507000000001
#
# number of rings (size 3 to 8) (size 9 to 14) (size 15 to 20)
#    0.000    1.400    6.000    3.000    0.000    1.200 
#    0.000    5.000    0.000    1.200    0.000    0.000 
#    0.000    0.000    0.000    0.000    0.000    0.000 
#
# Total GULP energy -223269.945302 kJ/mol
# GULP energy per Si atom -5581.748633 kJ/mol
# Density = 1.726213 g / cm^3
# Si number density = 17.301507 Si / 1000 Ang^3
#
#
#
# Elastic Constant Matrix: (Units=GPa)
#
#
# Indices 1 2 3 4 5 6 
#
# 1 145.4806 45.8530 44.3947 0.0000 0.0000 0.0000
# 2 45.8530 96.9401 33.3577 0.0000 0.0000 0.0000
# 3 44.3947 33.3577 122.0815 0.0000 0.0000 0.0000
# 4 0.0000 0.0000 0.0000 -5.5291 0.0000 0.0000
# 5 0.0000 0.0000 0.0000 0.0000 20.1653 0.0000
# 6 0.0000 0.0000 0.0000 0.0000 0.0000 16.3196
#
#
#
# Elastic Compliance Matrix: (Units=1/GPa)
#
#
# Indices 1 2 3 4 5 6 
#
# 1 0.008592 -0.003299 -0.002223 0.000000 0.000000 0.000000
# 2 -0.003299 0.012653 -0.002258 0.000000 0.000000 0.000000
# 3 -0.002223 -0.002258 0.009617 0.000000 0.000000 0.000000
# 4 0.000000 0.000000 0.000000 -0.180861 0.000000 0.000000
# 5 0.000000 0.000000 0.000000 0.000000 0.049590 0.000000
# 6 0.000000 0.000000 0.000000 0.000000 0.000000 0.061276
#
#
# Mechanical properties :
#
#
# Convention : Reuss Voigt Hill
#
# Bulk Modulus (GPa) = 65.35064 67.96809 66.65937
# Shear Modulus (GPa) = -270.66429 22.25094 -124.20667
#
# Velocity S-wave (km/s) = -12.52116 3.59007 -8.48206
# Velocity P-wave (km/s) = 13.08379 7.52028 7.57070
#
# Compressibility (1/GPa) = 0.01530207
#
# Stress axis : x y z
#
# Youngs Moduli (GPa) = 116.38811 79.03279 103.98780
#
# Poissons Ratio (x) = 0.26073 0.23117
# Poissons Ratio (y) = 0.38397 0.23476
# Poissons Ratio (z) = 0.25873 0.17843
#
# Static dielectric constant tensor:
#      x y z
#    x 1.619800 0.000000 0.000000 
#    y 0.000000 1.593570 0.000000 
#    z 0.000000 0.000000 1.561580 
# 
# From -- ./inp_files/28193.got.cif
#   From: 2010.05.17/outbox.cif.g08.bks.cpg/sg72_15_cif.got.tgz:28193.got - 2010.06.03 17:03:01.
