data_PCOD9525880
_publ_section_title
;
Structure prediction by ZEFSAII (Michael W. Deem and Ramdas Pophale) SiO2 
 PCOD9525880
Probable space group: I B A M
;
_chemical_formula_sum "Si O2"
_cell_formula_units_Z 120
_cell_length_a 16.589735
_cell_length_b 22.283249
_cell_length_c 14.478705
_cell_angle_alpha 90.000000
_cell_angle_beta 90.000000
_cell_angle_gamma 90.000000
_cell_volume 5352.389149
_symmetry_space_group_name_H-M "I B A M"
_symmetry_group_IT_number 72
_symmetry_cell_setting 'orthorhombic'
loop_
_space_group_symop_operation_xyz
x,y,z
-x,-y,z
x,-y,1/2-z
-x,y,1/2-z
-x,-y,-z
x,y,-z
-x,y,1/2+z
x,-y,1/2+z
1/2+x,1/2+y,1/2+z
1/2-x,1/2-y,1/2+z
1/2+x,1/2-y,-z
1/2-x,1/2+y,-z
1/2-x,1/2-y,1/2-z
1/2+x,1/2+y,1/2-z
1/2-x,1/2+y,z
1/2+x,1/2-y,z
loop_
_atom_site_type_symbol
_atom_site_label
_atom_site_fract_x
_atom_site_fract_y
_atom_site_fract_z
Si Si1 0.665207 0.937650 0.640108
Si Si2 0.153210 0.907020 0.896047
Si Si3 0.945796 0.227025 0.392095
Si Si4 0.982380 0.639215 0.898968
Si Si5 0.848622 0.650746 0.311130
Si Si6 0.378252 0.286942 0.202892
Si Si7 0.138219 0.000000 0.750000
Si Si8 0.260411 0.944929 0.605484
O O1 0.753940 0.928161 0.597017
O O2 0.580660 0.914732 0.600981
O O3 0.671617 0.893424 0.727217
O O4 0.666878 0.009934 0.637767
O O5 0.160336 0.841704 0.850799
O O6 0.105007 0.951208 0.824524
O O7 0.118761 0.905730 0.000000
O O8 0.938409 0.208705 0.500000
O O9 0.932232 0.299041 0.386950
O O10 0.892064 0.198244 0.311273
O O11 0.036298 0.219704 0.351879
O O12 0.056739 0.639397 0.830082
O O13 0.020997 0.643792 0.000000
O O14 0.837150 0.721699 0.301343
O O15 0.793081 0.622321 0.389408
O O16 0.191631 0.040910 0.819458
O O17 0.235709 0.956802 0.500000
#
# Coordination Sequence:
#
# PCOD9525880 Si02
#       8
#    16  16  16  16  16  16   8  16
#     4  11  20  37  55  77 115 158 204 246 293 341
#     4  11  23  40  65  90 117 157 198 236 295 363
#     4   9  18  36  60  87 122 157 193 236 292 355
#     4  10  19  32  53  80 110 157 207 244 292 341
#     4  11  20  36  55  81 119 156 197 253 296 337
#     4  10  21  37  63  92 122 156 190 242 296 354
#     4  10  20  42  58  82 114 154 194 246 284 360
#     4  11  21  36  56  78 110 160 208 250 295 338
#
# _framework density 22.419893999999999
#
# number of rings (size 3 to 8) (size 9 to 14) (size 15 to 20)
#    0.000    1.600    4.000    3.600    0.000    2.667 
#    0.000    4.000    0.000    1.600    0.000    4.667 
#    0.000    0.000    0.000    0.000    0.000    0.000 
#
# Total GULP energy -334098.340560 kJ/mol
# GULP energy per Si atom -5568.305676 kJ/mol
# Density = 2.236887 g / cm^3
# Si number density = 22.419894 Si / 1000 Ang^3
#
#
#
# Elastic Constant Matrix: (Units=GPa)
#
#
# Indices 1 2 3 4 5 6 
#
# 1 8.6991 13.5777 -0.7857 0.0000 0.0000 0.0000
# 2 13.5777 103.1259 50.4952 0.0000 0.0000 0.0000
# 3 -0.7857 50.4952 174.6434 0.0000 0.0000 0.0000
# 4 0.0000 0.0000 0.0000 31.1030 0.0000 0.0000
# 5 0.0000 0.0000 0.0000 0.0000 4.0268 0.0000
# 6 0.0000 0.0000 0.0000 0.0000 0.0000 -2.3988
#
#
#
# Elastic Compliance Matrix: (Units=1/GPa)
#
#
# Indices 1 2 3 4 5 6 
#
# 1 0.152839 -0.023834 0.007579 0.000000 0.000000 0.000000
# 2 -0.023834 0.015013 -0.004448 0.000000 0.000000 0.000000
# 3 0.007579 -0.004448 0.007046 0.000000 0.000000 0.000000
# 4 0.000000 0.000000 0.000000 0.032151 0.000000 0.000000
# 5 0.000000 0.000000 0.000000 0.000000 0.248338 0.000000
# 6 0.000000 0.000000 0.000000 0.000000 0.000000 -0.416876
#
#
# Mechanical properties :
#
#
# Convention : Reuss Voigt Hill
#
# Bulk Modulus (GPa) = 7.49109 45.89366 26.69237
# Shear Modulus (GPa) = 40.18842 21.42495 30.80668
#
# Velocity S-wave (km/s) = 4.23843 3.09467 3.71088
# Velocity P-wave (km/s) = 5.22502 5.76921 5.50385
#
# Compressibility (1/GPa) = 0.13349194
#
# Stress axis : x y z
#
# Youngs Moduli (GPa) = 6.54283 66.60990 141.92269
#
# Poissons Ratio (x) = 1.58757 -1.07560
# Poissons Ratio (y) = 0.15594 0.63126
# Poissons Ratio (z) = -0.04959 0.29628
#
# Static dielectric constant tensor:
#      x y z
#    x 1.833100 0.000000 0.000000 
#    y 0.000000 1.871490 0.000000 
#    z 0.000000 0.000000 1.939700 
# 
# From -- ./inp_files/24502.got.cif
#   From: 2010.05.17/outbox.cif.g08.bks.cpg/sg72_13_cif.got.tgz:24502.got - 2010.06.03 17:03:01.
