data_PCOD9525346
_publ_section_title
;
Structure prediction by ZEFSAII (Michael W. Deem and Ramdas Pophale) SiO2 
 PCOD9525346
Probable space group: I B A M
;
_chemical_formula_sum "Si O2"
_cell_formula_units_Z 64
_cell_length_a 15.139611
_cell_length_b 8.461880
_cell_length_c 19.769198
_cell_angle_alpha 90.000000
_cell_angle_beta 90.000000
_cell_angle_gamma 90.000000
_cell_volume 2532.623485
_symmetry_space_group_name_H-M "I B A M"
_symmetry_group_IT_number 72
_symmetry_cell_setting 'orthorhombic'
loop_
_space_group_symop_operation_xyz
x,y,z
-x,-y,z
x,-y,1/2-z
-x,y,1/2-z
-x,-y,-z
x,y,-z
-x,y,1/2+z
x,-y,1/2+z
1/2+x,1/2+y,1/2+z
1/2-x,1/2-y,1/2+z
1/2+x,1/2-y,-z
1/2-x,1/2+y,-z
1/2-x,1/2-y,1/2-z
1/2+x,1/2+y,1/2-z
1/2-x,1/2+y,z
1/2+x,1/2-y,z
loop_
_atom_site_type_symbol
_atom_site_label
_atom_site_fract_x
_atom_site_fract_y
_atom_site_fract_z
Si Si1 0.114981 0.829072 0.281886
Si Si2 0.234534 0.928025 0.924228
Si Si3 0.316697 0.854661 0.666893
Si Si4 0.433444 0.352841 0.572834
O O1 0.218843 0.854588 0.299925
O O2 0.116147 0.691762 0.225701
O O3 0.063068 0.788598 0.350658
O O4 0.090152 0.000000 0.250000
O O5 0.183687 0.788301 0.886687
O O6 0.315284 0.986405 0.877434
O O7 0.164731 0.071156 0.929383
O O8 0.260830 0.886041 0.000000
O O9 0.500000 0.500000 0.572216
O O10 0.448802 0.267841 0.500000
#
# Coordination Sequence:
#
# PCOD9525346 Si02
#       4
#    16  16  16  16
#     4  10  18  31  48  72 103 135 162 209 262 306
#     4  10  19  32  51  77 107 138 171 211 262 314
#     4  10  18  31  47  73 107 137 167 209 258 316
#     4   9  18  32  48  70 101 135 174 216 256 302
#
# _framework density 25.270237999999999
#
# number of rings (size 3 to 8) (size 9 to 14) (size 15 to 20)
#    0.000    2.250    5.000    0.750    0.000    1.500 
#    0.000    0.000    0.000    0.000    0.000    7.000 
#   30.000   34.000    0.000    0.000    0.000    0.000 
#
# Total GULP energy -178568.908292 kJ/mol
# GULP energy per Si atom -5580.278384 kJ/mol
# Density = 2.521272 g / cm^3
# Si number density = 25.270238 Si / 1000 Ang^3
#
#
#
# Elastic Constant Matrix: (Units=GPa)
#
#
# Indices 1 2 3 4 5 6 
#
# 1 56.1229 -4.0166 40.3189 0.0000 0.0000 0.0000
# 2 -4.0166 39.2937 50.4247 0.0000 0.0000 0.0000
# 3 40.3189 50.4247 266.8147 0.0000 0.0000 0.0000
# 4 0.0000 0.0000 0.0000 14.3812 0.0000 0.0000
# 5 0.0000 0.0000 0.0000 0.0000 15.0293 0.0000
# 6 0.0000 0.0000 0.0000 0.0000 0.0000 9.4520
#
#
#
# Elastic Compliance Matrix: (Units=1/GPa)
#
#
# Indices 1 2 3 4 5 6 
#
# 1 0.021987 0.008596 -0.004947 0.000000 0.000000 0.000000
# 2 0.008596 0.036958 -0.008284 0.000000 0.000000 0.000000
# 3 -0.004947 -0.008284 0.006061 0.000000 0.000000 0.000000
# 4 0.000000 0.000000 0.000000 0.069535 0.000000 0.000000
# 5 0.000000 0.000000 0.000000 0.000000 0.066537 0.000000
# 6 0.000000 0.000000 0.000000 0.000000 0.000000 0.105797
#
#
# Mechanical properties :
#
#
# Convention : Reuss Voigt Hill
#
# Bulk Modulus (GPa) = 17.94140 59.52060 38.73100
# Shear Modulus (GPa) = 14.93769 26.13946 20.53858
#
# Velocity S-wave (km/s) = 2.43393 3.21969 2.85398
# Velocity P-wave (km/s) = 3.87478 6.11773 5.12058
#
# Compressibility (1/GPa) = 0.05573701
#
# Stress axis : x y z
#
# Youngs Moduli (GPa) = 45.48099 27.05758 164.98979
#
# Poissons Ratio (x) = -0.23259 0.81621
# Poissons Ratio (y) = -0.39095 1.36671
# Poissons Ratio (z) = 0.22500 0.22413
#
# Static dielectric constant tensor:
#      x y z
#    x 1.995760 0.000000 0.000000 
#    y 0.000000 2.015840 0.000000 
#    z 0.000000 0.000000 2.144870 
# 
# From -- ./inp_files/35402.got.cif
#   From: 2010.05.17/outbox.cif.g08.bks.cpg/sg72_18_cif.got.tgz:35402.got - 2010.06.03 17:03:01.
