data_PCOD9525734
_publ_section_title
;
Structure prediction by ZEFSAII (Michael W. Deem and Ramdas Pophale) SiO2 
 PCOD9525734
Probable space group: I B A M
;
_chemical_formula_sum "Si O2"
_cell_formula_units_Z 64
_cell_length_a 9.958179
_cell_length_b 26.412025
_cell_length_c 10.456878
_cell_angle_alpha 90.000000
_cell_angle_beta 90.000000
_cell_angle_gamma 90.000000
_cell_volume 2750.322802
_symmetry_space_group_name_H-M "I B A M"
_symmetry_group_IT_number 72
_symmetry_cell_setting 'orthorhombic'
loop_
_space_group_symop_operation_xyz
x,y,z
-x,-y,z
x,-y,1/2-z
-x,y,1/2-z
-x,-y,-z
x,y,-z
-x,y,1/2+z
x,-y,1/2+z
1/2+x,1/2+y,1/2+z
1/2-x,1/2-y,1/2+z
1/2+x,1/2-y,-z
1/2-x,1/2+y,-z
1/2-x,1/2-y,1/2-z
1/2+x,1/2+y,1/2-z
1/2-x,1/2+y,z
1/2+x,1/2-y,z
loop_
_atom_site_type_symbol
_atom_site_label
_atom_site_fract_x
_atom_site_fract_y
_atom_site_fract_z
Si Si1 0.892553 0.568901 0.355741
Si Si2 0.081039 0.053500 0.860979
Si Si3 0.391947 0.297740 0.146082
Si Si4 0.679769 0.184908 0.359339
O O1 0.926879 0.552422 0.500000
O O2 0.739061 0.550616 0.329889
O O3 0.888247 0.630253 0.357625
O O4 0.000000 0.553753 0.250000
O O5 0.000000 0.080665 0.750000
O O6 0.073429 0.078028 0.000000
O O7 0.000000 0.000000 0.871902
O O8 0.500000 0.313945 0.250000
O O9 0.404019 0.236561 0.136229
O O10 0.742256 0.310787 0.274930
O O11 0.393873 0.317042 0.000000
O O12 0.755442 0.186414 0.500000
#
# Coordination Sequence:
#
# PCOD9525734 Si02
#       4
#    16  16  16  16
#     4  10  21  37  59  88 119 151 191 240 293 350
#     4   9  19  38  62  86 114 148 185 229 285 348
#     4  10  19  31  49  72 103 147 194 239 287 338
#     4   9  19  34  50  73 107 145 189 239 287 338
#
# _framework density 23.269995999999999
#
# number of rings (size 3 to 8) (size 9 to 14) (size 15 to 20)
#    0.000    2.500    0.000    1.500    0.000    4.000 
#    0.000    5.000    0.000   13.500    0.000    0.000 
#    0.000    0.000    0.000    0.000    0.000    0.000 
#
# Total GULP energy -178254.688766 kJ/mol
# GULP energy per Si atom -5570.459024 kJ/mol
# Density = 2.321703 g / cm^3
# Si number density = 23.269996 Si / 1000 Ang^3
#
#
#
# Elastic Constant Matrix: (Units=GPa)
#
#
# Indices 1 2 3 4 5 6 
#
# 1 124.9194 30.2391 114.1171 0.0001 0.0000 -0.0002
# 2 30.2391 132.5907 22.5644 0.0000 -0.0001 0.0000
# 3 114.1171 22.5644 285.3005 -0.0029 0.0022 0.0000
# 4 0.0001 0.0000 -0.0029 -54.0569 -0.0005 0.0006
# 5 0.0000 -0.0001 0.0022 -0.0005 46.9292 0.0001
# 6 -0.0002 0.0000 0.0000 0.0006 0.0001 -3.1807
#
#
#
# Elastic Compliance Matrix: (Units=1/GPa)
#
#
# Indices 1 2 3 4 5 6 
#
# 1 0.013187 -0.002139 -0.005105 0.000000 0.000000 -0.000001
# 2 -0.002139 0.007992 0.000223 0.000000 0.000000 0.000000
# 3 -0.005105 0.000223 0.005530 0.000000 0.000000 0.000000
# 4 0.000000 0.000000 0.000000 -0.018499 0.000000 -0.000004
# 5 0.000000 0.000000 0.000000 0.000000 0.021309 0.000000
# 6 -0.000001 0.000000 0.000000 -0.000004 0.000000 -0.314401
#
#
# Mechanical properties :
#
#
# Convention : Reuss Voigt Hill
#
# Bulk Modulus (GPa) = 78.94710 97.40575 88.17643
# Shear Modulus (GPa) = -18.75329 22.99768 2.12219
#
# Velocity S-wave (km/s) = -2.84192 3.14713 0.95602
# Velocity P-wave (km/s) = 4.81991 7.42669 6.26048
#
# Compressibility (1/GPa) = 0.01266671
#
# Stress axis : x y z
#
# Youngs Moduli (GPa) = 75.83352 125.12932 180.84729
#
# Poissons Ratio (x) = 0.26760 0.92330
# Poissons Ratio (y) = 0.16218 -0.04039
# Poissons Ratio (z) = 0.38716 -0.02795
#
# Static dielectric constant tensor:
#      x y z
#    x 2.023760 0.000000 0.000000 
#    y 0.000000 1.894720 0.000000 
#    z 0.000000 0.000000 1.874820 
# 
# From -- ./inp_files/10525.got.cif
#   From: 2010.05.17/outbox.cif.g08.bks.cpg/sg72_6_cif.got.tgz:10525.got - 2010.06.03 17:03:01.
