data_PCOD9525746
_publ_section_title
;
Structure prediction by ZEFSAII (Michael W. Deem and Ramdas Pophale) SiO2 
 PCOD9525746
Probable space group: I B A M
;
_chemical_formula_sum "Si O2"
_cell_formula_units_Z 128
_cell_length_a 17.779121
_cell_length_b 22.918753
_cell_length_c 18.091210
_cell_angle_alpha 90.000000
_cell_angle_beta 90.000000
_cell_angle_gamma 90.000000
_cell_volume 7371.720910
_symmetry_space_group_name_H-M "I B A M"
_symmetry_group_IT_number 72
_symmetry_cell_setting 'orthorhombic'
loop_
_space_group_symop_operation_xyz
x,y,z
-x,-y,z
x,-y,1/2-z
-x,y,1/2-z
-x,-y,-z
x,y,-z
-x,y,1/2+z
x,-y,1/2+z
1/2+x,1/2+y,1/2+z
1/2-x,1/2-y,1/2+z
1/2+x,1/2-y,-z
1/2-x,1/2+y,-z
1/2-x,1/2-y,1/2-z
1/2+x,1/2+y,1/2-z
1/2-x,1/2+y,z
1/2+x,1/2-y,z
loop_
_atom_site_type_symbol
_atom_site_label
_atom_site_fract_x
_atom_site_fract_y
_atom_site_fract_z
Si Si1 0.585105 0.296181 0.246422
Si Si2 0.421089 0.132719 0.085572
Si Si3 0.090136 0.502792 0.913122
Si Si4 0.774783 0.675000 0.083831
Si Si5 0.771065 0.863374 0.257334
Si Si6 0.313208 0.223316 0.148270
Si Si7 0.359071 0.061395 0.280167
Si Si8 0.572807 0.173156 0.838063
O O1 0.500000 0.318610 0.250000
O O2 0.644717 0.348381 0.230396
O O3 0.623273 0.266778 0.318959
O O4 0.577794 0.238480 0.194398
O O5 0.392432 0.069133 0.109496
O O6 0.354036 0.177190 0.097080
O O7 0.492408 0.155925 0.130360
O O8 0.443493 0.127024 0.000000
O O9 0.136811 0.456071 0.866897
O O10 0.000000 0.500000 0.900282
O O11 0.103032 0.494510 0.000000
O O12 0.736482 0.641920 0.153462
O O13 0.747262 0.740568 0.101993
O O14 0.863393 0.670927 0.099186
O O15 0.755603 0.658573 0.000000
O O16 0.725037 0.810706 0.217128
O O17 0.722005 0.922051 0.245484
O O18 0.405372 0.122167 0.278813
O O19 0.390655 0.000000 0.250000
#
# Coordination Sequence:
#
# PCOD9525746 Si02
#       8
#    16  16  16  16  16  16  16  16
#     4  11  19  33  56  77 101 137 171 216 279 324
#     4  11  22  33  49  75 109 148 179 217 264 314
#     4  10  21  35  46  66 105 143 179 218 259 310
#     4  10  19  31  50  73 100 140 176 212 256 310
#     4  10  21  37  53  75 108 135 182 226 270 323
#     4  11  18  33  50  72 108 139 174 215 260 318
#     4  11  22  34  53  76 100 141 184 226 259 312
#     4  11  20  34  51  74 106 141 174 216 262 323
#
# _framework density 17.363652999999999
#
# number of rings (size 3 to 8) (size 9 to 14) (size 15 to 20)
#    0.000    1.375    6.250    2.250    0.000    2.250 
#    2.250    0.000    0.000    0.375    0.000    0.000 
#    0.000    0.000    0.000   17.375    0.000    0.000 
#
# Total GULP energy -356312.489218 kJ/mol
# GULP energy per Si atom -5567.382644 kJ/mol
# Density = 1.732413 g / cm^3
# Si number density = 17.363653 Si / 1000 Ang^3
#
#
#
# Elastic Constant Matrix: (Units=GPa)
#
#
# Indices 1 2 3 4 5 6 
#
# 1 99.7415 29.9022 19.5762 0.0000 0.0000 0.0000
# 2 29.9022 56.1141 9.2177 0.0000 0.0000 0.0000
# 3 19.5762 9.2177 61.9109 0.0000 0.0000 0.0000
# 4 0.0000 0.0000 0.0000 23.7664 0.0000 0.0000
# 5 0.0000 0.0000 0.0000 0.0000 17.3475 0.0000
# 6 0.0000 0.0000 0.0000 0.0000 0.0000 24.1084
#
#
#
# Elastic Compliance Matrix: (Units=1/GPa)
#
#
# Indices 1 2 3 4 5 6 
#
# 1 0.012462 -0.006144 -0.003026 0.000000 0.000000 0.000000
# 2 -0.006144 0.021296 -0.001228 0.000000 0.000000 0.000000
# 3 -0.003026 -0.001228 0.017292 0.000000 0.000000 0.000000
# 4 0.000000 0.000000 0.000000 0.042076 0.000000 0.000000
# 5 0.000000 0.000000 0.000000 0.000000 0.057645 0.000000
# 6 0.000000 0.000000 0.000000 0.000000 0.000000 0.041479
#
#
# Mechanical properties :
#
#
# Convention : Reuss Voigt Hill
#
# Bulk Modulus (GPa) = 33.05234 37.23986 35.14610
# Shear Modulus (GPa) = 22.40845 23.64917 23.02881
#
# Velocity S-wave (km/s) = 3.59630 3.69452 3.64574
# Velocity P-wave (km/s) = 6.02671 6.30023 6.16499
#
# Compressibility (1/GPa) = 0.03025505
#
# Stress axis : x y z
#
# Youngs Moduli (GPa) = 80.24672 46.95643 57.83089
#
# Poissons Ratio (x) = 0.28848 0.17498
# Poissons Ratio (y) = 0.49300 0.07102
# Poissons Ratio (z) = 0.24280 0.05767
#
# Static dielectric constant tensor:
#      x y z
#    x 1.609730 0.000000 0.000000 
#    y 0.000000 1.627820 0.000000 
#    z 0.000000 0.000000 1.674460 
# 
# From -- ./inp_files/39344.got.cif
#   From: 2010.05.17/outbox.cif.g08.bks.cpg/sg72_20_cif.got.tgz:39344.got - 2010.06.03 17:03:01.
