data_PCOD9525096
_publ_section_title
;
Structure prediction by ZEFSAII (Michael W. Deem and Ramdas Pophale) SiO2 
 PCOD9525096
Probable space group: I B A M
;
_chemical_formula_sum "Si O2"
_cell_formula_units_Z 80
_cell_length_a 14.309890
_cell_length_b 15.151526
_cell_length_c 18.353760
_cell_angle_alpha 90.000000
_cell_angle_beta 90.000000
_cell_angle_gamma 90.000000
_cell_volume 3979.401132
_symmetry_space_group_name_H-M "I B A M"
_symmetry_group_IT_number 72
_symmetry_cell_setting 'orthorhombic'
loop_
_space_group_symop_operation_xyz
x,y,z
-x,-y,z
x,-y,1/2-z
-x,y,1/2-z
-x,-y,-z
x,y,-z
-x,y,1/2+z
x,-y,1/2+z
1/2+x,1/2+y,1/2+z
1/2-x,1/2-y,1/2+z
1/2+x,1/2-y,-z
1/2-x,1/2+y,-z
1/2-x,1/2-y,1/2-z
1/2+x,1/2+y,1/2-z
1/2-x,1/2+y,z
1/2+x,1/2-y,z
loop_
_atom_site_type_symbol
_atom_site_label
_atom_site_fract_x
_atom_site_fract_y
_atom_site_fract_z
Si Si1 0.498363 0.239630 0.335683
Si Si2 0.855208 0.368354 0.913662
Si Si3 0.286572 0.761731 0.166372
Si Si4 0.225085 0.468057 0.829239
Si Si5 0.941558 0.926990 0.673146
O O1 0.500000 0.216411 0.250000
O O2 0.544621 0.160002 0.379870
O O3 0.392050 0.269889 0.347339
O O4 0.559482 0.326866 0.353097
O O5 0.781967 0.295982 0.882710
O O6 0.817333 0.462373 0.885362
O O7 0.859498 0.366077 0.000000
O O8 0.250000 0.750000 0.250000
O O9 0.295975 0.866392 0.153973
O O10 0.190108 0.500000 0.750000
O O11 0.337919 0.465360 0.823516
O O12 0.000000 0.917273 0.750000
O O13 0.000000 0.000000 0.629596
#
# Coordination Sequence:
#
# PCOD9525096 Si02
#       5
#    16  16  16  16  16
#     4  11  21  41  70  98 135 184 237 288 347 422
#     4  12  28  45  64 104 150 180 229 297 357 418
#     4  12  22  43  75 102 131 184 238 291 346 421
#     4  12  21  39  69 101 132 182 239 285 343 421
#     4  10  17  31  63 103 127 164 228 307 343 390
#
# _framework density 20.103528000000001
#
# number of rings (size 3 to 8) (size 9 to 14) (size 15 to 20)
#    0.000    0.600    8.000    2.400    0.000    2.400 
#    0.000    3.000    0.000    2.400    0.000    0.000 
#    0.000    0.000    0.000    0.000    0.000    0.000 
#
# Total GULP energy -223089.309657 kJ/mol
# GULP energy per Si atom -5577.232741 kJ/mol
# Density = 2.005777 g / cm^3
# Si number density = 20.103528 Si / 1000 Ang^3
#
#
#
# Elastic Constant Matrix: (Units=GPa)
#
#
# Indices 1 2 3 4 5 6 
#
# 1 87.5607 10.6621 33.6679 0.0000 0.0000 0.0000
# 2 10.6621 141.9799 46.9151 0.0000 0.0000 0.0000
# 3 33.6679 46.9151 115.0677 0.0000 0.0000 0.0000
# 4 0.0000 0.0000 0.0000 21.4645 0.0000 0.0000
# 5 0.0000 0.0000 0.0000 0.0000 15.3884 0.0000
# 6 0.0000 0.0000 0.0000 0.0000 0.0000 38.8947
#
#
#
# Elastic Compliance Matrix: (Units=1/GPa)
#
#
# Indices 1 2 3 4 5 6 
#
# 1 0.012881 0.000321 -0.003900 0.000000 0.000000 0.000000
# 2 0.000321 0.008148 -0.003416 0.000000 0.000000 0.000000
# 3 -0.003900 -0.003416 0.011224 0.000000 0.000000 0.000000
# 4 0.000000 0.000000 0.000000 0.046589 0.000000 0.000000
# 5 0.000000 0.000000 0.000000 0.000000 0.064984 0.000000
# 6 0.000000 0.000000 0.000000 0.000000 0.000000 0.025710
#
#
# Mechanical properties :
#
#
# Convention : Reuss Voigt Hill
#
# Bulk Modulus (GPa) = 54.75218 58.56652 56.65935
# Shear Modulus (GPa) = 26.36940 32.04039 29.20489
#
# Velocity S-wave (km/s) = 3.62564 3.99654 3.81560
# Velocity P-wave (km/s) = 6.69487 7.10578 6.90338
#
# Compressibility (1/GPa) = 0.01826411
#
# Stress axis : x y z
#
# Youngs Moduli (GPa) = 77.63328 122.73091 89.09145
#
# Poissons Ratio (x) = -0.03944 0.34745
# Poissons Ratio (y) = -0.02495 0.30434
# Poissons Ratio (z) = 0.30276 0.41926
#
# Static dielectric constant tensor:
#      x y z
#    x 1.821160 0.000000 0.000000 
#    y 0.000000 1.789390 0.000000 
#    z 0.000000 0.000000 1.765940 
# 
# From -- ./inp_files/37852.got.cif
#   From: 2010.05.17/outbox.cif.g08.bks.cpg/sg72_19_cif.got.tgz:37852.got - 2010.06.03 17:03:01.
