data_PCOD9525476
_publ_section_title
;
Structure prediction by ZEFSAII (Michael W. Deem and Ramdas Pophale) SiO2 
 PCOD9525476
Probable space group: I B A M
;
_chemical_formula_sum "Si O2"
_cell_formula_units_Z 48
_cell_length_a 31.973037
_cell_length_b 5.072129
_cell_length_c 14.992028
_cell_angle_alpha 90.000000
_cell_angle_beta 90.000000
_cell_angle_gamma 90.000000
_cell_volume 2431.277693
_symmetry_space_group_name_H-M "I B A M"
_symmetry_group_IT_number 72
_symmetry_cell_setting 'orthorhombic'
loop_
_space_group_symop_operation_xyz
x,y,z
-x,-y,z
x,-y,1/2-z
-x,y,1/2-z
-x,-y,-z
x,y,-z
-x,y,1/2+z
x,-y,1/2+z
1/2+x,1/2+y,1/2+z
1/2-x,1/2-y,1/2+z
1/2+x,1/2-y,-z
1/2-x,1/2+y,-z
1/2-x,1/2-y,1/2-z
1/2+x,1/2+y,1/2-z
1/2-x,1/2+y,z
1/2+x,1/2-y,z
loop_
_atom_site_type_symbol
_atom_site_label
_atom_site_fract_x
_atom_site_fract_y
_atom_site_fract_z
Si Si1 0.221286 0.093566 0.000000
Si Si2 0.907041 0.400343 0.844806
Si Si3 0.969971 0.747091 0.500000
Si Si4 0.859284 0.072060 0.599959
O O1 0.190045 0.120317 0.914886
O O2 0.243266 0.812415 0.000000
O O3 0.924071 0.500000 0.750000
O O4 0.941827 0.285501 0.911222
O O5 0.883478 0.656567 0.883680
O O6 0.873307 0.163763 0.835994
O O7 0.000000 0.500000 0.500000
O O8 0.000000 0.000000 0.500000
O O9 0.871417 0.975324 0.500000
#
# Coordination Sequence:
#
# PCOD9525476 Si02
#       4
#     8  16   8  16
#     4  10  18  32  62  94 122 168 212 252 320 378
#     4  12  23  42  66  93 123 166 214 258 309 375
#     4  12  24  42  66  92 128 160 196 258 318 376
#     4  10  20  38  64  90 123 165 218 250 308 370
#
# _framework density 19.742705999999998
#
# number of rings (size 3 to 8) (size 9 to 14) (size 15 to 20)
#    1.000    0.000    3.333    5.000    0.000    0.667 
#    0.000    1.667    0.000   20.000    0.000    0.000 
#    0.000    0.000    0.000    0.000    0.000    0.000 
#
# Total GULP energy -133768.894678 kJ/mol
# GULP energy per Si atom -5573.703945 kJ/mol
# Density = 1.969777 g / cm^3
# Si number density = 19.742706 Si / 1000 Ang^3
#
#
#
# Elastic Constant Matrix: (Units=GPa)
#
#
# Indices 1 2 3 4 5 6 
#
# 1 79.2147 10.7766 28.6911 0.0000 0.0000 0.0000
# 2 10.7766 87.4856 4.5678 0.0000 0.0000 0.0000
# 3 28.6911 4.5678 90.9083 0.0000 0.0000 0.0000
# 4 0.0000 0.0000 0.0000 33.6636 0.0000 0.0000
# 5 0.0000 0.0000 0.0000 0.0000 10.7351 0.0000
# 6 0.0000 0.0000 0.0000 0.0000 0.0000 45.0092
#
#
#
# Elastic Compliance Matrix: (Units=1/GPa)
#
#
# Indices 1 2 3 4 5 6 
#
# 1 0.014459 -0.001547 -0.004486 0.000000 0.000000 0.000000
# 2 -0.001547 0.011626 -0.000096 0.000000 0.000000 0.000000
# 3 -0.004486 -0.000096 0.012421 0.000000 0.000000 0.000000
# 4 0.000000 0.000000 0.000000 0.029706 0.000000 0.000000
# 5 0.000000 0.000000 0.000000 0.000000 0.093152 0.000000
# 6 0.000000 0.000000 0.000000 0.000000 0.000000 0.022218
#
#
# Mechanical properties :
#
#
# Convention : Reuss Voigt Hill
#
# Bulk Modulus (GPa) = 38.09708 38.40884 38.25296
# Shear Modulus (GPa) = 24.43937 32.11980 28.27959
#
# Velocity S-wave (km/s) = 3.52219 4.03789 3.78882
# Velocity P-wave (km/s) = 5.98997 6.42155 6.20951
#
# Compressibility (1/GPa) = 0.02624873
#
# Stress axis : x y z
#
# Youngs Moduli (GPa) = 69.16088 86.01399 80.51139
#
# Poissons Ratio (x) = 0.13305 0.36114
# Poissons Ratio (y) = 0.10698 0.00773
# Poissons Ratio (z) = 0.31023 0.00825
#
# Static dielectric constant tensor:
#      x y z
#    x 1.711230 0.000000 0.000000 
#    y 0.000000 1.664200 0.000000 
#    z 0.000000 0.000000 1.774550 
# 
# From -- ./inp_files/17507.got.cif
#   From: 2010.05.17/outbox.cif.g08.bks.cpg/sg72_9_cif.got.tgz:17507.got - 2010.06.03 17:03:01.
