data_PCOD9525907
_publ_section_title
;
Structure prediction by ZEFSAII (Michael W. Deem and Ramdas Pophale) SiO2 
 PCOD9525907
Probable space group: I B A M
;
_chemical_formula_sum "Si O2"
_cell_formula_units_Z 84
_cell_length_a 21.535849
_cell_length_b 9.855508
_cell_length_c 18.045391
_cell_angle_alpha 90.000000
_cell_angle_beta 90.000000
_cell_angle_gamma 90.000000
_cell_volume 3830.075269
_symmetry_space_group_name_H-M "I B A M"
_symmetry_group_IT_number 72
_symmetry_cell_setting 'orthorhombic'
loop_
_space_group_symop_operation_xyz
x,y,z
-x,-y,z
x,-y,1/2-z
-x,y,1/2-z
-x,-y,-z
x,y,-z
-x,y,1/2+z
x,-y,1/2+z
1/2+x,1/2+y,1/2+z
1/2-x,1/2-y,1/2+z
1/2+x,1/2-y,-z
1/2-x,1/2+y,-z
1/2-x,1/2-y,1/2-z
1/2+x,1/2+y,1/2-z
1/2-x,1/2+y,z
1/2+x,1/2-y,z
loop_
_atom_site_type_symbol
_atom_site_label
_atom_site_fract_x
_atom_site_fract_y
_atom_site_fract_z
Si Si1 0.674700 0.349441 0.090462
Si Si2 0.258704 0.602039 0.585496
Si Si3 0.933824 0.326547 0.347909
Si Si4 0.067125 0.755591 0.179627
Si Si5 0.500000 0.500000 0.750000
Si Si6 0.865098 0.579695 0.415736
O O1 0.688941 0.501791 0.117574
O O2 0.609455 0.290018 0.117257
O O3 0.726888 0.238684 0.116274
O O4 0.675919 0.348715 0.000000
O O5 0.275933 0.634562 0.500000
O O6 0.201199 0.494293 0.583990
O O7 0.926069 0.317928 0.259165
O O8 0.909602 0.467126 0.379636
O O9 0.006106 0.301515 0.361996
O O10 0.126488 0.716498 0.131247
O O11 0.044947 0.905712 0.201093
O O12 0.882309 0.606255 0.500000
#
# Coordination Sequence:
#
# PCOD9525907 Si02
#       6
#    16  16  16  16   4  16
#     4   9  16  31  52  78 110 145 181 220 266 323
#     4   8  16  30  48  74 109 144 175 214 270 321
#     4   9  18  32  54  79 102 135 180 219 267 325
#     4  10  20  36  54  75 105 144 182 219 275 328
#     4   8  20  40  52  64 104 152 180 212 264 326
#     4  10  19  32  54  84 112 135 173 232 278 319
#
# _framework density 21.931683
#
# number of rings (size 3 to 8) (size 9 to 14) (size 15 to 20)
#    0.000    3.048    0.000    2.857    0.000    5.333 
#    6.857    1.429    0.000    1.143    0.000    0.000 
#    0.000    0.000    0.000    0.000    0.000    0.000 
#
# Total GULP energy -234197.548063 kJ/mol
# GULP energy per Si atom -5576.132097 kJ/mol
# Density = 2.188177 g / cm^3
# Si number density = 21.931683 Si / 1000 Ang^3
#
#
#
# Elastic Constant Matrix: (Units=GPa)
#
#
# Indices 1 2 3 4 5 6 
#
# 1 46.0164 15.3615 6.0532 0.0000 0.0000 0.0000
# 2 15.3615 106.9866 20.6168 0.0000 0.0000 0.0000
# 3 6.0532 20.6168 37.9986 0.0000 0.0000 0.0000
# 4 0.0000 0.0000 0.0000 15.0702 0.0000 0.0000
# 5 0.0000 0.0000 0.0000 0.0000 55.8179 0.0000
# 6 0.0000 0.0000 0.0000 0.0000 0.0000 42.5286
#
#
#
# Elastic Compliance Matrix: (Units=1/GPa)
#
#
# Indices 1 2 3 4 5 6 
#
# 1 0.022973 -0.002896 -0.002088 0.000000 0.000000 0.000000
# 2 -0.002896 0.010803 -0.005400 0.000000 0.000000 0.000000
# 3 -0.002088 -0.005400 0.029579 0.000000 0.000000 0.000000
# 4 0.000000 0.000000 0.000000 0.066356 0.000000 0.000000
# 5 0.000000 0.000000 0.000000 0.000000 0.017915 0.000000
# 6 0.000000 0.000000 0.000000 0.000000 0.000000 0.023514
#
#
# Mechanical properties :
#
#
# Convention : Reuss Voigt Hill
#
# Bulk Modulus (GPa) = 23.48163 30.56275 27.02219
# Shear Modulus (GPa) = 24.25939 32.61466 28.43703
#
# Velocity S-wave (km/s) = 3.32947 3.86048 3.60477
# Velocity P-wave (km/s) = 5.05079 5.81694 5.44735
#
# Compressibility (1/GPa) = 0.04258647
#
# Stress axis : x y z
#
# Youngs Moduli (GPa) = 43.52957 92.56304 33.80733
#
# Poissons Ratio (x) = 0.26807 0.07060
# Poissons Ratio (y) = 0.12607 0.18257
# Poissons Ratio (z) = 0.09090 0.49986
#
# Static dielectric constant tensor:
#      x y z
#    x 1.805330 0.000000 0.000000 
#    y 0.000000 1.856800 0.000000 
#    z 0.000000 0.000000 1.758620 
# 
# From -- ./inp_files/39645.got.cif
#   From: 2010.05.17/outbox.cif.g08.bks.cpg/sg72_20_cif.got.tgz:39645.got - 2010.06.03 17:03:01.
