data_PCOD9525411
_publ_section_title
;
Structure prediction by ZEFSAII (Michael W. Deem and Ramdas Pophale) SiO2 
 PCOD9525411
Probable space group: I B A M
;
_chemical_formula_sum "Si O2"
_cell_formula_units_Z 80
_cell_length_a 23.855349
_cell_length_b 22.619626
_cell_length_c 10.125317
_cell_angle_alpha 90.000000
_cell_angle_beta 90.000000
_cell_angle_gamma 90.000000
_cell_volume 5463.611662
_symmetry_space_group_name_H-M "I B A M"
_symmetry_group_IT_number 72
_symmetry_cell_setting 'orthorhombic'
loop_
_space_group_symop_operation_xyz
x,y,z
-x,-y,z
x,-y,1/2-z
-x,y,1/2-z
-x,-y,-z
x,y,-z
-x,y,1/2+z
x,-y,1/2+z
1/2+x,1/2+y,1/2+z
1/2-x,1/2-y,1/2+z
1/2+x,1/2-y,-z
1/2-x,1/2+y,-z
1/2-x,1/2-y,1/2-z
1/2+x,1/2+y,1/2-z
1/2-x,1/2+y,z
1/2+x,1/2-y,z
loop_
_atom_site_type_symbol
_atom_site_label
_atom_site_fract_x
_atom_site_fract_y
_atom_site_fract_z
Si Si1 0.000000 0.779189 0.250000
Si Si2 0.604628 0.572157 0.000000
Si Si3 0.229104 0.303230 0.843252
Si Si4 0.331541 0.628948 0.253041
Si Si5 0.371149 0.433532 0.500000
Si Si6 0.990089 0.865318 0.000000
Si Si7 0.114429 0.746500 0.342466
O O1 0.001259 0.823040 0.374584
O O2 0.943667 0.740906 0.235250
O O3 0.632498 0.602568 0.127502
O O4 0.615882 0.502627 0.000000
O O5 0.538769 0.586001 0.000000
O O6 0.250000 0.250000 0.750000
O O7 0.268423 0.357513 0.801225
O O8 0.162088 0.303258 0.822615
O O9 0.238262 0.290969 0.000000
O O10 0.337024 0.585781 0.129194
O O11 0.358718 0.691324 0.206045
O O12 0.429634 0.396636 0.500000
O O13 0.103989 0.750541 0.500000
#
# Coordination Sequence:
#
# PCOD9525411 Si02
#       7
#     8   8  16  16   8   8  16
#     4  12  18  30  49  66  92 128 153 196 230 274
#     4  12  23  32  50  67  85 125 181 208 227 268
#     4   9  19  31  50  70  87 114 151 194 241 290
#     4  11  19  35  48  66  91 118 160 205 240 280
#     4  12  23  36  46  63  93 133 163 208 249 256
#     4  12  21  34  44  60  96 128 168 202 235 262
#     4  10  18  32  49  68  92 122 152 189 242 285
#
# _framework density 14.642329
#
# number of rings (size 3 to 8) (size 9 to 14) (size 15 to 20)
#    0.000    1.200    7.000    0.900    1.400    0.000 
#    0.000    3.000    0.000    0.000    0.000    0.000 
#    0.000    0.000    0.000    5.400    0.000    0.000 
#
# Total GULP energy -222961.350282 kJ/mol
# GULP energy per Si atom -5574.033757 kJ/mol
# Density = 1.460900 g / cm^3
# Si number density = 14.642329 Si / 1000 Ang^3
#
#
#
# Elastic Constant Matrix: (Units=GPa)
#
#
# Indices 1 2 3 4 5 6 
#
# 1 116.5756 39.8541 30.1821 0.0000 0.0000 0.0000
# 2 39.8541 32.9283 21.9706 0.0000 0.0000 0.0000
# 3 30.1821 21.9706 94.0237 0.0000 0.0000 0.0000
# 4 0.0000 0.0000 0.0000 -182.7127 0.0000 0.0000
# 5 0.0000 0.0000 0.0000 0.0000 25.0251 0.0000
# 6 0.0000 0.0000 0.0000 0.0000 0.0000 18.9060
#
#
#
# Elastic Compliance Matrix: (Units=1/GPa)
#
#
# Indices 1 2 3 4 5 6 
#
# 1 0.014668 -0.017310 -0.000664 0.000000 0.000000 0.000000
# 2 -0.017310 0.056407 -0.007624 0.000000 0.000000 0.000000
# 3 -0.000664 -0.007624 0.012630 0.000000 0.000000 0.000000
# 4 0.000000 0.000000 0.000000 -0.005473 0.000000 0.000000
# 5 0.000000 0.000000 0.000000 0.000000 0.039960 0.000000
# 6 0.000000 0.000000 0.000000 0.000000 0.000000 0.052893
#
#
# Mechanical properties :
#
#
# Convention : Reuss Voigt Hill
#
# Bulk Modulus (GPa) = 30.76036 47.50458 39.13247
# Shear Modulus (GPa) = 21.44853 -17.65492 1.89681
#
# Velocity S-wave (km/s) = 3.83146 -3.47615 1.13940
# Velocity P-wave (km/s) = 6.37392 4.04997 5.33990
#
# Compressibility (1/GPa) = 0.03250938
#
# Stress axis : x y z
#
# Youngs Moduli (GPa) = 68.17677 17.72839 79.17567
#
# Poissons Ratio (x) = 0.30688 0.05254
# Poissons Ratio (y) = 1.18014 0.60364
# Poissons Ratio (z) = 0.04524 0.13516
#
# Static dielectric constant tensor:
#      x y z
#    x 1.526280 0.000000 0.000000 
#    y 0.000000 1.451980 0.000000 
#    z 0.000000 0.000000 1.519730 
# 
# From -- ./inp_files/5913.got.cif
#   From: 2010.05.17/outbox.cif.g08.bks.cpg/sg72_3_cif.got.tgz:5913.got - 2010.06.03 17:03:01.
