data_PCOD9525047
_publ_section_title
;
Structure prediction by ZEFSAII (Michael W. Deem and Ramdas Pophale) SiO2 
 PCOD9525047
Probable space group: I B A M
;
_chemical_formula_sum "Si O2"
_cell_formula_units_Z 112
_cell_length_a 19.093304
_cell_length_b 20.270847
_cell_length_c 13.926257
_cell_angle_alpha 90.000000
_cell_angle_beta 90.000000
_cell_angle_gamma 90.000000
_cell_volume 5389.982915
_symmetry_space_group_name_H-M "I B A M"
_symmetry_group_IT_number 72
_symmetry_cell_setting 'orthorhombic'
loop_
_space_group_symop_operation_xyz
x,y,z
-x,-y,z
x,-y,1/2-z
-x,y,1/2-z
-x,-y,-z
x,y,-z
-x,y,1/2+z
x,-y,1/2+z
1/2+x,1/2+y,1/2+z
1/2-x,1/2-y,1/2+z
1/2+x,1/2-y,-z
1/2-x,1/2+y,-z
1/2-x,1/2-y,1/2-z
1/2+x,1/2+y,1/2-z
1/2-x,1/2+y,z
1/2+x,1/2-y,z
loop_
_atom_site_type_symbol
_atom_site_label
_atom_site_fract_x
_atom_site_fract_y
_atom_site_fract_z
Si Si1 0.734980 0.678408 0.382964
Si Si2 0.139167 0.706131 0.616728
Si Si3 0.764541 0.890855 0.382241
Si Si4 0.068297 0.536256 0.851581
Si Si5 0.361042 0.276296 0.883441
Si Si6 0.731087 0.034277 0.610164
Si Si7 0.019013 0.682309 0.116902
O O1 0.734891 0.676338 0.500000
O O2 0.668371 0.722245 0.353218
O O3 0.802489 0.722048 0.356733
O O4 0.743936 0.604030 0.347332
O O5 0.138866 0.706388 0.500000
O O6 0.195348 0.650727 0.645389
O O7 0.061106 0.689838 0.647358
O O8 0.763737 0.892196 0.500000
O O9 0.831579 0.847287 0.352783
O O10 0.758755 0.965664 0.348175
O O11 0.074486 0.500000 0.750000
O O12 0.146343 0.530847 0.893215
O O13 0.000000 0.500000 0.897148
O O14 0.050434 0.613388 0.847400
O O15 0.434822 0.245518 0.854374
O O16 0.361756 0.278513 0.000000
O O17 0.755976 0.035603 0.500000
O O18 0.021267 0.677998 0.000000
#
# Coordination Sequence:
#
# PCOD9525047 Si02
#       7
#    16  16  16  16  16  16  16
#     4   8  13  23  39  63  91 115 147 195 239 270
#     4   8  14  23  38  64  93 115 148 198 235 265
#     4   8  14  23  38  63  91 114 143 189 235 273
#     4  11  23  33  41  63  98 132 148 183 242 287
#     4   8  13  23  39  62  89 115 148 188 229 270
#     4  10  17  28  48  69  89 121 160 193 231 287
#     4  10  17  28  48  69  88 120 163 194 220 277
#
# _framework density 20.779287
#
# number of rings (size 3 to 8) (size 9 to 14) (size 15 to 20)
#    0.000    3.000    1.429    3.000    0.000    2.286 
#    0.000    0.000    0.000    1.714    3.714    6.000 
#    0.000    0.000    0.000    1.286    0.000    2.571 
#
# Total GULP energy -312738.154898 kJ/mol
# GULP energy per Si atom -5584.609909 kJ/mol
# Density = 2.073199 g / cm^3
# Si number density = 20.779287 Si / 1000 Ang^3
#
#
#
# Elastic Constant Matrix: (Units=GPa)
#
#
# Indices 1 2 3 4 5 6 
#
# 1 54.3292 41.2586 10.0004 0.0000 0.0000 0.0000
# 2 41.2586 177.1224 28.5656 0.0000 0.0000 0.0000
# 3 10.0004 28.5656 77.7241 0.0000 0.0000 0.0000
# 4 0.0000 0.0000 0.0000 25.4760 0.0000 0.0000
# 5 0.0000 0.0000 0.0000 0.0000 -7.9916 0.0000
# 6 0.0000 0.0000 0.0000 0.0000 0.0000 32.9743
#
#
#
# Elastic Compliance Matrix: (Units=1/GPa)
#
#
# Indices 1 2 3 4 5 6 
#
# 1 0.022439 -0.005061 -0.001027 0.000000 0.000000 0.000000
# 2 -0.005061 0.007143 -0.001974 0.000000 0.000000 0.000000
# 3 -0.001027 -0.001974 0.013724 0.000000 0.000000 0.000000
# 4 0.000000 0.000000 0.000000 0.039253 0.000000 0.000000
# 5 0.000000 0.000000 0.000000 0.000000 -0.125131 0.000000
# 6 0.000000 0.000000 0.000000 0.000000 0.000000 0.030327
#
#
# Mechanical properties :
#
#
# Convention : Reuss Voigt Hill
#
# Bulk Modulus (GPa) = 36.79022 52.09169 44.44095
# Shear Modulus (GPa) = 386.42148 25.38179 205.90164
#
# Velocity S-wave (km/s) = 13.65168 3.49878 9.96519
# Velocity P-wave (km/s) = 16.31671 6.43781 12.40323
#
# Compressibility (1/GPa) = 0.02718114
#
# Stress axis : x y z
#
# Youngs Moduli (GPa) = 44.56536 139.99427 72.86669
#
# Poissons Ratio (x) = 0.70855 0.07483
# Poissons Ratio (y) = 0.22556 0.14384
# Poissons Ratio (z) = 0.04577 0.27636
#
# Static dielectric constant tensor:
#      x y z
#    x 1.712620 0.000000 0.000000 
#    y 0.000000 1.730770 0.000000 
#    z 0.000000 0.000000 1.878130 
# 
# From -- ./inp_files/32777.got.cif
#   From: 2010.05.17/outbox.cif.g08.bks.cpg/sg72_17_cif.got.tgz:32777.got - 2010.06.03 17:03:01.
