data_PCOD9525749
_publ_section_title
;
Structure prediction by ZEFSAII (Michael W. Deem and Ramdas Pophale) SiO2 
 PCOD9525749
Probable space group: I B A M
;
_chemical_formula_sum "Si O2"
_cell_formula_units_Z 96
_cell_length_a 31.213371
_cell_length_b 21.408727
_cell_length_c 9.067023
_cell_angle_alpha 90.000000
_cell_angle_beta 90.000000
_cell_angle_gamma 90.000000
_cell_volume 6058.934198
_symmetry_space_group_name_H-M "I B A M"
_symmetry_group_IT_number 72
_symmetry_cell_setting 'orthorhombic'
loop_
_space_group_symop_operation_xyz
x,y,z
-x,-y,z
x,-y,1/2-z
-x,y,1/2-z
-x,-y,-z
x,y,-z
-x,y,1/2+z
x,-y,1/2+z
1/2+x,1/2+y,1/2+z
1/2-x,1/2-y,1/2+z
1/2+x,1/2-y,-z
1/2-x,1/2+y,-z
1/2-x,1/2-y,1/2-z
1/2+x,1/2+y,1/2-z
1/2-x,1/2+y,z
1/2+x,1/2-y,z
loop_
_atom_site_type_symbol
_atom_site_label
_atom_site_fract_x
_atom_site_fract_y
_atom_site_fract_z
Si Si1 0.217410 0.700239 0.822265
Si Si2 0.342312 0.606574 0.829197
Si Si3 0.252065 0.936637 0.324349
Si Si4 0.437081 0.437765 0.329990
Si Si5 0.543690 0.703687 0.677900
Si Si6 0.131121 0.768202 0.174924
O O1 0.250000 0.750000 0.750000
O O2 0.227643 0.629330 0.775665
O O3 0.168447 0.718961 0.789040
O O4 0.223133 0.703893 0.000000
O O5 0.298763 0.571092 0.794855
O O6 0.385325 0.566113 0.821459
O O7 0.349004 0.665256 0.723263
O O8 0.339234 0.629397 0.000000
O O9 0.257871 0.941717 0.500000
O O10 0.268004 0.000000 0.250000
O O11 0.451657 0.500000 0.250000
O O12 0.449826 0.441842 0.500000
O O13 0.451832 0.369663 0.274969
O O14 0.500000 0.727939 0.750000
O O15 0.542674 0.705761 0.500000
O O16 0.586434 0.736915 0.738081
O O17 0.122981 0.767248 0.000000
#
# Coordination Sequence:
#
# PCOD9525749 Si02
#       6
#    16  16  16  16  16  16
#     4  10  20  33  51  74 101 133 171 210 248 295
#     4   9  17  30  45  63  92 127 163 206 248 284
#     4  10  20  32  46  68 100 134 169 210 250 292
#     4   9  18  29  42  61  85 118 156 195 241 286
#     4  10  21  36  51  68  91 119 153 200 251 296
#     4  10  19  31  50  74  95 123 163 203 246 295
#
# _framework density 15.844371000000001
#
# number of rings (size 3 to 8) (size 9 to 14) (size 15 to 20)
#    0.000    2.333    1.667    2.500    0.000    5.667 
#    0.000    1.667    0.000    0.000    0.000    0.000 
#    0.000    0.667    0.000    7.667    0.000    2.333 
#
# Total GULP energy -267618.005146 kJ/mol
# GULP energy per Si atom -5575.375107 kJ/mol
# Density = 1.580831 g / cm^3
# Si number density = 15.844371 Si / 1000 Ang^3
#
#
#
# Elastic Constant Matrix: (Units=GPa)
#
#
# Indices 1 2 3 4 5 6 
#
# 1 104.9082 48.5381 44.0662 0.0000 0.0000 0.0000
# 2 48.5381 86.8861 32.8357 0.0000 0.0000 0.0000
# 3 44.0662 32.8357 33.9793 0.0000 0.0000 0.0000
# 4 0.0000 0.0000 0.0000 20.9152 0.0000 0.0000
# 5 0.0000 0.0000 0.0000 0.0000 12.6380 0.0000
# 6 0.0000 0.0000 0.0000 0.0000 0.0000 0.2792
#
#
#
# Elastic Compliance Matrix: (Units=1/GPa)
#
#
# Indices 1 2 3 4 5 6 
#
# 1 0.021223 -0.002291 -0.025309 0.000000 0.000000 0.000000
# 2 -0.002291 0.018378 -0.014788 0.000000 0.000000 0.000000
# 3 -0.025309 -0.014788 0.076542 0.000000 0.000000 0.000000
# 4 0.000000 0.000000 0.000000 0.047812 0.000000 0.000000
# 5 0.000000 0.000000 0.000000 0.000000 0.079126 0.000000
# 6 0.000000 0.000000 0.000000 0.000000 0.000000 3.581256
#
#
# Mechanical properties :
#
#
# Convention : Reuss Voigt Hill
#
# Bulk Modulus (GPa) = 31.88107 52.96148 42.42127
# Shear Modulus (GPa) = 1.27565 13.45539 7.36552
#
# Velocity S-wave (km/s) = 0.89825 2.91730 2.15842
# Velocity P-wave (km/s) = 4.60878 6.69673 5.74835
#
# Compressibility (1/GPa) = 0.03136658
#
# Stress axis : x y z
#
# Youngs Moduli (GPa) = 47.11783 54.41305 13.06467
#
# Poissons Ratio (x) = 0.12468 0.33066
# Poissons Ratio (y) = 0.10797 0.19320
# Poissons Ratio (z) = 1.19252 0.80465
#
# Static dielectric constant tensor:
#      x y z
#    x 1.553070 0.000000 0.000000 
#    y 0.000000 1.520830 0.000000 
#    z 0.000000 0.000000 1.551020 
# 
# From -- ./inp_files/8284.got.cif
#   From: 2010.05.17/outbox.cif.g08.bks.cpg/sg72_5_cif.got.tgz:8284.got - 2010.06.03 17:03:01.
