data_PCOD9525862
_publ_section_title
;
Structure prediction by ZEFSAII (Michael W. Deem and Ramdas Pophale) SiO2 
 PCOD9525862
Probable space group: I B A M
;
_chemical_formula_sum "Si O2"
_cell_formula_units_Z 80
_cell_length_a 20.647331
_cell_length_b 12.403061
_cell_length_c 15.376995
_cell_angle_alpha 90.000000
_cell_angle_beta 90.000000
_cell_angle_gamma 90.000000
_cell_volume 3937.896278
_symmetry_space_group_name_H-M "I B A M"
_symmetry_group_IT_number 72
_symmetry_cell_setting 'orthorhombic'
loop_
_space_group_symop_operation_xyz
x,y,z
-x,-y,z
x,-y,1/2-z
-x,y,1/2-z
-x,-y,-z
x,y,-z
-x,y,1/2+z
x,-y,1/2+z
1/2+x,1/2+y,1/2+z
1/2-x,1/2-y,1/2+z
1/2+x,1/2-y,-z
1/2-x,1/2+y,-z
1/2-x,1/2-y,1/2-z
1/2+x,1/2+y,1/2-z
1/2-x,1/2+y,z
1/2+x,1/2-y,z
loop_
_atom_site_type_symbol
_atom_site_label
_atom_site_fract_x
_atom_site_fract_y
_atom_site_fract_z
Si Si1 0.680972 0.985232 0.646784
Si Si2 0.852446 0.748619 0.896052
Si Si3 0.327054 0.562416 0.341528
Si Si4 0.057681 0.931098 0.598790
Si Si5 0.796214 0.281578 0.898777
O O1 0.641706 0.878532 0.621948
O O2 0.755244 0.958319 0.622176
O O3 0.678242 0.000000 0.750000
O O4 0.669669 0.102812 0.607714
O O5 0.910897 0.822797 0.861101
O O6 0.779658 0.786731 0.868446
O O7 0.852880 0.764863 0.000000
O O8 0.332097 0.500000 0.250000
O O9 0.381558 0.511669 0.401232
O O10 0.330981 0.691548 0.340425
O O11 0.963704 0.095002 0.500000
O O12 0.000000 0.000000 0.641425
O O13 0.796299 0.247562 0.000000
#
# Coordination Sequence:
#
# PCOD9525862 Si02
#       5
#    16  16  16  16  16
#     4  10  20  30  51  79 111 144 178 225 288 339
#     4   9  18  31  50  75 107 143 182 227 277 330
#     4  10  21  32  52  78 112 140 180 229 280 334
#     4  10  20  35  54  75 104 143 186 229 272 327
#     4  10  19  32  52  78 110 146 183 227 282 344
#
# _framework density 20.315415999999999
#
# number of rings (size 3 to 8) (size 9 to 14) (size 15 to 20)
#    0.000    2.200    2.000    1.200    2.800    4.400 
#    0.000    0.000    0.000    1.200    0.000    7.000 
#    0.000    0.000    0.000    0.000    0.000    0.000 
#
# Total GULP energy -222987.335951 kJ/mol
# GULP energy per Si atom -5574.683399 kJ/mol
# Density = 2.026918 g / cm^3
# Si number density = 20.315416 Si / 1000 Ang^3
#
#
#
# Elastic Constant Matrix: (Units=GPa)
#
#
# Indices 1 2 3 4 5 6 
#
# 1 43.6501 47.5375 15.2347 0.0000 0.0000 0.0000
# 2 47.5375 196.4571 18.4640 0.0000 0.0000 0.0000
# 3 15.2347 18.4640 55.8983 0.0000 0.0000 0.0000
# 4 0.0000 0.0000 0.0000 26.6043 0.0000 0.0000
# 5 0.0000 0.0000 0.0000 0.0000 7.4626 0.0000
# 6 0.0000 0.0000 0.0000 0.0000 0.0000 26.1636
#
#
#
# Elastic Compliance Matrix: (Units=1/GPa)
#
#
# Indices 1 2 3 4 5 6 
#
# 1 0.033326 -0.007441 -0.006625 0.000000 0.000000 0.000000
# 2 -0.007441 0.006915 -0.000256 0.000000 0.000000 0.000000
# 3 -0.006625 -0.000256 0.019780 0.000000 0.000000 0.000000
# 4 0.000000 0.000000 0.000000 0.037588 0.000000 0.000000
# 5 0.000000 0.000000 0.000000 0.000000 0.134001 0.000000
# 6 0.000000 0.000000 0.000000 0.000000 0.000000 0.038221
#
#
# Mechanical properties :
#
#
# Convention : Reuss Voigt Hill
#
# Bulk Modulus (GPa) = 31.87137 50.94201 41.40669
# Shear Modulus (GPa) = 16.18475 26.36406 21.27441
#
# Velocity S-wave (km/s) = 2.82560 3.60632 3.23957
# Velocity P-wave (km/s) = 5.13495 6.51695 5.86679
#
# Compressibility (1/GPa) = 0.03137613
#
# Stress axis : x y z
#
# Youngs Moduli (GPa) = 30.00698 144.61677 50.55685
#
# Poissons Ratio (x) = 1.07614 0.33492
# Poissons Ratio (y) = 0.22329 0.01294
# Poissons Ratio (z) = 0.19879 0.03702
#
# Static dielectric constant tensor:
#      x y z
#    x 1.714920 0.000000 0.000000 
#    y 0.000000 1.803260 0.000000 
#    z 0.000000 0.000000 1.788410 
# 
# From -- ./inp_files/24925.got.cif
#   From: 2010.05.17/outbox.cif.g08.bks.cpg/sg72_13_cif.got.tgz:24925.got - 2010.06.03 17:03:01.
