data_PCOD9525995
_publ_section_title
;
Structure prediction by ZEFSAII (Michael W. Deem and Ramdas Pophale) SiO2 
 PCOD9525995
Probable space group: I B A M
;
_chemical_formula_sum "Si O2"
_cell_formula_units_Z 96
_cell_length_a 9.234246
_cell_length_b 21.077258
_cell_length_c 21.557831
_cell_angle_alpha 90.000000
_cell_angle_beta 90.000000
_cell_angle_gamma 90.000000
_cell_volume 4195.856383
_symmetry_space_group_name_H-M "I B A M"
_symmetry_group_IT_number 72
_symmetry_cell_setting 'orthorhombic'
loop_
_space_group_symop_operation_xyz
x,y,z
-x,-y,z
x,-y,1/2-z
-x,y,1/2-z
-x,-y,-z
x,y,-z
-x,y,1/2+z
x,-y,1/2+z
1/2+x,1/2+y,1/2+z
1/2-x,1/2-y,1/2+z
1/2+x,1/2-y,-z
1/2-x,1/2+y,-z
1/2-x,1/2-y,1/2-z
1/2+x,1/2+y,1/2-z
1/2-x,1/2+y,z
1/2+x,1/2-y,z
loop_
_atom_site_type_symbol
_atom_site_label
_atom_site_fract_x
_atom_site_fract_y
_atom_site_fract_z
Si Si1 0.939497 0.087199 0.068498
Si Si2 0.782203 0.081090 0.647072
Si Si3 0.323576 0.287167 0.305531
Si Si4 0.529899 0.861948 0.929676
Si Si5 0.356301 0.965330 0.110677
Si Si6 0.590453 0.271808 0.385607
O O1 0.790592 0.048046 0.073523
O O2 0.905722 0.161595 0.079639
O O3 0.057206 0.070338 0.120785
O O4 0.001489 0.078221 0.000000
O O5 0.787056 0.137730 0.696698
O O6 0.687161 0.111413 0.590602
O O7 0.699981 0.015418 0.662150
O O8 0.250000 0.250000 0.250000
O O9 0.491219 0.280953 0.323845
O O10 0.243873 0.255101 0.364305
O O11 0.421476 0.895190 0.880228
O O12 0.527290 0.786655 0.924394
O O13 0.492038 0.880292 0.000000
O O14 0.500000 0.000000 0.082919
#
# Coordination Sequence:
#
# PCOD9525995 Si02
#       6
#    16  16  16  16  16  16
#     4  11  21  33  53  80 117 159 194 238 292 352
#     4   9  21  35  51  80 113 147 197 246 287 353
#     4  10  20  37  59  80 106 144 191 253 314 357
#     4  10  19  33  54  79 115 155 189 233 288 354
#     4  10  21  35  52  79 117 159 198 234 285 355
#     4  10  21  36  55  84 112 142 195 250 298 358
#
# _framework density 22.879714
#
# number of rings (size 3 to 8) (size 9 to 14) (size 15 to 20)
#    0.000    2.000    0.000    3.500    0.000    8.000 
#    0.000    5.000    0.000    4.000    0.000   23.333 
#    0.000    0.000    0.000    0.000    0.000    0.000 
#
# Total GULP energy -267351.467663 kJ/mol
# GULP energy per Si atom -5569.822243 kJ/mol
# Density = 2.282764 g / cm^3
# Si number density = 22.879714 Si / 1000 Ang^3
#
#
#
# Elastic Constant Matrix: (Units=GPa)
#
#
# Indices 1 2 3 4 5 6 
#
# 1 111.3178 36.0428 11.8406 0.0000 0.0000 0.0000
# 2 36.0428 143.5564 8.8563 0.0000 0.0000 0.0000
# 3 11.8406 8.8563 32.5864 0.0000 0.0000 0.0000
# 4 0.0000 0.0000 0.0000 15.6217 0.0000 0.0000
# 5 0.0000 0.0000 0.0000 0.0000 14.1361 0.0000
# 6 0.0000 0.0000 0.0000 0.0000 0.0000 30.8907
#
#
#
# Elastic Compliance Matrix: (Units=1/GPa)
#
#
# Indices 1 2 3 4 5 6 
#
# 1 0.010062 -0.002340 -0.003020 0.000000 0.000000 0.000000
# 2 -0.002340 0.007629 -0.001223 0.000000 0.000000 0.000000
# 3 -0.003020 -0.001223 0.032117 0.000000 0.000000 0.000000
# 4 0.000000 0.000000 0.000000 0.064014 0.000000 0.000000
# 5 0.000000 0.000000 0.000000 0.000000 0.070741 0.000000
# 6 0.000000 0.000000 0.000000 0.000000 0.000000 0.032372
#
#
# Mechanical properties :
#
#
# Convention : Reuss Voigt Hill
#
# Bulk Modulus (GPa) = 27.29119 44.54889 35.92004
# Shear Modulus (GPa) = 20.63423 27.51110 24.07266
#
# Velocity S-wave (km/s) = 3.00635 3.47136 3.24719
# Velocity P-wave (km/s) = 4.89948 5.96492 5.45826
#
# Compressibility (1/GPa) = 0.03664186
#
# Stress axis : x y z
#
# Youngs Moduli (GPa) = 99.38189 131.08112 31.13571
#
# Poissons Ratio (x) = 0.30673 0.09404
# Poissons Ratio (y) = 0.23255 0.03808
# Poissons Ratio (z) = 0.30016 0.16033
#
# Static dielectric constant tensor:
#      x y z
#    x 1.873870 0.000000 0.000000 
#    y 0.000000 1.921230 0.000000 
#    z 0.000000 0.000000 1.837580 
# 
# From -- ./inp_files/42446.got.cif
#   From: 2010.05.17/outbox.cif.g08.bks.cpg/sg72_22_cif.got.tgz:42446.got - 2010.06.03 17:03:01.
