data_PCOD9525735
_publ_section_title
;
Structure prediction by ZEFSAII (Michael W. Deem and Ramdas Pophale) SiO2 
 PCOD9525735
Probable space group: I B A M
;
_chemical_formula_sum "Si O2"
_cell_formula_units_Z 108
_cell_length_a 29.656559
_cell_length_b 12.694004
_cell_length_c 14.370144
_cell_angle_alpha 90.000000
_cell_angle_beta 90.000000
_cell_angle_gamma 90.000000
_cell_volume 5409.791287
_symmetry_space_group_name_H-M "I B A M"
_symmetry_group_IT_number 72
_symmetry_cell_setting 'orthorhombic'
loop_
_space_group_symop_operation_xyz
x,y,z
-x,-y,z
x,-y,1/2-z
-x,y,1/2-z
-x,-y,-z
x,y,-z
-x,y,1/2+z
x,-y,1/2+z
1/2+x,1/2+y,1/2+z
1/2-x,1/2-y,1/2+z
1/2+x,1/2-y,-z
1/2-x,1/2+y,-z
1/2-x,1/2-y,1/2-z
1/2+x,1/2+y,1/2-z
1/2-x,1/2+y,z
1/2+x,1/2-y,z
loop_
_atom_site_type_symbol
_atom_site_label
_atom_site_fract_x
_atom_site_fract_y
_atom_site_fract_z
Si Si1 0.210519 0.976411 0.112297
Si Si2 0.433068 0.387290 0.891362
Si Si3 0.796518 0.248259 0.193725
Si Si4 0.308284 0.039037 0.894182
Si Si5 0.626181 0.598910 0.607076
Si Si6 0.394503 0.769610 0.248231
Si Si7 0.613336 0.000000 0.250000
Si Si8 0.500000 0.500000 0.750000
O O1 0.194636 0.864984 0.149779
O O2 0.262281 0.987047 0.142609
O O3 0.176730 0.069968 0.142370
O O4 0.209351 0.977613 0.000000
O O5 0.398566 0.486009 0.890403
O O6 0.410508 0.284992 0.843967
O O7 0.471700 0.426124 0.820456
O O8 0.446195 0.371140 0.000000
O O9 0.750000 0.250000 0.250000
O O10 0.796728 0.337389 0.114499
O O11 0.840053 0.280037 0.253742
O O12 0.352810 0.012899 0.837192
O O13 0.314539 0.006918 0.000000
O O14 0.628879 0.634322 0.500000
O O15 0.598712 0.682835 0.667799
O O16 0.412384 0.888649 0.239237
#
# Coordination Sequence:
#
# PCOD9525735 Si02
#       8
#    16  16  16  16  16  16   8   4
#     4  10  19  31  49  72 104 147 202 259 315 370
#     4  11  23  40  67 101 131 161 196 245 320 396
#     4  11  21  31  50  75 111 159 213 267 316 365
#     4  10  21  35  48  71 109 158 214 270 322 364
#     4  10  20  35  57  87 116 152 199 251 315 379
#     4  11  21  38  58  84 123 165 208 263 309 370
#     4  10  24  38  55  81 114 168 222 258 302 362
#     4  12  22  44  70 108 140 156 186 254 326 406
#
# _framework density 19.963802000000001
#
# number of rings (size 3 to 8) (size 9 to 14) (size 15 to 20)
#    0.000    1.481    2.963    3.333    0.000    4.148 
#    0.000    3.704    0.000    0.444    0.000    1.037 
#    0.000    0.000    0.000    0.000    0.000    0.000 
#
# Total GULP energy -301322.512905 kJ/mol
# GULP energy per Si atom -5580.046535 kJ/mol
# Density = 1.991836 g / cm^3
# Si number density = 19.963802 Si / 1000 Ang^3
#
#
#
# Elastic Constant Matrix: (Units=GPa)
#
#
# Indices 1 2 3 4 5 6 
#
# 1 37.7729 -3.1740 18.2353 0.0000 0.0000 0.0000
# 2 -3.1740 126.4243 33.3357 0.0000 0.0000 0.0000
# 3 18.2353 33.3357 96.9072 0.0000 0.0000 0.0000
# 4 0.0000 0.0000 0.0000 16.8100 0.0000 0.0000
# 5 0.0000 0.0000 0.0000 0.0000 24.1949 0.0000
# 6 0.0000 0.0000 0.0000 0.0000 0.0000 13.9471
#
#
#
# Elastic Compliance Matrix: (Units=1/GPa)
#
#
# Indices 1 2 3 4 5 6 
#
# 1 0.029793 0.002448 -0.006448 0.000000 0.000000 0.000000
# 2 0.002448 0.008900 -0.003522 0.000000 0.000000 0.000000
# 3 -0.006448 -0.003522 0.012744 0.000000 0.000000 0.000000
# 4 0.000000 0.000000 0.000000 0.059488 0.000000 0.000000
# 5 0.000000 0.000000 0.000000 0.000000 0.041331 0.000000
# 6 0.000000 0.000000 0.000000 0.000000 0.000000 0.071699
#
#
# Mechanical properties :
#
#
# Convention : Reuss Voigt Hill
#
# Bulk Modulus (GPa) = 27.47838 39.76650 33.62244
# Shear Modulus (GPa) = 19.90990 25.17090 22.54040
#
# Velocity S-wave (km/s) = 3.16143 3.55466 3.36380
# Velocity P-wave (km/s) = 5.20770 6.06713 5.65377
#
# Compressibility (1/GPa) = 0.03639225
#
# Stress axis : x y z
#
# Youngs Moduli (GPa) = 33.56522 112.35830 78.46697
#
# Poissons Ratio (x) = -0.27509 0.50599
# Poissons Ratio (y) = -0.08218 0.27638
# Poissons Ratio (z) = 0.21644 0.39576
#
# Static dielectric constant tensor:
#      x y z
#    x 1.732620 0.000000 0.000000 
#    y 0.000000 1.766390 0.000000 
#    z 0.000000 0.000000 1.733050 
# 
# From -- ./inp_files/26452.got.cif
#   From: 2010.05.17/outbox.cif.g08.bks.cpg/sg72_14_cif.got.tgz:26452.got - 2010.06.03 17:03:01.
