data_PCOD9525540
_publ_section_title
;
Structure prediction by ZEFSAII (Michael W. Deem and Ramdas Pophale) SiO2 
 PCOD9525540
Probable space group: I B A M
;
_chemical_formula_sum "Si O2"
_cell_formula_units_Z 80
_cell_length_a 24.835785
_cell_length_b 11.410847
_cell_length_c 13.463656
_cell_angle_alpha 90.000000
_cell_angle_beta 90.000000
_cell_angle_gamma 90.000000
_cell_volume 3815.564334
_symmetry_space_group_name_H-M "I B A M"
_symmetry_group_IT_number 72
_symmetry_cell_setting 'orthorhombic'
loop_
_space_group_symop_operation_xyz
x,y,z
-x,-y,z
x,-y,1/2-z
-x,y,1/2-z
-x,-y,-z
x,y,-z
-x,y,1/2+z
x,-y,1/2+z
1/2+x,1/2+y,1/2+z
1/2-x,1/2-y,1/2+z
1/2+x,1/2-y,-z
1/2-x,1/2+y,-z
1/2-x,1/2-y,1/2-z
1/2+x,1/2+y,1/2-z
1/2-x,1/2+y,z
1/2+x,1/2-y,z
loop_
_atom_site_type_symbol
_atom_site_label
_atom_site_fract_x
_atom_site_fract_y
_atom_site_fract_z
Si Si1 0.806367 0.309498 0.728486
Si Si2 0.090131 0.831254 0.678830
Si Si3 0.347757 0.013712 0.883658
Si Si4 0.556904 0.431758 0.611388
Si Si5 0.535868 0.100453 0.150215
O O1 0.750000 0.250000 0.750000
O O2 0.850689 0.220764 0.688081
O O3 0.804369 0.416540 0.650350
O O4 0.832324 0.368787 0.826421
O O5 0.067522 0.852411 0.791707
O O6 0.051855 0.734790 0.624174
O O7 0.094872 0.955220 0.624678
O O8 0.405332 0.960675 0.848927
O O9 0.349751 0.029503 0.000000
O O10 0.500000 0.500000 0.620916
O O11 0.561059 0.379982 0.500000
O O12 0.500000 0.116389 0.250000
O O13 0.500000 0.000000 0.098018
#
# Coordination Sequence:
#
# PCOD9525540 Si02
#       5
#    16  16  16  16  16
#     4  10  22  41  62  82 111 153 197 247 304 351
#     4  10  20  37  57  80 115 150 191 241 285 343
#     4  10  23  40  58  88 123 150 191 248 299 355
#     4  10  21  35  54  83 116 151 189 231 283 343
#     4  10  18  34  59  86 118 156 191 230 289 360
#
# _framework density 20.966754999999999
#
# number of rings (size 3 to 8) (size 9 to 14) (size 15 to 20)
#    0.000    2.000    0.000    7.200    0.000    8.400 
#    0.000    5.000    0.000    0.600    0.000    0.000 
#    0.000    0.000    0.000    0.000    0.000    0.000 
#
# Total GULP energy -222734.676642 kJ/mol
# GULP energy per Si atom -5568.366916 kJ/mol
# Density = 2.091903 g / cm^3
# Si number density = 20.966755 Si / 1000 Ang^3
#
#
#
# Elastic Constant Matrix: (Units=GPa)
#
#
# Indices 1 2 3 4 5 6 
#
# 1 89.0411 28.1968 -6.7271 0.0000 0.0000 0.0000
# 2 28.1968 82.7890 -2.9309 0.0000 0.0000 0.0000
# 3 -6.7271 -2.9309 102.5858 0.0000 0.0000 0.0000
# 4 0.0000 0.0000 0.0000 -13.0197 0.0000 0.0000
# 5 0.0000 0.0000 0.0000 0.0000 -9.0023 0.0000
# 6 0.0000 0.0000 0.0000 0.0000 0.0000 32.8161
#
#
#
# Elastic Compliance Matrix: (Units=1/GPa)
#
#
# Indices 1 2 3 4 5 6 
#
# 1 0.012639 -0.004280 0.000707 0.000000 0.000000 0.000000
# 2 -0.004280 0.013540 0.000106 0.000000 0.000000 0.000000
# 3 0.000707 0.000106 0.009797 0.000000 0.000000 0.000000
# 4 0.000000 0.000000 0.000000 -0.076807 0.000000 0.000000
# 5 0.000000 0.000000 0.000000 0.000000 -0.111083 0.000000
# 6 0.000000 0.000000 0.000000 0.000000 0.000000 0.030473
#
#
# Mechanical properties :
#
#
# Convention : Reuss Voigt Hill
#
# Bulk Modulus (GPa) = 34.43176 34.61040 34.52108
# Shear Modulus (GPa) = -47.69860 19.21731 -14.24064
#
# Velocity S-wave (km/s) = -4.77483 3.03076 -2.60898
# Velocity P-wave (km/s) = 3.73376 5.36567 2.72484
#
# Compressibility (1/GPa) = 0.02904295
#
# Stress axis : x y z
#
# Youngs Moduli (GPa) = 79.11742 73.85354 102.06890
#
# Poissons Ratio (x) = 0.31608 -0.07212
# Poissons Ratio (y) = 0.33861 -0.01084
# Poissons Ratio (z) = -0.05590 -0.00784
#
# Static dielectric constant tensor:
#      x y z
#    x 1.763930 0.000000 0.000000 
#    y 0.000000 1.823630 0.000000 
#    z 0.000000 0.000000 1.811910 
# 
# From -- ./inp_files/24895.got.cif
#   From: 2010.05.17/outbox.cif.g08.bks.cpg/sg72_13_cif.got.tgz:24895.got - 2010.06.03 17:03:01.
