data_PCOD9525620
_publ_section_title
;
Structure prediction by ZEFSAII (Michael W. Deem and Ramdas Pophale) SiO2 
 PCOD9525620
Probable space group: I B A M
;
_chemical_formula_sum "Si O2"
_cell_formula_units_Z 112
_cell_length_a 35.776187
_cell_length_b 5.349670
_cell_length_c 27.592465
_cell_angle_alpha 90.000000
_cell_angle_beta 90.000000
_cell_angle_gamma 90.000000
_cell_volume 5280.943793
_symmetry_space_group_name_H-M "I B A M"
_symmetry_group_IT_number 72
_symmetry_cell_setting 'orthorhombic'
loop_
_space_group_symop_operation_xyz
x,y,z
-x,-y,z
x,-y,1/2-z
-x,y,1/2-z
-x,-y,-z
x,y,-z
-x,y,1/2+z
x,-y,1/2+z
1/2+x,1/2+y,1/2+z
1/2-x,1/2-y,1/2+z
1/2+x,1/2-y,-z
1/2-x,1/2+y,-z
1/2-x,1/2-y,1/2-z
1/2+x,1/2+y,1/2-z
1/2-x,1/2+y,z
1/2+x,1/2-y,z
loop_
_atom_site_type_symbol
_atom_site_label
_atom_site_fract_x
_atom_site_fract_y
_atom_site_fract_z
Si Si1 0.898587 0.279672 0.830150
Si Si2 0.156318 0.759130 0.567358
Si Si3 0.352805 0.725577 0.818760
Si Si4 0.983970 0.749853 0.305069
Si Si5 0.612124 0.237071 0.553335
Si Si6 0.766831 0.753973 0.803498
Si Si7 0.262103 0.467214 0.444973
O O1 0.878910 0.532426 0.810625
O O2 0.939577 0.254083 0.807466
O O3 0.902719 0.287777 0.890008
O O4 0.874202 0.038707 0.813791
O O5 0.156479 0.754709 0.624800
O O6 0.142620 0.486434 0.551627
O O7 0.197265 0.845473 0.553398
O O8 0.128829 0.983930 0.552606
O O9 0.311481 0.737307 0.796457
O O10 0.000000 0.500000 0.328853
O O11 0.000000 0.749963 0.250000
O O12 0.000000 0.000000 0.328710
O O13 0.591604 0.209857 0.500000
O O14 0.750000 0.750000 0.750000
O O15 0.750503 0.502441 0.827170
O O16 0.248920 0.513518 0.500000
O O17 0.263170 0.745613 0.423479
#
# Coordination Sequence:
#
# PCOD9525620 Si02
#       7
#    16  16  16  16  16  16  16
#     4  10  21  38  60  88 118 148 192 239 279 341
#     4  10  20  32  49  73 100 137 182 233 285 331
#     4  10  21  37  57  81 110 148 195 243 287 331
#     4  10  21  40  63  91 122 154 184 222 286 346
#     4  10  19  33  55  79 107 143 181 227 277 325
#     4  10  21  38  55  77 110 151 195 241 297 349
#     4  10  19  28  39  59  89 125 168 219 271 323
#
# _framework density 21.208331000000001
#
# number of rings (size 3 to 8) (size 9 to 14) (size 15 to 20)
#    0.000    2.000    0.000    3.857    0.000    2.286 
#    0.000   17.143    0.000    0.857    0.000    0.000 
#    0.000    0.000    0.000    0.000    0.000    0.000 
#
# Total GULP energy -312068.891521 kJ/mol
# GULP energy per Si atom -5572.658777 kJ/mol
# Density = 2.116006 g / cm^3
# Si number density = 21.208331 Si / 1000 Ang^3
#
#
#
# Elastic Constant Matrix: (Units=GPa)
#
#
# Indices 1 2 3 4 5 6 
#
# 1 140.5097 50.8534 24.3385 0.0000 0.0000 0.0000
# 2 50.8534 172.7434 10.5341 0.0000 0.0000 0.0000
# 3 24.3385 10.5341 85.1922 0.0000 0.0000 0.0000
# 4 0.0000 0.0000 0.0000 5.7458 0.0000 0.0000
# 5 0.0000 0.0000 0.0000 0.0000 78.0359 0.0000
# 6 0.0000 0.0000 0.0000 0.0000 0.0000 29.9349
#
#
#
# Elastic Compliance Matrix: (Units=1/GPa)
#
#
# Indices 1 2 3 4 5 6 
#
# 1 0.008319 -0.002322 -0.002090 0.000000 0.000000 0.000000
# 2 -0.002322 0.006481 -0.000138 0.000000 0.000000 0.000000
# 3 -0.002090 -0.000138 0.012352 0.000000 0.000000 0.000000
# 4 0.000000 0.000000 0.000000 0.174040 0.000000 0.000000
# 5 0.000000 0.000000 0.000000 0.000000 0.012815 0.000000
# 6 0.000000 0.000000 0.000000 0.000000 0.000000 0.033406
#
#
# Mechanical properties :
#
#
# Convention : Reuss Voigt Hill
#
# Bulk Modulus (GPa) = 55.39090 63.32192 59.35641
# Shear Modulus (GPa) = 19.04550 43.59126 31.31838
#
# Velocity S-wave (km/s) = 2.99995 4.53855 3.84696
# Velocity P-wave (km/s) = 6.17850 7.57539 6.91232
#
# Compressibility (1/GPa) = 0.01805351
#
# Stress axis : x y z
#
# Youngs Moduli (GPa) = 120.20471 154.30171 80.95707
#
# Poissons Ratio (x) = 0.35823 0.16917
# Poissons Ratio (y) = 0.27907 0.01118
# Poissons Ratio (z) = 0.25118 0.02131
#
# Static dielectric constant tensor:
#      x y z
#    x -0.924140 0.000000 0.000000 
#    y 0.000000 1.896020 0.000000 
#    z 0.000000 0.000000 1.907670 
# 
# From -- ./inp_files/52597.got.cif
#   From: 2010.05.17/outbox.cif.g08.bks.cpg/sg72_27_cif.got.tgz:52597.got - 2010.06.03 17:03:01.
