data_PCOD9525210
_publ_section_title
;
Structure prediction by ZEFSAII (Michael W. Deem and Ramdas Pophale) SiO2 
 PCOD9525210
Probable space group: I B A M
;
_chemical_formula_sum "Si O2"
_cell_formula_units_Z 96
_cell_length_a 23.020984
_cell_length_b 18.752933
_cell_length_c 13.754491
_cell_angle_alpha 90.000000
_cell_angle_beta 90.000000
_cell_angle_gamma 90.000000
_cell_volume 5937.964659
_symmetry_space_group_name_H-M "I B A M"
_symmetry_group_IT_number 72
_symmetry_cell_setting 'orthorhombic'
loop_
_space_group_symop_operation_xyz
x,y,z
-x,-y,z
x,-y,1/2-z
-x,y,1/2-z
-x,-y,-z
x,y,-z
-x,y,1/2+z
x,-y,1/2+z
1/2+x,1/2+y,1/2+z
1/2-x,1/2-y,1/2+z
1/2+x,1/2-y,-z
1/2-x,1/2+y,-z
1/2-x,1/2-y,1/2-z
1/2+x,1/2+y,1/2-z
1/2-x,1/2+y,z
1/2+x,1/2-y,z
loop_
_atom_site_type_symbol
_atom_site_label
_atom_site_fract_x
_atom_site_fract_y
_atom_site_fract_z
Si Si1 0.683646 0.952799 0.883405
Si Si2 0.733697 0.325391 0.116522
Si Si3 0.091263 0.333193 0.609067
Si Si4 0.483473 0.921343 0.862527
Si Si5 0.346990 0.892951 0.113179
Si Si6 0.667146 0.761157 0.245500
O O1 0.740102 0.904376 0.867105
O O2 0.628230 0.903309 0.856827
O O3 0.681110 0.033590 0.847584
O O4 0.677755 0.960687 0.000000
O O5 0.679973 0.306900 0.187225
O O6 0.784051 0.273721 0.161746
O O7 0.725249 0.315248 0.000000
O O8 0.111926 0.314876 0.500000
O O9 0.107298 0.272695 0.686734
O O10 0.025540 0.358724 0.602052
O O11 0.500000 0.923544 0.750000
O O12 0.416399 0.905351 0.880748
O O13 0.500000 0.000000 0.900186
O O14 0.329058 0.826373 0.178055
O O15 0.331652 0.881118 0.000000
#
# Coordination Sequence:
#
# PCOD9525210 Si02
#       6
#    16  16  16  16  16  16
#     4   8  16  28  43  60  79 110 150 186 227 272
#     4   9  18  32  46  58  77 107 143 190 242 282
#     4  10  18  29  42  57  82 115 147 182 223 264
#     4  11  20  28  41  61  89 123 155 188 224 261
#     4  11  20  29  43  64  89 117 152 194 225 259
#     4  10  19  30  44  62  81 106 147 193 230 273
#
# _framework density 16.167155999999999
#
# number of rings (size 3 to 8) (size 9 to 14) (size 15 to 20)
#    0.000    2.167    3.333    2.500    0.000    3.333 
#    0.000    0.000    0.000    0.000    0.000    2.333 
#    0.000    0.000    0.000    0.000    0.000   81.667 
#
# Total GULP energy -267327.613074 kJ/mol
# GULP energy per Si atom -5569.325272 kJ/mol
# Density = 1.613036 g / cm^3
# Si number density = 16.167156 Si / 1000 Ang^3
#
#
#
# Elastic Constant Matrix: (Units=GPa)
#
#
# Indices 1 2 3 4 5 6 
#
# 1 45.0951 30.1857 17.4552 0.0000 0.0000 0.0000
# 2 30.1857 44.5132 17.4156 0.0000 0.0000 0.0000
# 3 17.4552 17.4156 105.6210 0.0000 0.0000 0.0000
# 4 0.0000 0.0000 0.0000 -4.1744 0.0000 0.0000
# 5 0.0000 0.0000 0.0000 0.0000 16.0320 0.0000
# 6 0.0000 0.0000 0.0000 0.0000 0.0000 23.7823
#
#
#
# Elastic Compliance Matrix: (Units=1/GPa)
#
#
# Indices 1 2 3 4 5 6 
#
# 1 0.041148 -0.026984 -0.002351 0.000000 0.000000 0.000000
# 2 -0.026984 0.041710 -0.002418 0.000000 0.000000 0.000000
# 3 -0.002351 -0.002418 0.010255 0.000000 0.000000 0.000000
# 4 0.000000 0.000000 0.000000 -0.239553 0.000000 0.000000
# 5 0.000000 0.000000 0.000000 0.000000 0.062375 0.000000
# 6 0.000000 0.000000 0.000000 0.000000 0.000000 0.042048
#
#
# Mechanical properties :
#
#
# Convention : Reuss Voigt Hill
#
# Bulk Modulus (GPa) = 33.77554 36.14915 34.96234
# Shear Modulus (GPa) = 159.45503 15.80616 87.63059
#
# Velocity S-wave (km/s) = 9.94199 3.13017 7.37025
# Velocity P-wave (km/s) = 12.35830 5.95584 9.70051
#
# Compressibility (1/GPa) = 0.02960722
#
# Stress axis : x y z
#
# Youngs Moduli (GPa) = 24.30270 23.97520 97.51311
#
# Poissons Ratio (x) = 0.64694 0.22924
# Poissons Ratio (y) = 0.65578 0.23579
# Poissons Ratio (z) = 0.05713 0.05797
#
# Static dielectric constant tensor:
#      x y z
#    x 1.572270 0.000000 0.000000 
#    y 0.000000 1.550940 0.000000 
#    z 0.000000 0.000000 1.645310 
# 
# From -- ./inp_files/24402.got.cif
#   From: 2010.05.17/outbox.cif.g08.bks.cpg/sg72_13_cif.got.tgz:24402.got - 2010.06.03 17:03:01.
