data_PCOD9525320
_publ_section_title
;
Structure prediction by ZEFSAII (Michael W. Deem and Ramdas Pophale) SiO2 
 PCOD9525320
Probable space group: I B A M
;
_chemical_formula_sum "Si O2"
_cell_formula_units_Z 80
_cell_length_a 16.097055
_cell_length_b 15.152595
_cell_length_c 14.121823
_cell_angle_alpha 90.000000
_cell_angle_beta 90.000000
_cell_angle_gamma 90.000000
_cell_volume 3444.484282
_symmetry_space_group_name_H-M "I B A M"
_symmetry_group_IT_number 72
_symmetry_cell_setting 'orthorhombic'
loop_
_space_group_symop_operation_xyz
x,y,z
-x,-y,z
x,-y,1/2-z
-x,y,1/2-z
-x,-y,-z
x,y,-z
-x,y,1/2+z
x,-y,1/2+z
1/2+x,1/2+y,1/2+z
1/2-x,1/2-y,1/2+z
1/2+x,1/2-y,-z
1/2-x,1/2+y,-z
1/2-x,1/2-y,1/2-z
1/2+x,1/2+y,1/2-z
1/2-x,1/2+y,z
1/2+x,1/2-y,z
loop_
_atom_site_type_symbol
_atom_site_label
_atom_site_fract_x
_atom_site_fract_y
_atom_site_fract_z
Si Si1 0.962773 0.093832 0.884941
Si Si2 0.254400 0.851057 0.390493
Si Si3 0.216585 0.055836 0.609973
Si Si4 0.123663 0.598788 0.734678
Si Si5 0.587714 0.250720 0.886081
O O1 0.867922 0.098368 0.852235
O O2 0.023341 0.172734 0.859977
O O3 0.958463 0.092071 0.000000
O O4 0.000000 0.000000 0.856115
O O5 0.275753 0.833775 0.500000
O O6 0.337618 0.856368 0.328368
O O7 0.181586 0.783541 0.362590
O O8 0.212927 0.949111 0.386167
O O9 0.228591 0.080243 0.500000
O O10 0.294391 0.083467 0.670556
O O11 0.091056 0.500000 0.750000
O O12 0.068191 0.663330 0.672526
O O13 0.584347 0.237693 0.000000
#
# Coordination Sequence:
#
# PCOD9525320 Si02
#       5
#    16  16  16  16  16
#     4   9  15  27  50  77 108 152 199 243 301 370
#     4   9  17  30  49  70 103 153 202 246 296 352
#     4   9  16  29  48  74 112 154 194 240 300 367
#     4  10  20  31  46  75 117 156 197 246 301 357
#     4  10  18  30  51  77 107 150 201 254 307 359
#
# _framework density 23.225539000000001
#
# number of rings (size 3 to 8) (size 9 to 14) (size 15 to 20)
#    0.000    2.600    2.000    1.200    0.000    0.800 
#    0.000    1.000    0.000    0.000    0.000    1.400 
#    0.000   28.000    0.000  122.200    0.000    0.600 
#
# Total GULP energy -223863.244800 kJ/mol
# GULP energy per Si atom -5596.581120 kJ/mol
# Density = 2.317268 g / cm^3
# Si number density = 23.225539 Si / 1000 Ang^3
#
#
#
# Elastic Constant Matrix: (Units=GPa)
#
#
# Indices 1 2 3 4 5 6 
#
# 1 78.0743 32.7965 24.4861 0.0000 0.0000 0.0000
# 2 32.7965 141.3449 36.5992 0.0000 0.0000 0.0000
# 3 24.4861 36.5992 86.4184 0.0000 0.0000 0.0000
# 4 0.0000 0.0000 0.0000 34.9697 0.0000 0.0000
# 5 0.0000 0.0000 0.0000 0.0000 38.1234 0.0000
# 6 0.0000 0.0000 0.0000 0.0000 0.0000 20.6474
#
#
#
# Elastic Compliance Matrix: (Units=1/GPa)
#
#
# Indices 1 2 3 4 5 6 
#
# 1 0.014894 -0.002654 -0.003096 0.000000 0.000000 0.000000
# 2 -0.002654 0.008419 -0.002814 0.000000 0.000000 0.000000
# 3 -0.003096 -0.002814 0.013640 0.000000 0.000000 0.000000
# 4 0.000000 0.000000 0.000000 0.028596 0.000000 0.000000
# 5 0.000000 0.000000 0.000000 0.000000 0.026231 0.000000
# 6 0.000000 0.000000 0.000000 0.000000 0.000000 0.048432
#
#
# Mechanical properties :
#
#
# Convention : Reuss Voigt Hill
#
# Bulk Modulus (GPa) = 50.43844 54.84457 52.64151
# Shear Modulus (GPa) = 30.49717 32.87849 31.68783
#
# Velocity S-wave (km/s) = 3.62759 3.76655 3.69772
# Velocity P-wave (km/s) = 6.26975 6.52542 6.39886
#
# Compressibility (1/GPa) = 0.01982615
#
# Stress axis : x y z
#
# Youngs Moduli (GPa) = 67.13982 118.77458 73.31127
#
# Poissons Ratio (x) = 0.31526 0.22698
# Poissons Ratio (y) = 0.17821 0.20627
# Poissons Ratio (z) = 0.20787 0.33419
#
# Static dielectric constant tensor:
#      x y z
#    x 1.857040 0.000000 0.000000 
#    y 0.000000 1.869040 0.000000 
#    z 0.000000 0.000000 1.895240 
# 
# From -- ./inp_files/32564.got.cif
#   From: 2010.05.17/outbox.cif.g08.bks.cpg/sg72_17_cif.got.tgz:32564.got - 2010.06.03 17:03:01.
