data_PCOD9525627
_publ_section_title
;
Structure prediction by ZEFSAII (Michael W. Deem and Ramdas Pophale) SiO2 
 PCOD9525627
Probable space group: I B A M
;
_chemical_formula_sum "Si O2"
_cell_formula_units_Z 96
_cell_length_a 23.434422
_cell_length_b 27.453522
_cell_length_c 8.545449
_cell_angle_alpha 90.000000
_cell_angle_beta 90.000000
_cell_angle_gamma 90.000000
_cell_volume 5497.778021
_symmetry_space_group_name_H-M "I B A M"
_symmetry_group_IT_number 72
_symmetry_cell_setting 'orthorhombic'
loop_
_space_group_symop_operation_xyz
x,y,z
-x,-y,z
x,-y,1/2-z
-x,y,1/2-z
-x,-y,-z
x,y,-z
-x,y,1/2+z
x,-y,1/2+z
1/2+x,1/2+y,1/2+z
1/2-x,1/2-y,1/2+z
1/2+x,1/2-y,-z
1/2-x,1/2+y,-z
1/2-x,1/2-y,1/2-z
1/2+x,1/2+y,1/2-z
1/2-x,1/2+y,z
1/2+x,1/2-y,z
loop_
_atom_site_type_symbol
_atom_site_label
_atom_site_fract_x
_atom_site_fract_y
_atom_site_fract_z
Si Si1 0.165038 0.117485 0.317912
Si Si2 0.564467 0.319909 0.311047
Si Si3 0.648078 0.864811 0.176458
Si Si4 0.737922 0.301478 0.176731
Si Si5 0.229067 0.445499 0.811807
Si Si6 0.564250 0.785539 0.686206
O O1 0.157302 0.105400 0.500000
O O2 0.103369 0.134449 0.254800
O O3 0.199432 0.167508 0.293649
O O4 0.210280 0.077946 0.252350
O O5 0.500000 0.324608 0.250000
O O6 0.564993 0.319317 0.500000
O O7 0.586030 0.266558 0.253870
O O8 0.702357 0.829267 0.166472
O O9 0.675740 0.912376 0.256623
O O10 0.600744 0.832532 0.263245
O O11 0.628725 0.876533 0.000000
O O12 0.750000 0.250000 0.250000
O O13 0.713503 0.299048 0.000000
O O14 0.223810 0.500000 0.750000
O O15 0.230522 0.444503 0.000000
O O16 0.500000 0.790883 0.750000
O O17 0.563552 0.781540 0.500000
#
# Coordination Sequence:
#
# PCOD9525627 Si02
#       6
#    16  16  16  16  16  16
#     4   9  19  33  49  69  97 129 164 204 249 298
#     4  10  19  32  49  72 102 138 174 209 246 292
#     4  10  20  34  50  72 100 131 166 206 248 296
#     4  10  19  28  43  67  97 129 161 197 242 292
#     4  10  20  36  56  78 100 127 163 208 260 310
#     4  11  21  33  50  74 104 140 175 208 244 290
#
# _framework density 17.461600000000001
#
# number of rings (size 3 to 8) (size 9 to 14) (size 15 to 20)
#    0.000    2.000    0.000    5.500    0.000    8.000 
#    0.000    0.000    0.000    1.000    0.000    7.000 
#    0.000    0.000    0.000    0.000    0.000    0.000 
#
# Total GULP energy -267407.737841 kJ/mol
# GULP energy per Si atom -5570.994538 kJ/mol
# Density = 1.742186 g / cm^3
# Si number density = 17.461600 Si / 1000 Ang^3
#
#
#
# Elastic Constant Matrix: (Units=GPa)
#
#
# Indices 1 2 3 4 5 6 
#
# 1 61.3676 20.1032 17.7908 0.0000 0.0000 0.0000
# 2 20.1032 76.3203 24.1612 0.0000 0.0000 0.0000
# 3 17.7908 24.1612 73.7357 0.0000 0.0000 0.0000
# 4 0.0000 0.0000 0.0000 16.5260 0.0000 0.0000
# 5 0.0000 0.0000 0.0000 0.0000 17.0029 0.0000
# 6 0.0000 0.0000 0.0000 0.0000 0.0000 25.1808
#
#
#
# Elastic Compliance Matrix: (Units=1/GPa)
#
#
# Indices 1 2 3 4 5 6 
#
# 1 0.018485 -0.003857 -0.003196 0.000000 0.000000 0.000000
# 2 -0.003857 0.015424 -0.004123 0.000000 0.000000 0.000000
# 3 -0.003196 -0.004123 0.015684 0.000000 0.000000 0.000000
# 4 0.000000 0.000000 0.000000 0.060511 0.000000 0.000000
# 5 0.000000 0.000000 0.000000 0.000000 0.058813 0.000000
# 6 0.000000 0.000000 0.000000 0.000000 0.000000 0.039713
#
#
# Mechanical properties :
#
#
# Convention : Reuss Voigt Hill
#
# Bulk Modulus (GPa) = 36.71072 37.28155 36.99613
# Shear Modulus (GPa) = 20.82774 21.69984 21.26379
#
# Velocity S-wave (km/s) = 3.45740 3.52904 3.49341
# Velocity P-wave (km/s) = 6.08338 6.16462 6.12413
#
# Compressibility (1/GPa) = 0.02724000
#
# Stress axis : x y z
#
# Youngs Moduli (GPa) = 54.09659 64.83368 63.75824
#
# Poissons Ratio (x) = 0.25009 0.20378
# Poissons Ratio (y) = 0.20867 0.26290
# Poissons Ratio (z) = 0.17290 0.26733
#
# Static dielectric constant tensor:
#      x y z
#    x 1.625860 0.000000 0.000000 
#    y 0.000000 1.556770 0.000000 
#    z 0.000000 0.000000 1.630500 
# 
# From -- ./inp_files/6015.got.cif
#   From: 2010.05.17/outbox.cif.g08.bks.cpg/sg72_4_cif.got.tgz:6015.got - 2010.06.03 17:03:01.
