data_PCOD9525523
_publ_section_title
;
Structure prediction by ZEFSAII (Michael W. Deem and Ramdas Pophale) SiO2 
 PCOD9525523
Probable space group: I B A M
;
_chemical_formula_sum "Si O2"
_cell_formula_units_Z 120
_cell_length_a 21.418117
_cell_length_b 12.215560
_cell_length_c 23.983366
_cell_angle_alpha 90.000000
_cell_angle_beta 90.000000
_cell_angle_gamma 90.000000
_cell_volume 6274.871014
_symmetry_space_group_name_H-M "I B A M"
_symmetry_group_IT_number 72
_symmetry_cell_setting 'orthorhombic'
loop_
_space_group_symop_operation_xyz
x,y,z
-x,-y,z
x,-y,1/2-z
-x,y,1/2-z
-x,-y,-z
x,y,-z
-x,y,1/2+z
x,-y,1/2+z
1/2+x,1/2+y,1/2+z
1/2-x,1/2-y,1/2+z
1/2+x,1/2-y,-z
1/2-x,1/2+y,-z
1/2-x,1/2-y,1/2-z
1/2+x,1/2+y,1/2-z
1/2-x,1/2+y,z
1/2+x,1/2-y,z
loop_
_atom_site_type_symbol
_atom_site_label
_atom_site_fract_x
_atom_site_fract_y
_atom_site_fract_z
Si Si1 0.500000 0.000000 0.890699
Si Si2 0.484976 0.208908 0.688189
Si Si3 0.577609 0.409472 0.300896
Si Si4 0.226202 0.650488 0.645255
Si Si5 0.138018 0.474281 0.063585
Si Si6 0.151839 0.777848 0.718763
Si Si7 0.329014 0.530360 0.134532
Si Si8 0.256131 0.158052 0.936881
O O1 0.498872 0.112738 0.854583
O O2 0.565395 0.003243 0.924039
O O3 0.500000 0.165310 0.750000
O O4 0.521332 0.326351 0.684856
O O5 0.412205 0.236961 0.690150
O O6 0.567933 0.500000 0.250000
O O7 0.630670 0.325687 0.277648
O O8 0.604488 0.472871 0.354428
O O9 0.167613 0.609065 0.608122
O O10 0.202620 0.685675 0.706418
O O11 0.275651 0.555618 0.647736
O O12 0.256608 0.747833 0.609220
O O13 0.182676 0.581352 0.068055
O O14 0.144722 0.433734 0.000000
O O15 0.174286 0.878700 0.682040
O O16 0.306058 0.586436 0.077500
O O17 0.253362 0.200269 0.000000
#
# Coordination Sequence:
#
# PCOD9525523 Si02
#       8
#     8  16  16  16  16  16  16  16
#     4  12  22  36  58  82 118 142 184 238 286 334
#     4  10  21  36  59  81 109 148 189 227 277 335
#     4   9  19  35  57  82 109 144 186 229 273 339
#     4  10  18  34  55  80 107 144 181 230 275 334
#     4  10  21  36  56  81 108 147 188 230 283 335
#     4   9  18  35  52  78 109 145 181 224 278 325
#     4   9  19  31  54  80 109 134 184 226 274 325
#     4   9  19  35  56  79 107 143 186 229 279 335
#
# _framework density 19.123899999999999
#
# number of rings (size 3 to 8) (size 9 to 14) (size 15 to 20)
#    0.000    2.400    1.333    0.800    1.867    7.200 
#    0.000    0.000    5.867    0.000    0.000    1.867 
#    0.000    0.000    0.000    0.000    0.000    0.000 
#
# Total GULP energy -334063.752799 kJ/mol
# GULP energy per Si atom -5567.729213 kJ/mol
# Density = 1.908037 g / cm^3
# Si number density = 19.123900 Si / 1000 Ang^3
#
#
#
# Elastic Constant Matrix: (Units=GPa)
#
#
# Indices 1 2 3 4 5 6 
#
# 1 54.4753 13.7518 31.1861 0.0000 0.0000 0.0000
# 2 13.7518 58.0981 15.1656 0.0000 0.0000 0.0000
# 3 31.1861 15.1656 39.0873 0.0000 0.0000 0.0000
# 4 0.0000 0.0000 0.0000 23.4997 0.0000 0.0000
# 5 0.0000 0.0000 0.0000 0.0000 25.8538 0.0000
# 6 0.0000 0.0000 0.0000 0.0000 0.0000 28.2046
#
#
#
# Elastic Compliance Matrix: (Units=1/GPa)
#
#
# Indices 1 2 3 4 5 6 
#
# 1 0.033851 -0.001071 -0.026593 0.000000 0.000000 0.000000
# 2 -0.001071 0.019186 -0.006590 0.000000 0.000000 0.000000
# 3 -0.026593 -0.006590 0.049358 0.000000 0.000000 0.000000
# 4 0.000000 0.000000 0.000000 0.042554 0.000000 0.000000
# 5 0.000000 0.000000 0.000000 0.000000 0.038679 0.000000
# 6 0.000000 0.000000 0.000000 0.000000 0.000000 0.035455
#
#
# Mechanical properties :
#
#
# Convention : Reuss Voigt Hill
#
# Bulk Modulus (GPa) = 29.50889 30.20753 29.85821
# Shear Modulus (GPa) = 16.72881 21.61545 19.17213
#
# Velocity S-wave (km/s) = 2.96084 3.36562 3.16970
# Velocity P-wave (km/s) = 5.21082 5.56176 5.38915
#
# Compressibility (1/GPa) = 0.03388810
#
# Stress axis : x y z
#
# Youngs Moduli (GPa) = 29.54102 52.12181 20.26024
#
# Poissons Ratio (x) = 0.05582 0.53878
# Poissons Ratio (y) = 0.03164 0.13351
# Poissons Ratio (z) = 0.78558 0.34346
#
# Static dielectric constant tensor:
#      x y z
#    x 1.697520 0.000000 0.000000 
#    y 0.000000 1.733700 0.000000 
#    z 0.000000 0.000000 1.659790 
# 
# From -- ./inp_files/49537.got.cif
#   From: 2010.05.17/outbox.cif.g08.bks.cpg/sg72_25_cif.got.tgz:49537.got - 2010.06.03 17:03:01.
