data_PCOD9525909
_publ_section_title
;
Structure prediction by ZEFSAII (Michael W. Deem and Ramdas Pophale) SiO2 
 PCOD9525909
Probable space group: I B A M
;
_chemical_formula_sum "Si O2"
_cell_formula_units_Z 96
_cell_length_a 9.886954
_cell_length_b 19.261683
_cell_length_c 26.130027
_cell_angle_alpha 90.000000
_cell_angle_beta 90.000000
_cell_angle_gamma 90.000000
_cell_volume 4976.185979
_symmetry_space_group_name_H-M "I B A M"
_symmetry_group_IT_number 72
_symmetry_cell_setting 'orthorhombic'
loop_
_space_group_symop_operation_xyz
x,y,z
-x,-y,z
x,-y,1/2-z
-x,y,1/2-z
-x,-y,-z
x,y,-z
-x,y,1/2+z
x,-y,1/2+z
1/2+x,1/2+y,1/2+z
1/2-x,1/2-y,1/2+z
1/2+x,1/2-y,-z
1/2-x,1/2+y,-z
1/2-x,1/2-y,1/2-z
1/2+x,1/2+y,1/2-z
1/2-x,1/2+y,z
1/2+x,1/2-y,z
loop_
_atom_site_type_symbol
_atom_site_label
_atom_site_fract_x
_atom_site_fract_y
_atom_site_fract_z
Si Si1 0.435604 0.771821 0.605725
Si Si2 0.252755 0.367412 0.765005
Si Si3 0.798375 0.445641 0.643677
Si Si4 0.111562 0.408239 0.334796
Si Si5 0.288126 0.169432 0.439984
Si Si6 0.909042 0.238600 0.703970
O O1 0.365197 0.836793 0.634670
O O2 0.560651 0.801033 0.572007
O O3 0.325205 0.725241 0.577449
O O4 0.510428 0.731966 0.652039
O O5 0.292248 0.421813 0.808275
O O6 0.149213 0.401319 0.724707
O O7 0.203756 0.299076 0.797580
O O8 0.357565 0.333687 0.725710
O O9 0.807118 0.528210 0.639985
O O10 0.768228 0.400242 0.593776
O O11 0.951611 0.423241 0.659965
O O12 0.275966 0.155793 0.500000
O O13 0.000000 0.267423 0.750000
#
# Coordination Sequence:
#
# PCOD9525909 Si02
#       6
#    16  16  16  16  16  16
#     4  11  21  38  59  88 118 148 199 252 303 354
#     4  11  18  30  51  83 119 153 180 220 283 358
#     4  10  20  34  53  82 119 154 190 233 291 350
#     4  10  19  32  54  85 118 152 183 231 291 362
#     4  11  23  40  61  84 112 152 203 259 304 346
#     4  11  19  29  52  84 116 149 183 227 285 354
#
# _framework density 19.291885000000001
#
# number of rings (size 3 to 8) (size 9 to 14) (size 15 to 20)
#    0.000    1.333    5.000    3.500    0.000    1.333 
#    0.000    7.500    0.000   12.000    0.000    5.833 
#    0.000    0.000    0.000    0.000    0.000    0.000 
#
# Total GULP energy -267801.384104 kJ/mol
# GULP energy per Si atom -5579.195502 kJ/mol
# Density = 1.924798 g / cm^3
# Si number density = 19.291885 Si / 1000 Ang^3
#
#
#
# Elastic Constant Matrix: (Units=GPa)
#
#
# Indices 1 2 3 4 5 6 
#
# 1 36.6185 32.5308 33.1100 0.0000 0.0000 0.0000
# 2 32.5308 99.4214 55.2805 0.0000 0.0000 0.0000
# 3 33.1100 55.2805 153.6996 0.0000 0.0000 0.0000
# 4 0.0000 0.0000 0.0000 17.0625 0.0000 0.0000
# 5 0.0000 0.0000 0.0000 0.0000 22.0669 0.0000
# 6 0.0000 0.0000 0.0000 0.0000 0.0000 24.2567
#
#
#
# Elastic Compliance Matrix: (Units=1/GPa)
#
#
# Indices 1 2 3 4 5 6 
#
# 1 0.041426 -0.010741 -0.005061 0.000000 0.000000 0.000000
# 2 -0.010741 0.015357 -0.003210 0.000000 0.000000 0.000000
# 3 -0.005061 -0.003210 0.008751 0.000000 0.000000 0.000000
# 4 0.000000 0.000000 0.000000 0.058608 0.000000 0.000000
# 5 0.000000 0.000000 0.000000 0.000000 0.045317 0.000000
# 6 0.000000 0.000000 0.000000 0.000000 0.000000 0.041226
#
#
# Mechanical properties :
#
#
# Convention : Reuss Voigt Hill
#
# Bulk Modulus (GPa) = 36.34824 59.06465 47.70644
# Shear Modulus (GPa) = 19.38897 23.93177 21.66037
#
# Velocity S-wave (km/s) = 3.17366 3.52591 3.35441
# Velocity P-wave (km/s) = 5.68433 6.87451 6.30755
#
# Compressibility (1/GPa) = 0.02751165
#
# Stress axis : x y z
#
# Youngs Moduli (GPa) = 24.13915 65.11581 114.27443
#
# Poissons Ratio (x) = 0.69939 0.57834
# Poissons Ratio (y) = 0.25927 0.36679
# Poissons Ratio (z) = 0.12217 0.20900
#
# Static dielectric constant tensor:
#      x y z
#    x 1.782300 0.000000 0.000000 
#    y 0.000000 1.705600 0.000000 
#    z 0.000000 0.000000 1.667300 
# 
# From -- ./inp_files/43330.got.cif
#   From: 2010.05.17/outbox.cif.g08.bks.cpg/sg72_22_cif.got.tgz:43330.got - 2010.06.03 17:03:01.
