data_PCOD9525585
_publ_section_title
;
Structure prediction by ZEFSAII (Michael W. Deem and Ramdas Pophale) SiO2 
 PCOD9525585
Probable space group: I B A M
;
_chemical_formula_sum "Si O2"
_cell_formula_units_Z 88
_cell_length_a 11.205905
_cell_length_b 28.217507
_cell_length_c 14.065749
_cell_angle_alpha 90.000000
_cell_angle_beta 90.000000
_cell_angle_gamma 90.000000
_cell_volume 4447.627850
_symmetry_space_group_name_H-M "I B A M"
_symmetry_group_IT_number 72
_symmetry_cell_setting 'orthorhombic'
loop_
_space_group_symop_operation_xyz
x,y,z
-x,-y,z
x,-y,1/2-z
-x,y,1/2-z
-x,-y,-z
x,y,-z
-x,y,1/2+z
x,-y,1/2+z
1/2+x,1/2+y,1/2+z
1/2-x,1/2-y,1/2+z
1/2+x,1/2-y,-z
1/2-x,1/2+y,-z
1/2-x,1/2-y,1/2-z
1/2+x,1/2+y,1/2-z
1/2-x,1/2+y,z
1/2+x,1/2-y,z
loop_
_atom_site_type_symbol
_atom_site_label
_atom_site_fract_x
_atom_site_fract_y
_atom_site_fract_z
Si Si1 0.500000 0.198294 0.750000
Si Si2 0.704301 0.943596 0.749789
Si Si3 0.492948 0.942533 0.894586
Si Si4 0.359898 0.357263 0.256825
Si Si5 0.285590 0.215219 0.111664
Si Si6 0.188481 0.679766 0.392255
O O1 0.402085 0.222970 0.819976
O O2 0.578062 0.168744 0.824045
O O3 0.603969 0.929863 0.827807
O O4 0.635519 0.932526 0.651385
O O5 0.818496 0.911529 0.768203
O O6 0.726602 0.000000 0.750000
O O7 0.500000 0.000000 0.897325
O O8 0.506342 0.923453 0.000000
O O9 0.500000 0.350660 0.250000
O O10 0.293315 0.325489 0.337245
O O11 0.304470 0.341402 0.156428
O O12 0.208284 0.263304 0.112021
O O13 0.315731 0.205291 0.000000
O O14 0.171059 0.665815 0.500000
#
# Coordination Sequence:
#
# PCOD9525585 Si02
#       6
#     8  16  16  16  16  16
#     4  10  18  36  60  86 115 142 179 230 286 342
#     4   9  19  35  55  86 119 149 192 238 285 338
#     4   8  15  32  59  84 110 145 183 234 294 342
#     4  11  24  39  58  82 116 159 201 242 282 343
#     4  10  23  39  60  86 113 148 189 238 293 347
#     4  10  23  39  60  86 113 148 189 238 293 347
#
# _framework density 19.785827999999999
#
# number of rings (size 3 to 8) (size 9 to 14) (size 15 to 20)
#    0.000    2.364    0.000    3.818    5.091    8.364 
#    0.000    0.000    0.000    0.000    0.000    7.636 
#    0.000    0.000    0.000    0.000    0.000    0.000 
#
# Total GULP energy -245499.830292 kJ/mol
# GULP energy per Si atom -5579.541598 kJ/mol
# Density = 1.974079 g / cm^3
# Si number density = 19.785828 Si / 1000 Ang^3
#
#
#
# Elastic Constant Matrix: (Units=GPa)
#
#
# Indices 1 2 3 4 5 6 
#
# 1 116.5980 26.9712 53.0440 0.0000 0.0000 0.0000
# 2 26.9712 91.2786 21.1878 0.0001 0.0000 0.0000
# 3 53.0440 21.1878 167.9260 0.0006 -0.0001 0.0000
# 4 0.0000 0.0001 0.0006 9.5852 0.0000 0.0000
# 5 0.0000 0.0000 -0.0001 0.0000 13.2457 0.0000
# 6 0.0000 0.0000 0.0000 0.0000 0.0000 9.1170
#
#
#
# Elastic Compliance Matrix: (Units=1/GPa)
#
#
# Indices 1 2 3 4 5 6 
#
# 1 0.010504 -0.002404 -0.003015 0.000000 0.000000 0.000000
# 2 -0.002404 0.011836 -0.000734 0.000000 0.000000 0.000000
# 3 -0.003015 -0.000734 0.007000 0.000000 0.000000 0.000000
# 4 0.000000 0.000000 0.000000 0.104328 0.000000 0.000000
# 5 0.000000 0.000000 0.000000 0.000000 0.075496 0.000000
# 6 0.000000 0.000000 0.000000 0.000000 0.000000 0.109685
#
#
# Mechanical properties :
#
#
# Convention : Reuss Voigt Hill
#
# Bulk Modulus (GPa) = 58.70363 64.24537 61.47450
# Shear Modulus (GPa) = 14.84418 24.69622 19.77020
#
# Velocity S-wave (km/s) = 2.74203 3.53679 3.16446
# Velocity P-wave (km/s) = 6.30547 7.01565 6.67002
#
# Compressibility (1/GPa) = 0.01703472
#
# Stress axis : x y z
#
# Youngs Moduli (GPa) = 95.20161 84.48660 142.85944
#
# Poissons Ratio (x) = 0.20310 0.43067
# Poissons Ratio (y) = 0.22886 0.10487
# Poissons Ratio (z) = 0.28700 0.06202
#
# Static dielectric constant tensor:
#      x y z
#    x 1.680650 0.000000 0.000000 
#    y 0.000000 1.753740 0.000000 
#    z 0.000000 0.000000 1.709230 
# 
# From -- ./inp_files/20502.got.cif
#   From: 2010.05.17/outbox.cif.g08.bks.cpg/sg72_11_cif.got.tgz:20502.got - 2010.06.03 17:03:01.
