data_PCOD9525687
_publ_section_title
;
Structure prediction by ZEFSAII (Michael W. Deem and Ramdas Pophale) SiO2 
 PCOD9525687
Probable space group: I B A M
;
_chemical_formula_sum "Si O2"
_cell_formula_units_Z 96
_cell_length_a 9.582159
_cell_length_b 22.368574
_cell_length_c 25.653109
_cell_angle_alpha 90.000000
_cell_angle_beta 90.000000
_cell_angle_gamma 90.000000
_cell_volume 5498.467699
_symmetry_space_group_name_H-M "I B A M"
_symmetry_group_IT_number 72
_symmetry_cell_setting 'orthorhombic'
loop_
_space_group_symop_operation_xyz
x,y,z
-x,-y,z
x,-y,1/2-z
-x,y,1/2-z
-x,-y,-z
x,y,-z
-x,y,1/2+z
x,-y,1/2+z
1/2+x,1/2+y,1/2+z
1/2-x,1/2-y,1/2+z
1/2+x,1/2-y,-z
1/2-x,1/2+y,-z
1/2-x,1/2-y,1/2-z
1/2+x,1/2+y,1/2-z
1/2-x,1/2+y,z
1/2+x,1/2-y,z
loop_
_atom_site_type_symbol
_atom_site_label
_atom_site_fract_x
_atom_site_fract_y
_atom_site_fract_z
Si Si1 0.087237 0.938671 0.439835
Si Si2 0.210258 0.055335 0.289171
Si Si3 0.317339 0.130260 0.197301
Si Si4 0.881558 0.241826 0.788803
Si Si5 0.497750 0.363609 0.655989
Si Si6 0.854218 0.522101 0.376655
O O1 0.092394 0.920209 0.500000
O O2 0.239590 0.955314 0.417410
O O3 0.018041 0.889181 0.402253
O O4 0.000000 0.000000 0.435764
O O5 0.295598 0.104607 0.255707
O O6 0.067923 0.084583 0.309171
O O7 0.188255 0.000000 0.250000
O O8 0.288860 0.029339 0.339597
O O9 0.405525 0.190498 0.192999
O O10 0.379172 0.077294 0.162740
O O11 0.161379 0.144606 0.175598
O O12 0.750000 0.250000 0.750000
O O13 0.900733 0.193589 0.834912
O O14 0.000000 0.220178 0.750000
O O15 0.000000 0.500000 0.399437
#
# Coordination Sequence:
#
# PCOD9525687 Si02
#       6
#    16  16  16  16  16  16
#     4  10  21  39  62  82 103 140 193 248 294 340
#     4  10  19  30  50  78 117 153 185 221 275 350
#     4  10  22  33  51  79 121 156 189 222 272 346
#     4  12  22  35  52  81 116 156 193 229 269 337
#     4  11  20  36  54  80 109 150 196 230 285 339
#     4  10  22  35  54  87 115 149 183 232 299 344
#
# _framework density 17.459409000000001
#
# number of rings (size 3 to 8) (size 9 to 14) (size 15 to 20)
#    0.000    1.500    5.000    0.500    2.333    6.000 
#    0.000    0.000    0.000    4.000    0.000    0.000 
#    0.000    0.000    0.000    0.000    0.000    0.000 
#
# Total GULP energy -267635.923441 kJ/mol
# GULP energy per Si atom -5575.748405 kJ/mol
# Density = 1.741967 g / cm^3
# Si number density = 17.459409 Si / 1000 Ang^3
#
#
#
# Elastic Constant Matrix: (Units=GPa)
#
#
# Indices 1 2 3 4 5 6 
#
# 1 53.4730 12.6750 30.6041 0.0000 0.0000 0.0000
# 2 12.6750 85.8810 49.5596 0.0000 0.0000 0.0000
# 3 30.6041 49.5596 110.0785 0.0000 0.0000 0.0000
# 4 0.0000 0.0000 0.0000 22.3116 0.0000 0.0000
# 5 0.0000 0.0000 0.0000 0.0000 11.4585 0.0000
# 6 0.0000 0.0000 0.0000 0.0000 0.0000 28.4217
#
#
#
# Elastic Compliance Matrix: (Units=1/GPa)
#
#
# Indices 1 2 3 4 5 6 
#
# 1 0.022249 0.000386 -0.006360 0.000000 0.000000 0.000000
# 2 0.000386 0.015738 -0.007193 0.000000 0.000000 0.000000
# 3 -0.006360 -0.007193 0.014091 0.000000 0.000000 0.000000
# 4 0.000000 0.000000 0.000000 0.044820 0.000000 0.000000
# 5 0.000000 0.000000 0.000000 0.000000 0.087271 0.000000
# 6 0.000000 0.000000 0.000000 0.000000 0.000000 0.035184
#
#
# Mechanical properties :
#
#
# Convention : Reuss Voigt Hill
#
# Bulk Modulus (GPa) = 38.84179 48.34555 43.59367
# Shear Modulus (GPa) = 19.66429 22.87794 21.27112
#
# Velocity S-wave (km/s) = 3.35966 3.62380 3.49423
# Velocity P-wave (km/s) = 6.11105 6.72753 6.42669
#
# Compressibility (1/GPa) = 0.02574547
#
# Stress axis : x y z
#
# Youngs Moduli (GPa) = 44.94528 63.54113 70.96767
#
# Poissons Ratio (x) = -0.02454 0.45133
# Poissons Ratio (y) = -0.01736 0.51046
# Poissons Ratio (z) = 0.28584 0.45704
#
# Static dielectric constant tensor:
#      x y z
#    x 1.636380 0.000000 0.000000 
#    y 0.000000 1.659400 0.000000 
#    z 0.000000 0.000000 1.596280 
# 
# From -- ./inp_files/42454.got.cif
#   From: 2010.05.17/outbox.cif.g08.bks.cpg/sg72_22_cif.got.tgz:42454.got - 2010.06.03 17:03:01.
