data_PCOD9525184
_publ_section_title
;
Structure prediction by ZEFSAII (Michael W. Deem and Ramdas Pophale) SiO2 
 PCOD9525184
Probable space group: I B A M
;
_chemical_formula_sum "Si O2"
_cell_formula_units_Z 96
_cell_length_a 27.265422
_cell_length_b 23.589594
_cell_length_c 8.716875
_cell_angle_alpha 90.000000
_cell_angle_beta 90.000000
_cell_angle_gamma 90.000000
_cell_volume 5606.521713
_symmetry_space_group_name_H-M "I B A M"
_symmetry_group_IT_number 72
_symmetry_cell_setting 'orthorhombic'
loop_
_space_group_symop_operation_xyz
x,y,z
-x,-y,z
x,-y,1/2-z
-x,y,1/2-z
-x,-y,-z
x,y,-z
-x,y,1/2+z
x,-y,1/2+z
1/2+x,1/2+y,1/2+z
1/2-x,1/2-y,1/2+z
1/2+x,1/2-y,-z
1/2-x,1/2+y,-z
1/2-x,1/2-y,1/2-z
1/2+x,1/2+y,1/2-z
1/2-x,1/2+y,z
1/2+x,1/2-y,z
loop_
_atom_site_type_symbol
_atom_site_label
_atom_site_fract_x
_atom_site_fract_y
_atom_site_fract_z
Si Si1 0.048320 0.250844 0.827789
Si Si2 0.615319 0.840054 0.180943
Si Si3 0.447429 0.563515 0.185976
Si Si4 0.129936 0.154366 0.826997
Si Si5 0.195747 0.752294 0.183051
Si Si6 0.552918 0.063237 0.183378
O O1 0.070203 0.298323 0.717485
O O2 0.087181 0.200992 0.838588
O O3 0.000000 0.228075 0.750000
O O4 0.040161 0.273487 0.000000
O O5 0.662130 0.801940 0.234522
O O6 0.598281 0.897154 0.265206
O O7 0.620335 0.850615 0.000000
O O8 0.442592 0.500000 0.250000
O O9 0.500000 0.585109 0.250000
O O10 0.399739 0.600018 0.233900
O O11 0.449528 0.564117 0.000000
O O12 0.170790 0.188234 0.732769
O O13 0.148235 0.142244 0.000000
O O14 0.250000 0.750000 0.250000
O O15 0.196887 0.749754 0.000000
O O16 0.500000 0.083797 0.250000
O O17 0.559521 0.000000 0.250000
O O18 0.549508 0.061623 0.000000
#
# Coordination Sequence:
#
# PCOD9525184 Si02
#       6
#    16  16  16  16  16  16
#     4  10  18  28  43  66  96 129 161 199 244 294
#     4  10  20  34  50  72  99 130 166 204 247 298
#     4  10  19  31  48  72 103 140 175 210 246 291
#     4   9  19  33  49  70  98 130 167 207 250 297
#     4  10  21  36  57  79 101 128 162 207 259 309
#     4  11  21  34  52  75 105 141 175 209 244 289
#
# _framework density 17.122914999999999
#
# number of rings (size 3 to 8) (size 9 to 14) (size 15 to 20)
#    0.000    2.000    0.000    5.500    0.000    4.000 
#    0.000    0.000    0.000    1.000    0.000    4.667 
#    0.000    0.000    0.000    0.000    0.000    0.000 
#
# Total GULP energy -267450.028859 kJ/mol
# GULP energy per Si atom -5571.875601 kJ/mol
# Density = 1.708394 g / cm^3
# Si number density = 17.122915 Si / 1000 Ang^3
#
#
#
# Elastic Constant Matrix: (Units=GPa)
#
#
# Indices 1 2 3 4 5 6 
#
# 1 105.3076 51.0405 48.2838 0.0000 0.0000 0.0000
# 2 51.0405 86.4633 26.0348 0.0000 0.0000 0.0000
# 3 48.2838 26.0348 73.7620 0.0000 0.0000 0.0000
# 4 0.0000 0.0000 0.0000 22.2938 0.0000 0.0000
# 5 0.0000 0.0000 0.0000 0.0000 25.3113 0.0000
# 6 0.0000 0.0000 0.0000 0.0000 0.0000 21.8735
#
#
#
# Elastic Compliance Matrix: (Units=1/GPa)
#
#
# Indices 1 2 3 4 5 6 
#
# 1 0.017023 -0.007490 -0.008500 0.000000 0.000000 0.000000
# 2 -0.007490 0.016236 -0.000828 0.000000 0.000000 0.000000
# 3 -0.008500 -0.000828 0.019413 0.000000 0.000000 0.000000
# 4 0.000000 0.000000 0.000000 0.044855 0.000000 0.000000
# 5 0.000000 0.000000 0.000000 0.000000 0.039508 0.000000
# 6 0.000000 0.000000 0.000000 0.000000 0.000000 0.045717
#
#
# Mechanical properties :
#
#
# Convention : Reuss Voigt Hill
#
# Bulk Modulus (GPa) = 52.52704 57.36124 54.94414
# Shear Modulus (GPa) = 22.44826 23.24063 22.84445
#
# Velocity S-wave (km/s) = 3.62471 3.68813 3.65656
# Velocity P-wave (km/s) = 6.94702 7.19088 7.07000
#
# Compressibility (1/GPa) = 0.01903782
#
# Stress axis : x y z
#
# Youngs Moduli (GPa) = 58.74317 61.59073 51.51143
#
# Poissons Ratio (x) = 0.46130 0.43783
# Poissons Ratio (y) = 0.43997 0.04265
# Poissons Ratio (z) = 0.49930 0.05100
#
# Static dielectric constant tensor:
#      x y z
#    x 1.590450 0.000000 0.000000 
#    y 0.000000 1.606720 0.000000 
#    z 0.000000 0.000000 1.576880 
# 
# From -- ./inp_files/8271.got.cif
#   From: 2010.05.17/outbox.cif.g08.bks.cpg/sg72_5_cif.got.tgz:8271.got - 2010.06.03 17:03:01.
