data_PCOD9525092
_publ_section_title
;
Structure prediction by ZEFSAII (Michael W. Deem and Ramdas Pophale) SiO2 
 PCOD9525092
Probable space group: I B A M
;
_chemical_formula_sum "Si O2"
_cell_formula_units_Z 72
_cell_length_a 23.130296
_cell_length_b 9.357588
_cell_length_c 18.600213
_cell_angle_alpha 90.000000
_cell_angle_beta 90.000000
_cell_angle_gamma 90.000000
_cell_volume 4025.900416
_symmetry_space_group_name_H-M "I B A M"
_symmetry_group_IT_number 72
_symmetry_cell_setting 'orthorhombic'
loop_
_space_group_symop_operation_xyz
x,y,z
-x,-y,z
x,-y,1/2-z
-x,y,1/2-z
-x,-y,-z
x,y,-z
-x,y,1/2+z
x,-y,1/2+z
1/2+x,1/2+y,1/2+z
1/2-x,1/2-y,1/2+z
1/2+x,1/2-y,-z
1/2-x,1/2+y,-z
1/2-x,1/2-y,1/2-z
1/2+x,1/2+y,1/2-z
1/2-x,1/2+y,z
1/2+x,1/2-y,z
loop_
_atom_site_type_symbol
_atom_site_label
_atom_site_fract_x
_atom_site_fract_y
_atom_site_fract_z
Si Si1 0.226909 0.699083 0.827519
Si Si2 0.557506 0.594364 0.583459
Si Si3 0.640360 0.000000 0.750000
Si Si4 0.172525 0.003685 0.337930
Si Si5 0.034316 0.648288 0.682014
O O1 0.250000 0.750000 0.750000
O O2 0.179398 0.579812 0.808306
O O3 0.197878 0.840755 0.859923
O O4 0.281463 0.618161 0.861885
O O5 0.500000 0.500000 0.589691
O O6 0.574054 0.603571 0.500000
O O7 0.610382 0.528646 0.628717
O O8 0.540510 0.747390 0.616030
O O9 0.597890 0.110138 0.789197
O O10 0.169047 0.000000 0.250000
O O11 0.000000 0.500000 0.666692
O O12 0.000000 0.715231 0.750000
#
# Coordination Sequence:
#
# PCOD9525092 Si02
#       5
#    16  16   8  16  16
#     4  10  17  31  55  90 120 143 188 242 298 336
#     4  11  26  42  57  84 123 159 196 243 301 362
#     4  10  17  32  58  94 121 142 190 252 294 342
#     4  10  21  34  61  88 114 154 195 247 289 346
#     4   9  21  36  61  92 117 150 200 247 287 350
#
# _framework density 17.884198999999999
#
# number of rings (size 3 to 8) (size 9 to 14) (size 15 to 20)
#    0.000    2.222    3.333    2.667    9.333    0.444 
#    0.000    1.111    0.000    0.000    0.000    0.000 
#    0.000    0.000    0.000    0.000    0.000    0.000 
#
# Total GULP energy -200692.151124 kJ/mol
# GULP energy per Si atom -5574.781976 kJ/mol
# Density = 1.784349 g / cm^3
# Si number density = 17.884199 Si / 1000 Ang^3
#
#
#
# Elastic Constant Matrix: (Units=GPa)
#
#
# Indices 1 2 3 4 5 6 
#
# 1 111.7569 33.3916 37.9207 0.0000 0.0000 0.0000
# 2 33.3916 70.5068 36.0398 0.0000 0.0000 0.0000
# 3 37.9207 36.0398 55.3497 0.0000 0.0000 0.0000
# 4 0.0000 0.0000 0.0000 8.4434 0.0000 0.0000
# 5 0.0000 0.0000 0.0000 0.0000 10.7353 0.0000
# 6 0.0000 0.0000 0.0000 0.0000 0.0000 9.9145
#
#
#
# Elastic Compliance Matrix: (Units=1/GPa)
#
#
# Indices 1 2 3 4 5 6 
#
# 1 0.011881 -0.002197 -0.006709 0.000000 0.000000 0.000000
# 2 -0.002197 0.021665 -0.012601 0.000000 0.000000 0.000000
# 3 -0.006709 -0.012601 0.030868 0.000000 0.000000 0.000000
# 4 0.000000 0.000000 0.000000 0.118436 0.000000 0.000000
# 5 0.000000 0.000000 0.000000 0.000000 0.093151 0.000000
# 6 0.000000 0.000000 0.000000 0.000000 0.000000 0.100863
#
#
# Mechanical properties :
#
#
# Convention : Reuss Voigt Hill
#
# Bulk Modulus (GPa) = 46.73105 50.25751 48.49428
# Shear Modulus (GPa) = 11.70929 14.50272 13.10600
#
# Velocity S-wave (km/s) = 2.56154 2.85076 2.71001
# Velocity P-wave (km/s) = 5.91060 6.24487 6.08003
#
# Compressibility (1/GPa) = 0.02139905
#
# Stress axis : x y z
#
# Youngs Moduli (GPa) = 84.16778 46.15778 32.39565
#
# Poissons Ratio (x) = 0.10143 0.21734
# Poissons Ratio (y) = 0.18495 0.40822
# Poissons Ratio (z) = 0.56468 0.58164
#
# Static dielectric constant tensor:
#      x y z
#    x 1.690410 0.000000 0.000000 
#    y 0.000000 1.641090 0.000000 
#    z 0.000000 0.000000 1.581120 
# 
# From -- ./inp_files/40074.got.cif
#   From: 2010.05.17/outbox.cif.g08.bks.cpg/sg72_21_cif.got.tgz:40074.got - 2010.06.03 17:03:01.
