data_PCOD9525570
_publ_section_title
;
Structure prediction by ZEFSAII (Michael W. Deem and Ramdas Pophale) SiO2 
 PCOD9525570
Probable space group: I B A M
;
_chemical_formula_sum "Si O2"
_cell_formula_units_Z 116
_cell_length_a 14.151912
_cell_length_b 14.349727
_cell_length_c 23.783200
_cell_angle_alpha 90.000000
_cell_angle_beta 90.000000
_cell_angle_gamma 90.000000
_cell_volume 4829.798877
_symmetry_space_group_name_H-M "I B A M"
_symmetry_group_IT_number 72
_symmetry_cell_setting 'orthorhombic'
loop_
_space_group_symop_operation_xyz
x,y,z
-x,-y,z
x,-y,1/2-z
-x,y,1/2-z
-x,-y,-z
x,y,-z
-x,y,1/2+z
x,-y,1/2+z
1/2+x,1/2+y,1/2+z
1/2-x,1/2-y,1/2+z
1/2+x,1/2-y,-z
1/2-x,1/2+y,-z
1/2-x,1/2-y,1/2-z
1/2+x,1/2+y,1/2-z
1/2-x,1/2+y,z
1/2+x,1/2-y,z
loop_
_atom_site_type_symbol
_atom_site_label
_atom_site_fract_x
_atom_site_fract_y
_atom_site_fract_z
Si Si1 0.604736 0.701940 0.264114
Si Si2 0.627899 0.675713 0.141893
Si Si3 0.366684 0.477219 0.668419
Si Si4 0.141991 0.501989 0.185122
Si Si5 0.824626 0.146178 0.562551
Si Si6 0.161599 0.681786 0.627712
Si Si7 0.000000 0.500000 0.000000
Si Si8 0.099918 0.639332 0.090784
O O1 0.500000 0.735593 0.250000
O O2 0.654107 0.712889 0.204297
O O3 0.601401 0.594340 0.283589
O O4 0.648356 0.755955 0.316334
O O5 0.582967 0.575632 0.155577
O O6 0.729294 0.657915 0.114178
O O7 0.573708 0.753186 0.105853
O O8 0.256637 0.497554 0.684284
O O9 0.363657 0.421793 0.609931
O O10 0.112170 0.500000 0.250000
O O11 0.113612 0.413737 0.146464
O O12 0.106865 0.590875 0.151636
O O13 0.849297 0.117730 0.500000
O O14 0.862708 0.249837 0.576738
O O15 0.709716 0.144128 0.569330
O O16 0.960079 0.425115 0.951076
#
# Coordination Sequence:
#
# PCOD9525570 Si02
#       8
#    16  16  16  16  16  16   4  16
#     4  11  21  33  57  90 130 162 190 248 317 397
#     4  10  19  36  56  85 116 159 206 250 305 376
#     4   9  19  33  56  91 124 155 193 248 327 372
#     4  10  18  35  60  89 119 151 201 260 318 373
#     4   9  17  36  58  87 115 149 203 264 303 359
#     4   9  19  34  57  89 117 155 202 251 305 360
#     4  12  24  44  54  72 120 166 216 260 320 368
#     4  10  22  37  59  80 112 161 203 261 312 371
#
# _framework density 24.017562999999999
#
# number of rings (size 3 to 8) (size 9 to 14) (size 15 to 20)
#    0.000    2.207    0.690    4.138    0.000    2.207 
#    2.483    3.103    0.000    0.000    0.000    1.931 
#    0.000    0.000    0.000    0.000    0.000    0.000 
#
# Total GULP energy -323345.150822 kJ/mol
# GULP energy per Si atom -5574.916393 kJ/mol
# Density = 2.396290 g / cm^3
# Si number density = 24.017563 Si / 1000 Ang^3
#
#
#
# Elastic Constant Matrix: (Units=GPa)
#
#
# Indices 1 2 3 4 5 6 
#
# 1 85.4123 20.3722 12.8906 0.0000 0.0000 0.0000
# 2 20.3722 145.2036 36.8816 0.0000 0.0000 0.0000
# 3 12.8906 36.8816 147.7624 0.0000 0.0000 0.0000
# 4 0.0000 0.0000 0.0000 31.9512 0.0000 0.0000
# 5 0.0000 0.0000 0.0000 0.0000 10.7006 0.0000
# 6 0.0000 0.0000 0.0000 0.0000 0.0000 2.0068
#
#
#
# Elastic Compliance Matrix: (Units=1/GPa)
#
#
# Indices 1 2 3 4 5 6 
#
# 1 0.012177 -0.001536 -0.000679 0.000000 0.000000 0.000000
# 2 -0.001536 0.007547 -0.001750 0.000000 0.000000 0.000000
# 3 -0.000679 -0.001750 0.007264 0.000000 0.000000 0.000000
# 4 0.000000 0.000000 0.000000 0.031298 0.000000 0.000000
# 5 0.000000 0.000000 0.000000 0.000000 0.093453 0.000000
# 6 0.000000 0.000000 0.000000 0.000000 0.000000 0.498308
#
#
# Mechanical properties :
#
#
# Convention : Reuss Voigt Hill
#
# Bulk Modulus (GPa) = 52.47144 57.62966 55.05055
# Shear Modulus (GPa) = 7.52641 29.48063 18.50352
#
# Velocity S-wave (km/s) = 1.77215 3.50732 2.77865
# Velocity P-wave (km/s) = 5.10704 6.35992 5.76760
#
# Compressibility (1/GPa) = 0.01905799
#
# Stress axis : x y z
#
# Youngs Moduli (GPa) = 82.12386 132.50653 137.67333
#
# Poissons Ratio (x) = 0.20353 0.09347
# Poissons Ratio (y) = 0.12614 0.24089
# Poissons Ratio (z) = 0.05575 0.23185
#
# Static dielectric constant tensor:
#      x y z
#    x 1.968060 0.000000 0.000000 
#    y 0.000000 1.979260 0.000000 
#    z 0.000000 0.000000 1.863120 
# 
# From -- ./inp_files/44967.got.cif
#   From: 2010.05.17/outbox.cif.g08.bks.cpg/sg72_23_cif.got.tgz:44967.got - 2010.06.03 17:03:01.
