data_PCOD9525644
_publ_section_title
;
Structure prediction by ZEFSAII (Michael W. Deem and Ramdas Pophale) SiO2 
 PCOD9525644
Probable space group: I B A M
;
_chemical_formula_sum "Si O2"
_cell_formula_units_Z 80
_cell_length_a 27.769528
_cell_length_b 9.884622
_cell_length_c 13.944030
_cell_angle_alpha 90.000000
_cell_angle_beta 90.000000
_cell_angle_gamma 90.000000
_cell_volume 3827.514746
_symmetry_space_group_name_H-M "I B A M"
_symmetry_group_IT_number 72
_symmetry_cell_setting 'orthorhombic'
loop_
_space_group_symop_operation_xyz
x,y,z
-x,-y,z
x,-y,1/2-z
-x,y,1/2-z
-x,-y,-z
x,y,-z
-x,y,1/2+z
x,-y,1/2+z
1/2+x,1/2+y,1/2+z
1/2-x,1/2-y,1/2+z
1/2+x,1/2-y,-z
1/2-x,1/2+y,-z
1/2-x,1/2-y,1/2-z
1/2+x,1/2+y,1/2-z
1/2-x,1/2+y,z
1/2+x,1/2-y,z
loop_
_atom_site_type_symbol
_atom_site_label
_atom_site_fract_x
_atom_site_fract_y
_atom_site_fract_z
Si Si1 0.144588 0.286019 0.393283
Si Si2 0.152854 0.959569 0.391734
Si Si3 0.495205 0.337226 0.107985
Si Si4 0.917160 0.223941 0.266698
Si Si5 0.757487 0.377400 0.819151
O O1 0.124394 0.317332 0.500000
O O2 0.116292 0.326836 0.295192
O O3 0.198052 0.345629 0.387409
O O4 0.149211 0.122057 0.385791
O O5 0.138737 0.921202 0.500000
O O6 0.118500 0.881648 0.318064
O O7 0.207521 0.914982 0.370703
O O8 0.500000 0.500000 0.105500
O O9 0.541384 0.258409 0.152082
O O10 0.450614 0.322691 0.178831
O O11 0.486227 0.291302 0.000000
O O12 0.770378 0.500000 0.750000
O O13 0.750000 0.250000 0.750000
#
# Coordination Sequence:
#
# PCOD9525644 Si02
#       5
#    16  16  16  16  16
#     4  11  22  36  57  84 115 154 197 241 294 354
#     4  11  21  34  54  82 116 156 198 241 292 353
#     4  10  19  29  46  75 112 152 195 243 296 353
#     4  11  19  32  51  77 115 157 195 239 296 354
#     4  12  22  40  61  82 117 157 198 243 294 348
#
# _framework density 20.901292000000002
#
# number of rings (size 3 to 8) (size 9 to 14) (size 15 to 20)
#    0.000    1.000    4.000    6.000    0.000    3.200 
#    0.000    0.000    0.000    0.000    0.000    2.800 
#    0.000    8.000    0.000    0.000    0.000    0.000 
#
# Total GULP energy -222995.747151 kJ/mol
# GULP energy per Si atom -5574.893679 kJ/mol
# Density = 2.085372 g / cm^3
# Si number density = 20.901292 Si / 1000 Ang^3
#
#
#
# Elastic Constant Matrix: (Units=GPa)
#
#
# Indices 1 2 3 4 5 6 
#
# 1 131.0530 5.3264 47.5064 0.0000 0.0000 0.0000
# 2 5.3264 32.1403 15.9224 0.0000 0.0000 0.0000
# 3 47.5064 15.9224 175.6906 0.0000 0.0000 0.0000
# 4 0.0000 0.0000 0.0000 3.6677 0.0000 0.0000
# 5 0.0000 0.0000 0.0000 0.0000 5.2702 0.0000
# 6 0.0000 0.0000 0.0000 0.0000 0.0000 10.8922
#
#
#
# Elastic Compliance Matrix: (Units=1/GPa)
#
#
# Indices 1 2 3 4 5 6 
#
# 1 0.008462 -0.000281 -0.002263 0.000000 0.000000 0.000000
# 2 -0.000281 0.032585 -0.002877 0.000000 0.000000 0.000000
# 3 -0.002263 -0.002877 0.006564 0.000000 0.000000 0.000000
# 4 0.000000 0.000000 0.000000 0.272652 0.000000 0.000000
# 5 0.000000 0.000000 0.000000 0.000000 0.189745 0.000000
# 6 0.000000 0.000000 0.000000 0.000000 0.000000 0.091809
#
#
# Mechanical properties :
#
#
# Convention : Reuss Voigt Hill
#
# Bulk Modulus (GPa) = 27.19627 52.93269 40.06448
# Shear Modulus (GPa) = 8.00107 21.97461 14.98784
#
# Velocity S-wave (km/s) = 1.95866 3.24597 2.68073
# Velocity P-wave (km/s) = 4.26088 6.27921 5.36580
#
# Compressibility (1/GPa) = 0.03676975
#
# Stress axis : x y z
#
# Youngs Moduli (GPa) = 118.17340 30.68850 152.33744
#
# Poissons Ratio (x) = 0.00864 0.34468
# Poissons Ratio (y) = 0.03326 0.43828
# Poissons Ratio (z) = 0.26738 0.08829
#
# Static dielectric constant tensor:
#      x y z
#    x 1.838120 0.000000 0.000000 
#    y 0.000000 1.720130 0.000000 
#    z 0.000000 0.000000 1.799570 
# 
# From -- ./inp_files/20439.got.cif
#   From: 2010.05.17/outbox.cif.g08.bks.cpg/sg72_11_cif.got.tgz:20439.got - 2010.06.03 17:03:01.
