data_PCOD9525462
_publ_section_title
;
Structure prediction by ZEFSAII (Michael W. Deem and Ramdas Pophale) SiO2 
 PCOD9525462
Probable space group: I B A M
;
_chemical_formula_sum "Si O2"
_cell_formula_units_Z 56
_cell_length_a 5.028070
_cell_length_b 31.124621
_cell_length_c 19.970908
_cell_angle_alpha 90.000000
_cell_angle_beta 90.000000
_cell_angle_gamma 90.000000
_cell_volume 3125.382658
_symmetry_space_group_name_H-M "I B A M"
_symmetry_group_IT_number 72
_symmetry_cell_setting 'orthorhombic'
loop_
_space_group_symop_operation_xyz
x,y,z
-x,-y,z
x,-y,1/2-z
-x,y,1/2-z
-x,-y,-z
x,y,-z
-x,y,1/2+z
x,-y,1/2+z
1/2+x,1/2+y,1/2+z
1/2-x,1/2-y,1/2+z
1/2+x,1/2-y,-z
1/2-x,1/2+y,-z
1/2-x,1/2-y,1/2-z
1/2+x,1/2+y,1/2-z
1/2-x,1/2+y,z
1/2+x,1/2-y,z
loop_
_atom_site_type_symbol
_atom_site_label
_atom_site_fract_x
_atom_site_fract_y
_atom_site_fract_z
Si Si1 0.643415 0.661368 0.378847
Si Si2 0.500000 0.282179 0.750000
Si Si3 0.880799 0.612293 0.075459
Si Si4 0.193244 0.222633 0.000000
Si Si5 0.746933 0.030989 0.000000
O O1 0.553618 0.686548 0.312835
O O2 0.881879 0.626249 0.375102
O O3 0.744237 0.696210 0.432639
O O4 0.381770 0.638860 0.408174
O O5 0.750000 0.250000 0.750000
O O6 0.784002 0.563145 0.063876
O O7 0.981824 0.622708 0.000000
O O8 0.386890 0.263228 0.000000
O O9 0.500000 0.000000 0.000000
O O10 0.000000 0.000000 0.000000
#
# Coordination Sequence:
#
# PCOD9525462 Si02
#       5
#    16   8  16   8   8
#     4  12  21  39  54  79 113 151 196 247 284 358
#     4  12  26  42  56  80 115 158 207 260 304 338
#     4  10  20  35  58  84 115 147 188 227 293 349
#     4  12  20  30  50  74  98 136 184 238 294 332
#     4  10  18  32  56  94 128 142 172 236 298 348
#
# _framework density 17.917805000000001
#
# number of rings (size 3 to 8) (size 9 to 14) (size 15 to 20)
#    0.857    0.000    2.857    6.857    0.000    0.000 
#    0.000    0.000    0.000    0.000    0.000   15.000 
#    0.000    0.000    0.000    0.000    0.000    0.000 
#
# Total GULP energy -156002.095532 kJ/mol
# GULP energy per Si atom -5571.503412 kJ/mol
# Density = 1.787702 g / cm^3
# Si number density = 17.917805 Si / 1000 Ang^3
#
#
#
# Elastic Constant Matrix: (Units=GPa)
#
#
# Indices 1 2 3 4 5 6 
#
# 1 103.1021 39.7818 9.0250 0.0000 0.0000 0.0000
# 2 39.7818 116.4986 50.4518 0.0000 0.0000 0.0000
# 3 9.0250 50.4518 68.6191 0.0000 0.0000 0.0000
# 4 0.0000 0.0000 0.0000 24.7093 0.0000 0.0000
# 5 0.0000 0.0000 0.0000 0.0000 15.9102 0.0000
# 6 0.0000 0.0000 0.0000 0.0000 0.0000 47.2901
#
#
#
# Elastic Compliance Matrix: (Units=1/GPa)
#
#
# Indices 1 2 3 4 5 6 
#
# 1 0.011353 -0.004739 0.001991 0.000000 0.000000 0.000000
# 2 -0.004739 0.014572 -0.010091 0.000000 0.000000 0.000000
# 3 0.001991 -0.010091 0.021730 0.000000 0.000000 0.000000
# 4 0.000000 0.000000 0.000000 0.040471 0.000000 0.000000
# 5 0.000000 0.000000 0.000000 0.000000 0.062853 0.000000
# 6 0.000000 0.000000 0.000000 0.000000 0.000000 0.021146
#
#
# Mechanical properties :
#
#
# Convention : Reuss Voigt Hill
#
# Bulk Modulus (GPa) = 45.49889 54.08190 49.79039
# Shear Modulus (GPa) = 24.37485 30.17934 27.27709
#
# Velocity S-wave (km/s) = 3.69232 4.10850 3.90596
# Velocity P-wave (km/s) = 6.60499 7.26328 6.94194
#
# Compressibility (1/GPa) = 0.02197856
#
# Stress axis : x y z
#
# Youngs Moduli (GPa) = 88.07865 68.62391 46.01829
#
# Poissons Ratio (x) = 0.32523 -0.09164
# Poissons Ratio (y) = 0.41744 0.46436
# Poissons Ratio (z) = -0.17540 0.69247
#
# Static dielectric constant tensor:
#      x y z
#    x 1.588470 0.000000 0.000000 
#    y 0.000000 1.689810 0.000000 
#    z 0.000000 0.000000 1.614940 
# 
# From -- ./inp_files/26990.got.cif
#   From: 2010.05.17/outbox.cif.g08.bks.cpg/sg72_14_cif.got.tgz:26990.got - 2010.06.03 17:03:01.
