data_PCOD9525067
_publ_section_title
;
Structure prediction by ZEFSAII (Michael W. Deem and Ramdas Pophale) SiO2 
 PCOD9525067
Probable space group: I B A M
;
_chemical_formula_sum "Si O2"
_cell_formula_units_Z 96
_cell_length_a 30.034540
_cell_length_b 20.308527
_cell_length_c 8.718370
_cell_angle_alpha 90.000000
_cell_angle_beta 90.000000
_cell_angle_gamma 90.000000
_cell_volume 5317.833134
_symmetry_space_group_name_H-M "I B A M"
_symmetry_group_IT_number 72
_symmetry_cell_setting 'orthorhombic'
loop_
_space_group_symop_operation_xyz
x,y,z
-x,-y,z
x,-y,1/2-z
-x,y,1/2-z
-x,-y,-z
x,y,-z
-x,y,1/2+z
x,-y,1/2+z
1/2+x,1/2+y,1/2+z
1/2-x,1/2-y,1/2+z
1/2+x,1/2-y,-z
1/2-x,1/2+y,-z
1/2-x,1/2-y,1/2-z
1/2+x,1/2+y,1/2-z
1/2-x,1/2+y,z
1/2+x,1/2-y,z
loop_
_atom_site_type_symbol
_atom_site_label
_atom_site_fract_x
_atom_site_fract_y
_atom_site_fract_z
Si Si1 0.163477 0.569410 0.815679
Si Si2 0.209086 0.207799 0.317390
Si Si3 0.450539 0.702465 0.181993
Si Si4 0.767783 0.929774 0.816255
Si Si5 0.050580 0.067016 0.683481
Si Si6 0.878635 0.294030 0.184027
O O1 0.147714 0.500000 0.750000
O O2 0.215446 0.577858 0.770762
O O3 0.135080 0.632476 0.767543
O O4 0.162781 0.567019 0.000000
O O5 0.214834 0.203064 0.500000
O O6 0.250000 0.250000 0.250000
O O7 0.208258 0.134872 0.247095
O O8 0.163979 0.247703 0.286639
O O9 0.500000 0.710759 0.250000
O O10 0.430103 0.635894 0.257233
O O11 0.420247 0.763555 0.228902
O O12 0.453283 0.693656 0.000000
O O13 0.783233 0.000000 0.750000
O O14 0.770387 0.931150 0.000000
O O15 0.049394 0.064857 0.500000
O O16 0.000000 0.068034 0.750000
O O17 0.071486 0.000000 0.750000
O O18 0.886790 0.293710 0.000000
#
# Coordination Sequence:
#
# PCOD9525067 Si02
#       6
#    16  16  16  16  16  16
#     4   9  18  33  53  79 110 143 180 225 271 322
#     4  11  21  35  55  80 113 149 184 227 275 326
#     4  11  22  37  57  82 109 143 185 230 281 334
#     4  10  19  34  53  79 111 150 191 230 276 328
#     4  10  17  29  50  76 105 137 174 220 267 318
#     4  10  21  38  56  80 113 147 184 229 278 326
#
# _framework density 18.052465999999999
#
# number of rings (size 3 to 8) (size 9 to 14) (size 15 to 20)
#    0.000    1.833    1.667    5.500    0.000    2.667 
#    0.000    0.833    0.000    4.500    0.000    3.500 
#    0.000    0.000    0.000    0.000    0.000    0.000 
#
# Total GULP energy -268009.129188 kJ/mol
# GULP energy per Si atom -5583.523525 kJ/mol
# Density = 1.801138 g / cm^3
# Si number density = 18.052466 Si / 1000 Ang^3
#
#
#
# Elastic Constant Matrix: (Units=GPa)
#
#
# Indices 1 2 3 4 5 6 
#
# 1 37.5639 38.0058 36.9520 0.0000 0.0000 0.0000
# 2 38.0058 174.3312 59.9804 0.0000 0.0000 0.0000
# 3 36.9520 59.9804 96.5077 0.0000 0.0000 0.0000
# 4 0.0000 0.0000 0.0000 -97.5744 0.0000 0.0000
# 5 0.0000 0.0000 0.0000 0.0000 19.7584 0.0000
# 6 0.0000 0.0000 0.0000 0.0000 0.0000 22.5053
#
#
#
# Elastic Compliance Matrix: (Units=1/GPa)
#
#
# Indices 1 2 3 4 5 6 
#
# 1 0.045946 -0.005042 -0.014459 0.000000 0.000000 0.000000
# 2 -0.005042 0.007850 -0.002948 0.000000 0.000000 0.000000
# 3 -0.014459 -0.002948 0.017730 0.000000 0.000000 0.000000
# 4 0.000000 0.000000 0.000000 -0.010249 0.000000 0.000000
# 5 0.000000 0.000000 0.000000 0.000000 0.050611 0.000000
# 6 0.000000 0.000000 0.000000 0.000000 0.000000 0.044434
#
#
# Mechanical properties :
#
#
# Convention : Reuss Voigt Hill
#
# Bulk Modulus (GPa) = 37.55417 64.25325 50.90371
# Shear Modulus (GPa) = 23.79866 0.50217 12.15041
#
# Velocity S-wave (km/s) = 3.63479 0.52799 2.59716
# Velocity P-wave (km/s) = 6.20190 6.00345 6.10348
#
# Compressibility (1/GPa) = 0.02662820
#
# Stress axis : x y z
#
# Youngs Moduli (GPa) = 21.76488 127.39278 56.40075
#
# Poissons Ratio (x) = 0.64230 0.81548
# Poissons Ratio (y) = 0.10974 0.16628
# Poissons Ratio (z) = 0.31469 0.37558
#
# Static dielectric constant tensor:
#      x y z
#    x 1.616150 0.000000 0.000000 
#    y 0.000000 1.642740 0.000000 
#    z 0.000000 0.000000 1.600900 
# 
# From -- ./inp_files/8079.got.cif
#   From: 2010.05.17/outbox.cif.g08.bks.cpg/sg72_5_cif.got.tgz:8079.got - 2010.06.03 17:03:01.
