data_PCOD9525228
_publ_section_title
;
Structure prediction by ZEFSAII (Michael W. Deem and Ramdas Pophale) SiO2 
 PCOD9525228
Probable space group: I B A M
;
_chemical_formula_sum "Si O2"
_cell_formula_units_Z 112
_cell_length_a 17.085893
_cell_length_b 27.138511
_cell_length_c 14.561935
_cell_angle_alpha 90.000000
_cell_angle_beta 90.000000
_cell_angle_gamma 90.000000
_cell_volume 6752.160953
_symmetry_space_group_name_H-M "I B A M"
_symmetry_group_IT_number 72
_symmetry_cell_setting 'orthorhombic'
loop_
_space_group_symop_operation_xyz
x,y,z
-x,-y,z
x,-y,1/2-z
-x,y,1/2-z
-x,-y,-z
x,y,-z
-x,y,1/2+z
x,-y,1/2+z
1/2+x,1/2+y,1/2+z
1/2-x,1/2-y,1/2+z
1/2+x,1/2-y,-z
1/2-x,1/2+y,-z
1/2-x,1/2-y,1/2-z
1/2+x,1/2+y,1/2-z
1/2-x,1/2+y,z
1/2+x,1/2-y,z
loop_
_atom_site_type_symbol
_atom_site_label
_atom_site_fract_x
_atom_site_fract_y
_atom_site_fract_z
Si Si1 0.997126 0.417839 0.102633
Si Si2 0.458668 0.188576 0.651540
Si Si3 0.739906 0.164994 0.395790
Si Si4 0.604174 0.751231 0.098088
Si Si5 0.336068 0.073065 0.800391
Si Si6 0.335697 0.264838 0.714628
Si Si7 0.843905 0.530656 0.106390
O O1 0.043176 0.365689 0.109147
O O2 0.062035 0.460338 0.109545
O O3 0.928428 0.418224 0.177578
O O4 0.960630 0.420279 0.000000
O O5 0.500000 0.182543 0.750000
O O6 0.519538 0.223542 0.599182
O O7 0.378824 0.218482 0.667303
O O8 0.752544 0.149239 0.500000
O O9 0.668118 0.204512 0.396971
O O10 0.711226 0.119596 0.335774
O O11 0.816489 0.191527 0.355188
O O12 0.615948 0.722182 0.193199
O O13 0.616699 0.725430 0.000000
O O14 0.318247 0.064016 0.693166
O O15 0.320976 0.023994 0.860591
O O16 0.250000 0.250000 0.750000
O O17 0.820722 0.540320 0.000000
#
# Coordination Sequence:
#
# PCOD9525228 Si02
#       7
#    16  16  16  16  16  16  16
#     4  11  20  29  46  70  94 122 165 209 247 283
#     4  10  18  29  47  68  94 129 167 206 243 287
#     4  10  19  32  50  68  91 127 171 204 243 298
#     4   9  17  31  49  69  92 125 164 202 245 295
#     4  11  20  34  51  64  94 130 161 209 249 285
#     4   9  20  32  45  67  96 126 160 212 248 292
#     4  10  22  33  45  69  93 120 163 210 251 286
#
# _framework density 16.587282999999999
#
# number of rings (size 3 to 8) (size 9 to 14) (size 15 to 20)
#    0.000    2.000    1.429    3.429    4.000    3.429 
#    0.000    0.714    0.000    0.000    0.000    0.000 
#    0.000    0.000    0.000   23.143    1.714   93.143 
#
# Total GULP energy -311977.123099 kJ/mol
# GULP energy per Si atom -5571.020055 kJ/mol
# Density = 1.654953 g / cm^3
# Si number density = 16.587283 Si / 1000 Ang^3
#
#
#
# Elastic Constant Matrix: (Units=GPa)
#
#
# Indices 1 2 3 4 5 6 
#
# 1 24.6331 6.2279 4.9488 0.0000 0.0000 0.0000
# 2 6.2279 35.2720 21.0938 0.0000 0.0000 0.0000
# 3 4.9488 21.0938 123.4815 0.0000 0.0000 0.0000
# 4 0.0000 0.0000 0.0000 15.5195 0.0000 0.0000
# 5 0.0000 0.0000 0.0000 0.0000 12.4134 0.0000
# 6 0.0000 0.0000 0.0000 0.0000 0.0000 17.9559
#
#
#
# Elastic Compliance Matrix: (Units=1/GPa)
#
#
# Indices 1 2 3 4 5 6 
#
# 1 0.042517 -0.007226 -0.000470 0.000000 0.000000 0.000000
# 2 -0.007226 0.032805 -0.005314 0.000000 0.000000 0.000000
# 3 -0.000470 -0.005314 0.009025 0.000000 0.000000 0.000000
# 4 0.000000 0.000000 0.000000 0.064435 0.000000 0.000000
# 5 0.000000 0.000000 0.000000 0.000000 0.080558 0.000000
# 6 0.000000 0.000000 0.000000 0.000000 0.000000 0.055692
#
#
# Mechanical properties :
#
#
# Convention : Reuss Voigt Hill
#
# Bulk Modulus (GPa) = 17.14479 27.54754 22.34617
# Shear Modulus (GPa) = 15.12879 19.25215 17.19047
#
# Velocity S-wave (km/s) = 3.02333 3.41054 3.22275
# Velocity P-wave (km/s) = 4.74825 5.67034 5.22966
#
# Compressibility (1/GPa) = 0.05832675
#
# Stress axis : x y z
#
# Youngs Moduli (GPa) = 23.51997 30.48299 110.80300
#
# Poissons Ratio (x) = 0.22028 0.05202
# Poissons Ratio (y) = 0.16996 0.58885
# Poissons Ratio (z) = 0.01104 0.16200
#
# Static dielectric constant tensor:
#      x y z
#    x 1.542030 0.000000 0.000000 
#    y 0.000000 1.557980 0.000000 
#    z 0.000000 0.000000 1.675200 
# 
# From -- ./inp_files/22315.got.cif
#   From: 2010.05.17/outbox.cif.g08.bks.cpg/sg72_12_cif.got.tgz:22315.got - 2010.06.03 17:03:01.
