data_PCOD9525251
_publ_section_title
;
Structure prediction by ZEFSAII (Michael W. Deem and Ramdas Pophale) SiO2 
 PCOD9525251
Probable space group: I B A M
;
_chemical_formula_sum "Si O2"
_cell_formula_units_Z 48
_cell_length_a 27.657137
_cell_length_b 5.436410
_cell_length_c 13.975831
_cell_angle_alpha 90.000000
_cell_angle_beta 90.000000
_cell_angle_gamma 90.000000
_cell_volume 2101.343563
_symmetry_space_group_name_H-M "I B A M"
_symmetry_group_IT_number 72
_symmetry_cell_setting 'orthorhombic'
loop_
_space_group_symop_operation_xyz
x,y,z
-x,-y,z
x,-y,1/2-z
-x,y,1/2-z
-x,-y,-z
x,y,-z
-x,y,1/2+z
x,-y,1/2+z
1/2+x,1/2+y,1/2+z
1/2-x,1/2-y,1/2+z
1/2+x,1/2-y,-z
1/2-x,1/2+y,-z
1/2-x,1/2-y,1/2-z
1/2+x,1/2+y,1/2-z
1/2-x,1/2+y,z
1/2+x,1/2-y,z
loop_
_atom_site_type_symbol
_atom_site_label
_atom_site_fract_x
_atom_site_fract_y
_atom_site_fract_z
Si Si1 0.917338 0.223435 0.000000
Si Si2 0.267412 0.351380 0.389517
Si Si3 0.445284 0.750481 0.288713
Si Si4 0.142570 0.276185 0.000000
O O1 0.946688 0.250916 0.902582
O O2 0.879417 0.451498 0.000000
O O3 0.894634 0.950282 0.000000
O O4 0.247443 0.386197 0.500000
O O5 0.261259 0.621580 0.346610
O O6 0.322303 0.269662 0.408813
O O7 0.421771 0.500000 0.250000
O O8 0.500000 0.750450 0.250000
O O9 0.421475 0.000000 0.250000
#
# Coordination Sequence:
#
# PCOD9525251 Si02
#       4
#     8  16  16   8
#     4  12  22  35  59  86 114 148 190 242 288 331
#     4   8  13  24  42  69 114 147 174 227 268 321
#     4  10  23  41  60  82 111 146 191 237 288 349
#     4  10  18  29  49  84 118 144 186 236 282 331
#
# _framework density 22.842527
#
# number of rings (size 3 to 8) (size 9 to 14) (size 15 to 20)
#    1.000    1.333    0.000    4.000    0.000    5.333 
#    0.000    0.000    0.000    0.000    0.000    0.000 
#    0.000  373.333    0.000    0.000    0.000    0.000 
#
# Total GULP energy -133834.773039 kJ/mol
# GULP energy per Si atom -5576.448877 kJ/mol
# Density = 2.279054 g / cm^3
# Si number density = 22.842527 Si / 1000 Ang^3
#
#
#
# Elastic Constant Matrix: (Units=GPa)
#
#
# Indices 1 2 3 4 5 6 
#
# 1 35.2421 -15.9942 12.8156 0.0000 0.0000 0.0000
# 2 -15.9942 165.1461 16.8668 0.0000 0.0000 0.0000
# 3 12.8156 16.8668 131.1376 0.0000 0.0000 0.0000
# 4 0.0000 0.0000 0.0000 28.2364 0.0000 0.0000
# 5 0.0000 0.0000 0.0000 0.0000 -4.3649 0.0000
# 6 0.0000 0.0000 0.0000 0.0000 0.0000 4.9640
#
#
#
# Elastic Compliance Matrix: (Units=1/GPa)
#
#
# Indices 1 2 3 4 5 6 
#
# 1 0.031172 0.003374 -0.003480 0.000000 0.000000 0.000000
# 2 0.003374 0.006501 -0.001166 0.000000 0.000000 0.000000
# 3 -0.003480 -0.001166 0.008116 0.000000 0.000000 0.000000
# 4 0.000000 0.000000 0.000000 0.035415 0.000000 0.000000
# 5 0.000000 0.000000 0.000000 0.000000 -0.229101 0.000000
# 6 0.000000 0.000000 0.000000 0.000000 0.000000 0.201452
#
#
# Mechanical properties :
#
#
# Convention : Reuss Voigt Hill
#
# Bulk Modulus (GPa) = 23.12391 39.87803 31.50097
# Shear Modulus (GPa) = 70.90774 26.95627 48.93200
#
# Velocity S-wave (km/s) = 5.57758 3.43897 4.63335
# Velocity P-wave (km/s) = 7.18501 5.76753 6.51493
#
# Compressibility (1/GPa) = 0.04324529
#
# Stress axis : x y z
#
# Youngs Moduli (GPa) = 32.07987 153.81928 123.21853
#
# Poissons Ratio (x) = -0.51905 0.42884
# Poissons Ratio (y) = -0.10825 0.14367
# Poissons Ratio (z) = 0.11165 0.17934
#
# Static dielectric constant tensor:
#      x y z
#    x 1.812580 0.000000 0.000000 
#    y 0.000000 1.689780 0.000000 
#    z 0.000000 0.000000 1.872610 
# 
# From -- ./inp_files/25562.got.cif
#   From: 2010.05.17/outbox.cif.g08.bks.cpg/sg72_13_cif.got.tgz:25562.got - 2010.06.03 17:03:01.
