data_PCOD9525124
_publ_section_title
;
Structure prediction by ZEFSAII (Michael W. Deem and Ramdas Pophale) SiO2 
 PCOD9525124
Probable space group: I B A M
;
_chemical_formula_sum "Si O2"
_cell_formula_units_Z 120
_cell_length_a 8.327335
_cell_length_b 30.359378
_cell_length_c 25.085629
_cell_angle_alpha 90.000000
_cell_angle_beta 90.000000
_cell_angle_gamma 90.000000
_cell_volume 6341.965875
_symmetry_space_group_name_H-M "I B A M"
_symmetry_group_IT_number 72
_symmetry_cell_setting 'orthorhombic'
loop_
_space_group_symop_operation_xyz
x,y,z
-x,-y,z
x,-y,1/2-z
-x,y,1/2-z
-x,-y,-z
x,y,-z
-x,y,1/2+z
x,-y,1/2+z
1/2+x,1/2+y,1/2+z
1/2-x,1/2-y,1/2+z
1/2+x,1/2-y,-z
1/2-x,1/2+y,-z
1/2-x,1/2-y,1/2-z
1/2+x,1/2+y,1/2-z
1/2-x,1/2+y,z
1/2+x,1/2-y,z
loop_
_atom_site_type_symbol
_atom_site_label
_atom_site_fract_x
_atom_site_fract_y
_atom_site_fract_z
Si Si1 0.326416 0.703699 0.064322
Si Si2 0.925411 0.424589 0.198561
Si Si3 0.328217 0.524928 0.059507
Si Si4 0.315779 0.892460 0.061838
Si Si5 0.680825 0.888737 0.091525
Si Si6 0.807783 0.797433 0.435396
Si Si7 0.245947 0.538191 0.353976
Si Si8 0.292946 0.500000 0.250000
O O1 0.222715 0.661401 0.079337
O O2 0.262161 0.750934 0.083638
O O3 0.509117 0.697307 0.082430
O O4 0.326959 0.705436 0.000000
O O5 0.836955 0.395881 0.154696
O O6 0.811310 0.462756 0.220801
O O7 0.000000 0.400188 0.250000
O O8 0.077206 0.447610 0.170791
O O9 0.500000 0.500000 0.063877
O O10 0.313331 0.577259 0.068450
O O11 0.229170 0.503702 0.107557
O O12 0.267278 0.515180 0.000000
O O13 0.506785 0.901200 0.066731
O O14 0.289609 0.841511 0.077377
O O15 0.218630 0.922774 0.103634
O O16 0.265622 0.899307 0.000000
O O17 0.807791 0.795216 0.500000
O O18 0.358655 0.526908 0.302511
#
# Coordination Sequence:
#
# PCOD9525124 Si02
#       8
#    16  16  16  16  16  16  16   8
#     4  10  19  33  54  78 112 147 182 225 277 337
#     4   9  18  32  57  78 102 135 184 241 286 327
#     4  11  24  36  47  71 115 156 189 224 277 339
#     4  10  20  32  51  82 113 143 190 235 283 341
#     4  11  21  34  53  82 107 150 192 232 277 339
#     4   9  19  34  54  80 112 148 181 227 281 340
#     4  10  19  32  54  74 102 145 183 231 271 323
#     4  10  17  34  55  76 101 136 190 239 280 319
#
# _framework density 18.921576999999999
#
# number of rings (size 3 to 8) (size 9 to 14) (size 15 to 20)
#    0.000    2.000    1.333    4.200    3.733    2.133 
#    0.000    2.333    0.000    0.000    0.000   14.933 
#    0.000    0.000    0.000    0.000    0.000    0.000 
#
# Total GULP energy -334331.320217 kJ/mol
# GULP energy per Si atom -5572.188670 kJ/mol
# Density = 1.887851 g / cm^3
# Si number density = 18.921577 Si / 1000 Ang^3
#
#
#
# Elastic Constant Matrix: (Units=GPa)
#
#
# Indices 1 2 3 4 5 6 
#
# 1 50.0472 13.1481 15.9020 0.0000 0.0000 0.0000
# 2 13.1481 107.6683 37.3384 0.0000 0.0000 0.0000
# 3 15.9020 37.3384 120.4229 0.0000 0.0000 0.0000
# 4 0.0000 0.0000 0.0000 6.8592 0.0000 0.0000
# 5 0.0000 0.0000 0.0000 0.0000 -5.2309 0.0000
# 6 0.0000 0.0000 0.0000 0.0000 0.0000 26.7373
#
#
#
# Elastic Compliance Matrix: (Units=1/GPa)
#
#
# Indices 1 2 3 4 5 6 
#
# 1 0.021166 -0.001810 -0.002234 0.000000 0.000000 0.000000
# 2 -0.001810 0.010562 -0.003036 0.000000 0.000000 0.000000
# 3 -0.002234 -0.003036 0.009540 0.000000 0.000000 0.000000
# 4 0.000000 0.000000 0.000000 0.145789 0.000000 0.000000
# 5 0.000000 0.000000 0.000000 0.000000 -0.191172 0.000000
# 6 0.000000 0.000000 0.000000 0.000000 0.000000 0.037401
#
#
# Mechanical properties :
#
#
# Convention : Reuss Voigt Hill
#
# Bulk Modulus (GPa) = 36.88802 45.65728 41.27265
# Shear Modulus (GPa) = 88.52474 19.78979 54.15726
#
# Velocity S-wave (km/s) = 6.84738 3.23752 5.35575
# Velocity P-wave (km/s) = 9.05831 6.17718 7.75276
#
# Compressibility (1/GPa) = 0.02710907
#
# Stress axis : x y z
#
# Youngs Moduli (GPa) = 47.24457 94.68278 104.81847
#
# Poissons Ratio (x) = 0.17139 0.23415
# Poissons Ratio (y) = 0.08552 0.31820
# Poissons Ratio (z) = 0.10554 0.28743
#
# Static dielectric constant tensor:
#      x y z
#    x 1.710030 0.000000 0.000000 
#    y 0.000000 1.661880 0.000000 
#    z 0.000000 0.000000 1.708480 
# 
# From -- ./inp_files/47673.got.cif
#   From: 2010.05.17/outbox.cif.g08.bks.cpg/sg72_24_cif.got.tgz:47673.got - 2010.06.03 17:03:01.
