data_PCOD9526405
_publ_section_title
;
Structure prediction by ZEFSAII (Michael W. Deem and Ramdas Pophale) SiO2 
 PCOD9526405
Probable space group: I B A M
;
_chemical_formula_sum "Si O2"
_cell_formula_units_Z 96
_cell_length_a 9.779366
_cell_length_b 17.886686
_cell_length_c 27.913096
_cell_angle_alpha 90.000000
_cell_angle_beta 90.000000
_cell_angle_gamma 90.000000
_cell_volume 4882.571283
_symmetry_space_group_name_H-M "I B A M"
_symmetry_group_IT_number 72
_symmetry_cell_setting 'orthorhombic'
loop_
_space_group_symop_operation_xyz
x,y,z
-x,-y,z
x,-y,1/2-z
-x,y,1/2-z
-x,-y,-z
x,y,-z
-x,y,1/2+z
x,-y,1/2+z
1/2+x,1/2+y,1/2+z
1/2-x,1/2-y,1/2+z
1/2+x,1/2-y,-z
1/2-x,1/2+y,-z
1/2-x,1/2-y,1/2-z
1/2+x,1/2+y,1/2-z
1/2-x,1/2+y,z
1/2+x,1/2-y,z
loop_
_atom_site_type_symbol
_atom_site_label
_atom_site_fract_x
_atom_site_fract_y
_atom_site_fract_z
Si Si1 0.157434 0.491445 0.806977
Si Si2 0.406203 0.572435 0.848244
Si Si3 0.802834 0.211587 0.054308
Si Si4 0.023585 0.225773 0.693860
Si Si5 0.395953 0.653805 0.945966
Si Si6 0.701229 0.171658 0.154001
O O1 0.167835 0.500000 0.750000
O O2 0.255267 0.551900 0.831013
O O3 0.204147 0.409130 0.822232
O O4 0.000000 0.500000 0.821191
O O5 0.500000 0.500000 0.839293
O O6 0.463261 0.644637 0.820464
O O7 0.405125 0.593807 0.904135
O O8 0.736459 0.293517 0.060224
O O9 0.738766 0.165481 0.098061
O O10 0.966710 0.204788 0.058244
O O11 0.766779 0.187093 0.000000
O O12 0.941446 0.287709 0.663997
O O13 0.000000 0.239764 0.750000
O O14 0.181598 0.222388 0.678747
O O15 0.394928 0.622993 0.000000
#
# Coordination Sequence:
#
# PCOD9526405 Si02
#       6
#    16  16  16  16  16  16
#     4  11  27  44  65  89 131 174 212 263 328 388
#     4  12  23  42  63  92 131 169 213 262 325 390
#     4  10  19  37  62  94 127 164 214 269 319 378
#     4  12  26  39  66  95 129 168 217 268 314 388
#     4  10  21  38  64  95 127 166 211 267 326 380
#     4  12  23  44  63  98 126 168 217 264 323 378
#
# _framework density 19.661771000000002
#
# number of rings (size 3 to 8) (size 9 to 14) (size 15 to 20)
#    0.000    0.833    5.000    1.500    4.667    1.667 
#    0.000    0.833    0.000    1.000    0.000    0.000 
#    0.000    0.000    0.000    0.000    0.000    0.000 
#
# Total GULP energy -268326.825305 kJ/mol
# GULP energy per Si atom -5590.142194 kJ/mol
# Density = 1.961702 g / cm^3
# Si number density = 19.661771 Si / 1000 Ang^3
#
#
#
# Elastic Constant Matrix: (Units=GPa)
#
#
# Indices 1 2 3 4 5 6 
#
# 1 65.7246 -6.3932 14.6523 0.0000 0.0000 0.0000
# 2 -6.3932 31.8324 -3.1656 0.0000 0.0000 0.0000
# 3 14.6523 -3.1656 93.5985 0.0000 0.0000 0.0000
# 4 0.0000 0.0000 0.0000 28.4175 0.0000 0.0000
# 5 0.0000 0.0000 0.0000 0.0000 12.1045 0.0000
# 6 0.0000 0.0000 0.0000 0.0000 0.0000 19.2816
#
#
#
# Elastic Compliance Matrix: (Units=1/GPa)
#
#
# Indices 1 2 3 4 5 6 
#
# 1 0.016042 0.002982 -0.002410 0.000000 0.000000 0.000000
# 2 0.002982 0.032075 0.000618 0.000000 0.000000 0.000000
# 3 -0.002410 0.000618 0.011082 0.000000 0.000000 0.000000
# 4 0.000000 0.000000 0.000000 0.035190 0.000000 0.000000
# 5 0.000000 0.000000 0.000000 0.000000 0.082614 0.000000
# 6 0.000000 0.000000 0.000000 0.000000 0.000000 0.051863
#
#
# Mechanical properties :
#
#
# Convention : Reuss Voigt Hill
#
# Bulk Modulus (GPa) = 16.23933 22.37141 19.30537
# Shear Modulus (GPa) = 20.24187 24.36485 22.30336
#
# Velocity S-wave (km/s) = 3.21207 3.52405 3.37167
# Velocity P-wave (km/s) = 4.69402 5.28785 4.99976
#
# Compressibility (1/GPa) = 0.06157891
#
# Stress axis : x y z
#
# Youngs Moduli (GPa) = 62.33457 31.17702 90.23493
#
# Poissons Ratio (x) = -0.09298 0.21751
# Poissons Ratio (y) = -0.18590 -0.05576
# Poissons Ratio (z) = 0.15026 -0.01927
#
# Static dielectric constant tensor:
#      x y z
#    x 1.700130 0.000000 0.000000 
#    y 0.000000 1.652450 0.000000 
#    z 0.000000 0.000000 1.696170 
# 
# From -- ./inp_files/47355.got.cif
#   From: 2010.05.17/outbox.cif.g08.bks.cpg/sg72_24_cif.got.tgz:47355.got - 2010.06.03 17:03:01.
