data_PCOD9526451
_publ_section_title
;
Structure prediction by ZEFSAII (Michael W. Deem and Ramdas Pophale) SiO2 
 PCOD9526451
Probable space group: I B A M
;
_chemical_formula_sum "Si O2"
_cell_formula_units_Z 88
_cell_length_a 25.186571
_cell_length_b 8.579410
_cell_length_c 20.488218
_cell_angle_alpha 90.000000
_cell_angle_beta 90.000000
_cell_angle_gamma 90.000000
_cell_volume 4427.215417
_symmetry_space_group_name_H-M "I B A M"
_symmetry_group_IT_number 72
_symmetry_cell_setting 'orthorhombic'
loop_
_space_group_symop_operation_xyz
x,y,z
-x,-y,z
x,-y,1/2-z
-x,y,1/2-z
-x,-y,-z
x,y,-z
-x,y,1/2+z
x,-y,1/2+z
1/2+x,1/2+y,1/2+z
1/2-x,1/2-y,1/2+z
1/2+x,1/2-y,-z
1/2-x,1/2+y,-z
1/2-x,1/2-y,1/2-z
1/2+x,1/2+y,1/2-z
1/2-x,1/2+y,z
1/2+x,1/2-y,z
loop_
_atom_site_type_symbol
_atom_site_label
_atom_site_fract_x
_atom_site_fract_y
_atom_site_fract_z
Si Si1 0.679956 0.521817 0.500000
Si Si2 0.500000 0.500000 0.889414
Si Si3 0.806491 0.533546 0.358640
Si Si4 0.330628 0.174892 0.000000
Si Si5 0.916481 0.152651 0.703840
Si Si6 0.571298 0.628077 0.000000
Si Si7 0.300805 0.329502 0.360796
Si Si8 0.605608 0.000000 0.750000
O O1 0.698429 0.342602 0.500000
O O2 0.615936 0.507957 0.500000
O O3 0.697010 0.600173 0.433385
O O4 0.537732 0.385853 0.848300
O O5 0.536391 0.605272 0.936280
O O6 0.817871 0.596270 0.431329
O O7 0.753308 0.608712 0.329046
O O8 0.795338 0.353147 0.365637
O O9 0.856450 0.549008 0.310557
O O10 0.393177 0.217870 0.000000
O O11 0.856798 0.139551 0.674489
O O12 0.921948 0.332202 0.730931
O O13 0.921371 0.000000 0.750000
#
# Coordination Sequence:
#
# PCOD9526451 Si02
#       8
#     8   8  16   8  16   8  16   8
#     4  10  19  38  63  93 127 170 210 287 330 398
#     4  11  21  46  70 106 117 183 234 288 362 395
#     4  11  24  40  64  98 138 180 225 271 342 409
#     4  10  21  40  65  92 132 172 217 281 334 405
#     4  11  25  43  71  94 138 181 227 282 342 404
#     4   9  22  38  76  95 128 163 234 287 342 419
#     4  11  23  38  64  98 132 177 224 276 332 415
#     4  10  28  44  67 104 142 183 226 286 332 428
#
# _framework density 19.877053
#
# number of rings (size 3 to 8) (size 9 to 14) (size 15 to 20)
#    0.545    0.909    1.818    2.455    8.909    1.455 
#    0.000    1.818    0.000    4.364    0.000    0.000 
#    0.000    0.000    0.000    0.000    0.000    0.000 
#
# Total GULP energy -245366.059915 kJ/mol
# GULP energy per Si atom -5576.501362 kJ/mol
# Density = 1.983181 g / cm^3
# Si number density = 19.877053 Si / 1000 Ang^3
#
#
#
# Elastic Constant Matrix: (Units=GPa)
#
#
# Indices 1 2 3 4 5 6 
#
# 1 115.8717 57.4712 40.5864 0.0000 0.0000 0.0000
# 2 57.4712 126.5479 57.5310 0.0000 0.0000 0.0000
# 3 40.5864 57.5310 86.7117 0.0000 0.0000 0.0000
# 4 0.0000 0.0000 0.0000 14.5040 0.0000 0.0000
# 5 0.0000 0.0000 0.0000 0.0000 7.1099 0.0000
# 6 0.0000 0.0000 0.0000 0.0000 0.0000 30.2975
#
#
#
# Elastic Compliance Matrix: (Units=1/GPa)
#
#
# Indices 1 2 3 4 5 6 
#
# 1 0.011585 -0.004004 -0.002766 0.000000 0.000000 0.000000
# 2 -0.004004 0.012699 -0.006551 0.000000 0.000000 0.000000
# 3 -0.002766 -0.006551 0.017174 0.000000 0.000000 0.000000
# 4 0.000000 0.000000 0.000000 0.068947 0.000000 0.000000
# 5 0.000000 0.000000 0.000000 0.000000 0.140650 0.000000
# 6 0.000000 0.000000 0.000000 0.000000 0.000000 0.033006
#
#
# Mechanical properties :
#
#
# Convention : Reuss Voigt Hill
#
# Bulk Modulus (GPa) = 67.49810 71.14540 69.32175
# Shear Modulus (GPa) = 15.84080 21.95177 18.89628
#
# Velocity S-wave (km/s) = 2.82607 3.32682 3.08662
# Velocity P-wave (km/s) = 6.68434 7.11530 6.90318
#
# Compressibility (1/GPa) = 0.01481523
#
# Stress axis : x y z
#
# Youngs Moduli (GPa) = 86.31908 78.74766 58.22819
#
# Poissons Ratio (x) = 0.31529 0.16106
# Poissons Ratio (y) = 0.34560 0.38147
# Poissons Ratio (z) = 0.23876 0.51590
#
# Static dielectric constant tensor:
#      x y z
#    x 1.746600 0.000000 0.000000 
#    y 0.000000 1.689830 0.000000 
#    z 0.000000 0.000000 1.809530 
# 
# From -- ./inp_files/35930.got.cif
#   From: 2010.05.17/outbox.cif.g08.bks.cpg/sg72_18_cif.got.tgz:35930.got - 2010.06.03 17:03:01.
