data_PCOD9526180
_publ_section_title
;
Structure prediction by ZEFSAII (Michael W. Deem and Ramdas Pophale) SiO2 
 PCOD9526180
Probable space group: I B A M
;
_chemical_formula_sum "Si O2"
_cell_formula_units_Z 64
_cell_length_a 8.664973
_cell_length_b 21.693525
_cell_length_c 15.231280
_cell_angle_alpha 90.000000
_cell_angle_beta 90.000000
_cell_angle_gamma 90.000000
_cell_volume 2863.081708
_symmetry_space_group_name_H-M "I B A M"
_symmetry_group_IT_number 72
_symmetry_cell_setting 'orthorhombic'
loop_
_space_group_symop_operation_xyz
x,y,z
-x,-y,z
x,-y,1/2-z
-x,y,1/2-z
-x,-y,-z
x,y,-z
-x,y,1/2+z
x,-y,1/2+z
1/2+x,1/2+y,1/2+z
1/2-x,1/2-y,1/2+z
1/2+x,1/2-y,-z
1/2-x,1/2+y,-z
1/2-x,1/2-y,1/2-z
1/2+x,1/2+y,1/2-z
1/2-x,1/2+y,z
1/2+x,1/2-y,z
loop_
_atom_site_type_symbol
_atom_site_label
_atom_site_fract_x
_atom_site_fract_y
_atom_site_fract_z
Si Si1 0.939364 0.564271 0.849895
Si Si2 0.905560 0.941482 0.398481
Si Si3 0.067102 0.690717 0.150110
Si Si4 0.435522 0.682471 0.150763
O O1 0.755152 0.566503 0.848942
O O2 0.000000 0.500000 0.889857
O O3 0.000000 0.564228 0.750000
O O4 0.002831 0.627569 0.890961
O O5 0.865351 0.954123 0.500000
O O6 0.007110 0.880003 0.393717
O O7 0.000000 0.000000 0.364166
O O8 0.251445 0.688368 0.151871
O O9 0.000000 0.691854 0.250000
O O10 0.007657 0.755054 0.110880
O O11 0.500000 0.677793 0.250000
#
# Coordination Sequence:
#
# PCOD9526180 Si02
#       4
#    16  16  16  16
#     4  10  20  38  63  93 122 155 205 251 298 362
#     4  11  25  43  61  87 126 166 202 250 311 364
#     4  10  19  34  58  92 124 153 197 254 309 351
#     4  11  20  36  62  88 121 160 204 251 298 362
#
# _framework density 22.353535999999998
#
# number of rings (size 3 to 8) (size 9 to 14) (size 15 to 20)
#    0.000    1.500    0.000    9.000    0.000    3.000 
#    0.000    6.250    0.000    0.000    0.000    0.000 
#    0.000    0.000    0.000    0.000    0.000    0.000 
#
# Total GULP energy -178942.031479 kJ/mol
# GULP energy per Si atom -5591.938484 kJ/mol
# Density = 2.230266 g / cm^3
# Si number density = 22.353536 Si / 1000 Ang^3
#
#
#
# Elastic Constant Matrix: (Units=GPa)
#
#
# Indices 1 2 3 4 5 6 
#
# 1 256.2156 95.5323 20.6482 0.0000 0.0000 0.0000
# 2 95.5323 235.8481 4.0898 0.0000 0.0000 0.0000
# 3 20.6482 4.0898 56.6674 0.0001 0.0000 0.0000
# 4 0.0000 0.0000 0.0001 6.2193 0.0000 0.0000
# 5 0.0000 0.0000 0.0000 0.0000 -3.3912 0.0000
# 6 0.0000 0.0000 0.0000 0.0000 0.0000 46.2375
#
#
#
# Elastic Compliance Matrix: (Units=1/GPa)
#
#
# Indices 1 2 3 4 5 6 
#
# 1 0.004736 -0.001891 -0.001589 0.000000 0.000000 0.000000
# 2 -0.001891 0.005000 0.000328 0.000000 0.000000 0.000000
# 3 -0.001589 0.000328 0.018202 0.000000 0.000000 0.000000
# 4 0.000000 0.000000 0.000000 0.160790 0.000000 0.000000
# 5 0.000000 0.000000 0.000000 0.000000 -0.294878 0.000000
# 6 0.000000 0.000000 0.000000 0.000000 0.000000 0.021627
#
#
# Mechanical properties :
#
#
# Convention : Reuss Voigt Hill
#
# Bulk Modulus (GPa) = 46.22233 87.69687 66.95960
# Shear Modulus (GPa) = -70.41561 38.37717 -16.01922
#
# Velocity S-wave (km/s) = -5.61865 4.14796 -2.67990
# Velocity P-wave (km/s) = 4.62273 7.89035 4.52151
#
# Compressibility (1/GPa) = 0.02163456
#
# Stress axis : x y z
#
# Youngs Moduli (GPa) = 211.14660 199.99119 54.93834
#
# Poissons Ratio (x) = 0.37815 0.08731
# Poissons Ratio (y) = 0.39924 -0.01802
# Poissons Ratio (z) = 0.33556 -0.06562
#
# Static dielectric constant tensor:
#      x y z
#    x 1.750070 0.000000 0.000000 
#    y 0.000000 1.904250 0.000000 
#    z 0.000000 0.000000 1.834690 
# 
# From -- ./inp_files/27635.got.cif
#   From: 2010.05.17/outbox.cif.g08.bks.cpg/sg72_14_cif.got.tgz:27635.got - 2010.06.03 17:03:01.
