data_PCOD9526769
_publ_section_title
;
Structure prediction by ZEFSAII (Michael W. Deem and Ramdas Pophale) SiO2 
 PCOD9526769
Probable space group: I B A M
;
_chemical_formula_sum "Si O2"
_cell_formula_units_Z 112
_cell_length_a 19.154492
_cell_length_b 18.288579
_cell_length_c 19.563801
_cell_angle_alpha 90.000000
_cell_angle_beta 90.000000
_cell_angle_gamma 90.000000
_cell_volume 6853.364612
_symmetry_space_group_name_H-M "I B A M"
_symmetry_group_IT_number 72
_symmetry_cell_setting 'orthorhombic'
loop_
_space_group_symop_operation_xyz
x,y,z
-x,-y,z
x,-y,1/2-z
-x,y,1/2-z
-x,-y,-z
x,y,-z
-x,y,1/2+z
x,-y,1/2+z
1/2+x,1/2+y,1/2+z
1/2-x,1/2-y,1/2+z
1/2+x,1/2-y,-z
1/2-x,1/2+y,-z
1/2-x,1/2-y,1/2-z
1/2+x,1/2+y,1/2-z
1/2-x,1/2+y,z
1/2+x,1/2-y,z
loop_
_atom_site_type_symbol
_atom_site_label
_atom_site_fract_x
_atom_site_fract_y
_atom_site_fract_z
Si Si1 0.255514 0.919734 0.419557
Si Si2 0.249527 0.709238 0.323075
Si Si3 0.204433 0.543552 0.316597
Si Si4 0.517677 0.792490 0.421084
Si Si5 0.960586 0.571275 0.177503
Si Si6 0.647327 0.299598 0.081331
Si Si7 0.852431 0.279982 0.079250
O O1 0.254998 0.934480 0.500000
O O2 0.182635 0.877980 0.401816
O O3 0.316396 0.859032 0.406382
O O4 0.272059 0.993049 0.379296
O O5 0.250000 0.750000 0.250000
O O6 0.236424 0.623877 0.315697
O O7 0.189434 0.743070 0.371569
O O8 0.319210 0.726316 0.365572
O O9 0.227437 0.500000 0.250000
O O10 0.120550 0.552140 0.313802
O O11 0.531659 0.814493 0.500000
O O12 0.535370 0.858272 0.370328
O O13 0.566385 0.721418 0.408115
O O14 0.435339 0.779749 0.414868
O O15 0.000000 0.500000 0.147518
O O16 0.000000 0.585050 0.250000
O O17 0.661782 0.289031 0.000000
O O18 0.834287 0.262190 0.000000
#
# Coordination Sequence:
#
# PCOD9526769 Si02
#       7
#    16  16  16  16  16  16  16
#     4   9  19  34  55  77 108 144 177 226 277 322
#     4  11  22  34  54  77 104 144 187 225 266 321
#     4  12  22  35  51  78 108 146 182 220 269 327
#     4  10  20  34  57  81 105 141 181 221 271 327
#     4  11  22  34  50  73 115 148 174 213 268 326
#     4   9  18  36  55  78 105 138 184 228 267 321
#     4   9  19  36  55  79 109 138 175 227 275 324
#
# _framework density 16.342338000000002
#
# number of rings (size 3 to 8) (size 9 to 14) (size 15 to 20)
#    0.000    1.857    2.857    3.857    2.000    2.000 
#    0.000    0.000    0.000    0.857    0.000    5.000 
#    0.000    0.000    0.000    0.000    0.000    0.000 
#
# Total GULP energy -312100.234109 kJ/mol
# GULP energy per Si atom -5573.218466 kJ/mol
# Density = 1.630514 g / cm^3
# Si number density = 16.342338 Si / 1000 Ang^3
#
#
#
# Elastic Constant Matrix: (Units=GPa)
#
#
# Indices 1 2 3 4 5 6 
#
# 1 82.1332 53.2321 39.2719 0.0000 0.0000 0.0000
# 2 53.2321 130.3759 68.5051 0.0000 0.0000 0.0000
# 3 39.2719 68.5051 71.3359 0.0000 0.0000 0.0000
# 4 0.0000 0.0000 0.0000 31.2778 0.0000 0.0000
# 5 0.0000 0.0000 0.0000 0.0000 22.4543 0.0000
# 6 0.0000 0.0000 0.0000 0.0000 0.0000 14.9371
#
#
#
# Elastic Compliance Matrix: (Units=1/GPa)
#
#
# Indices 1 2 3 4 5 6 
#
# 1 0.017610 -0.004231 -0.005632 0.000000 0.000000 0.000000
# 2 -0.004231 0.016499 -0.013515 0.000000 0.000000 0.000000
# 3 -0.005632 -0.013515 0.030097 0.000000 0.000000 0.000000
# 4 0.000000 0.000000 0.000000 0.031972 0.000000 0.000000
# 5 0.000000 0.000000 0.000000 0.000000 0.044535 0.000000
# 6 0.000000 0.000000 0.000000 0.000000 0.000000 0.066947
#
#
# Mechanical properties :
#
#
# Convention : Reuss Voigt Hill
#
# Bulk Modulus (GPa) = 57.30303 67.31814 62.31058
# Shear Modulus (GPa) = 19.21356 21.92292 20.56824
#
# Velocity S-wave (km/s) = 3.43256 3.66660 3.55150
# Velocity P-wave (km/s) = 7.13093 7.69462 7.41813
#
# Compressibility (1/GPa) = 0.01745108
#
# Stress axis : x y z
#
# Youngs Moduli (GPa) = 56.78467 60.60955 33.22572
#
# Poissons Ratio (x) = 0.25645 0.18711
# Poissons Ratio (y) = 0.24027 0.44904
# Poissons Ratio (z) = 0.31979 0.81914
#
# Static dielectric constant tensor:
#      x y z
#    x 1.567870 0.000000 0.000000 
#    y 0.000000 1.536930 0.000000 
#    z 0.000000 0.000000 1.567920 
# 
# From -- ./inp_files/32739.got.cif
#   From: 2010.05.17/outbox.cif.g08.bks.cpg/sg72_17_cif.got.tgz:32739.got - 2010.06.03 17:03:01.
