data_PCOD9526274
_publ_section_title
;
Structure prediction by ZEFSAII (Michael W. Deem and Ramdas Pophale) SiO2 
 PCOD9526274
Probable space group: I B A M
;
_chemical_formula_sum "Si O2"
_cell_formula_units_Z 72
_cell_length_a 14.471778
_cell_length_b 18.311428
_cell_length_c 13.812138
_cell_angle_alpha 90.000000
_cell_angle_beta 90.000000
_cell_angle_gamma 90.000000
_cell_volume 3660.201665
_symmetry_space_group_name_H-M "I B A M"
_symmetry_group_IT_number 72
_symmetry_cell_setting 'orthorhombic'
loop_
_space_group_symop_operation_xyz
x,y,z
-x,-y,z
x,-y,1/2-z
-x,y,1/2-z
-x,-y,-z
x,y,-z
-x,y,1/2+z
x,-y,1/2+z
1/2+x,1/2+y,1/2+z
1/2-x,1/2-y,1/2+z
1/2+x,1/2-y,-z
1/2-x,1/2+y,-z
1/2-x,1/2-y,1/2-z
1/2+x,1/2+y,1/2-z
1/2-x,1/2+y,z
1/2+x,1/2-y,z
loop_
_atom_site_type_symbol
_atom_site_label
_atom_site_fract_x
_atom_site_fract_y
_atom_site_fract_z
Si Si1 0.880154 0.757637 0.000000
Si Si2 0.267644 0.640719 0.500000
Si Si3 0.092653 0.640857 0.789434
Si Si4 0.907388 0.717169 0.500000
Si Si5 0.844352 0.216367 0.707597
Si Si6 0.714400 0.421660 0.709616
O O1 0.842249 0.796822 0.094558
O O2 0.833744 0.677528 0.000000
O O3 0.989906 0.751398 0.000000
O O4 0.335856 0.713124 0.500000
O O5 0.277479 0.591565 0.595170
O O6 0.099360 0.667889 0.901673
O O7 0.090461 0.715807 0.726750
O O8 0.186332 0.598838 0.758961
O O9 0.000000 0.601352 0.750000
O O10 0.750000 0.250000 0.750000
O O11 0.858780 0.140509 0.759521
O O12 0.688031 0.500000 0.750000
#
# Coordination Sequence:
#
# PCOD9526274 Si02
#       6
#     8   8  16   8  16  16
#     4  12  20  37  65  95 123 151 206 268 306 350
#     4  12  20  40  62  88 122 164 206 250 316 360
#     4  11  20  37  60  92 119 152 206 256 307 361
#     4  12  22  33  69  95 115 159 208 260 314 360
#     4  10  19  35  59  85 113 160 203 246 293 349
#     4  11  24  38  59  88 126 167 199 250 305 379
#
# _framework density 19.671047000000002
#
# number of rings (size 3 to 8) (size 9 to 14) (size 15 to 20)
#    0.000    0.889    8.889    1.333    0.000    2.222 
#    0.000    0.000    0.000   11.333    0.000    0.000 
#    0.000    0.000    0.000    0.000    0.000    0.000 
#
# Total GULP energy -200591.893090 kJ/mol
# GULP energy per Si atom -5571.997030 kJ/mol
# Density = 1.962627 g / cm^3
# Si number density = 19.671047 Si / 1000 Ang^3
#
#
#
# Elastic Constant Matrix: (Units=GPa)
#
#
# Indices 1 2 3 4 5 6 
#
# 1 57.4543 -21.0775 -4.6524 0.0000 0.0000 0.0000
# 2 -21.0775 74.0360 14.2395 0.0000 0.0000 0.0000
# 3 -4.6524 14.2395 175.7890 0.0000 0.0000 0.0000
# 4 0.0000 0.0000 0.0000 14.8134 0.0000 0.0000
# 5 0.0000 0.0000 0.0000 0.0000 17.8685 0.0000
# 6 0.0000 0.0000 0.0000 0.0000 0.0000 10.3000
#
#
#
# Elastic Compliance Matrix: (Units=1/GPa)
#
#
# Indices 1 2 3 4 5 6 
#
# 1 0.019436 0.005520 0.000067 0.000000 0.000000 0.000000
# 2 0.005520 0.015289 -0.001092 0.000000 0.000000 0.000000
# 3 0.000067 -0.001092 0.005779 0.000000 0.000000 0.000000
# 4 0.000000 0.000000 0.000000 0.067506 0.000000 0.000000
# 5 0.000000 0.000000 0.000000 0.000000 0.055965 0.000000
# 6 0.000000 0.000000 0.000000 0.000000 0.000000 0.097087
#
#
# Mechanical properties :
#
#
# Convention : Reuss Voigt Hill
#
# Bulk Modulus (GPa) = 20.20464 31.58871 25.89667
# Shear Modulus (GPa) = 18.61720 29.84769 24.23244
#
# Velocity S-wave (km/s) = 3.07974 3.89953 3.51363
# Velocity P-wave (km/s) = 4.78957 6.03063 5.44557
#
# Compressibility (1/GPa) = 0.04949359
#
# Stress axis : x y z
#
# Youngs Moduli (GPa) = 51.45165 65.40813 173.04331
#
# Poissons Ratio (x) = -0.36107 -0.01163
# Poissons Ratio (y) = -0.28403 0.18902
# Poissons Ratio (z) = -0.00346 0.07145
#
# Static dielectric constant tensor:
#      x y z
#    x 1.752320 0.000000 0.000000 
#    y 0.000000 1.692610 0.000000 
#    z 0.000000 0.000000 1.839080 
# 
# From -- ./inp_files/21491.got.cif
#   From: 2010.05.17/outbox.cif.g08.bks.cpg/sg72_11_cif.got.tgz:21491.got - 2010.06.03 17:03:01.
