data_PCOD9526942
_publ_section_title
;
Structure prediction by ZEFSAII (Michael W. Deem and Ramdas Pophale) SiO2 
 PCOD9526942
Probable space group: I B A M
;
_chemical_formula_sum "Si O2"
_cell_formula_units_Z 88
_cell_length_a 26.009885
_cell_length_b 16.646741
_cell_length_c 10.615271
_cell_angle_alpha 90.000000
_cell_angle_beta 90.000000
_cell_angle_gamma 90.000000
_cell_volume 4596.198117
_symmetry_space_group_name_H-M "I B A M"
_symmetry_group_IT_number 72
_symmetry_cell_setting 'orthorhombic'
loop_
_space_group_symop_operation_xyz
x,y,z
-x,-y,z
x,-y,1/2-z
-x,y,1/2-z
-x,-y,-z
x,y,-z
-x,y,1/2+z
x,-y,1/2+z
1/2+x,1/2+y,1/2+z
1/2-x,1/2-y,1/2+z
1/2+x,1/2-y,-z
1/2-x,1/2+y,-z
1/2-x,1/2-y,1/2-z
1/2+x,1/2+y,1/2-z
1/2-x,1/2+y,z
1/2+x,1/2-y,z
loop_
_atom_site_type_symbol
_atom_site_label
_atom_site_fract_x
_atom_site_fract_y
_atom_site_fract_z
Si Si1 0.283460 0.096939 0.249884
Si Si2 0.269378 0.200493 0.000000
Si Si3 0.560720 0.177357 0.500000
Si Si4 0.653823 0.308323 0.000000
Si Si5 0.440175 0.819159 0.000000
Si Si6 0.830560 0.904245 0.738283
Si Si7 0.635255 0.321982 0.500000
Si Si8 0.899481 0.596133 0.758196
O O1 0.277349 0.140784 0.116793
O O2 0.227975 0.116785 0.307989
O O3 0.340443 0.121866 0.291069
O O4 0.285006 0.000000 0.250000
O O5 0.313709 0.266145 0.000000
O O6 0.210768 0.233470 0.000000
O O7 0.500632 0.197781 0.500000
O O8 0.589091 0.261225 0.500000
O O9 0.580311 0.130744 0.374558
O O10 0.656322 0.361914 0.128384
O O11 0.603234 0.251826 0.000000
O O12 0.431455 0.871009 0.874429
O O13 0.865688 0.873618 0.626265
O O14 0.833044 0.000000 0.750000
O O15 0.901187 0.500000 0.750000
#
# Coordination Sequence:
#
# PCOD9526942 Si02
#       8
#    16   8   8   8   8  16   8  16
#     4   9  19  35  58  87 128 157 191 237 290 350
#     4  10  20  35  59  89 123 156 201 234 296 363
#     4  12  25  45  59  84 122 161 209 242 300 346
#     4  10  23  39  61  90 124 151 198 252 296 352
#     4  12  27  40  61  87 120 160 204 259 291 331
#     4  10  22  39  63  92 121 155 190 240 306 373
#     4  12  23  37  66  86 118 163 192 245 301 362
#     4  11  23  40  62  87 121 164 208 243 280 340
#
# _framework density 19.146260000000002
#
# number of rings (size 3 to 8) (size 9 to 14) (size 15 to 20)
#    0.000    1.455    1.818    2.727    2.545    8.000 
#    0.000    0.000    0.000    3.273    0.000    0.000 
#    0.000    0.000    0.000    0.000    0.000    0.000 
#
# Total GULP energy -245358.224766 kJ/mol
# GULP energy per Si atom -5576.323290 kJ/mol
# Density = 1.910268 g / cm^3
# Si number density = 19.146260 Si / 1000 Ang^3
#
#
#
# Elastic Constant Matrix: (Units=GPa)
#
#
# Indices 1 2 3 4 5 6 
#
# 1 148.2194 70.5888 54.9100 0.0000 0.0000 0.0000
# 2 70.5888 82.5223 54.8259 0.0000 0.0000 0.0000
# 3 54.9100 54.8259 123.8209 0.0000 0.0000 0.0000
# 4 0.0000 0.0000 0.0000 17.7562 0.0000 0.0000
# 5 0.0000 0.0000 0.0000 0.0000 14.5747 0.0000
# 6 0.0000 0.0000 0.0000 0.0000 0.0000 21.9905
#
#
#
# Elastic Compliance Matrix: (Units=1/GPa)
#
#
# Indices 1 2 3 4 5 6 
#
# 1 0.011481 -0.009121 -0.001053 0.000000 0.000000 0.000000
# 2 -0.009121 0.024415 -0.006766 0.000000 0.000000 0.000000
# 3 -0.001053 -0.006766 0.011539 0.000000 0.000000 0.000000
# 4 0.000000 0.000000 0.000000 0.056318 0.000000 0.000000
# 5 0.000000 0.000000 0.000000 0.000000 0.068612 0.000000
# 6 0.000000 0.000000 0.000000 0.000000 0.000000 0.045474
#
#
# Mechanical properties :
#
#
# Convention : Reuss Voigt Hill
#
# Bulk Modulus (GPa) = 73.77027 79.46801 76.61914
# Shear Modulus (GPa) = 19.51324 22.48012 20.99668
#
# Velocity S-wave (km/s) = 3.19590 3.43027 3.31516
# Velocity P-wave (km/s) = 7.22716 7.56868 7.39989
#
# Compressibility (1/GPa) = 0.01355560
#
# Stress axis : x y z
#
# Youngs Moduli (GPa) = 87.10378 40.95845 86.66494
#
# Poissons Ratio (x) = 0.37359 0.09122
# Poissons Ratio (y) = 0.79448 0.58635
# Poissons Ratio (z) = 0.09168 0.27711
#
# Static dielectric constant tensor:
#      x y z
#    x 1.693890 0.000000 0.000000 
#    y 0.000000 1.665420 0.000000 
#    z 0.000000 0.000000 1.647990 
# 
# From -- ./inp_files/15463.got.cif
#   From: 2010.05.17/outbox.cif.g08.bks.cpg/sg72_8_cif.got.tgz:15463.got - 2010.06.03 17:03:01.
