data_PCOD9526419
_publ_section_title
;
Structure prediction by ZEFSAII (Michael W. Deem and Ramdas Pophale) SiO2 
 PCOD9526419
Probable space group: I B A M
;
_chemical_formula_sum "Si O2"
_cell_formula_units_Z 96
_cell_length_a 24.879675
_cell_length_b 9.501674
_cell_length_c 17.817662
_cell_angle_alpha 90.000000
_cell_angle_beta 90.000000
_cell_angle_gamma 90.000000
_cell_volume 4212.069659
_symmetry_space_group_name_H-M "I B A M"
_symmetry_group_IT_number 72
_symmetry_cell_setting 'orthorhombic'
loop_
_space_group_symop_operation_xyz
x,y,z
-x,-y,z
x,-y,1/2-z
-x,y,1/2-z
-x,-y,-z
x,y,-z
-x,y,1/2+z
x,-y,1/2+z
1/2+x,1/2+y,1/2+z
1/2-x,1/2-y,1/2+z
1/2+x,1/2-y,-z
1/2-x,1/2+y,-z
1/2-x,1/2-y,1/2-z
1/2+x,1/2+y,1/2-z
1/2-x,1/2+y,z
1/2+x,1/2-y,z
loop_
_atom_site_type_symbol
_atom_site_label
_atom_site_fract_x
_atom_site_fract_y
_atom_site_fract_z
Si Si1 0.209760 0.928814 0.412204
Si Si2 0.636578 0.800296 0.329691
Si Si3 0.079493 0.173551 0.417461
Si Si4 0.472686 0.151983 0.587730
Si Si5 0.656203 0.380481 0.691385
Si Si6 0.167470 0.426106 0.414159
O O1 0.200249 0.943778 0.500000
O O2 0.169938 0.812244 0.378737
O O3 0.198758 0.080507 0.373518
O O4 0.271184 0.882871 0.400838
O O5 0.574384 0.803845 0.355941
O O6 0.648742 0.756755 0.243449
O O7 0.655065 0.954350 0.354311
O O8 0.084350 0.107747 0.500000
O O9 0.099334 0.082693 0.348191
O O10 0.123359 0.301629 0.412643
O O11 0.020898 0.236692 0.409678
O O12 0.453655 0.143397 0.500000
O O13 0.500000 0.000000 0.604923
O O14 0.670666 0.500000 0.750000
O O15 0.165093 0.483452 0.500000
#
# Coordination Sequence:
#
# PCOD9526419 Si02
#       6
#    16  16  16  16  16  16
#     4  10  22  40  63  89 125 172 216 259 307 375
#     4  11  22  40  61  94 132 162 206 262 331 376
#     4  10  21  40  65  94 122 158 210 265 321 379
#     4  10  19  37  66  96 125 157 205 269 322 379
#     4  10  24  43  58  88 126 174 211 253 314 375
#     4  10  21  37  63  95 123 162 212 264 319 375
#
# _framework density 22.791646
#
# number of rings (size 3 to 8) (size 9 to 14) (size 15 to 20)
#    0.000    1.833    1.667    2.000    2.333    2.000 
#    6.000    6.667    0.000    9.000    0.000    0.000 
#    0.000    0.000    0.000    0.000    0.000    0.000 
#
# Total GULP energy -267918.881175 kJ/mol
# GULP energy per Si atom -5581.643358 kJ/mol
# Density = 2.273977 g / cm^3
# Si number density = 22.791646 Si / 1000 Ang^3
#
#
#
# Elastic Constant Matrix: (Units=GPa)
#
#
# Indices 1 2 3 4 5 6 
#
# 1 127.3792 21.0439 28.6981 0.0000 0.0000 0.0000
# 2 21.0439 43.6545 11.4673 0.0000 0.0000 0.0000
# 3 28.6981 11.4673 97.5973 0.0000 0.0000 0.0000
# 4 0.0000 0.0000 0.0000 6.7772 0.0000 0.0000
# 5 0.0000 0.0000 0.0000 0.0000 72.8287 0.0000
# 6 0.0000 0.0000 0.0000 0.0000 0.0000 35.6361
#
#
#
# Elastic Compliance Matrix: (Units=1/GPa)
#
#
# Indices 1 2 3 4 5 6 
#
# 1 0.008964 -0.003744 -0.002196 0.000000 0.000000 0.000000
# 2 -0.003744 0.025201 -0.001860 0.000000 0.000000 0.000000
# 3 -0.002196 -0.001860 0.011110 0.000000 0.000000 0.000000
# 4 0.000000 0.000000 0.000000 0.147553 0.000000 0.000000
# 5 0.000000 0.000000 0.000000 0.000000 0.013731 0.000000
# 6 0.000000 0.000000 0.000000 0.000000 0.000000 0.028061
#
#
# Mechanical properties :
#
#
# Convention : Reuss Voigt Hill
#
# Bulk Modulus (GPa) = 33.69871 43.44995 38.57433
# Shear Modulus (GPa) = 19.22250 36.87652 28.04951
#
# Velocity S-wave (km/s) = 2.90729 4.02678 3.51193
# Velocity P-wave (km/s) = 5.10758 6.38164 5.77982
#
# Compressibility (1/GPa) = 0.02967473
#
# Stress axis : x y z
#
# Youngs Moduli (GPa) = 111.55886 39.68149 90.00571
#
# Poissons Ratio (x) = 0.14858 0.19764
# Poissons Ratio (y) = 0.41771 0.16741
# Poissons Ratio (z) = 0.24497 0.07381
#
# Static dielectric constant tensor:
#      x y z
#    x 1.835290 0.000000 0.000000 
#    y 0.000000 1.959740 0.000000 
#    z 0.000000 0.000000 1.942450 
# 
# From -- ./inp_files/33897.got.cif
#   From: 2010.05.17/outbox.cif.g08.bks.cpg/sg72_17_cif.got.tgz:33897.got - 2010.06.03 17:03:01.
