data_PCOD9526784
_publ_section_title
;
Structure prediction by ZEFSAII (Michael W. Deem and Ramdas Pophale) SiO2 
 PCOD9526784
Probable space group: I B A M
;
_chemical_formula_sum "Si O2"
_cell_formula_units_Z 112
_cell_length_a 33.047381
_cell_length_b 11.366855
_cell_length_c 14.685404
_cell_angle_alpha 90.000000
_cell_angle_beta 90.000000
_cell_angle_gamma 90.000000
_cell_volume 5516.495472
_symmetry_space_group_name_H-M "I B A M"
_symmetry_group_IT_number 72
_symmetry_cell_setting 'orthorhombic'
loop_
_space_group_symop_operation_xyz
x,y,z
-x,-y,z
x,-y,1/2-z
-x,y,1/2-z
-x,-y,-z
x,y,-z
-x,y,1/2+z
x,-y,1/2+z
1/2+x,1/2+y,1/2+z
1/2-x,1/2-y,1/2+z
1/2+x,1/2-y,-z
1/2-x,1/2+y,-z
1/2-x,1/2-y,1/2-z
1/2+x,1/2+y,1/2-z
1/2-x,1/2+y,z
1/2+x,1/2-y,z
loop_
_atom_site_type_symbol
_atom_site_label
_atom_site_fract_x
_atom_site_fract_y
_atom_site_fract_z
Si Si1 0.748626 0.876995 0.799869
Si Si2 0.986442 0.622744 0.355246
Si Si3 0.589975 0.516889 0.857265
Si Si4 0.592430 0.775007 0.196365
Si Si5 0.176285 0.270755 0.606122
Si Si6 0.941833 0.218946 0.600549
Si Si7 0.681966 0.496601 0.898447
O O1 0.750000 0.750000 0.750000
O O2 0.714482 0.853348 0.875850
O O3 0.793281 0.091644 0.663737
O O4 0.736825 0.000000 0.750000
O O5 0.938434 0.633612 0.348567
O O6 0.000000 0.500000 0.396778
O O7 0.000000 0.623069 0.250000
O O8 0.013253 0.727604 0.395169
O O9 0.593758 0.500000 0.750000
O O10 0.582593 0.655232 0.860878
O O11 0.558371 0.422704 0.893265
O O12 0.633775 0.482486 0.895809
O O13 0.639038 0.799590 0.173505
O O14 0.581630 0.759208 0.305042
O O15 0.163472 0.275619 0.500000
O O16 0.188363 0.134202 0.624625
O O17 0.924502 0.251260 0.500000
O O18 0.697099 0.478285 0.000000
#
# Coordination Sequence:
#
# PCOD9526784 Si02
#       7
#    16  16  16  16  16  16  16
#     4  12  24  41  64  93 129 169 213 260 329 389
#     4   9  19  38  59  82 115 167 214 253 307 372
#     4   9  18  33  57  88 120 157 201 254 315 370
#     4   9  20  39  64  87 121 164 210 259 312 376
#     4  10  22  42  66  93 124 167 220 267 318 384
#     4  10  20  34  57  89 123 155 200 259 316 373
#     4  10  20  37  62  89 123 164 213 263 314 382
#
# _framework density 20.302745000000002
#
# number of rings (size 3 to 8) (size 9 to 14) (size 15 to 20)
#    0.000    2.143    1.429    1.286    4.000    2.000 
#    5.143    3.571    0.000    0.857    0.000    0.000 
#    0.000    0.000    0.000    0.000    0.000    0.000 
#
# Total GULP energy -311767.060967 kJ/mol
# GULP energy per Si atom -5567.268946 kJ/mol
# Density = 2.025653 g / cm^3
# Si number density = 20.302745 Si / 1000 Ang^3
#
#
#
# Elastic Constant Matrix: (Units=GPa)
#
#
# Indices 1 2 3 4 5 6 
#
# 1 44.6636 33.0661 35.7353 0.0000 0.0000 0.0000
# 2 33.0661 80.4087 23.2935 0.0000 0.0000 0.0000
# 3 35.7353 23.2935 109.6162 0.0000 0.0000 0.0000
# 4 0.0000 0.0000 0.0000 8.8769 0.0000 0.0000
# 5 0.0000 0.0000 0.0000 0.0000 13.5830 0.0000
# 6 0.0000 0.0000 0.0000 0.0000 0.0000 35.1972
#
#
#
# Elastic Compliance Matrix: (Units=1/GPa)
#
#
# Indices 1 2 3 4 5 6 
#
# 1 0.040958 -0.013826 -0.010414 0.000000 0.000000 0.000000
# 2 -0.013826 0.017919 0.000699 0.000000 0.000000 0.000000
# 3 -0.010414 0.000699 0.012369 0.000000 0.000000 0.000000
# 4 0.000000 0.000000 0.000000 0.112652 0.000000 0.000000
# 5 0.000000 0.000000 0.000000 0.000000 0.073622 0.000000
# 6 0.000000 0.000000 0.000000 0.000000 0.000000 0.028411
#
#
# Mechanical properties :
#
#
# Convention : Reuss Voigt Hill
#
# Bulk Modulus (GPa) = 41.38268 46.54206 43.96237
# Shear Modulus (GPa) = 14.65979 21.03764 17.84871
#
# Velocity S-wave (km/s) = 2.69003 3.22249 2.96823
# Velocity P-wave (km/s) = 5.48410 6.06793 5.78339
#
# Compressibility (1/GPa) = 0.02416470
#
# Stress axis : x y z
#
# Youngs Moduli (GPa) = 24.41515 55.80520 80.84557
#
# Poissons Ratio (x) = 0.77157 0.84196
# Poissons Ratio (y) = 0.33757 -0.05655
# Poissons Ratio (z) = 0.25427 -0.03903
#
# Static dielectric constant tensor:
#      x y z
#    x 1.704360 0.000000 0.000000 
#    y 0.000000 1.763440 0.000000 
#    z 0.000000 0.000000 1.776590 
# 
# From -- ./inp_files/26428.got.cif
#   From: 2010.05.17/outbox.cif.g08.bks.cpg/sg72_14_cif.got.tgz:26428.got - 2010.06.03 17:03:01.
