data_PCOD9526150
_publ_section_title
;
Structure prediction by ZEFSAII (Michael W. Deem and Ramdas Pophale) SiO2 
 PCOD9526150
Probable space group: I B A M
;
_chemical_formula_sum "Si O2"
_cell_formula_units_Z 116
_cell_length_a 22.442671
_cell_length_b 28.218033
_cell_length_c 9.142899
_cell_angle_alpha 90.000000
_cell_angle_beta 90.000000
_cell_angle_gamma 90.000000
_cell_volume 5790.088504
_symmetry_space_group_name_H-M "I B A M"
_symmetry_group_IT_number 72
_symmetry_cell_setting 'orthorhombic'
loop_
_space_group_symop_operation_xyz
x,y,z
-x,-y,z
x,-y,1/2-z
-x,y,1/2-z
-x,-y,-z
x,y,-z
-x,y,1/2+z
x,-y,1/2+z
1/2+x,1/2+y,1/2+z
1/2-x,1/2-y,1/2+z
1/2+x,1/2-y,-z
1/2-x,1/2+y,-z
1/2-x,1/2-y,1/2-z
1/2+x,1/2+y,1/2-z
1/2-x,1/2+y,z
1/2+x,1/2-y,z
loop_
_atom_site_type_symbol
_atom_site_label
_atom_site_fract_x
_atom_site_fract_y
_atom_site_fract_z
Si Si1 0.832216 0.048532 0.324429
Si Si2 0.195158 0.451985 0.327497
Si Si3 0.598750 0.812061 0.328457
Si Si4 0.558614 0.718728 0.826471
Si Si5 0.409988 0.083011 0.337713
Si Si6 0.275498 0.797586 0.325978
Si Si7 0.000000 0.500000 0.750000
Si Si8 0.151227 0.153181 0.171624
O O1 0.833842 0.042732 0.500000
O O2 0.762926 0.056071 0.279257
O O3 0.862433 0.098616 0.289680
O O4 0.853471 0.000000 0.250000
O O5 0.176092 0.500000 0.250000
O O6 0.195980 0.456577 0.500000
O O7 0.142560 0.418051 0.279978
O O8 0.602548 0.798344 0.500000
O O9 0.566827 0.771420 0.236748
O O10 0.566615 0.863276 0.323584
O O11 0.665523 0.813236 0.260553
O O12 0.500000 0.697845 0.750000
O O13 0.615212 0.688790 0.772861
O O14 0.553242 0.719152 0.000000
O O15 0.382700 0.079736 0.500000
O O16 0.455670 0.038845 0.324797
O O17 0.288125 0.790101 0.500000
O O18 0.250000 0.750000 0.250000
O O19 0.221700 0.835481 0.316928
O O20 0.135949 0.160974 0.000000
#
# Coordination Sequence:
#
# PCOD9526150 Si02
#       8
#    16  16  16  16  16  16   4  16
#     4   9  19  35  58  91 126 162 198 240 297 361
#     4  10  19  34  57  83 116 155 196 244 301 364
#     4  11  24  42  63  91 126 163 209 265 322 385
#     4  12  26  44  66  91 121 162 209 254 309 371
#     4  11  25  42  60  83 112 153 206 264 321 372
#     4  11  21  36  62  96 131 168 208 257 320 383
#     4  12  26  44  64  86 114 156 218 280 330 380
#     4  10  21  39  63  91 129 168 206 254 308 371
#
# _framework density 20.034234999999999
#
# number of rings (size 3 to 8) (size 9 to 14) (size 15 to 20)
#    0.000    1.379    2.069    3.517    0.966    4.414 
#    0.000    0.000    0.000    0.414    0.000    2.897 
#    0.000    0.000    0.000    0.000    0.000    0.000 
#
# Total GULP energy -323563.503960 kJ/mol
# GULP energy per Si atom -5578.681103 kJ/mol
# Density = 1.998864 g / cm^3
# Si number density = 20.034235 Si / 1000 Ang^3
#
#
#
# Elastic Constant Matrix: (Units=GPa)
#
#
# Indices 1 2 3 4 5 6 
#
# 1 59.9988 8.8512 30.1062 0.0000 0.0000 0.0000
# 2 8.8512 126.4871 39.3856 0.0000 0.0000 0.0000
# 3 30.1062 39.3856 108.3797 0.0000 0.0000 0.0000
# 4 0.0000 0.0000 0.0000 23.9836 0.0000 0.0000
# 5 0.0000 0.0000 0.0000 0.0000 15.9615 0.0000
# 6 0.0000 0.0000 0.0000 0.0000 0.0000 10.9689
#
#
#
# Elastic Compliance Matrix: (Units=1/GPa)
#
#
# Indices 1 2 3 4 5 6 
#
# 1 0.019381 0.000361 -0.005515 0.000000 0.000000 0.000000
# 2 0.000361 0.008921 -0.003342 0.000000 0.000000 0.000000
# 3 -0.005515 -0.003342 0.011973 0.000000 0.000000 0.000000
# 4 0.000000 0.000000 0.000000 0.041695 0.000000 0.000000
# 5 0.000000 0.000000 0.000000 0.000000 0.062651 0.000000
# 6 0.000000 0.000000 0.000000 0.000000 0.000000 0.091167
#
#
# Mechanical properties :
#
#
# Convention : Reuss Voigt Hill
#
# Bulk Modulus (GPa) = 42.94926 50.17239 46.56083
# Shear Modulus (GPa) = 19.19075 24.61765 21.90420
#
# Velocity S-wave (km/s) = 3.09835 3.50920 3.31015
# Velocity P-wave (km/s) = 5.85527 6.44337 6.15634
#
# Compressibility (1/GPa) = 0.02328329
#
# Stress axis : x y z
#
# Youngs Moduli (GPa) = 51.59689 112.08972 83.51842
#
# Poissons Ratio (x) = -0.04047 0.46060
# Poissons Ratio (y) = -0.01863 0.27915
# Poissons Ratio (z) = 0.28455 0.37464
#
# Static dielectric constant tensor:
#      x y z
#    x 1.734170 0.000000 0.000000 
#    y 0.000000 1.739750 0.000000 
#    z 0.000000 0.000000 1.795260 
# 
# From -- ./inp_files/7238.got.cif
#   From: 2010.05.17/outbox.cif.g08.bks.cpg/sg72_4_cif.got.tgz:7238.got - 2010.06.03 17:03:01.
