data_PCOD9526595
_publ_section_title
;
Structure prediction by ZEFSAII (Michael W. Deem and Ramdas Pophale) SiO2 
 PCOD9526595
Probable space group: I B A M
;
_chemical_formula_sum "Si O2"
_cell_formula_units_Z 64
_cell_length_a 8.838523
_cell_length_b 23.973097
_cell_length_c 17.242687
_cell_angle_alpha 90.000000
_cell_angle_beta 90.000000
_cell_angle_gamma 90.000000
_cell_volume 3653.497241
_symmetry_space_group_name_H-M "I B A M"
_symmetry_group_IT_number 72
_symmetry_cell_setting 'orthorhombic'
loop_
_space_group_symop_operation_xyz
x,y,z
-x,-y,z
x,-y,1/2-z
-x,y,1/2-z
-x,-y,-z
x,y,-z
-x,y,1/2+z
x,-y,1/2+z
1/2+x,1/2+y,1/2+z
1/2-x,1/2-y,1/2+z
1/2+x,1/2-y,-z
1/2-x,1/2+y,-z
1/2-x,1/2-y,1/2-z
1/2+x,1/2+y,1/2-z
1/2-x,1/2+y,z
1/2+x,1/2-y,z
loop_
_atom_site_type_symbol
_atom_site_label
_atom_site_fract_x
_atom_site_fract_y
_atom_site_fract_z
Si Si1 0.118051 0.416312 0.820594
Si Si2 0.679058 0.809673 0.763865
Si Si3 0.321755 0.495967 0.591190
Si Si4 0.663688 0.877586 0.911738
O O1 0.215712 0.363328 0.790450
O O2 0.222121 0.465567 0.852136
O O3 0.000000 0.430627 0.750000
O O4 0.006165 0.396392 0.888881
O O5 0.500000 0.803654 0.750000
O O6 0.750000 0.750000 0.750000
O O7 0.708704 0.830497 0.850793
O O8 0.500000 0.500000 0.607735
O O9 0.297997 0.511904 0.500000
O O10 0.265787 0.432514 0.599009
O O11 0.672691 0.859197 0.000000
#
# Coordination Sequence:
#
# PCOD9526595 Si02
#       4
#    16  16  16  16
#     4   9  19  34  53  76 104 139 180 211 253 317
#     4   9  20  36  52  72  99 132 175 219 260 308
#     4  10  20  33  52  82 113 137 168 216 269 314
#     4   9  18  34  54  74 102 139 175 211 256 316
#
# _framework density 17.517461999999998
#
# number of rings (size 3 to 8) (size 9 to 14) (size 15 to 20)
#    0.000    3.250    0.000    1.500    0.000   12.000 
#    0.000   15.000    0.000    0.000    0.000    0.000 
#    0.000    0.000    0.000    0.000    0.000    0.000 
#
# Total GULP energy -178313.915802 kJ/mol
# GULP energy per Si atom -5572.309869 kJ/mol
# Density = 1.747759 g / cm^3
# Si number density = 17.517462 Si / 1000 Ang^3
#
#
#
# Elastic Constant Matrix: (Units=GPa)
#
#
# Indices 1 2 3 4 5 6 
#
# 1 48.0530 49.1600 51.5370 0.0000 0.0000 0.0000
# 2 49.1600 123.6024 93.7926 0.0000 0.0000 0.0000
# 3 51.5370 93.7926 119.5609 0.0000 0.0000 0.0000
# 4 0.0000 0.0000 0.0000 21.5019 0.0000 0.0000
# 5 0.0000 0.0000 0.0000 0.0000 16.8318 0.0000
# 6 0.0000 0.0000 0.0000 0.0000 0.0000 32.5727
#
#
#
# Elastic Compliance Matrix: (Units=1/GPa)
#
#
# Indices 1 2 3 4 5 6 
#
# 1 0.041128 -0.007178 -0.012098 0.000000 0.000000 0.000000
# 2 -0.007178 0.021243 -0.013571 0.000000 0.000000 0.000000
# 3 -0.012098 -0.013571 0.024224 0.000000 0.000000 0.000000
# 4 0.000000 0.000000 0.000000 0.046507 0.000000 0.000000
# 5 0.000000 0.000000 0.000000 0.000000 0.059411 0.000000
# 6 0.000000 0.000000 0.000000 0.000000 0.000000 0.030701
#
#
# Mechanical properties :
#
#
# Convention : Reuss Voigt Hill
#
# Bulk Modulus (GPa) = 47.83858 75.57729 61.70794
# Shear Modulus (GPa) = 16.89905 20.62975 18.76440
#
# Velocity S-wave (km/s) = 3.10933 3.43544 3.27644
# Velocity P-wave (km/s) = 6.34499 7.67945 7.04389
#
# Compressibility (1/GPa) = 0.02090363
#
# Stress axis : x y z
#
# Youngs Moduli (GPa) = 24.31415 47.07445 41.28077
#
# Poissons Ratio (x) = 0.33790 0.49940
# Poissons Ratio (y) = 0.17452 0.56020
# Poissons Ratio (z) = 0.29414 0.63882
#
# Static dielectric constant tensor:
#      x y z
#    x 1.592830 0.000000 0.000000 
#    y 0.000000 1.610110 0.000000 
#    z 0.000000 0.000000 1.628050 
# 
# From -- ./inp_files/18676.got.cif
#   From: 2010.05.17/outbox.cif.g08.bks.cpg/sg72_10_cif.got.tgz:18676.got - 2010.06.03 17:03:01.
