data_PCOD9526256
_publ_section_title
;
Structure prediction by ZEFSAII (Michael W. Deem and Ramdas Pophale) SiO2 
 PCOD9526256
Probable space group: I B A M
;
_chemical_formula_sum "Si O2"
_cell_formula_units_Z 96
_cell_length_a 14.086320
_cell_length_b 21.067542
_cell_length_c 17.367363
_cell_angle_alpha 90.000000
_cell_angle_beta 90.000000
_cell_angle_gamma 90.000000
_cell_volume 5154.010514
_symmetry_space_group_name_H-M "I B A M"
_symmetry_group_IT_number 72
_symmetry_cell_setting 'orthorhombic'
loop_
_space_group_symop_operation_xyz
x,y,z
-x,-y,z
x,-y,1/2-z
-x,y,1/2-z
-x,-y,-z
x,y,-z
-x,y,1/2+z
x,-y,1/2+z
1/2+x,1/2+y,1/2+z
1/2-x,1/2-y,1/2+z
1/2+x,1/2-y,-z
1/2-x,1/2+y,-z
1/2-x,1/2-y,1/2-z
1/2+x,1/2+y,1/2-z
1/2-x,1/2+y,z
1/2+x,1/2-y,z
loop_
_atom_site_type_symbol
_atom_site_label
_atom_site_fract_x
_atom_site_fract_y
_atom_site_fract_z
Si Si1 0.950950 0.062068 0.333890
Si Si2 0.240937 0.868308 0.093294
Si Si3 0.554629 0.815587 0.594051
Si Si4 0.463575 0.316409 0.907436
Si Si5 0.440508 0.061149 0.092496
Si Si6 0.758665 0.491002 0.164456
O O1 0.841039 0.045096 0.327220
O O2 0.000000 0.069100 0.250000
O O3 0.972529 0.124934 0.380680
O O4 0.000000 0.000000 0.371017
O O5 0.336698 0.830874 0.116222
O O6 0.144417 0.832480 0.117629
O O7 0.243756 0.939659 0.126738
O O8 0.240871 0.873355 0.000000
O O9 0.553920 0.814552 0.500000
O O10 0.509159 0.749444 0.620685
O O11 0.489470 0.874392 0.619952
O O12 0.461611 0.313811 0.000000
O O13 0.332934 0.050017 0.116593
O O14 0.500000 0.000000 0.119523
O O15 0.445739 0.061924 0.000000
O O16 0.798388 0.500000 0.250000
#
# Coordination Sequence:
#
# PCOD9526256 Si02
#       6
#    16  16  16  16  16  16
#     4  11  21  40  58  80 114 157 188 234 297 340
#     4  10  19  35  58  82 113 153 189 232 297 346
#     4   9  19  37  57  83 120 151 182 232 296 347
#     4  10  21  35  59  88 112 145 194 245 282 341
#     4  10  20  37  60  85 114 153 190 230 288 345
#     4  12  22  35  59  86 114 149 197 240 283 338
#
# _framework density 18.626272
#
# number of rings (size 3 to 8) (size 9 to 14) (size 15 to 20)
#    0.000    1.667    5.000    0.500    0.000    3.333 
#    0.000    5.000    0.000    4.000    0.000    0.000 
#    0.000    0.000    0.000    0.000    0.000    0.000 
#
# Total GULP energy -267863.862805 kJ/mol
# GULP energy per Si atom -5580.497142 kJ/mol
# Density = 1.858388 g / cm^3
# Si number density = 18.626272 Si / 1000 Ang^3
#
#
#
# Elastic Constant Matrix: (Units=GPa)
#
#
# Indices 1 2 3 4 5 6 
#
# 1 129.4282 74.1713 15.5321 0.0000 0.0000 0.0000
# 2 74.1713 161.7925 21.5030 0.0000 0.0000 0.0000
# 3 15.5321 21.5030 7.1432 0.0000 0.0000 0.0000
# 4 0.0000 0.0000 0.0000 3.7046 0.0000 0.0000
# 5 0.0000 0.0000 0.0000 0.0000 20.6294 0.0000
# 6 0.0000 0.0000 0.0000 0.0000 0.0000 25.6661
#
#
#
# Elastic Compliance Matrix: (Units=1/GPa)
#
#
# Indices 1 2 3 4 5 6 
#
# 1 0.011375 -0.003213 -0.015062 0.000000 0.000000 0.000000
# 2 -0.003213 0.011210 -0.026760 0.000000 0.000000 0.000000
# 3 -0.015062 -0.026760 0.253300 0.000001 0.000000 0.000000
# 4 0.000000 0.000000 0.000001 0.269936 0.000000 0.000000
# 5 0.000000 0.000000 0.000000 0.000000 0.048475 0.000000
# 6 0.000000 0.000000 0.000000 0.000000 0.000000 0.038962
#
#
# Mechanical properties :
#
#
# Convention : Reuss Voigt Hill
#
# Bulk Modulus (GPa) = 5.38169 57.86408 31.62289
# Shear Modulus (GPa) = 6.36728 22.47717 14.42222
#
# Velocity S-wave (km/s) = 1.85091 3.47759 2.78563
# Velocity P-wave (km/s) = 2.73192 6.87446 5.23075
#
# Compressibility (1/GPa) = 0.18581523
#
# Stress axis : x y z
#
# Youngs Moduli (GPa) = 87.91172 89.20503 3.94789
#
# Poissons Ratio (x) = 0.28660 0.05946
# Poissons Ratio (y) = 0.28245 0.10564
# Poissons Ratio (z) = 1.32415 2.38709
#
# Static dielectric constant tensor:
#      x y z
#    x 1.650760 0.000000 0.000000 
#    y 0.000000 1.629390 0.000000 
#    z 0.000000 0.000000 1.649010 
# 
# From -- ./inp_files/37117.got.cif
#   From: 2010.05.17/outbox.cif.g08.bks.cpg/sg72_19_cif.got.tgz:37117.got - 2010.06.03 17:03:01.
