data_PCOD9526466
_publ_section_title
;
Structure prediction by ZEFSAII (Michael W. Deem and Ramdas Pophale) SiO2 
 PCOD9526466
Probable space group: I B A M
;
_chemical_formula_sum "Si O2"
_cell_formula_units_Z 116
_cell_length_a 8.446264
_cell_length_b 23.302568
_cell_length_c 25.446891
_cell_angle_alpha 90.000000
_cell_angle_beta 90.000000
_cell_angle_gamma 90.000000
_cell_volume 5008.447956
_symmetry_space_group_name_H-M "I B A M"
_symmetry_group_IT_number 72
_symmetry_cell_setting 'orthorhombic'
loop_
_space_group_symop_operation_xyz
x,y,z
-x,-y,z
x,-y,1/2-z
-x,y,1/2-z
-x,-y,-z
x,y,-z
-x,y,1/2+z
x,-y,1/2+z
1/2+x,1/2+y,1/2+z
1/2-x,1/2-y,1/2+z
1/2+x,1/2-y,-z
1/2-x,1/2+y,-z
1/2-x,1/2-y,1/2-z
1/2+x,1/2+y,1/2-z
1/2-x,1/2+y,z
1/2+x,1/2-y,z
loop_
_atom_site_type_symbol
_atom_site_label
_atom_site_fract_x
_atom_site_fract_y
_atom_site_fract_z
Si Si1 0.781735 0.771780 0.391872
Si Si2 0.944693 0.619520 0.117648
Si Si3 0.334447 0.797516 0.283448
Si Si4 0.217321 0.979459 0.842462
Si Si5 0.911455 0.821800 0.940628
Si Si6 0.500000 0.500000 0.750000
Si Si7 0.139550 0.409398 0.288536
Si Si8 0.234916 0.559686 0.938342
O O1 0.646407 0.821705 0.394609
O O2 0.808556 0.733808 0.340049
O O3 0.729347 0.724027 0.434202
O O4 0.946176 0.803082 0.403740
O O5 0.819908 0.574859 0.142034
O O6 0.063877 0.630439 0.165612
O O7 0.057134 0.583351 0.077182
O O8 0.500000 0.803706 0.250000
O O9 0.250000 0.750000 0.250000
O O10 0.245624 0.859220 0.270645
O O11 0.096645 0.963899 0.794701
O O12 0.300852 0.032797 0.813266
O O13 0.195363 0.010527 0.899614
O O14 0.844847 0.884818 0.929773
O O15 0.971912 0.821068 0.000000
O O16 0.000000 0.425609 0.250000
O O17 0.235834 0.543527 0.000000
#
# Coordination Sequence:
#
# PCOD9526466 Si02
#       8
#    16  16  16  16  16   4  16  16
#     4  12  23  41  65  96 141 183 230 291 345 430
#     4  11  24  40  67  99 133 177 236 284 351 422
#     4  11  23  39  59  93 127 171 222 277 346 411
#     4  11  25  44  66 101 136 184 238 284 361 426
#     4  11  24  42  68 100 136 182 232 289 357 423
#     4  12  28  44  68  96 152 184 230 298 348 422
#     4  10  19  39  65  89 126 170 234 292 341 410
#     4  10  23  46  74 102 138 180 236 305 365 427
#
# _framework density 23.160868000000001
#
# number of rings (size 3 to 8) (size 9 to 14) (size 15 to 20)
#    0.000    1.103    0.000    8.690    1.931    3.862 
#    2.483    0.345    0.000    0.000    0.000    0.000 
#    0.000    0.000    0.000    0.000    0.000    0.000 
#
# Total GULP energy -322929.075935 kJ/mol
# GULP energy per Si atom -5567.742689 kJ/mol
# Density = 2.310815 g / cm^3
# Si number density = 23.160868 Si / 1000 Ang^3
#
#
#
# Elastic Constant Matrix: (Units=GPa)
#
#
# Indices 1 2 3 4 5 6 
#
# 1 47.0518 8.9552 19.1934 0.0000 0.0000 0.0000
# 2 8.9552 104.6740 18.8603 0.0000 0.0000 0.0000
# 3 19.1934 18.8603 106.7416 0.0000 0.0000 0.0000
# 4 0.0000 0.0000 0.0000 16.7375 0.0000 0.0000
# 5 0.0000 0.0000 0.0000 0.0000 26.9120 0.0000
# 6 0.0000 0.0000 0.0000 0.0000 0.0000 -1.4287
#
#
#
# Elastic Compliance Matrix: (Units=1/GPa)
#
#
# Indices 1 2 3 4 5 6 
#
# 1 0.023097 -0.001268 -0.003929 0.000000 0.000000 0.000000
# 2 -0.001268 0.009937 -0.001528 0.000000 0.000000 0.000000
# 3 -0.003929 -0.001528 0.010345 0.000000 0.000000 0.000000
# 4 0.000000 0.000000 0.000000 0.059746 0.000000 0.000000
# 5 0.000000 0.000000 0.000000 0.000000 0.037158 0.000000
# 6 0.000000 0.000000 0.000000 0.000000 0.000000 -0.699935
#
#
# Mechanical properties :
#
#
# Convention : Reuss Voigt Hill
#
# Bulk Modulus (GPa) = 33.41195 39.16500 36.28847
# Shear Modulus (GPa) = -9.32445 22.54138 6.60847
#
# Velocity S-wave (km/s) = -2.00865 3.12308 1.69100
# Velocity P-wave (km/s) = 3.01293 5.47280 4.41754
#
# Compressibility (1/GPa) = 0.02992941
#
# Stress axis : x y z
#
# Youngs Moduli (GPa) = 43.29510 100.63151 96.66639
#
# Poissons Ratio (x) = 0.12761 0.37981
# Poissons Ratio (y) = 0.05490 0.14769
# Poissons Ratio (z) = 0.17011 0.15374
#
# Static dielectric constant tensor:
#      x y z
#    x 1.860210 0.000000 0.000000 
#    y 0.000000 1.593440 0.000000 
#    z 0.000000 0.000000 2.966400 
# 
# From -- ./inp_files/47622.got.cif
#   From: 2010.05.17/outbox.cif.g08.bks.cpg/sg72_24_cif.got.tgz:47622.got - 2010.06.03 17:03:01.
