data_PCOD9526728
_publ_section_title
;
Structure prediction by ZEFSAII (Michael W. Deem and Ramdas Pophale) SiO2 
 PCOD9526728
Probable space group: I B A M
;
_chemical_formula_sum "Si O2"
_cell_formula_units_Z 128
_cell_length_a 27.526533
_cell_length_b 10.566355
_cell_length_c 22.308879
_cell_angle_alpha 90.000000
_cell_angle_beta 90.000000
_cell_angle_gamma 90.000000
_cell_volume 6488.651670
_symmetry_space_group_name_H-M "I B A M"
_symmetry_group_IT_number 72
_symmetry_cell_setting 'orthorhombic'
loop_
_space_group_symop_operation_xyz
x,y,z
-x,-y,z
x,-y,1/2-z
-x,y,1/2-z
-x,-y,-z
x,y,-z
-x,y,1/2+z
x,-y,1/2+z
1/2+x,1/2+y,1/2+z
1/2-x,1/2-y,1/2+z
1/2+x,1/2-y,-z
1/2-x,1/2+y,-z
1/2-x,1/2-y,1/2-z
1/2+x,1/2+y,1/2-z
1/2-x,1/2+y,z
1/2+x,1/2-y,z
loop_
_atom_site_type_symbol
_atom_site_label
_atom_site_fract_x
_atom_site_fract_y
_atom_site_fract_z
Si Si1 0.343141 0.190492 0.068148
Si Si2 0.269571 0.067560 0.158379
Si Si3 0.187839 0.977380 0.067691
Si Si4 0.702540 0.795264 0.311810
Si Si5 0.050884 0.657052 0.372088
Si Si6 0.441169 0.852902 0.376452
Si Si7 0.394217 0.846591 0.249625
Si Si8 0.856428 0.235990 0.568033
O O1 0.316537 0.110043 0.119890
O O2 0.328605 0.335607 0.079338
O O3 0.400892 0.179872 0.074789
O O4 0.328358 0.155555 0.000000
O O5 0.244174 0.188196 0.190370
O O6 0.229483 0.022126 0.111181
O O7 0.280149 0.939217 0.193768
O O8 0.146194 0.083656 0.072343
O O9 0.206614 0.982066 0.000000
O O10 0.657275 0.781725 0.266079
O O11 0.679044 0.786291 0.379369
O O12 0.054022 0.505052 0.376289
O O13 0.069403 0.686082 0.304762
O O14 0.090231 0.714223 0.417098
O O15 0.995653 0.697866 0.383267
O O16 0.418032 0.812597 0.312735
O O17 0.387299 0.000000 0.250000
O O18 0.841580 0.271426 0.500000
#
# Coordination Sequence:
#
# PCOD9526728 Si02
#       8
#    16  16  16  16  16  16  16  16
#     4  11  22  35  53  80 113 146 186 232 279 329
#     4  11  19  36  54  81 110 149 188 231 275 329
#     4   9  19  34  52  76 108 150 189 228 269 328
#     4  10  21  33  57  82 113 146 193 227 278 328
#     4   9  18  33  56  83 105 145 183 227 279 339
#     4  10  20  34  55  81 112 140 182 229 286 330
#     4   9  17  35  56  81 107 140 182 231 276 336
#     4   9  18  33  54  80 114 146 184 227 277 329
#
# _framework density 19.726748000000001
#
# number of rings (size 3 to 8) (size 9 to 14) (size 15 to 20)
#    0.000    2.250    1.250    3.000    0.000    5.000 
#    0.000    4.375    0.000    8.250    0.000    5.250 
#    0.000    0.000    0.000    0.000    0.000    0.000 
#
# Total GULP energy -357264.757178 kJ/mol
# GULP energy per Si atom -5582.261831 kJ/mol
# Density = 1.968185 g / cm^3
# Si number density = 19.726748 Si / 1000 Ang^3
#
#
#
# Elastic Constant Matrix: (Units=GPa)
#
#
# Indices 1 2 3 4 5 6 
#
# 1 111.2918 30.2807 16.9689 0.0000 0.0000 0.0000
# 2 30.2807 73.0526 32.4103 0.0000 0.0000 0.0000
# 3 16.9689 32.4103 58.7707 0.0000 0.0000 0.0000
# 4 0.0000 0.0000 0.0000 28.3758 0.0000 0.0000
# 5 0.0000 0.0000 0.0000 0.0000 18.1741 0.0000
# 6 0.0000 0.0000 0.0000 0.0000 0.0000 14.0250
#
#
#
# Elastic Compliance Matrix: (Units=1/GPa)
#
#
# Indices 1 2 3 4 5 6 
#
# 1 0.010157 -0.003851 -0.000809 0.000000 0.000000 0.000000
# 2 -0.003851 0.019583 -0.009688 0.000000 0.000000 0.000000
# 3 -0.000809 -0.009688 0.022591 0.000000 0.000000 0.000000
# 4 0.000000 0.000000 0.000000 0.035241 0.000000 0.000000
# 5 0.000000 0.000000 0.000000 0.000000 0.055023 0.000000
# 6 0.000000 0.000000 0.000000 0.000000 0.000000 0.071301
#
#
# Mechanical properties :
#
#
# Convention : Reuss Voigt Hill
#
# Bulk Modulus (GPa) = 42.30840 44.71500 43.51170
# Shear Modulus (GPa) = 19.96248 23.01200 21.48724
#
# Velocity S-wave (km/s) = 3.18457 3.41917 3.30395
# Velocity P-wave (km/s) = 5.91741 6.18902 6.05474
#
# Compressibility (1/GPa) = 0.02363597
#
# Stress axis : x y z
#
# Youngs Moduli (GPa) = 98.45888 51.06461 44.26508
#
# Poissons Ratio (x) = 0.19666 0.03580
# Poissons Ratio (y) = 0.37918 0.42882
# Poissons Ratio (z) = 0.07963 0.49469
#
# Static dielectric constant tensor:
#      x y z
#    x 1.696660 0.000000 0.000000 
#    y 0.000000 1.683140 0.000000 
#    z 0.000000 0.000000 1.722460 
# 
# From -- ./inp_files/46050.got.cif
#   From: 2010.05.17/outbox.cif.g08.bks.cpg/sg72_24_cif.got.tgz:46050.got - 2010.06.03 17:03:01.
