data_PCOD9526745
_publ_section_title
;
Structure prediction by ZEFSAII (Michael W. Deem and Ramdas Pophale) SiO2 
 PCOD9526745
Probable space group: I B A M
;
_chemical_formula_sum "Si O2"
_cell_formula_units_Z 96
_cell_length_a 22.496521
_cell_length_b 14.583994
_cell_length_c 15.150089
_cell_angle_alpha 90.000000
_cell_angle_beta 90.000000
_cell_angle_gamma 90.000000
_cell_volume 4970.579478
_symmetry_space_group_name_H-M "I B A M"
_symmetry_group_IT_number 72
_symmetry_cell_setting 'orthorhombic'
loop_
_space_group_symop_operation_xyz
x,y,z
-x,-y,z
x,-y,1/2-z
-x,y,1/2-z
-x,-y,-z
x,y,-z
-x,y,1/2+z
x,-y,1/2+z
1/2+x,1/2+y,1/2+z
1/2-x,1/2-y,1/2+z
1/2+x,1/2-y,-z
1/2-x,1/2+y,-z
1/2-x,1/2-y,1/2-z
1/2+x,1/2+y,1/2-z
1/2-x,1/2+y,z
1/2+x,1/2-y,z
loop_
_atom_site_type_symbol
_atom_site_label
_atom_site_fract_x
_atom_site_fract_y
_atom_site_fract_z
Si Si1 0.658850 0.707236 0.000000
Si Si2 0.750147 0.950234 0.663660
Si Si3 0.607905 0.322547 0.000000
Si Si4 0.477837 0.757220 0.500000
Si Si5 0.309684 0.509080 0.000000
Si Si6 0.515513 0.103028 0.852816
Si Si7 0.857921 0.681914 0.148415
Si Si8 0.690931 0.724362 0.194098
O O1 0.587477 0.714326 0.000000
O O2 0.674902 0.599256 0.000000
O O3 0.685093 0.749019 0.909074
O O4 0.700618 0.878610 0.629812
O O5 0.805932 0.886488 0.693719
O O6 0.725912 0.000000 0.750000
O O7 0.770651 0.019608 0.588350
O O8 0.634484 0.267417 0.083313
O O9 0.536197 0.309123 0.000000
O O10 0.634023 0.424502 0.000000
O O11 0.484358 0.822309 0.585423
O O12 0.500000 0.115094 0.750000
O O13 0.585509 0.118249 0.864598
O O14 0.500000 0.000000 0.879291
O O15 0.857328 0.723573 0.247219
O O16 0.750000 0.750000 0.250000
#
# Coordination Sequence:
#
# PCOD9526745 Si02
#       8
#     8  16   8   8   8  16  16  16
#     4  10  20  37  60  83 118 147 192 251 290 345
#     4  10  20  34  56  81 114 143 190 239 292 345
#     4  10  21  37  60  81 114 157 197 237 294 345
#     4  10  21  38  57  85 113 152 199 244 291 346
#     4  10  21  38  57  83 110 148 186 244 297 345
#     4  10  21  35  57  80 115 156 196 237 285 341
#     4  10  20  36  57  80 117 153 194 238 285 349
#     4   9  19  35  56  82 113 153 190 234 291 346
#
# _framework density 19.313642999999999
#
# number of rings (size 3 to 8) (size 9 to 14) (size 15 to 20)
#    0.000    2.167    0.000    2.750    2.333    2.333 
#    0.000    3.333    0.000    0.000    0.000    4.667 
#    0.000    0.000    0.000    0.000    0.000    0.167 
#
# Total GULP energy -267550.808184 kJ/mol
# GULP energy per Si atom -5573.975171 kJ/mol
# Density = 1.926968 g / cm^3
# Si number density = 19.313643 Si / 1000 Ang^3
#
#
#
# Elastic Constant Matrix: (Units=GPa)
#
#
# Indices 1 2 3 4 5 6 
#
# 1 74.4251 18.6105 28.1143 0.0000 0.0000 0.0000
# 2 18.6105 42.3025 25.4358 0.0000 0.0000 0.0000
# 3 28.1143 25.4358 133.3913 0.0000 0.0000 0.0000
# 4 0.0000 0.0000 0.0000 20.2957 0.0000 0.0000
# 5 0.0000 0.0000 0.0000 0.0000 21.1679 0.0000
# 6 0.0000 0.0000 0.0000 0.0000 0.0000 30.3776
#
#
#
# Elastic Compliance Matrix: (Units=1/GPa)
#
#
# Indices 1 2 3 4 5 6 
#
# 1 0.015671 -0.005544 -0.002246 0.000000 0.000000 0.000000
# 2 -0.005544 0.028662 -0.004297 0.000000 0.000000 0.000000
# 3 -0.002246 -0.004297 0.008789 0.000000 0.000000 0.000000
# 4 0.000000 0.000000 0.000000 0.049272 0.000000 0.000000
# 5 0.000000 0.000000 0.000000 0.000000 0.047241 0.000000
# 6 0.000000 0.000000 0.000000 0.000000 0.000000 0.032919
#
#
# Mechanical properties :
#
#
# Convention : Reuss Voigt Hill
#
# Bulk Modulus (GPa) = 34.54343 43.82669 39.18506
# Shear Modulus (GPa) = 23.10780 26.23213 24.66996
#
# Velocity S-wave (km/s) = 3.46273 3.68940 3.57786
# Velocity P-wave (km/s) = 5.82337 6.39455 6.11563
#
# Compressibility (1/GPa) = 0.02894906
#
# Stress axis : x y z
#
# Youngs Moduli (GPa) = 63.81226 34.88948 113.77295
#
# Poissons Ratio (x) = 0.19343 0.25551
# Poissons Ratio (y) = 0.35377 0.48888
# Poissons Ratio (z) = 0.14331 0.14992
#
# Static dielectric constant tensor:
#      x y z
#    x 1.710710 0.000000 0.000000 
#    y 0.000000 1.664010 0.000000 
#    z 0.000000 0.000000 1.753580 
# 
# From -- ./inp_files/25159.got.cif
#   From: 2010.05.17/outbox.cif.g08.bks.cpg/sg72_13_cif.got.tgz:25159.got - 2010.06.03 17:03:01.
