data_PCOD9526765
_publ_section_title
;
Structure prediction by ZEFSAII (Michael W. Deem and Ramdas Pophale) SiO2 
 PCOD9526765
Probable space group: I B A M
;
_chemical_formula_sum "Si O2"
_cell_formula_units_Z 116
_cell_length_a 19.341788
_cell_length_b 22.505662
_cell_length_c 14.337222
_cell_angle_alpha 90.000000
_cell_angle_beta 90.000000
_cell_angle_gamma 90.000000
_cell_volume 6240.989055
_symmetry_space_group_name_H-M "I B A M"
_symmetry_group_IT_number 72
_symmetry_cell_setting 'orthorhombic'
loop_
_space_group_symop_operation_xyz
x,y,z
-x,-y,z
x,-y,1/2-z
-x,y,1/2-z
-x,-y,-z
x,y,-z
-x,y,1/2+z
x,-y,1/2+z
1/2+x,1/2+y,1/2+z
1/2-x,1/2-y,1/2+z
1/2+x,1/2-y,-z
1/2-x,1/2+y,-z
1/2-x,1/2-y,1/2-z
1/2+x,1/2+y,1/2-z
1/2-x,1/2+y,z
1/2+x,1/2-y,z
loop_
_atom_site_type_symbol
_atom_site_label
_atom_site_fract_x
_atom_site_fract_y
_atom_site_fract_z
Si Si1 0.566771 0.790785 0.136692
Si Si2 0.736653 0.062831 0.284153
Si Si3 0.701629 0.867639 0.393566
Si Si4 0.205494 0.234712 0.395572
Si Si5 0.902391 0.570605 0.393375
Si Si6 0.912494 0.269594 0.356110
Si Si7 0.193509 0.834662 0.611879
Si Si8 0.000000 0.500000 0.250000
O O1 0.625337 0.746491 0.100929
O O2 0.584383 0.858364 0.110048
O O3 0.489941 0.773955 0.105892
O O4 0.576786 0.783699 0.247391
O O5 0.696957 0.087124 0.191443
O O6 0.676117 0.058393 0.361470
O O7 0.794365 0.105926 0.328990
O O8 0.765502 0.000000 0.250000
O O9 0.708806 0.890980 0.500000
O O10 0.768644 0.828561 0.362898
O O11 0.638031 0.821285 0.392707
O O12 0.234660 0.235269 0.500000
O O13 0.243932 0.291273 0.352349
O O14 0.914191 0.550363 0.500000
O O15 0.952709 0.539742 0.318486
O O16 0.873945 0.206678 0.371454
O O17 0.199217 0.846801 0.500000
#
# Coordination Sequence:
#
# PCOD9526765 Si02
#       8
#    16  16  16  16  16  16  16   4
#     4  11  20  33  56  88 119 151 184 238 300 369
#     4  12  24  40  57  82 112 157 213 248 291 350
#     4  10  21  37  56  80 113 151 190 244 299 351
#     4   9  17  31  54  81 108 143 183 225 296 364
#     4  12  25  41  60  82 117 162 206 251 297 352
#     4  10  20  34  56  88 121 149 191 241 305 369
#     4  10  20  37  59  85 118 156 197 249 307 362
#     4  12  26  48  52  78 112 164 218 254 286 334
#
# _framework density 18.586797000000001
#
# number of rings (size 3 to 8) (size 9 to 14) (size 15 to 20)
#    0.000    1.379    3.448    3.931    0.000    5.517 
#    0.000    0.000    0.000    0.000    0.000    7.724 
#    0.000   12.138    0.000    0.000    0.000    0.000 
#
# Total GULP energy -323451.059625 kJ/mol
# GULP energy per Si atom -5576.742407 kJ/mol
# Density = 1.854449 g / cm^3
# Si number density = 18.586797 Si / 1000 Ang^3
#
#
#
# Elastic Constant Matrix: (Units=GPa)
#
#
# Indices 1 2 3 4 5 6 
#
# 1 71.7844 12.3956 4.7237 0.0000 0.0000 0.0000
# 2 12.3956 50.0437 22.8737 0.0000 0.0000 0.0000
# 3 4.7237 22.8737 136.6313 0.0000 0.0000 0.0000
# 4 0.0000 0.0000 0.0000 -1.3680 0.0000 0.0000
# 5 0.0000 0.0000 0.0000 0.0000 17.5743 0.0000
# 6 0.0000 0.0000 0.0000 0.0000 0.0000 15.1397
#
#
#
# Elastic Compliance Matrix: (Units=1/GPa)
#
#
# Indices 1 2 3 4 5 6 
#
# 1 0.014555 -0.003655 0.000109 0.000000 0.000000 0.000000
# 2 -0.003655 0.022556 -0.003650 0.000000 0.000000 0.000000
# 3 0.000109 -0.003650 0.007926 0.000000 0.000000 0.000000
# 4 0.000000 0.000000 0.000000 -0.731003 0.000000 0.000000
# 5 0.000000 0.000000 0.000000 0.000000 0.056901 0.000000
# 6 0.000000 0.000000 0.000000 0.000000 0.000000 0.066052
#
#
# Mechanical properties :
#
#
# Convention : Reuss Voigt Hill
#
# Bulk Modulus (GPa) = 32.63171 37.60504 35.11837
# Shear Modulus (GPa) = -9.28666 20.83363 5.77349
#
# Velocity S-wave (km/s) = -2.23768 3.35159 1.76436
# Velocity P-wave (km/s) = 3.30427 5.93747 4.80478
#
# Compressibility (1/GPa) = 0.03064504
#
# Stress axis : x y z
#
# Youngs Moduli (GPa) = 68.70702 44.33405 126.16341
#
# Poissons Ratio (x) = 0.16203 -0.01371
# Poissons Ratio (y) = 0.25111 0.46047
# Poissons Ratio (z) = -0.00747 0.16181
#
# Static dielectric constant tensor:
#      x y z
#    x 1.639820 0.000000 0.000000 
#    y 0.000000 1.678290 0.000000 
#    z 0.000000 0.000000 2.270950 
# 
# From -- ./inp_files/23539.got.cif
#   From: 2010.05.17/outbox.cif.g08.bks.cpg/sg72_12_cif.got.tgz:23539.got - 2010.06.03 17:03:01.
