data_PCOD9526529
_publ_section_title
;
Structure prediction by ZEFSAII (Michael W. Deem and Ramdas Pophale) SiO2 
 PCOD9526529
Probable space group: I B A M
;
_chemical_formula_sum "Si O2"
_cell_formula_units_Z 100
_cell_length_a 27.850734
_cell_length_b 20.422397
_cell_length_c 7.818399
_cell_angle_alpha 90.000000
_cell_angle_beta 90.000000
_cell_angle_gamma 90.000000
_cell_volume 4446.939183
_symmetry_space_group_name_H-M "I B A M"
_symmetry_group_IT_number 72
_symmetry_cell_setting 'orthorhombic'
loop_
_space_group_symop_operation_xyz
x,y,z
-x,-y,z
x,-y,1/2-z
-x,y,1/2-z
-x,-y,-z
x,y,-z
-x,y,1/2+z
x,-y,1/2+z
1/2+x,1/2+y,1/2+z
1/2-x,1/2-y,1/2+z
1/2+x,1/2-y,-z
1/2-x,1/2+y,-z
1/2-x,1/2-y,1/2-z
1/2+x,1/2+y,1/2-z
1/2-x,1/2+y,z
1/2+x,1/2-y,z
loop_
_atom_site_type_symbol
_atom_site_label
_atom_site_fract_x
_atom_site_fract_y
_atom_site_fract_z
Si Si1 0.764004 0.324456 0.293519
Si Si2 0.445652 0.882042 0.296557
Si Si3 0.657526 0.927057 0.298257
Si Si4 0.554573 0.735607 0.795821
Si Si5 0.810489 0.069378 0.204509
Si Si6 0.500000 0.500000 0.750000
Si Si7 0.417054 0.405068 0.211364
O O1 0.765966 0.325888 0.500000
O O2 0.750000 0.250000 0.250000
O O3 0.811837 0.364108 0.230050
O O4 0.720678 0.370598 0.231265
O O5 0.500000 0.903363 0.250000
O O6 0.445652 0.878878 0.500000
O O7 0.398915 0.922116 0.245105
O O8 0.437048 0.808216 0.224479
O O9 0.662006 0.923251 0.500000
O O10 0.674746 0.000000 0.250000
O O11 0.500000 0.719736 0.750000
O O12 0.583145 0.671637 0.742228
O O13 0.560145 0.739864 0.000000
O O14 0.865155 0.070017 0.265277
O O15 0.788004 0.000000 0.250000
O O16 0.812685 0.075321 0.000000
O O17 0.540545 0.554299 0.698391
O O18 0.424078 0.411313 0.000000
#
# Coordination Sequence:
#
# PCOD9526529 Si02
#       7
#    16  16  16  16  16   4  16
#     4  10  24  43  67  95 126 161 207 267 321 380
#     4  10  21  38  64  95 129 170 209 257 315 378
#     4  11  24  43  66  97 131 168 213 263 320 387
#     4   9  18  33  52  77 110 154 200 245 298 354
#     4  10  21  39  60  85 118 159 203 252 310 370
#     4  12  18  32  52  78 120 160 208 252 300 352
#     4  10  20  32  50  77 113 155 201 249 301 359
#
# _framework density 22.487376999999999
#
# number of rings (size 3 to 8) (size 9 to 14) (size 15 to 20)
#    0.000    1.920    1.600    1.680    2.240    2.880 
#    0.000    2.400    0.000    0.000    0.000    0.000 
#    0.000    0.000    0.000    0.000    0.000    0.000 
#
# Total GULP energy -278589.059863 kJ/mol
# GULP energy per Si atom -5571.781197 kJ/mol
# Density = 2.243619 g / cm^3
# Si number density = 22.487377 Si / 1000 Ang^3
#
#
#
# Elastic Constant Matrix: (Units=GPa)
#
#
# Indices 1 2 3 4 5 6 
#
# 1 157.7599 89.5414 14.4598 0.0000 0.0000 0.0000
# 2 89.5414 158.1849 9.0734 0.0000 0.0000 0.0000
# 3 14.4598 9.0734 42.8542 0.0000 0.0000 0.0000
# 4 0.0000 0.0000 0.0000 3.6327 0.0000 0.0000
# 5 0.0000 0.0000 0.0000 0.0000 6.5322 0.0000
# 6 0.0000 0.0000 0.0000 0.0000 0.0000 45.1112
#
#
#
# Elastic Compliance Matrix: (Units=1/GPa)
#
#
# Indices 1 2 3 4 5 6 
#
# 1 0.009522 -0.005270 -0.002097 0.000000 0.000000 0.000000
# 2 -0.005270 0.009316 -0.000194 0.000000 0.000000 0.000000
# 3 -0.002097 -0.000194 0.024084 0.000000 0.000000 0.000000
# 4 0.000000 0.000000 0.000000 0.275278 0.000000 0.000000
# 5 0.000000 0.000000 0.000000 0.000000 0.153088 0.000000
# 6 0.000000 0.000000 0.000000 0.000000 0.000000 0.022167
#
#
# Mechanical properties :
#
#
# Convention : Reuss Voigt Hill
#
# Bulk Modulus (GPa) = 35.97233 64.99424 50.48328
# Shear Modulus (GPa) = 9.65542 27.43685 18.54613
#
# Velocity S-wave (km/s) = 2.07437 3.49678 2.87494
# Velocity P-wave (km/s) = 4.66570 6.72819 5.78953
#
# Compressibility (1/GPa) = 0.02779915
#
# Stress axis : x y z
#
# Youngs Moduli (GPa) = 105.02104 107.34493 41.52189
#
# Poissons Ratio (x) = 0.56567 0.08708
# Poissons Ratio (y) = 0.55342 0.00807
# Poissons Ratio (z) = 0.22025 0.02086
#
# Static dielectric constant tensor:
#      x y z
#    x 1.983690 0.000000 0.000000 
#    y 0.000000 1.871570 0.000000 
#    z 0.000000 0.000000 1.860970 
# 
# From -- ./inp_files/8184.got.cif
#   From: 2010.05.17/outbox.cif.g08.bks.cpg/sg72_5_cif.got.tgz:8184.got - 2010.06.03 17:03:01.
