data_PCOD9526245
_publ_section_title
;
Structure prediction by ZEFSAII (Michael W. Deem and Ramdas Pophale) SiO2 
 PCOD9526245
Probable space group: I B A M
;
_chemical_formula_sum "Si O2"
_cell_formula_units_Z 96
_cell_length_a 29.371578
_cell_length_b 20.559149
_cell_length_c 9.012347
_cell_angle_alpha 90.000000
_cell_angle_beta 90.000000
_cell_angle_gamma 90.000000
_cell_volume 5442.147630
_symmetry_space_group_name_H-M "I B A M"
_symmetry_group_IT_number 72
_symmetry_cell_setting 'orthorhombic'
loop_
_space_group_symop_operation_xyz
x,y,z
-x,-y,z
x,-y,1/2-z
-x,y,1/2-z
-x,-y,-z
x,y,-z
-x,y,1/2+z
x,-y,1/2+z
1/2+x,1/2+y,1/2+z
1/2-x,1/2-y,1/2+z
1/2+x,1/2-y,-z
1/2-x,1/2+y,-z
1/2-x,1/2-y,1/2-z
1/2+x,1/2+y,1/2-z
1/2-x,1/2+y,z
1/2+x,1/2-y,z
loop_
_atom_site_type_symbol
_atom_site_label
_atom_site_fract_x
_atom_site_fract_y
_atom_site_fract_z
Si Si1 0.590880 0.684994 0.326927
Si Si2 0.629015 0.071108 0.179982
Si Si3 0.783617 0.654941 0.178352
Si Si4 0.049727 0.327267 0.178224
Si Si5 0.450488 0.562948 0.324673
Si Si6 0.801557 0.803492 0.173026
O O1 0.578074 0.671902 0.500000
O O2 0.571126 0.756176 0.288809
O O3 0.572490 0.630058 0.219402
O O4 0.645274 0.682528 0.317143
O O5 0.676721 0.105531 0.225838
O O6 0.586659 0.117873 0.222468
O O7 0.624905 0.000000 0.250000
O O8 0.629077 0.066815 0.000000
O O9 0.796815 0.728532 0.225126
O O10 0.732642 0.648995 0.240913
O O11 0.782655 0.653037 0.000000
O O12 0.000000 0.334742 0.250000
O O13 0.044980 0.330991 0.000000
O O14 0.427132 0.500000 0.250000
O O15 0.500000 0.566476 0.250000
O O16 0.453770 0.554212 0.500000
O O17 0.788247 0.805224 0.000000
#
# Coordination Sequence:
#
# PCOD9526245 Si02
#       6
#    16  16  16  16  16  16
#     4  10  19  35  57  82 113 147 180 225 279 328
#     4  10  21  38  57  78 109 149 188 231 283 334
#     4   9  17  33  54  78 107 140 176 219 269 323
#     4  10  21  37  56  79 110 145 186 234 284 333
#     4  11  22  37  56  79 108 144 184 223 268 325
#     4   9  17  31  55  82 108 138 173 218 271 323
#
# _framework density 17.640096
#
# number of rings (size 3 to 8) (size 9 to 14) (size 15 to 20)
#    0.000    2.167    1.667    2.500    0.000    4.333 
#    0.000    2.500    0.000    2.000    0.000    0.000 
#    0.000    0.000    0.000    0.000    0.000    0.000 
#
# Total GULP energy -267584.199967 kJ/mol
# GULP energy per Si atom -5574.670833 kJ/mol
# Density = 1.759995 g / cm^3
# Si number density = 17.640096 Si / 1000 Ang^3
#
#
#
# Elastic Constant Matrix: (Units=GPa)
#
#
# Indices 1 2 3 4 5 6 
#
# 1 102.1934 62.8333 40.8731 0.0000 0.0000 0.0000
# 2 62.8333 127.2664 54.5775 0.0000 0.0000 0.0000
# 3 40.8731 54.5775 59.0792 0.0000 0.0000 0.0000
# 4 0.0000 0.0000 0.0000 27.8034 0.0000 0.0000
# 5 0.0000 0.0000 0.0000 0.0000 30.5590 0.0000
# 6 0.0000 0.0000 0.0000 0.0000 0.0000 13.0161
#
#
#
# Elastic Compliance Matrix: (Units=1/GPa)
#
#
# Indices 1 2 3 4 5 6 
#
# 1 0.015213 -0.004964 -0.005939 0.000000 0.000000 0.000000
# 2 -0.004964 0.014632 -0.010083 0.000000 0.000000 0.000000
# 3 -0.005939 -0.010083 0.030350 0.000000 0.000000 0.000000
# 4 0.000000 0.000000 0.000000 0.035967 0.000000 0.000000
# 5 0.000000 0.000000 0.000000 0.000000 0.032724 0.000000
# 6 0.000000 0.000000 0.000000 0.000000 0.000000 0.076828
#
#
# Mechanical properties :
#
#
# Convention : Reuss Voigt Hill
#
# Bulk Modulus (GPa) = 54.87585 67.23411 61.05498
# Shear Modulus (GPa) = 19.70361 22.95938 21.33150
#
# Velocity S-wave (km/s) = 3.34575 3.61161 3.48122
# Velocity P-wave (km/s) = 6.78981 7.45578 7.13058
#
# Compressibility (1/GPa) = 0.01822295
#
# Stress axis : x y z
#
# Youngs Moduli (GPa) = 65.73434 68.34153 32.94854
#
# Poissons Ratio (x) = 0.33923 0.19569
# Poissons Ratio (y) = 0.32629 0.33223
# Poissons Ratio (z) = 0.39041 0.68911
#
# Static dielectric constant tensor:
#      x y z
#    x 1.626360 0.000000 0.000000 
#    y 0.000000 1.613820 0.000000 
#    z 0.000000 0.000000 1.604320 
# 
# From -- ./inp_files/5963.got.cif
#   From: 2010.05.17/outbox.cif.g08.bks.cpg/sg72_3_cif.got.tgz:5963.got - 2010.06.03 17:03:01.
