data_PCOD9526016
_publ_section_title
;
Structure prediction by ZEFSAII (Michael W. Deem and Ramdas Pophale) SiO2 
 PCOD9526016
Probable space group: I B A M
;
_chemical_formula_sum "Si O2"
_cell_formula_units_Z 112
_cell_length_a 27.425124
_cell_length_b 12.699534
_cell_length_c 17.059659
_cell_angle_alpha 90.000000
_cell_angle_beta 90.000000
_cell_angle_gamma 90.000000
_cell_volume 5941.645422
_symmetry_space_group_name_H-M "I B A M"
_symmetry_group_IT_number 72
_symmetry_cell_setting 'orthorhombic'
loop_
_space_group_symop_operation_xyz
x,y,z
-x,-y,z
x,-y,1/2-z
-x,y,1/2-z
-x,-y,-z
x,y,-z
-x,y,1/2+z
x,-y,1/2+z
1/2+x,1/2+y,1/2+z
1/2-x,1/2-y,1/2+z
1/2+x,1/2-y,-z
1/2-x,1/2+y,-z
1/2-x,1/2-y,1/2-z
1/2+x,1/2+y,1/2-z
1/2-x,1/2+y,z
1/2+x,1/2-y,z
loop_
_atom_site_type_symbol
_atom_site_label
_atom_site_fract_x
_atom_site_fract_y
_atom_site_fract_z
Si Si1 0.530200 0.760525 0.328306
Si Si2 0.444405 0.469631 0.341821
Si Si3 0.159559 0.031829 0.906780
Si Si4 0.962522 0.597374 0.588341
Si Si5 0.894580 0.384764 0.763404
Si Si6 0.816549 0.237005 0.309994
Si Si7 0.757558 0.909794 0.691026
O O1 0.500000 0.731067 0.250000
O O2 0.558073 0.656194 0.350976
O O3 0.495375 0.799685 0.396607
O O4 0.562805 0.857804 0.299048
O O5 0.500000 0.500000 0.367941
O O6 0.441159 0.500000 0.250000
O O7 0.394589 0.510141 0.382000
O O8 0.165790 0.151292 0.873346
O O9 0.203218 0.963356 0.867245
O O10 0.163721 0.030429 0.000000
O O11 0.944170 0.589503 0.500000
O O12 0.920118 0.609311 0.652160
O O13 0.000000 0.500000 0.601405
O O14 0.873718 0.500000 0.750000
O O15 0.857243 0.292930 0.743767
O O16 0.786479 0.167096 0.249060
O O17 0.784319 0.334010 0.344139
O O18 0.737799 0.000000 0.750000
#
# Coordination Sequence:
#
# PCOD9526016 Si02
#       7
#    16  16  16  16  16  16  16
#     4  10  19  33  55  82 110 157 209 248 287 352
#     4  11  21  38  61  84 118 164 208 249 291 352
#     4  11  24  39  60  93 129 162 198 250 318 378
#     4  10  21  36  54  82 124 164 200 251 313 362
#     4  11  20  34  59  89 115 153 211 254 300 364
#     4  10  20  39  66  90 114 155 205 258 307 369
#     4   9  20  40  66  89 114 150 204 256 307 367
#
# _framework density 18.849997999999999
#
# number of rings (size 3 to 8) (size 9 to 14) (size 15 to 20)
#    0.000    1.714    4.286    1.714    0.000    1.429 
#    0.000    2.857    0.000    8.571    0.000    0.000 
#    0.000    0.000    0.000    0.000    0.000    0.000 
#
# Total GULP energy -311783.069447 kJ/mol
# GULP energy per Si atom -5567.554812 kJ/mol
# Density = 1.880709 g / cm^3
# Si number density = 18.849998 Si / 1000 Ang^3
#
#
#
# Elastic Constant Matrix: (Units=GPa)
#
#
# Indices 1 2 3 4 5 6 
#
# 1 107.4635 40.3296 54.7788 0.0000 0.0000 0.0000
# 2 40.3296 91.7680 46.3117 0.0000 0.0000 0.0000
# 3 54.7788 46.3117 80.4594 0.0000 0.0000 0.0000
# 4 0.0000 0.0000 0.0000 21.7764 0.0000 0.0000
# 5 0.0000 0.0000 0.0000 0.0000 12.5131 0.0000
# 6 0.0000 0.0000 0.0000 0.0000 0.0000 22.9448
#
#
#
# Elastic Compliance Matrix: (Units=1/GPa)
#
#
# Indices 1 2 3 4 5 6 
#
# 1 0.014497 -0.001959 -0.008742 0.000000 0.000000 0.000000
# 2 -0.001959 0.015623 -0.007659 0.000000 0.000000 0.000000
# 3 -0.008742 -0.007659 0.022789 0.000000 0.000000 0.000000
# 4 0.000000 0.000000 0.000000 0.045921 0.000000 0.000000
# 5 0.000000 0.000000 0.000000 0.000000 0.079916 0.000000
# 6 0.000000 0.000000 0.000000 0.000000 0.000000 0.043583
#
#
# Mechanical properties :
#
#
# Convention : Reuss Voigt Hill
#
# Bulk Modulus (GPa) = 61.77124 62.50347 62.13735
# Shear Modulus (GPa) = 18.90748 20.66493 19.78620
#
# Velocity S-wave (km/s) = 3.17053 3.31461 3.24337
# Velocity P-wave (km/s) = 6.80030 6.91948 6.86015
#
# Compressibility (1/GPa) = 0.01618876
#
# Stress axis : x y z
#
# Youngs Moduli (GPa) = 68.97951 64.00799 43.88118
#
# Poissons Ratio (x) = 0.12540 0.38362
# Poissons Ratio (y) = 0.13514 0.33607
# Poissons Ratio (z) = 0.60304 0.49021
#
# Static dielectric constant tensor:
#      x y z
#    x 1.729050 0.000000 0.000000 
#    y 0.000000 1.683640 0.000000 
#    z 0.000000 0.000000 1.612540 
# 
# From -- ./inp_files/26387.got.cif
#   From: 2010.05.17/outbox.cif.g08.bks.cpg/sg72_14_cif.got.tgz:26387.got - 2010.06.03 17:03:01.
