data_PCOD9526495
_publ_section_title
;
Structure prediction by ZEFSAII (Michael W. Deem and Ramdas Pophale) SiO2 
 PCOD9526495
Probable space group: I B A M
;
_chemical_formula_sum "Si O2"
_cell_formula_units_Z 88
_cell_length_a 23.666341
_cell_length_b 23.822379
_cell_length_c 9.040180
_cell_angle_alpha 90.000000
_cell_angle_beta 90.000000
_cell_angle_gamma 90.000000
_cell_volume 5096.749927
_symmetry_space_group_name_H-M "I B A M"
_symmetry_group_IT_number 72
_symmetry_cell_setting 'orthorhombic'
loop_
_space_group_symop_operation_xyz
x,y,z
-x,-y,z
x,-y,1/2-z
-x,y,1/2-z
-x,-y,-z
x,y,-z
-x,y,1/2+z
x,-y,1/2+z
1/2+x,1/2+y,1/2+z
1/2-x,1/2-y,1/2+z
1/2+x,1/2-y,-z
1/2-x,1/2+y,-z
1/2-x,1/2-y,1/2-z
1/2+x,1/2+y,1/2-z
1/2-x,1/2+y,z
1/2+x,1/2-y,z
loop_
_atom_site_type_symbol
_atom_site_label
_atom_site_fract_x
_atom_site_fract_y
_atom_site_fract_z
Si Si1 0.562153 0.444204 0.677123
Si Si2 0.810473 0.754828 0.326241
Si Si3 0.904044 0.662175 0.663151
Si Si4 0.561724 0.055436 0.175087
Si Si5 0.000000 0.749479 0.250000
Si Si6 0.099138 0.832783 0.669061
O O1 0.588881 0.500000 0.750000
O O2 0.500000 0.440898 0.750000
O O3 0.558692 0.449031 0.500000
O O4 0.590404 0.386620 0.727872
O O5 0.805814 0.770172 0.500000
O O6 0.750000 0.750000 0.250000
O O7 0.846760 0.697390 0.320742
O O8 0.848983 0.798209 0.235739
O O9 0.906461 0.635699 0.500000
O O10 0.908822 0.613832 0.783972
O O11 0.956130 0.706698 0.671484
O O12 0.500000 0.060558 0.250000
O O13 0.588267 0.000000 0.250000
O O14 0.556898 0.048138 0.000000
O O15 0.956331 0.792179 0.170922
O O16 0.108702 0.850056 0.500000
#
# Coordination Sequence:
#
# PCOD9526495 Si02
#       6
#    16  16  16  16   8  16
#     4  11  21  34  52  77 111 148 185 223 269 325
#     4  10  22  39  58  81 109 143 185 228 275 326
#     4  10  20  34  53  79 110 141 177 222 267 319
#     4  11  21  33  51  75 108 145 180 217 262 318
#     4  10  20  30  52  78 114 140 180 214 270 324
#     4  11  21  34  55  81 112 146 181 225 274 326
#
# _framework density 17.265905
#
# number of rings (size 3 to 8) (size 9 to 14) (size 15 to 20)
#    0.000    1.455    1.818    6.000    0.000    5.091 
#    0.000    0.000    0.000    1.091    0.000    2.545 
#    0.000    0.000    0.000    0.000    0.000    0.000 
#
# Total GULP energy -245366.648963 kJ/mol
# GULP energy per Si atom -5576.514749 kJ/mol
# Density = 1.722661 g / cm^3
# Si number density = 17.265905 Si / 1000 Ang^3
#
#
#
# Elastic Constant Matrix: (Units=GPa)
#
#
# Indices 1 2 3 4 5 6 
#
# 1 96.6326 26.2824 36.7777 0.0000 0.0000 0.0000
# 2 26.2824 97.1822 50.5289 0.0000 0.0000 0.0000
# 3 36.7777 50.5289 166.7721 0.0000 0.0000 0.0000
# 4 0.0000 0.0000 0.0000 25.2886 0.0000 0.0000
# 5 0.0000 0.0000 0.0000 0.0000 16.1008 0.0000
# 6 0.0000 0.0000 0.0000 0.0000 0.0000 11.4844
#
#
#
# Elastic Compliance Matrix: (Units=1/GPa)
#
#
# Indices 1 2 3 4 5 6 
#
# 1 0.011666 -0.002157 -0.001919 0.000000 0.000000 0.000000
# 2 -0.002157 0.012613 -0.003346 0.000000 0.000000 0.000000
# 3 -0.001919 -0.003346 0.007433 0.000000 0.000000 0.000000
# 4 0.000000 0.000000 0.000000 0.039543 0.000000 0.000000
# 5 0.000000 0.000000 0.000000 0.000000 0.062109 0.000000
# 6 0.000000 0.000000 0.000000 0.000000 0.000000 0.087074
#
#
# Mechanical properties :
#
#
# Convention : Reuss Voigt Hill
#
# Bulk Modulus (GPa) = 59.28463 65.30721 62.29592
# Shear Modulus (GPa) = 20.75511 27.04131 23.89821
#
# Velocity S-wave (km/s) = 3.47087 3.96178 3.72442
# Velocity P-wave (km/s) = 7.10446 7.67034 7.39282
#
# Compressibility (1/GPa) = 0.01686778
#
# Stress axis : x y z
#
# Youngs Moduli (GPa) = 85.72268 79.28361 134.53327
#
# Poissons Ratio (x) = 0.17102 0.25817
# Poissons Ratio (y) = 0.18491 0.45012
# Poissons Ratio (z) = 0.16450 0.26527
#
# Static dielectric constant tensor:
#      x y z
#    x 1.559260 0.000000 0.000000 
#    y 0.000000 1.628560 0.000000 
#    z 0.000000 0.000000 1.597610 
# 
# From -- ./inp_files/5782.got.cif
#   From: 2010.05.17/outbox.cif.g08.bks.cpg/sg72_3_cif.got.tgz:5782.got - 2010.06.03 17:03:01.
