data_PCOD9526488
_publ_section_title
;
Structure prediction by ZEFSAII (Michael W. Deem and Ramdas Pophale) SiO2 
 PCOD9526488
Probable space group: I B A M
;
_chemical_formula_sum "Si O2"
_cell_formula_units_Z 128
_cell_length_a 22.493124
_cell_length_b 22.370312
_cell_length_c 15.448928
_cell_angle_alpha 90.000000
_cell_angle_beta 90.000000
_cell_angle_gamma 90.000000
_cell_volume 7773.563810
_symmetry_space_group_name_H-M "I B A M"
_symmetry_group_IT_number 72
_symmetry_cell_setting 'orthorhombic'
loop_
_space_group_symop_operation_xyz
x,y,z
-x,-y,z
x,-y,1/2-z
-x,y,1/2-z
-x,-y,-z
x,y,-z
-x,y,1/2+z
x,-y,1/2+z
1/2+x,1/2+y,1/2+z
1/2-x,1/2-y,1/2+z
1/2+x,1/2-y,-z
1/2-x,1/2+y,-z
1/2-x,1/2-y,1/2-z
1/2+x,1/2+y,1/2-z
1/2-x,1/2+y,z
1/2+x,1/2-y,z
loop_
_atom_site_type_symbol
_atom_site_label
_atom_site_fract_x
_atom_site_fract_y
_atom_site_fract_z
Si Si1 0.430291 0.773765 0.749113
Si Si2 0.149898 0.040047 0.331233
Si Si3 0.102045 0.137532 0.786290
Si Si4 0.726868 0.356294 0.603150
Si Si5 0.207727 0.176505 0.901603
Si Si6 0.551120 0.542085 0.599419
Si Si7 0.150454 0.309390 0.099161
Si Si8 0.165478 0.268505 0.604293
O O1 0.500000 0.786870 0.750000
O O2 0.421013 0.702718 0.764347
O O3 0.400969 0.807104 0.830860
O O4 0.390943 0.786008 0.662747
O O5 0.106972 0.091704 0.292836
O O6 0.200307 0.079703 0.374481
O O7 0.170254 0.000000 0.250000
O O8 0.111904 0.995742 0.390576
O O9 0.167468 0.141979 0.832038
O O10 0.059166 0.104528 0.853447
O O11 0.728938 0.349210 0.500000
O O12 0.794496 0.348793 0.632658
O O13 0.687520 0.298692 0.632161
O O14 0.178243 0.242477 0.904296
O O15 0.276935 0.188825 0.880597
O O16 0.203076 0.151682 0.000000
O O17 0.500000 0.500000 0.637858
O O18 0.537002 0.553025 0.500000
O O19 0.133714 0.325008 0.000000
O O20 0.154247 0.268081 0.500000
#
# Coordination Sequence:
#
# PCOD9526488 Si02
#       8
#    16  16  16  16  16  16  16  16
#     4  11  22  31  46  71  97 129 160 194 241 290
#     4  10  20  30  44  68  90 119 157 205 240 271
#     4  10  20  30  48  66  89 121 161 202 244 277
#     4   9  16  30  51  69  88 119 158 197 242 287
#     4   8  15  29  48  69  89 112 151 197 242 288
#     4  10  22  36  47  59  87 133 173 207 240 273
#     4   8  17  31  48  70  94 120 153 195 238 290
#     4   9  18  31  48  70  93 121 156 197 239 291
#
# _framework density 16.466063999999999
#
# number of rings (size 3 to 8) (size 9 to 14) (size 15 to 20)
#    0.000    2.625    1.250    2.250    3.500    4.250 
#    0.000    0.000    0.000    0.000    0.000    0.000 
#    0.000    0.500    0.000    2.750    1.000    0.000 
#
# Total GULP energy -356497.691097 kJ/mol
# GULP energy per Si atom -5570.276423 kJ/mol
# Density = 1.642859 g / cm^3
# Si number density = 16.466064 Si / 1000 Ang^3
#
#
#
# Elastic Constant Matrix: (Units=GPa)
#
#
# Indices 1 2 3 4 5 6 
#
# 1 109.6843 4.5268 42.9535 0.0000 0.0000 0.0000
# 2 4.5268 17.4682 -4.5602 0.0000 0.0000 0.0000
# 3 42.9535 -4.5602 49.7994 0.0000 0.0000 0.0000
# 4 0.0000 0.0000 0.0000 17.0564 0.0000 0.0000
# 5 0.0000 0.0000 0.0000 0.0000 18.3376 0.0000
# 6 0.0000 0.0000 0.0000 0.0000 0.0000 18.4701
#
#
#
# Elastic Compliance Matrix: (Units=1/GPa)
#
#
# Indices 1 2 3 4 5 6 
#
# 1 0.014612 -0.007250 -0.013267 0.000000 0.000000 0.000000
# 2 -0.007250 0.062246 0.011953 0.000000 0.000000 0.000000
# 3 -0.013267 0.011953 0.032618 0.000000 0.000000 0.000000
# 4 0.000000 0.000000 0.000000 0.058629 0.000000 0.000000
# 5 0.000000 0.000000 0.000000 0.000000 0.054533 0.000000
# 6 0.000000 0.000000 0.000000 0.000000 0.000000 0.054142
#
#
# Mechanical properties :
#
#
# Convention : Reuss Voigt Hill
#
# Bulk Modulus (GPa) = 10.82849 29.19911 20.01380
# Shear Modulus (GPa) = 15.39930 19.70827 17.55379
#
# Velocity S-wave (km/s) = 3.06145 3.46338 3.26860
# Velocity P-wave (km/s) = 4.36888 5.81074 5.14062
#
# Compressibility (1/GPa) = 0.09234900
#
# Stress axis : x y z
#
# Youngs Moduli (GPa) = 68.43789 16.06524 30.65760
#
# Poissons Ratio (x) = 0.11647 0.40673
# Poissons Ratio (y) = 0.49618 -0.36646
# Poissons Ratio (z) = 0.90797 -0.19203
#
# Static dielectric constant tensor:
#      x y z
#    x 1.580250 0.000000 0.000000 
#    y 0.000000 1.545100 0.000000 
#    z 0.000000 0.000000 1.598410 
# 
# From -- ./inp_files/33000.got.cif
#   From: 2010.05.17/outbox.cif.g08.bks.cpg/sg72_17_cif.got.tgz:33000.got - 2010.06.03 17:03:01.
