data_PCOD9526740
_publ_section_title
;
Structure prediction by ZEFSAII (Michael W. Deem and Ramdas Pophale) SiO2 
 PCOD9526740
Probable space group: I B A M
;
_chemical_formula_sum "Si O2"
_cell_formula_units_Z 76
_cell_length_a 14.960169
_cell_length_b 8.389686
_cell_length_c 29.531975
_cell_angle_alpha 90.000000
_cell_angle_beta 90.000000
_cell_angle_gamma 90.000000
_cell_volume 3706.591270
_symmetry_space_group_name_H-M "I B A M"
_symmetry_group_IT_number 72
_symmetry_cell_setting 'orthorhombic'
loop_
_space_group_symop_operation_xyz
x,y,z
-x,-y,z
x,-y,1/2-z
-x,y,1/2-z
-x,-y,-z
x,y,-z
-x,y,1/2+z
x,-y,1/2+z
1/2+x,1/2+y,1/2+z
1/2-x,1/2-y,1/2+z
1/2+x,1/2-y,-z
1/2-x,1/2+y,-z
1/2-x,1/2-y,1/2-z
1/2+x,1/2+y,1/2-z
1/2-x,1/2+y,z
1/2+x,1/2-y,z
loop_
_atom_site_type_symbol
_atom_site_label
_atom_site_fract_x
_atom_site_fract_y
_atom_site_fract_z
Si Si1 0.144616 0.799132 0.301725
Si Si2 0.277023 0.522768 0.446258
Si Si3 0.500000 0.500000 0.750000
Si Si4 0.369321 0.214689 0.593520
Si Si5 0.457191 0.321307 0.947682
Si Si6 0.291451 0.000000 0.250000
O O1 0.140844 0.767592 0.354787
O O2 0.228753 0.906442 0.285849
O O3 0.152796 0.631607 0.276189
O O4 0.060121 0.892345 0.282471
O O5 0.261519 0.537549 0.500000
O O6 0.320264 0.351464 0.436261
O O7 0.186954 0.558063 0.418874
O O8 0.355263 0.649466 0.432628
O O9 0.473662 0.214420 0.580168
O O10 0.500000 0.500000 0.946585
O O11 0.456073 0.268654 0.000000
#
# Coordination Sequence:
#
# PCOD9526740 Si02
#       6
#    16  16   4  16  16   8
#     4  10  21  38  62  86 117 155 205 251 318 380
#     4  10  20  34  55  85 120 157 195 242 296 349
#     4  10  24  38  60  90 118 156 200 270 328 370
#     4  11  20  34  59  85 111 156 200 246 287 367
#     4   8  16  31  50  77 113 152 188 229 283 341
#     4   9  20  42  58  83 118 158 188 259 322 370
#
# _framework density 20.504014000000002
#
# number of rings (size 3 to 8) (size 9 to 14) (size 15 to 20)
#    0.000    2.316    0.000    4.421    4.421    0.421 
#    0.000    1.053    4.632    3.789    0.000    0.000 
#    0.000    0.000    0.000    0.000    0.000    0.000 
#
# Total GULP energy -212233.035804 kJ/mol
# GULP energy per Si atom -5585.079890 kJ/mol
# Density = 2.045735 g / cm^3
# Si number density = 20.504014 Si / 1000 Ang^3
#
#
#
# Elastic Constant Matrix: (Units=GPa)
#
#
# Indices 1 2 3 4 5 6 
#
# 1 58.9929 13.5823 16.6377 0.0000 0.0000 0.0000
# 2 13.5823 66.8595 7.7571 0.0000 0.0000 0.0000
# 3 16.6377 7.7571 82.3520 0.0000 0.0000 0.0000
# 4 0.0000 0.0000 0.0000 15.0280 0.0000 0.0000
# 5 0.0000 0.0000 0.0000 0.0000 0.8461 0.0000
# 6 0.0000 0.0000 0.0000 0.0000 0.0000 8.0678
#
#
#
# Elastic Compliance Matrix: (Units=1/GPa)
#
#
# Indices 1 2 3 4 5 6 
#
# 1 0.018710 -0.003399 -0.003460 0.000000 0.000000 0.000000
# 2 -0.003399 0.015740 -0.000796 0.000000 0.000000 0.000000
# 3 -0.003460 -0.000796 0.012917 0.000000 0.000000 0.000000
# 4 0.000000 0.000000 0.000000 0.066542 0.000000 0.000000
# 5 0.000000 0.000000 0.000000 0.000000 1.181881 0.000000
# 6 0.000000 0.000000 0.000000 0.000000 0.000000 0.123950
#
#
# Mechanical properties :
#
#
# Convention : Reuss Voigt Hill
#
# Bulk Modulus (GPa) = 31.19511 31.57320 31.38416
# Shear Modulus (GPa) = 3.45845 16.13686 9.79766
#
# Velocity S-wave (km/s) = 1.30015 2.80841 2.18833
# Velocity P-wave (km/s) = 4.18342 5.09394 4.66097
#
# Compressibility (1/GPa) = 0.03205630
#
# Stress axis : x y z
#
# Youngs Moduli (GPa) = 53.44849 63.53379 77.41780
#
# Poissons Ratio (x) = 0.21598 0.26784
# Poissons Ratio (y) = 0.18169 0.06161
# Poissons Ratio (z) = 0.18492 0.05056
#
# Static dielectric constant tensor:
#      x y z
#    x 1.750730 0.000000 0.000000 
#    y 0.000000 1.755780 0.000000 
#    z 0.000000 0.000000 1.666750 
# 
# From -- ./inp_files/52012.got.cif
#   From: 2010.05.17/outbox.cif.g08.bks.cpg/sg72_27_cif.got.tgz:52012.got - 2010.06.03 17:03:01.
