data_PCOD9526018
_publ_section_title
;
Structure prediction by ZEFSAII (Michael W. Deem and Ramdas Pophale) SiO2 
 PCOD9526018
Probable space group: I B A M
;
_chemical_formula_sum "Si O2"
_cell_formula_units_Z 116
_cell_length_a 22.044785
_cell_length_b 29.117474
_cell_length_c 9.168669
_cell_angle_alpha 90.000000
_cell_angle_beta 90.000000
_cell_angle_gamma 90.000000
_cell_volume 5885.262770
_symmetry_space_group_name_H-M "I B A M"
_symmetry_group_IT_number 72
_symmetry_cell_setting 'orthorhombic'
loop_
_space_group_symop_operation_xyz
x,y,z
-x,-y,z
x,-y,1/2-z
-x,y,1/2-z
-x,-y,-z
x,y,-z
-x,y,1/2+z
x,-y,1/2+z
1/2+x,1/2+y,1/2+z
1/2-x,1/2-y,1/2+z
1/2+x,1/2-y,-z
1/2-x,1/2+y,-z
1/2-x,1/2-y,1/2-z
1/2+x,1/2+y,1/2-z
1/2-x,1/2+y,z
1/2+x,1/2-y,z
loop_
_atom_site_type_symbol
_atom_site_label
_atom_site_fract_x
_atom_site_fract_y
_atom_site_fract_z
Si Si1 0.000000 0.000000 0.000000
Si Si2 0.435368 0.908346 0.327078
Si Si3 0.374514 0.356787 0.324823
Si Si4 0.750939 0.641485 0.828819
Si Si5 0.180347 0.546662 0.326515
Si Si6 0.861291 0.683779 0.331318
Si Si7 0.386321 0.459497 0.657299
Si Si8 0.061100 0.226438 0.327926
O O1 0.046180 0.023353 0.119603
O O2 0.500000 0.914704 0.250000
O O3 0.438630 0.918834 0.500000
O O4 0.382929 0.937976 0.248943
O O5 0.412610 0.855487 0.312247
O O6 0.380692 0.354032 0.500000
O O7 0.306594 0.347600 0.270210
O O8 0.388316 0.409120 0.275650
O O9 0.417652 0.320298 0.247912
O O10 0.773050 0.588926 0.805658
O O11 0.807262 0.672384 0.778178
O O12 0.737047 0.647770 0.000000
O O13 0.200732 0.500000 0.250000
O O14 0.171921 0.540569 0.500000
O O15 0.840126 0.679603 0.500000
O O16 0.889031 0.733848 0.309558
O O17 0.357266 0.500000 0.750000
O O18 0.354036 0.455328 0.500000
O O19 0.051336 0.219522 0.500000
O O20 0.000000 0.242373 0.250000
#
# Coordination Sequence:
#
# PCOD9526018 Si02
#       8
#     4  16  16  16  16  16  16  16
#     4   8  18  36  58  80 110 144 194 240 286 350
#     4  10  19  33  55  84 118 155 198 246 299 359
#     4  11  24  42  60  90 124 159 202 249 309 367
#     4  10  22  40  64  89 118 157 205 257 306 367
#     4  10  21  37  57  84 114 153 200 248 307 362
#     4   9  20  39  63  89 118 160 205 249 300 364
#     4   9  20  36  58  85 113 151 198 244 297 360
#     4  11  24  42  63  92 128 162 200 247 307 369
#
# _framework density 19.710249999999998
#
# number of rings (size 3 to 8) (size 9 to 14) (size 15 to 20)
#    0.414    1.655    0.000    2.690    0.000    6.897 
#    2.483    4.138    0.000    0.000    0.000    0.000 
#    0.000    0.000    0.000    0.000    0.000    0.000 
#
# Total GULP energy -323143.125428 kJ/mol
# GULP energy per Si atom -5571.433197 kJ/mol
# Density = 1.966539 g / cm^3
# Si number density = 19.710250 Si / 1000 Ang^3
#
#
#
# Elastic Constant Matrix: (Units=GPa)
#
#
# Indices 1 2 3 4 5 6 
#
# 1 40.0210 -10.0075 6.8041 0.0000 0.0000 0.0000
# 2 -10.0075 78.0886 37.6467 0.0000 0.0000 0.0000
# 3 6.8041 37.6467 78.6000 0.0000 0.0000 0.0000
# 4 0.0000 0.0000 0.0000 29.6515 0.0000 0.0000
# 5 0.0000 0.0000 0.0000 0.0000 21.8041 0.0000
# 6 0.0000 0.0000 0.0000 0.0000 0.0000 8.9192
#
#
#
# Elastic Compliance Matrix: (Units=1/GPa)
#
#
# Indices 1 2 3 4 5 6 
#
# 1 0.027396 0.006052 -0.005270 0.000000 0.000000 0.000000
# 2 0.006052 0.017988 -0.009139 0.000000 0.000000 0.000000
# 3 -0.005270 -0.009139 0.017556 0.000000 0.000000 0.000000
# 4 0.000000 0.000000 0.000000 0.033725 0.000000 0.000000
# 5 0.000000 0.000000 0.000000 0.000000 0.045863 0.000000
# 6 0.000000 0.000000 0.000000 0.000000 0.000000 0.112118
#
#
# Mechanical properties :
#
#
# Convention : Reuss Voigt Hill
#
# Bulk Modulus (GPa) = 21.63353 29.51071 25.57212
# Shear Modulus (GPa) = 17.43559 22.89271 20.16415
#
# Velocity S-wave (km/s) = 2.97744 3.41172 3.20195
# Velocity P-wave (km/s) = 4.77701 5.52490 5.16451
#
# Compressibility (1/GPa) = 0.04622455
#
# Stress axis : x y z
#
# Youngs Moduli (GPa) = 36.50145 55.59375 56.95958
#
# Poissons Ratio (x) = -0.33644 0.30019
# Poissons Ratio (y) = -0.22090 0.52057
# Poissons Ratio (z) = 0.19237 0.50809
#
# Static dielectric constant tensor:
#      x y z
#    x 1.680050 0.000000 0.000000 
#    y 0.000000 1.701330 0.000000 
#    z 0.000000 0.000000 1.712880 
# 
# From -- ./inp_files/7319.got.cif
#   From: 2010.05.17/outbox.cif.g08.bks.cpg/sg72_4_cif.got.tgz:7319.got - 2010.06.03 17:03:01.
