data_PCOD9526290
_publ_section_title
;
Structure prediction by ZEFSAII (Michael W. Deem and Ramdas Pophale) SiO2 
 PCOD9526290
Probable space group: I B A M
;
_chemical_formula_sum "Si O2"
_cell_formula_units_Z 52
_cell_length_a 19.596181
_cell_length_b 12.828053
_cell_length_c 8.489971
_cell_angle_alpha 90.000000
_cell_angle_beta 90.000000
_cell_angle_gamma 90.000000
_cell_volume 2134.216113
_symmetry_space_group_name_H-M "I B A M"
_symmetry_group_IT_number 72
_symmetry_cell_setting 'orthorhombic'
loop_
_space_group_symop_operation_xyz
x,y,z
-x,-y,z
x,-y,1/2-z
-x,y,1/2-z
-x,-y,-z
x,y,-z
-x,y,1/2+z
x,-y,1/2+z
1/2+x,1/2+y,1/2+z
1/2-x,1/2-y,1/2+z
1/2+x,1/2-y,-z
1/2-x,1/2+y,-z
1/2-x,1/2-y,1/2-z
1/2+x,1/2+y,1/2-z
1/2-x,1/2+y,z
1/2+x,1/2-y,z
loop_
_atom_site_type_symbol
_atom_site_label
_atom_site_fract_x
_atom_site_fract_y
_atom_site_fract_z
Si Si1 0.887267 0.661883 0.824329
Si Si2 0.750185 0.866293 0.184801
Si Si3 0.500000 0.000000 0.250000
Si Si4 0.392913 0.391180 0.182201
O O1 0.829370 0.610487 0.713250
O O2 0.907436 0.779310 0.766196
O O3 0.949683 0.582315 0.832193
O O4 0.857878 0.673235 0.000000
O O5 0.733289 0.621196 0.500000
O O6 0.750000 0.750000 0.250000
O O7 0.811050 0.905843 0.295766
O O8 0.422178 0.500000 0.250000
O O9 0.410814 0.380937 0.000000
#
# Coordination Sequence:
#
# PCOD9526290 Si02
#       4
#    16  16   4  16
#     4  11  24  44  67  95 133 179 232 283 336 402
#     4  10  19  35  61  95 134 173 218 273 336 401
#     4  12  30  48  70  94 134 184 240 282 338 400
#     4  11  22  40  68 102 138 174 219 280 348 411
#
# _framework density 24.364916999999998
#
# number of rings (size 3 to 8) (size 9 to 14) (size 15 to 20)
#    0.000    1.231    0.000   10.615    2.154    4.923 
#    0.000    0.769    0.000    3.692    0.000    0.000 
#    0.000    0.000    0.000    0.000    0.000    0.000 
#
# Total GULP energy -144859.617434 kJ/mol
# GULP energy per Si atom -5571.523747 kJ/mol
# Density = 2.430946 g / cm^3
# Si number density = 24.364917 Si / 1000 Ang^3
#
#
#
# Elastic Constant Matrix: (Units=GPa)
#
#
# Indices 1 2 3 4 5 6 
#
# 1 95.8093 14.9343 4.2011 0.0000 0.0000 0.0000
# 2 14.9343 185.1716 9.2657 0.0000 0.0000 0.0000
# 3 4.2011 9.2657 137.9895 0.0000 0.0000 0.0000
# 4 0.0000 0.0000 0.0000 15.7640 0.0000 0.0000
# 5 0.0000 0.0000 0.0000 0.0000 -14.0772 0.0000
# 6 0.0000 0.0000 0.0000 0.0000 0.0000 22.0235
#
#
#
# Elastic Compliance Matrix: (Units=1/GPa)
#
#
# Indices 1 2 3 4 5 6 
#
# 1 0.010580 -0.000840 -0.000266 0.000000 0.000000 0.000000
# 2 -0.000840 0.005485 -0.000343 0.000000 0.000000 0.000000
# 3 -0.000266 -0.000343 0.007278 0.000000 0.000000 0.000000
# 4 0.000000 0.000000 0.000000 0.063436 0.000000 0.000000
# 5 0.000000 0.000000 0.000000 0.000000 -0.071037 0.000000
# 6 0.000000 0.000000 0.000000 0.000000 0.000000 0.045406
#
#
# Mechanical properties :
#
#
# Convention : Reuss Voigt Hill
#
# Bulk Modulus (GPa) = 48.90833 52.86361 50.88597
# Shear Modulus (GPa) = 70.56145 30.78004 50.67074
#
# Velocity S-wave (km/s) = 5.38731 3.55814 4.56528
# Velocity P-wave (km/s) = 7.66905 6.21484 6.97992
#
# Compressibility (1/GPa) = 0.02044641
#
# Stress axis : x y z
#
# Youngs Moduli (GPa) = 94.51815 182.30562 137.39976
#
# Poissons Ratio (x) = 0.15313 0.03651
# Poissons Ratio (y) = 0.07939 0.04709
# Poissons Ratio (z) = 0.02511 0.06249
#
# Static dielectric constant tensor:
#      x y z
#    x 2.122830 0.000000 0.000000 
#    y 0.000000 2.096290 0.000000 
#    z 0.000000 0.000000 1.720430 
# 
# From -- ./inp_files/2317.got.cif
#   From: 2010.05.17/outbox.cif.g08.bks.cpg/sg72_2_cif.got.tgz:2317.got - 2010.06.03 17:03:01.
