data_PCOD9526149
_publ_section_title
;
Structure prediction by ZEFSAII (Michael W. Deem and Ramdas Pophale) SiO2 
 PCOD9526149
Probable space group: I B A M
;
_chemical_formula_sum "Si O2"
_cell_formula_units_Z 72
_cell_length_a 15.669437
_cell_length_b 15.557043
_cell_length_c 16.191044
_cell_angle_alpha 90.000000
_cell_angle_beta 90.000000
_cell_angle_gamma 90.000000
_cell_volume 3946.892499
_symmetry_space_group_name_H-M "I B A M"
_symmetry_group_IT_number 72
_symmetry_cell_setting 'orthorhombic'
loop_
_space_group_symop_operation_xyz
x,y,z
-x,-y,z
x,-y,1/2-z
-x,y,1/2-z
-x,-y,-z
x,y,-z
-x,y,1/2+z
x,-y,1/2+z
1/2+x,1/2+y,1/2+z
1/2-x,1/2-y,1/2+z
1/2+x,1/2-y,-z
1/2-x,1/2+y,-z
1/2-x,1/2-y,1/2-z
1/2+x,1/2+y,1/2-z
1/2-x,1/2+y,z
1/2+x,1/2-y,z
loop_
_atom_site_type_symbol
_atom_site_label
_atom_site_fract_x
_atom_site_fract_y
_atom_site_fract_z
Si Si1 0.783214 0.560051 0.097715
Si Si2 0.500000 0.272729 0.750000
Si Si3 0.032820 0.351539 0.095209
Si Si4 0.345675 0.114848 0.096364
Si Si5 0.181262 0.792613 0.188478
O O1 0.879135 0.597902 0.103353
O O2 0.789409 0.462719 0.132433
O O3 0.722287 0.625627 0.144399
O O4 0.761125 0.558233 0.000000
O O5 0.473779 0.216240 0.669672
O O6 0.589215 0.317472 0.726439
O O7 0.946193 0.406389 0.104843
O O8 0.030027 0.316727 0.000000
O O9 0.334880 0.210712 0.129195
O O10 0.325739 0.116212 0.000000
O O11 0.250000 0.750000 0.250000
#
# Coordination Sequence:
#
# PCOD9526149 Si02
#       5
#    16   8  16  16  16
#     4  10  19  34  57  83 112 150 192 237 293 351
#     4  10  20  36  53  83 118 150 198 234 289 349
#     4   9  17  32  54  83 117 149 185 237 296 353
#     4   9  19  34  54  81 113 146 189 239 289 345
#     4  11  21  35  54  82 114 150 190 236 288 349
#
# _framework density 18.242198999999999
#
# number of rings (size 3 to 8) (size 9 to 14) (size 15 to 20)
#    0.000    2.222    2.222    1.333    0.000    4.444 
#    0.000    1.111    0.000    2.667    0.000    3.111 
#    0.000    0.000    0.000    0.000    0.000    0.000 
#
# Total GULP energy -200414.305774 kJ/mol
# GULP energy per Si atom -5567.064049 kJ/mol
# Density = 1.820068 g / cm^3
# Si number density = 18.242199 Si / 1000 Ang^3
#
#
#
# Elastic Constant Matrix: (Units=GPa)
#
#
# Indices 1 2 3 4 5 6 
#
# 1 106.6751 53.7876 35.2964 0.0000 0.0000 0.0000
# 2 53.7876 86.8095 31.2222 0.0000 0.0000 0.0000
# 3 35.2964 31.2222 51.9090 0.0000 0.0000 0.0000
# 4 0.0000 0.0000 0.0000 -25.7060 0.0000 0.0000
# 5 0.0000 0.0000 0.0000 0.0000 29.6800 0.0000
# 6 0.0000 0.0000 0.0000 0.0000 0.0000 22.9206
#
#
#
# Elastic Compliance Matrix: (Units=1/GPa)
#
#
# Indices 1 2 3 4 5 6 
#
# 1 0.014905 -0.007133 -0.005844 0.000000 0.000000 0.000000
# 2 -0.007133 0.018113 -0.006044 0.000000 0.000000 0.000000
# 3 -0.005844 -0.006044 0.026874 0.000000 0.000000 0.000000
# 4 0.000000 0.000000 0.000000 -0.038901 0.000000 0.000000
# 5 0.000000 0.000000 0.000000 0.000000 0.033693 0.000000
# 6 0.000000 0.000000 0.000000 0.000000 0.000000 0.043629
#
#
# Mechanical properties :
#
#
# Convention : Reuss Voigt Hill
#
# Bulk Modulus (GPa) = 45.77026 54.00065 49.88546
# Shear Modulus (GPa) = 34.80977 13.71810 24.26393
#
# Velocity S-wave (km/s) = 4.37303 2.74523 3.65101
# Velocity P-wave (km/s) = 7.11637 6.30196 6.72151
#
# Compressibility (1/GPa) = 0.02184825
#
# Stress axis : x y z
#
# Youngs Moduli (GPa) = 67.09355 55.20873 37.21071
#
# Poissons Ratio (x) = 0.39380 0.21747
# Poissons Ratio (y) = 0.47858 0.22492
# Poissons Ratio (z) = 0.39211 0.33371
#
# Static dielectric constant tensor:
#      x y z
#    x 1.652430 0.000000 0.000000 
#    y 0.000000 1.680630 0.000000 
#    z 0.000000 0.000000 1.687000 
# 
# From -- ./inp_files/22986.got.cif
#   From: 2010.05.17/outbox.cif.g08.bks.cpg/sg72_12_cif.got.tgz:22986.got - 2010.06.03 17:03:01.
