data_PCOD9526896
_publ_section_title
;
Structure prediction by ZEFSAII (Michael W. Deem and Ramdas Pophale) SiO2 
 PCOD9526896
Probable space group: I B A M
;
_chemical_formula_sum "Si O2"
_cell_formula_units_Z 116
_cell_length_a 26.184566
_cell_length_b 26.118880
_cell_length_c 9.072434
_cell_angle_alpha 90.000000
_cell_angle_beta 90.000000
_cell_angle_gamma 90.000000
_cell_volume 6204.742283
_symmetry_space_group_name_H-M "I B A M"
_symmetry_group_IT_number 72
_symmetry_cell_setting 'orthorhombic'
loop_
_space_group_symop_operation_xyz
x,y,z
-x,-y,z
x,-y,1/2-z
-x,y,1/2-z
-x,-y,-z
x,y,-z
-x,y,1/2+z
x,-y,1/2+z
1/2+x,1/2+y,1/2+z
1/2-x,1/2-y,1/2+z
1/2+x,1/2-y,-z
1/2-x,1/2+y,-z
1/2-x,1/2-y,1/2-z
1/2+x,1/2+y,1/2-z
1/2-x,1/2+y,z
1/2+x,1/2-y,z
loop_
_atom_site_type_symbol
_atom_site_label
_atom_site_fract_x
_atom_site_fract_y
_atom_site_fract_z
Si Si1 0.000000 0.000000 0.750000
Si Si2 0.841650 0.551051 0.177080
Si Si3 0.850321 0.738488 0.822839
Si Si4 0.397489 0.549640 0.332068
Si Si5 0.551596 0.070170 0.668173
Si Si6 0.658941 0.348660 0.678435
Si Si7 0.051484 0.693488 0.168645
Si Si8 0.723413 0.850257 0.321856
O O1 0.041252 0.037949 0.673200
O O2 0.818967 0.500000 0.250000
O O3 0.898988 0.555854 0.237961
O O4 0.811347 0.601963 0.224314
O O5 0.841296 0.547614 0.000000
O O6 0.852449 0.794505 0.752709
O O7 0.900217 0.709445 0.764759
O O8 0.801924 0.703489 0.773422
O O9 0.849964 0.741617 0.000000
O O10 0.375249 0.500000 0.250000
O O11 0.380690 0.547572 0.500000
O O12 0.377892 0.604334 0.274487
O O13 0.500000 0.054620 0.750000
O O14 0.554795 0.050719 0.500000
O O15 0.550294 0.131969 0.661356
O O16 0.655268 0.343518 0.500000
O O17 0.717989 0.359129 0.719355
O O18 0.000000 0.711074 0.250000
O O19 0.054784 0.712763 0.000000
O O20 0.721968 0.849164 0.500000
#
# Coordination Sequence:
#
# PCOD9526896 Si02
#       8
#     4  16  16  16  16  16  16  16
#     4   8  18  36  62  92 114 156 194 228 282 344
#     4  11  22  38  57  82 113 149 193 244 296 353
#     4  11  21  37  59  87 116 155 198 244 297 355
#     4   9  19  35  60  86 117 152 191 233 288 348
#     4  10  20  35  57  83 110 145 187 234 287 345
#     4  10  21  39  59  87 118 154 196 245 298 351
#     4  10  20  35  57  84 114 152 192 236 286 347
#     4   9  20  38  60  80 113 155 197 245 300 353
#
# _framework density 18.695378000000002
#
# number of rings (size 3 to 8) (size 9 to 14) (size 15 to 20)
#    0.414    1.655    1.379    2.276    0.000    2.483 
#    1.241    3.448    0.000    0.000    0.000    0.000 
#    0.000    0.000    0.000    0.000    0.000    0.000 
#
# Total GULP energy -323251.963844 kJ/mol
# GULP energy per Si atom -5573.309721 kJ/mol
# Density = 1.865283 g / cm^3
# Si number density = 18.695378 Si / 1000 Ang^3
#
#
#
# Elastic Constant Matrix: (Units=GPa)
#
#
# Indices 1 2 3 4 5 6 
#
# 1 84.8482 47.1380 18.1197 0.0000 0.0000 0.0000
# 2 47.1380 134.6236 40.3297 0.0000 0.0000 0.0000
# 3 18.1197 40.3297 71.2666 0.0000 0.0000 0.0000
# 4 0.0000 0.0000 0.0000 29.7513 0.0000 0.0000
# 5 0.0000 0.0000 0.0000 0.0000 20.5208 0.0000
# 6 0.0000 0.0000 0.0000 0.0000 0.0000 7.8462
#
#
#
# Elastic Compliance Matrix: (Units=1/GPa)
#
#
# Indices 1 2 3 4 5 6 
#
# 1 0.014690 -0.004846 -0.000992 0.000000 0.000000 0.000000
# 2 -0.004846 0.010543 -0.004734 0.000000 0.000000 0.000000
# 3 -0.000992 -0.004734 0.016963 0.000000 0.000000 0.000000
# 4 0.000000 0.000000 0.000000 0.033612 0.000000 0.000000
# 5 0.000000 0.000000 0.000000 0.000000 0.048731 0.000000
# 6 0.000000 0.000000 0.000000 0.000000 0.000000 0.127451
#
#
# Mechanical properties :
#
#
# Convention : Reuss Voigt Hill
#
# Bulk Modulus (GPa) = 47.50465 55.76813 51.63639
# Shear Modulus (GPa) = 17.84735 23.96705 20.90720
#
# Velocity S-wave (km/s) = 3.09308 3.58435 3.34774
# Velocity P-wave (km/s) = 6.18233 6.85746 6.52863
#
# Compressibility (1/GPa) = 0.02105057
#
# Stress axis : x y z
#
# Youngs Moduli (GPa) = 68.07286 94.84677 58.95090
#
# Poissons Ratio (x) = 0.45966 0.05850
# Poissons Ratio (y) = 0.32991 0.27909
# Poissons Ratio (z) = 0.06756 0.44903
#
# Static dielectric constant tensor:
#      x y z
#    x 1.649190 0.000000 0.000000 
#    y 0.000000 1.669580 0.000000 
#    z 0.000000 0.000000 1.641620 
# 
# From -- ./inp_files/8389.got.cif
#   From: 2010.05.17/outbox.cif.g08.bks.cpg/sg72_5_cif.got.tgz:8389.got - 2010.06.03 17:03:01.
