data_PCOD9526571
_publ_section_title
;
Structure prediction by ZEFSAII (Michael W. Deem and Ramdas Pophale) SiO2 
 PCOD9526571
Probable space group: I B A M
;
_chemical_formula_sum "Si O2"
_cell_formula_units_Z 52
_cell_length_a 14.035935
_cell_length_b 24.488325
_cell_length_c 9.194157
_cell_angle_alpha 90.000000
_cell_angle_beta 90.000000
_cell_angle_gamma 90.000000
_cell_volume 3160.183813
_symmetry_space_group_name_H-M "I B A M"
_symmetry_group_IT_number 72
_symmetry_cell_setting 'orthorhombic'
loop_
_space_group_symop_operation_xyz
x,y,z
-x,-y,z
x,-y,1/2-z
-x,y,1/2-z
-x,-y,-z
x,y,-z
-x,y,1/2+z
x,-y,1/2+z
1/2+x,1/2+y,1/2+z
1/2-x,1/2-y,1/2+z
1/2+x,1/2-y,-z
1/2-x,1/2+y,-z
1/2-x,1/2-y,1/2-z
1/2+x,1/2+y,1/2-z
1/2-x,1/2+y,z
1/2+x,1/2-y,z
loop_
_atom_site_type_symbol
_atom_site_label
_atom_site_fract_x
_atom_site_fract_y
_atom_site_fract_z
Si Si1 0.601616 0.767544 0.327490
Si Si2 0.500000 0.500000 0.250000
Si Si3 0.187287 0.052550 0.334755
Si Si4 0.736646 0.663713 0.327684
O O1 0.500000 0.767338 0.250000
O O2 0.593151 0.778084 0.500000
O O3 0.653698 0.708980 0.309268
O O4 0.671027 0.811371 0.251691
O O5 0.426035 0.461673 0.164496
O O6 0.221063 0.056794 0.500000
O O7 0.206992 0.107136 0.245906
O O8 0.229318 0.000000 0.250000
O O9 0.753423 0.657066 0.500000
#
# Coordination Sequence:
#
# PCOD9526571 Si02
#       4
#    16   4  16  16
#     4  10  21  36  55  79 107 142 180 222 268 316
#     4   8  22  32  50  76 108 140 178 212 260 324
#     4  10  20  33  51  75 107 140 175 216 262 315
#     4  10  21  36  54  79 109 142 180 221 266 317
#
# _framework density 16.454740000000001
#
# number of rings (size 3 to 8) (size 9 to 14) (size 15 to 20)
#    0.923    1.231    0.000    3.231    2.154    3.692 
#    0.000    0.000    0.000    0.923    0.000    6.462 
#    0.000    0.000    0.000    0.000    0.000    0.000 
#
# Total GULP energy -144831.267145 kJ/mol
# GULP energy per Si atom -5570.433352 kJ/mol
# Density = 1.641729 g / cm^3
# Si number density = 16.454740 Si / 1000 Ang^3
#
#
#
# Elastic Constant Matrix: (Units=GPa)
#
#
# Indices 1 2 3 4 5 6 
#
# 1 110.4060 54.3326 76.7868 0.0002 0.0000 0.0000
# 2 54.3326 144.6266 95.5474 0.0003 0.0000 0.0000
# 3 76.7868 95.5474 168.8633 0.0004 0.0003 -0.0001
# 4 0.0002 0.0003 0.0004 18.0309 -0.0001 0.0000
# 5 0.0000 0.0000 0.0003 -0.0001 17.6626 -0.0001
# 6 0.0000 0.0000 -0.0001 0.0000 -0.0001 12.0803
#
#
#
# Elastic Compliance Matrix: (Units=1/GPa)
#
#
# Indices 1 2 3 4 5 6 
#
# 1 0.013481 -0.001620 -0.005213 0.000000 0.000000 0.000000
# 2 -0.001620 0.011237 -0.005621 0.000000 0.000000 0.000000
# 3 -0.005213 -0.005621 0.011473 0.000000 0.000000 0.000000
# 4 0.000000 0.000000 0.000000 0.055460 0.000000 0.000000
# 5 0.000000 0.000000 0.000000 0.000000 0.056617 0.000000
# 6 0.000000 0.000000 0.000000 0.000000 0.000000 0.082780
#
#
# Mechanical properties :
#
#
# Convention : Reuss Voigt Hill
#
# Bulk Modulus (GPa) = 88.64402 97.46996 93.05699
# Shear Modulus (GPa) = 19.25170 22.70334 20.97752
#
# Velocity S-wave (km/s) = 3.42421 3.71852 3.57439
# Velocity P-wave (km/s) = 8.34398 8.82045 8.58552
#
# Compressibility (1/GPa) = 0.01128108
#
# Stress axis : x y z
#
# Youngs Moduli (GPa) = 74.18072 88.99382 87.15930
#
# Poissons Ratio (x) = 0.14419 0.45438
# Poissons Ratio (y) = 0.12019 0.48995
# Poissons Ratio (z) = 0.38672 0.50026
#
# Static dielectric constant tensor:
#      x y z
#    x 1.531320 0.000000 0.000000 
#    y 0.000000 1.530020 0.000000 
#    z 0.000000 0.000000 1.556400 
# 
# From -- ./inp_files/2295.got.cif
#   From: 2010.05.17/outbox.cif.g08.bks.cpg/sg72_2_cif.got.tgz:2295.got - 2010.06.03 17:03:01.
