data_PCOD9526786
_publ_section_title
;
Structure prediction by ZEFSAII (Michael W. Deem and Ramdas Pophale) SiO2 
 PCOD9526786
Probable space group: I B A M
;
_chemical_formula_sum "Si O2"
_cell_formula_units_Z 116
_cell_length_a 26.840293
_cell_length_b 24.667878
_cell_length_c 8.183900
_cell_angle_alpha 90.000000
_cell_angle_beta 90.000000
_cell_angle_gamma 90.000000
_cell_volume 5418.503502
_symmetry_space_group_name_H-M "I B A M"
_symmetry_group_IT_number 72
_symmetry_cell_setting 'orthorhombic'
loop_
_space_group_symop_operation_xyz
x,y,z
-x,-y,z
x,-y,1/2-z
-x,y,1/2-z
-x,-y,-z
x,y,-z
-x,y,1/2+z
x,-y,1/2+z
1/2+x,1/2+y,1/2+z
1/2-x,1/2-y,1/2+z
1/2+x,1/2-y,-z
1/2-x,1/2+y,-z
1/2-x,1/2-y,1/2-z
1/2+x,1/2+y,1/2-z
1/2-x,1/2+y,z
1/2+x,1/2-y,z
loop_
_atom_site_type_symbol
_atom_site_label
_atom_site_fract_x
_atom_site_fract_y
_atom_site_fract_z
Si Si1 0.000000 0.000000 0.250000
Si Si2 0.811670 0.782912 0.186630
Si Si3 0.164339 0.667865 0.693219
Si Si4 0.788363 0.558541 0.685586
Si Si5 0.581451 0.295209 0.311621
Si Si6 0.550852 0.184283 0.196250
Si Si7 0.309345 0.598281 0.689752
Si Si8 0.573363 0.584761 0.805419
O O1 0.041294 0.955517 0.304989
O O2 0.806258 0.721752 0.259107
O O3 0.871933 0.787744 0.191920
O O4 0.797722 0.837711 0.281607
O O5 0.793643 0.786545 0.000000
O O6 0.163631 0.678218 0.500000
O O7 0.189945 0.610796 0.723880
O O8 0.106257 0.663827 0.746433
O O9 0.803982 0.500000 0.750000
O O10 0.803719 0.563686 0.500000
O O11 0.728802 0.564295 0.703396
O O12 0.600155 0.297361 0.500000
O O13 0.549336 0.242416 0.285564
O O14 0.557413 0.353150 0.281011
O O15 0.500000 0.154422 0.250000
O O16 0.550480 0.189261 0.000000
O O17 0.300574 0.585895 0.500000
O O18 0.367217 0.585546 0.725932
O O19 0.565714 0.570793 0.000000
#
# Coordination Sequence:
#
# PCOD9526786 Si02
#       8
#     4  16  16  16  16  16  16  16
#     4  12  22  36  52  78 108 152 210 252 306 344
#     4   9  17  33  58  90 122 154 194 241 304 363
#     4   9  20  39  61  89 127 161 198 247 293 355
#     4  12  26  43  65  91 117 155 202 246 303 361
#     4   9  17  32  52  76 112 154 196 244 299 354
#     4  10  20  34  57  90 123 158 195 233 288 353
#     4  10  21  40  63  86 118 157 202 255 307 362
#     4   9  21  38  53  75 108 149 197 250 303 350
#
# _framework density 21.408124999999998
#
# number of rings (size 3 to 8) (size 9 to 14) (size 15 to 20)
#    0.000    2.207    0.000    4.759    1.931    3.862 
#    0.000    6.897    0.000    0.414    0.000    2.897 
#    0.000    0.000    0.000    0.000    0.000    0.000 
#
# Total GULP energy -323252.337143 kJ/mol
# GULP energy per Si atom -5573.316158 kJ/mol
# Density = 2.135940 g / cm^3
# Si number density = 21.408125 Si / 1000 Ang^3
#
#
#
# Elastic Constant Matrix: (Units=GPa)
#
#
# Indices 1 2 3 4 5 6 
#
# 1 71.1539 29.2302 9.5121 0.0000 0.0000 0.0000
# 2 29.2302 109.0645 10.3516 0.0000 0.0000 0.0000
# 3 9.5121 10.3516 45.6388 0.0000 0.0000 0.0000
# 4 0.0000 0.0000 0.0000 17.2673 0.0000 0.0000
# 5 0.0000 0.0000 0.0000 0.0000 16.5549 0.0000
# 6 0.0000 0.0000 0.0000 0.0000 0.0000 34.6486
#
#
#
# Elastic Compliance Matrix: (Units=1/GPa)
#
#
# Indices 1 2 3 4 5 6 
#
# 1 0.016051 -0.004072 -0.002422 0.000000 0.000000 0.000000
# 2 -0.004072 0.010404 -0.001511 0.000000 0.000000 0.000000
# 3 -0.002422 -0.001511 0.022759 0.000000 0.000000 0.000000
# 4 0.000000 0.000000 0.000000 0.057913 0.000000 0.000000
# 5 0.000000 0.000000 0.000000 0.000000 0.060405 0.000000
# 6 0.000000 0.000000 0.000000 0.000000 0.000000 0.028861
#
#
# Mechanical properties :
#
#
# Convention : Reuss Voigt Hill
#
# Bulk Modulus (GPa) = 30.11725 36.00502 33.06113
# Shear Modulus (GPa) = 22.37446 25.47836 23.92641
#
# Velocity S-wave (km/s) = 3.23637 3.45356 3.34673
# Velocity P-wave (km/s) = 5.29756 5.72343 5.51461
#
# Compressibility (1/GPa) = 0.03320356
#
# Stress axis : x y z
#
# Youngs Moduli (GPa) = 62.30334 96.12070 43.93932
#
# Poissons Ratio (x) = 0.39139 0.10641
# Poissons Ratio (y) = 0.25369 0.06639
# Poissons Ratio (z) = 0.15088 0.14524
#
# Static dielectric constant tensor:
#      x y z
#    x 1.811140 0.000000 0.000000 
#    y 0.000000 1.419730 0.000000 
#    z 0.000000 0.000000 1.806220 
# 
# From -- ./inp_files/8405.got.cif
#   From: 2010.05.17/outbox.cif.g08.bks.cpg/sg72_5_cif.got.tgz:8405.got - 2010.06.03 17:03:01.
