data_PCOD9526088
_publ_section_title
;
Structure prediction by ZEFSAII (Michael W. Deem and Ramdas Pophale) SiO2 
 PCOD9526088
Probable space group: I B A M
;
_chemical_formula_sum "Si O2"
_cell_formula_units_Z 116
_cell_length_a 28.139373
_cell_length_b 27.137945
_cell_length_c 7.915064
_cell_angle_alpha 90.000000
_cell_angle_beta 90.000000
_cell_angle_gamma 90.000000
_cell_volume 6044.297123
_symmetry_space_group_name_H-M "I B A M"
_symmetry_group_IT_number 72
_symmetry_cell_setting 'orthorhombic'
loop_
_space_group_symop_operation_xyz
x,y,z
-x,-y,z
x,-y,1/2-z
-x,y,1/2-z
-x,-y,-z
x,y,-z
-x,y,1/2+z
x,-y,1/2+z
1/2+x,1/2+y,1/2+z
1/2-x,1/2-y,1/2+z
1/2+x,1/2-y,-z
1/2-x,1/2+y,-z
1/2-x,1/2-y,1/2-z
1/2+x,1/2+y,1/2-z
1/2-x,1/2+y,z
1/2+x,1/2-y,z
loop_
_atom_site_type_symbol
_atom_site_label
_atom_site_fract_x
_atom_site_fract_y
_atom_site_fract_z
Si Si1 0.922581 0.818505 0.197976
Si Si2 0.072135 0.924039 0.198068
Si Si3 0.753564 0.359994 0.202504
Si Si4 0.000000 0.000000 0.250000
Si Si5 0.680201 0.556242 0.799124
Si Si6 0.551419 0.208879 0.298224
Si Si7 0.180849 0.220353 0.203995
Si Si8 0.650293 0.827417 0.804056
O O1 0.941030 0.866627 0.291483
O O2 0.944997 0.765497 0.237484
O O3 0.866707 0.811228 0.238156
O O4 0.927559 0.827961 0.000000
O O5 0.126667 0.929988 0.257473
O O6 0.038621 0.959126 0.308280
O O7 0.067897 0.939622 0.000000
O O8 0.720402 0.406721 0.234643
O O9 0.725243 0.311613 0.265215
O O10 0.807560 0.361074 0.269857
O O11 0.756862 0.354228 0.000000
O O12 0.689833 0.500000 0.750000
O O13 0.679649 0.560697 0.000000
O O14 0.500000 0.188612 0.250000
O O15 0.555406 0.210268 0.500000
O O16 0.597456 0.179359 0.229290
O O17 0.172570 0.272485 0.291652
O O18 0.183272 0.227824 0.000000
O O19 0.643739 0.841488 0.000000
#
# Coordination Sequence:
#
# PCOD9526088 Si02
#       8
#    16  16  16   4  16  16  16  16
#     4  10  20  34  53  74  98 131 169 214 263 313
#     4  11  24  40  56  73  94 125 170 224 277 321
#     4  10  19  34  53  77 105 135 167 210 263 314
#     4  12  26  44  56  70  94 128 176 234 284 316
#     4  11  23  39  58  78 100 133 173 217 268 322
#     4  10  20  35  52  74 104 140 177 212 251 299
#     4   9  17  29  48  74 103 134 166 202 254 311
#     4   9  19  32  50  75 106 137 171 211 253 305
#
# _framework density 19.191645000000001
#
# number of rings (size 3 to 8) (size 9 to 14) (size 15 to 20)
#    0.000    1.931    2.069    1.862    0.966    3.862 
#    0.000    0.000    0.000    0.000    0.000    0.000 
#    0.000    0.552    0.000    6.345    0.000    1.931 
#
# Total GULP energy -323489.398203 kJ/mol
# GULP energy per Si atom -5577.403417 kJ/mol
# Density = 1.914796 g / cm^3
# Si number density = 19.191645 Si / 1000 Ang^3
#
#
#
# Elastic Constant Matrix: (Units=GPa)
#
#
# Indices 1 2 3 4 5 6 
#
# 1 169.3670 41.8692 11.3280 0.0000 0.0000 0.0000
# 2 41.8692 42.8055 0.2376 0.0000 0.0000 0.0000
# 3 11.3280 0.2376 27.0545 0.0000 0.0000 0.0000
# 4 0.0000 0.0000 0.0000 8.9316 0.0000 0.0000
# 5 0.0000 0.0000 0.0000 0.0000 7.1648 0.0000
# 6 0.0000 0.0000 0.0000 0.0000 0.0000 30.5710
#
#
#
# Elastic Compliance Matrix: (Units=1/GPa)
#
#
# Indices 1 2 3 4 5 6 
#
# 1 0.008073 -0.007878 -0.003311 0.000000 0.000000 0.000000
# 2 -0.007878 0.031051 0.003026 0.000000 0.000000 0.000000
# 3 -0.003311 0.003026 0.038322 0.000000 0.000000 0.000000
# 4 0.000000 0.000000 0.000000 0.111962 0.000000 0.000000
# 5 0.000000 0.000000 0.000000 0.000000 0.139570 0.000000
# 6 0.000000 0.000000 0.000000 0.000000 0.000000 0.032711
#
#
# Mechanical properties :
#
#
# Convention : Reuss Voigt Hill
#
# Bulk Modulus (GPa) = 16.36147 38.45519 27.40833
# Shear Modulus (GPa) = 12.55052 21.71964 17.13508
#
# Velocity S-wave (km/s) = 2.56003 3.36776 2.99129
# Velocity P-wave (km/s) = 4.15718 5.93324 5.12277
#
# Compressibility (1/GPa) = 0.06111921
#
# Stress axis : x y z
#
# Youngs Moduli (GPa) = 123.86285 32.20527 26.09450
#
# Poissons Ratio (x) = 0.25373 0.08640
# Poissons Ratio (y) = 0.97585 -0.07896
# Poissons Ratio (z) = 0.41014 -0.09745
#
# Static dielectric constant tensor:
#      x y z
#    x 1.750480 0.000000 0.000000 
#    y 0.000000 1.624730 0.000000 
#    z 0.000000 0.000000 1.728790 
# 
# From -- ./inp_files/8385.got.cif
#   From: 2010.05.17/outbox.cif.g08.bks.cpg/sg72_5_cif.got.tgz:8385.got - 2010.06.03 17:03:01.
