data_PCOD9526403
_publ_section_title
;
Structure prediction by ZEFSAII (Michael W. Deem and Ramdas Pophale) SiO2 
 PCOD9526403
Probable space group: I B A M
;
_chemical_formula_sum "Si O2"
_cell_formula_units_Z 96
_cell_length_a 29.890157
_cell_length_b 19.379744
_cell_length_c 8.787238
_cell_angle_alpha 90.000000
_cell_angle_beta 90.000000
_cell_angle_gamma 90.000000
_cell_volume 5090.127037
_symmetry_space_group_name_H-M "I B A M"
_symmetry_group_IT_number 72
_symmetry_cell_setting 'orthorhombic'
loop_
_space_group_symop_operation_xyz
x,y,z
-x,-y,z
x,-y,1/2-z
-x,y,1/2-z
-x,-y,-z
x,y,-z
-x,y,1/2+z
x,-y,1/2+z
1/2+x,1/2+y,1/2+z
1/2-x,1/2-y,1/2+z
1/2+x,1/2-y,-z
1/2-x,1/2+y,-z
1/2-x,1/2-y,1/2-z
1/2+x,1/2+y,1/2-z
1/2-x,1/2+y,z
1/2+x,1/2-y,z
loop_
_atom_site_type_symbol
_atom_site_label
_atom_site_fract_x
_atom_site_fract_y
_atom_site_fract_z
Si Si1 0.296693 0.223768 0.682190
Si Si2 0.570550 0.929879 0.819039
Si Si3 0.177364 0.574167 0.181579
Si Si4 0.040876 0.288120 0.325387
Si Si5 0.450649 0.423505 0.184910
Si Si6 0.123653 0.811217 0.823647
O O1 0.295544 0.220573 0.500000
O O2 0.250000 0.250000 0.750000
O O3 0.305530 0.146044 0.746226
O O4 0.334479 0.279789 0.733210
O O5 0.623787 0.924980 0.792827
O O6 0.548222 0.862251 0.750473
O O7 0.553406 0.000000 0.750000
O O8 0.564350 0.930479 0.000000
O O9 0.193482 0.500000 0.250000
O O10 0.185671 0.574893 0.000000
O O11 0.028546 0.296470 0.500000
O O12 0.087500 0.249987 0.321363
O O13 0.000000 0.249416 0.250000
O O14 0.442525 0.500000 0.250000
O O15 0.500000 0.403875 0.250000
O O16 0.407934 0.375324 0.227769
O O17 0.453405 0.422682 0.000000
O O18 0.137154 0.823865 0.000000
#
# Coordination Sequence:
#
# PCOD9526403 Si02
#       6
#    16  16  16  16  16  16
#     4  12  25  41  64  92 120 155 198 251 311 369
#     4   9  18  32  51  73 106 147 186 232 276 322
#     4  10  19  37  62  88 119 154 197 242 290 351
#     4  10  20  34  51  76 110 149 190 235 283 334
#     4  10  20  35  60  89 124 163 202 248 301 366
#     4  10  21  40  60  82 116 155 194 245 302 357
#
# _framework density 18.860040000000001
#
# number of rings (size 3 to 8) (size 9 to 14) (size 15 to 20)
#    0.000    1.833    1.667    3.500    0.000    3.667 
#    0.000    2.500    0.000    2.000    0.000    0.000 
#    0.000    0.000    0.000    0.000    0.000    0.000 
#
# Total GULP energy -267505.115081 kJ/mol
# GULP energy per Si atom -5573.023231 kJ/mol
# Density = 1.881711 g / cm^3
# Si number density = 18.860040 Si / 1000 Ang^3
#
#
#
# Elastic Constant Matrix: (Units=GPa)
#
#
# Indices 1 2 3 4 5 6 
#
# 1 108.7920 59.3901 67.0795 0.0000 0.0000 0.0000
# 2 59.3901 159.1286 54.6993 0.0000 0.0000 0.0000
# 3 67.0795 54.6993 80.7533 0.0000 0.0000 0.0000
# 4 0.0000 0.0000 0.0000 17.2712 0.0000 0.0000
# 5 0.0000 0.0000 0.0000 0.0000 25.7150 0.0000
# 6 0.0000 0.0000 0.0000 0.0000 0.0000 -7.0716
#
#
#
# Elastic Compliance Matrix: (Units=1/GPa)
#
#
# Indices 1 2 3 4 5 6 
#
# 1 0.019426 -0.002220 -0.014633 0.000000 0.000000 0.000000
# 2 -0.002220 0.008445 -0.003876 0.000000 0.000000 0.000000
# 3 -0.014633 -0.003876 0.027164 0.000000 0.000000 0.000000
# 4 0.000000 0.000000 0.000000 0.057900 0.000000 0.000000
# 5 0.000000 0.000000 0.000000 0.000000 0.038888 0.000000
# 6 0.000000 0.000000 0.000000 0.000000 0.000000 -0.141411
#
#
# Mechanical properties :
#
#
# Convention : Reuss Voigt Hill
#
# Bulk Modulus (GPa) = 73.65455 79.00131 76.32793
# Shear Modulus (GPa) = 88.65716 18.34993 53.50354
#
# Velocity S-wave (km/s) = 6.86367 3.12260 5.33201
# Velocity P-wave (km/s) = 10.09709 7.41485 8.85808
#
# Compressibility (1/GPa) = 0.01357689
#
# Stress axis : x y z
#
# Youngs Moduli (GPa) = 51.47618 118.40894 36.81321
#
# Poissons Ratio (x) = 0.26291 0.53869
# Poissons Ratio (y) = 0.11430 0.14269
# Poissons Ratio (z) = 0.75325 0.45897
#
# Static dielectric constant tensor:
#      x y z
#    x 1.639290 0.000000 0.000000 
#    y 0.000000 1.754550 0.000000 
#    z 0.000000 0.000000 1.716230 
# 
# From -- ./inp_files/8043.got.cif
#   From: 2010.05.17/outbox.cif.g08.bks.cpg/sg72_5_cif.got.tgz:8043.got - 2010.06.03 17:03:01.
