data_PCOD9526691
_publ_section_title
;
Structure prediction by ZEFSAII (Michael W. Deem and Ramdas Pophale) SiO2 
 PCOD9526691
Probable space group: I B A M
;
_chemical_formula_sum "Si O2"
_cell_formula_units_Z 104
_cell_length_a 9.710828
_cell_length_b 27.718740
_cell_length_c 18.914085
_cell_angle_alpha 90.000000
_cell_angle_beta 90.000000
_cell_angle_gamma 90.000000
_cell_volume 5091.140509
_symmetry_space_group_name_H-M "I B A M"
_symmetry_group_IT_number 72
_symmetry_cell_setting 'orthorhombic'
loop_
_space_group_symop_operation_xyz
x,y,z
-x,-y,z
x,-y,1/2-z
-x,y,1/2-z
-x,-y,-z
x,y,-z
-x,y,1/2+z
x,-y,1/2+z
1/2+x,1/2+y,1/2+z
1/2-x,1/2-y,1/2+z
1/2+x,1/2-y,-z
1/2-x,1/2+y,-z
1/2-x,1/2-y,1/2-z
1/2+x,1/2+y,1/2-z
1/2-x,1/2+y,z
1/2+x,1/2-y,z
loop_
_atom_site_type_symbol
_atom_site_label
_atom_site_fract_x
_atom_site_fract_y
_atom_site_fract_z
Si Si1 0.177874 0.355130 0.083267
Si Si2 0.000000 0.000000 0.382786
Si Si3 0.488803 0.391356 0.923161
Si Si4 0.360152 0.632851 0.215146
Si Si5 0.154465 0.705497 0.274924
Si Si6 0.961884 0.557274 0.580857
Si Si7 0.744645 0.037922 0.701193
O O1 0.336394 0.371464 0.091919
O O2 0.153180 0.313982 0.143271
O O3 0.082284 0.403116 0.093158
O O4 0.159252 0.340280 0.000000
O O5 0.016413 0.050522 0.422545
O O6 0.863543 0.007802 0.337103
O O7 0.596466 0.373919 0.865429
O O8 0.531219 0.374144 0.000000
O O9 0.500000 0.652594 0.250000
O O10 0.225955 0.662738 0.231222
O O11 0.324356 0.579585 0.243471
O O12 0.250000 0.750000 0.250000
O O13 0.000000 0.714550 0.250000
O O14 0.910846 0.565337 0.500000
O O15 0.850602 0.562316 0.642553
O O16 0.000000 0.500000 0.583621
O O17 0.666449 0.000000 0.750000
#
# Coordination Sequence:
#
# PCOD9526691 Si02
#       7
#    16   8  16  16  16  16  16
#     4  10  22  44  70 100 137 182 231 284 347 418
#     4  10  20  34  52  88 134 178 230 278 322 386
#     4  10  20  36  65  96 133 184 228 275 327 395
#     4  11  22  41  63  93 136 169 219 280 339 409
#     4  12  27  48  76 103 132 177 223 287 363 423
#     4  10  22  38  57  87 134 184 228 277 333 404
#     4  11  22  34  54  89 128 179 234 280 331 395
#
# _framework density 20.427643
#
# number of rings (size 3 to 8) (size 9 to 14) (size 15 to 20)
#    0.000    1.385    1.538    4.615    2.154    4.615 
#    0.000    2.308    0.000    0.000    0.000    0.000 
#    0.000    0.000    0.000    0.000    0.000    0.000 
#
# Total GULP energy -290104.078712 kJ/mol
# GULP energy per Si atom -5578.924591 kJ/mol
# Density = 2.038115 g / cm^3
# Si number density = 20.427643 Si / 1000 Ang^3
#
#
#
# Elastic Constant Matrix: (Units=GPa)
#
#
# Indices 1 2 3 4 5 6 
#
# 1 116.7605 39.1109 59.5449 0.0000 0.0000 0.0000
# 2 39.1109 67.2952 67.8332 0.0000 0.0000 0.0000
# 3 59.5449 67.8332 118.6468 -0.0002 0.0000 0.0000
# 4 0.0000 0.0000 -0.0002 21.7523 0.0000 0.0000
# 5 0.0000 0.0000 0.0000 0.0000 49.4327 0.0000
# 6 0.0000 0.0000 0.0000 0.0000 0.0000 35.5228
#
#
#
# Elastic Compliance Matrix: (Units=1/GPa)
#
#
# Indices 1 2 3 4 5 6 
#
# 1 0.011631 -0.002067 -0.004655 0.000000 0.000000 0.000000
# 2 -0.002067 0.035439 -0.019224 0.000000 0.000000 0.000000
# 3 -0.004655 -0.019224 0.021755 0.000000 0.000000 0.000000
# 4 0.000000 0.000000 0.000000 0.045972 0.000000 0.000000
# 5 0.000000 0.000000 0.000000 0.000000 0.020230 0.000000
# 6 0.000000 0.000000 0.000000 0.000000 0.000000 0.028151
#
#
# Mechanical properties :
#
#
# Convention : Reuss Voigt Hill
#
# Bulk Modulus (GPa) = 59.05750 70.63116 64.84433
# Shear Modulus (GPa) = 22.65369 30.42248 26.53809
#
# Velocity S-wave (km/s) = 3.33374 3.86331 3.60825
# Velocity P-wave (km/s) = 6.61753 7.38590 7.01225
#
# Compressibility (1/GPa) = 0.01693265
#
# Stress axis : x y z
#
# Youngs Moduli (GPa) = 85.97630 28.21772 45.96558
#
# Poissons Ratio (x) = 0.05833 0.21399
# Poissons Ratio (y) = 0.17773 0.88363
# Poissons Ratio (z) = 0.40025 0.54245
#
# Static dielectric constant tensor:
#      x y z
#    x 1.701140 0.000000 0.000000 
#    y 0.000000 1.963670 0.000000 
#    z 0.000000 0.000000 1.785870 
# 
# From -- ./inp_files/36167.got.cif
#   From: 2010.05.17/outbox.cif.g08.bks.cpg/sg72_19_cif.got.tgz:36167.got - 2010.06.03 17:03:01.
