data_PCOD9526197
_publ_section_title
;
Structure prediction by ZEFSAII (Michael W. Deem and Ramdas Pophale) SiO2 
 PCOD9526197
Probable space group: I B A M
;
_chemical_formula_sum "Si O2"
_cell_formula_units_Z 88
_cell_length_a 7.624459
_cell_length_b 17.667767
_cell_length_c 27.263210
_cell_angle_alpha 90.000000
_cell_angle_beta 90.000000
_cell_angle_gamma 90.000000
_cell_volume 3672.549731
_symmetry_space_group_name_H-M "I B A M"
_symmetry_group_IT_number 72
_symmetry_cell_setting 'orthorhombic'
loop_
_space_group_symop_operation_xyz
x,y,z
-x,-y,z
x,-y,1/2-z
-x,y,1/2-z
-x,-y,-z
x,y,-z
-x,y,1/2+z
x,-y,1/2+z
1/2+x,1/2+y,1/2+z
1/2-x,1/2-y,1/2+z
1/2+x,1/2-y,-z
1/2-x,1/2+y,-z
1/2-x,1/2-y,1/2-z
1/2+x,1/2+y,1/2-z
1/2-x,1/2+y,z
1/2+x,1/2-y,z
loop_
_atom_site_type_symbol
_atom_site_label
_atom_site_fract_x
_atom_site_fract_y
_atom_site_fract_z
Si Si1 0.039393 0.775632 0.393503
Si Si2 0.834197 0.622824 0.000000
Si Si3 0.794083 0.663032 0.688243
Si Si4 0.212784 0.998410 0.808844
Si Si5 0.000000 0.775244 0.250000
Si Si6 0.512887 0.272929 0.000000
Si Si7 0.689878 0.121695 0.890842
O O1 0.176158 0.805355 0.354831
O O2 0.104332 0.791188 0.448825
O O3 0.034645 0.684106 0.388545
O O4 0.862655 0.824322 0.389105
O O5 0.997294 0.681372 0.000000
O O6 0.823413 0.584799 0.054170
O O7 0.666694 0.680029 0.000000
O O8 0.813641 0.575488 0.677339
O O9 0.661515 0.671989 0.735550
O O10 0.946360 0.718820 0.706260
O O11 0.287562 0.933163 0.844448
O O12 0.238216 0.000000 0.750000
O O13 0.000000 0.000000 0.817313
#
# Coordination Sequence:
#
# PCOD9526197 Si02
#       7
#    16   8  16  16   8   8  16
#     4  10  19  34  61  87 118 158 200 254 298 375
#     4   8  16  32  56  87 120 151 198 262 300 370
#     4  11  22  39  62  86 119 155 204 257 313 369
#     4  11  23  38  56  83 121 166 197 248 309 372
#     4  10  24  38  64  90 112 154 214 260 304 366
#     4   8  16  30  51  88 119 146 194 248 310 350
#     4  10  20  37  61  90 121 160 208 251 317 362
#
# _framework density 23.961552999999999
#
# number of rings (size 3 to 8) (size 9 to 14) (size 15 to 20)
#    0.000    2.000    1.818    2.182    5.091    0.000 
#    0.000    1.818    0.000    0.000    0.000    0.000 
#    0.000   20.000    0.000    0.000    0.000    0.000 
#
# Total GULP energy -245516.934590 kJ/mol
# GULP energy per Si atom -5579.930332 kJ/mol
# Density = 2.390702 g / cm^3
# Si number density = 23.961553 Si / 1000 Ang^3
#
#
#
# Elastic Constant Matrix: (Units=GPa)
#
#
# Indices 1 2 3 4 5 6 
#
# 1 77.8028 23.6977 24.9898 0.0000 0.0000 0.0000
# 2 23.6977 127.2128 68.8394 0.0000 0.0000 0.0000
# 3 24.9898 68.8394 171.7513 0.0000 0.0000 0.0000
# 4 0.0000 0.0000 0.0000 35.8939 0.0000 0.0000
# 5 0.0000 0.0000 0.0000 0.0000 26.2244 0.0000
# 6 0.0000 0.0000 0.0000 0.0000 0.0000 21.3096
#
#
#
# Elastic Compliance Matrix: (Units=1/GPa)
#
#
# Indices 1 2 3 4 5 6 
#
# 1 0.013834 -0.001900 -0.001251 0.000000 0.000000 0.000000
# 2 -0.001900 0.010299 -0.003851 0.000000 0.000000 0.000000
# 3 -0.001251 -0.003851 0.007548 0.000000 0.000000 0.000000
# 4 0.000000 0.000000 0.000000 0.027860 0.000000 0.000000
# 5 0.000000 0.000000 0.000000 0.000000 0.038132 0.000000
# 6 0.000000 0.000000 0.000000 0.000000 0.000000 0.046927
#
#
# Mechanical properties :
#
#
# Convention : Reuss Voigt Hill
#
# Bulk Modulus (GPa) = 56.57582 67.98008 62.27795
# Shear Modulus (GPa) = 30.39567 33.96826 32.18197
#
# Velocity S-wave (km/s) = 3.56549 3.76921 3.66876
# Velocity P-wave (km/s) = 6.37280 6.88292 6.63277
#
# Compressibility (1/GPa) = 0.01767540
#
# Stress axis : x y z
#
# Youngs Moduli (GPa) = 72.28784 97.09749 132.48300
#
# Poissons Ratio (x) = 0.18447 0.16578
# Poissons Ratio (y) = 0.13734 0.51025
# Poissons Ratio (z) = 0.09045 0.37397
#
# Static dielectric constant tensor:
#      x y z
#    x 2.015590 0.000000 0.000000 
#    y 0.000000 1.908190 0.000000 
#    z 0.000000 0.000000 2.032310 
# 
# From -- ./inp_files/50840.got.cif
#   From: 2010.05.17/outbox.cif.g08.bks.cpg/sg72_26_cif.got.tgz:50840.got - 2010.06.03 17:03:01.
