data_PCOD9526308
_publ_section_title
;
Structure prediction by ZEFSAII (Michael W. Deem and Ramdas Pophale) SiO2 
 PCOD9526308
Probable space group: I B A M
;
_chemical_formula_sum "Si O2"
_cell_formula_units_Z 64
_cell_length_a 11.114876
_cell_length_b 12.404038
_cell_length_c 21.094232
_cell_angle_alpha 90.000000
_cell_angle_beta 90.000000
_cell_angle_gamma 90.000000
_cell_volume 2908.247934
_symmetry_space_group_name_H-M "I B A M"
_symmetry_group_IT_number 72
_symmetry_cell_setting 'orthorhombic'
loop_
_space_group_symop_operation_xyz
x,y,z
-x,-y,z
x,-y,1/2-z
-x,y,1/2-z
-x,-y,-z
x,y,-z
-x,y,1/2+z
x,-y,1/2+z
1/2+x,1/2+y,1/2+z
1/2-x,1/2-y,1/2+z
1/2+x,1/2-y,-z
1/2-x,1/2+y,-z
1/2-x,1/2-y,1/2-z
1/2+x,1/2+y,1/2-z
1/2-x,1/2+y,z
1/2+x,1/2-y,z
loop_
_atom_site_type_symbol
_atom_site_label
_atom_site_fract_x
_atom_site_fract_y
_atom_site_fract_z
Si Si1 0.949353 0.346286 0.863937
Si Si2 0.241751 0.361775 0.000000
Si Si3 0.058579 0.894306 0.181340
Si Si4 0.520873 0.787956 0.000000
Si Si5 0.305659 0.040101 0.359411
O O1 0.954553 0.220127 0.851705
O O2 0.953384 0.358925 0.939113
O O3 0.832512 0.414447 0.845895
O O4 0.071886 0.399493 0.840179
O O5 0.375476 0.305989 0.000000
O O6 0.226160 0.428070 0.066655
O O7 0.127051 0.275889 0.000000
O O8 0.198469 0.918518 0.183120
O O9 0.000000 0.885398 0.250000
O O10 0.000000 0.000000 0.148673
#
# Coordination Sequence:
#
# PCOD9526308 Si02
#       5
#    16   8  16   8  16
#     4  10  22  43  69 100 138 186 226 275 351 422
#     4  10  19  37  66 105 142 182 230 278 349 424
#     4  11  26  45  65  97 133 174 234 297 339 394
#     4  10  19  35  68 103 142 185 221 278 342 425
#     4  10  22  42  69  99 139 182 227 278 346 425
#
# _framework density 22.006378000000002
#
# number of rings (size 3 to 8) (size 9 to 14) (size 15 to 20)
#    0.000    1.750    2.500    0.750    3.500    4.000 
#    4.500    3.750    0.000    0.000    0.000    0.000 
#    0.000    0.000    0.000    0.000    0.000    0.000 
#
# Total GULP energy -178356.850479 kJ/mol
# GULP energy per Si atom -5573.651577 kJ/mol
# Density = 2.195629 g / cm^3
# Si number density = 22.006378 Si / 1000 Ang^3
#
#
#
# Elastic Constant Matrix: (Units=GPa)
#
#
# Indices 1 2 3 4 5 6 
#
# 1 125.8570 50.4807 45.0963 0.0000 0.0000 0.0000
# 2 50.4807 132.5785 12.2780 0.0000 0.0000 0.0000
# 3 45.0963 12.2780 50.5441 0.0000 0.0000 0.0000
# 4 0.0000 0.0000 0.0000 14.0389 0.0000 0.0000
# 5 0.0000 0.0000 0.0000 0.0000 34.6532 0.0000
# 6 0.0000 0.0000 0.0000 0.0000 0.0000 13.7188
#
#
#
# Elastic Compliance Matrix: (Units=1/GPa)
#
#
# Indices 1 2 3 4 5 6 
#
# 1 0.013593 -0.004146 -0.011121 0.000000 0.000000 0.000000
# 2 -0.004146 0.008981 0.001517 0.000000 0.000000 0.000000
# 3 -0.011121 0.001517 0.029338 0.000000 0.000000 0.000000
# 4 0.000000 0.000000 0.000000 0.071231 0.000000 0.000000
# 5 0.000000 0.000000 0.000000 0.000000 0.028857 0.000000
# 6 0.000000 0.000000 0.000000 0.000000 0.000000 0.072893
#
#
# Mechanical properties :
#
#
# Convention : Reuss Voigt Hill
#
# Bulk Modulus (GPa) = 40.96088 58.29884 49.62986
# Shear Modulus (GPa) = 19.19166 25.89049 22.54108
#
# Velocity S-wave (km/s) = 2.95633 3.43373 3.20394
# Velocity P-wave (km/s) = 5.50516 6.50154 6.02399
#
# Compressibility (1/GPa) = 0.02441354
#
# Stress axis : x y z
#
# Youngs Moduli (GPa) = 73.56617 111.34926 34.08502
#
# Poissons Ratio (x) = 0.46164 0.37906
# Poissons Ratio (y) = 0.30499 -0.05172
# Poissons Ratio (z) = 0.81813 -0.16896
#
# Static dielectric constant tensor:
#      x y z
#    x 1.852380 0.000000 0.000000 
#    y 0.000000 1.846000 0.000000 
#    z 0.000000 0.000000 1.850220 
# 
# From -- ./inp_files/42973.got.cif
#   From: 2010.05.17/outbox.cif.g08.bks.cpg/sg72_22_cif.got.tgz:42973.got - 2010.06.03 17:03:01.
