data_PCOD9526549
_publ_section_title
;
Structure prediction by ZEFSAII (Michael W. Deem and Ramdas Pophale) SiO2 
 PCOD9526549
Probable space group: I B A M
;
_chemical_formula_sum "Si O2"
_cell_formula_units_Z 96
_cell_length_a 29.315118
_cell_length_b 29.733811
_cell_length_c 9.040628
_cell_angle_alpha 90.000000
_cell_angle_beta 90.000000
_cell_angle_gamma 90.000000
_cell_volume 7880.265006
_symmetry_space_group_name_H-M "I B A M"
_symmetry_group_IT_number 72
_symmetry_cell_setting 'orthorhombic'
loop_
_space_group_symop_operation_xyz
x,y,z
-x,-y,z
x,-y,1/2-z
-x,y,1/2-z
-x,-y,-z
x,y,-z
-x,y,1/2+z
x,-y,1/2+z
1/2+x,1/2+y,1/2+z
1/2-x,1/2-y,1/2+z
1/2+x,1/2-y,-z
1/2-x,1/2+y,-z
1/2-x,1/2-y,1/2-z
1/2+x,1/2+y,1/2-z
1/2-x,1/2+y,z
1/2+x,1/2-y,z
loop_
_atom_site_type_symbol
_atom_site_label
_atom_site_fract_x
_atom_site_fract_y
_atom_site_fract_z
Si Si1 0.257763 0.320543 0.830742
Si Si2 0.194328 0.384797 0.668694
Si Si3 0.822269 0.755568 0.170045
Si Si4 0.886156 0.309581 0.169719
Si Si5 0.549781 0.877558 0.677776
Si Si6 0.882936 0.548970 0.320559
O O1 0.234748 0.365565 0.767946
O O2 0.217585 0.282673 0.826399
O O3 0.298832 0.299909 0.735963
O O4 0.271697 0.325800 0.000000
O O5 0.210269 0.389600 0.500000
O O6 0.154820 0.346434 0.668643
O O7 0.166680 0.429228 0.714039
O O8 0.863602 0.735313 0.265037
O O9 0.835533 0.761567 0.000000
O O10 0.924848 0.331833 0.270859
O O11 0.901389 0.304326 0.000000
O O12 0.500000 0.879107 0.750000
O O13 0.548305 0.880922 0.500000
O O14 0.579681 0.918062 0.747770
O O15 0.887144 0.500000 0.250000
O O16 0.887938 0.548778 0.500000
#
# Coordination Sequence:
#
# PCOD9526549 Si02
#       6
#    16  16  16  16  16  16
#     4   9  15  21  32  50  70  91 113 134 157 190
#     4   8  15  26  38  51  69  89 108 133 166 205
#     4   9  15  22  33  50  71  93 113 132 158 193
#     4   9  16  27  40  54  71  89 110 136 167 204
#     4  11  21  33  46  58  71  88 112 143 182 224
#     4  10  20  33  46  59  72  88 112 144 183 224
#
# _framework density 12.182331
#
# number of rings (size 3 to 8) (size 9 to 14) (size 15 to 20)
#    0.000    2.667    0.000    4.500    0.000    9.000 
#    0.000    1.667    0.000    0.000    0.000    0.000 
#    0.000    0.000    0.000    0.000    0.000    0.000 
#
# Total GULP energy -267244.513034 kJ/mol
# GULP energy per Si atom -5567.594022 kJ/mol
# Density = 1.215460 g / cm^3
# Si number density = 12.182331 Si / 1000 Ang^3
#
#
#
# Elastic Constant Matrix: (Units=GPa)
#
#
# Indices 1 2 3 4 5 6 
#
# 1 40.8723 40.4322 36.0203 0.0000 0.0000 0.0000
# 2 40.4322 38.4120 35.3190 0.0000 0.0000 0.0000
# 3 36.0203 35.3190 94.7559 0.0000 0.0000 0.0000
# 4 0.0000 0.0000 0.0000 15.6666 0.0000 0.0000
# 5 0.0000 0.0000 0.0000 0.0000 17.5788 0.0000
# 6 0.0000 0.0000 0.0000 0.0000 0.0000 12.8722
#
#
#
# Elastic Compliance Matrix: (Units=1/GPa)
#
#
# Indices 1 2 3 4 5 6 
#
# 1 -0.585542 0.626332 -0.010870 0.000000 0.000000 0.000000
# 2 0.626332 -0.630356 -0.003136 0.000000 0.000000 0.000000
# 3 -0.010870 -0.003136 0.015854 0.000000 0.000000 0.000000
# 4 0.000000 0.000000 0.000000 0.063830 0.000000 0.000000
# 5 0.000000 0.000000 0.000000 0.000000 0.056887 0.000000
# 6 0.000000 0.000000 0.000000 0.000000 0.000000 0.077687
#
#
# Mechanical properties :
#
#
# Convention : Reuss Voigt Hill
#
# Bulk Modulus (GPa) = 40.63592 44.17591 42.40591
# Shear Modulus (GPa) = -2.25419 13.37478 5.56029
#
# Velocity S-wave (km/s) = -1.36176 3.31703 2.13872
# Velocity P-wave (km/s) = 5.56384 7.14221 6.40186
#
# Compressibility (1/GPa) = 0.02460877
#
# Stress axis : x y z
#
# Youngs Moduli (GPa) = -1.70782 -1.58641 63.07363
#
# Poissons Ratio (x) = 0.99362 0.68561
# Poissons Ratio (y) = 1.06966 0.19781
# Poissons Ratio (z) = -0.01856 -0.00498
#
# Static dielectric constant tensor:
#      x y z
#    x 1.380100 0.000000 0.000000 
#    y 0.000000 1.387040 0.000000 
#    z 0.000000 0.000000 1.410620 
# 
# From -- ./inp_files/8462.got.cif
#   From: 2010.05.17/outbox.cif.g08.bks.cpg/sg72_5_cif.got.tgz:8462.got - 2010.06.03 17:03:01.
