data_PCOD9526546
_publ_section_title
;
Structure prediction by ZEFSAII (Michael W. Deem and Ramdas Pophale) SiO2 
 PCOD9526546
Probable space group: I B A M
;
_chemical_formula_sum "Si O2"
_cell_formula_units_Z 80
_cell_length_a 21.204930
_cell_length_b 9.565693
_cell_length_c 20.511772
_cell_angle_alpha 90.000000
_cell_angle_beta 90.000000
_cell_angle_gamma 90.000000
_cell_volume 4160.604765
_symmetry_space_group_name_H-M "I B A M"
_symmetry_group_IT_number 72
_symmetry_cell_setting 'orthorhombic'
loop_
_space_group_symop_operation_xyz
x,y,z
-x,-y,z
x,-y,1/2-z
-x,y,1/2-z
-x,-y,-z
x,y,-z
-x,y,1/2+z
x,-y,1/2+z
1/2+x,1/2+y,1/2+z
1/2-x,1/2-y,1/2+z
1/2+x,1/2-y,-z
1/2-x,1/2+y,-z
1/2-x,1/2-y,1/2-z
1/2+x,1/2+y,1/2-z
1/2-x,1/2+y,z
1/2+x,1/2-y,z
loop_
_atom_site_type_symbol
_atom_site_label
_atom_site_fract_x
_atom_site_fract_y
_atom_site_fract_z
Si Si1 0.656069 0.468952 0.500000
Si Si2 0.581581 0.186615 0.500000
Si Si3 0.282472 0.834180 0.694049
Si Si4 0.754309 0.076731 0.116117
Si Si5 0.941381 0.221685 0.500000
Si Si6 0.397674 0.057213 0.395248
Si Si7 0.395358 0.000000 0.250000
O O1 0.633662 0.307566 0.500000
O O2 0.702180 0.488275 0.561096
O O3 0.598110 0.578042 0.500000
O O4 0.516781 0.274244 0.500000
O O5 0.585836 0.082199 0.437315
O O6 0.250000 0.750000 0.750000
O O7 0.279958 0.730115 0.632810
O O8 0.243577 0.971962 0.676777
O O9 0.350346 0.878789 0.720753
O O10 0.678862 0.074881 0.103171
O O11 0.922941 0.312564 0.563599
O O12 0.422844 0.052562 0.319948
#
# Coordination Sequence:
#
# PCOD9526546 Si02
#       7
#     8   8  16  16   8  16   8
#     4  12  23  36  58  88 117 148 190 242 288 350
#     4  11  24  43  58  77 114 159 200 248 286 335
#     4  11  18  33  50  81 128 154 174 207 282 368
#     4  11  22  33  57  91 121 148 178 232 295 350
#     4  11  24  41  60  79 110 159 206 240 290 337
#     4  10  20  38  62  88 114 149 193 239 290 344
#     4  10  20  32  59  90 116 152 189 232 290 348
#
# _framework density 19.227974
#
# number of rings (size 3 to 8) (size 9 to 14) (size 15 to 20)
#    0.000    1.200    4.000    6.300    0.000    2.400 
#    0.000    2.000    0.000    0.000    0.000    2.800 
#    0.000    0.000    0.000    0.000    0.000    0.000 
#
# Total GULP energy -222839.337387 kJ/mol
# GULP energy per Si atom -5570.983435 kJ/mol
# Density = 1.918421 g / cm^3
# Si number density = 19.227974 Si / 1000 Ang^3
#
#
#
# Elastic Constant Matrix: (Units=GPa)
#
#
# Indices 1 2 3 4 5 6 
#
# 1 60.9817 5.6621 23.8958 0.0000 0.0000 0.0000
# 2 5.6621 83.6466 30.8768 0.0000 0.0000 0.0000
# 3 23.8958 30.8768 133.0490 0.0000 0.0000 0.0000
# 4 0.0000 0.0000 0.0000 23.6160 0.0000 0.0000
# 5 0.0000 0.0000 0.0000 0.0000 9.9825 0.0000
# 6 0.0000 0.0000 0.0000 0.0000 0.0000 26.1318
#
#
#
# Elastic Compliance Matrix: (Units=1/GPa)
#
#
# Indices 1 2 3 4 5 6 
#
# 1 0.017640 -0.000027 -0.003162 0.000000 0.000000 0.000000
# 2 -0.000027 0.013075 -0.003030 0.000000 0.000000 0.000000
# 3 -0.003162 -0.003030 0.008787 0.000000 0.000000 0.000000
# 4 0.000000 0.000000 0.000000 0.042344 0.000000 0.000000
# 5 0.000000 0.000000 0.000000 0.000000 0.100175 0.000000
# 6 0.000000 0.000000 0.000000 0.000000 0.000000 0.038268
#
#
# Mechanical properties :
#
#
# Convention : Reuss Voigt Hill
#
# Bulk Modulus (GPa) = 36.94760 44.28295 40.61528
# Shear Modulus (GPa) = 20.68274 26.42890 23.55582
#
# Velocity S-wave (km/s) = 3.28328 3.71145 3.50391
# Velocity P-wave (km/s) = 5.79918 6.43793 6.12689
#
# Compressibility (1/GPa) = 0.02706536
#
# Stress axis : x y z
#
# Youngs Moduli (GPa) = 56.68982 76.48073 113.80480
#
# Poissons Ratio (x) = 0.00206 0.35984
# Poissons Ratio (y) = 0.00152 0.34478
# Poissons Ratio (z) = 0.17925 0.23170
#
# Static dielectric constant tensor:
#      x y z
#    x 1.677750 0.000000 0.000000 
#    y 0.000000 1.728270 0.000000 
#    z 0.000000 0.000000 1.916150 
# 
# From -- ./inp_files/45228.got.cif
#   From: 2010.05.17/outbox.cif.g08.bks.cpg/sg72_23_cif.got.tgz:45228.got - 2010.06.03 17:03:01.
