data_PCOD9526248
_publ_section_title
;
Structure prediction by ZEFSAII (Michael W. Deem and Ramdas Pophale) SiO2 
 PCOD9526248
Probable space group: I B A M
;
_chemical_formula_sum "Si O2"
_cell_formula_units_Z 116
_cell_length_a 8.987991
_cell_length_b 25.319414
_cell_length_c 25.991888
_cell_angle_alpha 90.000000
_cell_angle_beta 90.000000
_cell_angle_gamma 90.000000
_cell_volume 5914.991241
_symmetry_space_group_name_H-M "I B A M"
_symmetry_group_IT_number 72
_symmetry_cell_setting 'orthorhombic'
loop_
_space_group_symop_operation_xyz
x,y,z
-x,-y,z
x,-y,1/2-z
-x,y,1/2-z
-x,-y,-z
x,y,-z
-x,y,1/2+z
x,-y,1/2+z
1/2+x,1/2+y,1/2+z
1/2-x,1/2-y,1/2+z
1/2+x,1/2-y,-z
1/2-x,1/2+y,-z
1/2-x,1/2-y,1/2-z
1/2+x,1/2+y,1/2-z
1/2-x,1/2+y,z
1/2+x,1/2-y,z
loop_
_atom_site_type_symbol
_atom_site_label
_atom_site_fract_x
_atom_site_fract_y
_atom_site_fract_z
Si Si1 0.856402 0.766883 0.442659
Si Si2 0.246491 0.579072 0.285656
Si Si3 0.879533 0.227763 0.629155
Si Si4 0.710075 0.119405 0.942615
Si Si5 0.459395 0.152040 0.653024
Si Si6 0.699701 0.375120 0.823365
Si Si7 0.500000 0.000000 0.250000
Si Si8 0.962823 0.940375 0.620467
O O1 0.874356 0.744226 0.500000
O O2 0.777997 0.730350 0.400341
O O3 0.757244 0.819192 0.446105
O O4 0.009309 0.784825 0.417458
O O5 0.164162 0.630647 0.307493
O O6 0.312397 0.593648 0.230179
O O7 0.113414 0.536577 0.281590
O O8 0.370007 0.560472 0.325907
O O9 0.926864 0.285451 0.648924
O O10 0.877057 0.182613 0.672126
O O11 0.580023 0.122028 0.900457
O O12 0.851439 0.087870 0.919709
O O13 0.670832 0.101109 0.000000
O O14 0.624934 0.135704 0.668919
O O15 0.614467 0.408617 0.867184
O O16 0.000000 0.000000 0.605478
#
# Coordination Sequence:
#
# PCOD9526248 Si02
#       8
#    16  16  16  16  16  16   4  16
#     4  10  19  35  57  85 118 158 204 253 309 364
#     4  11  24  40  62  90 121 166 207 262 315 366
#     4  11  21  36  59  87 123 162 203 259 306 381
#     4   9  20  40  62  87 125 163 199 255 317 374
#     4  10  22  40  60  88 123 164 213 251 312 376
#     4  12  22  41  61  90 130 162 213 261 308 380
#     4  12  20  40  70  88 118 160 218 260 306 368
#     4  11  24  41  65  94 124 160 207 268 320 375
#
# _framework density 19.611186
#
# number of rings (size 3 to 8) (size 9 to 14) (size 15 to 20)
#    0.000    1.379    4.138    1.655    0.000    1.931 
#    0.000    2.069    0.000    0.828    0.000    0.000 
#    0.000    0.000    0.000    0.000    0.000    0.000 
#
# Total GULP energy -323503.210793 kJ/mol
# GULP energy per Si atom -5577.641565 kJ/mol
# Density = 1.956655 g / cm^3
# Si number density = 19.611186 Si / 1000 Ang^3
#
#
#
# Elastic Constant Matrix: (Units=GPa)
#
#
# Indices 1 2 3 4 5 6 
#
# 1 35.8788 -11.4017 -12.5349 0.0000 0.0000 0.0000
# 2 -11.4017 50.2082 -2.9609 0.0000 0.0000 0.0000
# 3 -12.5349 -2.9609 52.3755 0.0000 0.0000 0.0000
# 4 0.0000 0.0000 0.0000 15.6353 0.0000 0.0000
# 5 0.0000 0.0000 0.0000 0.0000 6.4972 0.0000
# 6 0.0000 0.0000 0.0000 0.0000 0.0000 0.1067
#
#
#
# Elastic Compliance Matrix: (Units=1/GPa)
#
#
# Indices 1 2 3 4 5 6 
#
# 1 0.033391 0.008081 0.008448 0.000000 0.000000 0.000000
# 2 0.008081 0.021939 0.003174 0.000000 0.000000 0.000000
# 3 0.008448 0.003174 0.021294 0.000000 0.000000 0.000000
# 4 0.000000 0.000000 0.000000 0.063958 0.000000 0.000000
# 5 0.000000 0.000000 0.000000 0.000000 0.153911 0.000001
# 6 0.000000 0.000000 0.000000 0.000000 0.000001 9.371939
#
#
# Mechanical properties :
#
#
# Convention : Reuss Voigt Hill
#
# Bulk Modulus (GPa) = 8.61833 9.40750 9.01291
# Shear Modulus (GPa) = 0.51729 15.47185 7.99457
#
# Velocity S-wave (km/s) = 0.51415 2.81184 2.02123
# Velocity P-wave (km/s) = 2.18096 3.91782 3.17064
#
# Compressibility (1/GPa) = 0.11603182
#
# Stress axis : x y z
#
# Youngs Moduli (GPa) = 29.94804 45.58017 46.96104
#
# Poissons Ratio (x) = -0.36833 -0.39674
# Poissons Ratio (y) = -0.24201 -0.14907
# Poissons Ratio (z) = -0.25301 -0.14468
#
# Static dielectric constant tensor:
#      x y z
#    x 1.726550 0.000000 0.000000 
#    y 0.000000 1.699270 0.000000 
#    z 0.000000 0.000000 1.745490 
# 
# From -- ./inp_files/47614.got.cif
#   From: 2010.05.17/outbox.cif.g08.bks.cpg/sg72_24_cif.got.tgz:47614.got - 2010.06.03 17:03:01.
