data_PCOD9526518
_publ_section_title
;
Structure prediction by ZEFSAII (Michael W. Deem and Ramdas Pophale) SiO2 
 PCOD9526518
Probable space group: I B A M
;
_chemical_formula_sum "Si O2"
_cell_formula_units_Z 64
_cell_length_a 13.812195
_cell_length_b 14.319214
_cell_length_c 11.404752
_cell_angle_alpha 90.000000
_cell_angle_beta 90.000000
_cell_angle_gamma 90.000000
_cell_volume 2255.629296
_symmetry_space_group_name_H-M "I B A M"
_symmetry_group_IT_number 72
_symmetry_cell_setting 'orthorhombic'
loop_
_space_group_symop_operation_xyz
x,y,z
-x,-y,z
x,-y,1/2-z
-x,y,1/2-z
-x,-y,-z
x,y,-z
-x,y,1/2+z
x,-y,1/2+z
1/2+x,1/2+y,1/2+z
1/2-x,1/2-y,1/2+z
1/2+x,1/2-y,-z
1/2-x,1/2+y,-z
1/2-x,1/2-y,1/2-z
1/2+x,1/2+y,1/2-z
1/2-x,1/2+y,z
1/2+x,1/2-y,z
loop_
_atom_site_type_symbol
_atom_site_label
_atom_site_fract_x
_atom_site_fract_y
_atom_site_fract_z
Si Si1 0.006894 0.737341 0.625697
Si Si2 0.372160 0.056032 0.869535
Si Si3 0.230678 0.705171 0.625085
Si Si4 0.161233 0.006864 0.374302
O O1 0.991421 0.786770 0.500000
O O2 0.930622 0.652605 0.632678
O O3 0.000000 0.790569 0.750000
O O4 0.114759 0.695715 0.621702
O O5 0.396281 0.000000 0.750000
O O6 0.255348 0.061325 0.866776
O O7 0.392913 0.013695 0.000000
O O8 0.256054 0.752628 0.500000
O O9 0.250000 0.750000 0.750000
O O10 0.288485 0.608467 0.622035
O O11 0.113437 0.988943 0.500000
O O12 0.109151 0.000000 0.250000
#
# Coordination Sequence:
#
# PCOD9526518 Si02
#       4
#    16  16  16  16
#     4  10  20  32  48  72 100 132 173 218 263 313
#     4   9  17  28  43  68 102 132 160 204 258 306
#     4  10  22  37  49  67 103 150 193 226 260 316
#     4   9  17  29  47  72 100 132 173 218 263 313
#
# _framework density 28.373456999999998
#
# number of rings (size 3 to 8) (size 9 to 14) (size 15 to 20)
#    0.000    2.500    0.000    3.000    0.000    9.500 
#    0.000   12.500    0.000    0.000    0.000    0.000 
#    0.000    1.000    0.000   11.000    0.000    8.500 
#
# Total GULP energy -179034.469352 kJ/mol
# GULP energy per Si atom -5594.827167 kJ/mol
# Density = 2.830888 g / cm^3
# Si number density = 28.373457 Si / 1000 Ang^3
#
#
#
# Elastic Constant Matrix: (Units=GPa)
#
#
# Indices 1 2 3 4 5 6 
#
# 1 138.6122 23.0859 33.4106 0.0000 0.0000 0.0000
# 2 23.0859 91.1053 59.8173 0.0000 0.0000 0.0000
# 3 33.4106 59.8173 437.6363 0.0000 0.0000 0.0000
# 4 0.0000 0.0000 0.0000 36.9484 0.0000 0.0000
# 5 0.0000 0.0000 0.0000 0.0000 6.4384 0.0000
# 6 0.0000 0.0000 0.0000 0.0000 0.0000 28.1219
#
#
#
# Elastic Compliance Matrix: (Units=1/GPa)
#
#
# Indices 1 2 3 4 5 6 
#
# 1 0.007580 -0.001693 -0.000347 0.000000 0.000000 0.000000
# 2 -0.001693 0.012436 -0.001571 0.000000 0.000000 0.000000
# 3 -0.000347 -0.001571 0.002526 0.000000 0.000000 0.000000
# 4 0.000000 0.000000 0.000000 0.027065 0.000000 0.000000
# 5 0.000000 0.000000 0.000000 0.000000 0.155318 0.000000
# 6 0.000000 0.000000 0.000000 0.000000 0.000000 0.035560
#
#
# Mechanical properties :
#
#
# Convention : Reuss Voigt Hill
#
# Bulk Modulus (GPa) = 65.26837 99.99795 82.63316
# Shear Modulus (GPa) = 19.77747 51.03773 35.40760
#
# Velocity S-wave (km/s) = 2.64302 4.24581 3.53641
# Velocity P-wave (km/s) = 5.68923 7.70428 6.77212
#
# Compressibility (1/GPa) = 0.01532136
#
# Stress axis : x y z
#
# Youngs Moduli (GPa) = 131.92594 80.40865 395.85231
#
# Poissons Ratio (x) = 0.13611 0.13749
# Poissons Ratio (y) = 0.22331 0.62173
# Poissons Ratio (z) = 0.04582 0.12629
#
# Static dielectric constant tensor:
#      x y z
#    x 2.134850 0.000000 0.000000 
#    y 0.000000 2.249850 0.000000 
#    z 0.000000 0.000000 2.272160 
# 
# From -- ./inp_files/12385.got.cif
#   From: 2010.05.17/outbox.cif.g08.bks.cpg/sg72_7_cif.got.tgz:12385.got - 2010.06.03 17:03:01.
