data_PCOD9526493
_publ_section_title
;
Structure prediction by ZEFSAII (Michael W. Deem and Ramdas Pophale) SiO2 
 PCOD9526493
Probable space group: I B A M
;
_chemical_formula_sum "Si O2"
_cell_formula_units_Z 120
_cell_length_a 22.881875
_cell_length_b 14.347788
_cell_length_c 20.413549
_cell_angle_alpha 90.000000
_cell_angle_beta 90.000000
_cell_angle_gamma 90.000000
_cell_volume 6701.855742
_symmetry_space_group_name_H-M "I B A M"
_symmetry_group_IT_number 72
_symmetry_cell_setting 'orthorhombic'
loop_
_space_group_symop_operation_xyz
x,y,z
-x,-y,z
x,-y,1/2-z
-x,y,1/2-z
-x,-y,-z
x,y,-z
-x,y,1/2+z
x,-y,1/2+z
1/2+x,1/2+y,1/2+z
1/2-x,1/2-y,1/2+z
1/2+x,1/2-y,-z
1/2-x,1/2+y,-z
1/2-x,1/2-y,1/2-z
1/2+x,1/2+y,1/2-z
1/2-x,1/2+y,z
1/2+x,1/2-y,z
loop_
_atom_site_type_symbol
_atom_site_label
_atom_site_fract_x
_atom_site_fract_y
_atom_site_fract_z
Si Si1 0.411062 0.368330 0.355822
Si Si2 0.813551 0.755874 0.076594
Si Si3 0.333169 0.542801 0.318087
Si Si4 0.185660 0.346864 0.576191
Si Si5 0.730770 0.949274 0.424200
Si Si6 0.500000 0.286460 0.750000
Si Si7 0.400549 0.275492 0.840145
Si Si8 0.515538 0.599678 0.073736
O O1 0.357769 0.298530 0.370499
O O2 0.381645 0.468650 0.343122
O O3 0.458019 0.345676 0.298521
O O4 0.451667 0.355902 0.419996
O O5 0.749557 0.801443 0.086446
O O6 0.805783 0.645141 0.083808
O O7 0.829267 0.775940 0.000000
O O8 0.310287 0.500000 0.250000
O O9 0.284305 0.551047 0.373749
O O10 0.360805 0.644868 0.305809
O O11 0.169478 0.329357 0.500000
O O12 0.193518 0.457179 0.585844
O O13 0.139671 0.299102 0.624252
O O14 0.752417 0.951303 0.500000
O O15 0.451298 0.234761 0.793476
O O16 0.436586 0.337338 0.892297
O O17 0.500000 0.500000 0.105887
O O18 0.534629 0.582571 0.000000
#
# Coordination Sequence:
#
# PCOD9526493 Si02
#       8
#    16  16  16  16  16   8  16  16
#     4  11  21  36  55  79 119 158 197 232 290 349
#     4  10  20  36  61  89 117 150 192 244 301 354
#     4  12  22  34  55  90 120 161 191 233 286 356
#     4  10  20  36  61  89 117 150 192 244 301 354
#     4  10  22  40  60  88 123 157 190 238 300 360
#     4  10  24  39  56  77 112 168 198 239 282 347
#     4  11  21  36  55  79 119 158 197 232 290 349
#     4  10  20  30  49  81 111 144 191 245 293 339
#
# _framework density 17.905488999999999
#
# number of rings (size 3 to 8) (size 9 to 14) (size 15 to 20)
#    0.000    1.467    5.333    0.800    0.000    1.600 
#    2.400    2.000    0.000    4.000    0.000   12.133 
#    0.000    0.000    0.000    0.000    0.000    0.000 
#
# Total GULP energy -334276.870112 kJ/mol
# GULP energy per Si atom -5571.281169 kJ/mol
# Density = 1.786474 g / cm^3
# Si number density = 17.905489 Si / 1000 Ang^3
#
#
#
# Elastic Constant Matrix: (Units=GPa)
#
#
# Indices 1 2 3 4 5 6 
#
# 1 91.2304 35.5769 46.5750 0.0000 0.0000 0.0000
# 2 35.5769 89.8430 25.0263 0.0000 0.0000 0.0000
# 3 46.5750 25.0263 69.7552 0.0000 0.0000 0.0000
# 4 0.0000 0.0000 0.0000 14.9918 0.0000 0.0000
# 5 0.0000 0.0000 0.0000 0.0000 38.7983 0.0000
# 6 0.0000 0.0000 0.0000 0.0000 0.0000 18.2268
#
#
#
# Elastic Compliance Matrix: (Units=1/GPa)
#
#
# Indices 1 2 3 4 5 6 
#
# 1 0.017943 -0.004187 -0.010479 0.000000 0.000000 0.000000
# 2 -0.004187 0.013343 -0.001992 0.000000 0.000000 0.000000
# 3 -0.010479 -0.001992 0.022047 0.000000 0.000000 0.000000
# 4 0.000000 0.000000 0.000000 0.066703 0.000000 0.000000
# 5 0.000000 0.000000 0.000000 0.000000 0.025774 0.000000
# 6 0.000000 0.000000 0.000000 0.000000 0.000000 0.054864
#
#
# Mechanical properties :
#
#
# Convention : Reuss Voigt Hill
#
# Bulk Modulus (GPa) = 49.95129 51.68721 50.81925
# Shear Modulus (GPa) = 20.77597 23.98008 22.37803
#
# Velocity S-wave (km/s) = 3.41003 3.66356 3.53907
# Velocity P-wave (km/s) = 6.59259 6.84287 6.71889
#
# Compressibility (1/GPa) = 0.02001950
#
# Stress axis : x y z
#
# Youngs Moduli (GPa) = 55.73053 74.94453 45.35758
#
# Poissons Ratio (x) = 0.31376 0.47529
# Poissons Ratio (y) = 0.23332 0.09035
# Poissons Ratio (z) = 0.58398 0.14928
#
# Static dielectric constant tensor:
#      x y z
#    x 1.624630 0.000000 0.000000 
#    y 0.000000 1.612600 0.000000 
#    z 0.000000 0.000000 1.680400 
# 
# From -- ./inp_files/45510.got.cif
#   From: 2010.05.17/outbox.cif.g08.bks.cpg/sg72_23_cif.got.tgz:45510.got - 2010.06.03 17:03:01.
