data_PCOD9526058
_publ_section_title
;
Structure prediction by ZEFSAII (Michael W. Deem and Ramdas Pophale) SiO2 
 PCOD9526058
Probable space group: I B A M
;
_chemical_formula_sum "Si O2"
_cell_formula_units_Z 96
_cell_length_a 29.115921
_cell_length_b 20.640252
_cell_length_c 8.652625
_cell_angle_alpha 90.000000
_cell_angle_beta 90.000000
_cell_angle_gamma 90.000000
_cell_volume 5199.881058
_symmetry_space_group_name_H-M "I B A M"
_symmetry_group_IT_number 72
_symmetry_cell_setting 'orthorhombic'
loop_
_space_group_symop_operation_xyz
x,y,z
-x,-y,z
x,-y,1/2-z
-x,y,1/2-z
-x,-y,-z
x,y,-z
-x,y,1/2+z
x,-y,1/2+z
1/2+x,1/2+y,1/2+z
1/2-x,1/2-y,1/2+z
1/2+x,1/2-y,-z
1/2-x,1/2+y,-z
1/2-x,1/2-y,1/2-z
1/2+x,1/2+y,1/2-z
1/2-x,1/2+y,z
1/2+x,1/2-y,z
loop_
_atom_site_type_symbol
_atom_site_label
_atom_site_fract_x
_atom_site_fract_y
_atom_site_fract_z
Si Si1 0.787147 0.834897 0.683560
Si Si2 0.127884 0.072633 0.314854
Si Si3 0.408432 0.805323 0.680203
Si Si4 0.051680 0.171054 0.814748
Si Si5 0.812345 0.699070 0.178204
Si Si6 0.948845 0.564751 0.817140
O O1 0.793250 0.818045 0.500000
O O2 0.823450 0.891379 0.718479
O O3 0.797889 0.773395 0.790734
O O4 0.732571 0.845404 0.703188
O O5 0.122422 0.071330 0.500000
O O6 0.086723 0.115741 0.244239
O O7 0.127428 0.000000 0.250000
O O8 0.420417 0.805181 0.500000
O O9 0.428070 0.739594 0.754989
O O10 0.354065 0.810343 0.706302
O O11 0.427672 0.868334 0.763242
O O12 0.000000 0.162370 0.750000
O O13 0.050352 0.171041 0.000000
O O14 0.827512 0.691608 0.000000
O O15 0.925405 0.500000 0.750000
O O16 0.000000 0.565564 0.750000
O O17 0.950089 0.560072 0.000000
#
# Coordination Sequence:
#
# PCOD9526058 Si02
#       6
#    16  16  16  16  16  16
#     4   9  19  36  58  85 118 153 194 242 293 352
#     4  11  23  41  63  89 122 162 204 253 307 368
#     4  12  23  38  59  89 124 161 200 249 301 356
#     4  12  25  42  63  90 120 157 203 258 311 367
#     4  10  19  33  58  89 118 152 195 243 292 350
#     4  11  22  39  60  85 116 155 198 242 293 357
#
# _framework density 18.461962
#
# number of rings (size 3 to 8) (size 9 to 14) (size 15 to 20)
#    0.000    1.167    1.667    6.500    0.000    1.667 
#    0.000    2.500    0.000    2.000    0.000    0.000 
#    0.000    0.000    0.000    0.000    0.000    0.000 
#
# Total GULP energy -268027.653335 kJ/mol
# GULP energy per Si atom -5583.909444 kJ/mol
# Density = 1.841994 g / cm^3
# Si number density = 18.461962 Si / 1000 Ang^3
#
#
#
# Elastic Constant Matrix: (Units=GPa)
#
#
# Indices 1 2 3 4 5 6 
#
# 1 104.2245 67.8004 42.1050 0.0000 0.0000 0.0000
# 2 67.8004 143.8635 58.4315 0.0000 0.0000 0.0000
# 3 42.1050 58.4315 137.8251 0.0000 0.0000 0.0000
# 4 0.0000 0.0000 0.0000 30.6188 0.0000 0.0000
# 5 0.0000 0.0000 0.0000 0.0000 23.6687 0.0000
# 6 0.0000 0.0000 0.0000 0.0000 0.0000 -85.4420
#
#
#
# Elastic Compliance Matrix: (Units=1/GPa)
#
#
# Indices 1 2 3 4 5 6 
#
# 1 0.014202 -0.005957 -0.001813 0.000000 0.000000 0.000000
# 2 -0.005957 0.010895 -0.002799 0.000000 0.000000 0.000000
# 3 -0.001813 -0.002799 0.008996 0.000000 0.000000 0.000000
# 4 0.000000 0.000000 0.000000 0.032660 0.000000 0.000000
# 5 0.000000 0.000000 0.000000 0.000000 0.042250 0.000000
# 6 0.000000 0.000000 0.000000 0.000000 0.000000 -0.011704
#
#
# Mechanical properties :
#
#
# Convention : Reuss Voigt Hill
#
# Bulk Modulus (GPa) = 77.19025 80.28746 78.73886
# Shear Modulus (GPa) = 40.73093 8.27418 24.50256
#
# Velocity S-wave (km/s) = 4.70212 2.11931 3.64702
# Velocity P-wave (km/s) = 8.44874 7.04067 7.77664
#
# Compressibility (1/GPa) = 0.01295500
#
# Stress axis : x y z
#
# Youngs Moduli (GPa) = 70.41145 91.78237 111.15636
#
# Poissons Ratio (x) = 0.54673 0.20156
# Poissons Ratio (y) = 0.41942 0.31117
# Poissons Ratio (z) = 0.12768 0.25693
#
# Static dielectric constant tensor:
#      x y z
#    x 1.678940 0.000000 0.000000 
#    y 0.000000 1.674760 0.000000 
#    z 0.000000 0.000000 1.621550 
# 
# From -- ./inp_files/8064.got.cif
#   From: 2010.05.17/outbox.cif.g08.bks.cpg/sg72_5_cif.got.tgz:8064.got - 2010.06.03 17:03:01.
