data_PCOD9526344
_publ_section_title
;
Structure prediction by ZEFSAII (Michael W. Deem and Ramdas Pophale) SiO2 
 PCOD9526344
Probable space group: I B A M
;
_chemical_formula_sum "Si O2"
_cell_formula_units_Z 116
_cell_length_a 22.518750
_cell_length_b 18.876958
_cell_length_c 14.405888
_cell_angle_alpha 90.000000
_cell_angle_beta 90.000000
_cell_angle_gamma 90.000000
_cell_volume 6123.734074
_symmetry_space_group_name_H-M "I B A M"
_symmetry_group_IT_number 72
_symmetry_cell_setting 'orthorhombic'
loop_
_space_group_symop_operation_xyz
x,y,z
-x,-y,z
x,-y,1/2-z
-x,y,1/2-z
-x,-y,-z
x,y,-z
-x,y,1/2+z
x,-y,1/2+z
1/2+x,1/2+y,1/2+z
1/2-x,1/2-y,1/2+z
1/2+x,1/2-y,-z
1/2-x,1/2+y,-z
1/2-x,1/2-y,1/2-z
1/2+x,1/2+y,1/2-z
1/2-x,1/2+y,z
1/2+x,1/2-y,z
loop_
_atom_site_type_symbol
_atom_site_label
_atom_site_fract_x
_atom_site_fract_y
_atom_site_fract_z
Si Si1 0.308611 0.138906 0.606129
Si Si2 0.580368 0.050682 0.113048
Si Si3 0.811600 0.776845 0.200285
Si Si4 0.937332 0.753032 0.694215
Si Si5 0.423804 0.597617 0.391129
Si Si6 0.302278 0.419539 0.782175
Si Si7 0.500000 0.500000 0.250000
Si Si8 0.449289 0.900037 0.388092
O O1 0.300315 0.118234 0.500000
O O2 0.368906 0.103846 0.642660
O O3 0.312419 0.223847 0.613788
O O4 0.255985 0.106096 0.665113
O O5 0.516494 0.080575 0.140915
O O6 0.587984 0.969063 0.142494
O O7 0.579524 0.050035 0.000000
O O8 0.750000 0.750000 0.250000
O O9 0.875056 0.762939 0.250656
O O10 0.809282 0.862120 0.198582
O O11 0.940327 0.819913 0.624504
O O12 0.932424 0.676196 0.648341
O O13 0.000000 0.754758 0.750000
O O14 0.430180 0.578709 0.500000
O O15 0.356739 0.588994 0.353814
O O16 0.461892 0.549680 0.319478
O O17 0.299187 0.500000 0.750000
O O18 0.447690 0.897774 0.500000
#
# Coordination Sequence:
#
# PCOD9526344 Si02
#       8
#    16  16  16  16  16  16   4  16
#     4  10  19  36  59  84 114 157 206 244 295 371
#     4   8  16  30  50  78 116 150 190 244 290 340
#     4   9  21  38  55  79 115 156 185 240 311 349
#     4  11  21  35  57  85 117 151 201 254 293 360
#     4  11  23  41  64  88 118 159 194 245 319 377
#     4  10  21  39  62  84 119 153 198 258 305 361
#     4  12  22  44  64  90 124 142 190 254 312 378
#     4   9  17  32  52  78 113 155 194 242 294 347
#
# _framework density 18.942689999999999
#
# number of rings (size 3 to 8) (size 9 to 14) (size 15 to 20)
#    0.000    2.207    1.379    2.690    0.000    2.207 
#    0.000    6.897    0.000    0.000    0.000    0.000 
#    0.000    0.000    0.000    0.000    0.000    0.000 
#
# Total GULP energy -323154.935403 kJ/mol
# GULP energy per Si atom -5571.636817 kJ/mol
# Density = 1.889958 g / cm^3
# Si number density = 18.942690 Si / 1000 Ang^3
#
#
#
# Elastic Constant Matrix: (Units=GPa)
#
#
# Indices 1 2 3 4 5 6 
#
# 1 72.5660 25.2248 20.9287 0.0000 0.0000 0.0000
# 2 25.2248 176.0905 41.0092 0.0000 0.0000 0.0000
# 3 20.9287 41.0092 69.4840 0.0000 0.0000 0.0000
# 4 0.0000 0.0000 0.0000 30.8506 0.0000 0.0000
# 5 0.0000 0.0000 0.0000 0.0000 15.8539 0.0000
# 6 0.0000 0.0000 0.0000 0.0000 0.0000 26.7250
#
#
#
# Elastic Compliance Matrix: (Units=1/GPa)
#
#
# Indices 1 2 3 4 5 6 
#
# 1 0.015344 -0.001300 -0.003854 0.000000 0.000000 0.000000
# 2 -0.001300 0.006694 -0.003559 0.000000 0.000000 0.000000
# 3 -0.003854 -0.003559 0.017653 0.000000 0.000000 0.000000
# 4 0.000000 0.000000 0.000000 0.032414 0.000000 0.000000
# 5 0.000000 0.000000 0.000000 0.000000 0.063076 0.000000
# 6 0.000000 0.000000 0.000000 0.000000 0.000000 0.037418
#
#
# Mechanical properties :
#
#
# Convention : Reuss Voigt Hill
#
# Bulk Modulus (GPa) = 44.91549 54.71844 49.81697
# Shear Modulus (GPa) = 25.32302 30.08442 27.70372
#
# Velocity S-wave (km/s) = 3.66023 3.98952 3.82842
# Velocity P-wave (km/s) = 6.45180 7.08313 6.77482
#
# Compressibility (1/GPa) = 0.02226403
#
# Stress axis : x y z
#
# Youngs Moduli (GPa) = 65.17127 149.38627 56.64683
#
# Poissons Ratio (x) = 0.19427 0.21833
# Poissons Ratio (y) = 0.08475 0.20161
# Poissons Ratio (z) = 0.25118 0.53168
#
# Static dielectric constant tensor:
#      x y z
#    x 2.200160 0.000000 0.000000 
#    y 0.000000 1.664620 0.000000 
#    z 0.000000 0.000000 1.668070 
# 
# From -- ./inp_files/25387.got.cif
#   From: 2010.05.17/outbox.cif.g08.bks.cpg/sg72_13_cif.got.tgz:25387.got - 2010.06.03 17:03:01.
