data_PCOD9526984
_publ_section_title
;
Structure prediction by ZEFSAII (Michael W. Deem and Ramdas Pophale) SiO2 
 PCOD9526984
Probable space group: I B A M
;
_chemical_formula_sum "Si O2"
_cell_formula_units_Z 104
_cell_length_a 27.891806
_cell_length_b 8.146956
_cell_length_c 22.845063
_cell_angle_alpha 90.000000
_cell_angle_beta 90.000000
_cell_angle_gamma 90.000000
_cell_volume 5191.159425
_symmetry_space_group_name_H-M "I B A M"
_symmetry_group_IT_number 72
_symmetry_cell_setting 'orthorhombic'
loop_
_space_group_symop_operation_xyz
x,y,z
-x,-y,z
x,-y,1/2-z
-x,y,1/2-z
-x,-y,-z
x,y,-z
-x,y,1/2+z
x,-y,1/2+z
1/2+x,1/2+y,1/2+z
1/2-x,1/2-y,1/2+z
1/2+x,1/2-y,-z
1/2-x,1/2+y,-z
1/2-x,1/2-y,1/2-z
1/2+x,1/2+y,1/2-z
1/2-x,1/2+y,z
1/2+x,1/2-y,z
loop_
_atom_site_type_symbol
_atom_site_label
_atom_site_fract_x
_atom_site_fract_y
_atom_site_fract_z
Si Si1 0.618381 0.829359 0.360876
Si Si2 0.775536 0.720352 0.333729
Si Si3 0.838412 0.376698 0.069851
Si Si4 0.928132 0.849347 0.569738
Si Si5 0.820794 0.064088 0.312787
Si Si6 0.533925 0.275682 0.069792
Si Si7 0.342737 0.000000 0.750000
O O1 0.639968 0.645752 0.354120
O O2 0.565830 0.831565 0.387487
O O3 0.625137 0.899386 0.295704
O O4 0.647429 0.945004 0.405400
O O5 0.788000 0.662022 0.399063
O O6 0.721596 0.699537 0.311517
O O7 0.809795 0.615337 0.290825
O O8 0.791594 0.907510 0.334153
O O9 0.879962 0.244822 0.091499
O O10 0.836057 0.373882 0.000000
O O11 0.923320 0.835339 0.500000
O O12 0.978114 0.761697 0.585915
O O13 0.943807 0.040176 0.578342
O O14 0.839746 0.000000 0.250000
O O15 0.538929 0.238661 0.000000
#
# Coordination Sequence:
#
# PCOD9526984 Si02
#       7
#    16  16  16  16  16  16   8
#     4  11  22  34  56  84 112 147 193 236 284 330
#     4  11  21  37  60  84 111 142 192 233 286 334
#     4  10  21  37  56  85 121 152 183 230 289 348
#     4   8  16  33  58  84 114 148 188 230 277 341
#     4  12  22  38  61  86 108 147 198 244 280 332
#     4   9  17  33  58  89 114 143 187 235 286 344
#     4  10  20  36  52  81 104 144 184 237 272 332
#
# _framework density 20.034058999999999
#
# number of rings (size 3 to 8) (size 9 to 14) (size 15 to 20)
#    0.000    1.846    2.308    4.615    0.000    0.615 
#    0.000    6.923    0.000    7.385    0.000    0.000 
#    0.000    0.000    0.000    0.000    0.000    0.000 
#
# Total GULP energy -289681.862204 kJ/mol
# GULP energy per Si atom -5570.805042 kJ/mol
# Density = 1.998846 g / cm^3
# Si number density = 20.034059 Si / 1000 Ang^3
#
#
#
# Elastic Constant Matrix: (Units=GPa)
#
#
# Indices 1 2 3 4 5 6 
#
# 1 58.1397 -2.4618 22.6013 0.0000 0.0000 0.0000
# 2 -2.4618 46.4474 13.7740 0.0000 0.0000 0.0000
# 3 22.6013 13.7740 81.1350 0.0000 0.0000 0.0000
# 4 0.0000 0.0000 0.0000 28.2653 0.0000 0.0000
# 5 0.0000 0.0000 0.0000 0.0000 27.4155 0.0000
# 6 0.0000 0.0000 0.0000 0.0000 0.0000 27.0031
#
#
#
# Elastic Compliance Matrix: (Units=1/GPa)
#
#
# Indices 1 2 3 4 5 6 
#
# 1 0.019629 0.002803 -0.005944 0.000000 0.000000 0.000000
# 2 0.002803 0.023071 -0.004698 0.000000 0.000000 0.000000
# 3 -0.005944 -0.004698 0.014778 0.000000 0.000000 0.000000
# 4 0.000000 0.000000 0.000000 0.035379 0.000000 0.000000
# 5 0.000000 0.000000 0.000000 0.000000 0.036476 0.000000
# 6 0.000000 0.000000 0.000000 0.000000 0.000000 0.037033
#
#
# Mechanical properties :
#
#
# Convention : Reuss Voigt Hill
#
# Bulk Modulus (GPa) = 23.92220 28.17214 26.04717
# Shear Modulus (GPa) = 25.51312 26.65733 26.08523
#
# Velocity S-wave (km/s) = 3.57247 3.65170 3.61230
# Velocity P-wave (km/s) = 5.38362 5.64557 5.51615
#
# Compressibility (1/GPa) = 0.04180217
#
# Stress axis : x y z
#
# Youngs Moduli (GPa) = 50.94430 43.34379 67.66636
#
# Poissons Ratio (x) = -0.12149 0.40220
# Poissons Ratio (y) = -0.14280 0.31787
# Poissons Ratio (z) = 0.30281 0.20361
#
# Static dielectric constant tensor:
#      x y z
#    x 1.727140 0.000000 0.000000 
#    y 0.000000 1.852560 0.000000 
#    z 0.000000 0.000000 1.687850 
# 
# From -- ./inp_files/45965.got.cif
#   From: 2010.05.17/outbox.cif.g08.bks.cpg/sg72_23_cif.got.tgz:45965.got - 2010.06.03 17:03:01.
