data_PCOD9526523
_publ_section_title
;
Structure prediction by ZEFSAII (Michael W. Deem and Ramdas Pophale) SiO2 
 PCOD9526523
Probable space group: I B A M
;
_chemical_formula_sum "Si O2"
_cell_formula_units_Z 80
_cell_length_a 19.092323
_cell_length_b 27.384289
_cell_length_c 8.774642
_cell_angle_alpha 90.000000
_cell_angle_beta 90.000000
_cell_angle_gamma 90.000000
_cell_volume 4587.643363
_symmetry_space_group_name_H-M "I B A M"
_symmetry_group_IT_number 72
_symmetry_cell_setting 'orthorhombic'
loop_
_space_group_symop_operation_xyz
x,y,z
-x,-y,z
x,-y,1/2-z
-x,y,1/2-z
-x,-y,-z
x,y,-z
-x,y,1/2+z
x,-y,1/2+z
1/2+x,1/2+y,1/2+z
1/2-x,1/2-y,1/2+z
1/2+x,1/2-y,-z
1/2-x,1/2+y,-z
1/2-x,1/2-y,1/2-z
1/2+x,1/2+y,1/2-z
1/2-x,1/2+y,z
1/2+x,1/2-y,z
loop_
_atom_site_type_symbol
_atom_site_label
_atom_site_fract_x
_atom_site_fract_y
_atom_site_fract_z
Si Si1 0.220090 0.299885 0.683397
Si Si2 0.280086 0.601425 0.317079
Si Si3 0.074947 0.346732 0.317236
Si Si4 0.927780 0.945736 0.317803
Si Si5 0.645690 0.948361 0.816938
O O1 0.223866 0.299629 0.500000
O O2 0.250000 0.250000 0.750000
O O3 0.263095 0.345791 0.748095
O O4 0.139198 0.311355 0.727227
O O5 0.272082 0.602168 0.500000
O O6 0.358465 0.584532 0.279894
O O7 0.222722 0.564598 0.247103
O O8 0.070693 0.346102 0.500000
O O9 0.097778 0.401938 0.272104
O O10 0.000000 0.333847 0.250000
O O11 0.933820 0.949069 0.500000
O O12 0.000000 0.925118 0.250000
O O13 0.919703 0.000000 0.250000
O O14 0.621883 0.000000 0.750000
O O15 0.648280 0.950616 0.000000
#
# Coordination Sequence:
#
# PCOD9526523 Si02
#       5
#    16  16  16  16  16
#     4  10  21  38  59  82 105 133 171 215 260 310
#     4  10  20  34  53  77 103 135 174 217 262 311
#     4   9  20  36  54  78 107 137 172 211 255 306
#     4  10  20  32  49  73 103 138 175 213 257 309
#     4  10  20  33  50  76 107 141 179 216 254 304
#
# _framework density 17.438148000000002
#
# number of rings (size 3 to 8) (size 9 to 14) (size 15 to 20)
#    0.000    2.200    0.000    4.800    0.000   10.000 
#    0.000    3.000    0.000    0.000    0.000    0.000 
#    0.000    0.000    0.000    0.000    0.000    0.000 
#
# Total GULP energy -223252.828191 kJ/mol
# GULP energy per Si atom -5581.320705 kJ/mol
# Density = 1.739846 g / cm^3
# Si number density = 17.438148 Si / 1000 Ang^3
#
#
#
# Elastic Constant Matrix: (Units=GPa)
#
#
# Indices 1 2 3 4 5 6 
#
# 1 150.0485 56.9287 46.7824 0.0000 0.0000 0.0000
# 2 56.9287 97.8151 30.5695 0.0000 0.0000 0.0000
# 3 46.7824 30.5695 52.5812 0.0000 0.0000 0.0000
# 4 0.0000 0.0000 0.0000 25.6235 0.0000 0.0000
# 5 0.0000 0.0000 0.0000 0.0000 31.2280 0.0000
# 6 0.0000 0.0000 0.0000 0.0000 0.0000 9.6538
#
#
#
# Elastic Compliance Matrix: (Units=1/GPa)
#
#
# Indices 1 2 3 4 5 6 
#
# 1 0.010269 -0.003814 -0.006919 0.000000 0.000000 0.000000
# 2 -0.003814 0.013910 -0.004693 0.000000 0.000000 0.000000
# 3 -0.006919 -0.004693 0.027903 0.000000 0.000000 0.000000
# 4 0.000000 0.000000 0.000000 0.039027 0.000000 0.000000
# 5 0.000000 0.000000 0.000000 0.000000 0.032023 0.000000
# 6 0.000000 0.000000 0.000000 0.000000 0.000000 0.103586
#
#
# Mechanical properties :
#
#
# Convention : Reuss Voigt Hill
#
# Bulk Modulus (GPa) = 47.10633 63.22290 55.16461
# Shear Modulus (GPa) = 18.89319 24.37868 21.63594
#
# Velocity S-wave (km/s) = 3.29514 3.74305 3.52621
# Velocity P-wave (km/s) = 6.44587 7.41720 6.94853
#
# Compressibility (1/GPa) = 0.02122857
#
# Stress axis : x y z
#
# Youngs Moduli (GPa) = 97.38253 71.89051 35.83889
#
# Poissons Ratio (x) = 0.27420 0.24796
# Poissons Ratio (y) = 0.37143 0.16821
# Poissons Ratio (z) = 0.67377 0.33741
#
# Static dielectric constant tensor:
#      x y z
#    x 1.593100 0.000000 0.000000 
#    y 0.000000 1.575510 0.000000 
#    z 0.000000 0.000000 1.583920 
# 
# From -- ./inp_files/4798.got.cif
#   From: 2010.05.17/outbox.cif.g08.bks.cpg/sg72_3_cif.got.tgz:4798.got - 2010.06.03 17:03:01.
