data_PCOD9526360
_publ_section_title
;
Structure prediction by ZEFSAII (Michael W. Deem and Ramdas Pophale) SiO2 
 PCOD9526360
Probable space group: I B A M
;
_chemical_formula_sum "Si O2"
_cell_formula_units_Z 104
_cell_length_a 9.889061
_cell_length_b 20.075107
_cell_length_c 25.223873
_cell_angle_alpha 90.000000
_cell_angle_beta 90.000000
_cell_angle_gamma 90.000000
_cell_volume 5007.543097
_symmetry_space_group_name_H-M "I B A M"
_symmetry_group_IT_number 72
_symmetry_cell_setting 'orthorhombic'
loop_
_space_group_symop_operation_xyz
x,y,z
-x,-y,z
x,-y,1/2-z
-x,y,1/2-z
-x,-y,-z
x,y,-z
-x,y,1/2+z
x,-y,1/2+z
1/2+x,1/2+y,1/2+z
1/2-x,1/2-y,1/2+z
1/2+x,1/2-y,-z
1/2-x,1/2+y,-z
1/2-x,1/2-y,1/2-z
1/2+x,1/2+y,1/2-z
1/2-x,1/2+y,z
1/2+x,1/2-y,z
loop_
_atom_site_type_symbol
_atom_site_label
_atom_site_fract_x
_atom_site_fract_y
_atom_site_fract_z
Si Si1 0.919733 0.345553 0.881507
Si Si2 0.000000 0.000000 0.897527
Si Si3 0.150256 0.889195 0.841410
Si Si4 0.837669 0.376533 0.439385
Si Si5 0.425977 0.064907 0.694138
Si Si6 0.793240 0.469757 0.060518
Si Si7 0.377678 0.748213 0.711391
O O1 0.829014 0.407447 0.901592
O O2 0.854517 0.289633 0.843736
O O3 0.025838 0.333463 0.929535
O O4 0.028284 0.373992 0.840237
O O5 0.865188 0.986337 0.931076
O O6 0.032679 0.937279 0.860561
O O7 0.223133 0.862840 0.895523
O O8 0.264419 0.932659 0.809532
O O9 0.101797 0.827546 0.807242
O O10 0.792134 0.368473 0.500000
O O11 0.863680 0.457141 0.431814
O O12 0.500000 0.071848 0.750000
O O13 0.500000 0.000000 0.671492
O O14 0.821366 0.449756 0.000000
O O15 0.500000 0.769880 0.750000
O O16 0.250000 0.750000 0.750000
#
# Coordination Sequence:
#
# PCOD9526360 Si02
#       7
#    16   8  16  16  16  16  16
#     4  11  20  35  62  88 122 160 220 264 309 381
#     4  10  21  38  61  90 134 164 208 255 329 402
#     4  10  22  41  62  92 125 170 212 265 326 392
#     4   9  18  37  65  96 130 164 205 263 328 385
#     4  10  19  36  61  89 118 151 204 271 330 371
#     4  10  20  35  62  96 130 168 207 258 325 392
#     4  12  27  46  67  87 127 183 231 277 333 396
#
# _framework density 20.768668000000002
#
# number of rings (size 3 to 8) (size 9 to 14) (size 15 to 20)
#    0.000    1.692    0.000    7.154    2.154    1.846 
#    5.538    1.538    0.000    0.000    0.000    0.000 
#    0.000    0.000    0.000    0.000    0.000    0.000 
#
# Total GULP energy -289528.474751 kJ/mol
# GULP energy per Si atom -5567.855284 kJ/mol
# Density = 2.072140 g / cm^3
# Si number density = 20.768668 Si / 1000 Ang^3
#
#
#
# Elastic Constant Matrix: (Units=GPa)
#
#
# Indices 1 2 3 4 5 6 
#
# 1 59.0169 9.8280 26.1023 0.0000 0.0000 0.0000
# 2 9.8280 76.0478 35.6661 0.0000 0.0000 0.0000
# 3 26.1023 35.6661 118.4858 0.0000 0.0000 0.0000
# 4 0.0000 0.0000 0.0000 40.0903 0.0000 0.0000
# 5 0.0000 0.0000 0.0000 0.0000 25.3537 0.0000
# 6 0.0000 0.0000 0.0000 0.0000 0.0000 18.2115
#
#
#
# Elastic Compliance Matrix: (Units=1/GPa)
#
#
# Indices 1 2 3 4 5 6 
#
# 1 0.018794 -0.000567 -0.003970 0.000000 0.000000 0.000000
# 2 -0.000567 0.015328 -0.004489 0.000000 0.000000 0.000000
# 3 -0.003970 -0.004489 0.010666 0.000000 0.000000 0.000000
# 4 0.000000 0.000000 0.000000 0.024944 0.000000 0.000000
# 5 0.000000 0.000000 0.000000 0.000000 0.039442 0.000000
# 6 0.000000 0.000000 0.000000 0.000000 0.000000 0.054910
#
#
# Mechanical properties :
#
#
# Convention : Reuss Voigt Hill
#
# Bulk Modulus (GPa) = 37.40201 44.08260 40.74231
# Shear Modulus (GPa) = 26.17136 28.86137 27.51636
#
# Velocity S-wave (km/s) = 3.55369 3.73186 3.64386
# Velocity P-wave (km/s) = 5.90646 6.31194 6.11256
#
# Compressibility (1/GPa) = 0.02673653
#
# Stress axis : x y z
#
# Youngs Moduli (GPa) = 53.20714 65.23881 93.75892
#
# Poissons Ratio (x) = 0.03700 0.37219
# Poissons Ratio (y) = 0.03018 0.42090
# Poissons Ratio (z) = 0.21122 0.29287
#
# Static dielectric constant tensor:
#      x y z
#    x 1.809870 0.000000 0.000000 
#    y 0.000000 1.792250 0.000000 
#    z 0.000000 0.000000 1.769250 
# 
# From -- ./inp_files/50909.got.cif
#   From: 2010.05.17/outbox.cif.g08.bks.cpg/sg72_26_cif.got.tgz:50909.got - 2010.06.03 17:03:01.
