data_PCOD9526355
_publ_section_title
;
Structure prediction by ZEFSAII (Michael W. Deem and Ramdas Pophale) SiO2 
 PCOD9526355
Probable space group: I B A M
;
_chemical_formula_sum "Si O2"
_cell_formula_units_Z 116
_cell_length_a 28.769089
_cell_length_b 21.237103
_cell_length_c 9.098370
_cell_angle_alpha 90.000000
_cell_angle_beta 90.000000
_cell_angle_gamma 90.000000
_cell_volume 5558.850283
_symmetry_space_group_name_H-M "I B A M"
_symmetry_group_IT_number 72
_symmetry_cell_setting 'orthorhombic'
loop_
_space_group_symop_operation_xyz
x,y,z
-x,-y,z
x,-y,1/2-z
-x,y,1/2-z
-x,-y,-z
x,y,-z
-x,y,1/2+z
x,-y,1/2+z
1/2+x,1/2+y,1/2+z
1/2-x,1/2-y,1/2+z
1/2+x,1/2-y,-z
1/2-x,1/2+y,-z
1/2-x,1/2-y,1/2-z
1/2+x,1/2+y,1/2-z
1/2-x,1/2+y,z
1/2+x,1/2-y,z
loop_
_atom_site_type_symbol
_atom_site_label
_atom_site_fract_x
_atom_site_fract_y
_atom_site_fract_z
Si Si1 0.089496 0.579674 0.160026
Si Si2 0.806727 0.750733 0.166675
Si Si3 0.864528 0.065171 0.824214
Si Si4 0.406246 0.678577 0.167623
Si Si5 0.728992 0.617882 0.678422
Si Si6 0.955931 0.288567 0.832982
Si Si7 0.500000 0.000000 0.750000
Si Si8 0.178284 0.606193 0.675336
O O1 0.079953 0.654267 0.163403
O O2 0.130468 0.572225 0.278130
O O3 0.039106 0.545545 0.175622
O O4 0.108134 0.561829 0.000000
O O5 0.855873 0.787748 0.162401
O O6 0.773937 0.807462 0.229055
O O7 0.821326 0.681115 0.219342
O O8 0.789521 0.741137 0.000000
O O9 0.900036 0.118770 0.771432
O O10 0.815013 0.084459 0.752306
O O11 0.878379 0.000000 0.750000
O O12 0.860959 0.061584 0.000000
O O13 0.581199 0.662241 0.500000
O O14 0.439669 0.729389 0.239664
O O15 0.726160 0.616536 0.500000
O O16 0.775717 0.585471 0.737352
O O17 0.000000 0.315789 0.750000
O O18 0.966399 0.270522 0.000000
O O19 0.183902 0.601369 0.500000
#
# Coordination Sequence:
#
# PCOD9526355 Si02
#       8
#    16  16  16  16  16  16   4  16
#     4  11  25  43  66  92 119 157 207 264 323 385
#     4   8  16  30  53  84 120 160 198 244 304 366
#     4  11  22  39  62  90 123 167 213 256 303 363
#     4  10  19  36  60  91 125 161 204 255 308 370
#     4  10  20  36  56  85 124 166 209 257 307 368
#     4  11  22  38  62  94 125 158 198 253 317 376
#     4  12  26  52  72  90 118 164 222 278 330 400
#     4  11  21  36  58  88 123 162 205 255 315 378
#
# _framework density 20.867623999999999
#
# number of rings (size 3 to 8) (size 9 to 14) (size 15 to 20)
#    0.000    1.655    2.069    4.345    0.000    1.655 
#    1.241    1.379    0.000    0.414    0.000    2.897 
#    0.000    0.000    0.000    0.000    0.000    0.000 
#
# Total GULP energy -323227.459772 kJ/mol
# GULP energy per Si atom -5572.887237 kJ/mol
# Density = 2.082013 g / cm^3
# Si number density = 20.867624 Si / 1000 Ang^3
#
#
#
# Elastic Constant Matrix: (Units=GPa)
#
#
# Indices 1 2 3 4 5 6 
#
# 1 50.3475 -0.9758 30.8574 0.0000 0.0000 0.0000
# 2 -0.9758 80.7551 25.9024 0.0000 0.0000 0.0000
# 3 30.8574 25.9024 132.0995 0.0000 0.0000 0.0000
# 4 0.0000 0.0000 0.0000 13.9167 0.0000 0.0000
# 5 0.0000 0.0000 0.0000 0.0000 31.0380 0.0000
# 6 0.0000 0.0000 0.0000 0.0000 0.0000 3.9804
#
#
#
# Elastic Compliance Matrix: (Units=1/GPa)
#
#
# Indices 1 2 3 4 5 6 
#
# 1 0.023537 0.002185 -0.005926 0.000000 0.000000 0.000000
# 2 0.002185 0.013417 -0.003141 0.000000 0.000000 0.000000
# 3 -0.005926 -0.003141 0.009570 0.000000 0.000000 0.000000
# 4 0.000000 0.000000 0.000000 0.071856 0.000000 0.000000
# 5 0.000000 0.000000 0.000000 0.000000 0.032219 0.000000
# 6 0.000000 0.000000 0.000000 0.000000 0.000000 0.251232
#
#
# Mechanical properties :
#
#
# Convention : Reuss Voigt Hill
#
# Bulk Modulus (GPa) = 30.52584 41.64114 36.08349
# Shear Modulus (GPa) = 11.72289 23.61488 17.66888
#
# Velocity S-wave (km/s) = 2.37275 3.36765 2.91299
# Velocity P-wave (km/s) = 4.70815 5.92618 5.35193
#
# Compressibility (1/GPa) = 0.03275913
#
# Stress axis : x y z
#
# Youngs Moduli (GPa) = 42.48702 74.53166 104.48890
#
# Poissons Ratio (x) = -0.16288 0.61925
# Poissons Ratio (y) = -0.09285 0.32824
# Poissons Ratio (z) = 0.25180 0.23413
#
# Static dielectric constant tensor:
#      x y z
#    x 1.746720 0.000000 0.000000 
#    y 0.000000 1.833710 0.000000 
#    z 0.000000 0.000000 1.734780 
# 
# From -- ./inp_files/8408.got.cif
#   From: 2010.05.17/outbox.cif.g08.bks.cpg/sg72_5_cif.got.tgz:8408.got - 2010.06.03 17:03:01.
