data_PCOD9526207
_publ_section_title
;
Structure prediction by ZEFSAII (Michael W. Deem and Ramdas Pophale) SiO2 
 PCOD9526207
Probable space group: I B A M
;
_chemical_formula_sum "Si O2"
_cell_formula_units_Z 68
_cell_length_a 8.887215
_cell_length_b 21.404950
_cell_length_c 18.247529
_cell_angle_alpha 90.000000
_cell_angle_beta 90.000000
_cell_angle_gamma 90.000000
_cell_volume 3471.234608
_symmetry_space_group_name_H-M "I B A M"
_symmetry_group_IT_number 72
_symmetry_cell_setting 'orthorhombic'
loop_
_space_group_symop_operation_xyz
x,y,z
-x,-y,z
x,-y,1/2-z
-x,y,1/2-z
-x,-y,-z
x,y,-z
-x,y,1/2+z
x,-y,1/2+z
1/2+x,1/2+y,1/2+z
1/2-x,1/2-y,1/2+z
1/2+x,1/2-y,-z
1/2-x,1/2+y,-z
1/2-x,1/2-y,1/2-z
1/2+x,1/2+y,1/2-z
1/2-x,1/2+y,z
1/2+x,1/2-y,z
loop_
_atom_site_type_symbol
_atom_site_label
_atom_site_fract_x
_atom_site_fract_y
_atom_site_fract_z
Si Si1 0.000000 0.000000 0.250000
Si Si2 0.017599 0.426163 0.079944
Si Si3 0.704494 0.161476 0.644368
Si Si4 0.272623 0.605660 0.305662
Si Si5 0.979967 0.783295 0.662005
O O1 0.112107 0.047524 0.293340
O O2 0.129012 0.410891 0.146301
O O3 0.000000 0.500000 0.079245
O O4 0.857329 0.393664 0.094408
O O5 0.075801 0.405805 0.000000
O O6 0.722936 0.132652 0.726264
O O7 0.582109 0.216599 0.638724
O O8 0.863978 0.193687 0.628037
O O9 0.359911 0.661509 0.346260
O O10 0.000000 0.778069 0.750000
#
# Coordination Sequence:
#
# PCOD9526207 Si02
#       5
#     4  16  16  16  16
#     4  12  20  36  64 100 128 148 212 262 304 364
#     4  11  25  42  59  84 123 168 209 252 311 371
#     4  11  20  39  63  94 123 159 204 252 307 366
#     4  11  21  37  63  95 123 158 206 255 306 363
#     4  10  19  34  62  95 125 153 196 255 309 361
#
# _framework density 19.589572
#
# number of rings (size 3 to 8) (size 9 to 14) (size 15 to 20)
#    0.000    1.176    3.529    7.765    0.000    0.941 
#    0.000    6.471    0.000    0.000    0.000    0.000 
#    0.000    0.000    0.000    0.000    0.000    0.000 
#
# Total GULP energy -189801.072791 kJ/mol
# GULP energy per Si atom -5582.384494 kJ/mol
# Density = 1.954498 g / cm^3
# Si number density = 19.589572 Si / 1000 Ang^3
#
#
#
# Elastic Constant Matrix: (Units=GPa)
#
#
# Indices 1 2 3 4 5 6 
#
# 1 83.8339 41.8123 23.5855 0.0000 0.0000 0.0000
# 2 41.8123 126.3677 24.1833 0.0000 0.0000 0.0000
# 3 23.5855 24.1833 38.7519 0.0000 0.0000 0.0000
# 4 0.0000 0.0000 0.0000 -28.1746 0.0000 0.0000
# 5 0.0000 0.0000 0.0000 0.0000 -4.6437 0.0000
# 6 0.0000 0.0000 0.0000 0.0000 0.0000 41.1220
#
#
#
# Elastic Compliance Matrix: (Units=1/GPa)
#
#
# Indices 1 2 3 4 5 6 
#
# 1 0.015903 -0.003872 -0.007262 0.000000 0.000000 0.000000
# 2 -0.003872 0.009929 -0.003840 0.000000 0.000000 0.000000
# 3 -0.007262 -0.003840 0.032622 0.000000 0.000000 0.000000
# 4 0.000000 0.000000 0.000000 -0.035493 0.000000 0.000000
# 5 0.000000 0.000000 0.000000 0.000000 -0.215344 0.000000
# 6 0.000000 0.000000 0.000000 0.000000 0.000000 0.024318
#
#
# Mechanical properties :
#
#
# Convention : Reuss Voigt Hill
#
# Bulk Modulus (GPa) = 35.08154 47.56839 41.32496
# Shear Modulus (GPa) = -38.87589 12.28557 -13.29516
#
# Velocity S-wave (km/s) = -4.45963 2.50701 -2.60799
# Velocity P-wave (km/s) = 2.92755 5.71973 3.47454
#
# Compressibility (1/GPa) = 0.02850502
#
# Stress axis : x y z
#
# Youngs Moduli (GPa) = 62.88227 100.71065 30.65446
#
# Poissons Ratio (x) = 0.38995 0.22263
# Poissons Ratio (y) = 0.24348 0.11771
# Poissons Ratio (z) = 0.45668 0.38672
#
# Static dielectric constant tensor:
#      x y z
#    x 1.709010 0.000000 0.000000 
#    y 0.000000 1.694330 0.000000 
#    z 0.000000 0.000000 1.660980 
# 
# From -- ./inp_files/27764.got.cif
#   From: 2010.05.17/outbox.cif.g08.bks.cpg/sg72_14_cif.got.tgz:27764.got - 2010.06.03 17:03:01.
