data_PCOD9526239
_publ_section_title
;
Structure prediction by ZEFSAII (Michael W. Deem and Ramdas Pophale) SiO2 
 PCOD9526239
Probable space group: I B A M
;
_chemical_formula_sum "Si O2"
_cell_formula_units_Z 116
_cell_length_a 25.568061
_cell_length_b 25.472302
_cell_length_c 10.303812
_cell_angle_alpha 90.000000
_cell_angle_beta 90.000000
_cell_angle_gamma 90.000000
_cell_volume 6710.639594
_symmetry_space_group_name_H-M "I B A M"
_symmetry_group_IT_number 72
_symmetry_cell_setting 'orthorhombic'
loop_
_space_group_symop_operation_xyz
x,y,z
-x,-y,z
x,-y,1/2-z
-x,y,1/2-z
-x,-y,-z
x,y,-z
-x,y,1/2+z
x,-y,1/2+z
1/2+x,1/2+y,1/2+z
1/2-x,1/2-y,1/2+z
1/2+x,1/2-y,-z
1/2-x,1/2+y,-z
1/2-x,1/2-y,1/2-z
1/2+x,1/2+y,1/2-z
1/2-x,1/2+y,z
1/2+x,1/2-y,z
loop_
_atom_site_type_symbol
_atom_site_label
_atom_site_fract_x
_atom_site_fract_y
_atom_site_fract_z
Si Si1 0.928871 0.542433 0.855295
Si Si2 0.847408 0.838842 0.847710
Si Si3 0.748045 0.346267 0.652026
Si Si4 0.044733 0.337108 0.152652
Si Si5 0.151860 0.715035 0.653480
Si Si6 0.043065 0.104170 0.850389
Si Si7 0.303909 0.958368 0.855794
Si Si8 0.000000 0.000000 0.250000
O O1 0.944377 0.500000 0.750000
O O2 0.953563 0.599695 0.843280
O O3 0.866156 0.550056 0.842304
O O4 0.938932 0.521980 0.000000
O O5 0.801328 0.849632 0.746396
O O6 0.858086 0.776662 0.832262
O O7 0.899421 0.873223 0.822459
O O8 0.832678 0.847240 0.000000
O O9 0.734186 0.334764 0.500000
O O10 0.791709 0.304618 0.702332
O O11 0.776394 0.402524 0.654594
O O12 0.101115 0.316304 0.200091
O O13 0.000000 0.317985 0.250000
O O14 0.037359 0.321968 0.000000
O O15 0.154753 0.702703 0.500000
O O16 0.000000 0.126442 0.750000
O O17 0.030913 0.116884 0.000000
O O18 0.035906 0.041039 0.830264
O O19 0.286167 0.000000 0.750000
O O20 0.294358 0.979752 0.000000
#
# Coordination Sequence:
#
# PCOD9526239 Si02
#       8
#    16  16  16  16  16  16  16   4
#     4   9  17  31  51  71  97 132 171 213 260 313
#     4  10  21  36  55  84 112 139 177 225 270 319
#     4  10  19  35  57  80 105 143 184 221 268 328
#     4  10  20  35  53  75 102 138 178 221 269 322
#     4   9  18  36  58  74 104 147 182 219 274 326
#     4   9  19  35  57  82 110 142 178 214 263 319
#     4   9  17  31  51  74 101 136 177 213 257 312
#     4   8  18  36  62  80 110 148 182 212 262 324
#
# _framework density 17.285982000000001
#
# number of rings (size 3 to 8) (size 9 to 14) (size 15 to 20)
#    0.414    2.207    1.379    0.621    0.000    2.483 
#    1.241    2.759    0.000    0.000    0.000    0.000 
#    0.000    0.000    0.000    0.000    0.000    0.000 
#
# Total GULP energy -322932.092290 kJ/mol
# GULP energy per Si atom -5567.794695 kJ/mol
# Density = 1.724664 g / cm^3
# Si number density = 17.285982 Si / 1000 Ang^3
#
#
#
# Elastic Constant Matrix: (Units=GPa)
#
#
# Indices 1 2 3 4 5 6 
#
# 1 128.4798 41.6524 76.8615 0.0000 0.0000 0.0000
# 2 41.6524 50.1079 35.3538 0.0000 0.0000 0.0000
# 3 76.8615 35.3538 93.5475 0.0000 0.0000 0.0000
# 4 0.0000 0.0000 0.0000 17.7355 0.0000 0.0000
# 5 0.0000 0.0000 0.0000 0.0000 21.8605 0.0000
# 6 0.0000 0.0000 0.0000 0.0000 0.0000 12.8723
#
#
#
# Elastic Compliance Matrix: (Units=1/GPa)
#
#
# Indices 1 2 3 4 5 6 
#
# 1 0.016392 -0.005623 -0.011343 0.000000 0.000000 0.000000
# 2 -0.005623 0.029142 -0.006394 0.000000 0.000000 0.000000
# 3 -0.011343 -0.006394 0.022426 0.000000 0.000000 0.000000
# 4 0.000000 0.000000 0.000000 0.056384 0.000000 0.000000
# 5 0.000000 0.000000 0.000000 0.000000 0.045745 0.000000
# 6 0.000000 0.000000 0.000000 0.000000 0.000000 0.077686
#
#
# Mechanical properties :
#
#
# Convention : Reuss Voigt Hill
#
# Bulk Modulus (GPa) = 47.07923 64.43007 55.75465
# Shear Modulus (GPa) = 16.57963 18.37816 17.47890
#
# Velocity S-wave (km/s) = 3.10035 3.26419 3.18332
# Velocity P-wave (km/s) = 6.33332 7.18056 6.77021
#
# Compressibility (1/GPa) = 0.02124079
#
# Stress axis : x y z
#
# Youngs Moduli (GPa) = 61.00449 34.31487 44.59081
#
# Poissons Ratio (x) = 0.19294 0.50581
# Poissons Ratio (y) = 0.34301 0.28510
# Poissons Ratio (z) = 0.69200 0.21940
#
# Static dielectric constant tensor:
#      x y z
#    x 1.590140 0.000000 0.000000 
#    y 0.000000 1.578730 0.000000 
#    z 0.000000 0.000000 1.595730 
# 
# From -- ./inp_files/7316.got.cif
#   From: 2010.05.17/outbox.cif.g08.bks.cpg/sg72_4_cif.got.tgz:7316.got - 2010.06.03 17:03:01.
