data_PCOD9526191
_publ_section_title
;
Structure prediction by ZEFSAII (Michael W. Deem and Ramdas Pophale) SiO2 
 PCOD9526191
Probable space group: I B A M
;
_chemical_formula_sum "Si O2"
_cell_formula_units_Z 104
_cell_length_a 7.919427
_cell_length_b 32.501249
_cell_length_c 20.311969
_cell_angle_alpha 90.000000
_cell_angle_beta 90.000000
_cell_angle_gamma 90.000000
_cell_volume 5228.123474
_symmetry_space_group_name_H-M "I B A M"
_symmetry_group_IT_number 72
_symmetry_cell_setting 'orthorhombic'
loop_
_space_group_symop_operation_xyz
x,y,z
-x,-y,z
x,-y,1/2-z
-x,y,1/2-z
-x,-y,-z
x,y,-z
-x,y,1/2+z
x,-y,1/2+z
1/2+x,1/2+y,1/2+z
1/2-x,1/2-y,1/2+z
1/2+x,1/2-y,-z
1/2-x,1/2+y,-z
1/2-x,1/2-y,1/2-z
1/2+x,1/2+y,1/2-z
1/2-x,1/2+y,z
1/2+x,1/2-y,z
loop_
_atom_site_type_symbol
_atom_site_label
_atom_site_fract_x
_atom_site_fract_y
_atom_site_fract_z
Si Si1 0.682658 0.123546 0.923064
Si Si2 0.572380 0.380321 0.927918
Si Si3 0.822874 0.537633 0.712028
Si Si4 0.500000 0.739231 0.250000
Si Si5 0.700085 0.810662 0.691400
Si Si6 0.325538 0.371174 0.710808
Si Si7 0.383699 0.057958 0.926336
O O1 0.675729 0.162243 0.873717
O O2 0.536491 0.089894 0.908781
O O3 0.876455 0.107150 0.916595
O O4 0.658983 0.134947 0.000000
O O5 0.636912 0.356669 0.863503
O O6 0.706701 0.417279 0.931027
O O7 0.578328 0.359521 0.000000
O O8 0.734758 0.500000 0.750000
O O9 0.732498 0.581527 0.712788
O O10 0.856362 0.528143 0.635220
O O11 0.000000 0.543066 0.750000
O O12 0.583532 0.771118 0.300830
O O13 0.619859 0.710505 0.206682
O O14 0.691498 0.842723 0.752350
O O15 0.500000 0.370189 0.750000
O O16 0.417972 0.041978 0.000000
#
# Coordination Sequence:
#
# PCOD9526191 Si02
#       7
#    16  16  16   8  16  16  16
#     4  10  19  34  60  89 118 152 200 248 293 362
#     4   9  18  32  52  86 119 144 191 249 289 341
#     4  10  22  37  55  86 123 150 193 254 303 354
#     4  10  24  36  58  80 122 152 190 258 296 360
#     4  11  21  39  55  88 115 152 202 241 302 360
#     4  11  20  34  62  85 111 156 199 239 298 363
#     4   9  19  35  59  87 115 158 202 240 299 358
#
# _framework density 19.892416000000001
#
# number of rings (size 3 to 8) (size 9 to 14) (size 15 to 20)
#    0.000    2.000    2.308    0.923    5.385    0.308 
#    0.000    2.308    0.000    5.538    0.000    4.308 
#    0.000    0.000    0.000    0.000    0.000    0.000 
#
# Total GULP energy -289552.098722 kJ/mol
# GULP energy per Si atom -5568.309591 kJ/mol
# Density = 1.984714 g / cm^3
# Si number density = 19.892416 Si / 1000 Ang^3
#
#
#
# Elastic Constant Matrix: (Units=GPa)
#
#
# Indices 1 2 3 4 5 6 
#
# 1 74.3275 29.3745 14.9902 0.0000 0.0000 0.0000
# 2 29.3745 98.6123 43.2416 0.0000 0.0000 0.0000
# 3 14.9902 43.2416 158.0205 -0.0001 0.0000 0.0000
# 4 0.0000 0.0000 -0.0001 25.6381 0.0000 0.0000
# 5 0.0000 0.0000 0.0000 0.0000 13.9374 0.0000
# 6 0.0000 0.0000 0.0000 0.0000 0.0000 33.2848
#
#
#
# Elastic Compliance Matrix: (Units=1/GPa)
#
#
# Indices 1 2 3 4 5 6 
#
# 1 0.015257 -0.004443 -0.000231 0.000000 0.000000 0.000000
# 2 -0.004443 0.012817 -0.003086 0.000000 0.000000 0.000000
# 3 -0.000231 -0.003086 0.007195 0.000000 0.000000 0.000000
# 4 0.000000 0.000000 0.000000 0.039004 0.000000 0.000000
# 5 0.000000 0.000000 0.000000 0.000000 0.071749 0.000000
# 6 0.000000 0.000000 0.000000 0.000000 0.000000 0.030044
#
#
# Mechanical properties :
#
#
# Convention : Reuss Voigt Hill
#
# Bulk Modulus (GPa) = 50.63882 56.24145 53.44014
# Shear Modulus (GPa) = 25.23088 30.79567 28.01328
#
# Velocity S-wave (km/s) = 3.56528 3.93887 3.75672
# Velocity P-wave (km/s) = 6.51612 7.00146 6.76315
#
# Compressibility (1/GPa) = 0.01974769
#
# Stress axis : x y z
#
# Youngs Moduli (GPa) = 65.54553 78.01882 138.99115
#
# Poissons Ratio (x) = 0.34665 0.03217
# Poissons Ratio (y) = 0.29123 0.42892
# Poissons Ratio (z) = 0.01517 0.24076
#
# Static dielectric constant tensor:
#      x y z
#    x 1.781040 0.000000 0.000000 
#    y 0.000000 1.717100 0.000000 
#    z 0.000000 0.000000 1.755050 
# 
# From -- ./inp_files/36256.got.cif
#   From: 2010.05.17/outbox.cif.g08.bks.cpg/sg72_19_cif.got.tgz:36256.got - 2010.06.03 17:03:01.
