data_PCOD9526950
_publ_section_title
;
Structure prediction by ZEFSAII (Michael W. Deem and Ramdas Pophale) SiO2 
 PCOD9526950
Probable space group: I B A M
;
_chemical_formula_sum "Si O2"
_cell_formula_units_Z 88
_cell_length_a 15.981478
_cell_length_b 9.514522
_cell_length_c 29.701861
_cell_angle_alpha 90.000000
_cell_angle_beta 90.000000
_cell_angle_gamma 90.000000
_cell_volume 4516.349860
_symmetry_space_group_name_H-M "I B A M"
_symmetry_group_IT_number 72
_symmetry_cell_setting 'orthorhombic'
loop_
_space_group_symop_operation_xyz
x,y,z
-x,-y,z
x,-y,1/2-z
-x,y,1/2-z
-x,-y,-z
x,y,-z
-x,y,1/2+z
x,-y,1/2+z
1/2+x,1/2+y,1/2+z
1/2-x,1/2-y,1/2+z
1/2+x,1/2-y,-z
1/2-x,1/2+y,-z
1/2-x,1/2-y,1/2-z
1/2+x,1/2+y,1/2-z
1/2-x,1/2+y,z
1/2+x,1/2-y,z
loop_
_atom_site_type_symbol
_atom_site_label
_atom_site_fract_x
_atom_site_fract_y
_atom_site_fract_z
Si Si1 0.279358 0.143070 0.335160
Si Si2 0.839928 0.921871 0.796438
Si Si3 0.859846 0.439376 0.500000
Si Si4 0.000000 0.000000 0.642008
Si Si5 0.909678 0.526837 0.902578
Si Si6 0.372345 0.296447 0.096680
Si Si7 0.190437 0.772687 0.000000
O O1 0.311157 0.259864 0.299955
O O2 0.200096 0.178622 0.366790
O O3 0.244183 0.003538 0.312016
O O4 0.353600 0.118663 0.370281
O O5 0.862415 0.000000 0.750000
O O6 0.921732 0.942578 0.828314
O O7 0.911413 0.418940 0.546052
O O8 0.823531 0.601703 0.500000
O O9 0.785917 0.325190 0.500000
O O10 0.956102 0.876630 0.612670
O O11 0.874957 0.370582 0.905211
O O12 0.000000 0.500000 0.882683
O O13 0.348497 0.336973 0.045682
#
# Coordination Sequence:
#
# PCOD9526950 Si02
#       7
#    16  16   8   8  16  16   8
#     4  11  21  38  65  86 122 160 201 253 310 380
#     4  11  23  41  63  90 116 156 202 256 318 382
#     4  10  21  36  56  88 120 169 208 259 300 365
#     4  10  23  39  64  86 124 154 206 251 327 372
#     4  11  21  37  60  88 127 159 213 254 311 360
#     4  10  21  39  58  94 122 167 209 254 308 380
#     4  10  20  35  60  84 128 163 214 258 295 372
#
# _framework density 19.484762
#
# number of rings (size 3 to 8) (size 9 to 14) (size 15 to 20)
#    0.000    1.455    3.636    2.182    0.000    0.364 
#    3.273    0.000    0.000    0.000    0.000    0.000 
#    0.000    0.000    0.000    0.000    0.000    0.000 
#
# Total GULP energy -245078.280309 kJ/mol
# GULP energy per Si atom -5569.960916 kJ/mol
# Density = 1.944041 g / cm^3
# Si number density = 19.484762 Si / 1000 Ang^3
#
#
#
# Elastic Constant Matrix: (Units=GPa)
#
#
# Indices 1 2 3 4 5 6 
#
# 1 68.4934 2.4997 7.1734 0.0000 0.0000 0.0000
# 2 2.4997 39.3683 5.7297 0.0000 0.0000 0.0000
# 3 7.1734 5.7297 62.4331 0.0000 0.0000 0.0000
# 4 0.0000 0.0000 0.0000 3.8306 0.0000 0.0000
# 5 0.0000 0.0000 0.0000 0.0000 14.5291 0.0000
# 6 0.0000 0.0000 0.0000 0.0000 0.0000 23.7669
#
#
#
# Elastic Compliance Matrix: (Units=1/GPa)
#
#
# Indices 1 2 3 4 5 6 
#
# 1 0.014797 -0.000701 -0.001636 0.000000 0.000000 0.000000
# 2 -0.000701 0.025778 -0.002285 0.000000 0.000000 0.000000
# 3 -0.001636 -0.002285 0.016415 0.000000 0.000000 0.000000
# 4 0.000000 0.000000 0.000000 0.261056 0.000000 0.000000
# 5 0.000000 0.000000 0.000000 0.000000 0.068827 0.000000
# 6 0.000000 0.000000 0.000000 0.000000 0.000000 0.042075
#
#
# Mechanical properties :
#
#
# Convention : Reuss Voigt Hill
#
# Bulk Modulus (GPa) = 20.94451 22.34448 21.64450
# Shear Modulus (GPa) = 11.01059 18.75146 14.88103
#
# Velocity S-wave (km/s) = 2.37974 3.10557 2.76656
# Velocity P-wave (km/s) = 4.28058 4.93477 4.61927
#
# Compressibility (1/GPa) = 0.04774521
#
# Stress axis : x y z
#
# Youngs Moduli (GPa) = 67.58188 38.79241 60.92058
#
# Poissons Ratio (x) = 0.02721 0.09965
# Poissons Ratio (y) = 0.04741 0.13921
# Poissons Ratio (z) = 0.11055 0.08865
#
# Static dielectric constant tensor:
#      x y z
#    x 1.666510 0.000000 0.000000 
#    y 0.000000 1.661160 0.000000 
#    z 0.000000 0.000000 1.759620 
# 
# From -- ./inp_files/48623.got.cif
#   From: 2010.05.17/outbox.cif.g08.bks.cpg/sg72_25_cif.got.tgz:48623.got - 2010.06.03 17:03:01.
