data_PCOD9526019
_publ_section_title
;
Structure prediction by ZEFSAII (Michael W. Deem and Ramdas Pophale) SiO2 
 PCOD9526019
Probable space group: I B A M
;
_chemical_formula_sum "Si O2"
_cell_formula_units_Z 96
_cell_length_a 20.178768
_cell_length_b 18.195988
_cell_length_c 14.899833
_cell_angle_alpha 90.000000
_cell_angle_beta 90.000000
_cell_angle_gamma 90.000000
_cell_volume 5470.810726
_symmetry_space_group_name_H-M "I B A M"
_symmetry_group_IT_number 72
_symmetry_cell_setting 'orthorhombic'
loop_
_space_group_symop_operation_xyz
x,y,z
-x,-y,z
x,-y,1/2-z
-x,y,1/2-z
-x,-y,-z
x,y,-z
-x,y,1/2+z
x,-y,1/2+z
1/2+x,1/2+y,1/2+z
1/2-x,1/2-y,1/2+z
1/2+x,1/2-y,-z
1/2-x,1/2+y,-z
1/2-x,1/2-y,1/2-z
1/2+x,1/2+y,1/2-z
1/2-x,1/2+y,z
1/2+x,1/2-y,z
loop_
_atom_site_type_symbol
_atom_site_label
_atom_site_fract_x
_atom_site_fract_y
_atom_site_fract_z
Si Si1 0.094063 0.061617 0.500000
Si Si2 0.118221 0.230396 0.500000
Si Si3 0.768766 0.210670 0.500000
Si Si4 0.720962 0.535795 0.500000
Si Si5 0.248474 0.052690 0.670635
Si Si6 0.304809 0.213934 0.314938
Si Si7 0.089324 0.929261 0.807982
Si Si8 0.931402 0.239307 0.205234
O O1 0.130132 0.141860 0.500000
O O2 0.057208 0.061877 0.593856
O O3 0.145320 0.994254 0.500000
O O4 0.190529 0.267832 0.500000
O O5 0.081010 0.246908 0.403906
O O6 0.775898 0.122901 0.500000
O O7 0.801403 0.243933 0.589996
O O8 0.754602 0.497863 0.415706
O O9 0.285643 0.129560 0.667866
O O10 0.169659 0.069294 0.681725
O O11 0.270650 0.000000 0.750000
O O12 0.250000 0.250000 0.250000
O O13 0.372433 0.222698 0.260157
O O14 0.073067 0.848324 0.774254
O O15 0.072695 0.000000 0.750000
O O16 0.000000 0.265184 0.250000
#
# Coordination Sequence:
#
# PCOD9526019 Si02
#       8
#     8   8   8   8  16  16  16  16
#     4   8  16  30  48  76 110 155 182 233 297 345
#     4  10  20  41  61  81 122 162 194 248 318 355
#     4  12  22  33  63  97 122 155 205 260 299 365
#     4  10  20  30  50  90 123 150 189 248 319 357
#     4  10  19  33  55  85 118 150 196 255 307 353
#     4  12  21  37  61  91 117 158 208 258 300 356
#     4   9  17  31  54  77 114 153 192 239 292 354
#     4  11  24  39  60  86 124 165 204 246 304 371
#
# _framework density 17.547673
#
# number of rings (size 3 to 8) (size 9 to 14) (size 15 to 20)
#    0.000    1.667    3.333    3.500    4.667    1.000 
#    0.000    0.833    0.000    3.500    0.000    1.167 
#    0.000    0.000    0.000    0.000    0.000    0.000 
#
# Total GULP energy -267636.621925 kJ/mol
# GULP energy per Si atom -5575.762957 kJ/mol
# Density = 1.750773 g / cm^3
# Si number density = 17.547673 Si / 1000 Ang^3
#
#
#
# Elastic Constant Matrix: (Units=GPa)
#
#
# Indices 1 2 3 4 5 6 
#
# 1 95.6935 30.1633 37.9893 0.0000 0.0000 0.0000
# 2 30.1633 130.2723 56.5733 0.0000 0.0000 0.0000
# 3 37.9893 56.5733 136.5486 0.0000 0.0000 0.0000
# 4 0.0000 0.0000 0.0000 29.7119 0.0000 0.0000
# 5 0.0000 0.0000 0.0000 0.0000 12.7417 0.0000
# 6 0.0000 0.0000 0.0000 0.0000 0.0000 7.1426
#
#
#
# Elastic Compliance Matrix: (Units=1/GPa)
#
#
# Indices 1 2 3 4 5 6 
#
# 1 0.012023 -0.001623 -0.002672 0.000000 0.000000 0.000000
# 2 -0.001623 0.009580 -0.003517 0.000000 0.000000 0.000000
# 3 -0.002672 -0.003517 0.009524 0.000000 0.000000 0.000000
# 4 0.000000 0.000000 0.000000 0.033657 0.000000 0.000000
# 5 0.000000 0.000000 0.000000 0.000000 0.078483 0.000000
# 6 0.000000 0.000000 0.000000 0.000000 0.000000 0.140005
#
#
# Mechanical properties :
#
#
# Convention : Reuss Voigt Hill
#
# Bulk Modulus (GPa) = 64.51365 67.99625 66.25495
# Shear Modulus (GPa) = 16.44398 25.77181 21.10789
#
# Velocity S-wave (km/s) = 3.06454 3.83649 3.47203
# Velocity P-wave (km/s) = 7.02613 7.64581 7.34251
#
# Compressibility (1/GPa) = 0.01550060
#
# Stress axis : x y z
#
# Youngs Moduli (GPa) = 83.17697 104.38940 104.99676
#
# Poissons Ratio (x) = 0.16945 0.28058
# Poissons Ratio (y) = 0.13501 0.36930
# Poissons Ratio (z) = 0.22227 0.36717
#
# Static dielectric constant tensor:
#      x y z
#    x 1.629080 0.000000 0.000000 
#    y 0.000000 1.566080 0.000000 
#    z 0.000000 0.000000 1.624270 
# 
# From -- ./inp_files/24230.got.cif
#   From: 2010.05.17/outbox.cif.g08.bks.cpg/sg72_13_cif.got.tgz:24230.got - 2010.06.03 17:03:01.
