data_PCOD9526824
_publ_section_title
;
Structure prediction by ZEFSAII (Michael W. Deem and Ramdas Pophale) SiO2 
 PCOD9526824
Probable space group: I B A M
;
_chemical_formula_sum "Si O2"
_cell_formula_units_Z 96
_cell_length_a 16.699685
_cell_length_b 13.664621
_cell_length_c 18.895375
_cell_angle_alpha 90.000000
_cell_angle_beta 90.000000
_cell_angle_gamma 90.000000
_cell_volume 4311.827573
_symmetry_space_group_name_H-M "I B A M"
_symmetry_group_IT_number 72
_symmetry_cell_setting 'orthorhombic'
loop_
_space_group_symop_operation_xyz
x,y,z
-x,-y,z
x,-y,1/2-z
-x,y,1/2-z
-x,-y,-z
x,y,-z
-x,y,1/2+z
x,-y,1/2+z
1/2+x,1/2+y,1/2+z
1/2-x,1/2-y,1/2+z
1/2+x,1/2-y,-z
1/2-x,1/2+y,-z
1/2-x,1/2-y,1/2-z
1/2+x,1/2+y,1/2-z
1/2-x,1/2+y,z
1/2+x,1/2-y,z
loop_
_atom_site_type_symbol
_atom_site_label
_atom_site_fract_x
_atom_site_fract_y
_atom_site_fract_z
Si Si1 0.091928 0.095449 0.919939
Si Si2 0.706792 0.894076 0.578984
Si Si3 0.151017 0.940246 0.176921
Si Si4 0.112659 0.289643 0.695059
Si Si5 0.770515 0.328176 0.924445
Si Si6 0.435077 0.804813 0.851465
O O1 0.187472 0.115228 0.923757
O O2 0.062000 0.194373 0.882488
O O3 0.089337 0.996254 0.875083
O O4 0.061185 0.088224 0.000000
O O5 0.716564 0.936608 0.500000
O O6 0.761615 0.940466 0.639774
O O7 0.742983 0.784674 0.575716
O O8 0.613719 0.877246 0.597601
O O9 0.123609 0.827963 0.186777
O O10 0.152277 0.000000 0.250000
O O11 0.177545 0.341444 0.645475
O O12 0.115968 0.306623 0.778765
O O13 0.026267 0.325950 0.668234
O O14 0.813508 0.344630 0.000000
#
# Coordination Sequence:
#
# PCOD9526824 Si02
#       6
#    16  16  16  16  16  16
#     4  10  20  35  53  79 110 143 180 225 276 334
#     4   9  19  35  55  79 107 143 190 237 273 322
#     4  11  21  34  55  83 113 148 180 226 279 337
#     4  10  21  34  52  81 111 142 184 225 272 331
#     4   8  17  32  53  75 102 137 183 230 266 314
#     4  10  20  35  53  78 110 146 182 230 274 324
#
# _framework density 22.264341000000002
#
# number of rings (size 3 to 8) (size 9 to 14) (size 15 to 20)
#    0.000    2.333    1.667    2.000    2.333    4.667 
#    0.000    0.833    0.000    1.000    0.000    3.500 
#    0.000    0.000    0.000    0.000    0.000    0.000 
#
# Total GULP energy -267933.662189 kJ/mol
# GULP energy per Si atom -5581.951296 kJ/mol
# Density = 2.221367 g / cm^3
# Si number density = 22.264341 Si / 1000 Ang^3
#
#
#
# Elastic Constant Matrix: (Units=GPa)
#
#
# Indices 1 2 3 4 5 6 
#
# 1 60.1459 6.4228 29.5487 0.0000 0.0000 0.0000
# 2 6.4228 34.4982 -0.8182 0.0000 0.0000 0.0000
# 3 29.5487 -0.8182 111.8538 0.0000 0.0000 0.0000
# 4 0.0000 0.0000 0.0000 -3.4643 0.0000 0.0000
# 5 0.0000 0.0000 0.0000 0.0000 33.5771 0.0000
# 6 0.0000 0.0000 0.0000 0.0000 0.0000 10.8498
#
#
#
# Elastic Compliance Matrix: (Units=1/GPa)
#
#
# Indices 1 2 3 4 5 6 
#
# 1 0.019584 -0.003769 -0.005201 0.000000 0.000000 0.000000
# 2 -0.003769 0.029718 0.001213 0.000000 0.000000 0.000000
# 3 -0.005201 0.001213 0.010323 0.000000 0.000000 0.000000
# 4 0.000000 0.000000 0.000000 -0.288657 0.000000 0.000000
# 5 0.000000 0.000000 0.000000 0.000000 0.029782 0.000000
# 6 0.000000 0.000000 0.000000 0.000000 0.000000 0.092168
#
#
# Mechanical properties :
#
#
# Convention : Reuss Voigt Hill
#
# Bulk Modulus (GPa) = 22.67065 30.75604 26.71335
# Shear Modulus (GPa) = -65.04955 19.61548 -22.71703
#
# Velocity S-wave (km/s) = -5.41113 2.97143 -3.19773
# Velocity P-wave (km/s) = 5.36990 5.06128 1.26872
#
# Compressibility (1/GPa) = 0.04410990
#
# Stress axis : x y z
#
# Youngs Moduli (GPa) = 51.06217 33.65009 96.87011
#
# Poissons Ratio (x) = 0.12684 0.50383
# Poissons Ratio (y) = 0.19248 -0.11752
# Poissons Ratio (z) = 0.26558 -0.04082
#
# Static dielectric constant tensor:
#      x y z
#    x 1.806060 0.000000 0.000000 
#    y 0.000000 1.857500 0.000000 
#    z 0.000000 0.000000 1.836900 
# 
# From -- ./inp_files/31598.got.cif
#   From: 2010.05.17/outbox.cif.g08.bks.cpg/sg72_16_cif.got.tgz:31598.got - 2010.06.03 17:03:01.
