data_PCOD9526500
_publ_section_title
;
Structure prediction by ZEFSAII (Michael W. Deem and Ramdas Pophale) SiO2 
 PCOD9526500
Probable space group: I B A M
;
_chemical_formula_sum "Si O2"
_cell_formula_units_Z 112
_cell_length_a 31.791375
_cell_length_b 11.840688
_cell_length_c 15.067948
_cell_angle_alpha 90.000000
_cell_angle_beta 90.000000
_cell_angle_gamma 90.000000
_cell_volume 5672.054072
_symmetry_space_group_name_H-M "I B A M"
_symmetry_group_IT_number 72
_symmetry_cell_setting 'orthorhombic'
loop_
_space_group_symop_operation_xyz
x,y,z
-x,-y,z
x,-y,1/2-z
-x,y,1/2-z
-x,-y,-z
x,y,-z
-x,y,1/2+z
x,-y,1/2+z
1/2+x,1/2+y,1/2+z
1/2-x,1/2-y,1/2+z
1/2+x,1/2-y,-z
1/2-x,1/2+y,-z
1/2-x,1/2-y,1/2-z
1/2+x,1/2+y,1/2-z
1/2-x,1/2+y,z
1/2+x,1/2-y,z
loop_
_atom_site_type_symbol
_atom_site_label
_atom_site_fract_x
_atom_site_fract_y
_atom_site_fract_z
Si Si1 0.170752 0.374078 0.360452
Si Si2 0.121928 0.836582 0.106176
Si Si3 0.451692 0.502786 0.890986
Si Si4 0.257481 0.294289 0.348958
Si Si5 0.392751 0.692066 0.899375
Si Si6 0.815459 0.014665 0.602029
Si Si7 0.829278 0.627743 0.850778
O O1 0.130660 0.294399 0.376938
O O2 0.212678 0.311601 0.395403
O O3 0.177221 0.381137 0.254611
O O4 0.168195 0.503176 0.391228
O O5 0.079114 0.898926 0.135757
O O6 0.162691 0.904559 0.143946
O O7 0.123711 0.854068 0.000000
O O8 0.500000 0.500000 0.863451
O O9 0.430438 0.619553 0.858933
O O10 0.450883 0.504157 0.000000
O O11 0.250000 0.250000 0.250000
O O12 0.278986 0.418130 0.348679
O O13 0.291135 0.205056 0.388546
O O14 0.354600 0.601648 0.901415
O O15 0.372633 0.803152 0.859104
O O16 0.404459 0.720220 0.000000
O O17 0.801645 0.993905 0.500000
#
# Coordination Sequence:
#
# PCOD9526500 Si02
#       7
#    16  16  16  16  16  16  16
#     4  10  20  31  47  63  94 130 163 207 239 275
#     4   9  18  31  48  74  99 123 157 195 245 296
#     4   8  14  28  53  80 101 119 145 191 246 296
#     4   9  18  31  46  65  88 121 167 208 233 276
#     4   8  14  28  50  71  92 120 152 189 233 289
#     4   8  15  29  46  64  93 123 150 191 242 287
#     4   9  19  34  44  66  93 127 168 198 240 288
#
# _framework density 19.745932
#
# number of rings (size 3 to 8) (size 9 to 14) (size 15 to 20)
#    0.000    3.286    0.000    1.714    2.000    1.143 
#    2.571    5.714    0.000    2.571    0.000    6.000 
#    0.000    0.000    0.000    0.000    0.000    0.000 
#
# Total GULP energy -311932.332508 kJ/mol
# GULP energy per Si atom -5570.220223 kJ/mol
# Density = 1.970099 g / cm^3
# Si number density = 19.745932 Si / 1000 Ang^3
#
#
#
# Elastic Constant Matrix: (Units=GPa)
#
#
# Indices 1 2 3 4 5 6 
#
# 1 127.0672 72.5975 9.4466 0.0000 0.0000 0.0000
# 2 72.5975 142.7184 2.8443 0.0000 0.0000 0.0000
# 3 9.4466 2.8443 42.3735 0.0000 0.0000 0.0000
# 4 0.0000 0.0000 0.0000 22.3124 0.0000 0.0000
# 5 0.0000 0.0000 0.0000 0.0000 17.1132 0.0000
# 6 0.0000 0.0000 0.0000 0.0000 0.0000 20.5595
#
#
#
# Elastic Compliance Matrix: (Units=1/GPa)
#
#
# Indices 1 2 3 4 5 6 
#
# 1 0.011283 -0.005697 -0.002133 0.000000 0.000000 0.000000
# 2 -0.005697 0.009893 0.000606 0.000000 0.000000 0.000000
# 3 -0.002133 0.000606 0.024035 0.000000 0.000000 0.000000
# 4 0.000000 0.000000 0.000000 0.044818 0.000000 0.000000
# 5 0.000000 0.000000 0.000000 0.000000 0.058434 0.000000
# 6 0.000000 0.000000 0.000000 0.000000 0.000000 0.048639
#
#
# Mechanical properties :
#
#
# Convention : Reuss Voigt Hill
#
# Bulk Modulus (GPa) = 32.50722 53.54844 43.02783
# Shear Modulus (GPa) = 22.54234 27.14839 24.84536
#
# Velocity S-wave (km/s) = 3.38245 3.71197 3.55103
# Velocity P-wave (km/s) = 5.63499 6.74901 6.21701
#
# Compressibility (1/GPa) = 0.03076240
#
# Stress axis : x y z
#
# Youngs Moduli (GPa) = 88.62631 101.08484 41.60681
#
# Poissons Ratio (x) = 0.57589 0.08875
# Poissons Ratio (y) = 0.50491 -0.02522
# Poissons Ratio (z) = 0.18905 -0.06126
#
# Static dielectric constant tensor:
#      x y z
#    x 1.705490 0.000000 0.000000 
#    y 0.000000 1.746050 0.000000 
#    z 0.000000 0.000000 1.801140 
# 
# From -- ./inp_files/40884.got.cif
#   From: 2010.05.17/outbox.cif.g08.bks.cpg/sg72_21_cif.got.tgz:40884.got - 2010.06.03 17:03:01.
