data_PCOD9526869
_publ_section_title
;
Structure prediction by ZEFSAII (Michael W. Deem and Ramdas Pophale) SiO2 
 PCOD9526869
Probable space group: I B A M
;
_chemical_formula_sum "Si O2"
_cell_formula_units_Z 116
_cell_length_a 32.513576
_cell_length_b 22.620357
_cell_length_c 8.363182
_cell_angle_alpha 90.000000
_cell_angle_beta 90.000000
_cell_angle_gamma 90.000000
_cell_volume 6150.858564
_symmetry_space_group_name_H-M "I B A M"
_symmetry_group_IT_number 72
_symmetry_cell_setting 'orthorhombic'
loop_
_space_group_symop_operation_xyz
x,y,z
-x,-y,z
x,-y,1/2-z
-x,y,1/2-z
-x,-y,-z
x,y,-z
-x,y,1/2+z
x,-y,1/2+z
1/2+x,1/2+y,1/2+z
1/2-x,1/2-y,1/2+z
1/2+x,1/2-y,-z
1/2-x,1/2+y,-z
1/2-x,1/2-y,1/2-z
1/2+x,1/2+y,1/2-z
1/2-x,1/2+y,z
1/2+x,1/2-y,z
loop_
_atom_site_type_symbol
_atom_site_label
_atom_site_fract_x
_atom_site_fract_y
_atom_site_fract_z
Si Si1 0.841119 0.565228 0.690286
Si Si2 0.954510 0.728648 0.309960
Si Si3 0.000000 0.500000 0.250000
Si Si4 0.395241 0.329822 0.307794
Si Si5 0.063926 0.591457 0.805676
Si Si6 0.718028 0.831630 0.309262
Si Si7 0.545753 0.433642 0.808103
Si Si8 0.804958 0.199743 0.306895
O O1 0.830147 0.500000 0.750000
O O2 0.838711 0.566490 0.500000
O O3 0.888699 0.578429 0.732807
O O4 0.811150 0.615475 0.756038
O O5 0.952924 0.735712 0.500000
O O6 0.920511 0.771041 0.234455
O O7 0.945956 0.659791 0.273885
O O8 0.000000 0.744423 0.250000
O O9 0.965707 0.450693 0.298189
O O10 0.393505 0.334254 0.500000
O O11 0.421079 0.386150 0.248708
O O12 0.348497 0.325087 0.248363
O O13 0.057000 0.580163 0.000000
O O14 0.718968 0.829933 0.500000
O O15 0.764695 0.835530 0.247415
O O16 0.700851 0.767834 0.251714
O O17 0.554478 0.500000 0.750000
O O18 0.500000 0.417361 0.750000
O O19 0.545412 0.433570 0.000000
O O20 0.805545 0.200138 0.500000
#
# Coordination Sequence:
#
# PCOD9526869 Si02
#       8
#    16  16   4  16  16  16  16  16
#     4  11  22  38  57  81 111 146 188 234 283 334
#     4  11  22  36  53  79 113 150 191 236 283 331
#     4  12  18  40  56  74 112 152 200 240 282 328
#     4  10  21  37  57  84 113 145 183 227 280 333
#     4  10  22  36  54  79 109 150 196 239 284 331
#     4  10  20  36  59  86 111 142 184 227 277 336
#     4  10  20  35  56  80 109 143 182 219 260 319
#     4   9  19  37  60  84 112 145 180 224 278 334
#
# _framework density 18.859155999999999
#
# number of rings (size 3 to 8) (size 9 to 14) (size 15 to 20)
#    0.000    1.793    1.379    3.517    0.000    3.310 
#    0.000    2.759    0.000    1.655    0.000    0.000 
#    0.000    0.000    0.000    0.000    0.000    0.000 
#
# Total GULP energy -323658.567805 kJ/mol
# GULP energy per Si atom -5580.320135 kJ/mol
# Density = 1.881623 g / cm^3
# Si number density = 18.859156 Si / 1000 Ang^3
#
#
#
# Elastic Constant Matrix: (Units=GPa)
#
#
# Indices 1 2 3 4 5 6 
#
# 1 182.0196 94.3465 26.4081 0.0000 0.0000 0.0000
# 2 94.3465 96.3217 16.6883 0.0000 0.0000 0.0000
# 3 26.4081 16.6883 15.8933 0.0000 0.0000 0.0000
# 4 0.0000 0.0000 0.0000 12.1249 0.0000 0.0000
# 5 0.0000 0.0000 0.0000 0.0000 12.9957 0.0000
# 6 0.0000 0.0000 0.0000 0.0000 0.0000 -35.9835
#
#
#
# Elastic Compliance Matrix: (Units=1/GPa)
#
#
# Indices 1 2 3 4 5 6 
#
# 1 0.012222 -0.010332 -0.009458 0.000000 0.000000 0.000000
# 2 -0.010332 0.021426 -0.005329 0.000000 0.000000 0.000000
# 3 -0.009458 -0.005329 0.084231 0.000000 0.000000 0.000000
# 4 0.000000 0.000000 0.000000 0.082475 0.000000 0.000000
# 5 0.000000 0.000000 0.000000 0.000000 0.076949 0.000000
# 6 0.000000 0.000000 0.000000 0.000000 0.000000 -0.027790
#
#
# Mechanical properties :
#
#
# Convention : Reuss Voigt Hill
#
# Bulk Modulus (GPa) = 14.78445 63.23560 39.01002
# Shear Modulus (GPa) = 15.51360 8.28018 11.89689
#
# Velocity S-wave (km/s) = 2.87122 2.09763 2.51435
# Velocity P-wave (km/s) = 4.34146 6.28252 5.39992
#
# Compressibility (1/GPa) = 0.06763862
#
# Stress axis : x y z
#
# Youngs Moduli (GPa) = 81.82097 46.67273 11.87214
#
# Poissons Ratio (x) = 0.48225 0.11229
# Poissons Ratio (y) = 0.84541 0.06327
# Poissons Ratio (z) = 0.77389 0.24873
#
# Static dielectric constant tensor:
#      x y z
#    x 1.627060 0.000000 0.000000 
#    y 0.000000 1.612300 0.000000 
#    z 0.000000 0.000000 1.678230 
# 
# From -- ./inp_files/8396.got.cif
#   From: 2010.05.17/outbox.cif.g08.bks.cpg/sg72_5_cif.got.tgz:8396.got - 2010.06.03 17:03:01.
