data_PCOD9526777
_publ_section_title
;
Structure prediction by ZEFSAII (Michael W. Deem and Ramdas Pophale) SiO2 
 PCOD9526777
Probable space group: I B A M
;
_chemical_formula_sum "Si O2"
_cell_formula_units_Z 116
_cell_length_a 7.688104
_cell_length_b 23.663729
_cell_length_c 28.201482
_cell_angle_alpha 90.000000
_cell_angle_beta 90.000000
_cell_angle_gamma 90.000000
_cell_volume 5130.673329
_symmetry_space_group_name_H-M "I B A M"
_symmetry_group_IT_number 72
_symmetry_cell_setting 'orthorhombic'
loop_
_space_group_symop_operation_xyz
x,y,z
-x,-y,z
x,-y,1/2-z
-x,y,1/2-z
-x,-y,-z
x,y,-z
-x,y,1/2+z
x,-y,1/2+z
1/2+x,1/2+y,1/2+z
1/2-x,1/2-y,1/2+z
1/2+x,1/2-y,-z
1/2-x,1/2+y,-z
1/2-x,1/2-y,1/2-z
1/2+x,1/2+y,1/2-z
1/2-x,1/2+y,z
1/2+x,1/2-y,z
loop_
_atom_site_type_symbol
_atom_site_label
_atom_site_fract_x
_atom_site_fract_y
_atom_site_fract_z
Si Si1 0.331345 0.172367 0.688032
Si Si2 0.992197 0.769082 0.147925
Si Si3 0.384660 0.161125 0.553094
Si Si4 0.165235 0.150574 0.782144
Si Si5 0.704936 0.047801 0.662271
Si Si6 0.500000 0.000000 0.250000
Si Si7 0.727160 0.285812 0.054331
Si Si8 0.831944 0.430798 0.628833
O O1 0.175896 0.203132 0.659294
O O2 0.491378 0.201987 0.660471
O O3 0.310999 0.169467 0.744308
O O4 0.311359 0.106960 0.675249
O O5 0.882043 0.792143 0.191812
O O6 0.902342 0.791480 0.099497
O O7 0.391685 0.138510 0.500000
O O8 0.265009 0.217292 0.553385
O O9 0.583740 0.184999 0.562265
O O10 0.305514 0.112192 0.585798
O O11 0.190983 0.103541 0.823191
O O12 0.000000 0.132695 0.750000
O O13 0.540366 0.059619 0.628517
O O14 0.623696 0.032931 0.713823
O O15 0.770982 0.989082 0.638598
O O16 0.670054 0.301564 0.000000
#
# Coordination Sequence:
#
# PCOD9526777 Si02
#       8
#    16  16  16  16  16   4  16  16
#     4  11  23  37  56  87 122 156 196 242 301 368
#     4  11  22  37  55  85 126 157 194 241 309 367
#     4  10  20  35  57  89 123 157 201 255 310 371
#     4  10  22  38  56  84 116 156 199 248 304 367
#     4  10  20  37  59  81 107 150 203 242 295 341
#     4   8  16  32  50  76  94 128 192 234 268 334
#     4  10  20  34  57  87 122 165 203 247 310 374
#     4  10  21  37  59  84 114 155 205 251 296 356
#
# _framework density 22.609117999999999
#
# number of rings (size 3 to 8) (size 9 to 14) (size 15 to 20)
#    0.000    1.931    1.379    3.724    1.931    0.000 
#    0.000    9.310    0.000    0.828    0.000    0.000 
#    0.000   14.345    0.000    0.000    0.000    0.000 
#
# Total GULP energy -322882.136130 kJ/mol
# GULP energy per Si atom -5566.933382 kJ/mol
# Density = 2.255766 g / cm^3
# Si number density = 22.609118 Si / 1000 Ang^3
#
#
#
# Elastic Constant Matrix: (Units=GPa)
#
#
# Indices 1 2 3 4 5 6 
#
# 1 50.4754 8.7226 0.1144 0.0000 0.0000 0.0000
# 2 8.7226 89.8369 30.5027 0.0000 0.0000 0.0000
# 3 0.1144 30.5027 85.7367 0.0000 0.0000 0.0000
# 4 0.0000 0.0000 0.0000 33.0760 0.0000 0.0000
# 5 0.0000 0.0000 0.0000 0.0000 22.3342 0.0000
# 6 0.0000 0.0000 0.0000 0.0000 0.0000 14.9361
#
#
#
# Elastic Compliance Matrix: (Units=1/GPa)
#
#
# Indices 1 2 3 4 5 6 
#
# 1 0.020193 -0.002220 0.000763 0.000000 0.000000 0.000000
# 2 -0.002220 0.012905 -0.004588 0.000000 0.000000 0.000000
# 3 0.000763 -0.004588 0.013295 0.000000 0.000000 0.000000
# 4 0.000000 0.000000 0.000000 0.030233 0.000000 0.000000
# 5 0.000000 0.000000 0.000000 0.000000 0.044774 0.000000
# 6 0.000000 0.000000 0.000000 0.000000 0.000000 0.066952
#
#
# Mechanical properties :
#
#
# Convention : Reuss Voigt Hill
#
# Bulk Modulus (GPa) = 29.15203 33.85873 31.50538
# Shear Modulus (GPa) = 23.59858 26.51653 25.05756
#
# Velocity S-wave (km/s) = 3.23424 3.42837 3.33272
# Velocity P-wave (km/s) = 5.18353 5.53894 5.36418
#
# Compressibility (1/GPa) = 0.03430293
#
# Stress axis : x y z
#
# Youngs Moduli (GPa) = 49.52096 77.49153 75.21666
#
# Poissons Ratio (x) = 0.17200 -0.05737
# Poissons Ratio (y) = 0.10992 0.34510
# Poissons Ratio (z) = -0.03777 0.35554
#
# Static dielectric constant tensor:
#      x y z
#    x 2.027160 0.000000 0.000000 
#    y 0.000000 1.929790 0.000000 
#    z 0.000000 0.000000 1.865290 
# 
# From -- ./inp_files/50995.got.cif
#   From: 2010.05.17/outbox.cif.g08.bks.cpg/sg72_26_cif.got.tgz:50995.got - 2010.06.03 17:03:01.
