data_PCOD9526975
_publ_section_title
;
Structure prediction by ZEFSAII (Michael W. Deem and Ramdas Pophale) SiO2 
 PCOD9526975
Probable space group: I B A M
;
_chemical_formula_sum "Si O2"
_cell_formula_units_Z 84
_cell_length_a 12.112017
_cell_length_b 17.173256
_cell_length_c 21.152050
_cell_angle_alpha 90.000000
_cell_angle_beta 90.000000
_cell_angle_gamma 90.000000
_cell_volume 4399.684962
_symmetry_space_group_name_H-M "I B A M"
_symmetry_group_IT_number 72
_symmetry_cell_setting 'orthorhombic'
loop_
_space_group_symop_operation_xyz
x,y,z
-x,-y,z
x,-y,1/2-z
-x,y,1/2-z
-x,-y,-z
x,y,-z
-x,y,1/2+z
x,-y,1/2+z
1/2+x,1/2+y,1/2+z
1/2-x,1/2-y,1/2+z
1/2+x,1/2-y,-z
1/2-x,1/2+y,-z
1/2-x,1/2-y,1/2-z
1/2+x,1/2+y,1/2-z
1/2-x,1/2+y,z
1/2+x,1/2-y,z
loop_
_atom_site_type_symbol
_atom_site_label
_atom_site_fract_x
_atom_site_fract_y
_atom_site_fract_z
Si Si1 0.086867 0.071564 0.925726
Si Si2 0.094560 0.344768 0.699093
Si Si3 0.164062 0.522305 0.888119
Si Si4 0.761062 0.923339 0.286185
Si Si5 0.500000 0.000000 0.500000
Si Si6 0.037463 0.832850 0.822625
O O1 0.210427 0.044495 0.907528
O O2 0.047580 0.137528 0.875653
O O3 0.085075 0.095909 0.000000
O O4 0.000000 0.000000 0.919409
O O5 0.104351 0.401795 0.640124
O O6 0.208458 0.361594 0.737602
O O7 0.069589 0.257757 0.676003
O O8 0.000000 0.364222 0.750000
O O9 0.169714 0.460331 0.831528
O O10 0.095241 0.491512 0.945651
O O11 0.852088 0.883074 0.328681
O O12 0.806922 0.000000 0.250000
O O13 0.000000 0.848223 0.750000
#
# Coordination Sequence:
#
# PCOD9526975 Si02
#       6
#    16  16  16  16   4  16
#     4  11  23  42  65  94 133 172 226 280 332 398
#     4  10  22  39  59  92 135 169 212 270 335 397
#     4  11  22  41  66  93 129 172 223 273 325 403
#     4  10  20  35  62  94 123 161 214 272 329 389
#     4  12  24  40  64  92 120 168 222 258 312 382
#     4  11  22  37  65  96 131 169 218 272 336 393
#
# _framework density 19.092275000000001
#
# number of rings (size 3 to 8) (size 9 to 14) (size 15 to 20)
#    0.000    1.333    2.857    4.000    0.000    4.190 
#    1.714    0.000    0.000    0.000    0.000    0.000 
#    0.000    0.000    0.000    0.000    0.000    0.000 
#
# Total GULP energy -233871.289416 kJ/mol
# GULP energy per Si atom -5568.364034 kJ/mol
# Density = 1.904882 g / cm^3
# Si number density = 19.092275 Si / 1000 Ang^3
#
#
#
# Elastic Constant Matrix: (Units=GPa)
#
#
# Indices 1 2 3 4 5 6 
#
# 1 67.1596 35.2322 -0.2598 0.0000 0.0000 0.0000
# 2 35.2322 79.0344 51.6720 0.0000 0.0000 0.0000
# 3 -0.2598 51.6720 99.7068 0.0000 0.0000 0.0000
# 4 0.0000 0.0000 0.0000 27.8020 0.0000 0.0000
# 5 0.0000 0.0000 0.0000 0.0000 14.0876 0.0000
# 6 0.0000 0.0000 0.0000 0.0000 0.0000 17.7722
#
#
#
# Elastic Compliance Matrix: (Units=1/GPa)
#
#
# Indices 1 2 3 4 5 6 
#
# 1 0.023136 -0.015658 0.008175 0.000000 0.000000 0.000000
# 2 -0.015658 0.029734 -0.015450 0.000000 0.000000 0.000000
# 3 0.008175 -0.015450 0.018058 0.000000 0.000000 0.000000
# 4 0.000000 0.000000 0.000000 0.035969 0.000000 0.000000
# 5 0.000000 0.000000 0.000000 0.000000 0.070985 0.000000
# 6 0.000000 0.000000 0.000000 0.000000 0.000000 0.056268
#
#
# Mechanical properties :
#
#
# Convention : Reuss Voigt Hill
#
# Bulk Modulus (GPa) = 39.90314 46.57663 43.23988
# Shear Modulus (GPa) = 17.33886 22.54944 19.94415
#
# Velocity S-wave (km/s) = 3.01684 3.44041 3.23556
# Velocity P-wave (km/s) = 5.75158 6.34274 6.05438
#
# Compressibility (1/GPa) = 0.02506069
#
# Stress axis : x y z
#
# Youngs Moduli (GPa) = 43.22270 33.63126 55.37818
#
# Poissons Ratio (x) = 0.52661 -0.45272
# Poissons Ratio (y) = 0.67680 0.85561
# Poissons Ratio (z) = -0.35335 0.51961
#
# Static dielectric constant tensor:
#      x y z
#    x 1.693180 0.000000 0.000000 
#    y 0.000000 1.667400 0.000000 
#    z 0.000000 0.000000 1.653510 
# 
# From -- ./inp_files/36815.got.cif
#   From: 2010.05.17/outbox.cif.g08.bks.cpg/sg72_19_cif.got.tgz:36815.got - 2010.06.03 17:03:01.
