data_PCOD9526560
_publ_section_title
;
Structure prediction by ZEFSAII (Michael W. Deem and Ramdas Pophale) SiO2 
 PCOD9526560
Probable space group: I B A M
;
_chemical_formula_sum "Si O2"
_cell_formula_units_Z 80
_cell_length_a 17.840731
_cell_length_b 22.846986
_cell_length_c 8.956296
_cell_angle_alpha 90.000000
_cell_angle_beta 90.000000
_cell_angle_gamma 90.000000
_cell_volume 3650.648329
_symmetry_space_group_name_H-M "I B A M"
_symmetry_group_IT_number 72
_symmetry_cell_setting 'orthorhombic'
loop_
_space_group_symop_operation_xyz
x,y,z
-x,-y,z
x,-y,1/2-z
-x,y,1/2-z
-x,-y,-z
x,y,-z
-x,y,1/2+z
x,-y,1/2+z
1/2+x,1/2+y,1/2+z
1/2-x,1/2-y,1/2+z
1/2+x,1/2-y,-z
1/2-x,1/2+y,-z
1/2-x,1/2-y,1/2-z
1/2+x,1/2+y,1/2-z
1/2-x,1/2+y,z
1/2+x,1/2-y,z
loop_
_atom_site_type_symbol
_atom_site_label
_atom_site_fract_x
_atom_site_fract_y
_atom_site_fract_z
Si Si1 0.668820 0.165725 0.323209
Si Si2 0.576343 0.593511 0.676868
Si Si3 0.923826 0.777995 0.678743
Si Si4 0.612425 0.057691 0.831092
Si Si5 0.779832 0.088296 0.168033
O O1 0.678663 0.157295 0.500000
O O2 0.640774 0.230800 0.293638
O O3 0.608284 0.117776 0.262790
O O4 0.744585 0.147792 0.237557
O O5 0.500000 0.569953 0.750000
O O6 0.569282 0.593447 0.500000
O O7 0.585057 0.659583 0.741498
O O8 0.653830 0.565063 0.729751
O O9 0.931845 0.785877 0.500000
O O10 0.000000 0.752873 0.750000
O O11 0.703549 0.051071 0.841098
O O12 0.583582 0.000000 0.750000
O O13 0.584083 0.064063 0.000000
O O14 0.808265 0.097397 0.000000
#
# Coordination Sequence:
#
# PCOD9526560 Si02
#       5
#    16  16  16  16  16
#     4   9  18  32  50  74  99 128 165 203 245 288
#     4  11  21  33  51  71  99 135 167 203 242 290
#     4  10  20  33  50  71 100 135 168 203 241 292
#     4   9  18  31  52  75  99 127 158 201 247 296
#     4   9  19  33  50  74  99 128 164 203 244 289
#
# _framework density 21.913914999999999
#
# number of rings (size 3 to 8) (size 9 to 14) (size 15 to 20)
#    1.200    1.200    0.000    4.800    0.000    4.000 
#    0.000    0.000    0.000    1.200    0.000    8.400 
#    0.000    0.000    0.000    0.000    0.000    0.000 
#
# Total GULP energy -222996.754390 kJ/mol
# GULP energy per Si atom -5574.918860 kJ/mol
# Density = 2.186404 g / cm^3
# Si number density = 21.913915 Si / 1000 Ang^3
#
#
#
# Elastic Constant Matrix: (Units=GPa)
#
#
# Indices 1 2 3 4 5 6 
#
# 1 78.5853 9.7847 27.6500 0.0000 0.0000 0.0000
# 2 9.7847 79.9580 30.5127 0.0000 0.0000 0.0000
# 3 27.6500 30.5127 139.3485 0.0000 0.0000 0.0000
# 4 0.0000 0.0000 0.0000 18.6521 0.0000 0.0000
# 5 0.0000 0.0000 0.0000 0.0000 24.8589 0.0000
# 6 0.0000 0.0000 0.0000 0.0000 0.0000 -41.1874
#
#
#
# Elastic Compliance Matrix: (Units=1/GPa)
#
#
# Indices 1 2 3 4 5 6 
#
# 1 0.013716 -0.000698 -0.002569 0.000000 0.000000 0.000000
# 2 -0.000698 0.013682 -0.002857 0.000000 0.000000 0.000000
# 3 -0.002569 -0.002857 0.008312 0.000000 0.000000 0.000000
# 4 0.000000 0.000000 0.000000 0.053613 0.000000 0.000000
# 5 0.000000 0.000000 0.000000 0.000000 0.040227 0.000000
# 6 0.000000 0.000000 0.000000 0.000000 0.000000 -0.024279
#
#
# Mechanical properties :
#
#
# Convention : Reuss Voigt Hill
#
# Bulk Modulus (GPa) = 42.62360 48.19850 45.41105
# Shear Modulus (GPa) = 39.89152 15.79435 27.84293
#
# Velocity S-wave (km/s) = 4.27121 2.68758 3.56836
# Velocity P-wave (km/s) = 6.61944 5.62788 6.14370
#
# Compressibility (1/GPa) = 0.02346118
#
# Stress axis : x y z
#
# Youngs Moduli (GPa) = 72.90895 73.08635 120.31351
#
# Poissons Ratio (x) = 0.05103 0.30904
# Poissons Ratio (y) = 0.05091 0.34379
# Poissons Ratio (z) = 0.18728 0.20884
#
# Static dielectric constant tensor:
#      x y z
#    x 1.887290 0.000000 0.000000 
#    y 0.000000 1.813300 0.000000 
#    z 0.000000 0.000000 1.765930 
# 
# From -- ./inp_files/5031.got.cif
#   From: 2010.05.17/outbox.cif.g08.bks.cpg/sg72_3_cif.got.tgz:5031.got - 2010.06.03 17:03:01.
