data_PCOD9526321
_publ_section_title
;
Structure prediction by ZEFSAII (Michael W. Deem and Ramdas Pophale) SiO2 
 PCOD9526321
Probable space group: I B A M
;
_chemical_formula_sum "Si O2"
_cell_formula_units_Z 120
_cell_length_a 24.928230
_cell_length_b 12.721100
_cell_length_c 21.235887
_cell_angle_alpha 90.000000
_cell_angle_beta 90.000000
_cell_angle_gamma 90.000000
_cell_volume 6734.207829
_symmetry_space_group_name_H-M "I B A M"
_symmetry_group_IT_number 72
_symmetry_cell_setting 'orthorhombic'
loop_
_space_group_symop_operation_xyz
x,y,z
-x,-y,z
x,-y,1/2-z
-x,y,1/2-z
-x,-y,-z
x,y,-z
-x,y,1/2+z
x,-y,1/2+z
1/2+x,1/2+y,1/2+z
1/2-x,1/2-y,1/2+z
1/2+x,1/2-y,-z
1/2-x,1/2+y,-z
1/2-x,1/2-y,1/2-z
1/2+x,1/2+y,1/2-z
1/2-x,1/2+y,z
1/2+x,1/2-y,z
loop_
_atom_site_type_symbol
_atom_site_label
_atom_site_fract_x
_atom_site_fract_y
_atom_site_fract_z
Si Si1 0.325735 0.404766 0.902409
Si Si2 0.669773 0.046281 0.377768
Si Si3 0.054049 0.717704 0.785706
Si Si4 0.893286 0.500000 0.250000
Si Si5 0.292420 0.833006 0.068291
Si Si6 0.909295 0.727340 0.427370
Si Si7 0.644032 0.387517 0.738568
Si Si8 0.791936 0.121145 0.635832
O O1 0.270853 0.359481 0.929576
O O2 0.376418 0.337992 0.926145
O O3 0.325719 0.385099 0.827617
O O4 0.322410 0.531616 0.905759
O O5 0.644107 0.008437 0.311848
O O6 0.632959 0.133554 0.411600
O O7 0.728891 0.095047 0.368071
O O8 0.677454 0.940917 0.417713
O O9 0.069887 0.602585 0.759622
O O10 0.053722 0.723400 0.863230
O O11 0.101809 0.794360 0.763962
O O12 0.000000 0.749638 0.750000
O O13 0.303302 0.738914 0.115052
O O14 0.306878 0.792602 0.000000
O O15 0.930024 0.713994 0.500000
O O16 0.615449 0.500000 0.750000
O O17 0.687083 0.384281 0.793504
#
# Coordination Sequence:
#
# PCOD9526321 Si02
#       8
#    16  16  16   8  16  16  16  16
#     4   9  19  31  47  72 103 144 178 220 257 307
#     4  10  21  32  51  76 108 148 179 220 264 319
#     4  10  21  38  60  83 105 137 181 236 291 324
#     4  10  21  36  56  82 104 138 179 224 280 322
#     4  11  21  30  43  69 106 151 186 210 250 307
#     4  10  19  36  56  80 108 139 182 224 267 332
#     4   9  19  35  53  80 107 133 180 224 274 326
#     4  10  20  31  49  75 110 148 182 220 261 320
#
# _framework density 17.819468000000001
#
# number of rings (size 3 to 8) (size 9 to 14) (size 15 to 20)
#    0.000    2.133    1.333    1.800    4.667    3.467 
#    0.000    0.000    0.000    9.600    0.000    8.400 
#    0.000    0.000    0.000    0.000    0.000    0.000 
#
# Total GULP energy -334154.166366 kJ/mol
# GULP energy per Si atom -5569.236106 kJ/mol
# Density = 1.777891 g / cm^3
# Si number density = 17.819468 Si / 1000 Ang^3
#
#
#
# Elastic Constant Matrix: (Units=GPa)
#
#
# Indices 1 2 3 4 5 6 
#
# 1 36.2035 5.6741 20.1560 0.0000 0.0000 0.0000
# 2 5.6741 65.5098 20.5199 0.0000 0.0000 0.0000
# 3 20.1560 20.5199 96.6543 0.0000 0.0000 0.0000
# 4 0.0000 0.0000 0.0000 0.4037 0.0000 0.0000
# 5 0.0000 0.0000 0.0000 0.0000 48.6912 0.0000
# 6 0.0000 0.0000 0.0000 0.0000 0.0000 24.0575
#
#
#
# Elastic Compliance Matrix: (Units=1/GPa)
#
#
# Indices 1 2 3 4 5 6 
#
# 1 0.031281 -0.000714 -0.006372 0.000000 0.000000 0.000000
# 2 -0.000714 0.016369 -0.003326 0.000000 0.000000 0.000000
# 3 -0.006372 -0.003326 0.012381 0.000000 0.000000 0.000000
# 4 0.000000 0.000000 0.000000 2.477358 0.000000 0.000000
# 5 0.000000 0.000000 0.000000 0.000000 0.020538 0.000000
# 6 0.000000 0.000000 0.000000 0.000000 0.000000 0.041567
#
#
# Mechanical properties :
#
#
# Convention : Reuss Voigt Hill
#
# Bulk Modulus (GPa) = 25.50540 32.34086 28.92313
# Shear Modulus (GPa) = 1.89870 24.76499 13.33184
#
# Velocity S-wave (km/s) = 1.03336 3.73201 2.73822
# Velocity P-wave (km/s) = 3.97090 6.06293 5.12480
#
# Compressibility (1/GPa) = 0.03920738
#
# Stress axis : x y z
#
# Youngs Moduli (GPa) = 31.96844 61.09263 80.76846
#
# Poissons Ratio (x) = 0.04359 0.51464
# Poissons Ratio (y) = 0.02281 0.26866
# Poissons Ratio (z) = 0.20369 0.20321
#
# Static dielectric constant tensor:
#      x y z
#    x 1.582830 0.000000 0.000000 
#    y 0.000000 1.640340 0.000000 
#    z 0.000000 0.000000 1.612900 
# 
# From -- ./inp_files/40915.got.cif
#   From: 2010.05.17/outbox.cif.g08.bks.cpg/sg72_21_cif.got.tgz:40915.got - 2010.06.03 17:03:01.
