data_PCOD9526511
_publ_section_title
;
Structure prediction by ZEFSAII (Michael W. Deem and Ramdas Pophale) SiO2 
 PCOD9526511
Probable space group: I B A M
;
_chemical_formula_sum "Si O2"
_cell_formula_units_Z 80
_cell_length_a 10.329359
_cell_length_b 17.476886
_cell_length_c 19.130770
_cell_angle_alpha 90.000000
_cell_angle_beta 90.000000
_cell_angle_gamma 90.000000
_cell_volume 3453.582822
_symmetry_space_group_name_H-M "I B A M"
_symmetry_group_IT_number 72
_symmetry_cell_setting 'orthorhombic'
loop_
_space_group_symop_operation_xyz
x,y,z
-x,-y,z
x,-y,1/2-z
-x,y,1/2-z
-x,-y,-z
x,y,-z
-x,y,1/2+z
x,-y,1/2+z
1/2+x,1/2+y,1/2+z
1/2-x,1/2-y,1/2+z
1/2+x,1/2-y,-z
1/2-x,1/2+y,-z
1/2-x,1/2-y,1/2-z
1/2+x,1/2+y,1/2-z
1/2-x,1/2+y,z
1/2+x,1/2-y,z
loop_
_atom_site_type_symbol
_atom_site_label
_atom_site_fract_x
_atom_site_fract_y
_atom_site_fract_z
Si Si1 0.741460 0.122211 0.634932
Si Si2 0.358044 0.035506 0.420754
Si Si3 0.560988 0.653283 0.000000
Si Si4 0.525365 0.411095 0.350183
Si Si5 0.736064 0.284403 0.000000
Si Si6 0.711401 0.088506 0.221446
O O1 0.710909 0.175448 0.570203
O O2 0.666197 0.131082 0.708205
O O3 0.890980 0.133099 0.655660
O O4 0.730813 0.036128 0.603163
O O5 0.328976 0.060624 0.500000
O O6 0.358100 0.091783 0.353835
O O7 0.500000 0.000000 0.423036
O O8 0.563159 0.602180 0.069356
O O9 0.421680 0.701326 0.000000
O O10 0.689013 0.704887 0.000000
O O11 0.500000 0.500000 0.335895
O O12 0.643460 0.388735 0.300901
O O13 0.708853 0.000000 0.250000
#
# Coordination Sequence:
#
# PCOD9526511 Si02
#       6
#    16  16   8  16   8  16
#     4  10  20  35  61  83 123 167 194 252 313 372
#     4  10  20  33  50  86 128 165 194 244 310 381
#     4  10  25  40  66  84 125 170 224 268 306 372
#     4  11  19  34  61  99 124 145 196 268 334 381
#     4  10  22  48  59  86 119 174 224 260 308 372
#     4  10  20  31  57  94 128 153 190 251 325 396
#
# _framework density 23.164348
#
# number of rings (size 3 to 8) (size 9 to 14) (size 15 to 20)
#    0.000    1.800    5.000    0.900    1.400    3.600 
#    3.600    1.000    0.000    0.000    0.000    0.000 
#    0.000    0.000    0.000    0.000    0.000    0.000 
#
# Total GULP energy -223039.057556 kJ/mol
# GULP energy per Si atom -5575.976439 kJ/mol
# Density = 2.311163 g / cm^3
# Si number density = 23.164348 Si / 1000 Ang^3
#
#
#
# Elastic Constant Matrix: (Units=GPa)
#
#
# Indices 1 2 3 4 5 6 
#
# 1 52.8337 6.7272 39.5080 0.0000 0.0000 0.0000
# 2 6.7272 25.5207 32.5757 0.0000 0.0000 0.0000
# 3 39.5080 32.5757 283.4739 0.0000 0.0000 0.0000
# 4 0.0000 0.0000 0.0000 -2.1652 0.0000 0.0000
# 5 0.0000 0.0000 0.0000 0.0000 43.3026 0.0000
# 6 0.0000 0.0000 0.0000 0.0000 0.0000 5.9747
#
#
#
# Elastic Compliance Matrix: (Units=1/GPa)
#
#
# Indices 1 2 3 4 5 6 
#
# 1 0.021228 -0.002132 -0.002714 0.000000 0.000000 0.000000
# 2 -0.002132 0.046134 -0.005004 0.000000 0.000000 0.000000
# 3 -0.002714 -0.005004 0.004481 0.000000 0.000000 0.000000
# 4 0.000000 0.000000 0.000000 -0.461855 0.000000 0.000000
# 5 0.000000 0.000000 0.000000 0.000000 0.023093 0.000000
# 6 0.000000 0.000000 0.000000 0.000000 0.000000 0.167371
#
#
# Mechanical properties :
#
#
# Convention : Reuss Voigt Hill
#
# Bulk Modulus (GPa) = 19.17810 57.71666 38.44738
# Shear Modulus (GPa) = -30.77533 28.29026 -1.24253
#
# Velocity S-wave (km/s) = -3.64890 3.49848 -0.73319
# Velocity P-wave (km/s) = 3.07498 6.42568 3.98960
#
# Compressibility (1/GPa) = 0.05214280
#
# Stress axis : x y z
#
# Youngs Moduli (GPa) = 47.10776 21.67614 223.16782
#
# Poissons Ratio (x) = 0.04621 0.60558
# Poissons Ratio (y) = 0.10043 1.11681
# Poissons Ratio (z) = 0.12783 0.10848
#
# Static dielectric constant tensor:
#      x y z
#    x 2.012660 0.000000 0.000000 
#    y 0.000000 1.855270 0.000000 
#    z 0.000000 0.000000 1.948610 
# 
# From -- ./inp_files/29201.got.cif
#   From: 2010.05.17/outbox.cif.g08.bks.cpg/sg72_15_cif.got.tgz:29201.got - 2010.06.03 17:03:01.
