data_PCOD9526364
_publ_section_title
;
Structure prediction by ZEFSAII (Michael W. Deem and Ramdas Pophale) SiO2 
 PCOD9526364
Probable space group: I B A M
;
_chemical_formula_sum "Si O2"
_cell_formula_units_Z 60
_cell_length_a 25.771410
_cell_length_b 8.748100
_cell_length_c 9.506531
_cell_angle_alpha 90.000000
_cell_angle_beta 90.000000
_cell_angle_gamma 90.000000
_cell_volume 2143.255702
_symmetry_space_group_name_H-M "I B A M"
_symmetry_group_IT_number 72
_symmetry_cell_setting 'orthorhombic'
loop_
_space_group_symop_operation_xyz
x,y,z
-x,-y,z
x,-y,1/2-z
-x,y,1/2-z
-x,-y,-z
x,y,-z
-x,y,1/2+z
x,-y,1/2+z
1/2+x,1/2+y,1/2+z
1/2-x,1/2-y,1/2+z
1/2+x,1/2-y,-z
1/2-x,1/2+y,-z
1/2-x,1/2-y,1/2-z
1/2+x,1/2+y,1/2-z
1/2-x,1/2+y,z
1/2+x,1/2-y,z
loop_
_atom_site_type_symbol
_atom_site_label
_atom_site_fract_x
_atom_site_fract_y
_atom_site_fract_z
Si Si1 0.035059 0.168119 0.500000
Si Si2 0.940361 0.657549 0.000000
Si Si3 0.129145 0.612187 0.000000
Si Si4 0.826331 0.243191 0.292357
Si Si5 0.260018 0.000000 0.750000
Si Si6 0.500000 0.000000 0.250000
Si Si7 0.088927 0.000000 0.250000
O O1 0.069150 0.325016 0.500000
O O2 0.026555 0.813933 0.500000
O O3 0.055255 0.088464 0.361228
O O4 0.884504 0.572082 0.000000
O O5 0.963682 0.596734 0.147983
O O6 0.156721 0.692157 0.135717
O O7 0.797386 0.396385 0.344821
O O8 0.875168 0.132268 0.325551
O O9 0.779658 0.121924 0.314032
#
# Coordination Sequence:
#
# PCOD9526364 Si02
#       7
#     8   8   8  16   8   4   8
#     4  10  19  42  67 102 140 193 245 316 379 447
#     4  11  22  42  74 106 143 187 256 328 383 454
#     4  10  19  36  63 104 135 182 244 306 367 439
#     4   9  19  35  61  99 139 184 229 295 358 455
#     4   9  18  37  58  94 146 183 229 286 369 445
#     4  10  20  40  68 110 132 186 234 340 382 450
#     4   9  20  38  68 102 145 188 246 304 377 443
#
# _framework density 27.994792
#
# number of rings (size 3 to 8) (size 9 to 14) (size 15 to 20)
#    0.000    2.400    2.667    0.000    0.000    2.133 
#    0.000   12.000    0.000    2.400    0.000    0.000 
#    0.000    0.000    0.000    0.000    0.000    0.000 
#
# Total GULP energy -167165.789269 kJ/mol
# GULP energy per Si atom -5572.192976 kJ/mol
# Density = 2.793107 g / cm^3
# Si number density = 27.994792 Si / 1000 Ang^3
#
#
#
# Elastic Constant Matrix: (Units=GPa)
#
#
# Indices 1 2 3 4 5 6 
#
# 1 236.6070 75.0302 64.1243 0.0000 0.0000 0.0000
# 2 75.0302 191.0833 16.8257 0.0000 0.0000 0.0000
# 3 64.1243 16.8257 120.6949 0.0000 0.0000 0.0000
# 4 0.0000 0.0000 0.0000 207.1233 0.0000 0.0000
# 5 0.0000 0.0000 0.0000 0.0000 2.4883 0.0000
# 6 0.0000 0.0000 0.0000 0.0000 0.0000 59.7790
#
#
#
# Elastic Compliance Matrix: (Units=1/GPa)
#
#
# Indices 1 2 3 4 5 6 
#
# 1 0.005574 -0.001952 -0.002689 0.000000 0.000000 0.000000
# 2 -0.001952 0.005982 0.000203 0.000000 0.000000 0.000000
# 3 -0.002689 0.000203 0.009686 0.000000 0.000000 0.000000
# 4 0.000000 0.000000 0.000000 0.004828 0.000000 0.000000
# 5 0.000000 0.000000 0.000000 0.000000 0.401879 0.000000
# 6 0.000000 0.000000 0.000000 0.000000 0.000000 0.016728
#
#
# Mechanical properties :
#
#
# Convention : Reuss Voigt Hill
#
# Bulk Modulus (GPa) = 80.86986 95.59394 88.23190
# Shear Modulus (GPa) = 10.92477 80.03846 45.48161
#
# Velocity S-wave (km/s) = 1.97760 5.35281 4.03506
# Velocity P-wave (km/s) = 5.84506 8.51026 7.30032
#
# Compressibility (1/GPa) = 0.01236555
#
# Stress axis : x y z
#
# Youngs Moduli (GPa) = 179.39510 167.17147 103.24258
#
# Poissons Ratio (x) = 0.32631 0.27767
# Poissons Ratio (y) = 0.35017 -0.02097
# Poissons Ratio (z) = 0.48248 -0.03396
#
# Static dielectric constant tensor:
#      x y z
#    x 2.202930 0.000000 0.000000 
#    y 0.000000 2.319120 0.000000 
#    z 0.000000 0.000000 2.153080 
# 
# From -- ./inp_files/16014.got.cif
#   From: 2010.05.17/outbox.cif.g08.bks.cpg/sg72_9_cif.got.tgz:16014.got - 2010.06.03 17:03:01.
