data_PCOD9526144
_publ_section_title
;
Structure prediction by ZEFSAII (Michael W. Deem and Ramdas Pophale) SiO2 
 PCOD9526144
Probable space group: I B A M
;
_chemical_formula_sum "Si O2"
_cell_formula_units_Z 72
_cell_length_a 12.874359
_cell_length_b 26.839407
_cell_length_c 9.213268
_cell_angle_alpha 90.000000
_cell_angle_beta 90.000000
_cell_angle_gamma 90.000000
_cell_volume 3183.554109
_symmetry_space_group_name_H-M "I B A M"
_symmetry_group_IT_number 72
_symmetry_cell_setting 'orthorhombic'
loop_
_space_group_symop_operation_xyz
x,y,z
-x,-y,z
x,-y,1/2-z
-x,y,1/2-z
-x,-y,-z
x,y,-z
-x,y,1/2+z
x,-y,1/2+z
1/2+x,1/2+y,1/2+z
1/2-x,1/2-y,1/2+z
1/2+x,1/2-y,-z
1/2-x,1/2+y,-z
1/2-x,1/2-y,1/2-z
1/2+x,1/2+y,1/2-z
1/2-x,1/2+y,z
1/2+x,1/2-y,z
loop_
_atom_site_type_symbol
_atom_site_label
_atom_site_fract_x
_atom_site_fract_y
_atom_site_fract_z
Si Si1 0.500000 0.263729 0.750000
Si Si2 0.147645 0.158555 0.842925
Si Si3 0.157752 0.687420 0.332370
Si Si4 0.679061 0.452346 0.171648
Si Si5 0.395180 0.071793 0.668758
O O1 0.448533 0.304460 0.645630
O O2 0.594035 0.224701 0.729105
O O3 0.225849 0.180235 0.724001
O O4 0.123560 0.101090 0.807542
O O5 0.202798 0.157044 0.000000
O O6 0.153817 0.705245 0.500000
O O7 0.109623 0.632161 0.330167
O O8 0.630390 0.500000 0.250000
O O9 0.792802 0.445068 0.244542
O O10 0.687691 0.461592 0.000000
O O11 0.500000 0.056423 0.750000
O O12 0.392336 0.055670 0.500000
#
# Coordination Sequence:
#
# PCOD9526144 Si02
#       5
#     8  16  16  16  16
#     4  12  22  38  61  92 125 164 204 246 300 360
#     4  10  24  42  63  92 125 161 207 258 306 366
#     4  10  22  38  60  90 126 167 206 248 303 363
#     4  10  21  40  62  86 116 155 201 255 313 364
#     4  10  19  34  56  88 123 158 199 245 299 363
#
# _framework density 22.616232
#
# number of rings (size 3 to 8) (size 9 to 14) (size 15 to 20)
#    0.000    1.778    1.111    2.667    0.000    5.778 
#    0.000    2.778    0.000    2.667    0.000    0.000 
#    0.000    0.000    0.000    0.000    0.000    0.000 
#
# Total GULP energy -200772.702247 kJ/mol
# GULP energy per Si atom -5577.019507 kJ/mol
# Density = 2.256476 g / cm^3
# Si number density = 22.616232 Si / 1000 Ang^3
#
#
#
# Elastic Constant Matrix: (Units=GPa)
#
#
# Indices 1 2 3 4 5 6 
#
# 1 52.4248 35.2715 55.8761 -0.0002 0.0001 0.0000
# 2 35.2715 177.6443 52.0140 -0.0003 0.0001 0.0000
# 3 55.8761 52.0140 101.1880 -0.0005 0.0008 -0.0001
# 4 -0.0002 -0.0003 -0.0005 -2.5674 0.0004 -0.0001
# 5 0.0001 0.0001 0.0008 0.0004 10.1531 -0.0001
# 6 0.0000 0.0000 -0.0001 -0.0001 -0.0001 -4.8486
#
#
#
# Elastic Compliance Matrix: (Units=1/GPa)
#
#
# Indices 1 2 3 4 5 6 
#
# 1 0.046980 -0.002039 -0.024894 0.000001 0.000002 0.000001
# 2 -0.002039 0.006715 -0.002326 0.000000 0.000000 0.000000
# 3 -0.024894 -0.002326 0.024825 -0.000003 -0.000002 -0.000001
# 4 0.000001 0.000000 -0.000003 -0.389495 0.000017 0.000012
# 5 0.000002 0.000000 -0.000002 0.000017 0.098492 -0.000001
# 6 0.000001 0.000000 -0.000001 0.000012 -0.000001 -0.206245
#
#
# Mechanical properties :
#
#
# Convention : Reuss Voigt Hill
#
# Bulk Modulus (GPa) = 49.99589 68.62004 59.30796
# Shear Modulus (GPa) = -14.14253 13.08712 -0.52771
#
# Velocity S-wave (km/s) = -2.50337 2.40815 -0.48357
# Velocity P-wave (km/s) = 3.71462 6.17569 5.09596
#
# Compressibility (1/GPa) = 0.02000164
#
# Stress axis : x y z
#
# Youngs Moduli (GPa) = 21.28576 148.91871 40.28239
#
# Poissons Ratio (x) = 0.30363 1.00280
# Poissons Ratio (y) = 0.04340 0.09369
# Poissons Ratio (z) = 0.52989 0.34637
#
# Static dielectric constant tensor:
#      x y z
#    x 1.807880 0.000000 0.000000 
#    y 0.000000 1.879180 0.000000 
#    z 0.000000 0.000000 2.588460 
# 
# From -- ./inp_files/3698.got.cif
#   From: 2010.05.17/outbox.cif.g08.bks.cpg/sg72_2_cif.got.tgz:3698.got - 2010.06.03 17:03:01.
