data_PCOD9526712
_publ_section_title
;
Structure prediction by ZEFSAII (Michael W. Deem and Ramdas Pophale) SiO2 
 PCOD9526712
Probable space group: I B A M
;
_chemical_formula_sum "Si O2"
_cell_formula_units_Z 64
_cell_length_a 11.422456
_cell_length_b 27.576213
_cell_length_c 8.617246
_cell_angle_alpha 90.000000
_cell_angle_beta 90.000000
_cell_angle_gamma 90.000000
_cell_volume 2714.329769
_symmetry_space_group_name_H-M "I B A M"
_symmetry_group_IT_number 72
_symmetry_cell_setting 'orthorhombic'
loop_
_space_group_symop_operation_xyz
x,y,z
-x,-y,z
x,-y,1/2-z
-x,y,1/2-z
-x,-y,-z
x,y,-z
-x,y,1/2+z
x,-y,1/2+z
1/2+x,1/2+y,1/2+z
1/2-x,1/2-y,1/2+z
1/2+x,1/2-y,-z
1/2-x,1/2+y,-z
1/2-x,1/2-y,1/2-z
1/2+x,1/2+y,1/2-z
1/2-x,1/2+y,z
1/2+x,1/2-y,z
loop_
_atom_site_type_symbol
_atom_site_label
_atom_site_fract_x
_atom_site_fract_y
_atom_site_fract_z
Si Si1 0.622406 0.911394 0.822129
Si Si2 0.615515 0.297018 0.176208
Si Si3 0.126838 0.054916 0.686269
Si Si4 0.647337 0.183556 0.170042
O O1 0.500000 0.931293 0.750000
O O2 0.748035 0.922576 0.741600
O O3 0.609866 0.852984 0.804197
O O4 0.630299 0.926357 0.000000
O O5 0.500000 0.317922 0.250000
O O6 0.603019 0.238549 0.169343
O O7 0.716442 0.308833 0.296086
O O8 0.639414 0.313485 0.000000
O O9 0.122790 0.056308 0.500000
O O10 0.000000 0.073644 0.750000
O O11 0.132735 0.000000 0.750000
O O12 0.627065 0.161493 0.000000
#
# Coordination Sequence:
#
# PCOD9526712 Si02
#       4
#    16  16  16  16
#     4  12  25  42  64  94 129 167 210 258 312 371
#     4  10  20  34  54  79 110 151 200 253 307 365
#     4  11  23  44  71 100 131 166 206 251 306 368
#     4  10  21  37  56  81 114 154 200 251 307 365
#
# _framework density 23.578567
#
# number of rings (size 3 to 8) (size 9 to 14) (size 15 to 20)
#    0.000    1.250    0.000    7.500    0.000    6.500 
#    0.000    7.500    0.000    0.000    0.000    0.000 
#    0.000    0.000    0.000    0.000    0.000    0.000 
#
# Total GULP energy -178659.087731 kJ/mol
# GULP energy per Si atom -5583.096492 kJ/mol
# Density = 2.352490 g / cm^3
# Si number density = 23.578567 Si / 1000 Ang^3
#
#
#
# Elastic Constant Matrix: (Units=GPa)
#
#
# Indices 1 2 3 4 5 6 
#
# 1 178.9787 18.9052 93.4441 -0.0006 0.0005 0.0036
# 2 18.9052 72.5268 10.4452 -0.0003 0.0002 -0.0017
# 3 93.4441 10.4452 198.0825 -0.0011 0.0022 -0.0564
# 4 -0.0006 -0.0003 -0.0011 26.9323 0.0006 -0.0096
# 5 0.0005 0.0002 0.0022 0.0006 38.9310 0.0064
# 6 0.0036 -0.0017 -0.0564 -0.0096 0.0064 1148.9716
#
#
#
# Elastic Compliance Matrix: (Units=1/GPa)
#
#
# Indices 1 2 3 4 5 6 
#
# 1 0.007565 -0.001469 -0.003491 0.000000 0.000000 0.000000
# 2 -0.001469 0.014179 -0.000055 0.000000 0.000000 0.000000
# 3 -0.003491 -0.000055 0.006698 0.000000 0.000000 0.000000
# 4 0.000000 0.000000 0.000000 0.037130 -0.000001 0.000000
# 5 0.000000 0.000000 0.000000 -0.000001 0.025686 0.000000
# 6 0.000000 0.000000 0.000000 0.000000 0.000000 0.000870
#
#
# Mechanical properties :
#
#
# Convention : Reuss Voigt Hill
#
# Bulk Modulus (GPa) = 54.31216 77.24191 65.77704
# Shear Modulus (GPa) = 46.16930 264.75322 155.46126
#
# Velocity S-wave (km/s) = 4.42985 10.60798 8.12874
# Velocity P-wave (km/s) = 7.01778 13.52293 10.77309
#
# Compressibility (1/GPa) = 0.01841208
#
# Stress axis : x y z
#
# Youngs Moduli (GPa) = 132.18258 70.52769 149.29101
#
# Poissons Ratio (x) = 0.10362 0.52124
# Poissons Ratio (y) = 0.19420 0.00815
# Poissons Ratio (z) = 0.46150 0.00385
#
# Static dielectric constant tensor:
#      x y z
#    x -21.891750 -0.000090 -0.000070 
#    y -0.000090 1.921450 0.000000 
#    z -0.000070 0.000000 1.875260 
# 
# From -- ./inp_files/2643.got.cif
#   From: 2010.05.17/outbox.cif.g08.bks.cpg/sg72_2_cif.got.tgz:2643.got - 2010.06.03 17:03:01.
