data_PCOD9526080
_publ_section_title
;
Structure prediction by ZEFSAII (Michael W. Deem and Ramdas Pophale) SiO2 
 PCOD9526080
Probable space group: I B A M
;
_chemical_formula_sum "Si O2"
_cell_formula_units_Z 80
_cell_length_a 24.161604
_cell_length_b 14.438947
_cell_length_c 11.338461
_cell_angle_alpha 90.000000
_cell_angle_beta 90.000000
_cell_angle_gamma 90.000000
_cell_volume 3955.627568
_symmetry_space_group_name_H-M "I B A M"
_symmetry_group_IT_number 72
_symmetry_cell_setting 'orthorhombic'
loop_
_space_group_symop_operation_xyz
x,y,z
-x,-y,z
x,-y,1/2-z
-x,y,1/2-z
-x,-y,-z
x,y,-z
-x,y,1/2+z
x,-y,1/2+z
1/2+x,1/2+y,1/2+z
1/2-x,1/2-y,1/2+z
1/2+x,1/2-y,-z
1/2-x,1/2+y,-z
1/2-x,1/2-y,1/2-z
1/2+x,1/2+y,1/2-z
1/2-x,1/2+y,z
1/2+x,1/2-y,z
loop_
_atom_site_type_symbol
_atom_site_label
_atom_site_fract_x
_atom_site_fract_y
_atom_site_fract_z
Si Si1 0.266440 0.935898 0.133189
Si Si2 0.857245 0.099897 0.192407
Si Si3 0.978066 0.141419 0.124405
Si Si4 0.976080 0.649906 0.868077
Si Si5 0.646554 0.773155 0.364797
O O1 0.201762 0.909798 0.129943
O O2 0.303897 0.845298 0.152958
O O3 0.274112 0.000000 0.250000
O O4 0.280913 0.973042 0.000000
O O5 0.912738 0.125536 0.123870
O O6 0.850543 0.182901 0.285423
O O7 0.867575 0.000000 0.250000
O O8 0.000000 0.104864 0.250000
O O9 0.992818 0.250508 0.125941
O O10 0.002742 0.105870 0.000000
O O11 0.911548 0.673428 0.847736
O O12 0.000000 0.603345 0.750000
O O13 0.981920 0.608050 0.000000
O O14 0.647484 0.741887 0.500000
#
# Coordination Sequence:
#
# PCOD9526080 Si02
#       5
#    16  16  16  16  16
#     4  10  23  43  65  89 118 152 200 257 310 360
#     4  11  22  36  56  88 123 159 198 242 287 348
#     4  10  19  34  52  76 114 157 198 233 277 334
#     4   9  16  31  54  80 113 151 193 236 283 339
#     4  10  20  38  62  87 119 162 201 245 303 357
#
# _framework density 20.224350000000001
#
# number of rings (size 3 to 8) (size 9 to 14) (size 15 to 20)
#    0.000    2.000    4.000    1.200    0.000    4.400 
#    0.000    4.000    0.000    0.600    0.000    4.200 
#    0.000    0.000    0.000    0.000    0.000    0.000 
#
# Total GULP energy -222868.839332 kJ/mol
# GULP energy per Si atom -5571.720983 kJ/mol
# Density = 2.017832 g / cm^3
# Si number density = 20.224350 Si / 1000 Ang^3
#
#
#
# Elastic Constant Matrix: (Units=GPa)
#
#
# Indices 1 2 3 4 5 6 
#
# 1 98.7366 31.9198 23.8432 0.0000 0.0000 0.0000
# 2 31.9198 60.8333 40.8956 0.0000 0.0000 0.0000
# 3 23.8432 40.8956 200.5237 0.0000 0.0000 0.0000
# 4 0.0000 0.0000 0.0000 1.1733 0.0000 0.0000
# 5 0.0000 0.0000 0.0000 0.0000 15.0813 0.0000
# 6 0.0000 0.0000 0.0000 0.0000 0.0000 -5.3229
#
#
#
# Elastic Compliance Matrix: (Units=1/GPa)
#
#
# Indices 1 2 3 4 5 6 
#
# 1 0.012202 -0.006289 -0.000168 0.000000 0.000000 0.000000
# 2 -0.006289 0.022292 -0.003798 0.000000 0.000000 0.000000
# 3 -0.000168 -0.003798 0.005782 0.000000 0.000000 0.000000
# 4 0.000000 0.000000 0.000000 0.852298 0.000000 0.000000
# 5 0.000000 0.000000 0.000000 0.000000 0.066307 0.000000
# 6 0.000000 0.000000 0.000000 0.000000 0.000000 -0.187867
#
#
# Mechanical properties :
#
#
# Convention : Reuss Voigt Hill
#
# Bulk Modulus (GPa) = 50.59854 61.49008 56.04431
# Shear Modulus (GPa) = 6.26477 19.74867 13.00672
#
# Velocity S-wave (km/s) = 1.76192 3.12826 2.53874
# Velocity P-wave (km/s) = 5.40482 6.59682 6.03034
#
# Compressibility (1/GPa) = 0.01976341
#
# Stress axis : x y z
#
# Youngs Moduli (GPa) = 81.95513 44.85911 172.96187
#
# Poissons Ratio (x) = 0.28213 0.02909
# Poissons Ratio (y) = 0.51544 0.65700
# Poissons Ratio (z) = 0.01378 0.17040
#
# Static dielectric constant tensor:
#      x y z
#    x 1.701260 0.000000 0.000000 
#    y 0.000000 1.664730 0.000000 
#    z 0.000000 0.000000 1.803380 
# 
# From -- ./inp_files/12768.got.cif
#   From: 2010.05.17/outbox.cif.g08.bks.cpg/sg72_7_cif.got.tgz:12768.got - 2010.06.03 17:03:01.
