data_PCOD9526136
_publ_section_title
;
Structure prediction by ZEFSAII (Michael W. Deem and Ramdas Pophale) SiO2 
 PCOD9526136
Probable space group: I B A M
;
_chemical_formula_sum "Si O2"
_cell_formula_units_Z 116
_cell_length_a 26.688571
_cell_length_b 21.978759
_cell_length_c 9.608236
_cell_angle_alpha 90.000000
_cell_angle_beta 90.000000
_cell_angle_gamma 90.000000
_cell_volume 5636.015119
_symmetry_space_group_name_H-M "I B A M"
_symmetry_group_IT_number 72
_symmetry_cell_setting 'orthorhombic'
loop_
_space_group_symop_operation_xyz
x,y,z
-x,-y,z
x,-y,1/2-z
-x,y,1/2-z
-x,-y,-z
x,y,-z
-x,y,1/2+z
x,-y,1/2+z
1/2+x,1/2+y,1/2+z
1/2-x,1/2-y,1/2+z
1/2+x,1/2-y,-z
1/2-x,1/2+y,-z
1/2-x,1/2-y,1/2-z
1/2+x,1/2+y,1/2-z
1/2-x,1/2+y,z
1/2+x,1/2-y,z
loop_
_atom_site_type_symbol
_atom_site_label
_atom_site_fract_x
_atom_site_fract_y
_atom_site_fract_z
Si Si1 0.152472 0.056187 0.346921
Si Si2 0.500000 0.000000 0.750000
Si Si3 0.581901 0.094692 0.844997
Si Si4 0.044816 0.934770 0.832983
Si Si5 0.264170 0.657620 0.342006
Si Si6 0.830610 0.624536 0.344478
Si Si7 0.449939 0.763090 0.837038
Si Si8 0.357576 0.264765 0.158178
O O1 0.143616 0.030194 0.500000
O O2 0.100580 0.090754 0.313687
O O3 0.198404 0.100837 0.348121
O O4 0.161915 0.000000 0.250000
O O5 0.462462 0.954222 0.829742
O O6 0.626460 0.086466 0.733953
O O7 0.560379 0.163540 0.829816
O O8 0.603678 0.090643 0.000000
O O9 0.000000 0.902568 0.750000
O O10 0.048981 0.000000 0.750000
O O11 0.034399 0.939903 0.000000
O O12 0.246950 0.672728 0.500000
O O13 0.218918 0.636728 0.245682
O O14 0.303065 0.710306 0.294150
O O15 0.819901 0.601357 0.500000
O O16 0.852724 0.692395 0.356397
O O17 0.500000 0.750944 0.750000
O O18 0.403068 0.728892 0.765433
O O19 0.455172 0.747527 0.000000
O O20 0.366442 0.289416 0.000000
#
# Coordination Sequence:
#
# PCOD9526136 Si02
#       8
#    16   4  16  16  16  16  16  16
#     4   9  19  34  52  74 102 140 179 218 268 330
#     4  12  22  40  64  94 122 156 212 254 290 340
#     4  10  22  38  59  86 117 156 196 241 293 346
#     4   9  15  25  43  67  92 120 159 201 244 293
#     4  10  20  37  59  81 110 147 187 235 293 348
#     4  10  21  37  58  85 114 145 188 239 290 346
#     4  10  19  34  56  83 117 156 195 238 293 354
#     4   9  19  35  57  84 112 145 187 239 294 351
#
# _framework density 20.581918000000002
#
# number of rings (size 3 to 8) (size 9 to 14) (size 15 to 20)
#    0.000    2.345    0.690    2.276    0.000    3.862 
#    1.241    0.690    0.000    1.655    0.000    0.000 
#    0.000    0.000    0.000    0.000    0.000    0.000 
#
# Total GULP energy -323214.969727 kJ/mol
# GULP energy per Si atom -5572.671892 kJ/mol
# Density = 2.053507 g / cm^3
# Si number density = 20.581918 Si / 1000 Ang^3
#
#
#
# Elastic Constant Matrix: (Units=GPa)
#
#
# Indices 1 2 3 4 5 6 
#
# 1 133.0585 6.3950 93.1921 0.0000 0.0000 0.0000
# 2 6.3950 51.8408 19.3193 0.0000 0.0000 0.0000
# 3 93.1921 19.3193 141.1857 0.0000 0.0000 0.0000
# 4 0.0000 0.0000 0.0000 11.7165 0.0000 0.0000
# 5 0.0000 0.0000 0.0000 0.0000-2131.0145 0.0000
# 6 0.0000 0.0000 0.0000 0.0000 0.0000 26.3186
#
#
#
# Elastic Compliance Matrix: (Units=1/GPa)
#
#
# Indices 1 2 3 4 5 6 
#
# 1 0.014139 0.001827 -0.009583 0.000000 0.000000 0.000000
# 2 0.001827 0.020562 -0.004020 0.000000 0.000000 0.000000
# 3 -0.009583 -0.004020 0.013958 0.000000 0.000000 0.000000
# 4 0.000000 0.000000 0.000000 0.085349 0.000000 0.000000
# 5 0.000000 0.000000 0.000000 0.000000 -0.000469 0.000000
# 6 0.000000 0.000000 0.000000 0.000000 0.000000 0.037996
#
#
# Mechanical properties :
#
#
# Convention : Reuss Voigt Hill
#
# Bulk Modulus (GPa) = 39.82640 62.65533 51.24087
# Shear Modulus (GPa) = 24.57517 -404.78397 -190.10440
#
# Velocity S-wave (km/s) = 3.45920 -14.03911 -9.62109
# Velocity P-wave (km/s) = 5.94533 15.24098 9.92322
#
# Compressibility (1/GPa) = 0.02510897
#
# Stress axis : x y z
#
# Youngs Moduli (GPa) = 70.72399 48.63242 71.64176
#
# Poissons Ratio (x) = -0.08885 0.68654
# Poissons Ratio (y) = -0.12921 0.28797
# Poissons Ratio (z) = 0.67775 0.19548
#
# Static dielectric constant tensor:
#      x y z
#    x 1.755570 0.000000 0.000000 
#    y 0.000000 1.765020 0.000000 
#    z 0.000000 0.000000 1.758250 
# 
# From -- ./inp_files/8414.got.cif
#   From: 2010.05.17/outbox.cif.g08.bks.cpg/sg72_5_cif.got.tgz:8414.got - 2010.06.03 17:03:01.
