data_PCOD9526119
_publ_section_title
;
Structure prediction by ZEFSAII (Michael W. Deem and Ramdas Pophale) SiO2 
 PCOD9526119
Probable space group: I B A M
;
_chemical_formula_sum "Si O2"
_cell_formula_units_Z 96
_cell_length_a 13.485222
_cell_length_b 16.626307
_cell_length_c 22.894786
_cell_angle_alpha 90.000000
_cell_angle_beta 90.000000
_cell_angle_gamma 90.000000
_cell_volume 5133.227169
_symmetry_space_group_name_H-M "I B A M"
_symmetry_group_IT_number 72
_symmetry_cell_setting 'orthorhombic'
loop_
_space_group_symop_operation_xyz
x,y,z
-x,-y,z
x,-y,1/2-z
-x,y,1/2-z
-x,-y,-z
x,y,-z
-x,y,1/2+z
x,-y,1/2+z
1/2+x,1/2+y,1/2+z
1/2-x,1/2-y,1/2+z
1/2+x,1/2-y,-z
1/2-x,1/2+y,-z
1/2-x,1/2-y,1/2-z
1/2+x,1/2+y,1/2-z
1/2-x,1/2+y,z
1/2+x,1/2-y,z
loop_
_atom_site_type_symbol
_atom_site_label
_atom_site_fract_x
_atom_site_fract_y
_atom_site_fract_z
Si Si1 0.826666 0.065030 0.826866
Si Si2 0.781515 0.881102 0.202692
Si Si3 0.140473 0.290799 0.379017
Si Si4 0.004772 0.830538 0.683147
Si Si5 0.727110 0.845623 0.430141
Si Si6 0.488160 0.909444 0.930627
O O1 0.783844 0.119788 0.773376
O O2 0.943560 0.085413 0.821160
O O3 0.788633 0.092521 0.889816
O O4 0.792657 0.974801 0.814350
O O5 0.688720 0.835695 0.176074
O O6 0.879413 0.842003 0.173909
O O7 0.055884 0.228994 0.357807
O O8 0.225075 0.240149 0.412592
O O9 0.084688 0.357666 0.416468
O O10 0.000000 0.801853 0.750000
O O11 0.737604 0.857177 0.500000
O O12 0.612661 0.862864 0.412748
O O13 0.500000 0.000000 0.905802
O O14 0.479367 0.917046 0.000000
#
# Coordination Sequence:
#
# PCOD9526119 Si02
#       6
#    16  16  16  16  16  16
#     4   9  19  35  57  80 105 138 177 221 266 316
#     4  10  19  34  55  81 108 137 175 218 267 318
#     4  11  21  33  54  80 108 138 176 224 267 310
#     4   9  19  33  52  77 106 139 171 208 263 324
#     4  10  21  37  56  78 107 142 181 223 264 314
#     4  10  21  37  55  75 104 144 183 217 264 325
#
# _framework density 18.701685000000001
#
# number of rings (size 3 to 8) (size 9 to 14) (size 15 to 20)
#    0.000    2.167    0.000    3.000    0.000    9.333 
#    0.000    0.833    0.000   13.000    0.000    0.000 
#    0.000    0.000    0.000    0.000    0.000    0.000 
#
# Total GULP energy -267430.584591 kJ/mol
# GULP energy per Si atom -5571.470512 kJ/mol
# Density = 1.865912 g / cm^3
# Si number density = 18.701685 Si / 1000 Ang^3
#
#
#
# Elastic Constant Matrix: (Units=GPa)
#
#
# Indices 1 2 3 4 5 6 
#
# 1 84.6798 33.2546 19.7479 0.0000 0.0000 0.0000
# 2 33.2546 91.4254 18.8222 0.0000 0.0000 0.0000
# 3 19.7479 18.8222 57.4435 0.0000 0.0000 0.0000
# 4 0.0000 0.0000 0.0000 18.1896 0.0000 0.0000
# 5 0.0000 0.0000 0.0000 0.0000 21.2662 0.0000
# 6 0.0000 0.0000 0.0000 0.0000 0.0000 11.4305
#
#
#
# Elastic Compliance Matrix: (Units=1/GPa)
#
#
# Indices 1 2 3 4 5 6 
#
# 1 0.014393 -0.004522 -0.003467 0.000000 0.000000 0.000000
# 2 -0.004522 0.013150 -0.002754 0.000000 0.000000 0.000000
# 3 -0.003467 -0.002754 0.019503 0.000000 0.000000 0.000000
# 4 0.000000 0.000000 0.000000 0.054977 0.000000 0.000000
# 5 0.000000 0.000000 0.000000 0.000000 0.047023 0.000000
# 6 0.000000 0.000000 0.000000 0.000000 0.000000 0.087485
#
#
# Mechanical properties :
#
#
# Convention : Reuss Voigt Hill
#
# Bulk Modulus (GPa) = 39.12260 41.91090 40.51675
# Shear Modulus (GPa) = 18.75923 20.95885 19.85904
#
# Velocity S-wave (km/s) = 3.17057 3.35131 3.26219
# Velocity P-wave (km/s) = 5.86243 6.11832 5.99174
#
# Compressibility (1/GPa) = 0.02556068
#
# Stress axis : x y z
#
# Youngs Moduli (GPa) = 69.47671 76.04805 51.27525
#
# Poissons Ratio (x) = 0.34386 0.17775
# Poissons Ratio (y) = 0.31415 0.14122
# Poissons Ratio (z) = 0.24084 0.20945
#
# Static dielectric constant tensor:
#      x y z
#    x 1.652530 0.000000 0.000000 
#    y 0.000000 1.681560 0.000000 
#    z 0.000000 0.000000 1.628570 
# 
# From -- ./inp_files/48109.got.cif
#   From: 2010.05.17/outbox.cif.g08.bks.cpg/sg72_25_cif.got.tgz:48109.got - 2010.06.03 17:03:01.
