data_PCOD9526013
_publ_section_title
;
Structure prediction by ZEFSAII (Michael W. Deem and Ramdas Pophale) SiO2 
 PCOD9526013
Probable space group: I B A M
;
_chemical_formula_sum "Si O2"
_cell_formula_units_Z 80
_cell_length_a 8.092126
_cell_length_b 14.269230
_cell_length_c 31.182273
_cell_angle_alpha 90.000000
_cell_angle_beta 90.000000
_cell_angle_gamma 90.000000
_cell_volume 3600.567393
_symmetry_space_group_name_H-M "I B A M"
_symmetry_group_IT_number 72
_symmetry_cell_setting 'orthorhombic'
loop_
_space_group_symop_operation_xyz
x,y,z
-x,-y,z
x,-y,1/2-z
-x,y,1/2-z
-x,-y,-z
x,y,-z
-x,y,1/2+z
x,-y,1/2+z
1/2+x,1/2+y,1/2+z
1/2-x,1/2-y,1/2+z
1/2+x,1/2-y,-z
1/2-x,1/2+y,-z
1/2-x,1/2-y,1/2-z
1/2+x,1/2+y,1/2-z
1/2-x,1/2+y,z
1/2+x,1/2-y,z
loop_
_atom_site_type_symbol
_atom_site_label
_atom_site_fract_x
_atom_site_fract_y
_atom_site_fract_z
Si Si1 0.988928 0.712467 0.500000
Si Si2 0.603898 0.324946 0.655148
Si Si3 0.378789 0.791229 0.783200
Si Si4 0.664314 0.398435 0.500000
Si Si5 0.229495 0.039221 0.407036
Si Si6 0.918146 0.646656 0.406875
O O1 0.985090 0.824809 0.500000
O O2 0.902270 0.678795 0.456210
O O3 0.170451 0.666960 0.500000
O O4 0.469593 0.292358 0.690398
O O5 0.771227 0.344780 0.681977
O O6 0.594041 0.411760 0.623034
O O7 0.612726 0.233625 0.624478
O O8 0.500000 0.843759 0.750000
O O9 0.250000 0.750000 0.750000
O O10 0.674378 0.456367 0.543542
O O11 0.396214 0.104290 0.403866
O O12 0.291397 0.935935 0.396041
#
# Coordination Sequence:
#
# PCOD9526013 Si02
#       6
#     8  16  16   8  16  16
#     4  10  19  33  55  80 120 160 199 243 287 342
#     4  11  18  35  62  85 114 152 195 245 291 359
#     4   9  20  36  60  88 112 145 186 235 311 370
#     4  10  19  33  55  80 120 158 201 243 291 336
#     4  10  20  34  56  86 118 160 201 242 286 351
#     4  10  20  34  56  86 118 159 202 239 289 347
#
# _framework density 22.218720000000001
#
# number of rings (size 3 to 8) (size 9 to 14) (size 15 to 20)
#    0.000    2.000    4.000    0.600    0.000    2.400 
#    0.000    1.000    0.000   19.200    0.000    0.000 
#    0.000    0.000    0.000    0.000    0.000    0.000 
#
# Total GULP energy -223253.233973 kJ/mol
# GULP energy per Si atom -5581.330849 kJ/mol
# Density = 2.216815 g / cm^3
# Si number density = 22.218720 Si / 1000 Ang^3
#
#
#
# Elastic Constant Matrix: (Units=GPa)
#
#
# Indices 1 2 3 4 5 6 
#
# 1 64.8892 25.5451 39.5441 0.0000 0.0000 0.0000
# 2 25.5451 109.2626 47.4363 0.0000 0.0000 0.0000
# 3 39.5441 47.4363 172.2129 0.0000 0.0000 0.0000
# 4 0.0000 0.0000 0.0000 -12.1870 0.0000 0.0000
# 5 0.0000 0.0000 0.0000 0.0000 27.9458 0.0000
# 6 0.0000 0.0000 0.0000 0.0000 0.0000 28.8254
#
#
#
# Elastic Compliance Matrix: (Units=1/GPa)
#
#
# Indices 1 2 3 4 5 6 
#
# 1 0.018665 -0.002843 -0.003503 0.000000 0.000000 0.000000
# 2 -0.002843 0.010828 -0.002330 0.000000 0.000000 0.000000
# 3 -0.003503 -0.002330 0.007253 0.000000 0.000000 0.000000
# 4 0.000000 0.000000 0.000000 -0.082054 0.000000 0.000000
# 5 0.000000 0.000000 0.000000 0.000000 0.035784 0.000000
# 6 0.000000 0.000000 0.000000 0.000000 0.000000 0.034692
#
#
# Mechanical properties :
#
#
# Convention : Reuss Voigt Hill
#
# Bulk Modulus (GPa) = 51.56039 63.49063 57.52551
# Shear Modulus (GPa) = 102.07612 24.50611 63.29112
#
# Velocity S-wave (km/s) = 6.78537 3.32467 5.34297
# Velocity P-wave (km/s) = 9.20025 6.58599 8.00062
#
# Compressibility (1/GPa) = 0.01939473
#
# Stress axis : x y z
#
# Youngs Moduli (GPa) = 53.57706 92.34913 137.87687
#
# Poissons Ratio (x) = 0.26255 0.48295
# Poissons Ratio (y) = 0.15232 0.32124
# Poissons Ratio (z) = 0.18767 0.21516
#
# Static dielectric constant tensor:
#      x y z
#    x 1.965490 0.000000 0.000000 
#    y 0.000000 1.764010 0.000000 
#    z 0.000000 0.000000 1.836570 
# 
# From -- ./inp_files/47987.got.cif
#   From: 2010.05.17/outbox.cif.g08.bks.cpg/sg72_24_cif.got.tgz:47987.got - 2010.06.03 17:03:01.
