data_PCOD9526431
_publ_section_title
;
Structure prediction by ZEFSAII (Michael W. Deem and Ramdas Pophale) SiO2 
 PCOD9526431
Probable space group: I B A M
;
_chemical_formula_sum "Si O2"
_cell_formula_units_Z 104
_cell_length_a 15.964311
_cell_length_b 10.127213
_cell_length_c 28.613949
_cell_angle_alpha 90.000000
_cell_angle_beta 90.000000
_cell_angle_gamma 90.000000
_cell_volume 4626.130958
_symmetry_space_group_name_H-M "I B A M"
_symmetry_group_IT_number 72
_symmetry_cell_setting 'orthorhombic'
loop_
_space_group_symop_operation_xyz
x,y,z
-x,-y,z
x,-y,1/2-z
-x,y,1/2-z
-x,-y,-z
x,y,-z
-x,y,1/2+z
x,-y,1/2+z
1/2+x,1/2+y,1/2+z
1/2-x,1/2-y,1/2+z
1/2+x,1/2-y,-z
1/2-x,1/2+y,-z
1/2-x,1/2-y,1/2-z
1/2+x,1/2+y,1/2-z
1/2-x,1/2+y,z
1/2+x,1/2-y,z
loop_
_atom_site_type_symbol
_atom_site_label
_atom_site_fract_x
_atom_site_fract_y
_atom_site_fract_z
Si Si1 0.138003 0.065340 0.500000
Si Si2 0.036384 0.786825 0.500000
Si Si3 0.789458 0.417933 0.179248
Si Si4 0.571025 0.265845 0.898876
Si Si5 0.345446 0.196864 0.307284
Si Si6 0.000000 0.194002 0.750000
Si Si7 0.089762 0.802400 0.836668
Si Si8 0.690374 0.514543 0.900465
O O1 0.192970 0.070833 0.452725
O O2 0.061717 0.170711 0.500000
O O3 0.089920 0.923735 0.500000
O O4 0.060393 0.716425 0.451619
O O5 0.715779 0.322653 0.198233
O O6 0.801123 0.559144 0.203275
O O7 0.874726 0.335906 0.181408
O O8 0.766859 0.440340 0.124195
O O9 0.626972 0.187463 0.861847
O O10 0.481294 0.283507 0.875141
O O11 0.614170 0.409684 0.900760
O O12 0.430308 0.223990 0.278836
O O13 0.052243 0.123842 0.708586
O O14 0.164243 0.876610 0.862614
#
# Coordination Sequence:
#
# PCOD9526431 Si02
#       8
#     8   8  16  16  16   8  16  16
#     4   9  16  28  60  89 128 163 215 257 326 385
#     4   9  14  28  56  96 119 165 209 266 321 380
#     4  11  23  42  68  90 130 172 213 266 332 391
#     4   9  19  34  63  92 129 162 217 269 322 380
#     4  10  23  45  66  94 130 173 215 270 326 390
#     4  10  26  45  65  98 126 171 217 276 324 397
#     4  11  21  39  63  90 125 167 215 265 326 385
#     4  10  19  38  59  95 127 170 212 274 319 391
#
# _framework density 22.480989000000001
#
# number of rings (size 3 to 8) (size 9 to 14) (size 15 to 20)
#    0.000    2.000    3.077    0.462    0.000    4.308 
#    2.769   15.385    0.000    0.923    0.000    0.000 
#    0.000    0.000    0.000    0.000    0.000    0.000 
#
# Total GULP energy -290305.544327 kJ/mol
# GULP energy per Si atom -5582.798929 kJ/mol
# Density = 2.242982 g / cm^3
# Si number density = 22.480989 Si / 1000 Ang^3
#
#
#
# Elastic Constant Matrix: (Units=GPa)
#
#
# Indices 1 2 3 4 5 6 
#
# 1 43.5648 22.5128 15.4921 0.0000 0.0000 0.0000
# 2 22.5128 70.9631 23.0604 0.0000 0.0000 0.0000
# 3 15.4921 23.0604 172.9598 0.0000 0.0000 0.0000
# 4 0.0000 0.0000 0.0000 14.9232 0.0000 0.0000
# 5 0.0000 0.0000 0.0000 0.0000 25.6314 0.0000
# 6 0.0000 0.0000 0.0000 0.0000 0.0000 24.8124
#
#
#
# Elastic Compliance Matrix: (Units=1/GPa)
#
#
# Indices 1 2 3 4 5 6 
#
# 1 0.027763 -0.008362 -0.001372 0.000000 0.000000 0.000000
# 2 -0.008362 0.017249 -0.001551 0.000000 0.000000 0.000000
# 3 -0.001372 -0.001551 0.006111 0.000000 0.000000 0.000000
# 4 0.000000 0.000000 0.000000 0.067010 0.000000 0.000000
# 5 0.000000 0.000000 0.000000 0.000000 0.039015 0.000000
# 6 0.000000 0.000000 0.000000 0.000000 0.000000 0.040302
#
#
# Mechanical properties :
#
#
# Convention : Reuss Voigt Hill
#
# Bulk Modulus (GPa) = 35.02138 45.51315 40.26727
# Shear Modulus (GPa) = 21.78291 28.16821 24.97556
#
# Velocity S-wave (km/s) = 3.11617 3.54358 3.33673
# Velocity P-wave (km/s) = 5.34410 6.08537 5.72674
#
# Compressibility (1/GPa) = 0.02855399
#
# Stress axis : x y z
#
# Youngs Moduli (GPa) = 36.01867 57.97574 163.63058
#
# Poissons Ratio (x) = 0.48480 0.22448
# Poissons Ratio (y) = 0.30119 0.25375
# Poissons Ratio (z) = 0.04941 0.08990
#
# Static dielectric constant tensor:
#      x y z
#    x 1.814760 0.000000 0.000000 
#    y 0.000000 1.855970 0.000000 
#    z 0.000000 0.000000 1.878370 
# 
# From -- ./inp_files/52107.got.cif
#   From: 2010.05.17/outbox.cif.g08.bks.cpg/sg72_27_cif.got.tgz:52107.got - 2010.06.03 17:03:01.
