data_PCOD9526643
_publ_section_title
;
Structure prediction by ZEFSAII (Michael W. Deem and Ramdas Pophale) SiO2 
 PCOD9526643
Probable space group: I B A M
;
_chemical_formula_sum "Si O2"
_cell_formula_units_Z 68
_cell_length_a 5.376766
_cell_length_b 14.467907
_cell_length_c 31.630801
_cell_angle_alpha 90.000000
_cell_angle_beta 90.000000
_cell_angle_gamma 90.000000
_cell_volume 2460.577421
_symmetry_space_group_name_H-M "I B A M"
_symmetry_group_IT_number 72
_symmetry_cell_setting 'orthorhombic'
loop_
_space_group_symop_operation_xyz
x,y,z
-x,-y,z
x,-y,1/2-z
-x,y,1/2-z
-x,-y,-z
x,y,-z
-x,y,1/2+z
x,-y,1/2+z
1/2+x,1/2+y,1/2+z
1/2-x,1/2-y,1/2+z
1/2+x,1/2-y,-z
1/2-x,1/2+y,-z
1/2-x,1/2-y,1/2-z
1/2+x,1/2+y,1/2-z
1/2-x,1/2+y,z
1/2+x,1/2-y,z
loop_
_atom_site_type_symbol
_atom_site_label
_atom_site_fract_x
_atom_site_fract_y
_atom_site_fract_z
Si Si1 0.102547 0.406449 0.913353
Si Si2 0.518291 0.688839 0.952908
Si Si3 0.088280 0.349029 0.331305
Si Si4 0.000000 0.500000 0.000000
Si Si5 0.414354 0.639666 0.702178
O O1 0.397291 0.390100 0.920259
O O2 0.000000 0.500000 0.892572
O O3 0.995327 0.333730 0.879799
O O4 0.002660 0.421548 0.961541
O O5 0.267104 0.746976 0.949624
O O6 0.513966 0.645957 0.000000
O O7 0.356971 0.393951 0.326278
O O8 0.116607 0.249017 0.308757
O O9 0.857020 0.398104 0.308493
O O10 0.500000 0.626804 0.750000
#
# Coordination Sequence:
#
# PCOD9526643 Si02
#       5
#    16  16  16   4  16
#     4  10  21  40  64  89 135 174 224 254 323 381
#     4  10  21  37  60  87 117 158 211 271 315 363
#     4  10  20  33  62  93 121 163 211 261 298 393
#     4   8  20  44  64  86 134 198 206 258 328 386
#     4  10  20  38  63  94 129 159 202 261 344 387
#
# _framework density 27.635788000000002
#
# number of rings (size 3 to 8) (size 9 to 14) (size 15 to 20)
#    0.706    1.412    1.176    3.529    6.588    0.000 
#    0.000    4.706    0.000   17.647    0.000    0.000 
#    0.000    0.000    0.000    0.000    0.000    0.000 
#
# Total GULP energy -189383.894307 kJ/mol
# GULP energy per Si atom -5570.114538 kJ/mol
# Density = 2.757289 g / cm^3
# Si number density = 27.635788 Si / 1000 Ang^3
#
#
#
# Elastic Constant Matrix: (Units=GPa)
#
#
# Indices 1 2 3 4 5 6 
#
# 1 163.4328 19.5972 24.8575 0.0000 0.0000 0.0000
# 2 19.5972 68.1568 -6.7214 0.0000 0.0000 0.0000
# 3 24.8575 -6.7214 176.6164 0.0000 0.0000 0.0000
# 4 0.0000 0.0000 0.0000 17.2193 0.0000 0.0000
# 5 0.0000 0.0000 0.0000 0.0000 50.9910 0.0000
# 6 0.0000 0.0000 0.0000 0.0000 0.0000 13.4398
#
#
#
# Elastic Compliance Matrix: (Units=1/GPa)
#
#
# Indices 1 2 3 4 5 6 
#
# 1 0.006505 -0.001968 -0.000990 0.000000 0.000000 0.000000
# 2 -0.001968 0.015323 0.000860 0.000000 0.000000 0.000000
# 3 -0.000990 0.000860 0.005834 0.000000 0.000000 0.000000
# 4 0.000000 0.000000 0.000000 0.058074 0.000000 0.000000
# 5 0.000000 0.000000 0.000000 0.000000 0.019611 0.000000
# 6 0.000000 0.000000 0.000000 0.000000 0.000000 0.074406
#
#
# Mechanical properties :
#
#
# Convention : Reuss Voigt Hill
#
# Bulk Modulus (GPa) = 42.61620 53.74137 48.17879
# Shear Modulus (GPa) = 26.07250 41.02820 33.55035
#
# Velocity S-wave (km/s) = 3.07487 3.85724 3.48806
# Velocity P-wave (km/s) = 5.29722 6.27106 5.80460
#
# Compressibility (1/GPa) = 0.02346525
#
# Stress axis : x y z
#
# Youngs Moduli (GPa) = 153.71907 65.26226 171.40528
#
# Poissons Ratio (x) = 0.12845 0.16977
# Poissons Ratio (y) = 0.30255 -0.14743
# Poissons Ratio (z) = 0.15226 -0.05613
#
# Static dielectric constant tensor:
#      x y z
#    x 2.262000 0.000000 0.000000 
#    y 0.000000 2.681080 0.000000 
#    z 0.000000 0.000000 2.051190 
# 
# From -- ./inp_files/50210.got.cif
#   From: 2010.05.17/outbox.cif.g08.bks.cpg/sg72_26_cif.got.tgz:50210.got - 2010.06.03 17:03:01.
