data_PCOD9526517
_publ_section_title
;
Structure prediction by ZEFSAII (Michael W. Deem and Ramdas Pophale) SiO2 
 PCOD9526517
Probable space group: I B A M
;
_chemical_formula_sum "Si O2"
_cell_formula_units_Z 88
_cell_length_a 5.158406
_cell_length_b 33.515120
_cell_length_c 33.234259
_cell_angle_alpha 90.000000
_cell_angle_beta 90.000000
_cell_angle_gamma 90.000000
_cell_volume 5745.691444
_symmetry_space_group_name_H-M "I B A M"
_symmetry_group_IT_number 72
_symmetry_cell_setting 'orthorhombic'
loop_
_space_group_symop_operation_xyz
x,y,z
-x,-y,z
x,-y,1/2-z
-x,y,1/2-z
-x,-y,-z
x,y,-z
-x,y,1/2+z
x,-y,1/2+z
1/2+x,1/2+y,1/2+z
1/2-x,1/2-y,1/2+z
1/2+x,1/2-y,-z
1/2-x,1/2+y,-z
1/2-x,1/2-y,1/2-z
1/2+x,1/2+y,1/2-z
1/2-x,1/2+y,z
1/2+x,1/2-y,z
loop_
_atom_site_type_symbol
_atom_site_label
_atom_site_fract_x
_atom_site_fract_y
_atom_site_fract_z
Si Si1 0.515072 0.951733 0.295776
Si Si2 0.987555 0.951865 0.846912
Si Si3 0.251070 0.527924 0.500000
Si Si4 0.224244 0.226698 0.951087
Si Si5 0.625045 0.410215 0.430595
Si Si6 0.388640 0.862011 0.547545
O O1 0.500000 0.936694 0.250000
O O2 0.787482 0.941480 0.315479
O O3 0.283385 0.940544 0.326009
O O4 0.500000 0.000000 0.293513
O O5 0.047597 0.929955 0.888467
O O6 0.000000 0.000000 0.853447
O O7 0.500000 0.500000 0.500000
O O8 0.269716 0.556066 0.461056
O O9 0.000000 0.500000 0.500000
O O10 0.942489 0.241644 0.938181
O O11 0.306187 0.182283 0.939088
O O12 0.220156 0.226292 0.000000
O O13 0.364218 0.389839 0.447686
O O14 0.862065 0.378862 0.429101
O O15 0.460095 0.860636 0.500000
#
# Coordination Sequence:
#
# PCOD9526517 Si02
#       6
#    16  16   8  16  16  16
#     4   9  17  31  50  69  87 110 144 191 247 298
#     4  10  20  32  47  67  91 118 156 203 237 278
#     4  12  24  36  48  60  82 126 178 218 242 262
#     4   9  17  29  47  69  87 109 146 194 237 281
#     4  12  22  35  47  66  91 126 166 204 244 271
#     4  11  20  34  49  65  91 123 160 199 240 280
#
# _framework density 15.315823
#
# number of rings (size 3 to 8) (size 9 to 14) (size 15 to 20)
#    0.000    1.636    1.818    4.364    0.000    7.273 
#    0.000    0.000    0.000    0.000    0.000    0.000 
#    0.000    0.000    0.000    0.000    0.000  229.091 
#
# Total GULP energy -245513.233275 kJ/mol
# GULP energy per Si atom -5579.846211 kJ/mol
# Density = 1.528096 g / cm^3
# Si number density = 15.315823 Si / 1000 Ang^3
#
#
#
# Elastic Constant Matrix: (Units=GPa)
#
#
# Indices 1 2 3 4 5 6 
#
# 1 66.0064 -0.0069 1.5856 0.0000 0.0000 0.0000
# 2 -0.0069 35.9974 17.0412 0.0000 0.0000 0.0000
# 3 1.5856 17.0412 67.2393 0.0000 0.0000 0.0000
# 4 0.0000 0.0000 0.0000 5.4538 0.0000 0.0000
# 5 0.0000 0.0000 0.0000 0.0000 11.7479 0.0000
# 6 0.0000 0.0000 0.0000 0.0000 0.0000 23.7739
#
#
#
# Elastic Compliance Matrix: (Units=1/GPa)
#
#
# Indices 1 2 3 4 5 6 
#
# 1 0.015160 0.000196 -0.000407 0.000000 0.000000 0.000000
# 2 0.000196 0.031570 -0.008006 0.000000 0.000000 0.000000
# 3 -0.000407 -0.008006 0.016911 0.000000 0.000000 0.000000
# 4 0.000000 0.000000 0.000000 0.183360 0.000000 0.000000
# 5 0.000000 0.000000 0.000000 0.000000 0.085122 0.000000
# 6 0.000000 0.000000 0.000000 0.000000 0.000000 0.042063
#
#
# Mechanical properties :
#
#
# Convention : Reuss Voigt Hill
#
# Bulk Modulus (GPa) = 21.18370 22.94255 22.06312
# Shear Modulus (GPa) = 12.30453 18.23665 15.27059
#
# Velocity S-wave (km/s) = 2.83748 3.45440 3.16103
# Velocity P-wave (km/s) = 4.95947 5.56082 5.26873
#
# Compressibility (1/GPa) = 0.04720610
#
# Stress axis : x y z
#
# Youngs Moduli (GPa) = 65.96369 31.67596 59.13368
#
# Poissons Ratio (x) = -0.00620 0.02407
# Poissons Ratio (y) = -0.01290 0.47341
# Poissons Ratio (z) = 0.02685 0.25359
#
# Static dielectric constant tensor:
#      x y z
#    x 1.521720 0.000000 0.000000 
#    y 0.000000 1.516860 0.000000 
#    z 0.000000 0.000000 1.505620 
# 
# From -- ./inp_files/46770.got.cif
#   From: 2010.05.17/outbox.cif.g08.bks.cpg/sg72_24_cif.got.tgz:46770.got - 2010.06.03 17:03:01.
