data_PCOD9526883
_publ_section_title
;
Structure prediction by ZEFSAII (Michael W. Deem and Ramdas Pophale) SiO2 
 PCOD9526883
Probable space group: I B A M
;
_chemical_formula_sum "Si O2"
_cell_formula_units_Z 112
_cell_length_a 14.740663
_cell_length_b 15.495523
_cell_length_c 21.908764
_cell_angle_alpha 90.000000
_cell_angle_beta 90.000000
_cell_angle_gamma 90.000000
_cell_volume 5004.274611
_symmetry_space_group_name_H-M "I B A M"
_symmetry_group_IT_number 72
_symmetry_cell_setting 'orthorhombic'
loop_
_space_group_symop_operation_xyz
x,y,z
-x,-y,z
x,-y,1/2-z
-x,y,1/2-z
-x,-y,-z
x,y,-z
-x,y,1/2+z
x,-y,1/2+z
1/2+x,1/2+y,1/2+z
1/2-x,1/2-y,1/2+z
1/2+x,1/2-y,-z
1/2-x,1/2+y,-z
1/2-x,1/2-y,1/2-z
1/2+x,1/2+y,1/2-z
1/2-x,1/2+y,z
1/2+x,1/2-y,z
loop_
_atom_site_type_symbol
_atom_site_label
_atom_site_fract_x
_atom_site_fract_y
_atom_site_fract_z
Si Si1 0.776102 0.934845 0.364198
Si Si2 0.585229 0.293803 0.070559
Si Si3 0.456685 0.134512 0.928959
Si Si4 0.118898 0.462455 0.318906
Si Si5 0.278293 0.347913 0.734208
Si Si6 0.573486 0.568306 0.343399
Si Si7 0.280108 0.255263 0.929176
O O1 0.786867 0.903734 0.295155
O O2 0.792344 0.850057 0.402895
O O3 0.673719 0.970691 0.362335
O O4 0.847724 0.010859 0.375374
O O5 0.540191 0.200400 0.074640
O O6 0.531413 0.365605 0.108149
O O7 0.687764 0.286879 0.096083
O O8 0.586241 0.319941 0.000000
O O9 0.453159 0.079127 0.866109
O O10 0.366281 0.193713 0.924276
O O11 0.456053 0.098113 0.000000
O O12 0.095850 0.500000 0.250000
O O13 0.194797 0.390108 0.302657
O O14 0.250000 0.250000 0.750000
O O15 0.375016 0.369637 0.703899
O O16 0.500000 0.500000 0.320307
O O17 0.239357 0.766841 0.000000
#
# Coordination Sequence:
#
# PCOD9526883 Si02
#       7
#    16  16  16  16  16  16  16
#     4  10  20  35  56  83 119 157 200 257 317 368
#     4  10  22  39  60  89 124 163 206 252 309 379
#     4  10  20  37  61  88 121 162 209 257 308 374
#     4   9  19  35  57  83 111 152 205 256 310 367
#     4  10  20  36  58  80 114 165 209 248 308 383
#     4  11  22  35  57  90 125 157 200 261 320 379
#     4  10  20  36  61  91 123 164 211 249 298 379
#
# _framework density 22.380865
#
# number of rings (size 3 to 8) (size 9 to 14) (size 15 to 20)
#    0.000    2.000    0.000    5.571    0.000    2.571 
#    0.000    0.714    0.000   18.857    0.000    0.000 
#    0.000    0.000    0.000    0.000    0.000    0.286 
#
# Total GULP energy -312369.280948 kJ/mol
# GULP energy per Si atom -5578.022874 kJ/mol
# Density = 2.232993 g / cm^3
# Si number density = 22.380865 Si / 1000 Ang^3
#
#
#
# Elastic Constant Matrix: (Units=GPa)
#
#
# Indices 1 2 3 4 5 6 
#
# 1 85.2990 24.2633 5.1822 0.0000 0.0000 0.0000
# 2 24.2633 95.1655 44.0109 0.0000 0.0000 0.0000
# 3 5.1822 44.0109 59.9937 0.0000 0.0000 0.0000
# 4 0.0000 0.0000 0.0000 26.6866 0.0000 0.0000
# 5 0.0000 0.0000 0.0000 0.0000 10.3143 0.0000
# 6 0.0000 0.0000 0.0000 0.0000 0.0000 33.2713
#
#
#
# Elastic Compliance Matrix: (Units=1/GPa)
#
#
# Indices 1 2 3 4 5 6 
#
# 1 0.012789 -0.004162 0.001948 0.000000 0.000000 0.000000
# 2 -0.004162 0.017258 -0.012301 0.000000 0.000000 0.000000
# 3 0.001948 -0.012301 0.025524 0.000000 0.000000 0.000000
# 4 0.000000 0.000000 0.000000 0.037472 0.000000 0.000000
# 5 0.000000 0.000000 0.000000 0.000000 0.096953 0.000000
# 6 0.000000 0.000000 0.000000 0.000000 0.000000 0.030056
#
#
# Mechanical properties :
#
#
# Convention : Reuss Voigt Hill
#
# Bulk Modulus (GPa) = 37.67569 43.04122 40.35845
# Shear Modulus (GPa) = 19.38535 25.18789 22.28662
#
# Velocity S-wave (km/s) = 2.94625 3.35837 3.15904
# Velocity P-wave (km/s) = 5.33332 5.85758 5.60158
#
# Compressibility (1/GPa) = 0.02654232
#
# Stress axis : x y z
#
# Youngs Moduli (GPa) = 78.19291 57.94514 39.17917
#
# Poissons Ratio (x) = 0.24115 -0.07633
# Poissons Ratio (y) = 0.32541 0.48193
# Poissons Ratio (z) = -0.15234 0.71276
#
# Static dielectric constant tensor:
#      x y z
#    x 1.887960 0.000000 0.000000 
#    y 0.000000 1.739100 0.000000 
#    z 0.000000 0.000000 1.788630 
# 
# From -- ./inp_files/44348.got.cif
#   From: 2010.05.17/outbox.cif.g08.bks.cpg/sg72_23_cif.got.tgz:44348.got - 2010.06.03 17:03:01.
