data_PCOD9526140
_publ_section_title
;
Structure prediction by ZEFSAII (Michael W. Deem and Ramdas Pophale) SiO2 
 PCOD9526140
Probable space group: I B A M
;
_chemical_formula_sum "Si O2"
_cell_formula_units_Z 96
_cell_length_a 8.584376
_cell_length_b 24.985071
_cell_length_c 21.729008
_cell_angle_alpha 90.000000
_cell_angle_beta 90.000000
_cell_angle_gamma 90.000000
_cell_volume 4660.464663
_symmetry_space_group_name_H-M "I B A M"
_symmetry_group_IT_number 72
_symmetry_cell_setting 'orthorhombic'
loop_
_space_group_symop_operation_xyz
x,y,z
-x,-y,z
x,-y,1/2-z
-x,y,1/2-z
-x,-y,-z
x,y,-z
-x,y,1/2+z
x,-y,1/2+z
1/2+x,1/2+y,1/2+z
1/2-x,1/2-y,1/2+z
1/2+x,1/2-y,-z
1/2-x,1/2+y,-z
1/2-x,1/2-y,1/2-z
1/2+x,1/2+y,1/2-z
1/2-x,1/2+y,z
1/2+x,1/2-y,z
loop_
_atom_site_type_symbol
_atom_site_label
_atom_site_fract_x
_atom_site_fract_y
_atom_site_fract_z
Si Si1 0.232121 0.789535 0.191736
Si Si2 0.577005 0.806818 0.860486
Si Si3 0.792505 0.881497 0.226375
Si Si4 0.861626 0.965622 0.128731
Si Si5 0.072132 0.405307 0.568960
Si Si6 0.377115 0.046510 0.679636
O O1 0.250000 0.750000 0.250000
O O2 0.402914 0.804430 0.167089
O O3 0.139663 0.753912 0.142203
O O4 0.147841 0.841895 0.219314
O O5 0.690687 0.842953 0.817714
O O6 0.584175 0.841097 0.922747
O O7 0.892825 0.920786 0.182393
O O8 0.668478 0.917811 0.262766
O O9 0.734016 0.935890 0.085684
O O10 0.776751 0.014302 0.162791
O O11 0.000000 0.000000 0.097651
O O12 0.025369 0.419734 0.500000
O O13 0.946775 0.422245 0.620815
O O14 0.500000 0.000000 0.689423
#
# Coordination Sequence:
#
# PCOD9526140 Si02
#       6
#    16  16  16  16  16  16
#     4  10  19  34  57  86 116 151 189 237 305 379
#     4  10  21  37  58  87 115 151 196 246 302 362
#     4  10  19  34  56  85 123 155 186 229 301 369
#     4  10  23  38  54  91 129 159 193 245 302 358
#     4  10  22  42  64  82 111 163 217 255 291 343
#     4  10  21  34  61  84 117 158 201 242 288 361
#
# _framework density 20.598804999999999
#
# number of rings (size 3 to 8) (size 9 to 14) (size 15 to 20)
#    0.000    2.000    1.667    2.500    4.667    8.000 
#   15.000    0.833    0.000    0.000    0.000    0.000 
#    0.000    0.000    0.000    0.000    0.000    0.000 
#
# Total GULP energy -267412.149075 kJ/mol
# GULP energy per Si atom -5571.086439 kJ/mol
# Density = 2.055192 g / cm^3
# Si number density = 20.598805 Si / 1000 Ang^3
#
#
#
# Elastic Constant Matrix: (Units=GPa)
#
#
# Indices 1 2 3 4 5 6 
#
# 1 51.4544 26.8457 -6.8308 0.0000 0.0000 0.0000
# 2 26.8457 108.0144 24.8811 0.0000 0.0000 0.0000
# 3 -6.8308 24.8811 70.8668 0.0000 0.0000 0.0000
# 4 0.0000 0.0000 0.0000 14.5599 0.0000 0.0000
# 5 0.0000 0.0000 0.0000 0.0000 3.3215 0.0000
# 6 0.0000 0.0000 0.0000 0.0000 0.0000 36.6628
#
#
#
# Elastic Compliance Matrix: (Units=1/GPa)
#
#
# Indices 1 2 3 4 5 6 
#
# 1 0.023707 -0.006983 0.004737 0.000000 0.000000 0.000000
# 2 -0.006983 0.012130 -0.004932 0.000000 0.000000 0.000000
# 3 0.004737 -0.004932 0.016299 0.000000 0.000000 0.000000
# 4 0.000000 0.000000 0.000000 0.068682 0.000000 0.000000
# 5 0.000000 0.000000 0.000000 0.000000 0.301067 0.000000
# 6 0.000000 0.000000 0.000000 0.000000 0.000000 0.027276
#
#
# Mechanical properties :
#
#
# Convention : Reuss Voigt Hill
#
# Bulk Modulus (GPa) = 26.46944 35.56974 31.01959
# Shear Modulus (GPa) = 10.50178 23.27146 16.88662
#
# Velocity S-wave (km/s) = 2.26038 3.36482 2.86630
# Velocity P-wave (km/s) = 4.43738 5.69222 5.10351
#
# Compressibility (1/GPa) = 0.03777942
#
# Stress axis : x y z
#
# Youngs Moduli (GPa) = 42.18177 82.44253 61.35305
#
# Poissons Ratio (x) = 0.57571 -0.29062
# Poissons Ratio (y) = 0.29456 0.30258
# Poissons Ratio (z) = -0.19981 0.40659
#
# Static dielectric constant tensor:
#      x y z
#    x 1.884290 0.000000 0.000000 
#    y 0.000000 1.823630 0.000000 
#    z 0.000000 0.000000 1.757220 
# 
# From -- ./inp_files/42440.got.cif
#   From: 2010.05.17/outbox.cif.g08.bks.cpg/sg72_22_cif.got.tgz:42440.got - 2010.06.03 17:03:01.
