data_PCOD9526373
_publ_section_title
;
Structure prediction by ZEFSAII (Michael W. Deem and Ramdas Pophale) SiO2 
 PCOD9526373
Probable space group: I B A M
;
_chemical_formula_sum "Si O2"
_cell_formula_units_Z 52
_cell_length_a 15.904499
_cell_length_b 9.445300
_cell_length_c 13.622227
_cell_angle_alpha 90.000000
_cell_angle_beta 90.000000
_cell_angle_gamma 90.000000
_cell_volume 2046.368597
_symmetry_space_group_name_H-M "I B A M"
_symmetry_group_IT_number 72
_symmetry_cell_setting 'orthorhombic'
loop_
_space_group_symop_operation_xyz
x,y,z
-x,-y,z
x,-y,1/2-z
-x,y,1/2-z
-x,-y,-z
x,y,-z
-x,y,1/2+z
x,-y,1/2+z
1/2+x,1/2+y,1/2+z
1/2-x,1/2-y,1/2+z
1/2+x,1/2-y,-z
1/2-x,1/2+y,-z
1/2-x,1/2-y,1/2-z
1/2+x,1/2+y,1/2-z
1/2-x,1/2+y,z
1/2+x,1/2-y,z
loop_
_atom_site_type_symbol
_atom_site_label
_atom_site_fract_x
_atom_site_fract_y
_atom_site_fract_z
Si Si1 0.357935 0.173813 0.684622
Si Si2 0.477955 0.836798 0.000000
Si Si3 0.000000 0.500000 0.250000
Si Si4 0.414008 0.587352 0.500000
Si Si5 0.776844 0.053759 0.611970
O O1 0.422243 0.196400 0.594042
O O2 0.424537 0.120401 0.767552
O O3 0.303729 0.318232 0.682415
O O4 0.296210 0.047677 0.649489
O O5 0.562099 0.748629 0.000000
O O6 0.500000 0.000000 0.000000
O O7 0.500000 0.500000 0.500000
O O8 0.358425 0.542872 0.407299
O O9 0.757213 0.107790 0.500000
#
# Coordination Sequence:
#
# PCOD9526373 Si02
#       5
#    16   8   4   8  16
#     4  12  24  44  67 104 139 186 233 294 357 428
#     4  12  21  36  72 104 133 181 235 294 335 402
#     4  12  32  46  64  98 154 198 246 272 364 458
#     4  10  19  36  66 117 134 159 231 306 353 402
#     4  10  22  39  72 106 137 172 238 308 354 404
#
# _framework density 25.410868000000001
#
# number of rings (size 3 to 8) (size 9 to 14) (size 15 to 20)
#    0.923    0.000    7.692    0.000    4.308    1.231 
#    0.000    0.000    0.000    3.692    0.000    0.000 
#    0.000    0.000    0.000    0.000    0.000    0.000 
#
# Total GULP energy -144855.336925 kJ/mol
# GULP energy per Si atom -5571.359112 kJ/mol
# Density = 2.535303 g / cm^3
# Si number density = 25.410868 Si / 1000 Ang^3
#
#
#
# Elastic Constant Matrix: (Units=GPa)
#
#
# Indices 1 2 3 4 5 6 
#
# 1 191.1544 94.7863 31.4789 0.0000 0.0000 0.0000
# 2 94.7863 188.0595 20.7067 0.0000 0.0000 0.0000
# 3 31.4789 20.7067 71.4655 0.0000 0.0000 0.0000
# 4 0.0000 0.0000 0.0000 17.7297 0.0000 0.0000
# 5 0.0000 0.0000 0.0000 0.0000 28.4178 0.0000
# 6 0.0000 0.0000 0.0000 0.0000 0.0000 80.3395
#
#
#
# Elastic Compliance Matrix: (Units=1/GPa)
#
#
# Indices 1 2 3 4 5 6 
#
# 1 0.007300 -0.003435 -0.002220 0.000000 0.000000 0.000000
# 2 -0.003435 0.007109 -0.000547 0.000000 0.000000 0.000000
# 3 -0.002220 -0.000547 0.015129 0.000000 0.000000 0.000000
# 4 0.000000 0.000000 0.000000 0.056402 0.000000 0.000000
# 5 0.000000 0.000000 0.000000 0.000000 0.035189 0.000000
# 6 0.000000 0.000000 0.000000 0.000000 0.000000 0.012447
#
#
# Mechanical properties :
#
#
# Convention : Reuss Voigt Hill
#
# Bulk Modulus (GPa) = 58.36254 82.73589 70.54921
# Shear Modulus (GPa) = 32.96130 45.54458 39.25294
#
# Velocity S-wave (km/s) = 3.60548 4.23818 3.93457
# Velocity P-wave (km/s) = 6.35217 7.52193 6.96167
#
# Compressibility (1/GPa) = 0.01713428
#
# Stress axis : x y z
#
# Youngs Moduli (GPa) = 136.98010 140.66651 66.09740
#
# Poissons Ratio (x) = 0.48320 0.14676
# Poissons Ratio (y) = 0.47053 0.03614
# Poissons Ratio (z) = 0.30414 0.07691
#
# Static dielectric constant tensor:
#      x y z
#    x 2.011490 0.000000 0.000000 
#    y 0.000000 2.120700 0.000000 
#    z 0.000000 0.000000 2.150390 
# 
# From -- ./inp_files/37622.got.cif
#   From: 2010.05.17/outbox.cif.g08.bks.cpg/sg72_19_cif.got.tgz:37622.got - 2010.06.03 17:03:01.
