data_PCOD9526772
_publ_section_title
;
Structure prediction by ZEFSAII (Michael W. Deem and Ramdas Pophale) SiO2 
 PCOD9526772
Probable space group: I B A M
;
_chemical_formula_sum "Si O2"
_cell_formula_units_Z 88
_cell_length_a 29.604089
_cell_length_b 11.027250
_cell_length_c 14.758342
_cell_angle_alpha 90.000000
_cell_angle_beta 90.000000
_cell_angle_gamma 90.000000
_cell_volume 4817.885694
_symmetry_space_group_name_H-M "I B A M"
_symmetry_group_IT_number 72
_symmetry_cell_setting 'orthorhombic'
loop_
_space_group_symop_operation_xyz
x,y,z
-x,-y,z
x,-y,1/2-z
-x,y,1/2-z
-x,-y,-z
x,y,-z
-x,y,1/2+z
x,-y,1/2+z
1/2+x,1/2+y,1/2+z
1/2-x,1/2-y,1/2+z
1/2+x,1/2-y,-z
1/2-x,1/2+y,-z
1/2-x,1/2-y,1/2-z
1/2+x,1/2+y,1/2-z
1/2-x,1/2+y,z
1/2+x,1/2-y,z
loop_
_atom_site_type_symbol
_atom_site_label
_atom_site_fract_x
_atom_site_fract_y
_atom_site_fract_z
Si Si1 0.552278 0.843443 0.500000
Si Si2 0.950525 0.362737 0.000000
Si Si3 0.808513 0.832469 0.600183
Si Si4 0.375633 0.872512 0.359022
Si Si5 0.217948 0.199161 0.105648
Si Si6 0.298374 0.500000 0.750000
Si Si7 0.126188 0.656223 0.645562
O O1 0.500067 0.804917 0.500000
O O2 0.582341 0.807721 0.413005
O O3 0.547850 0.990211 0.500000
O O4 0.920346 0.333205 0.087319
O O5 0.814099 0.884654 0.500000
O O6 0.834289 0.706295 0.605714
O O7 0.756088 0.802112 0.617853
O O8 0.825788 0.917522 0.680027
O O9 0.381506 0.847113 0.252902
O O10 0.365539 0.014051 0.377390
O O11 0.226057 0.092853 0.179797
O O12 0.169099 0.260068 0.122432
O O13 0.221328 0.159601 0.000000
#
# Coordination Sequence:
#
# PCOD9526772 Si02
#       7
#     8   8  16  16  16   8  16
#     4   9  18  34  55  83 117 145 179 234 292 345
#     4   9  18  34  55  83 117 145 179 234 292 345
#     4  11  24  38  57  83 115 153 195 229 276 329
#     4  10  20  34  57  85 115 150 186 228 281 341
#     4  11  24  38  57  83 115 153 195 229 276 329
#     4  12  24  40  54  82 115 156 187 246 262 330
#     4  10  20  34  57  85 115 150 186 228 281 341
#
# _framework density 18.265274000000002
#
# number of rings (size 3 to 8) (size 9 to 14) (size 15 to 20)
#    0.000    1.636    3.636    1.091    2.545    0.727 
#    0.000    3.636    0.000    0.000    0.000    3.818 
#    0.000    0.000    0.000    0.000    0.000    0.000 
#
# Total GULP energy -245290.354584 kJ/mol
# GULP energy per Si atom -5574.780786 kJ/mol
# Density = 1.822370 g / cm^3
# Si number density = 18.265274 Si / 1000 Ang^3
#
#
#
# Elastic Constant Matrix: (Units=GPa)
#
#
# Indices 1 2 3 4 5 6 
#
# 1 105.7834 15.8266 29.3259 0.0000 0.0000 0.0000
# 2 15.8266 49.1264 37.7549 0.0000 0.0000 0.0000
# 3 29.3259 37.7549 140.7146 0.0000 0.0000 0.0000
# 4 0.0000 0.0000 0.0000 21.1007 0.0000 0.0000
# 5 0.0000 0.0000 0.0000 0.0000 7.1588 0.0000
# 6 0.0000 0.0000 0.0000 0.0000 0.0000 16.9594
#
#
#
# Elastic Compliance Matrix: (Units=1/GPa)
#
#
# Indices 1 2 3 4 5 6 
#
# 1 0.010199 -0.002081 -0.001567 0.000000 0.000000 0.000000
# 2 -0.002081 0.026068 -0.006561 0.000000 0.000000 0.000000
# 3 -0.001567 -0.006561 0.009193 0.000000 0.000000 0.000000
# 4 0.000000 0.000000 0.000000 0.047392 0.000000 0.000000
# 5 0.000000 0.000000 0.000000 0.000000 0.139688 0.000000
# 6 0.000000 0.000000 0.000000 0.000000 0.000000 0.058965
#
#
# Mechanical properties :
#
#
# Convention : Reuss Voigt Hill
#
# Bulk Modulus (GPa) = 39.93191 51.27103 45.60147
# Shear Modulus (GPa) = 15.61178 23.22491 19.41834
#
# Velocity S-wave (km/s) = 2.92674 3.56973 3.26410
# Velocity P-wave (km/s) = 5.77328 6.71727 6.26309
#
# Compressibility (1/GPa) = 0.02504263
#
# Stress axis : x y z
#
# Youngs Moduli (GPa) = 98.04765 38.36101 108.77344
#
# Poissons Ratio (x) = 0.07984 0.17046
# Poissons Ratio (y) = 0.20408 0.71361
# Poissons Ratio (z) = 0.15365 0.25167
#
# Static dielectric constant tensor:
#      x y z
#    x 1.601670 0.000000 0.000000 
#    y 0.000000 1.670630 0.000000 
#    z 0.000000 0.000000 1.660680 
# 
# From -- ./inp_files/20338.got.cif
#   From: 2010.05.17/outbox.cif.g08.bks.cpg/sg72_11_cif.got.tgz:20338.got - 2010.06.03 17:03:01.
