data_PCOD9526070
_publ_section_title
;
Structure prediction by ZEFSAII (Michael W. Deem and Ramdas Pophale) SiO2 
 PCOD9526070
Probable space group: I B A M
;
_chemical_formula_sum "Si O2"
_cell_formula_units_Z 64
_cell_length_a 18.985040
_cell_length_b 12.206978
_cell_length_c 11.528045
_cell_angle_alpha 90.000000
_cell_angle_beta 90.000000
_cell_angle_gamma 90.000000
_cell_volume 2671.624032
_symmetry_space_group_name_H-M "I B A M"
_symmetry_group_IT_number 72
_symmetry_cell_setting 'orthorhombic'
loop_
_space_group_symop_operation_xyz
x,y,z
-x,-y,z
x,-y,1/2-z
-x,y,1/2-z
-x,-y,-z
x,y,-z
-x,y,1/2+z
x,-y,1/2+z
1/2+x,1/2+y,1/2+z
1/2-x,1/2-y,1/2+z
1/2+x,1/2-y,-z
1/2-x,1/2+y,-z
1/2-x,1/2-y,1/2-z
1/2+x,1/2+y,1/2-z
1/2-x,1/2+y,z
1/2+x,1/2-y,z
loop_
_atom_site_type_symbol
_atom_site_label
_atom_site_fract_x
_atom_site_fract_y
_atom_site_fract_z
Si Si1 0.770901 0.136650 0.000000
Si Si2 0.674962 0.644353 0.500000
Si Si3 0.375205 0.009285 0.500000
Si Si4 0.531946 0.766033 0.500000
Si Si5 0.433742 0.842120 0.685971
Si Si6 0.319453 0.677275 0.748929
O O1 0.729682 0.253233 0.000000
O O2 0.705443 0.050629 0.000000
O O3 0.817084 0.131336 0.117445
O O4 0.593699 0.680212 0.500000
O O5 0.683384 0.603745 0.634346
O O6 0.428861 0.113207 0.500000
O O7 0.391969 0.931707 0.610312
O O8 0.477263 0.759948 0.604597
O O9 0.500000 0.893275 0.750000
O O10 0.381263 0.768142 0.760073
O O11 0.250000 0.750000 0.750000
#
# Coordination Sequence:
#
# PCOD9526070 Si02
#       6
#     8   8   8   8  16  16
#     4   9  19  37  54  77 113 169 204 254 292 363
#     4   9  17  33  52  77 104 150 202 260 280 350
#     4  10  23  36  51  87 130 165 205 243 310 390
#     4  10  19  34  45  83 122 151 196 236 298 376
#     4  11  20  33  57  84 121 168 200 247 317 382
#     4  10  20  37  57  76 115 163 212 254 295 361
#
# _framework density 23.955466999999999
#
# number of rings (size 3 to 8) (size 9 to 14) (size 15 to 20)
#    0.000    2.000    2.500    3.000    0.000    2.000 
#    0.000    0.000    0.000    1.500    0.000    0.000 
#    0.000    6.000    0.000    0.000    0.000    0.000 
#
# Total GULP energy -178342.748230 kJ/mol
# GULP energy per Si atom -5573.210882 kJ/mol
# Density = 2.390094 g / cm^3
# Si number density = 23.955467 Si / 1000 Ang^3
#
#
#
# Elastic Constant Matrix: (Units=GPa)
#
#
# Indices 1 2 3 4 5 6 
#
# 1 103.2215 22.8413 31.8207 0.0000 0.0000 0.0000
# 2 22.8413 65.1679 19.1453 0.0000 0.0000 0.0000
# 3 31.8207 19.1453 207.2239 0.0000 0.0000 0.0000
# 4 0.0000 0.0000 0.0000 -5.3823 0.0000 0.0000
# 5 0.0000 0.0000 0.0000 0.0000 38.7445 0.0000
# 6 0.0000 0.0000 0.0000 0.0000 0.0000 11.5894
#
#
#
# Elastic Compliance Matrix: (Units=1/GPa)
#
#
# Indices 1 2 3 4 5 6 
#
# 1 0.010859 -0.003409 -0.001353 0.000000 0.000000 0.000000
# 2 -0.003409 0.016843 -0.001033 0.000000 0.000000 0.000000
# 3 -0.001353 -0.001033 0.005129 0.000000 0.000000 0.000000
# 4 0.000000 0.000000 0.000000 -0.185793 0.000000 0.000000
# 5 0.000000 0.000000 0.000000 0.000000 0.025810 0.000000
# 6 0.000000 0.000000 0.000000 0.000000 0.000000 0.086285
#
#
# Mechanical properties :
#
#
# Convention : Reuss Voigt Hill
#
# Bulk Modulus (GPa) = 47.07419 58.13642 52.60531
# Shear Modulus (GPa) = -225.24821 29.11074 -98.06874
#
# Velocity S-wave (km/s) = -9.70732 3.48976 -6.40522
# Velocity P-wave (km/s) = 10.29317 6.36860 5.71796
#
# Compressibility (1/GPa) = 0.02124306
#
# Stress axis : x y z
#
# Youngs Moduli (GPa) = 92.08808 59.37139 194.97720
#
# Poissons Ratio (x) = 0.20238 0.26372
# Poissons Ratio (y) = 0.31391 0.20135
# Poissons Ratio (z) = 0.12456 0.06131
#
# Static dielectric constant tensor:
#      x y z
#    x 1.829470 0.000000 0.000000 
#    y 0.000000 1.760020 0.000000 
#    z 0.000000 0.000000 2.160030 
# 
# From -- ./inp_files/13525.got.cif
#   From: 2010.05.17/outbox.cif.g08.bks.cpg/sg72_7_cif.got.tgz:13525.got - 2010.06.03 17:03:01.
