data_PCOD9526440
_publ_section_title
;
Structure prediction by ZEFSAII (Michael W. Deem and Ramdas Pophale) SiO2 
 PCOD9526440
Probable space group: I B A M
;
_chemical_formula_sum "Si O2"
_cell_formula_units_Z 80
_cell_length_a 13.201315
_cell_length_b 27.883472
_cell_length_c 10.386196
_cell_angle_alpha 90.000000
_cell_angle_beta 90.000000
_cell_angle_gamma 90.000000
_cell_volume 3823.143139
_symmetry_space_group_name_H-M "I B A M"
_symmetry_group_IT_number 72
_symmetry_cell_setting 'orthorhombic'
loop_
_space_group_symop_operation_xyz
x,y,z
-x,-y,z
x,-y,1/2-z
-x,y,1/2-z
-x,-y,-z
x,y,-z
-x,y,1/2+z
x,-y,1/2+z
1/2+x,1/2+y,1/2+z
1/2-x,1/2-y,1/2+z
1/2+x,1/2-y,-z
1/2-x,1/2+y,-z
1/2-x,1/2-y,1/2-z
1/2+x,1/2+y,1/2-z
1/2-x,1/2+y,z
1/2+x,1/2-y,z
loop_
_atom_site_type_symbol
_atom_site_label
_atom_site_fract_x
_atom_site_fract_y
_atom_site_fract_z
Si Si1 0.732605 0.146854 0.788758
Si Si2 0.827110 0.790013 0.500000
Si Si3 0.737322 0.184553 0.500000
Si Si4 0.418081 0.068280 0.359045
Si Si5 0.104639 0.920833 0.290955
Si Si6 0.746681 0.000000 0.750000
Si Si7 0.544998 0.341612 0.000000
O O1 0.765940 0.191883 0.873835
O O2 0.720071 0.156785 0.635531
O O3 0.633310 0.120285 0.839647
O O4 0.825816 0.109355 0.807445
O O5 0.827243 0.732787 0.500000
O O6 0.938993 0.813965 0.500000
O O7 0.858858 0.194278 0.500000
O O8 0.500000 0.060079 0.250000
O O9 0.463816 0.064089 0.500000
O O10 0.327387 0.030578 0.339917
O O11 0.181879 0.963115 0.329054
O O12 0.064477 0.878566 0.383534
O O13 0.000000 0.944351 0.250000
#
# Coordination Sequence:
#
# PCOD9526440 Si02
#       7
#    16   8   8  16  16   8   8
#     4  10  22  42  64  95 130 174 216 275 342 390
#     4  12  20  42  69  94 132 172 229 277 334 410
#     4  10  24  40  64  98 134 172 222 276 335 397
#     4  11  25  45  68  94 133 176 223 272 334 399
#     4  10  19  38  61  94 132 168 211 261 332 397
#     4  10  24  38  64  98 130 170 220 272 316 402
#     4  10  22  38  66  91 132 178 207 272 340 381
#
# _framework density 20.925190000000001
#
# number of rings (size 3 to 8) (size 9 to 14) (size 15 to 20)
#    0.000    1.600    3.000    1.200    2.800    1.600 
#    3.600    1.000    0.000    0.000    0.000    0.000 
#    0.000    0.000    0.000    0.000    0.000    0.000 
#
# Total GULP energy -222887.844016 kJ/mol
# GULP energy per Si atom -5572.196100 kJ/mol
# Density = 2.087756 g / cm^3
# Si number density = 20.925190 Si / 1000 Ang^3
#
#
#
# Elastic Constant Matrix: (Units=GPa)
#
#
# Indices 1 2 3 4 5 6 
#
# 1 109.3925 42.8429 40.9529 0.0001 0.0001 0.0000
# 2 42.8429 77.4319 13.6405 0.0001 -0.0002 0.0000
# 3 40.9529 13.6405 116.8466 0.0006 -0.0006 -0.0001
# 4 0.0001 0.0001 0.0006 -7.2553 0.0000 -0.0001
# 5 0.0001 -0.0002 -0.0006 0.0000 9.6953 0.0000
# 6 0.0000 0.0000 -0.0001 -0.0001 0.0000 37.8700
#
#
#
# Elastic Compliance Matrix: (Units=1/GPa)
#
#
# Indices 1 2 3 4 5 6 
#
# 1 0.013169 -0.006609 -0.003844 0.000000 0.000000 0.000000
# 2 -0.006609 0.016503 0.000390 0.000000 0.000000 0.000000
# 3 -0.003844 0.000390 0.009860 0.000001 0.000001 0.000000
# 4 0.000000 0.000000 0.000001 -0.137831 0.000001 0.000000
# 5 0.000000 0.000000 0.000001 0.000001 0.103142 0.000000
# 6 0.000000 0.000000 0.000000 0.000000 0.000000 0.026406
#
#
# Mechanical properties :
#
#
# Convention : Reuss Voigt Hill
#
# Bulk Modulus (GPa) = 51.53271 55.39374 53.46323
# Shear Modulus (GPa) = 86.43899 21.81099 54.12499
#
# Velocity S-wave (km/s) = 6.43415 3.23202 5.09138
# Velocity P-wave (km/s) = 8.93746 6.36063 7.75680
#
# Compressibility (1/GPa) = 0.01940515
#
# Stress axis : x y z
#
# Youngs Moduli (GPa) = 75.93662 60.59607 101.42040
#
# Poissons Ratio (x) = 0.40049 0.38985
# Poissons Ratio (y) = 0.50188 -0.03954
# Poissons Ratio (z) = 0.29190 -0.02363
#
# Static dielectric constant tensor:
#      x y z
#    x 1.773190 0.000000 0.000000 
#    y 0.000000 1.759100 0.000000 
#    z 0.000000 0.000000 1.793260 
# 
# From -- ./inp_files/11704.got.cif
#   From: 2010.05.17/outbox.cif.g08.bks.cpg/sg72_6_cif.got.tgz:11704.got - 2010.06.03 17:03:01.
