data_PCOD9526606
_publ_section_title
;
Structure prediction by ZEFSAII (Michael W. Deem and Ramdas Pophale) SiO2 
 PCOD9526606
Probable space group: I B A M
;
_chemical_formula_sum "Si O2"
_cell_formula_units_Z 96
_cell_length_a 22.185140
_cell_length_b 8.279593
_cell_length_c 27.228075
_cell_angle_alpha 90.000000
_cell_angle_beta 90.000000
_cell_angle_gamma 90.000000
_cell_volume 5001.359818
_symmetry_space_group_name_H-M "I B A M"
_symmetry_group_IT_number 72
_symmetry_cell_setting 'orthorhombic'
loop_
_space_group_symop_operation_xyz
x,y,z
-x,-y,z
x,-y,1/2-z
-x,y,1/2-z
-x,-y,-z
x,y,-z
-x,y,1/2+z
x,-y,1/2+z
1/2+x,1/2+y,1/2+z
1/2-x,1/2-y,1/2+z
1/2+x,1/2-y,-z
1/2-x,1/2+y,-z
1/2-x,1/2-y,1/2-z
1/2+x,1/2+y,1/2-z
1/2-x,1/2+y,z
1/2+x,1/2-y,z
loop_
_atom_site_type_symbol
_atom_site_label
_atom_site_fract_x
_atom_site_fract_y
_atom_site_fract_z
Si Si1 0.331997 0.757005 0.916322
Si Si2 0.799899 0.862564 0.813767
Si Si3 0.852556 0.174913 0.132996
Si Si4 0.571545 0.522465 0.443590
Si Si5 0.214914 0.393830 0.445180
Si Si6 0.661827 0.164781 0.723754
O O1 0.318773 0.756993 0.858064
O O2 0.398707 0.696986 0.930275
O O3 0.286846 0.620020 0.938166
O O4 0.311098 0.927336 0.937874
O O5 0.729831 0.859340 0.798269
O O6 0.834177 0.803684 0.765079
O O7 0.817022 0.035518 0.836780
O O8 0.811217 0.279297 0.096866
O O9 0.877166 0.286823 0.176703
O O10 0.900403 0.092652 0.097644
O O11 0.500000 0.500000 0.441072
O O12 0.589137 0.485435 0.500000
O O13 0.200124 0.337248 0.500000
O O14 0.644111 0.000000 0.750000
#
# Coordination Sequence:
#
# PCOD9526606 Si02
#       6
#    16  16  16  16  16  16
#     4  11  22  37  57  87 124 156 194 243 294 360
#     4  10  20  33  53  83 120 157 191 234 293 358
#     4  11  22  36  57  85 121 154 199 243 296 355
#     4  10  22  42  65  86 113 157 208 250 292 350
#     4  12  23  35  55  88 125 160 189 237 307 368
#     4  11  20  32  53  83 122 153 188 235 294 363
#
# _framework density 19.194780000000002
#
# number of rings (size 3 to 8) (size 9 to 14) (size 15 to 20)
#    0.000    1.167    1.667    7.500    0.000    0.000 
#    0.000    0.833    0.000   11.000    0.000    4.667 
#    0.000    0.000    0.000    0.000    0.000    0.000 
#
# Total GULP energy -267988.280938 kJ/mol
# GULP energy per Si atom -5583.089186 kJ/mol
# Density = 1.915109 g / cm^3
# Si number density = 19.194780 Si / 1000 Ang^3
#
#
#
# Elastic Constant Matrix: (Units=GPa)
#
#
# Indices 1 2 3 4 5 6 
#
# 1 66.0163 36.5826 31.9650 0.0000 0.0000 0.0000
# 2 36.5826 94.1161 54.7979 0.0000 0.0000 0.0000
# 3 31.9650 54.7979 189.4564 0.0000 0.0000 0.0000
# 4 0.0000 0.0000 0.0000 34.2234 0.0000 0.0000
# 5 0.0000 0.0000 0.0000 0.0000 20.2052 0.0000
# 6 0.0000 0.0000 0.0000 0.0000 0.0000 11.3077
#
#
#
# Elastic Compliance Matrix: (Units=1/GPa)
#
#
# Indices 1 2 3 4 5 6 
#
# 1 0.019579 -0.006839 -0.001325 0.000000 0.000000 0.000000
# 2 -0.006839 0.015165 -0.003233 0.000000 0.000000 0.000000
# 3 -0.001325 -0.003233 0.006437 0.000000 0.000000 0.000000
# 4 0.000000 0.000000 0.000000 0.029220 0.000000 0.000000
# 5 0.000000 0.000000 0.000000 0.000000 0.049492 0.000000
# 6 0.000000 0.000000 0.000000 0.000000 0.000000 0.088435
#
#
# Mechanical properties :
#
#
# Convention : Reuss Voigt Hill
#
# Bulk Modulus (GPa) = 54.38274 66.25330 60.31802
# Shear Modulus (GPa) = 21.07469 28.23014 24.65242
#
# Velocity S-wave (km/s) = 3.31711 3.83916 3.58764
# Velocity P-wave (km/s) = 6.56236 7.36501 6.97524
#
# Compressibility (1/GPa) = 0.01838819
#
# Stress axis : x y z
#
# Youngs Moduli (GPa) = 51.07475 65.93924 155.35502
#
# Poissons Ratio (x) = 0.45094 0.20591
# Poissons Ratio (y) = 0.34928 0.50220
# Poissons Ratio (z) = 0.06769 0.21316
#
# Static dielectric constant tensor:
#      x y z
#    x 1.652420 0.000000 0.000000 
#    y 0.000000 1.738240 0.000000 
#    z 0.000000 0.000000 1.711560 
# 
# From -- ./inp_files/47340.got.cif
#   From: 2010.05.17/outbox.cif.g08.bks.cpg/sg72_24_cif.got.tgz:47340.got - 2010.06.03 17:03:01.
