data_PCOD9526516
_publ_section_title
;
Structure prediction by ZEFSAII (Michael W. Deem and Ramdas Pophale) SiO2 
 PCOD9526516
Probable space group: I B A M
;
_chemical_formula_sum "Si O2"
_cell_formula_units_Z 104
_cell_length_a 20.967733
_cell_length_b 19.896426
_cell_length_c 14.238394
_cell_angle_alpha 90.000000
_cell_angle_beta 90.000000
_cell_angle_gamma 90.000000
_cell_volume 5940.015184
_symmetry_space_group_name_H-M "I B A M"
_symmetry_group_IT_number 72
_symmetry_cell_setting 'orthorhombic'
loop_
_space_group_symop_operation_xyz
x,y,z
-x,-y,z
x,-y,1/2-z
-x,y,1/2-z
-x,-y,-z
x,y,-z
-x,y,1/2+z
x,-y,1/2+z
1/2+x,1/2+y,1/2+z
1/2-x,1/2-y,1/2+z
1/2+x,1/2-y,-z
1/2-x,1/2+y,-z
1/2-x,1/2-y,1/2-z
1/2+x,1/2+y,1/2-z
1/2-x,1/2+y,z
1/2+x,1/2-y,z
loop_
_atom_site_type_symbol
_atom_site_label
_atom_site_fract_x
_atom_site_fract_y
_atom_site_fract_z
Si Si1 0.245078 0.698342 0.388168
Si Si2 0.259637 0.930003 0.225723
Si Si3 0.500000 0.311849 0.750000
Si Si4 0.570197 0.407749 0.105316
Si Si5 0.104016 0.801535 0.109707
Si Si6 0.710765 0.345448 0.104995
Si Si7 0.369538 0.455658 0.109838
O O1 0.241229 0.688403 0.500000
O O2 0.217558 0.631639 0.339564
O O3 0.320866 0.708741 0.367054
O O4 0.211216 0.768069 0.362798
O O5 0.246838 0.892691 0.323264
O O6 0.193736 0.952356 0.173073
O O7 0.294440 0.000000 0.250000
O O8 0.534454 0.360420 0.823630
O O9 0.553780 0.274224 0.686497
O O10 0.640245 0.374912 0.100014
O O11 0.583138 0.484252 0.136084
O O12 0.541983 0.408264 0.000000
O O13 0.098831 0.882793 0.115189
O O14 0.093094 0.781715 0.000000
O O15 0.738864 0.346472 0.000000
O O16 0.351437 0.467290 0.000000
#
# Coordination Sequence:
#
# PCOD9526516 Si02
#       7
#    16  16   8  16  16  16  16
#     4   9  19  35  51  66  88 119 156 195 233 278
#     4  11  18  26  47  69  91 118 150 187 233 279
#     4  12  22  29  42  60  88 120 153 200 236 260
#     4  10  20  32  45  63  88 118 159 197 230 272
#     4   9  19  32  45  61  84 119 157 187 227 274
#     4  10  20  33  49  68  89 117 156 198 233 274
#     4   9  18  32  45  60  86 120 158 197 229 262
#
# _framework density 17.508372999999999
#
# number of rings (size 3 to 8) (size 9 to 14) (size 15 to 20)
#    0.000    2.154    1.538    4.154    0.000    1.846 
#    0.000    2.308    0.000    0.000    0.000    0.000 
#    0.000    0.000    0.000   11.077    0.000   87.385 
#
# Total GULP energy -289931.329880 kJ/mol
# GULP energy per Si atom -5575.602498 kJ/mol
# Density = 1.746852 g / cm^3
# Si number density = 17.508373 Si / 1000 Ang^3
#
#
#
# Elastic Constant Matrix: (Units=GPa)
#
#
# Indices 1 2 3 4 5 6 
#
# 1 9.4734 -4.2079 1.1004 0.0000 0.0000 0.0000
# 2 -4.2079 74.3563 21.8467 0.0000 0.0000 0.0000
# 3 1.1004 21.8467 79.9073 0.0000 0.0000 0.0000
# 4 0.0000 0.0000 0.0000 17.3341 0.0000 0.0000
# 5 0.0000 0.0000 0.0000 0.0000 17.4251 0.0000
# 6 0.0000 0.0000 0.0000 0.0000 0.0000 -5.2630
#
#
#
# Elastic Compliance Matrix: (Units=1/GPa)
#
#
# Indices 1 2 3 4 5 6 
#
# 1 0.109159 0.007197 -0.003471 0.000000 0.000000 0.000000
# 2 0.007197 0.015098 -0.004227 0.000000 0.000000 0.000000
# 3 -0.003471 -0.004227 0.013718 0.000000 0.000000 0.000000
# 4 0.000000 0.000000 0.000000 0.057690 0.000000 0.000000
# 5 0.000000 0.000000 0.000000 0.000000 0.057389 0.000000
# 6 0.000000 0.000000 0.000000 0.000000 0.000000 -0.190005
#
#
# Mechanical properties :
#
#
# Convention : Reuss Voigt Hill
#
# Bulk Modulus (GPa) = 7.30069 22.35726 14.82897
# Shear Modulus (GPa) = 45.57589 15.56575 30.57082
#
# Velocity S-wave (km/s) = 5.10758 2.98492 4.18313
# Velocity P-wave (km/s) = 6.24196 4.96758 5.64088
#
# Compressibility (1/GPa) = 0.13697342
#
# Stress axis : x y z
#
# Youngs Moduli (GPa) = 9.16097 66.23402 72.89722
#
# Poissons Ratio (x) = -0.47670 0.25302
# Poissons Ratio (y) = -0.06593 0.30813
# Poissons Ratio (z) = 0.03180 0.27997
#
# Static dielectric constant tensor:
#      x y z
#    x 1.619240 0.000000 0.000000 
#    y 0.000000 1.612340 0.000000 
#    z 0.000000 0.000000 1.694100 
# 
# From -- ./inp_files/24455.got.cif
#   From: 2010.05.17/outbox.cif.g08.bks.cpg/sg72_13_cif.got.tgz:24455.got - 2010.06.03 17:03:01.
