data_PCOD9526666
_publ_section_title
;
Structure prediction by ZEFSAII (Michael W. Deem and Ramdas Pophale) SiO2 
 PCOD9526666
Probable space group: I B A M
;
_chemical_formula_sum "Si O2"
_cell_formula_units_Z 80
_cell_length_a 19.065268
_cell_length_b 27.423257
_cell_length_c 8.634114
_cell_angle_alpha 90.000000
_cell_angle_beta 90.000000
_cell_angle_gamma 90.000000
_cell_volume 4514.188882
_symmetry_space_group_name_H-M "I B A M"
_symmetry_group_IT_number 72
_symmetry_cell_setting 'orthorhombic'
loop_
_space_group_symop_operation_xyz
x,y,z
-x,-y,z
x,-y,1/2-z
-x,y,1/2-z
-x,-y,-z
x,y,-z
-x,y,1/2+z
x,-y,1/2+z
1/2+x,1/2+y,1/2+z
1/2-x,1/2-y,1/2+z
1/2+x,1/2-y,-z
1/2-x,1/2+y,-z
1/2-x,1/2-y,1/2-z
1/2+x,1/2+y,1/2-z
1/2-x,1/2+y,z
1/2+x,1/2-y,z
loop_
_atom_site_type_symbol
_atom_site_label
_atom_site_fract_x
_atom_site_fract_y
_atom_site_fract_z
Si Si1 0.925565 0.054906 0.685351
Si Si2 0.075802 0.347324 0.685734
Si Si3 0.852151 0.552117 0.686195
Si Si4 0.785620 0.899157 0.314718
Si Si5 0.720671 0.199451 0.313358
O O1 0.927032 0.053630 0.500000
O O2 0.860094 0.085449 0.746196
O O3 0.000000 0.073465 0.750000
O O4 0.917442 0.000000 0.750000
O O5 0.072565 0.347211 0.500000
O O6 0.099008 0.402185 0.733710
O O7 0.139615 0.311624 0.731316
O O8 0.000000 0.334527 0.750000
O O9 0.875784 0.500000 0.750000
O O10 0.848913 0.550949 0.500000
O O11 0.775083 0.564837 0.751698
O O12 0.786782 0.901007 0.500000
O O13 0.764134 0.845674 0.255735
O O14 0.724915 0.198156 0.500000
O O15 0.750000 0.250000 0.250000
#
# Coordination Sequence:
#
# PCOD9526666 Si02
#       5
#    16  16  16  16  16
#     4  11  21  35  53  77 109 145 182 223 269 323
#     4   9  20  36  55  79 110 141 176 217 263 315
#     4  10  20  34  51  77 109 144 183 223 262 312
#     4  11  21  35  55  79 106 141 180 223 271 322
#     4  10  21  39  60  84 108 137 177 224 271 322
#
# _framework density 17.721897999999999
#
# number of rings (size 3 to 8) (size 9 to 14) (size 15 to 20)
#    0.000    1.800    0.000    7.200    0.000    5.200 
#    0.000    3.000    0.000    2.400    0.000    0.000 
#    0.000    0.000    0.000    0.000    0.000    0.000 
#
# Total GULP energy -223417.952308 kJ/mol
# GULP energy per Si atom -5585.448808 kJ/mol
# Density = 1.768156 g / cm^3
# Si number density = 17.721898 Si / 1000 Ang^3
#
#
#
# Elastic Constant Matrix: (Units=GPa)
#
#
# Indices 1 2 3 4 5 6 
#
# 1 155.2319 57.6634 46.1141 0.0000 0.0000 0.0000
# 2 57.6634 96.1130 32.8348 0.0000 0.0000 0.0000
# 3 46.1141 32.8348 112.3708 0.0000 0.0000 0.0000
# 4 0.0000 0.0000 0.0000 32.0098 0.0000 0.0000
# 5 0.0000 0.0000 0.0000 0.0000 31.7333 0.0000
# 6 0.0000 0.0000 0.0000 0.0000 0.0000 10.0647
#
#
#
# Elastic Compliance Matrix: (Units=1/GPa)
#
#
# Indices 1 2 3 4 5 6 
#
# 1 0.008792 -0.004490 -0.002296 0.000000 0.000000 0.000000
# 2 -0.004490 0.013852 -0.002205 0.000000 0.000000 0.000000
# 3 -0.002296 -0.002205 0.010485 0.000000 0.000000 0.000000
# 4 0.000000 0.000000 0.000000 0.031240 0.000000 0.000000
# 5 0.000000 0.000000 0.000000 0.000000 0.031513 0.000000
# 6 0.000000 0.000000 0.000000 0.000000 0.000000 0.099357
#
#
# Mechanical properties :
#
#
# Convention : Reuss Voigt Hill
#
# Bulk Modulus (GPa) = 66.01935 70.77115 68.39525
# Shear Modulus (GPa) = 22.90736 29.90181 26.40458
#
# Velocity S-wave (km/s) = 3.59918 4.11211 3.86416
# Velocity P-wave (km/s) = 7.38958 7.90992 7.65418
#
# Compressibility (1/GPa) = 0.01514707
#
# Stress axis : x y z
#
# Youngs Moduli (GPa) = 113.73875 72.19332 95.36980
#
# Poissons Ratio (x) = 0.32418 0.21896
# Poissons Ratio (y) = 0.51074 0.21026
# Poissons Ratio (z) = 0.26113 0.15916
#
# Static dielectric constant tensor:
#      x y z
#    x 1.607390 0.000000 0.000000 
#    y 0.000000 1.593650 0.000000 
#    z 0.000000 0.000000 1.591810 
# 
# From -- ./inp_files/4781.got.cif
#   From: 2010.05.17/outbox.cif.g08.bks.cpg/sg72_3_cif.got.tgz:4781.got - 2010.06.03 17:03:01.
