data_PCOD9526554
_publ_section_title
;
Structure prediction by ZEFSAII (Michael W. Deem and Ramdas Pophale) SiO2 
 PCOD9526554
Probable space group: I B A M
;
_chemical_formula_sum "Si O2"
_cell_formula_units_Z 96
_cell_length_a 32.508763
_cell_length_b 21.155281
_cell_length_c 9.037414
_cell_angle_alpha 90.000000
_cell_angle_beta 90.000000
_cell_angle_gamma 90.000000
_cell_volume 6215.318952
_symmetry_space_group_name_H-M "I B A M"
_symmetry_group_IT_number 72
_symmetry_cell_setting 'orthorhombic'
loop_
_space_group_symop_operation_xyz
x,y,z
-x,-y,z
x,-y,1/2-z
-x,y,1/2-z
-x,-y,-z
x,y,-z
-x,y,1/2+z
x,-y,1/2+z
1/2+x,1/2+y,1/2+z
1/2-x,1/2-y,1/2+z
1/2+x,1/2-y,-z
1/2-x,1/2+y,-z
1/2-x,1/2-y,1/2-z
1/2+x,1/2+y,1/2-z
1/2-x,1/2+y,z
1/2+x,1/2-y,z
loop_
_atom_site_type_symbol
_atom_site_label
_atom_site_fract_x
_atom_site_fract_y
_atom_site_fract_z
Si Si1 0.627462 0.732938 0.168070
Si Si2 0.376969 0.581286 0.334647
Si Si3 0.041575 0.914507 0.331183
Si Si4 0.293102 0.436476 0.674960
Si Si5 0.213545 0.790122 0.321520
Si Si6 0.957075 0.239332 0.670168
O O1 0.622275 0.657282 0.155526
O O2 0.669961 0.736814 0.260126
O O3 0.585496 0.757109 0.246126
O O4 0.631715 0.757947 0.000000
O O5 0.369432 0.556298 0.500000
O O6 0.420449 0.564618 0.267283
O O7 0.340837 0.564473 0.222755
O O8 0.043830 0.936756 0.500000
O O9 0.042613 0.837490 0.334820
O O10 0.000000 0.931936 0.250000
O O11 0.274892 0.500000 0.750000
O O12 0.288251 0.441918 0.500000
O O13 0.280054 0.364817 0.719415
O O14 0.213417 0.786667 0.500000
O O15 0.250000 0.750000 0.250000
O O16 0.956509 0.261424 0.500000
O O17 0.000000 0.258081 0.750000
#
# Coordination Sequence:
#
# PCOD9526554 Si02
#       6
#    16  16  16  16  16  16
#     4   9  16  26  40  58  81 109 141 178 220 264
#     4   9  16  26  40  57  77 102 133 171 215 259
#     4   9  15  22  33  50  72  98 130 169 213 259
#     4  10  20  33  49  68  88 111 141 177 217 261
#     4  10  20  33  49  69  92 118 149 185 225 269
#     4   9  15  22  33  51  76 105 138 176 217 261
#
# _framework density 15.445709000000001
#
# number of rings (size 3 to 8) (size 9 to 14) (size 15 to 20)
#    0.000    2.667    0.000    3.000    0.000   10.000 
#    0.000    0.000    0.000    0.500    0.000    3.500 
#    0.000    0.000    0.000    0.000    0.000    0.833 
#
# Total GULP energy -267390.573988 kJ/mol
# GULP energy per Si atom -5570.636958 kJ/mol
# Density = 1.541055 g / cm^3
# Si number density = 15.445709 Si / 1000 Ang^3
#
#
#
# Elastic Constant Matrix: (Units=GPa)
#
#
# Indices 1 2 3 4 5 6 
#
# 1 107.8865 35.4655 47.3048 0.0000 0.0000 0.0000
# 2 35.4655 41.2791 18.5558 0.0000 0.0000 0.0000
# 3 47.3048 18.5558 79.0825 0.0000 0.0000 0.0000
# 4 0.0000 0.0000 0.0000 13.2230 0.0000 0.0000
# 5 0.0000 0.0000 0.0000 0.0000 23.9905 0.0000
# 6 0.0000 0.0000 0.0000 0.0000 0.0000 -6.1039
#
#
#
# Elastic Compliance Matrix: (Units=1/GPa)
#
#
# Indices 1 2 3 4 5 6 
#
# 1 0.015745 -0.010390 -0.006980 0.000000 0.000000 0.000000
# 2 -0.010390 0.033938 -0.001748 0.000000 0.000000 0.000000
# 3 -0.006980 -0.001748 0.017231 0.000000 0.000000 0.000000
# 4 0.000000 0.000000 0.000000 0.075626 0.000000 0.000000
# 5 0.000000 0.000000 0.000000 0.000000 0.041683 0.000000
# 6 0.000000 0.000000 0.000000 0.000000 0.000000 -0.163829
#
#
# Mechanical properties :
#
#
# Convention : Reuss Voigt Hill
#
# Bulk Modulus (GPa) = 34.87159 47.87781 41.37470
# Shear Modulus (GPa) = 73.32591 14.68340 44.00466
#
# Velocity S-wave (km/s) = 6.89756 3.08660 5.34338
# Velocity P-wave (km/s) = 9.27691 6.61571 8.05694
#
# Compressibility (1/GPa) = 0.02867664
#
# Stress axis : x y z
#
# Youngs Moduli (GPa) = 63.51177 29.46577 58.03601
#
# Poissons Ratio (x) = 0.30614 0.40511
# Poissons Ratio (y) = 0.65987 0.10146
# Poissons Ratio (z) = 0.44334 0.05151
#
# Static dielectric constant tensor:
#      x y z
#    x 1.500380 0.000000 0.000000 
#    y 0.000000 1.532260 0.000000 
#    z 0.000000 0.000000 1.542860 
# 
# From -- ./inp_files/8465.got.cif
#   From: 2010.05.17/outbox.cif.g08.bks.cpg/sg72_5_cif.got.tgz:8465.got - 2010.06.03 17:03:01.
