data_PCOD9526383
_publ_section_title
;
Structure prediction by ZEFSAII (Michael W. Deem and Ramdas Pophale) SiO2 
 PCOD9526383
Probable space group: I B A M
;
_chemical_formula_sum "Si O2"
_cell_formula_units_Z 120
_cell_length_a 16.731549
_cell_length_b 17.541463
_cell_length_c 20.665641
_cell_angle_alpha 90.000000
_cell_angle_beta 90.000000
_cell_angle_gamma 90.000000
_cell_volume 6065.279824
_symmetry_space_group_name_H-M "I B A M"
_symmetry_group_IT_number 72
_symmetry_cell_setting 'orthorhombic'
loop_
_space_group_symop_operation_xyz
x,y,z
-x,-y,z
x,-y,1/2-z
-x,y,1/2-z
-x,-y,-z
x,y,-z
-x,y,1/2+z
x,-y,1/2+z
1/2+x,1/2+y,1/2+z
1/2-x,1/2-y,1/2+z
1/2+x,1/2-y,-z
1/2-x,1/2+y,-z
1/2-x,1/2-y,1/2-z
1/2+x,1/2+y,1/2-z
1/2-x,1/2+y,z
1/2+x,1/2-y,z
loop_
_atom_site_type_symbol
_atom_site_label
_atom_site_fract_x
_atom_site_fract_y
_atom_site_fract_z
Si Si1 0.336395 0.540734 0.927313
Si Si2 0.358801 0.809824 0.292854
Si Si3 0.901935 0.144212 0.807413
Si Si4 0.216592 0.128470 0.572910
Si Si5 0.985417 0.587115 0.328242
Si Si6 0.371846 0.185652 0.356838
Si Si7 0.814889 0.161753 0.675435
Si Si8 0.500000 0.500000 0.644535
O O1 0.286432 0.463048 0.928564
O O2 0.299281 0.597198 0.875940
O O3 0.425023 0.523658 0.899640
O O4 0.341401 0.571343 0.000000
O O5 0.416668 0.735395 0.296663
O O6 0.397495 0.877687 0.333694
O O7 0.350200 0.833553 0.217959
O O8 0.268440 0.794091 0.314143
O O9 0.849364 0.146442 0.872676
O O10 0.849404 0.128169 0.742612
O O11 0.967261 0.076456 0.817539
O O12 0.197274 0.155575 0.500000
O O13 0.301878 0.159181 0.596024
O O14 0.000000 0.500000 0.346244
O O15 0.000000 0.592828 0.250000
O O16 0.046356 0.640967 0.366483
O O17 0.376455 0.277228 0.354681
#
# Coordination Sequence:
#
# PCOD9526383 Si02
#       8
#    16  16  16  16  16  16  16   8
#     4  10  24  40  57  86 121 166 207 252 310 372
#     4  10  19  37  60  87 126 155 190 254 308 354
#     4  10  20  39  60  92 122 157 206 250 313 362
#     4  10  20  37  59  83 119 162 205 253 304 369
#     4   9  20  34  55  87 116 153 190 234 298 363
#     4  10  19  37  59  86 116 152 198 245 305 359
#     4  11  21  36  64  90 123 157 196 263 303 362
#     4  10  23  39  62  84 127 169 202 250 311 385
#
# _framework density 19.784742000000001
#
# number of rings (size 3 to 8) (size 9 to 14) (size 15 to 20)
#    0.000    2.000    2.667    1.000    3.733    4.267 
#    0.000    0.000    0.000    1.200    0.000    0.000 
#    0.000    0.000    0.000    0.000    0.000    0.000 
#
# Total GULP energy -334210.615472 kJ/mol
# GULP energy per Si atom -5570.176925 kJ/mol
# Density = 1.973971 g / cm^3
# Si number density = 19.784742 Si / 1000 Ang^3
#
#
#
# Elastic Constant Matrix: (Units=GPa)
#
#
# Indices 1 2 3 4 5 6 
#
# 1 52.8581 20.2135 27.4739 0.0000 0.0000 0.0000
# 2 20.2135 63.8920 36.6756 0.0000 0.0000 0.0000
# 3 27.4739 36.6756 111.2091 0.0000 0.0000 0.0000
# 4 0.0000 0.0000 0.0000 28.8880 0.0000 0.0000
# 5 0.0000 0.0000 0.0000 0.0000 18.0638 0.0000
# 6 0.0000 0.0000 0.0000 0.0000 0.0000 35.2418
#
#
#
# Elastic Compliance Matrix: (Units=1/GPa)
#
#
# Indices 1 2 3 4 5 6 
#
# 1 0.022899 -0.004931 -0.004031 0.000000 0.000000 0.000000
# 2 -0.004931 0.020368 -0.005499 0.000000 0.000000 0.000000
# 3 -0.004031 -0.005499 0.011801 0.000000 0.000000 0.000000
# 4 0.000000 0.000000 0.000000 0.034616 0.000000 0.000000
# 5 0.000000 0.000000 0.000000 0.000000 0.055359 0.000000
# 6 0.000000 0.000000 0.000000 0.000000 0.000000 0.028375
#
#
# Mechanical properties :
#
#
# Convention : Reuss Voigt Hill
#
# Bulk Modulus (GPa) = 38.24524 44.07614 41.16069
# Shear Modulus (GPa) = 23.69026 26.01181 24.85103
#
# Velocity S-wave (km/s) = 3.46410 3.62987 3.54795
# Velocity P-wave (km/s) = 5.94749 6.31618 6.13461
#
# Compressibility (1/GPa) = 0.02614705
#
# Stress axis : x y z
#
# Youngs Moduli (GPa) = 43.66931 49.09687 84.73524
#
# Poissons Ratio (x) = 0.24208 0.34158
# Poissons Ratio (y) = 0.21532 0.46596
# Poissons Ratio (z) = 0.17604 0.26998
#
# Static dielectric constant tensor:
#      x y z
#    x 1.730060 0.000000 0.000000 
#    y 0.000000 1.741960 0.000000 
#    z 0.000000 0.000000 1.681400 
# 
# From -- ./inp_files/39260.got.cif
#   From: 2010.05.17/outbox.cif.g08.bks.cpg/sg72_20_cif.got.tgz:39260.got - 2010.06.03 17:03:01.
