data_PCOD9526783
_publ_section_title
;
Structure prediction by ZEFSAII (Michael W. Deem and Ramdas Pophale) SiO2 
 PCOD9526783
Probable space group: I B A M
;
_chemical_formula_sum "Si O2"
_cell_formula_units_Z 88
_cell_length_a 18.289559
_cell_length_b 28.162261
_cell_length_c 8.674368
_cell_angle_alpha 90.000000
_cell_angle_beta 90.000000
_cell_angle_gamma 90.000000
_cell_volume 4467.952996
_symmetry_space_group_name_H-M "I B A M"
_symmetry_group_IT_number 72
_symmetry_cell_setting 'orthorhombic'
loop_
_space_group_symop_operation_xyz
x,y,z
-x,-y,z
x,-y,1/2-z
-x,y,1/2-z
-x,-y,-z
x,y,-z
-x,y,1/2+z
x,-y,1/2+z
1/2+x,1/2+y,1/2+z
1/2-x,1/2-y,1/2+z
1/2+x,1/2-y,-z
1/2-x,1/2+y,-z
1/2-x,1/2-y,1/2-z
1/2+x,1/2+y,1/2-z
1/2-x,1/2+y,z
1/2+x,1/2-y,z
loop_
_atom_site_type_symbol
_atom_site_label
_atom_site_fract_x
_atom_site_fract_y
_atom_site_fract_z
Si Si1 0.799360 0.000000 0.250000
Si Si2 0.714365 0.911102 0.815378
Si Si3 0.072460 0.932628 0.671089
Si Si4 0.168302 0.745866 0.815291
Si Si5 0.081307 0.652688 0.814014
Si Si6 0.840298 0.850842 0.318455
O O1 0.743967 0.043811 0.217591
O O2 0.860486 0.030355 0.342103
O O3 0.634505 0.891446 0.775010
O O4 0.770153 0.867897 0.779910
O O5 0.717086 0.922384 0.000000
O O6 0.055783 0.915529 0.500000
O O7 0.099776 0.889719 0.776892
O O8 0.000000 0.951773 0.750000
O O9 0.250000 0.750000 0.750000
O O10 0.121411 0.701146 0.758290
O O11 0.134800 0.797644 0.781044
O O12 0.173778 0.740854 0.000000
O O13 0.000000 0.648647 0.750000
O O14 0.078043 0.654758 0.000000
O O15 0.821908 0.852872 0.500000
#
# Coordination Sequence:
#
# PCOD9526783 Si02
#       6
#     8  16  16  16  16  16
#     4  10  21  36  61  86 106 142 194 240 297 352
#     4  10  21  39  61  84 115 153 192 241 296 349
#     4  11  24  40  59  85 121 161 196 242 296 348
#     4  10  20  35  59  89 121 157 200 243 286 342
#     4  10  22  40  60  86 120 155 194 239 293 349
#     4  10  20  34  57  89 120 155 200 241 284 344
#
# _framework density 19.695822
#
# number of rings (size 3 to 8) (size 9 to 14) (size 15 to 20)
#    0.000    1.818    1.818    3.000    0.000   10.909 
#    0.000    2.273    0.000    2.182    0.000    0.000 
#    0.000    0.000    0.000    0.000    0.000    0.000 
#
# Total GULP energy -244985.529157 kJ/mol
# GULP energy per Si atom -5567.852935 kJ/mol
# Density = 1.965099 g / cm^3
# Si number density = 19.695822 Si / 1000 Ang^3
#
#
#
# Elastic Constant Matrix: (Units=GPa)
#
#
# Indices 1 2 3 4 5 6 
#
# 1 155.2076 69.7074 14.4413 0.0002 0.0000 0.0000
# 2 69.7074 118.9147 22.0232 -0.0003 0.0000 0.0000
# 3 14.4413 22.0232 17.3141 -0.0005 -0.0001 0.0001
# 4 0.0002 -0.0003 -0.0005 1462.8319 -0.0004 -0.0013
# 5 0.0000 0.0000 -0.0001 -0.0004 28.6760 0.0000
# 6 0.0000 0.0000 0.0001 -0.0013 0.0000 15.6112
#
#
#
# Elastic Compliance Matrix: (Units=1/GPa)
#
#
# Indices 1 2 3 4 5 6 
#
# 1 0.008759 -0.004947 -0.001013 0.000000 0.000000 0.000000
# 2 -0.004947 0.013795 -0.013421 0.000000 0.000000 0.000000
# 3 -0.001013 -0.013421 0.075672 0.000000 0.000000 -0.000001
# 4 0.000000 0.000000 0.000000 0.000684 0.000000 0.000000
# 5 0.000000 0.000000 0.000000 0.000000 0.034872 0.000000
# 6 0.000000 0.000000 -0.000001 0.000000 0.000000 0.064057
#
#
# Mechanical properties :
#
#
# Convention : Reuss Voigt Hill
#
# Bulk Modulus (GPa) = 16.81676 55.97557 36.39616
# Shear Modulus (GPa) = 19.49912 313.77479 166.63696
#
# Velocity S-wave (km/s) = 3.14986 12.63551 9.20809
# Velocity P-wave (km/s) = 4.66750 15.53566 11.47045
#
# Compressibility (1/GPa) = 0.05946450
#
# Stress axis : x y z
#
# Youngs Moduli (GPa) = 114.16826 72.49157 13.21485
#
# Poissons Ratio (x) = 0.35860 0.01339
# Poissons Ratio (y) = 0.56477 0.17735
# Poissons Ratio (z) = 0.11570 0.97288
#
# Static dielectric constant tensor:
#      x y z
#    x 1.683960 0.000000 0.000000 
#    y 0.000000 1.732610 0.000000 
#    z 0.000000 0.000000 1.578900 
# 
# From -- ./inp_files/5147.got.cif
#   From: 2010.05.17/outbox.cif.g08.bks.cpg/sg72_3_cif.got.tgz:5147.got - 2010.06.03 17:03:01.
