data_PCOD9526850
_publ_section_title
;
Structure prediction by ZEFSAII (Michael W. Deem and Ramdas Pophale) SiO2 
 PCOD9526850
Probable space group: I B A M
;
_chemical_formula_sum "Si O2"
_cell_formula_units_Z 120
_cell_length_a 24.688197
_cell_length_b 26.954872
_cell_length_c 9.141057
_cell_angle_alpha 90.000000
_cell_angle_beta 90.000000
_cell_angle_gamma 90.000000
_cell_volume 6083.073516
_symmetry_space_group_name_H-M "I B A M"
_symmetry_group_IT_number 72
_symmetry_cell_setting 'orthorhombic'
loop_
_space_group_symop_operation_xyz
x,y,z
-x,-y,z
x,-y,1/2-z
-x,y,1/2-z
-x,-y,-z
x,y,-z
-x,y,1/2+z
x,-y,1/2+z
1/2+x,1/2+y,1/2+z
1/2-x,1/2-y,1/2+z
1/2+x,1/2-y,-z
1/2-x,1/2+y,-z
1/2-x,1/2-y,1/2-z
1/2+x,1/2+y,1/2-z
1/2-x,1/2+y,z
1/2+x,1/2-y,z
loop_
_atom_site_type_symbol
_atom_site_label
_atom_site_fract_x
_atom_site_fract_y
_atom_site_fract_z
Si Si1 0.000000 0.378326 0.250000
Si Si2 0.398819 0.947362 0.829792
Si Si3 0.081518 0.703156 0.835295
Si Si4 0.664884 0.547933 0.675291
Si Si5 0.592039 0.689148 0.824880
Si Si6 0.328622 0.857044 0.825262
Si Si7 0.705763 0.353819 0.323901
Si Si8 0.555212 0.419453 0.322457
O O1 0.045944 0.414559 0.183989
O O2 0.034699 0.338203 0.341348
O O3 0.350176 0.911398 0.773656
O O4 0.403464 0.000000 0.750000
O O5 0.389644 0.957645 0.000000
O O6 0.067762 0.758225 0.777482
O O7 0.128554 0.681383 0.736371
O O8 0.102444 0.709486 0.000000
O O9 0.691443 0.500000 0.750000
O O10 0.661987 0.544247 0.500000
O O11 0.694519 0.597174 0.730219
O O12 0.606024 0.553317 0.750624
O O13 0.656377 0.683779 0.790406
O O14 0.563878 0.638392 0.775486
O O15 0.586899 0.687075 0.000000
O O16 0.267649 0.840795 0.790079
O O17 0.332929 0.858770 0.000000
O O18 0.701871 0.364297 0.500000
O O19 0.500000 0.437251 0.250000
O O20 0.555570 0.423616 0.500000
#
# Coordination Sequence:
#
# PCOD9526850 Si02
#       8
#     8  16  16  16  16  16  16  16
#     4  10  21  34  54  76 108 144 181 224 276 328
#     4  10  21  36  53  76 104 138 180 223 271 327
#     4  10  20  35  55  80 109 143 185 228 270 325
#     4  11  22  37  57  82 110 142 183 226 275 331
#     4   8  17  33  54  80 109 143 181 223 272 322
#     4   9  20  37  55  79 111 144 178 223 277 329
#     4   9  18  37  59  78 110 148 180 223 278 332
#     4  10  20  36  56  80 112 146 183 227 275 326
#
# _framework density 19.726869000000001
#
# number of rings (size 3 to 8) (size 9 to 14) (size 15 to 20)
#    0.000    2.400    0.000    3.000    0.933    5.600 
#    0.000    6.000    0.000    0.000    0.000    0.000 
#    0.000    0.000    0.000    0.000    0.000    0.000 
#
# Total GULP energy -334180.593862 kJ/mol
# GULP energy per Si atom -5569.676564 kJ/mol
# Density = 1.968197 g / cm^3
# Si number density = 19.726869 Si / 1000 Ang^3
#
#
#
# Elastic Constant Matrix: (Units=GPa)
#
#
# Indices 1 2 3 4 5 6 
#
# 1 66.8309 -7.8671 10.1374 0.0000 0.0000 0.0000
# 2 -7.8671 100.4834 11.2773 0.0000 0.0000 0.0000
# 3 10.1374 11.2773 37.5754 0.0000 0.0000 0.0000
# 4 0.0000 0.0000 0.0000 24.1566 0.0000 0.0000
# 5 0.0000 0.0000 0.0000 0.0000 15.7650 0.0000
# 6 0.0000 0.0000 0.0000 0.0000 0.0000 5.7728
#
#
#
# Elastic Compliance Matrix: (Units=1/GPa)
#
#
# Indices 1 2 3 4 5 6 
#
# 1 0.015906 0.001787 -0.004828 0.000000 0.000000 0.000000
# 2 0.001787 0.010500 -0.003633 0.000000 0.000000 0.000000
# 3 -0.004828 -0.003633 0.029006 0.000000 0.000000 0.000000
# 4 0.000000 0.000000 0.000000 0.041397 0.000000 0.000000
# 5 0.000000 0.000000 0.000000 0.000000 0.063432 0.000000
# 6 0.000000 0.000000 0.000000 0.000000 0.000000 0.173225
#
#
# Mechanical properties :
#
#
# Convention : Reuss Voigt Hill
#
# Bulk Modulus (GPa) = 23.77339 25.77611 24.77475
# Shear Modulus (GPa) = 13.85681 21.89502 17.87591
#
# Velocity S-wave (km/s) = 2.65322 3.33514 3.01353
# Velocity P-wave (km/s) = 4.63288 5.28448 4.96937
#
# Compressibility (1/GPa) = 0.04206383
#
# Stress axis : x y z
#
# Youngs Moduli (GPa) = 62.87016 95.24185 34.47562
#
# Poissons Ratio (x) = -0.17021 0.16643
# Poissons Ratio (y) = -0.11236 0.12526
# Poissons Ratio (z) = 0.30351 0.34605
#
# Static dielectric constant tensor:
#      x y z
#    x 1.711000 0.000000 0.000000 
#    y 0.000000 1.734660 0.000000 
#    z 0.000000 0.000000 1.533400 
# 
# From -- ./inp_files/8600.got.cif
#   From: 2010.05.17/outbox.cif.g08.bks.cpg/sg72_5_cif.got.tgz:8600.got - 2010.06.03 17:03:01.
