data_PCOD9526653
_publ_section_title
;
Structure prediction by ZEFSAII (Michael W. Deem and Ramdas Pophale) SiO2 
 PCOD9526653
Probable space group: I B A M
;
_chemical_formula_sum "Si O2"
_cell_formula_units_Z 80
_cell_length_a 27.862995
_cell_length_b 18.318614
_cell_length_c 8.616312
_cell_angle_alpha 90.000000
_cell_angle_beta 90.000000
_cell_angle_gamma 90.000000
_cell_volume 4397.864304
_symmetry_space_group_name_H-M "I B A M"
_symmetry_group_IT_number 72
_symmetry_cell_setting 'orthorhombic'
loop_
_space_group_symop_operation_xyz
x,y,z
-x,-y,z
x,-y,1/2-z
-x,y,1/2-z
-x,-y,-z
x,y,-z
-x,y,1/2+z
x,-y,1/2+z
1/2+x,1/2+y,1/2+z
1/2-x,1/2-y,1/2+z
1/2+x,1/2-y,-z
1/2-x,1/2+y,-z
1/2-x,1/2-y,1/2-z
1/2+x,1/2+y,1/2-z
1/2-x,1/2+y,z
1/2+x,1/2-y,z
loop_
_atom_site_type_symbol
_atom_site_label
_atom_site_fract_x
_atom_site_fract_y
_atom_site_fract_z
Si Si1 0.788942 0.578714 0.185413
Si Si2 0.312983 0.371336 0.685743
Si Si3 0.950044 0.233098 0.814159
Si Si4 0.414008 0.576119 0.686296
Si Si5 0.155008 0.282830 0.687065
O O1 0.803900 0.500000 0.250000
O O2 0.734963 0.594808 0.243476
O O3 0.821867 0.643256 0.252044
O O4 0.790099 0.578972 0.000000
O O5 0.311495 0.375385 0.500000
O O6 0.360228 0.411899 0.749207
O O7 0.318348 0.287357 0.740477
O O8 0.942544 0.148679 0.763732
O O9 0.901188 0.274582 0.769292
O O10 0.000000 0.262065 0.750000
O O11 0.952174 0.233566 0.000000
O O12 0.433490 0.500000 0.750000
O O13 0.412338 0.574427 0.500000
O O14 0.158837 0.278321 0.500000
#
# Coordination Sequence:
#
# PCOD9526653 Si02
#       5
#    16  16  16  16  16
#     4  12  24  38  56  81 111 145 179 219 266 317
#     4  11  21  35  55  80 110 148 185 220 259 311
#     4   9  20  36  56  78 104 136 176 222 270 320
#     4  10  20  34  50  75 109 146 183 224 266 313
#     4  10  21  39  58  81 110 142 179 222 265 315
#
# _framework density 18.190647999999999
#
# number of rings (size 3 to 8) (size 9 to 14) (size 15 to 20)
#    0.000    1.600    0.000    7.200    0.000    5.200 
#    0.000    2.000    0.000    0.600    0.000    4.200 
#    0.000    0.000    0.000    0.000    0.000    0.000 
#
# Total GULP energy -223586.364422 kJ/mol
# GULP energy per Si atom -5589.659111 kJ/mol
# Density = 1.814924 g / cm^3
# Si number density = 18.190648 Si / 1000 Ang^3
#
#
#
# Elastic Constant Matrix: (Units=GPa)
#
#
# Indices 1 2 3 4 5 6 
#
# 1 60.2947 7.4146 7.3258 0.0000 0.0000 0.0000
# 2 7.4146 67.3986 7.5393 0.0000 0.0000 0.0000
# 3 7.3258 7.5393 83.2791 0.0000 0.0000 0.0000
# 4 0.0000 0.0000 0.0000 32.1846 0.0000 0.0000
# 5 0.0000 0.0000 0.0000 0.0000 24.5658 0.0000
# 6 0.0000 0.0000 0.0000 0.0000 0.0000 0.7136
#
#
#
# Elastic Compliance Matrix: (Units=1/GPa)
#
#
# Indices 1 2 3 4 5 6 
#
# 1 0.016959 -0.001716 -0.001336 0.000000 0.000000 0.000000
# 2 -0.001716 0.015163 -0.001222 0.000000 0.000000 0.000000
# 3 -0.001336 -0.001222 0.012236 0.000000 0.000000 0.000000
# 4 0.000000 0.000000 0.000000 0.031071 0.000000 0.000000
# 5 0.000000 0.000000 0.000000 0.000000 0.040707 0.000000
# 6 0.000000 0.000000 0.000000 0.000000 0.000000 1.401317
#
#
# Mechanical properties :
#
#
# Convention : Reuss Voigt Hill
#
# Bulk Modulus (GPa) = 27.92627 28.39243 28.15935
# Shear Modulus (GPa) = 3.25111 24.07232 13.66171
#
# Velocity S-wave (km/s) = 1.33833 3.64171 2.74346
# Velocity P-wave (km/s) = 4.21586 5.77277 5.05462
#
# Compressibility (1/GPa) = 0.03580858
#
# Stress axis : x y z
#
# Youngs Moduli (GPa) = 58.96707 65.95191 81.72621
#
# Poissons Ratio (x) = 0.11318 0.10922
# Poissons Ratio (y) = 0.10120 0.09985
# Poissons Ratio (z) = 0.07881 0.08057
#
# Static dielectric constant tensor:
#      x y z
#    x 1.614380 0.000000 0.000000 
#    y 0.000000 1.621030 0.000000 
#    z 0.000000 0.000000 1.607000 
# 
# From -- ./inp_files/4768.got.cif
#   From: 2010.05.17/outbox.cif.g08.bks.cpg/sg72_3_cif.got.tgz:4768.got - 2010.06.03 17:03:01.
