data_PCOD9526162
_publ_section_title
;
Structure prediction by ZEFSAII (Michael W. Deem and Ramdas Pophale) SiO2 
 PCOD9526162
Probable space group: I B A M
;
_chemical_formula_sum "Si O2"
_cell_formula_units_Z 80
_cell_length_a 18.560438
_cell_length_b 13.211164
_cell_length_c 17.944415
_cell_angle_alpha 90.000000
_cell_angle_beta 90.000000
_cell_angle_gamma 90.000000
_cell_volume 4400.060107
_symmetry_space_group_name_H-M "I B A M"
_symmetry_group_IT_number 72
_symmetry_cell_setting 'orthorhombic'
loop_
_space_group_symop_operation_xyz
x,y,z
-x,-y,z
x,-y,1/2-z
-x,y,1/2-z
-x,-y,-z
x,y,-z
-x,y,1/2+z
x,-y,1/2+z
1/2+x,1/2+y,1/2+z
1/2-x,1/2-y,1/2+z
1/2+x,1/2-y,-z
1/2-x,1/2+y,-z
1/2-x,1/2-y,1/2-z
1/2+x,1/2+y,1/2-z
1/2-x,1/2+y,z
1/2+x,1/2-y,z
loop_
_atom_site_type_symbol
_atom_site_label
_atom_site_fract_x
_atom_site_fract_y
_atom_site_fract_z
Si Si1 0.123228 0.758908 0.144287
Si Si2 0.512970 0.386537 0.839846
Si Si3 0.735709 0.857581 0.413919
Si Si4 0.807697 0.553724 0.326157
Si Si5 0.666203 0.686927 0.313032
O O1 0.181180 0.824299 0.098095
O O2 0.139332 0.638709 0.138697
O O3 0.142781 0.780130 0.230774
O O4 0.043663 0.803267 0.130498
O O5 0.500000 0.500000 0.868248
O O6 0.500000 0.388911 0.750000
O O7 0.596229 0.360812 0.850898
O O8 0.717065 0.846171 0.500000
O O9 0.692372 0.780471 0.361688
O O10 0.715931 0.968395 0.384479
O O11 0.835306 0.500000 0.250000
O O12 0.733718 0.612029 0.305282
#
# Coordination Sequence:
#
# PCOD9526162 Si02
#       5
#    16  16  16  16  16
#     4  10  19  35  57  83 110 146 184 226 269 331
#     4   9  18  31  55  85 112 137 179 229 274 321
#     4  11  22  35  54  82 113 142 183 234 278 319
#     4  11  18  32  58  80 107 146 189 224 269 319
#     4  10  19  34  58  81 110 144 182 227 271 326
#
# _framework density 18.181571000000002
#
# number of rings (size 3 to 8) (size 9 to 14) (size 15 to 20)
#    0.000    1.800    4.000    2.400    2.800    3.200 
#    0.000    2.000    0.000    3.600    0.000    0.000 
#    0.000    0.000    0.000    0.000    0.000    0.000 
#
# Total GULP energy -223079.821307 kJ/mol
# GULP energy per Si atom -5576.995533 kJ/mol
# Density = 1.814019 g / cm^3
# Si number density = 18.181571 Si / 1000 Ang^3
#
#
#
# Elastic Constant Matrix: (Units=GPa)
#
#
# Indices 1 2 3 4 5 6 
#
# 1 71.0642 26.7942 -15.5226 0.0000 0.0000 0.0000
# 2 26.7942 110.2090 5.5540 0.0000 0.0000 0.0000
# 3 -15.5226 5.5540 45.8054 0.0000 0.0000 0.0000
# 4 0.0000 0.0000 0.0000 8.8682 0.0000 0.0000
# 5 0.0000 0.0000 0.0000 0.0000 -3.1879 0.0000
# 6 0.0000 0.0000 0.0000 0.0000 0.0000 14.8479
#
#
#
# Elastic Compliance Matrix: (Units=1/GPa)
#
#
# Indices 1 2 3 4 5 6 
#
# 1 0.017154 -0.004491 0.006358 0.000000 0.000000 0.000000
# 2 -0.004491 0.010305 -0.002771 0.000000 0.000000 0.000000
# 3 0.006358 -0.002771 0.024322 0.000000 0.000000 0.000000
# 4 0.000000 0.000000 0.000000 0.112762 0.000000 0.000000
# 5 0.000000 0.000000 0.000000 0.000000 -0.313688 0.000000
# 6 0.000000 0.000000 0.000000 0.000000 0.000000 0.067350
#
#
# Mechanical properties :
#
#
# Convention : Reuss Voigt Hill
#
# Bulk Modulus (GPa) = 20.01135 28.96999 24.49067
# Shear Modulus (GPa) = -78.95279 18.12251 -30.41514
#
# Velocity S-wave (km/s) = -6.59689 3.16056 -4.09449
# Velocity P-wave (km/s) = 6.85528 5.41176 2.97554
#
# Compressibility (1/GPa) = 0.04997165
#
# Stress axis : x y z
#
# Youngs Moduli (GPa) = 58.29641 97.03883 41.11501
#
# Poissons Ratio (x) = 0.43579 -0.26139
# Poissons Ratio (y) = 0.26180 0.11395
# Poissons Ratio (z) = -0.37063 0.26893
#
# Static dielectric constant tensor:
#      x y z
#    x 1.639790 0.000000 0.000000 
#    y 0.000000 1.658530 0.000000 
#    z 0.000000 0.000000 1.619170 
# 
# From -- ./inp_files/31372.got.cif
#   From: 2010.05.17/outbox.cif.g08.bks.cpg/sg72_16_cif.got.tgz:31372.got - 2010.06.03 17:03:01.
