data_PCOD9526911
_publ_section_title
;
Structure prediction by ZEFSAII (Michael W. Deem and Ramdas Pophale) SiO2 
 PCOD9526911
Probable space group: I B A M
;
_chemical_formula_sum "Si O2"
_cell_formula_units_Z 116
_cell_length_a 12.467968
_cell_length_b 16.797085
_cell_length_c 25.852797
_cell_angle_alpha 90.000000
_cell_angle_beta 90.000000
_cell_angle_gamma 90.000000
_cell_volume 5414.235411
_symmetry_space_group_name_H-M "I B A M"
_symmetry_group_IT_number 72
_symmetry_cell_setting 'orthorhombic'
loop_
_space_group_symop_operation_xyz
x,y,z
-x,-y,z
x,-y,1/2-z
-x,y,1/2-z
-x,-y,-z
x,y,-z
-x,y,1/2+z
x,-y,1/2+z
1/2+x,1/2+y,1/2+z
1/2-x,1/2-y,1/2+z
1/2+x,1/2-y,-z
1/2-x,1/2+y,-z
1/2-x,1/2-y,1/2-z
1/2+x,1/2+y,1/2-z
1/2-x,1/2+y,z
1/2+x,1/2-y,z
loop_
_atom_site_type_symbol
_atom_site_label
_atom_site_fract_x
_atom_site_fract_y
_atom_site_fract_z
Si Si1 0.119864 0.317765 0.941762
Si Si2 0.935292 0.362022 0.881005
Si Si3 0.825712 0.495867 0.058606
Si Si4 0.771268 0.230009 0.146680
Si Si5 0.000000 0.000000 0.750000
Si Si6 0.569756 0.204492 0.201077
Si Si7 0.027940 0.129959 0.338863
Si Si8 0.414941 0.429568 0.557496
O O1 0.156189 0.410167 0.936570
O O2 0.190279 0.268475 0.901521
O O3 0.993379 0.314920 0.928085
O O4 0.140636 0.293215 0.000000
O O5 0.893875 0.445106 0.901145
O O6 0.840184 0.310587 0.855584
O O7 0.032840 0.360705 0.840837
O O8 0.702967 0.467433 0.064032
O O9 0.860422 0.474414 0.000000
O O10 0.697335 0.213726 0.196787
O O11 0.856036 0.158700 0.141632
O O12 0.956477 0.936500 0.706176
O O13 0.500000 0.181914 0.250000
O O14 0.525520 0.291776 0.186029
O O15 0.954366 0.110097 0.388800
O O16 0.500000 0.500000 0.552910
O O17 0.416355 0.388262 0.500000
#
# Coordination Sequence:
#
# PCOD9526911 Si02
#       8
#    16  16  16  16   4  16  16  16
#     4  10  21  37  59  88 124 163 207 258 311 377
#     4  10  21  37  59  85 115 157 203 253 305 376
#     4  10  20  36  60  89 121 163 209 256 316 376
#     4  10  23  41  60  88 123 165 206 258 319 386
#     4  12  24  40  62 100 122 160 202 274 316 372
#     4  10  22  43  62  85 118 160 211 256 314 376
#     4  11  22  40  63  92 127 157 208 264 316 383
#     4  10  20  35  57  87 125 162 198 250 314 380
#
# _framework density 21.425001000000002
#
# number of rings (size 3 to 8) (size 9 to 14) (size 15 to 20)
#    0.000    1.793    1.379    2.483    0.000    6.069 
#    2.483   10.345    0.000    5.793    0.000    0.000 
#    0.000    0.000    0.000    0.000    0.000    0.000 
#
# Total GULP energy -323239.182485 kJ/mol
# GULP energy per Si atom -5573.089353 kJ/mol
# Density = 2.137624 g / cm^3
# Si number density = 21.425001 Si / 1000 Ang^3
#
#
#
# Elastic Constant Matrix: (Units=GPa)
#
#
# Indices 1 2 3 4 5 6 
#
# 1 105.1797 18.6307 24.3990 0.0000 0.0000 0.0000
# 2 18.6307 61.1789 18.4200 0.0000 0.0000 0.0000
# 3 24.3990 18.4200 107.6081 0.0000 0.0000 0.0000
# 4 0.0000 0.0000 0.0000 39.2974 0.0000 0.0000
# 5 0.0000 0.0000 0.0000 0.0000 28.1506 0.0000
# 6 0.0000 0.0000 0.0000 0.0000 0.0000 34.6282
#
#
#
# Elastic Compliance Matrix: (Units=1/GPa)
#
#
# Indices 1 2 3 4 5 6 
#
# 1 0.010412 -0.002594 -0.001917 0.000000 0.000000 0.000000
# 2 -0.002594 0.017880 -0.002473 0.000000 0.000000 0.000000
# 3 -0.001917 -0.002473 0.010151 0.000000 0.000000 0.000000
# 4 0.000000 0.000000 0.000000 0.025447 0.000000 0.000000
# 5 0.000000 0.000000 0.000000 0.000000 0.035523 0.000000
# 6 0.000000 0.000000 0.000000 0.000000 0.000000 0.028878
#
#
# Mechanical properties :
#
#
# Convention : Reuss Voigt Hill
#
# Bulk Modulus (GPa) = 40.85549 44.09622 42.47585
# Shear Modulus (GPa) = 33.24136 34.58304 33.91220
#
# Velocity S-wave (km/s) = 3.94321 4.02200 3.98280
# Velocity P-wave (km/s) = 6.31208 6.49577 6.40458
#
# Compressibility (1/GPa) = 0.02447652
#
# Stress axis : x y z
#
# Youngs Moduli (GPa) = 96.04698 55.92919 98.51408
#
# Poissons Ratio (x) = 0.14505 0.18883
# Poissons Ratio (y) = 0.24910 0.24358
# Poissons Ratio (z) = 0.18410 0.13829
#
# Static dielectric constant tensor:
#      x y z
#    x 1.915890 0.000000 0.000000 
#    y 0.000000 1.774580 0.000000 
#    z 0.000000 0.000000 1.896620 
# 
# From -- ./inp_files/48230.got.cif
#   From: 2010.05.17/outbox.cif.g08.bks.cpg/sg72_25_cif.got.tgz:48230.got - 2010.06.03 17:03:01.
