data_PCOD9526131
_publ_section_title
;
Structure prediction by ZEFSAII (Michael W. Deem and Ramdas Pophale) SiO2 
 PCOD9526131
Probable space group: I B A M
;
_chemical_formula_sum "Si O2"
_cell_formula_units_Z 96
_cell_length_a 21.700554
_cell_length_b 9.421089
_cell_length_c 25.630871
_cell_angle_alpha 90.000000
_cell_angle_beta 90.000000
_cell_angle_gamma 90.000000
_cell_volume 5240.048330
_symmetry_space_group_name_H-M "I B A M"
_symmetry_group_IT_number 72
_symmetry_cell_setting 'orthorhombic'
loop_
_space_group_symop_operation_xyz
x,y,z
-x,-y,z
x,-y,1/2-z
-x,y,1/2-z
-x,-y,-z
x,y,-z
-x,y,1/2+z
x,-y,1/2+z
1/2+x,1/2+y,1/2+z
1/2-x,1/2-y,1/2+z
1/2+x,1/2-y,-z
1/2-x,1/2+y,-z
1/2-x,1/2-y,1/2-z
1/2+x,1/2+y,1/2-z
1/2-x,1/2+y,z
1/2+x,1/2-y,z
loop_
_atom_site_type_symbol
_atom_site_label
_atom_site_fract_x
_atom_site_fract_y
_atom_site_fract_z
Si Si1 0.180454 0.780335 0.442804
Si Si2 0.223553 0.801726 0.140191
Si Si3 0.377481 0.425102 0.060731
Si Si4 0.094097 0.552824 0.404222
Si Si5 0.680011 0.021446 0.689266
Si Si6 0.519874 0.214664 0.439402
O O1 0.208894 0.796081 0.500000
O O2 0.230238 0.784921 0.397565
O O3 0.147177 0.629717 0.437046
O O4 0.130616 0.905681 0.436988
O O5 0.171745 0.864671 0.101733
O O6 0.263101 0.921918 0.169814
O O7 0.195261 0.685803 0.178648
O O8 0.444674 0.360409 0.072178
O O9 0.363985 0.384238 0.000000
O O10 0.122815 0.520547 0.347926
O O11 0.070575 0.409296 0.431040
O O12 0.036779 0.661851 0.404522
O O13 0.668266 0.000000 0.750000
O O14 0.499566 0.214790 0.500000
#
# Coordination Sequence:
#
# PCOD9526131 Si02
#       6
#    16  16  16  16  16  16
#     4  10  20  33  52  83 116 147 176 212 273 337
#     4  11  20  38  54  80 114 139 182 229 281 327
#     4  10  20  33  53  81 115 150 180 215 271 342
#     4  10  20  35  55  77 111 139 183 228 267 323
#     4  11  23  38  59  80 103 143 191 235 281 320
#     4  10  19  34  56  82 110 147 180 215 274 334
#
# _framework density 18.320442
#
# number of rings (size 3 to 8) (size 9 to 14) (size 15 to 20)
#    0.000    1.667    3.333    3.000    0.000    0.667 
#    0.000    4.167    0.000    0.000    0.000    0.000 
#   10.000    0.000    0.000    0.000    0.000    0.000 
#
# Total GULP energy -267813.688638 kJ/mol
# GULP energy per Si atom -5579.451847 kJ/mol
# Density = 1.827874 g / cm^3
# Si number density = 18.320442 Si / 1000 Ang^3
#
#
#
# Elastic Constant Matrix: (Units=GPa)
#
#
# Indices 1 2 3 4 5 6 
#
# 1 44.4864 5.5300 15.8530 0.0000 0.0000 0.0000
# 2 5.5300 53.2868 19.8672 0.0000 0.0000 0.0000
# 3 15.8530 19.8672 72.7557 0.0000 0.0000 0.0000
# 4 0.0000 0.0000 0.0000 20.7795 0.0000 0.0000
# 5 0.0000 0.0000 0.0000 0.0000 14.9451 0.0000
# 6 0.0000 0.0000 0.0000 0.0000 0.0000 29.8609
#
#
#
# Elastic Compliance Matrix: (Units=1/GPa)
#
#
# Indices 1 2 3 4 5 6 
#
# 1 0.024389 -0.000612 -0.005147 0.000000 0.000000 0.000000
# 2 -0.000612 0.020909 -0.005576 0.000000 0.000000 0.000000
# 3 -0.005147 -0.005576 0.016389 0.000000 0.000000 0.000000
# 4 0.000000 0.000000 0.000000 0.048124 0.000000 0.000000
# 5 0.000000 0.000000 0.000000 0.000000 0.066911 0.000000
# 6 0.000000 0.000000 0.000000 0.000000 0.000000 0.033489
#
#
# Mechanical properties :
#
#
# Convention : Reuss Voigt Hill
#
# Bulk Modulus (GPa) = 25.63040 28.11437 26.87238
# Shear Modulus (GPa) = 20.33453 21.73568 21.03511
#
# Velocity S-wave (km/s) = 3.33519 3.44818 3.39215
# Velocity P-wave (km/s) = 5.37138 5.58860 5.48107
#
# Compressibility (1/GPa) = 0.03901617
#
# Stress axis : x y z
#
# Youngs Moduli (GPa) = 41.00201 47.82649 61.01718
#
# Poissons Ratio (x) = 0.02927 0.31406
# Poissons Ratio (y) = 0.02509 0.34024
# Poissons Ratio (z) = 0.21104 0.26669
#
# Static dielectric constant tensor:
#      x y z
#    x 1.652170 0.000000 0.000000 
#    y 0.000000 1.652130 0.000000 
#    z 0.000000 0.000000 1.585020 
# 
# From -- ./inp_files/42380.got.cif
#   From: 2010.05.17/outbox.cif.g08.bks.cpg/sg72_22_cif.got.tgz:42380.got - 2010.06.03 17:03:01.
