data_PCOD9526462
_publ_section_title
;
Structure prediction by ZEFSAII (Michael W. Deem and Ramdas Pophale) SiO2 
 PCOD9526462
Probable space group: I B A M
;
_chemical_formula_sum "Si O2"
_cell_formula_units_Z 72
_cell_length_a 9.508253
_cell_length_b 17.867370
_cell_length_c 19.526370
_cell_angle_alpha 90.000000
_cell_angle_beta 90.000000
_cell_angle_gamma 90.000000
_cell_volume 3317.285684
_symmetry_space_group_name_H-M "I B A M"
_symmetry_group_IT_number 72
_symmetry_cell_setting 'orthorhombic'
loop_
_space_group_symop_operation_xyz
x,y,z
-x,-y,z
x,-y,1/2-z
-x,y,1/2-z
-x,-y,-z
x,y,-z
-x,y,1/2+z
x,-y,1/2+z
1/2+x,1/2+y,1/2+z
1/2-x,1/2-y,1/2+z
1/2+x,1/2-y,-z
1/2-x,1/2+y,-z
1/2-x,1/2-y,1/2-z
1/2+x,1/2+y,1/2-z
1/2-x,1/2+y,z
1/2+x,1/2-y,z
loop_
_atom_site_type_symbol
_atom_site_label
_atom_site_fract_x
_atom_site_fract_y
_atom_site_fract_z
Si Si1 0.258426 0.188424 0.344186
Si Si2 0.836588 0.017272 0.170563
Si Si3 0.904318 0.568617 0.611701
Si Si4 0.000000 0.648129 0.250000
Si Si5 0.528708 0.771413 0.074852
O O1 0.211321 0.101677 0.345396
O O2 0.360487 0.192697 0.276579
O O3 0.367457 0.216375 0.402447
O O4 0.115924 0.232049 0.364082
O O5 0.801126 0.000000 0.250000
O O6 0.750068 0.962252 0.122505
O O7 0.000000 0.000000 0.162516
O O8 0.961311 0.595526 0.686133
O O9 0.911963 0.644608 0.570703
O O10 0.000000 0.500000 0.586991
O O11 0.540436 0.734639 0.000000
#
# Coordination Sequence:
#
# PCOD9526462 Si02
#       5
#    16  16  16   8  16
#     4  11  24  43  68  95 136 183 224 281 351 410
#     4  11  22  40  66 101 138 169 211 285 361 418
#     4  11  19  39  67  94 130 170 225 280 345 413
#     4  10  19  38  70  98 132 171 214 282 355 412
#     4  11  26  44  64  92 135 185 239 286 328 399
#
# _framework density 21.704492999999999
#
# number of rings (size 3 to 8) (size 9 to 14) (size 15 to 20)
#    0.000    1.111    6.667    1.000    3.111    4.000 
#    0.000    0.000    0.000    3.333    0.000    0.000 
#    0.000    0.000    0.000    0.000    0.000    0.000 
#
# Total GULP energy -200807.199257 kJ/mol
# GULP energy per Si atom -5577.977757 kJ/mol
# Density = 2.165509 g / cm^3
# Si number density = 21.704493 Si / 1000 Ang^3
#
#
#
# Elastic Constant Matrix: (Units=GPa)
#
#
# Indices 1 2 3 4 5 6 
#
# 1 117.8996 23.3464 3.5409 0.0000 0.0000 0.0000
# 2 23.3464 62.8404 5.0631 0.0000 0.0000 0.0000
# 3 3.5409 5.0631 68.3778 0.0000 0.0000 0.0000
# 4 0.0000 0.0000 0.0000 7.3838 0.0000 0.0000
# 5 0.0000 0.0000 0.0000 0.0000 -173.0554 0.0000
# 6 0.0000 0.0000 0.0000 0.0000 0.0000 37.2854
#
#
#
# Elastic Compliance Matrix: (Units=1/GPa)
#
#
# Indices 1 2 3 4 5 6 
#
# 1 0.009159 -0.003385 -0.000224 0.000000 0.000000 0.000000
# 2 -0.003385 0.017260 -0.001103 0.000000 0.000000 0.000000
# 3 -0.000224 -0.001103 0.014718 0.000000 0.000000 0.000000
# 4 0.000000 0.000000 0.000000 0.135432 0.000000 0.000000
# 5 0.000000 0.000000 0.000000 0.000000 -0.005778 0.000000
# 6 0.000000 0.000000 0.000000 0.000000 0.000000 0.026820
#
#
# Mechanical properties :
#
#
# Convention : Reuss Voigt Hill
#
# Bulk Modulus (GPa) = 31.53164 34.77985 33.15575
# Shear Modulus (GPa) = 22.97757 -11.19944 5.88906
#
# Velocity S-wave (km/s) = 3.25723 -2.27402 1.64899
# Velocity P-wave (km/s) = 5.35773 3.02724 4.35140
#
# Compressibility (1/GPa) = 0.03171417
#
# Stress axis : x y z
#
# Youngs Moduli (GPa) = 109.18537 57.93865 67.94460
#
# Poissons Ratio (x) = 0.19610 0.01520
# Poissons Ratio (y) = 0.36955 0.07493
# Poissons Ratio (z) = 0.02442 0.06389
#
# Static dielectric constant tensor:
#      x y z
#    x 1.817650 0.000000 0.000000 
#    y 0.000000 1.792410 0.000000 
#    z 0.000000 0.000000 1.819330 
# 
# From -- ./inp_files/35649.got.cif
#   From: 2010.05.17/outbox.cif.g08.bks.cpg/sg72_18_cif.got.tgz:35649.got - 2010.06.03 17:03:01.
