data_PCOD9526866
_publ_section_title
;
Structure prediction by ZEFSAII (Michael W. Deem and Ramdas Pophale) SiO2 
 PCOD9526866
Probable space group: I B A M
;
_chemical_formula_sum "Si O2"
_cell_formula_units_Z 120
_cell_length_a 21.445304
_cell_length_b 24.704578
_cell_length_c 12.117758
_cell_angle_alpha 90.000000
_cell_angle_beta 90.000000
_cell_angle_gamma 90.000000
_cell_volume 6419.954082
_symmetry_space_group_name_H-M "I B A M"
_symmetry_group_IT_number 72
_symmetry_cell_setting 'orthorhombic'
loop_
_space_group_symop_operation_xyz
x,y,z
-x,-y,z
x,-y,1/2-z
-x,y,1/2-z
-x,-y,-z
x,y,-z
-x,y,1/2+z
x,-y,1/2+z
1/2+x,1/2+y,1/2+z
1/2-x,1/2-y,1/2+z
1/2+x,1/2-y,-z
1/2-x,1/2+y,-z
1/2-x,1/2-y,1/2-z
1/2+x,1/2+y,1/2-z
1/2-x,1/2+y,z
1/2+x,1/2-y,z
loop_
_atom_site_type_symbol
_atom_site_label
_atom_site_fract_x
_atom_site_fract_y
_atom_site_fract_z
Si Si1 0.680004 0.625723 0.125969
Si Si2 0.347369 0.525701 0.122041
Si Si3 0.564911 0.608162 0.713004
Si Si4 0.878731 0.643331 0.628379
Si Si5 0.724722 0.938423 0.783188
Si Si6 0.573083 0.726816 0.627690
Si Si7 0.317839 0.745979 0.300878
Si Si8 0.500000 0.184248 0.250000
O O1 0.614781 0.612997 0.187398
O O2 0.736791 0.595220 0.189119
O O3 0.683790 0.690567 0.131630
O O4 0.680935 0.609854 0.000000
O O5 0.351669 0.500000 0.250000
O O6 0.399889 0.571162 0.126231
O O7 0.278822 0.552245 0.126433
O O8 0.353581 0.498677 0.000000
O O9 0.500000 0.583132 0.750000
O O10 0.550634 0.667311 0.663400
O O11 0.893294 0.633175 0.500000
O O12 0.833244 0.596964 0.676101
O O13 0.840762 0.700142 0.637863
O O14 0.941916 0.650942 0.700289
O O15 0.706403 0.000000 0.750000
O O16 0.588288 0.727053 0.500000
O O17 0.633253 0.737987 0.701834
O O18 0.524382 0.774140 0.656294
O O19 0.250000 0.750000 0.250000
#
# Coordination Sequence:
#
# PCOD9526866 Si02
#       8
#    16  16  16  16  16  16  16   8
#     4  10  21  37  57  84 122 160 195 250 309 364
#     4  10  22  40  62  85 117 156 204 259 315 369
#     4  10  21  37  53  83 115 155 206 249 292 355
#     4  11  22  39  65  90 122 161 197 247 305 366
#     4  10  22  40  63  90 121 155 205 251 307 375
#     4  10  20  35  56  78 115 158 190 232 291 357
#     4  10  20  37  54  89 123 148 194 243 295 366
#     4  10  22  40  57  88 121 148 202 236 298 360
#
# _framework density 18.691721999999999
#
# number of rings (size 3 to 8) (size 9 to 14) (size 15 to 20)
#    0.000    1.867    2.000    1.600    0.000    7.733 
#    0.000    1.667    0.000    0.800    0.000    0.000 
#    0.000    0.000    0.000    0.000    0.000    0.000 
#
# Total GULP energy -334298.311519 kJ/mol
# GULP energy per Si atom -5571.638525 kJ/mol
# Density = 1.864918 g / cm^3
# Si number density = 18.691722 Si / 1000 Ang^3
#
#
#
# Elastic Constant Matrix: (Units=GPa)
#
#
# Indices 1 2 3 4 5 6 
#
# 1 104.5001 61.4982 26.2861 0.0000 0.0000 0.0000
# 2 61.4982 127.2846 47.6716 0.0000 0.0000 0.0000
# 3 26.2861 47.6716 134.2878 0.0000 0.0000 0.0000
# 4 0.0000 0.0000 0.0000 1.4013 0.0000 0.0000
# 5 0.0000 0.0000 0.0000 0.0000 -1.4684 0.0000
# 6 0.0000 0.0000 0.0000 0.0000 0.0000 10.1183
#
#
#
# Elastic Compliance Matrix: (Units=1/GPa)
#
#
# Indices 1 2 3 4 5 6 
#
# 1 0.013388 -0.006328 -0.000374 0.000000 0.000000 0.000000
# 2 -0.006328 0.012052 -0.003040 0.000000 0.000000 0.000000
# 3 -0.000374 -0.003040 0.008599 0.000000 0.000000 0.000000
# 4 0.000000 0.000000 0.000000 0.713634 0.000000 0.000000
# 5 0.000000 0.000000 0.000000 0.000000 -0.681004 0.000000
# 6 0.000000 0.000000 0.000000 0.000000 0.000000 0.098831
#
#
# Mechanical properties :
#
#
# Convention : Reuss Voigt Hill
#
# Bulk Modulus (GPa) = 68.70562 70.77605 69.74083
# Shear Modulus (GPa) = 26.33851 17.38467 21.86159
#
# Velocity S-wave (km/s) = 3.75787 3.05302 3.42363
# Velocity P-wave (km/s) = 7.46095 7.09754 7.28151
#
# Compressibility (1/GPa) = 0.01455485
#
# Stress axis : x y z
#
# Youngs Moduli (GPa) = 74.69602 82.97095 116.29195
#
# Poissons Ratio (x) = 0.52506 0.04350
# Poissons Ratio (y) = 0.47269 0.35351
# Poissons Ratio (z) = 0.02794 0.25222
#
# Static dielectric constant tensor:
#      x y z
#    x -2.225440 0.000000 0.000000 
#    y 0.000000 1.695740 0.000000 
#    z 0.000000 0.000000 1.659560 
# 
# From -- ./inp_files/14956.got.cif
#   From: 2010.05.17/outbox.cif.g08.bks.cpg/sg72_8_cif.got.tgz:14956.got - 2010.06.03 17:03:01.
