data_PCOD9526875
_publ_section_title
;
Structure prediction by ZEFSAII (Michael W. Deem and Ramdas Pophale) SiO2 
 PCOD9526875
Probable space group: I B A M
;
_chemical_formula_sum "Si O2"
_cell_formula_units_Z 80
_cell_length_a 26.356741
_cell_length_b 8.889156
_cell_length_c 16.159339
_cell_angle_alpha 90.000000
_cell_angle_beta 90.000000
_cell_angle_gamma 90.000000
_cell_volume 3785.958322
_symmetry_space_group_name_H-M "I B A M"
_symmetry_group_IT_number 72
_symmetry_cell_setting 'orthorhombic'
loop_
_space_group_symop_operation_xyz
x,y,z
-x,-y,z
x,-y,1/2-z
-x,y,1/2-z
-x,-y,-z
x,y,-z
-x,y,1/2+z
x,-y,1/2+z
1/2+x,1/2+y,1/2+z
1/2-x,1/2-y,1/2+z
1/2+x,1/2-y,-z
1/2-x,1/2+y,-z
1/2-x,1/2-y,1/2-z
1/2+x,1/2+y,1/2-z
1/2-x,1/2+y,z
1/2+x,1/2-y,z
loop_
_atom_site_type_symbol
_atom_site_label
_atom_site_fract_x
_atom_site_fract_y
_atom_site_fract_z
Si Si1 0.412968 0.321538 0.905398
Si Si2 0.197399 0.779151 0.905081
Si Si3 0.515674 0.173614 0.899755
Si Si4 0.598203 0.380779 0.172869
Si Si5 0.212804 0.089636 0.165606
O O1 0.359737 0.261390 0.869256
O O2 0.465918 0.265529 0.871067
O O3 0.410976 0.501166 0.901337
O O4 0.412840 0.269772 0.000000
O O5 0.241138 0.696962 0.855265
O O6 0.207746 0.957269 0.901674
O O7 0.198425 0.727506 0.000000
O O8 0.561743 0.240823 0.845502
O O9 0.500000 0.000000 0.888071
O O10 0.524925 0.194430 0.000000
O O11 0.589751 0.500000 0.250000
O O12 0.657314 0.335668 0.173137
O O13 0.221999 0.000000 0.250000
#
# Coordination Sequence:
#
# PCOD9526875 Si02
#       5
#    16  16  16  16  16
#     4   9  19  36  55  77 110 153 195 238 296 364
#     4  10  20  35  56  82 111 147 197 249 295 351
#     4  10  21  37  58  85 116 150 192 248 309 359
#     4  10  21  37  58  84 114 154 201 243 294 366
#     4  10  21  37  57  83 117 157 198 244 301 359
#
# _framework density 21.130711999999999
#
# number of rings (size 3 to 8) (size 9 to 14) (size 15 to 20)
#    0.000    2.200    0.000    2.400    0.000    7.200 
#    0.000    4.000    0.000    0.000    0.000    0.000 
#    0.000    0.000    0.000    0.000    0.000    0.000 
#
# Total GULP energy -222965.508842 kJ/mol
# GULP energy per Si atom -5574.137721 kJ/mol
# Density = 2.108262 g / cm^3
# Si number density = 21.130712 Si / 1000 Ang^3
#
#
#
# Elastic Constant Matrix: (Units=GPa)
#
#
# Indices 1 2 3 4 5 6 
#
# 1 127.2237 42.2181 30.7573 0.0000 0.0000 0.0000
# 2 42.2181 41.4972 7.3504 0.0000 0.0000 0.0000
# 3 30.7573 7.3504 65.7501 0.0000 0.0000 0.0000
# 4 0.0000 0.0000 0.0000 29.8661 0.0000 0.0000
# 5 0.0000 0.0000 0.0000 0.0000 -16.7826 0.0000
# 6 0.0000 0.0000 0.0000 0.0000 0.0000 47.1632
#
#
#
# Elastic Compliance Matrix: (Units=1/GPa)
#
#
# Indices 1 2 3 4 5 6 
#
# 1 0.013182 -0.012567 -0.004761 0.000000 0.000000 0.000000
# 2 -0.012567 0.036566 0.001791 0.000000 0.000000 0.000000
# 3 -0.004761 0.001791 0.017236 0.000000 0.000000 0.000000
# 4 0.000000 0.000000 0.000000 0.033483 0.000000 0.000000
# 5 0.000000 0.000000 0.000000 0.000000 -0.059586 0.000000
# 6 0.000000 0.000000 0.000000 0.000000 0.000000 0.021203
#
#
# Mechanical properties :
#
#
# Convention : Reuss Voigt Hill
#
# Bulk Modulus (GPa) = 27.84817 43.90249 35.87533
# Shear Modulus (GPa) = 47.56070 22.32570 34.94320
#
# Velocity S-wave (km/s) = 4.74939 3.25399 4.07094
# Velocity P-wave (km/s) = 6.57900 5.91098 6.25391
#
# Compressibility (1/GPa) = 0.03590900
#
# Stress axis : x y z
#
# Youngs Moduli (GPa) = 75.86357 27.34758 58.01755
#
# Poissons Ratio (x) = 0.34368 0.27624
# Poissons Ratio (y) = 0.95339 -0.10391
# Poissons Ratio (z) = 0.36121 -0.04898
#
# Static dielectric constant tensor:
#      x y z
#    x 1.772880 0.000000 0.000000 
#    y 0.000000 1.740270 0.000000 
#    z 0.000000 0.000000 1.886810 
# 
# From -- ./inp_files/28141.got.cif
#   From: 2010.05.17/outbox.cif.g08.bks.cpg/sg72_15_cif.got.tgz:28141.got - 2010.06.03 17:03:01.
