data_PCOD9526222
_publ_section_title
;
Structure prediction by ZEFSAII (Michael W. Deem and Ramdas Pophale) SiO2 
 PCOD9526222
Probable space group: I B A M
;
_chemical_formula_sum "Si O2"
_cell_formula_units_Z 72
_cell_length_a 15.774521
_cell_length_b 17.337859
_cell_length_c 14.579127
_cell_angle_alpha 90.000000
_cell_angle_beta 90.000000
_cell_angle_gamma 90.000000
_cell_volume 3987.339054
_symmetry_space_group_name_H-M "I B A M"
_symmetry_group_IT_number 72
_symmetry_cell_setting 'orthorhombic'
loop_
_space_group_symop_operation_xyz
x,y,z
-x,-y,z
x,-y,1/2-z
-x,y,1/2-z
-x,-y,-z
x,y,-z
-x,y,1/2+z
x,-y,1/2+z
1/2+x,1/2+y,1/2+z
1/2-x,1/2-y,1/2+z
1/2+x,1/2-y,-z
1/2-x,1/2+y,-z
1/2-x,1/2-y,1/2-z
1/2+x,1/2+y,1/2-z
1/2-x,1/2+y,z
1/2+x,1/2-y,z
loop_
_atom_site_type_symbol
_atom_site_label
_atom_site_fract_x
_atom_site_fract_y
_atom_site_fract_z
Si Si1 0.811715 0.999344 0.000000
Si Si2 0.148116 0.826576 0.000000
Si Si3 0.915097 0.852594 0.792521
Si Si4 0.169483 0.268879 0.314018
Si Si5 0.548917 0.622437 0.500000
Si Si6 0.239982 0.567959 0.186578
O O1 0.805571 0.091259 0.000000
O O2 0.766386 0.965876 0.910945
O O3 0.908257 0.963671 0.000000
O O4 0.169506 0.775647 0.910804
O O5 0.050155 0.855682 0.000000
O O6 0.905608 0.770523 0.742767
O O7 0.829993 0.901193 0.771019
O O8 0.000000 0.889952 0.750000
O O9 0.918991 0.844730 0.902357
O O10 0.250000 0.250000 0.250000
O O11 0.176575 0.360366 0.325000
O O12 0.206212 0.500000 0.250000
#
# Coordination Sequence:
#
# PCOD9526222 Si02
#       6
#     8   8  16  16   8  16
#     4  10  20  33  51  82 120 143 183 230 284 341
#     4  12  20  35  57  83 114 153 185 229 282 345
#     4  10  19  35  54  82 111 147 190 227 278 337
#     4  10  21  35  55  79 112 151 195 225 273 339
#     4  10  21  32  54  85 116 147 183 226 291 337
#     4  10  21  36  53  81 115 147 184 233 282 330
#
# _framework density 18.057155000000002
#
# number of rings (size 3 to 8) (size 9 to 14) (size 15 to 20)
#    0.000    1.778    2.222    3.667    0.000    3.111 
#    0.000    1.111    0.000    0.667    0.000    1.556 
#    0.000    0.000    0.000    0.000    0.000    0.000 
#
# Total GULP energy -200500.211169 kJ/mol
# GULP energy per Si atom -5569.450310 kJ/mol
# Density = 1.801606 g / cm^3
# Si number density = 18.057155 Si / 1000 Ang^3
#
#
#
# Elastic Constant Matrix: (Units=GPa)
#
#
# Indices 1 2 3 4 5 6 
#
# 1 25.2339 24.0175 18.1867 0.0000 0.0000 0.0000
# 2 24.0175 162.8337 72.5409 0.0000 0.0000 0.0000
# 3 18.1867 72.5409 140.5709 0.0000 0.0000 0.0000
# 4 0.0000 0.0000 0.0000 25.4401 0.0000 0.0000
# 5 0.0000 0.0000 0.0000 0.0000 35.2264 0.0000
# 6 0.0000 0.0000 0.0000 0.0000 0.0000 17.9267
#
#
#
# Elastic Compliance Matrix: (Units=1/GPa)
#
#
# Indices 1 2 3 4 5 6 
#
# 1 0.047229 -0.005511 -0.003266 0.000000 0.000000 0.000000
# 2 -0.005511 0.008618 -0.003734 0.000000 0.000000 0.000000
# 3 -0.003266 -0.003734 0.009463 0.000000 0.000000 0.000000
# 4 0.000000 0.000000 0.000000 0.039308 0.000000 0.000000
# 5 0.000000 0.000000 0.000000 0.000000 0.028388 0.000000
# 6 0.000000 0.000000 0.000000 0.000000 0.000000 0.055783
#
#
# Mechanical properties :
#
#
# Convention : Reuss Voigt Hill
#
# Bulk Modulus (GPa) = 24.82203 62.01430 43.41816
# Shear Modulus (GPa) = 22.00317 29.97820 25.99068
#
# Velocity S-wave (km/s) = 3.49453 4.07896 3.79800
# Velocity P-wave (km/s) = 5.48257 7.52341 6.58256
#
# Compressibility (1/GPa) = 0.04028680
#
# Stress axis : x y z
#
# Youngs Moduli (GPa) = 21.17356 116.04186 105.67026
#
# Poissons Ratio (x) = 0.63950 0.34516
# Poissons Ratio (y) = 0.11669 0.39458
# Poissons Ratio (z) = 0.06916 0.43331
#
# Static dielectric constant tensor:
#      x y z
#    x 1.660640 0.000000 0.000000 
#    y 0.000000 1.657390 0.000000 
#    z 0.000000 0.000000 1.610500 
# 
# From -- ./inp_files/21488.got.cif
#   From: 2010.05.17/outbox.cif.g08.bks.cpg/sg72_11_cif.got.tgz:21488.got - 2010.06.03 17:03:01.
