data_PCOD9526003
_publ_section_title
;
Structure prediction by ZEFSAII (Michael W. Deem and Ramdas Pophale) SiO2 
 PCOD9526003
Probable space group: I B A M
;
_chemical_formula_sum "Si O2"
_cell_formula_units_Z 128
_cell_length_a 22.837126
_cell_length_b 11.436282
_cell_length_c 24.537444
_cell_angle_alpha 90.000000
_cell_angle_beta 90.000000
_cell_angle_gamma 90.000000
_cell_volume 6408.488736
_symmetry_space_group_name_H-M "I B A M"
_symmetry_group_IT_number 72
_symmetry_cell_setting 'orthorhombic'
loop_
_space_group_symop_operation_xyz
x,y,z
-x,-y,z
x,-y,1/2-z
-x,y,1/2-z
-x,-y,-z
x,y,-z
-x,y,1/2+z
x,-y,1/2+z
1/2+x,1/2+y,1/2+z
1/2-x,1/2-y,1/2+z
1/2+x,1/2-y,-z
1/2-x,1/2+y,-z
1/2-x,1/2-y,1/2-z
1/2+x,1/2+y,1/2-z
1/2-x,1/2+y,z
1/2+x,1/2-y,z
loop_
_atom_site_type_symbol
_atom_site_label
_atom_site_fract_x
_atom_site_fract_y
_atom_site_fract_z
Si Si1 0.153812 0.062583 0.598818
Si Si2 0.537925 0.358770 0.562105
Si Si3 0.831319 0.452848 0.867680
Si Si4 0.094782 0.157864 0.060008
Si Si5 0.834330 0.277560 0.644016
Si Si6 0.944429 0.583911 0.562510
Si Si7 0.230414 0.719669 0.938092
Si Si8 0.721754 0.571469 0.694757
O O1 0.086242 0.103257 0.606363
O O2 0.183799 0.175811 0.572277
O O3 0.142362 0.946194 0.563344
O O4 0.192138 0.015053 0.649316
O O5 0.558145 0.389794 0.500000
O O6 0.470205 0.393969 0.567123
O O7 0.535900 0.218055 0.563146
O O8 0.831937 0.585603 0.847357
O O9 0.896587 0.428835 0.889444
O O10 0.795377 0.406131 0.920596
O O11 0.788711 0.394343 0.822069
O O12 0.107806 0.240953 0.111000
O O13 0.097053 0.213950 0.000000
O O14 0.783903 0.251434 0.600081
O O15 0.817830 0.188930 0.692504
O O16 0.921400 0.560953 0.500000
O O17 0.000000 0.500000 0.570432
O O18 0.247878 0.719646 0.000000
O O19 0.721369 0.500000 0.750000
#
# Coordination Sequence:
#
# PCOD9526003 Si02
#       8
#    16  16  16  16  16  16  16  16
#     4  11  20  37  56  83 116 149 201 249 301 356
#     4  10  19  33  54  83 119 161 200 234 284 355
#     4  11  21  38  55  83 115 153 194 238 292 359
#     4  10  20  33  54  84 121 162 200 236 283 351
#     4  10  22  38  55  85 117 151 198 240 294 354
#     4  10  20  33  53  83 124 166 197 229 278 351
#     4  11  21  33  53  83 122 159 187 231 293 363
#     4  10  24  44  64  84 110 147 201 266 314 352
#
# _framework density 19.973509
#
# number of rings (size 3 to 8) (size 9 to 14) (size 15 to 20)
#    0.000    1.625    2.500    3.000    0.000    4.500 
#    0.000    0.000    0.000    6.375    0.000    5.250 
#    0.000    0.000    0.000    0.000    0.000    0.000 
#
# Total GULP energy -356436.658433 kJ/mol
# GULP energy per Si atom -5569.322788 kJ/mol
# Density = 1.992805 g / cm^3
# Si number density = 19.973509 Si / 1000 Ang^3
#
#
#
# Elastic Constant Matrix: (Units=GPa)
#
#
# Indices 1 2 3 4 5 6 
#
# 1 88.9558 2.0562 25.5222 0.0000 0.0000 0.0000
# 2 2.0562 61.7720 4.0712 0.0000 0.0000 0.0000
# 3 25.5222 4.0712 53.0301 0.0000 0.0000 0.0000
# 4 0.0000 0.0000 0.0000 13.2274 0.0000 0.0000
# 5 0.0000 0.0000 0.0000 0.0000 14.1678 0.0000
# 6 0.0000 0.0000 0.0000 0.0000 0.0000 31.6106
#
#
#
# Elastic Compliance Matrix: (Units=1/GPa)
#
#
# Indices 1 2 3 4 5 6 
#
# 1 0.013043 -0.000021 -0.006275 0.000000 0.000000 0.000000
# 2 -0.000021 0.016271 -0.001239 0.000000 0.000000 0.000000
# 3 -0.006275 -0.001239 0.021973 0.000000 0.000000 0.000000
# 4 0.000000 0.000000 0.000000 0.075601 0.000000 0.000000
# 5 0.000000 0.000000 0.000000 0.000000 0.070583 0.000000
# 6 0.000000 0.000000 0.000000 0.000000 0.000000 0.031635
#
#
# Mechanical properties :
#
#
# Convention : Reuss Voigt Hill
#
# Bulk Modulus (GPa) = 27.61250 29.67299 28.64274
# Shear Modulus (GPa) = 19.51245 23.27505 21.39375
#
# Velocity S-wave (km/s) = 3.12896 3.41735 3.27633
# Velocity P-wave (km/s) = 5.18733 5.51901 5.35574
#
# Compressibility (1/GPa) = 0.03621549
#
# Stress axis : x y z
#
# Youngs Moduli (GPa) = 76.67241 61.45931 45.51119
#
# Poissons Ratio (x) = 0.00126 0.28560
# Poissons Ratio (y) = 0.00158 0.05640
# Poissons Ratio (z) = 0.48116 0.07616
#
# Static dielectric constant tensor:
#      x y z
#    x 1.778420 0.000000 0.000000 
#    y 0.000000 1.793940 0.000000 
#    z 0.000000 0.000000 1.691140 
# 
# From -- ./inp_files/45803.got.cif
#   From: 2010.05.17/outbox.cif.g08.bks.cpg/sg72_23_cif.got.tgz:45803.got - 2010.06.03 17:03:01.
