data_PCOD9526651
_publ_section_title
;
Structure prediction by ZEFSAII (Michael W. Deem and Ramdas Pophale) SiO2 
 PCOD9526651
Probable space group: I B A M
;
_chemical_formula_sum "Si O2"
_cell_formula_units_Z 112
_cell_length_a 15.708412
_cell_length_b 19.757283
_cell_length_c 19.446421
_cell_angle_alpha 90.000000
_cell_angle_beta 90.000000
_cell_angle_gamma 90.000000
_cell_volume 6035.304517
_symmetry_space_group_name_H-M "I B A M"
_symmetry_group_IT_number 72
_symmetry_cell_setting 'orthorhombic'
loop_
_space_group_symop_operation_xyz
x,y,z
-x,-y,z
x,-y,1/2-z
-x,y,1/2-z
-x,-y,-z
x,y,-z
-x,y,1/2+z
x,-y,1/2+z
1/2+x,1/2+y,1/2+z
1/2-x,1/2-y,1/2+z
1/2+x,1/2-y,-z
1/2-x,1/2+y,-z
1/2-x,1/2-y,1/2-z
1/2+x,1/2+y,1/2-z
1/2-x,1/2+y,z
1/2+x,1/2-y,z
loop_
_atom_site_type_symbol
_atom_site_label
_atom_site_fract_x
_atom_site_fract_y
_atom_site_fract_z
Si Si1 0.737315 0.895017 0.341631
Si Si2 0.800592 0.252652 0.849505
Si Si3 0.893244 0.371552 0.079474
Si Si4 0.234827 0.030309 0.081151
Si Si5 0.637690 0.431630 0.782927
Si Si6 0.881415 0.216448 0.705504
Si Si7 0.043427 0.648336 0.677540
O O1 0.781069 0.825288 0.366179
O O2 0.783177 0.916678 0.269932
O O3 0.638366 0.880698 0.327663
O O4 0.748488 0.952849 0.397988
O O5 0.851882 0.299195 0.901156
O O6 0.852679 0.249828 0.777906
O O7 0.707853 0.285508 0.835894
O O8 0.820780 0.427029 0.094598
O O9 0.979281 0.379929 0.121556
O O10 0.912904 0.374746 0.000000
O O11 0.167363 0.054250 0.138982
O O12 0.212478 0.038195 0.000000
O O13 0.598844 0.500000 0.750000
O O14 0.588703 0.360183 0.784470
O O15 0.945084 0.269902 0.671796
O O16 0.000000 0.633396 0.750000
#
# Coordination Sequence:
#
# PCOD9526651 Si02
#       7
#    16  16  16  16  16  16  16
#     4   9  20  33  54  78 101 133 178 224 255 309
#     4   9  16  32  54  76  97 130 174 225 262 295
#     4  11  22  34  49  75 111 144 174 210 262 321
#     4  10  20  34  50  72 108 144 172 209 265 316
#     4   9  16  31  54  82 101 125 172 225 267 307
#     4   9  16  30  56  77 100 126 175 224 260 302
#     4  11  20  33  53  76 103 141 176 214 263 306
#
# _framework density 18.557473999999999
#
# number of rings (size 3 to 8) (size 9 to 14) (size 15 to 20)
#    0.000    2.286    2.857    1.714    0.000    1.714 
#    0.000    5.000    0.000    0.429    0.000    0.000 
#    0.000    5.143    0.000    0.000    0.000    0.000 
#
# Total GULP energy -312266.492941 kJ/mol
# GULP energy per Si atom -5576.187374 kJ/mol
# Density = 1.851524 g / cm^3
# Si number density = 18.557474 Si / 1000 Ang^3
#
#
#
# Elastic Constant Matrix: (Units=GPa)
#
#
# Indices 1 2 3 4 5 6 
#
# 1 47.6666 2.0784 17.3883 0.0000 0.0000 0.0000
# 2 2.0784 85.2808 18.6798 0.0000 0.0000 0.0000
# 3 17.3883 18.6798 61.1244 0.0000 0.0000 0.0000
# 4 0.0000 0.0000 0.0000 2.2297 0.0000 0.0000
# 5 0.0000 0.0000 0.0000 0.0000 14.9864 0.0000
# 6 0.0000 0.0000 0.0000 0.0000 0.0000 10.4052
#
#
#
# Elastic Compliance Matrix: (Units=1/GPa)
#
#
# Indices 1 2 3 4 5 6 
#
# 1 0.023480 0.000955 -0.006971 0.000000 0.000000 0.000000
# 2 0.000955 0.012606 -0.004124 0.000000 0.000000 0.000000
# 3 -0.006971 -0.004124 0.019604 0.000000 0.000000 0.000000
# 4 0.000000 0.000000 0.000000 0.448481 0.000000 0.000000
# 5 0.000000 0.000000 0.000000 0.000000 0.066727 0.000000
# 6 0.000000 0.000000 0.000000 0.000000 0.000000 0.096105
#
#
# Mechanical properties :
#
#
# Convention : Reuss Voigt Hill
#
# Bulk Modulus (GPa) = 28.24157 30.04052 29.14104
# Shear Modulus (GPa) = 7.15217 15.91930 11.53574
#
# Velocity S-wave (km/s) = 1.96531 2.93206 2.49594
# Velocity P-wave (km/s) = 4.51679 5.26171 4.90342
#
# Compressibility (1/GPa) = 0.03540880
#
# Stress axis : x y z
#
# Youngs Moduli (GPa) = 42.58855 79.32715 51.01115
#
# Poissons Ratio (x) = -0.07574 0.35562
# Poissons Ratio (y) = -0.04066 0.21037
# Poissons Ratio (z) = 0.29690 0.32715
#
# Static dielectric constant tensor:
#      x y z
#    x 1.646850 0.000000 0.000000 
#    y 0.000000 1.684010 0.000000 
#    z 0.000000 0.000000 1.617630 
# 
# From -- ./inp_files/31904.got.cif
#   From: 2010.05.17/outbox.cif.g08.bks.cpg/sg72_16_cif.got.tgz:31904.got - 2010.06.03 17:03:01.
