data_PCOD9526778
_publ_section_title
;
Structure prediction by ZEFSAII (Michael W. Deem and Ramdas Pophale) SiO2 
 PCOD9526778
Probable space group: I B A M
;
_chemical_formula_sum "Si O2"
_cell_formula_units_Z 96
_cell_length_a 23.947451
_cell_length_b 10.999312
_cell_length_c 16.246836
_cell_angle_alpha 90.000000
_cell_angle_beta 90.000000
_cell_angle_gamma 90.000000
_cell_volume 4279.505719
_symmetry_space_group_name_H-M "I B A M"
_symmetry_group_IT_number 72
_symmetry_cell_setting 'orthorhombic'
loop_
_space_group_symop_operation_xyz
x,y,z
-x,-y,z
x,-y,1/2-z
-x,y,1/2-z
-x,-y,-z
x,y,-z
-x,y,1/2+z
x,-y,1/2+z
1/2+x,1/2+y,1/2+z
1/2-x,1/2-y,1/2+z
1/2+x,1/2-y,-z
1/2-x,1/2+y,-z
1/2-x,1/2-y,1/2-z
1/2+x,1/2+y,1/2-z
1/2-x,1/2+y,z
1/2+x,1/2-y,z
loop_
_atom_site_type_symbol
_atom_site_label
_atom_site_fract_x
_atom_site_fract_y
_atom_site_fract_z
Si Si1 0.516922 0.676168 0.592664
Si Si2 0.183184 0.804018 0.834219
Si Si3 0.623901 0.466595 0.094412
Si Si4 0.807430 0.736249 0.858373
Si Si5 0.085506 0.599822 0.359226
Si Si6 0.423899 0.166850 0.166398
O O1 0.499384 0.644918 0.500000
O O2 0.438314 0.424450 0.622676
O O3 0.553717 0.799221 0.589609
O O4 0.464596 0.721730 0.645342
O O5 0.153902 0.932367 0.851232
O O6 0.190503 0.779406 0.737048
O O7 0.243269 0.792260 0.876695
O O8 0.137897 0.704736 0.860777
O O9 0.663224 0.347497 0.095451
O O10 0.619439 0.509216 0.000000
O O11 0.848141 0.620484 0.869449
O O12 0.064695 0.463903 0.373804
O O13 0.074211 0.638632 0.263884
#
# Coordination Sequence:
#
# PCOD9526778 Si02
#       6
#    16  16  16  16  16  16
#     4  10  21  37  56  80 116 159 196 239 292 350
#     4  10  21  36  61  88 112 151 199 246 298 357
#     4  10  22  39  57  81 120 161 196 240 299 359
#     4   9  20  38  61  85 115 150 197 251 298 351
#     4   9  19  36  57  85 116 148 190 248 300 343
#     4  10  20  34  57  88 115 147 195 247 297 347
#
# _framework density 22.432497000000001
#
# number of rings (size 3 to 8) (size 9 to 14) (size 15 to 20)
#    0.000    2.333    0.000    1.500    2.333    4.667 
#    0.000    1.667    0.000    6.000    0.000    0.000 
#    0.000    0.000    0.000    0.000    0.000    0.000 
#
# Total GULP energy -268014.985342 kJ/mol
# GULP energy per Si atom -5583.645528 kJ/mol
# Density = 2.238144 g / cm^3
# Si number density = 22.432497 Si / 1000 Ang^3
#
#
#
# Elastic Constant Matrix: (Units=GPa)
#
#
# Indices 1 2 3 4 5 6 
#
# 1 164.1351 42.8633 21.7571 0.0000 0.0000 0.0000
# 2 42.8633 108.2699 11.1135 0.0000 0.0000 0.0000
# 3 21.7571 11.1135 10.8830 0.0000 0.0000 0.0000
# 4 0.0000 0.0000 0.0000 7.4025 0.0000 0.0000
# 5 0.0000 0.0000 0.0000 0.0000 -36.2772 0.0000
# 6 0.0000 0.0000 0.0000 0.0000 0.0000 27.0799
#
#
#
# Elastic Compliance Matrix: (Units=1/GPa)
#
#
# Indices 1 2 3 4 5 6 
#
# 1 0.008603 -0.001833 -0.015327 0.000000 0.000000 0.000000
# 2 -0.001833 0.010708 -0.007271 0.000000 0.000000 0.000000
# 3 -0.015327 -0.007271 0.129953 0.000000 0.000000 0.000000
# 4 0.000000 0.000000 0.000000 0.135090 0.000000 0.000000
# 5 0.000000 0.000000 0.000000 0.000000 -0.027566 0.000000
# 6 0.000000 0.000000 0.000000 0.000000 0.000000 0.036928
#
#
# Mechanical properties :
#
#
# Convention : Reuss Voigt Hill
#
# Bulk Modulus (GPa) = 9.95996 48.30622 29.13309
# Shear Modulus (GPa) = 13.29625 13.47796 13.38710
#
# Velocity S-wave (km/s) = 2.43723 2.45383 2.44554
# Velocity P-wave (km/s) = 3.51706 5.44143 4.58142
#
# Compressibility (1/GPa) = 0.10040203
#
# Stress axis : x y z
#
# Youngs Moduli (GPa) = 116.24103 93.38781 7.69507
#
# Poissons Ratio (x) = 0.17113 0.11794
# Poissons Ratio (y) = 0.21301 0.05595
# Poissons Ratio (z) = 1.78165 0.67905
#
# Static dielectric constant tensor:
#      x y z
#    x 1.862600 0.000000 0.000000 
#    y 0.000000 1.823650 0.000000 
#    z 0.000000 0.000000 1.857610 
# 
# From -- ./inp_files/33241.got.cif
#   From: 2010.05.17/outbox.cif.g08.bks.cpg/sg72_17_cif.got.tgz:33241.got - 2010.06.03 17:03:01.
