data_PCOD9526054
_publ_section_title
;
Structure prediction by ZEFSAII (Michael W. Deem and Ramdas Pophale) SiO2 
 PCOD9526054
Probable space group: I B A M
;
_chemical_formula_sum "Si O2"
_cell_formula_units_Z 112
_cell_length_a 10.309062
_cell_length_b 27.171745
_cell_length_c 24.401763
_cell_angle_alpha 90.000000
_cell_angle_beta 90.000000
_cell_angle_gamma 90.000000
_cell_volume 6835.304817
_symmetry_space_group_name_H-M "I B A M"
_symmetry_group_IT_number 72
_symmetry_cell_setting 'orthorhombic'
loop_
_space_group_symop_operation_xyz
x,y,z
-x,-y,z
x,-y,1/2-z
-x,y,1/2-z
-x,-y,-z
x,y,-z
-x,y,1/2+z
x,-y,1/2+z
1/2+x,1/2+y,1/2+z
1/2-x,1/2-y,1/2+z
1/2+x,1/2-y,-z
1/2-x,1/2+y,-z
1/2-x,1/2-y,1/2-z
1/2+x,1/2+y,1/2-z
1/2-x,1/2+y,z
1/2+x,1/2-y,z
loop_
_atom_site_type_symbol
_atom_site_label
_atom_site_fract_x
_atom_site_fract_y
_atom_site_fract_z
Si Si1 0.989043 0.212304 0.000000
Si Si2 0.687571 0.802129 0.500000
Si Si3 0.291149 0.131101 0.391805
Si Si4 0.867281 0.686332 0.783560
Si Si5 0.017046 0.143272 0.894744
Si Si6 0.361619 0.024061 0.565818
Si Si7 0.122998 0.198435 0.209981
Si Si8 0.611218 0.460984 0.934184
O O1 0.833234 0.221056 0.000000
O O2 0.020929 0.179297 0.947003
O O3 0.076213 0.261027 0.000000
O O4 0.678530 0.835829 0.445559
O O5 0.356331 0.153131 0.337434
O O6 0.135459 0.133557 0.383640
O O7 0.335237 0.075655 0.404624
O O8 0.855834 0.743610 0.801810
O O9 0.747728 0.678263 0.742080
O O10 0.000000 0.680000 0.750000
O O11 0.087282 0.169457 0.844459
O O12 0.083665 0.091463 0.907919
O O13 0.354668 0.033137 0.500000
O O14 0.500000 0.000000 0.578237
O O15 0.248434 0.985389 0.579410
O O16 0.000000 0.195393 0.250000
O O17 0.500000 0.500000 0.918703
O O18 0.603972 0.454633 0.000000
#
# Coordination Sequence:
#
# PCOD9526054 Si02
#       8
#     8   8  16  16  16  16  16  16
#     4  10  22  38  52  85 122 155 182 234 299 354
#     4  10  22  38  56  84 122 153 184 229 301 356
#     4  11  20  37  62  84 116 156 189 237 296 349
#     4  10  22  38  60  85 113 155 201 239 284 337
#     4  11  20  35  62  86 115 152 195 240 291 341
#     4  10  21  37  57  86 120 150 191 238 290 349
#     4  10  20  38  59  84 115 151 199 241 274 339
#     4  10  19  33  58  85 114 148 193 236 279 347
#
# _framework density 16.385515999999999
#
# number of rings (size 3 to 8) (size 9 to 14) (size 15 to 20)
#    0.000    1.714    4.286    0.857    0.000    1.143 
#    5.143    0.000    0.000    5.143    0.000    0.000 
#    0.000    0.000    0.000    0.000    0.000    0.000 
#
# Total GULP energy -312580.877464 kJ/mol
# GULP energy per Si atom -5581.801383 kJ/mol
# Density = 1.634822 g / cm^3
# Si number density = 16.385516 Si / 1000 Ang^3
#
#
#
# Elastic Constant Matrix: (Units=GPa)
#
#
# Indices 1 2 3 4 5 6 
#
# 1 105.5516 51.8123 45.3485 0.0000 0.0000 0.0000
# 2 51.8123 105.7685 60.0204 0.0000 0.0000 0.0000
# 3 45.3485 60.0204 95.0116 0.0000 0.0000 0.0000
# 4 0.0000 0.0000 0.0000 100.1550 0.0000 0.0000
# 5 0.0000 0.0000 0.0000 0.0000 20.9770 0.0000
# 6 0.0000 0.0000 0.0000 0.0000 0.0000 24.3370
#
#
#
# Elastic Compliance Matrix: (Units=1/GPa)
#
#
# Indices 1 2 3 4 5 6 
#
# 1 0.013158 -0.004492 -0.003443 0.000000 0.000000 0.000000
# 2 -0.004492 0.016271 -0.008135 0.000000 0.000000 0.000000
# 3 -0.003443 -0.008135 0.017307 0.000000 0.000000 0.000000
# 4 0.000000 0.000000 0.000000 0.009985 0.000000 0.000000
# 5 0.000000 0.000000 0.000000 0.000000 0.047671 0.000000
# 6 0.000000 0.000000 0.000000 0.000000 0.000000 0.041090
#
#
# Mechanical properties :
#
#
# Convention : Reuss Voigt Hill
#
# Bulk Modulus (GPa) = 68.50474 68.96600 68.73537
# Shear Modulus (GPa) = 27.39918 39.03715 33.21817
#
# Velocity S-wave (km/s) = 4.09364 4.88630 4.50743
# Velocity P-wave (km/s) = 8.01516 8.60323 8.31439
#
# Compressibility (1/GPa) = 0.01459753
#
# Stress axis : x y z
#
# Youngs Moduli (GPa) = 75.99851 61.45739 57.78000
#
# Poissons Ratio (x) = 0.27608 0.19891
# Poissons Ratio (y) = 0.34140 0.47003
# Poissons Ratio (z) = 0.26163 0.49995
#
# Static dielectric constant tensor:
#      x y z
#    x 1.548040 0.000000 0.000000 
#    y 0.000000 1.521840 0.000000 
#    z 0.000000 0.000000 1.526460 
# 
# From -- ./inp_files/43660.got.cif
#   From: 2010.05.17/outbox.cif.g08.bks.cpg/sg72_22_cif.got.tgz:43660.got - 2010.06.03 17:03:01.
