data_PCOD9526839
_publ_section_title
;
Structure prediction by ZEFSAII (Michael W. Deem and Ramdas Pophale) SiO2 
 PCOD9526839
Probable space group: I B A M
;
_chemical_formula_sum "Si O2"
_cell_formula_units_Z 116
_cell_length_a 9.308251
_cell_length_b 24.842186
_cell_length_c 25.455390
_cell_angle_alpha 90.000000
_cell_angle_beta 90.000000
_cell_angle_gamma 90.000000
_cell_volume 5886.235722
_symmetry_space_group_name_H-M "I B A M"
_symmetry_group_IT_number 72
_symmetry_cell_setting 'orthorhombic'
loop_
_space_group_symop_operation_xyz
x,y,z
-x,-y,z
x,-y,1/2-z
-x,y,1/2-z
-x,-y,-z
x,y,-z
-x,y,1/2+z
x,-y,1/2+z
1/2+x,1/2+y,1/2+z
1/2-x,1/2-y,1/2+z
1/2+x,1/2-y,-z
1/2-x,1/2+y,-z
1/2-x,1/2-y,1/2-z
1/2+x,1/2+y,1/2-z
1/2-x,1/2+y,z
1/2+x,1/2-y,z
loop_
_atom_site_type_symbol
_atom_site_label
_atom_site_fract_x
_atom_site_fract_y
_atom_site_fract_z
Si Si1 0.891909 0.596160 0.059017
Si Si2 0.380011 0.536503 0.127896
Si Si3 0.279879 0.881772 0.439032
Si Si4 0.571220 0.290113 0.893803
Si Si5 0.297096 0.056448 0.669264
Si Si6 0.457693 0.631580 0.689410
Si Si7 0.500000 0.000000 0.750000
Si Si8 0.236951 0.793751 0.941073
O O1 0.861394 0.560982 0.110403
O O2 0.773102 0.643152 0.059634
O O3 0.048608 0.623472 0.065502
O O4 0.889998 0.571068 0.000000
O O5 0.500000 0.500000 0.099226
O O6 0.267382 0.563373 0.089141
O O7 0.308238 0.494909 0.167640
O O8 0.452986 0.585012 0.159432
O O9 0.243243 0.884097 0.500000
O O10 0.186581 0.834106 0.413984
O O11 0.503407 0.313394 0.839916
O O12 0.662390 0.235597 0.898468
O O13 0.430624 0.285175 0.930231
O O14 0.411474 0.039955 0.712430
O O15 0.205739 0.110225 0.682178
O O16 0.500000 0.633463 0.750000
O O17 0.272994 0.773364 0.000000
#
# Coordination Sequence:
#
# PCOD9526839 Si02
#       8
#    16  16  16  16  16  16   4  16
#     4  10  22  38  60  87 126 164 196 254 317 368
#     4   9  20  35  56  83 114 156 200 251 296 360
#     4  10  20  35  54  84 120 158 197 241 304 367
#     4  11  22  39  61  89 119 156 203 254 305 370
#     4  11  21  40  58  93 125 160 219 254 309 375
#     4  10  21  40  63  84 120 162 205 259 313 360
#     4  12  24  32  64  88 120 172 212 264 304 356
#     4  11  21  37  62  91 118 153 196 246 306 367
#
# _framework density 19.706990999999999
#
# number of rings (size 3 to 8) (size 9 to 14) (size 15 to 20)
#    0.000    1.655    1.379    3.724    0.000    4.966 
#    0.000    2.414    1.517    0.000    0.000    0.000 
#    0.000    0.000    0.000    0.000    0.000    0.000 
#
# Total GULP energy -323488.252129 kJ/mol
# GULP energy per Si atom -5577.383657 kJ/mol
# Density = 1.966214 g / cm^3
# Si number density = 19.706991 Si / 1000 Ang^3
#
#
#
# Elastic Constant Matrix: (Units=GPa)
#
#
# Indices 1 2 3 4 5 6 
#
# 1 70.7684 -6.4398 20.3362 0.0000 0.0000 0.0000
# 2 -6.4398 30.5590 16.7703 0.0000 0.0000 0.0000
# 3 20.3362 16.7703 105.9678 0.0000 0.0000 0.0000
# 4 0.0000 0.0000 0.0000 14.9823 0.0000 0.0000
# 5 0.0000 0.0000 0.0000 0.0000 47.7837 0.0000
# 6 0.0000 0.0000 0.0000 0.0000 0.0000 15.7199
#
#
#
# Elastic Compliance Matrix: (Units=1/GPa)
#
#
# Indices 1 2 3 4 5 6 
#
# 1 0.015742 0.005449 -0.003883 0.000000 0.000000 0.000000
# 2 0.005449 0.037722 -0.007015 0.000000 0.000000 0.000000
# 3 -0.003883 -0.007015 0.011292 0.000000 0.000000 0.000000
# 4 0.000000 0.000000 0.000000 0.066746 0.000000 0.000000
# 5 0.000000 0.000000 0.000000 0.000000 0.020928 0.000000
# 6 0.000000 0.000000 0.000000 0.000000 0.000000 0.063614
#
#
# Mechanical properties :
#
#
# Convention : Reuss Voigt Hill
#
# Bulk Modulus (GPa) = 18.56803 29.84763 24.20783
# Shear Modulus (GPa) = 20.41684 27.47240 23.94462
#
# Velocity S-wave (km/s) = 3.22222 3.73774 3.48951
# Velocity P-wave (km/s) = 4.82557 5.81431 5.34286
#
# Compressibility (1/GPa) = 0.05385600
#
# Stress axis : x y z
#
# Youngs Moduli (GPa) = 63.52286 26.50989 88.55557
#
# Poissons Ratio (x) = -0.14444 0.34390
# Poissons Ratio (y) = -0.34611 0.62126
# Poissons Ratio (z) = 0.24668 0.18598
#
# Static dielectric constant tensor:
#      x y z
#    x 1.736720 0.000000 0.000000 
#    y 0.000000 1.726410 0.000000 
#    z 0.000000 0.000000 1.685370 
# 
# From -- ./inp_files/42720.got.cif
#   From: 2010.05.17/outbox.cif.g08.bks.cpg/sg72_22_cif.got.tgz:42720.got - 2010.06.03 17:03:01.
