data_PCOD9526356
_publ_section_title
;
Structure prediction by ZEFSAII (Michael W. Deem and Ramdas Pophale) SiO2 
 PCOD9526356
Probable space group: I B A M
;
_chemical_formula_sum "Si O2"
_cell_formula_units_Z 64
_cell_length_a 9.315827
_cell_length_b 22.317654
_cell_length_c 15.705394
_cell_angle_alpha 90.000000
_cell_angle_beta 90.000000
_cell_angle_gamma 90.000000
_cell_volume 3265.267691
_symmetry_space_group_name_H-M "I B A M"
_symmetry_group_IT_number 72
_symmetry_cell_setting 'orthorhombic'
loop_
_space_group_symop_operation_xyz
x,y,z
-x,-y,z
x,-y,1/2-z
-x,y,1/2-z
-x,-y,-z
x,y,-z
-x,y,1/2+z
x,-y,1/2+z
1/2+x,1/2+y,1/2+z
1/2-x,1/2-y,1/2+z
1/2+x,1/2-y,-z
1/2-x,1/2+y,-z
1/2-x,1/2-y,1/2-z
1/2+x,1/2+y,1/2-z
1/2-x,1/2+y,z
1/2+x,1/2-y,z
loop_
_atom_site_type_symbol
_atom_site_label
_atom_site_fract_x
_atom_site_fract_y
_atom_site_fract_z
Si Si1 0.246379 0.479649 0.500000
Si Si2 0.688847 0.708341 0.673926
Si Si3 0.494559 0.184157 0.147013
Si Si4 0.000000 0.895570 0.250000
Si Si5 0.500000 0.500000 0.872521
Si Si6 0.954429 0.595415 0.000000
O O1 0.360178 0.477158 0.577085
O O2 0.162269 0.542753 0.500000
O O3 0.116076 0.432419 0.500000
O O4 0.750000 0.750000 0.750000
O O5 0.571242 0.751804 0.633104
O O6 0.828346 0.690940 0.621497
O O7 0.617650 0.649043 0.711668
O O8 0.500000 0.170183 0.250000
O O9 0.562502 0.135076 0.085343
O O10 0.945708 0.942454 0.320086
#
# Coordination Sequence:
#
# PCOD9526356 Si02
#       6
#     8  16  16   8   8   8
#     4  10  24  46  56  90 126 166 216 280 294 380
#     4  10  19  36  60  92 132 155 205 260 308 382
#     4  10  22  38  61  94 126 170 201 259 319 378
#     4  11  20  38  68  96 122 167 218 254 320 385
#     4  10  24  40  68  88 122 174 214 264 318 360
#     4  11  24  42  64  88 134 163 216 262 328 371
#
# _framework density 19.600231000000001
#
# number of rings (size 3 to 8) (size 9 to 14) (size 15 to 20)
#    0.000    1.750    3.750    1.500    7.000    1.000 
#    0.000    3.750    0.000    0.000    0.000    0.000 
#    0.000    0.000    0.000    0.000    0.000    0.000 
#
# Total GULP energy -178288.025396 kJ/mol
# GULP energy per Si atom -5571.500794 kJ/mol
# Density = 1.955562 g / cm^3
# Si number density = 19.600231 Si / 1000 Ang^3
#
#
#
# Elastic Constant Matrix: (Units=GPa)
#
#
# Indices 1 2 3 4 5 6 
#
# 1 96.8508 27.9332 7.0056 0.0000 0.0000 0.0000
# 2 27.9332 132.5628 38.4779 0.0000 0.0000 0.0000
# 3 7.0056 38.4779 61.4182 0.0001 0.0000 0.0000
# 4 0.0000 0.0000 0.0001 -64.4975 0.0000 0.0000
# 5 0.0000 0.0000 0.0000 0.0000 -43.6009 0.0000
# 6 0.0000 0.0000 0.0000 0.0000 0.0000 34.6808
#
#
#
# Elastic Compliance Matrix: (Units=1/GPa)
#
#
# Indices 1 2 3 4 5 6 
#
# 1 0.010996 -0.002387 0.000241 0.000000 0.000000 0.000000
# 2 -0.002387 0.009738 -0.005829 0.000000 0.000000 0.000000
# 3 0.000241 -0.005829 0.019906 0.000000 0.000000 0.000000
# 4 0.000000 0.000000 0.000000 -0.015504 0.000000 0.000000
# 5 0.000000 0.000000 0.000000 0.000000 -0.022935 0.000000
# 6 0.000000 0.000000 0.000000 0.000000 0.000000 0.028834
#
#
# Mechanical properties :
#
#
# Convention : Reuss Voigt Hill
#
# Bulk Modulus (GPa) = 40.50003 48.62948 44.56475
# Shear Modulus (GPa) = 90.55510 -0.18919 45.18295
#
# Velocity S-wave (km/s) = 6.80451 -0.31102 4.80649
# Velocity P-wave (km/s) = 9.07981 4.97348 7.32047
#
# Compressibility (1/GPa) = 0.02469134
#
# Stress axis : x y z
#
# Youngs Moduli (GPa) = 90.94065 102.68557 50.23616
#
# Poissons Ratio (x) = 0.24512 -0.01212
# Poissons Ratio (y) = 0.21708 0.29282
# Poissons Ratio (z) = -0.02194 0.59853
#
# Static dielectric constant tensor:
#      x y z
#    x 1.714460 0.000000 0.000000 
#    y 0.000000 1.665120 0.000000 
#    z 0.000000 0.000000 1.755160 
# 
# From -- ./inp_files/27724.got.cif
#   From: 2010.05.17/outbox.cif.g08.bks.cpg/sg72_14_cif.got.tgz:27724.got - 2010.06.03 17:03:01.
