data_PCOD9526307
_publ_section_title
;
Structure prediction by ZEFSAII (Michael W. Deem and Ramdas Pophale) SiO2 
 PCOD9526307
Probable space group: I B A M
;
_chemical_formula_sum "Si O2"
_cell_formula_units_Z 80
_cell_length_a 24.887392
_cell_length_b 10.454304
_cell_length_c 14.640441
_cell_angle_alpha 90.000000
_cell_angle_beta 90.000000
_cell_angle_gamma 90.000000
_cell_volume 3809.155235
_symmetry_space_group_name_H-M "I B A M"
_symmetry_group_IT_number 72
_symmetry_cell_setting 'orthorhombic'
loop_
_space_group_symop_operation_xyz
x,y,z
-x,-y,z
x,-y,1/2-z
-x,y,1/2-z
-x,-y,-z
x,y,-z
-x,y,1/2+z
x,-y,1/2+z
1/2+x,1/2+y,1/2+z
1/2-x,1/2-y,1/2+z
1/2+x,1/2-y,-z
1/2-x,1/2+y,-z
1/2-x,1/2-y,1/2-z
1/2+x,1/2+y,1/2-z
1/2-x,1/2+y,z
1/2+x,1/2-y,z
loop_
_atom_site_type_symbol
_atom_site_label
_atom_site_fract_x
_atom_site_fract_y
_atom_site_fract_z
Si Si1 0.535109 0.857990 0.837836
Si Si2 0.013504 0.218305 0.000000
Si Si3 0.412728 0.482777 0.000000
Si Si4 0.643268 0.995517 0.889673
Si Si5 0.394621 0.607756 0.308670
Si Si6 0.688523 0.792918 0.251008
O O1 0.500000 0.882001 0.750000
O O2 0.580518 0.961130 0.867069
O O3 0.568894 0.730718 0.818698
O O4 0.494514 0.812728 0.915947
O O5 0.964019 0.115333 0.000000
O O6 0.065279 0.127516 0.000000
O O7 0.381899 0.448518 0.092111
O O8 0.674890 0.878237 0.839581
O O9 0.665665 0.120412 0.835307
O O10 0.649595 0.000560 0.000000
O O11 0.423634 0.500000 0.250000
O O12 0.343846 0.660540 0.254940
O O13 0.750000 0.750000 0.250000
#
# Coordination Sequence:
#
# PCOD9526307 Si02
#       6
#    16   8   8  16  16  16
#     4  10  19  35  67  98 139 187 224 274 336 405
#     4   9  16  30  58  97 134 177 228 263 318 409
#     4   9  18  32  56  91 133 179 217 266 333 402
#     4  10  22  45  72 100 136 180 232 286 348 424
#     4  10  21  37  59  93 136 174 223 284 338 404
#     4  10  24  43  69  97 130 171 230 292 359 418
#
# _framework density 21.002032
#
# number of rings (size 3 to 8) (size 9 to 14) (size 15 to 20)
#    0.000    2.200    1.000    1.200    7.000    2.800 
#    1.800    8.000   17.600   10.800    0.000    0.000 
#    0.000    0.000    0.000    0.000    0.000    0.000 
#
# Total GULP energy -223117.770245 kJ/mol
# GULP energy per Si atom -5577.944256 kJ/mol
# Density = 2.095423 g / cm^3
# Si number density = 21.002032 Si / 1000 Ang^3
#
#
#
# Elastic Constant Matrix: (Units=GPa)
#
#
# Indices 1 2 3 4 5 6 
#
# 1 85.9854 75.1419 56.5974 0.0000 0.0000 0.0000
# 2 75.1419 112.0361 68.2048 0.0000 0.0000 0.0000
# 3 56.5974 68.2048 192.3550 0.0000 0.0000 0.0000
# 4 0.0000 0.0000 0.0000 232.8588 0.0000 0.0000
# 5 0.0000 0.0000 0.0000 0.0000 19.2029 0.0000
# 6 0.0000 0.0000 0.0000 0.0000 0.0000 15.4301
#
#
#
# Elastic Compliance Matrix: (Units=1/GPa)
#
#
# Indices 1 2 3 4 5 6 
#
# 1 0.028730 -0.018010 -0.002067 0.000000 0.000000 0.000000
# 2 -0.018010 0.022673 -0.002740 0.000000 0.000000 0.000000
# 3 -0.002067 -0.002740 0.006779 0.000000 0.000000 0.000000
# 4 0.000000 0.000000 0.000000 0.004294 0.000000 0.000000
# 5 0.000000 0.000000 0.000000 0.000000 0.052076 0.000000
# 6 0.000000 0.000000 0.000000 0.000000 0.000000 0.064808
#
#
# Mechanical properties :
#
#
# Convention : Reuss Voigt Hill
#
# Bulk Modulus (GPa) = 79.70619 87.80718 83.75669
# Shear Modulus (GPa) = 21.81721 66.19384 44.00552
#
# Velocity S-wave (km/s) = 3.22656 5.62016 4.58241
# Velocity P-wave (km/s) = 7.20520 9.16595 8.24408
#
# Compressibility (1/GPa) = 0.01254608
#
# Stress axis : x y z
#
# Youngs Moduli (GPa) = 34.80742 44.10495 147.52392
#
# Poissons Ratio (x) = 0.79434 0.30496
# Poissons Ratio (y) = 0.62689 0.40424
# Poissons Ratio (z) = 0.07195 0.12086
#
# Static dielectric constant tensor:
#      x y z
#    x 1.787200 0.000000 0.000000 
#    y 0.000000 1.794280 0.000000 
#    z 0.000000 0.000000 1.982670 
# 
# From -- ./inp_files/24934.got.cif
#   From: 2010.05.17/outbox.cif.g08.bks.cpg/sg72_13_cif.got.tgz:24934.got - 2010.06.03 17:03:01.
