data_PCOD9526530
_publ_section_title
;
Structure prediction by ZEFSAII (Michael W. Deem and Ramdas Pophale) SiO2 
 PCOD9526530
Probable space group: I B A M
;
_chemical_formula_sum "Si O2"
_cell_formula_units_Z 120
_cell_length_a 29.576046
_cell_length_b 12.887694
_cell_length_c 15.356463
_cell_angle_alpha 90.000000
_cell_angle_beta 90.000000
_cell_angle_gamma 90.000000
_cell_volume 5853.377402
_symmetry_space_group_name_H-M "I B A M"
_symmetry_group_IT_number 72
_symmetry_cell_setting 'orthorhombic'
loop_
_space_group_symop_operation_xyz
x,y,z
-x,-y,z
x,-y,1/2-z
-x,y,1/2-z
-x,-y,-z
x,y,-z
-x,y,1/2+z
x,-y,1/2+z
1/2+x,1/2+y,1/2+z
1/2-x,1/2-y,1/2+z
1/2+x,1/2-y,-z
1/2-x,1/2+y,-z
1/2-x,1/2-y,1/2-z
1/2+x,1/2+y,1/2-z
1/2-x,1/2+y,z
1/2+x,1/2-y,z
loop_
_atom_site_type_symbol
_atom_site_label
_atom_site_fract_x
_atom_site_fract_y
_atom_site_fract_z
Si Si1 0.000000 0.633713 0.250000
Si Si2 0.049800 0.988987 0.598166
Si Si3 0.571082 0.264196 0.148137
Si Si4 0.432993 0.123107 0.901100
Si Si5 0.669405 0.940710 0.901642
Si Si6 0.609554 0.666964 0.832977
Si Si7 0.160611 0.678723 0.594775
Si Si8 0.197640 0.738749 0.774441
O O1 0.972187 0.702936 0.181441
O O2 0.963670 0.586170 0.319068
O O3 0.046127 0.030502 0.500000
O O4 0.060197 0.867425 0.595854
O O5 0.089500 0.055911 0.641607
O O6 0.000000 0.000000 0.640519
O O7 0.592953 0.307439 0.236537
O O8 0.606340 0.188228 0.101532
O O9 0.384873 0.066054 0.894529
O O10 0.416675 0.243424 0.888240
O O11 0.451370 0.109527 0.000000
O O12 0.690300 0.869122 0.826933
O O13 0.679150 0.062331 0.895139
O O14 0.681662 0.904813 0.000000
O O15 0.664130 0.684542 0.830541
O O16 0.174553 0.718695 0.500000
O O17 0.177273 0.739480 0.677856
O O18 0.250000 0.750000 0.750000
#
# Coordination Sequence:
#
# PCOD9526530 Si02
#       8
#     8  16  16  16  16  16  16  16
#     4  10  20  32  50  78 110 150 194 244 294 334
#     4  11  21  32  51  79 111 152 198 242 293 353
#     4  10  20  34  51  73 108 151 192 236 285 341
#     4   9  17  32  53  78 108 143 190 240 283 336
#     4   9  19  38  63  84 108 149 193 234 287 354
#     4   9  19  34  52  76 107 146 187 232 287 347
#     4  10  21  39  60  82 112 150 191 232 283 351
#     4  10  21  38  62  90 116 144 184 243 305 360
#
# _framework density 20.500985
#
# number of rings (size 3 to 8) (size 9 to 14) (size 15 to 20)
#    0.000    2.267    0.000    4.000    0.000    3.733 
#    0.000    6.667    0.000    5.600    0.000    0.000 
#    0.000    0.000    0.000    0.000    0.000    0.000 
#
# Total GULP energy -334024.800070 kJ/mol
# GULP energy per Si atom -5567.080001 kJ/mol
# Density = 2.045432 g / cm^3
# Si number density = 20.500985 Si / 1000 Ang^3
#
#
#
# Elastic Constant Matrix: (Units=GPa)
#
#
# Indices 1 2 3 4 5 6 
#
# 1 103.4793 20.5590 31.6558 0.0000 0.0000 0.0000
# 2 20.5590 44.1021 11.4697 0.0000 0.0000 0.0000
# 3 31.6558 11.4697 113.3794 0.0000 0.0000 0.0000
# 4 0.0000 0.0000 0.0000 -487.3044 0.0000 0.0000
# 5 0.0000 0.0000 0.0000 0.0000 13.5862 0.0000
# 6 0.0000 0.0000 0.0000 0.0000 0.0000 6.2308
#
#
#
# Elastic Compliance Matrix: (Units=1/GPa)
#
#
# Indices 1 2 3 4 5 6 
#
# 1 0.011412 -0.004613 -0.002720 0.000000 0.000000 0.000000
# 2 -0.004613 0.025152 -0.001257 0.000000 0.000000 0.000000
# 3 -0.002720 -0.001257 0.009706 0.000000 0.000000 0.000000
# 4 0.000000 0.000000 0.000000 -0.002052 0.000000 0.000000
# 5 0.000000 0.000000 0.000000 0.000000 0.073604 0.000000
# 6 0.000000 0.000000 0.000000 0.000000 0.000000 0.160493
#
#
# Mechanical properties :
#
#
# Convention : Reuss Voigt Hill
#
# Bulk Modulus (GPa) = 34.37308 43.14775 38.76042
# Shear Modulus (GPa) = 16.38320 -80.34573 -31.98127
#
# Velocity S-wave (km/s) = 2.82998 -6.26708 -3.95395
# Velocity P-wave (km/s) = 5.24226 5.59249 1.37743
#
# Compressibility (1/GPa) = 0.02909254
#
# Stress axis : x y z
#
# Youngs Moduli (GPa) = 87.62546 39.75865 103.02480
#
# Poissons Ratio (x) = 0.18339 0.28020
# Poissons Ratio (y) = 0.40419 0.12945
# Poissons Ratio (z) = 0.23831 0.04996
#
# Static dielectric constant tensor:
#      x y z
#    x 1.322550 0.000000 0.000000 
#    y 0.000000 1.831700 0.000000 
#    z 0.000000 0.000000 1.785960 
# 
# From -- ./inp_files/26542.got.cif
#   From: 2010.05.17/outbox.cif.g08.bks.cpg/sg72_14_cif.got.tgz:26542.got - 2010.06.03 17:03:01.
