data_PCOD9526545
_publ_section_title
;
Structure prediction by ZEFSAII (Michael W. Deem and Ramdas Pophale) SiO2 
 PCOD9526545
Probable space group: I B A M
;
_chemical_formula_sum "Si O2"
_cell_formula_units_Z 80
_cell_length_a 17.604148
_cell_length_b 10.027825
_cell_length_c 24.354667
_cell_angle_alpha 90.000000
_cell_angle_beta 90.000000
_cell_angle_gamma 90.000000
_cell_volume 4299.361402
_symmetry_space_group_name_H-M "I B A M"
_symmetry_group_IT_number 72
_symmetry_cell_setting 'orthorhombic'
loop_
_space_group_symop_operation_xyz
x,y,z
-x,-y,z
x,-y,1/2-z
-x,y,1/2-z
-x,-y,-z
x,y,-z
-x,y,1/2+z
x,-y,1/2+z
1/2+x,1/2+y,1/2+z
1/2-x,1/2-y,1/2+z
1/2+x,1/2-y,-z
1/2-x,1/2+y,-z
1/2-x,1/2-y,1/2-z
1/2+x,1/2+y,1/2-z
1/2-x,1/2+y,z
1/2+x,1/2-y,z
loop_
_atom_site_type_symbol
_atom_site_label
_atom_site_fract_x
_atom_site_fract_y
_atom_site_fract_z
Si Si1 0.211051 0.406057 0.000000
Si Si2 0.589990 0.991438 0.815199
Si Si3 0.834227 0.285450 0.390116
Si Si4 0.846395 0.255793 0.885507
Si Si5 0.669070 0.178601 0.500000
Si Si6 0.409994 0.483566 0.566991
O O1 0.165769 0.371697 0.945774
O O2 0.283738 0.313502 0.000000
O O3 0.229762 0.560502 0.000000
O O4 0.620310 0.849536 0.838326
O O5 0.500000 0.000000 0.826634
O O6 0.601715 0.000000 0.750000
O O7 0.632052 0.116941 0.844023
O O8 0.745523 0.246597 0.380304
O O9 0.880212 0.152466 0.405418
O O10 0.872137 0.104491 0.898029
O O11 0.872984 0.325897 0.942766
O O12 0.500000 0.500000 0.573453
O O13 0.397314 0.484627 0.500000
#
# Coordination Sequence:
#
# PCOD9526545 Si02
#       6
#     8  16  16  16   8  16
#     4  10  20  32  57  92 126 158 188 244 308 372
#     4  11  25  45  63  83 119 167 214 260 306 350
#     4  11  22  38  64  91 122 157 201 251 301 370
#     4  11  22  38  64  91 122 157 201 251 301 370
#     4  10  20  32  57  92 126 158 188 244 308 372
#     4  11  23  36  55  91 131 158 185 238 310 375
#
# _framework density 18.607415
#
# number of rings (size 3 to 8) (size 9 to 14) (size 15 to 20)
#    0.000    1.200    4.000    2.400    8.400    0.800 
#    0.000    2.000    0.000    3.600    0.000    0.000 
#    0.000    0.000    0.000    0.000    0.000    0.000 
#
# Total GULP energy -222937.270256 kJ/mol
# GULP energy per Si atom -5573.431756 kJ/mol
# Density = 1.856506 g / cm^3
# Si number density = 18.607415 Si / 1000 Ang^3
#
#
#
# Elastic Constant Matrix: (Units=GPa)
#
#
# Indices 1 2 3 4 5 6 
#
# 1 110.0955 49.0499 48.8217 0.0000 0.0000 0.0000
# 2 49.0499 117.4754 37.0960 0.0000 0.0000 0.0000
# 3 48.8217 37.0960 109.5365 0.0000 0.0000 0.0000
# 4 0.0000 0.0000 0.0000 39.3193 0.0000 0.0000
# 5 0.0000 0.0000 0.0000 0.0000 14.9173 0.0000
# 6 0.0000 0.0000 0.0000 0.0000 0.0000 27.5419
#
#
#
# Elastic Compliance Matrix: (Units=1/GPa)
#
#
# Indices 1 2 3 4 5 6 
#
# 1 0.012778 -0.003960 -0.004354 0.000000 0.000000 0.000000
# 2 -0.003960 0.010759 -0.001879 0.000000 0.000000 0.000000
# 3 -0.004354 -0.001879 0.011706 0.000000 0.000000 0.000000
# 4 0.000000 0.000000 0.000000 0.025433 0.000000 0.000000
# 5 0.000000 0.000000 0.000000 0.000000 0.067036 0.000000
# 6 0.000000 0.000000 0.000000 0.000000 0.000000 0.036308
#
#
# Mechanical properties :
#
#
# Convention : Reuss Voigt Hill
#
# Bulk Modulus (GPa) = 67.30606 67.44919 67.37763
# Shear Modulus (GPa) = 26.40473 29.83169 28.11821
#
# Velocity S-wave (km/s) = 3.77111 4.00836 3.89154
# Velocity P-wave (km/s) = 7.43047 7.59933 7.51537
#
# Compressibility (1/GPa) = 0.01485750
#
# Stress axis : x y z
#
# Youngs Moduli (GPa) = 78.25740 92.94336 85.42409
#
# Poissons Ratio (x) = 0.36810 0.37195
# Poissons Ratio (y) = 0.30993 0.16047
# Poissons Ratio (z) = 0.34075 0.17460
#
# Static dielectric constant tensor:
#      x y z
#    x 1.652420 0.000000 0.000000 
#    y 0.000000 1.670980 0.000000 
#    z 0.000000 0.000000 1.659280 
# 
# From -- ./inp_files/45208.got.cif
#   From: 2010.05.17/outbox.cif.g08.bks.cpg/sg72_23_cif.got.tgz:45208.got - 2010.06.03 17:03:01.
