data_PCOD9526976
_publ_section_title
;
Structure prediction by ZEFSAII (Michael W. Deem and Ramdas Pophale) SiO2 
 PCOD9526976
Probable space group: I B A M
;
_chemical_formula_sum "Si O2"
_cell_formula_units_Z 88
_cell_length_a 18.226538
_cell_length_b 14.179455
_cell_length_c 17.546583
_cell_angle_alpha 90.000000
_cell_angle_beta 90.000000
_cell_angle_gamma 90.000000
_cell_volume 4534.780590
_symmetry_space_group_name_H-M "I B A M"
_symmetry_group_IT_number 72
_symmetry_cell_setting 'orthorhombic'
loop_
_space_group_symop_operation_xyz
x,y,z
-x,-y,z
x,-y,1/2-z
-x,y,1/2-z
-x,-y,-z
x,y,-z
-x,y,1/2+z
x,-y,1/2+z
1/2+x,1/2+y,1/2+z
1/2-x,1/2-y,1/2+z
1/2+x,1/2-y,-z
1/2-x,1/2+y,-z
1/2-x,1/2-y,1/2-z
1/2+x,1/2+y,1/2-z
1/2-x,1/2+y,z
1/2+x,1/2-y,z
loop_
_atom_site_type_symbol
_atom_site_label
_atom_site_fract_x
_atom_site_fract_y
_atom_site_fract_z
Si Si1 0.151161 0.686655 0.205758
Si Si2 0.007547 0.609293 0.156930
Si Si3 0.576033 0.369776 0.000000
Si Si4 0.782777 0.140073 0.124932
Si Si5 0.871143 0.279385 0.381902
Si Si6 0.262760 0.000000 0.750000
Si Si7 0.902972 0.095255 0.000000
O O1 0.083499 0.664913 0.149853
O O2 0.203665 0.762689 0.169181
O O3 0.132563 0.728431 0.289510
O O4 0.187290 0.584784 0.218880
O O5 0.000000 0.500000 0.137368
O O6 0.000000 0.612474 0.250000
O O7 0.944510 0.659887 0.110024
O O8 0.613666 0.316307 0.927962
O O9 0.486285 0.363936 0.000000
O O10 0.591498 0.481264 0.000000
O O11 0.700697 0.160695 0.092961
O O12 0.851500 0.125747 0.070203
O O13 0.780320 0.051100 0.182118
#
# Coordination Sequence:
#
# PCOD9526976 Si02
#       7
#    16  16   8  16  16   8   8
#     4  10  20  35  62  95 124 156 201 250 316 372
#     4   9  16  31  56  87 122 151 187 245 307 369
#     4  11  25  44  61  76 122 173 209 261 304 371
#     4  11  23  39  63  94 122 161 208 261 310 377
#     4  10  20  37  62  88 117 158 200 249 318 365
#     4  10  20  36  63  99 130 156 204 258 314 377
#     4  11  27  44  60  84 121 170 221 250 312 366
#
# _framework density 19.405570999999998
#
# number of rings (size 3 to 8) (size 9 to 14) (size 15 to 20)
#    0.000    1.818    0.000    7.091    5.091    0.000 
#    0.000    0.455    0.000    0.000    0.000    0.000 
#    0.000    0.000    0.000    0.000    0.000    0.000 
#
# Total GULP energy -245079.386943 kJ/mol
# GULP energy per Si atom -5569.986067 kJ/mol
# Density = 1.936140 g / cm^3
# Si number density = 19.405571 Si / 1000 Ang^3
#
#
#
# Elastic Constant Matrix: (Units=GPa)
#
#
# Indices 1 2 3 4 5 6 
#
# 1 104.4705 31.8426 42.8830 0.0000 0.0000 0.0000
# 2 31.8426 116.2816 45.8746 0.0000 0.0000 0.0000
# 3 42.8830 45.8746 50.6339 0.0000 0.0000 0.0000
# 4 0.0000 0.0000 0.0000 947.3864 0.0000 0.0000
# 5 0.0000 0.0000 0.0000 0.0000 8.8081 0.0000
# 6 0.0000 0.0000 0.0000 0.0000 0.0000 35.3098
#
#
#
# Elastic Compliance Matrix: (Units=1/GPa)
#
#
# Indices 1 2 3 4 5 6 
#
# 1 0.014816 0.001390 -0.013807 0.000000 0.000000 0.000000
# 2 0.001390 0.013514 -0.013421 0.000000 0.000000 0.000000
# 3 -0.013807 -0.013421 0.043603 0.000000 0.000000 0.000000
# 4 0.000000 0.000000 0.000000 0.001056 0.000000 0.000000
# 5 0.000000 0.000000 0.000000 0.000000 0.113532 0.000000
# 6 0.000000 0.000000 0.000000 0.000000 0.000000 0.028321
#
#
# Mechanical properties :
#
#
# Convention : Reuss Voigt Hill
#
# Bulk Modulus (GPa) = 49.36761 56.95404 53.16082
# Shear Modulus (GPa) = 18.29695 208.35324 113.32509
#
# Velocity S-wave (km/s) = 3.07395 10.37308 7.65016
# Velocity P-wave (km/s) = 6.17204 13.14841 10.27071
#
# Compressibility (1/GPa) = 0.02025620
#
# Stress axis : x y z
#
# Youngs Moduli (GPa) = 67.49428 73.99797 22.93431
#
# Poissons Ratio (x) = -0.10285 0.31666
# Poissons Ratio (y) = -0.09381 0.30780
# Poissons Ratio (z) = 0.93192 0.99312
#
# Static dielectric constant tensor:
#      x y z
#    x 1.793570 0.000000 0.000000 
#    y 0.000000 1.652670 0.000000 
#    z 0.000000 0.000000 1.705830 
# 
# From -- ./inp_files/31514.got.cif
#   From: 2010.05.17/outbox.cif.g08.bks.cpg/sg72_16_cif.got.tgz:31514.got - 2010.06.03 17:03:01.
