data_PCOD9526044
_publ_section_title
;
Structure prediction by ZEFSAII (Michael W. Deem and Ramdas Pophale) SiO2 
 PCOD9526044
Probable space group: I B A M
;
_chemical_formula_sum "Si O2"
_cell_formula_units_Z 80
_cell_length_a 13.242424
_cell_length_b 11.063414
_cell_length_c 22.553592
_cell_angle_alpha 90.000000
_cell_angle_beta 90.000000
_cell_angle_gamma 90.000000
_cell_volume 3304.246001
_symmetry_space_group_name_H-M "I B A M"
_symmetry_group_IT_number 72
_symmetry_cell_setting 'orthorhombic'
loop_
_space_group_symop_operation_xyz
x,y,z
-x,-y,z
x,-y,1/2-z
-x,y,1/2-z
-x,-y,-z
x,y,-z
-x,y,1/2+z
x,-y,1/2+z
1/2+x,1/2+y,1/2+z
1/2-x,1/2-y,1/2+z
1/2+x,1/2-y,-z
1/2-x,1/2+y,-z
1/2-x,1/2-y,1/2-z
1/2+x,1/2+y,1/2-z
1/2-x,1/2+y,z
1/2+x,1/2-y,z
loop_
_atom_site_type_symbol
_atom_site_label
_atom_site_fract_x
_atom_site_fract_y
_atom_site_fract_z
Si Si1 0.769971 0.377356 0.070839
Si Si2 0.898795 0.077029 0.065192
Si Si3 0.444628 0.803151 0.352426
Si Si4 0.847045 0.868212 0.738902
Si Si5 0.175979 0.698260 0.344679
O O1 0.690984 0.485802 0.081162
O O2 0.867615 0.391811 0.113454
O O3 0.719276 0.250385 0.093305
O O4 0.790639 0.377384 0.000000
O O5 0.930602 0.183693 0.107809
O O6 0.876612 0.126638 0.000000
O O7 0.000000 0.000000 0.061785
O O8 0.408087 0.744291 0.290370
O O9 0.560508 0.842468 0.349818
O O10 0.821476 0.818428 0.803461
O O11 0.751491 0.883712 0.694443
O O12 0.892908 0.000000 0.750000
#
# Coordination Sequence:
#
# PCOD9526044 Si02
#       5
#    16  16  16  16  16
#     4  10  21  35  56  89 124 157 203 256 309 369
#     4  10  19  33  57  87 119 160 211 256 304 367
#     4  11  21  35  60  88 123 162 203 259 308 366
#     4  10  22  37  60  89 122 162 204 250 307 371
#     4  10  21  38  58  89 123 158 204 254 305 368
#
# _framework density 24.211272999999998
#
# number of rings (size 3 to 8) (size 9 to 14) (size 15 to 20)
#    0.000    1.800    2.000    2.400    0.000    1.600 
#    0.000    0.000    0.000   50.400    0.000   19.600 
#    0.000    0.000    0.000    0.000    0.000    0.000 
#
# Total GULP energy -223345.474604 kJ/mol
# GULP energy per Si atom -5583.636865 kJ/mol
# Density = 2.415617 g / cm^3
# Si number density = 24.211273 Si / 1000 Ang^3
#
#
#
# Elastic Constant Matrix: (Units=GPa)
#
#
# Indices 1 2 3 4 5 6 
#
# 1 204.2950 27.2336 40.7787 0.0000 0.0000 0.0000
# 2 27.2336 73.2148 20.8880 0.0000 0.0000 0.0000
# 3 40.7787 20.8880 131.5760 0.0000 0.0000 0.0000
# 4 0.0000 0.0000 0.0000 107.2058 0.0000 0.0000
# 5 0.0000 0.0000 0.0000 0.0000 46.1151 0.0000
# 6 0.0000 0.0000 0.0000 0.0000 0.0000 22.1278
#
#
#
# Elastic Compliance Matrix: (Units=1/GPa)
#
#
# Indices 1 2 3 4 5 6 
#
# 1 0.005391 -0.001601 -0.001417 0.000000 0.000000 0.000000
# 2 -0.001601 0.014782 -0.001850 0.000000 0.000000 0.000000
# 3 -0.001417 -0.001850 0.008333 0.000000 0.000000 0.000000
# 4 0.000000 0.000000 0.000000 0.009328 0.000000 0.000000
# 5 0.000000 0.000000 0.000000 0.000000 0.021685 0.000000
# 6 0.000000 0.000000 0.000000 0.000000 0.000000 0.045192
#
#
# Mechanical properties :
#
#
# Convention : Reuss Voigt Hill
#
# Bulk Modulus (GPa) = 53.27775 65.20960 59.24368
# Shear Modulus (GPa) = 41.42376 56.43545 48.92961
#
# Velocity S-wave (km/s) = 4.14082 4.83324 4.50037
# Velocity P-wave (km/s) = 6.70187 7.62489 7.17823
#
# Compressibility (1/GPa) = 0.01876956
#
# Stress axis : x y z
#
# Youngs Moduli (GPa) = 185.49099 67.65013 120.00504
#
# Poissons Ratio (x) = 0.10832 0.17001
# Poissons Ratio (y) = 0.29700 0.22206
# Poissons Ratio (z) = 0.26278 0.12518
#
# Static dielectric constant tensor:
#      x y z
#    x 2.023110 0.000000 0.000000 
#    y 0.000000 1.941070 0.000000 
#    z 0.000000 0.000000 2.072780 
# 
# From -- ./inp_files/43102.got.cif
#   From: 2010.05.17/outbox.cif.g08.bks.cpg/sg72_22_cif.got.tgz:43102.got - 2010.06.03 17:03:01.
