data_PCOD9526751
_publ_section_title
;
Structure prediction by ZEFSAII (Michael W. Deem and Ramdas Pophale) SiO2 
 PCOD9526751
Probable space group: I B A M
;
_chemical_formula_sum "Si O2"
_cell_formula_units_Z 112
_cell_length_a 15.264094
_cell_length_b 22.077070
_cell_length_c 14.751388
_cell_angle_alpha 90.000000
_cell_angle_beta 90.000000
_cell_angle_gamma 90.000000
_cell_volume 4971.018195
_symmetry_space_group_name_H-M "I B A M"
_symmetry_group_IT_number 72
_symmetry_cell_setting 'orthorhombic'
loop_
_space_group_symop_operation_xyz
x,y,z
-x,-y,z
x,-y,1/2-z
-x,y,1/2-z
-x,-y,-z
x,y,-z
-x,y,1/2+z
x,-y,1/2+z
1/2+x,1/2+y,1/2+z
1/2-x,1/2-y,1/2+z
1/2+x,1/2-y,-z
1/2-x,1/2+y,-z
1/2-x,1/2-y,1/2-z
1/2+x,1/2+y,1/2-z
1/2-x,1/2+y,z
1/2+x,1/2-y,z
loop_
_atom_site_type_symbol
_atom_site_label
_atom_site_fract_x
_atom_site_fract_y
_atom_site_fract_z
Si Si1 0.695349 0.223344 0.106487
Si Si2 0.903369 0.612359 0.646965
Si Si3 0.113178 0.245032 0.609747
Si Si4 0.724703 0.009405 0.641450
Si Si5 0.901523 0.402322 0.637131
Si Si6 0.562103 0.676903 0.388214
Si Si7 0.578671 0.459415 0.893029
O O1 0.793643 0.219742 0.143125
O O2 0.640507 0.162069 0.113723
O O3 0.638495 0.278406 0.144451
O O4 0.705815 0.236238 0.000000
O O5 0.893420 0.684211 0.635275
O O6 0.822080 0.572303 0.613128
O O7 0.905905 0.597302 0.753657
O O8 0.997611 0.593341 0.606709
O O9 0.110328 0.242693 0.500000
O O10 0.030360 0.205815 0.640578
O O11 0.826117 0.010450 0.615253
O O12 0.724488 0.000000 0.750000
O O13 0.663019 0.955386 0.605969
O O14 0.563313 0.677413 0.500000
O O15 0.577247 0.608749 0.355472
O O16 0.500000 0.500000 0.855518
O O17 0.561219 0.452337 0.000000
#
# Coordination Sequence:
#
# PCOD9526751 Si02
#       7
#    16  16  16  16  16  16  16
#     4  10  20  34  56  83 114 148 187 233 284 341
#     4  10  20  38  59  83 115 149 190 235 285 346
#     4  10  20  34  58  84 113 150 187 232 290 345
#     4  10  22  39  59  82 115 156 191 235 289 342
#     4  10  21  36  58  84 115 149 191 237 284 341
#     4   9  18  35  55  82 114 146 182 229 287 338
#     4  10  22  39  62  86 112 149 197 242 283 340
#
# _framework density 22.530597
#
# number of rings (size 3 to 8) (size 9 to 14) (size 15 to 20)
#    0.000    2.143    1.429    1.286    2.000    4.857 
#    0.000    0.000    3.143    2.571    0.000    0.000 
#    0.000    0.000    0.000    0.000    0.000    0.000 
#
# Total GULP energy -312955.982189 kJ/mol
# GULP energy per Si atom -5588.499682 kJ/mol
# Density = 2.247932 g / cm^3
# Si number density = 22.530597 Si / 1000 Ang^3
#
#
#
# Elastic Constant Matrix: (Units=GPa)
#
#
# Indices 1 2 3 4 5 6 
#
# 1 156.1095 36.7089 11.2491 0.0000 0.0000 0.0000
# 2 36.7089 87.8668 -3.7306 0.0000 0.0000 0.0001
# 3 11.2491 -3.7306 50.0049 0.0001 0.0000 0.0001
# 4 0.0000 0.0000 0.0001 21.2636 0.0000 0.0001
# 5 0.0000 0.0000 0.0000 0.0000 23.5819 0.0000
# 6 0.0000 0.0001 0.0001 0.0001 0.0000 -44.1894
#
#
#
# Elastic Compliance Matrix: (Units=1/GPa)
#
#
# Indices 1 2 3 4 5 6 
#
# 1 0.007274 -0.003118 -0.001869 0.000000 0.000000 0.000000
# 2 -0.003118 0.012754 0.001653 0.000000 0.000000 0.000000
# 3 -0.001869 0.001653 0.020542 0.000000 0.000000 0.000000
# 4 0.000000 0.000000 0.000000 0.047029 0.000000 0.000000
# 5 0.000000 0.000000 0.000000 0.000000 0.042405 0.000000
# 6 0.000000 0.000000 0.000000 0.000000 0.000000 -0.022630
#
#
# Mechanical properties :
#
#
# Convention : Reuss Voigt Hill
#
# Bulk Modulus (GPa) = 29.49765 42.49286 35.99525
# Shear Modulus (GPa) = 39.89086 16.78147 28.33616
#
# Velocity S-wave (km/s) = 4.21232 2.73212 3.55022
# Velocity P-wave (km/s) = 6.06456 5.37156 5.72855
#
# Compressibility (1/GPa) = 0.03390101
#
# Stress axis : x y z
#
# Youngs Moduli (GPa) = 137.48248 78.40842 48.68124
#
# Poissons Ratio (x) = 0.24449 0.09098
# Poissons Ratio (y) = 0.42869 -0.08047
# Poissons Ratio (z) = 0.25694 -0.12960
#
# Static dielectric constant tensor:
#      x y z
#    x 1.831620 0.000000 0.000000 
#    y 0.000000 1.789840 0.000000 
#    z 0.000000 0.000000 1.874740 
# 
# From -- ./inp_files/22101.got.cif
#   From: 2010.05.17/outbox.cif.g08.bks.cpg/sg72_12_cif.got.tgz:22101.got - 2010.06.03 17:03:01.
