data_PCOD9526735
_publ_section_title
;
Structure prediction by ZEFSAII (Michael W. Deem and Ramdas Pophale) SiO2 
 PCOD9526735
Probable space group: I B A M
;
_chemical_formula_sum "Si O2"
_cell_formula_units_Z 80
_cell_length_a 18.414711
_cell_length_b 13.577165
_cell_length_c 17.538686
_cell_angle_alpha 90.000000
_cell_angle_beta 90.000000
_cell_angle_gamma 90.000000
_cell_volume 4385.014726
_symmetry_space_group_name_H-M "I B A M"
_symmetry_group_IT_number 72
_symmetry_cell_setting 'orthorhombic'
loop_
_space_group_symop_operation_xyz
x,y,z
-x,-y,z
x,-y,1/2-z
-x,y,1/2-z
-x,-y,-z
x,y,-z
-x,y,1/2+z
x,-y,1/2+z
1/2+x,1/2+y,1/2+z
1/2-x,1/2-y,1/2+z
1/2+x,1/2-y,-z
1/2-x,1/2+y,-z
1/2-x,1/2-y,1/2-z
1/2+x,1/2+y,1/2-z
1/2-x,1/2+y,z
1/2+x,1/2-y,z
loop_
_atom_site_type_symbol
_atom_site_label
_atom_site_fract_x
_atom_site_fract_y
_atom_site_fract_z
Si Si1 0.530840 0.604375 0.836461
Si Si2 0.308238 0.392922 0.779690
Si Si3 0.568455 0.895265 0.792960
Si Si4 0.665964 0.208511 0.188268
Si Si5 0.522363 0.193353 0.910077
O O1 0.500000 0.500000 0.865699
O O2 0.500000 0.614823 0.750000
O O3 0.617502 0.599743 0.826938
O O4 0.506737 0.698796 0.884798
O O5 0.286919 0.500000 0.750000
O O6 0.323972 0.323143 0.706294
O O7 0.242423 0.343347 0.825872
O O8 0.500000 0.845100 0.750000
O O9 0.638418 0.834271 0.770416
O O10 0.537120 0.885808 0.877450
O O11 0.576194 0.000000 0.750000
O O12 0.602170 0.183379 0.129070
O O13 0.528444 0.185423 0.000000
#
# Coordination Sequence:
#
# PCOD9526735 Si02
#       5
#    16  16  16  16  16
#     4  11  18  35  61  88 118 150 200 246 287 358
#     4  11  19  32  60  89 110 147 200 248 291 335
#     4   9  17  34  57  79 108 149 195 246 277 341
#     4  10  20  34  55  83 116 149 200 246 288 344
#     4  11  21  36  56  85 123 157 192 245 313 360
#
# _framework density 18.243953000000001
#
# number of rings (size 3 to 8) (size 9 to 14) (size 15 to 20)
#    0.000    1.600    6.000    1.200    0.000    1.200 
#    0.000    9.000    0.000    1.200    0.000    0.000 
#    0.000    0.000    0.000    0.000    0.000    0.000 
#
# Total GULP energy -222786.680414 kJ/mol
# GULP energy per Si atom -5569.667010 kJ/mol
# Density = 1.820243 g / cm^3
# Si number density = 18.243953 Si / 1000 Ang^3
#
#
#
# Elastic Constant Matrix: (Units=GPa)
#
#
# Indices 1 2 3 4 5 6 
#
# 1 106.9364 33.7510 28.6101 0.0000 0.0000 0.0000
# 2 33.7510 125.1952 28.0863 0.0000 0.0000 0.0000
# 3 28.6101 28.0863 93.0845 0.0000 0.0000 0.0000
# 4 0.0000 0.0000 0.0000 13.4926 0.0000 0.0000
# 5 0.0000 0.0000 0.0000 0.0000 16.4748 0.0000
# 6 0.0000 0.0000 0.0000 0.0000 0.0000 24.8749
#
#
#
# Elastic Compliance Matrix: (Units=1/GPa)
#
#
# Indices 1 2 3 4 5 6 
#
# 1 0.010783 -0.002321 -0.002614 0.000000 0.000000 0.000000
# 2 -0.002321 0.009067 -0.002022 0.000000 0.000000 0.000000
# 3 -0.002614 -0.002022 0.012157 0.000000 0.000000 0.000000
# 4 0.000000 0.000000 0.000000 0.074115 0.000000 0.000000
# 5 0.000000 0.000000 0.000000 0.000000 0.060699 0.000000
# 6 0.000000 0.000000 0.000000 0.000000 0.000000 0.040201
#
#
# Mechanical properties :
#
#
# Convention : Reuss Voigt Hill
#
# Bulk Modulus (GPa) = 55.27201 56.23456 55.75329
# Shear Modulus (GPa) = 22.02972 26.61972 24.32472
#
# Velocity S-wave (km/s) = 3.47869 3.82396 3.65540
# Velocity P-wave (km/s) = 6.81886 7.09841 6.96004
#
# Compressibility (1/GPa) = 0.01809234
#
# Stress axis : x y z
#
# Youngs Moduli (GPa) = 92.73738 110.29195 82.25966
#
# Poissons Ratio (x) = 0.25594 0.21503
# Poissons Ratio (y) = 0.21520 0.16637
# Poissons Ratio (z) = 0.24242 0.22307
#
# Static dielectric constant tensor:
#      x y z
#    x 1.661410 0.000000 0.000000 
#    y 0.000000 1.705610 0.000000 
#    z 0.000000 0.000000 1.662220 
# 
# From -- ./inp_files/31383.got.cif
#   From: 2010.05.17/outbox.cif.g08.bks.cpg/sg72_16_cif.got.tgz:31383.got - 2010.06.03 17:03:01.
