data_PCOD9526262
_publ_section_title
;
Structure prediction by ZEFSAII (Michael W. Deem and Ramdas Pophale) SiO2 
 PCOD9526262
Probable space group: I B A M
;
_chemical_formula_sum "Si O2"
_cell_formula_units_Z 112
_cell_length_a 28.800216
_cell_length_b 13.967018
_cell_length_c 14.495239
_cell_angle_alpha 90.000000
_cell_angle_beta 90.000000
_cell_angle_gamma 90.000000
_cell_volume 5830.755334
_symmetry_space_group_name_H-M "I B A M"
_symmetry_group_IT_number 72
_symmetry_cell_setting 'orthorhombic'
loop_
_space_group_symop_operation_xyz
x,y,z
-x,-y,z
x,-y,1/2-z
-x,y,1/2-z
-x,-y,-z
x,y,-z
-x,y,1/2+z
x,-y,1/2+z
1/2+x,1/2+y,1/2+z
1/2-x,1/2-y,1/2+z
1/2+x,1/2-y,-z
1/2-x,1/2+y,-z
1/2-x,1/2-y,1/2-z
1/2+x,1/2+y,1/2-z
1/2-x,1/2+y,z
1/2+x,1/2-y,z
loop_
_atom_site_type_symbol
_atom_site_label
_atom_site_fract_x
_atom_site_fract_y
_atom_site_fract_z
Si Si1 0.451401 0.960648 0.852875
Si Si2 0.121699 0.606181 0.108034
Si Si3 0.394057 0.606821 0.761774
Si Si4 0.214368 0.720350 0.886683
Si Si5 0.213901 0.110568 0.238367
Si Si6 0.042797 0.235671 0.110187
Si Si7 0.937246 0.220220 0.109320
O O1 0.451932 0.847041 0.864094
O O2 0.500000 0.000000 0.897578
O O3 0.453817 0.000000 0.750000
O O4 0.400462 0.001132 0.881586
O O5 0.168936 0.656010 0.144245
O O6 0.078587 0.673354 0.136308
O O7 0.128290 0.617704 0.000000
O O8 0.412428 0.500000 0.750000
O O9 0.340257 0.604914 0.787273
O O10 0.421989 0.670235 0.834144
O O11 0.401893 0.653324 0.662031
O O12 0.215627 0.822044 0.830954
O O13 0.257346 0.662067 0.842735
O O14 0.215696 0.730006 0.000000
O O15 0.230169 0.000000 0.250000
O O16 0.990363 0.204955 0.135186
O O17 0.048264 0.226423 0.000000
O O18 0.933286 0.209737 0.000000
#
# Coordination Sequence:
#
# PCOD9526262 Si02
#       7
#    16  16  16  16  16  16  16
#     4  11  22  33  57  90 127 173 208 246 310 373
#     4  10  19  35  58  85 118 160 204 245 298 366
#     4  11  24  42  64  87 120 165 213 266 319 370
#     4  10  22  42  67  95 126 161 208 261 314 378
#     4  10  23  43  68  93 122 163 209 263 322 374
#     4  11  24  39  59  92 134 170 211 261 309 368
#     4  10  20  36  61  88 122 165 211 257 302 364
#
# _framework density 19.208490000000001
#
# number of rings (size 3 to 8) (size 9 to 14) (size 15 to 20)
#    0.000    1.571    2.857    1.714    2.000    4.000 
#    2.571    4.286    0.000    0.000    0.000    0.000 
#    0.000    0.000    0.000    0.000    0.000    0.000 
#
# Total GULP energy -311874.429951 kJ/mol
# GULP energy per Si atom -5569.186249 kJ/mol
# Density = 1.916477 g / cm^3
# Si number density = 19.208490 Si / 1000 Ang^3
#
#
#
# Elastic Constant Matrix: (Units=GPa)
#
#
# Indices 1 2 3 4 5 6 
#
# 1 84.7896 38.0523 35.9719 0.0000 0.0000 0.0000
# 2 38.0523 105.0162 25.8214 0.0000 0.0000 0.0000
# 3 35.9719 25.8214 79.5341 0.0000 0.0000 0.0000
# 4 0.0000 0.0000 0.0000 -3.1000 0.0000 0.0000
# 5 0.0000 0.0000 0.0000 0.0000 -24.5524 0.0000
# 6 0.0000 0.0000 0.0000 0.0000 0.0000 26.9272
#
#
#
# Elastic Compliance Matrix: (Units=1/GPa)
#
#
# Indices 1 2 3 4 5 6 
#
# 1 0.016307 -0.004451 -0.005931 0.000000 0.000000 0.000000
# 2 -0.004451 0.011563 -0.001741 0.000000 0.000000 0.000000
# 3 -0.005931 -0.001741 0.015821 0.000000 0.000000 0.000000
# 4 0.000000 0.000000 0.000000 -0.322579 0.000000 0.000000
# 5 0.000000 0.000000 0.000000 0.000000 -0.040729 0.000000
# 6 0.000000 0.000000 0.000000 0.000000 0.000000 0.037137
#
#
# Mechanical properties :
#
#
# Convention : Reuss Voigt Hill
#
# Bulk Modulus (GPa) = 51.42307 52.11457 51.76882
# Shear Modulus (GPa) = -19.86080 11.15455 -4.35312
#
# Velocity S-wave (km/s) = -3.21901 2.41241 -1.50704
# Velocity P-wave (km/s) = 3.60736 5.91181 4.89707
#
# Compressibility (1/GPa) = 0.01944652
#
# Stress axis : x y z
#
# Youngs Moduli (GPa) = 61.32202 86.48165 63.20795
#
# Poissons Ratio (x) = 0.38490 0.37486
# Poissons Ratio (y) = 0.27293 0.11005
# Poissons Ratio (z) = 0.36368 0.15057
#
# Static dielectric constant tensor:
#      x y z
#    x 1.714610 0.000000 0.000000 
#    y 0.000000 1.814560 0.000000 
#    z 0.000000 0.000000 1.695680 
# 
# From -- ./inp_files/26333.got.cif
#   From: 2010.05.17/outbox.cif.g08.bks.cpg/sg72_14_cif.got.tgz:26333.got - 2010.06.03 17:03:01.
