data_PCOD9526090
_publ_section_title
;
Structure prediction by ZEFSAII (Michael W. Deem and Ramdas Pophale) SiO2 
 PCOD9526090
Probable space group: I B A M
;
_chemical_formula_sum "Si O2"
_cell_formula_units_Z 116
_cell_length_a 22.808529
_cell_length_b 27.723303
_cell_length_c 9.558068
_cell_angle_alpha 90.000000
_cell_angle_beta 90.000000
_cell_angle_gamma 90.000000
_cell_volume 6043.831733
_symmetry_space_group_name_H-M "I B A M"
_symmetry_group_IT_number 72
_symmetry_cell_setting 'orthorhombic'
loop_
_space_group_symop_operation_xyz
x,y,z
-x,-y,z
x,-y,1/2-z
-x,y,1/2-z
-x,-y,-z
x,y,-z
-x,y,1/2+z
x,-y,1/2+z
1/2+x,1/2+y,1/2+z
1/2-x,1/2-y,1/2+z
1/2+x,1/2-y,-z
1/2-x,1/2+y,-z
1/2-x,1/2-y,1/2-z
1/2+x,1/2+y,1/2-z
1/2-x,1/2+y,z
1/2+x,1/2-y,z
loop_
_atom_site_type_symbol
_atom_site_label
_atom_site_fract_x
_atom_site_fract_y
_atom_site_fract_z
Si Si1 0.228925 0.546019 0.662105
Si Si2 0.872468 0.667708 0.664985
Si Si3 0.000000 0.500000 0.250000
Si Si4 0.611756 0.652941 0.339427
Si Si5 0.242794 0.136157 0.838210
Si Si6 0.405652 0.077772 0.343012
Si Si7 0.558179 0.737025 0.833026
Si Si8 0.437833 0.453256 0.668726
O O1 0.246421 0.500000 0.750000
O O2 0.243046 0.540811 0.500000
O O3 0.257882 0.592333 0.731052
O O4 0.158387 0.553528 0.675460
O O5 0.881024 0.660324 0.500000
O O6 0.802838 0.664252 0.693009
O O7 0.905740 0.623667 0.740897
O O8 0.896027 0.720408 0.699753
O O9 0.955593 0.537280 0.174453
O O10 0.593233 0.664003 0.500000
O O11 0.681149 0.662846 0.327892
O O12 0.578818 0.686142 0.229327
O O13 0.598637 0.596186 0.317422
O O14 0.247447 0.118615 0.000000
O O15 0.408783 0.097033 0.500000
O O16 0.500000 0.750586 0.750000
O O17 0.549788 0.734480 0.000000
O O18 0.412020 0.500000 0.750000
O O19 0.500000 0.445649 0.750000
O O20 0.444973 0.461961 0.500000
#
# Coordination Sequence:
#
# PCOD9526090 Si02
#       8
#    16  16   4  16  16  16  16  16
#     4  10  19  34  53  77 109 149 194 239 290 346
#     4   9  21  41  62  84 115 153 195 244 295 351
#     4  12  22  36  52  86 118 152 200 250 302 352
#     4  10  22  39  61  90 121 153 191 237 290 350
#     4   9  19  38  60  83 114 151 190 238 295 351
#     4  10  22  36  54  80 112 151 195 243 296 352
#     4  11  24  41  62  89 118 154 196 240 293 347
#     4  10  20  35  56  84 117 153 190 229 279 336
#
# _framework density 19.193123
#
# number of rings (size 3 to 8) (size 9 to 14) (size 15 to 20)
#    0.000    2.069    0.690    2.276    0.966    6.621 
#    0.000    1.379    0.000    0.000    0.000    0.000 
#    0.000    0.000    0.000    0.000    0.000    0.000 
#
# Total GULP energy -323494.524565 kJ/mol
# GULP energy per Si atom -5577.491803 kJ/mol
# Density = 1.914944 g / cm^3
# Si number density = 19.193123 Si / 1000 Ang^3
#
#
#
# Elastic Constant Matrix: (Units=GPa)
#
#
# Indices 1 2 3 4 5 6 
#
# 1 50.3087 18.1539 25.9530 0.0000 0.0000 0.0000
# 2 18.1539 86.6285 46.0935 0.0000 0.0000 0.0000
# 3 25.9530 46.0935 85.4879 0.0000 0.0000 0.0000
# 4 0.0000 0.0000 0.0000 25.0671 0.0000 0.0000
# 5 0.0000 0.0000 0.0000 0.0000 18.0917 0.0000
# 6 0.0000 0.0000 0.0000 0.0000 0.0000 9.9128
#
#
#
# Elastic Compliance Matrix: (Units=1/GPa)
#
#
# Indices 1 2 3 4 5 6 
#
# 1 0.023725 -0.001598 -0.006341 0.000000 0.000000 0.000000
# 2 -0.001598 0.016295 -0.008301 0.000000 0.000000 0.000000
# 3 -0.006341 -0.008301 0.018098 0.000000 0.000000 0.000000
# 4 0.000000 0.000000 0.000000 0.039893 0.000000 0.000000
# 5 0.000000 0.000000 0.000000 0.000000 0.055274 0.000000
# 6 0.000000 0.000000 0.000000 0.000000 0.000000 0.100880
#
#
# Mechanical properties :
#
#
# Convention : Reuss Voigt Hill
#
# Bulk Modulus (GPa) = 39.00337 44.75841 41.88089
# Shear Modulus (GPa) = 16.93813 19.42928 18.18371
#
# Velocity S-wave (km/s) = 2.97393 3.18512 3.08134
# Velocity P-wave (km/s) = 5.67080 6.07432 5.87603
#
# Compressibility (1/GPa) = 0.02563881
#
# Stress axis : x y z
#
# Youngs Moduli (GPa) = 42.14946 61.36771 55.25353
#
# Poissons Ratio (x) = 0.09806 0.35037
# Poissons Ratio (y) = 0.06735 0.45866
# Poissons Ratio (z) = 0.26727 0.50941
#
# Static dielectric constant tensor:
#      x y z
#    x 1.696400 0.000000 0.000000 
#    y 0.000000 1.653010 0.000000 
#    z 0.000000 0.000000 1.651350 
# 
# From -- ./inp_files/7369.got.cif
#   From: 2010.05.17/outbox.cif.g08.bks.cpg/sg72_4_cif.got.tgz:7369.got - 2010.06.03 17:03:01.
