data_PCOD9526921
_publ_section_title
;
Structure prediction by ZEFSAII (Michael W. Deem and Ramdas Pophale) SiO2 
 PCOD9526921
Probable space group: I B A M
;
_chemical_formula_sum "Si O2"
_cell_formula_units_Z 116
_cell_length_a 12.136806
_cell_length_b 31.296820
_cell_length_c 17.765240
_cell_angle_alpha 90.000000
_cell_angle_beta 90.000000
_cell_angle_gamma 90.000000
_cell_volume 6748.009745
_symmetry_space_group_name_H-M "I B A M"
_symmetry_group_IT_number 72
_symmetry_cell_setting 'orthorhombic'
loop_
_space_group_symop_operation_xyz
x,y,z
-x,-y,z
x,-y,1/2-z
-x,y,1/2-z
-x,-y,-z
x,y,-z
-x,y,1/2+z
x,-y,1/2+z
1/2+x,1/2+y,1/2+z
1/2-x,1/2-y,1/2+z
1/2+x,1/2-y,-z
1/2-x,1/2+y,-z
1/2-x,1/2-y,1/2-z
1/2+x,1/2+y,1/2-z
1/2-x,1/2+y,z
1/2+x,1/2-y,z
loop_
_atom_site_type_symbol
_atom_site_label
_atom_site_fract_x
_atom_site_fract_y
_atom_site_fract_z
Si Si1 0.470863 0.314084 0.661951
Si Si2 0.730550 0.631705 0.702340
Si Si3 0.973021 0.356747 0.161094
Si Si4 0.093240 0.724730 0.589234
Si Si5 0.500000 0.500000 0.750000
Si Si6 0.345274 0.087696 0.585083
Si Si7 0.714499 0.542477 0.787440
Si Si8 0.785272 0.168971 0.868220
O O1 0.500000 0.306962 0.750000
O O2 0.376549 0.350087 0.660689
O O3 0.430869 0.270122 0.626043
O O4 0.584619 0.327975 0.623390
O O5 0.842154 0.637712 0.655793
O O6 0.718439 0.583201 0.731829
O O7 0.739662 0.659015 0.780155
O O8 0.000000 0.357259 0.250000
O O9 0.017473 0.312578 0.125594
O O10 0.041902 0.394850 0.122120
O O11 0.075925 0.725628 0.500000
O O12 0.218513 0.710569 0.607111
O O13 0.585443 0.529279 0.797189
O O14 0.361723 0.073181 0.500000
O O15 0.281789 0.054821 0.638698
O O16 0.267181 0.129641 0.586984
O O17 0.764101 0.500000 0.750000
#
# Coordination Sequence:
#
# PCOD9526921 Si02
#       8
#    16  16  16  16   4  16  16  16
#     4  10  23  34  56  80 110 148 198 252 293 346
#     4  10  20  35  58  87 111 146 200 247 298 342
#     4  11  18  36  59  83 111 152 203 245 287 353
#     4  11  23  36  51  75 111 156 198 246 302 350
#     4   8  20  32  66  90 120 148 194 240 290 336
#     4  10  20  36  60  89 119 156 190 239 303 359
#     4   9  19  35  63  93 117 150 193 244 293 365
#     4   9  19  34  54  77 108 143 190 244 287 350
#
# _framework density 17.190252999999998
#
# number of rings (size 3 to 8) (size 9 to 14) (size 15 to 20)
#    0.414    1.655    4.138    2.069    6.759    2.207 
#    0.000    2.414    0.000    3.310    0.000    0.000 
#    0.000    0.000    0.000    0.000    0.000    0.000 
#
# Total GULP energy -323194.422746 kJ/mol
# GULP energy per Si atom -5572.317634 kJ/mol
# Density = 1.715113 g / cm^3
# Si number density = 17.190253 Si / 1000 Ang^3
#
#
#
# Elastic Constant Matrix: (Units=GPa)
#
#
# Indices 1 2 3 4 5 6 
#
# 1 144.8557 54.5527 57.0119 0.0000 0.0000 0.0000
# 2 54.5527 84.1506 46.4514 0.0000 0.0000 0.0001
# 3 57.0119 46.4514 75.3705 -0.0002 0.0001 0.0008
# 4 0.0000 0.0000 -0.0002 6.0103 0.0000 0.0001
# 5 0.0000 0.0000 0.0001 0.0000 8.2144 0.0001
# 6 0.0000 0.0001 0.0008 0.0001 0.0001 2.4127
#
#
#
# Elastic Compliance Matrix: (Units=1/GPa)
#
#
# Indices 1 2 3 4 5 6 
#
# 1 0.010533 -0.003683 -0.005697 0.000000 0.000000 0.000002
# 2 -0.003683 0.019299 -0.009108 0.000000 0.000000 0.000002
# 3 -0.005697 -0.009108 0.023191 0.000001 0.000000 -0.000007
# 4 0.000000 0.000000 0.000001 0.166381 0.000000 -0.000009
# 5 0.000000 0.000000 0.000000 0.000000 0.121738 -0.000006
# 6 0.000002 0.000002 -0.000007 -0.000009 -0.000006 0.414472
#
#
# Mechanical properties :
#
#
# Convention : Reuss Voigt Hill
#
# Bulk Modulus (GPa) = 62.32315 68.93431 65.62873
# Shear Modulus (GPa) = 6.26615 13.08486 9.67550
#
# Velocity S-wave (km/s) = 1.91131 2.76194 2.37502
# Velocity P-wave (km/s) = 6.41907 7.09640 6.76622
#
# Compressibility (1/GPa) = 0.01604540
#
# Stress axis : x y z
#
# Youngs Moduli (GPa) = 94.94100 51.81668 43.12099
#
# Poissons Ratio (x) = 0.19086 0.24567
# Poissons Ratio (y) = 0.34969 0.39274
# Poissons Ratio (z) = 0.54090 0.47194
#
# Static dielectric constant tensor:
#      x y z
#    x 1.608920 0.000000 0.000000 
#    y 0.000000 1.573340 0.000000 
#    z 0.000000 0.000000 1.586980 
# 
# From -- ./inp_files/29780.got.cif
#   From: 2010.05.17/outbox.cif.g08.bks.cpg/sg72_15_cif.got.tgz:29780.got - 2010.06.03 17:03:01.
