data_PCOD9526272
_publ_section_title
;
Structure prediction by ZEFSAII (Michael W. Deem and Ramdas Pophale) SiO2 
 PCOD9526272
Probable space group: I B A M
;
_chemical_formula_sum "Si O2"
_cell_formula_units_Z 64
_cell_length_a 21.231796
_cell_length_b 9.077836
_cell_length_c 14.646511
_cell_angle_alpha 90.000000
_cell_angle_beta 90.000000
_cell_angle_gamma 90.000000
_cell_volume 2822.950399
_symmetry_space_group_name_H-M "I B A M"
_symmetry_group_IT_number 72
_symmetry_cell_setting 'orthorhombic'
loop_
_space_group_symop_operation_xyz
x,y,z
-x,-y,z
x,-y,1/2-z
-x,y,1/2-z
-x,-y,-z
x,y,-z
-x,y,1/2+z
x,-y,1/2+z
1/2+x,1/2+y,1/2+z
1/2-x,1/2-y,1/2+z
1/2+x,1/2-y,-z
1/2-x,1/2+y,-z
1/2-x,1/2-y,1/2-z
1/2+x,1/2+y,1/2-z
1/2-x,1/2+y,z
1/2+x,1/2-y,z
loop_
_atom_site_type_symbol
_atom_site_label
_atom_site_fract_x
_atom_site_fract_y
_atom_site_fract_z
Si Si1 0.192952 0.923567 0.105232
Si Si2 0.938202 0.407178 0.610743
Si Si3 0.936434 0.931805 0.850554
Si Si4 0.316022 0.906635 0.612061
O O1 0.181867 0.761694 0.146375
O O2 0.128831 0.015843 0.106006
O O3 0.251491 0.015960 0.142570
O O4 0.210654 0.896353 0.000000
O O5 0.937130 0.391116 0.500000
O O6 0.940439 0.243593 0.650224
O O7 0.876263 0.497185 0.638753
O O8 0.000000 0.500000 0.634728
O O9 0.933699 0.000000 0.750000
O O10 0.000000 0.000000 0.893669
O O11 0.317786 0.902541 0.500000
#
# Coordination Sequence:
#
# PCOD9526272 Si02
#       4
#    16  16  16  16
#     4  10  19  35  59  84 114 151 192 238 288 344
#     4  10  20  37  63  91 116 147 194 246 291 340
#     4  11  24  40  55  80 117 154 192 236 291 351
#     4   9  18  33  57  89 116 142 184 241 295 336
#
# _framework density 22.671316000000001
#
# number of rings (size 3 to 8) (size 9 to 14) (size 15 to 20)
#    0.000    2.000    0.000    3.750    0.000    8.000 
#    0.000   13.750    0.000    0.000    0.000    0.000 
#    0.000    0.000    0.000    0.000    0.000    0.000 
#
# Total GULP energy -178983.007075 kJ/mol
# GULP energy per Si atom -5593.218971 kJ/mol
# Density = 2.261971 g / cm^3
# Si number density = 22.671316 Si / 1000 Ang^3
#
#
#
# Elastic Constant Matrix: (Units=GPa)
#
#
# Indices 1 2 3 4 5 6 
#
# 1 210.9840 116.7138 -4.4330 0.0000 0.0000 0.0000
# 2 116.7138 256.9857 11.0561 0.0000 0.0000 0.0000
# 3 -4.4330 11.0561 60.8262 0.0000 0.0000 0.0000
# 4 0.0000 0.0000 0.0000 13.4286 0.0000 0.0000
# 5 0.0000 0.0000 0.0000 0.0000 37.7716 0.0000
# 6 0.0000 0.0000 0.0000 0.0000 0.0000 41.4029
#
#
#
# Elastic Compliance Matrix: (Units=1/GPa)
#
#
# Indices 1 2 3 4 5 6 
#
# 1 0.006390 -0.002945 0.001001 0.000000 0.000000 0.000000
# 2 -0.002945 0.005279 -0.001174 0.000000 0.000000 0.000000
# 3 0.001001 -0.001174 0.016727 0.000000 0.000000 0.000000
# 4 0.000000 0.000000 0.000000 0.074468 0.000000 0.000000
# 5 0.000000 0.000000 0.000000 0.000000 0.026475 0.000000
# 6 0.000000 0.000000 0.000000 0.000000 0.000000 0.024153
#
#
# Mechanical properties :
#
#
# Convention : Reuss Voigt Hill
#
# Bulk Modulus (GPa) = 45.12793 86.16332 65.64562
# Shear Modulus (GPa) = 29.91949 45.55120 37.73535
#
# Velocity S-wave (km/s) = 3.63672 4.48727 4.08420
# Velocity P-wave (km/s) = 6.13048 8.05825 7.15955
#
# Compressibility (1/GPa) = 0.02215923
#
# Stress axis : x y z
#
# Youngs Moduli (GPa) = 156.49567 189.41646 59.78477
#
# Poissons Ratio (x) = 0.55786 -0.05985
# Poissons Ratio (y) = 0.46090 0.07020
# Poissons Ratio (z) = -0.15666 0.22242
#
# Static dielectric constant tensor:
#      x y z
#    x 1.813940 0.000000 0.000000 
#    y 0.000000 1.784440 0.000000 
#    z 0.000000 0.000000 1.980610 
# 
# From -- ./inp_files/27636.got.cif
#   From: 2010.05.17/outbox.cif.g08.bks.cpg/sg72_14_cif.got.tgz:27636.got - 2010.06.03 17:03:01.
