data_PCOD9526929
_publ_section_title
;
Structure prediction by ZEFSAII (Michael W. Deem and Ramdas Pophale) SiO2 
 PCOD9526929
Probable space group: I B A M
;
_chemical_formula_sum "Si O2"
_cell_formula_units_Z 80
_cell_length_a 24.503803
_cell_length_b 9.418179
_cell_length_c 18.300175
_cell_angle_alpha 90.000000
_cell_angle_beta 90.000000
_cell_angle_gamma 90.000000
_cell_volume 4223.336399
_symmetry_space_group_name_H-M "I B A M"
_symmetry_group_IT_number 72
_symmetry_cell_setting 'orthorhombic'
loop_
_space_group_symop_operation_xyz
x,y,z
-x,-y,z
x,-y,1/2-z
-x,y,1/2-z
-x,-y,-z
x,y,-z
-x,y,1/2+z
x,-y,1/2+z
1/2+x,1/2+y,1/2+z
1/2-x,1/2-y,1/2+z
1/2+x,1/2-y,-z
1/2-x,1/2+y,-z
1/2-x,1/2-y,1/2-z
1/2+x,1/2+y,1/2-z
1/2-x,1/2+y,z
1/2+x,1/2-y,z
loop_
_atom_site_type_symbol
_atom_site_label
_atom_site_fract_x
_atom_site_fract_y
_atom_site_fract_z
Si Si1 0.055947 0.085973 0.581352
Si Si2 0.868010 0.815293 0.082178
Si Si3 0.942784 0.417748 0.647083
Si Si4 0.589754 0.197977 0.299849
Si Si5 0.195618 0.165718 0.769794
O O1 0.060041 0.151113 0.500000
O O2 0.058374 0.199655 0.645148
O O3 0.103224 0.968861 0.589384
O O4 0.000000 0.000000 0.585131
O O5 0.915822 0.696904 0.093693
O O6 0.823612 0.807965 0.146454
O O7 0.846251 0.800779 0.000000
O O8 0.942883 0.338378 0.725578
O O9 0.901277 0.548382 0.659889
O O10 0.000000 0.500000 0.631026
O O11 0.645413 0.272131 0.276905
O O12 0.250000 0.250000 0.750000
O O13 0.201685 0.000000 0.750000
#
# Coordination Sequence:
#
# PCOD9526929 Si02
#       5
#    16  16  16  16  16
#     4  10  20  35  58  89 126 164 199 245 308 373
#     4  10  22  41  62  92 130 160 202 256 310 370
#     4  10  21  35  57  91 128 169 205 243 291 366
#     4  10  20  37  56  85 122 158 211 259 295 363
#     4  11  24  42  66  88 115 158 208 267 319 366
#
# _framework density 18.942368999999999
#
# number of rings (size 3 to 8) (size 9 to 14) (size 15 to 20)
#    0.000    1.800    2.000    2.400    5.600    2.800 
#    0.000    4.000    0.000    1.800    0.000    0.000 
#    0.000    0.000    0.000    0.000    0.000    0.000 
#
# Total GULP energy -223201.812574 kJ/mol
# GULP energy per Si atom -5580.045314 kJ/mol
# Density = 1.889926 g / cm^3
# Si number density = 18.942369 Si / 1000 Ang^3
#
#
#
# Elastic Constant Matrix: (Units=GPa)
#
#
# Indices 1 2 3 4 5 6 
#
# 1 98.0027 38.4854 44.1523 0.0000 0.0000 0.0000
# 2 38.4854 113.6840 55.2435 0.0000 0.0000 0.0000
# 3 44.1523 55.2435 125.8095 0.0000 0.0000 0.0000
# 4 0.0000 0.0000 0.0000 9.4367 0.0000 0.0000
# 5 0.0000 0.0000 0.0000 0.0000 18.4690 0.0000
# 6 0.0000 0.0000 0.0000 0.0000 0.0000 31.7779
#
#
#
# Elastic Compliance Matrix: (Units=1/GPa)
#
#
# Indices 1 2 3 4 5 6 
#
# 1 0.012750 -0.002723 -0.003279 0.000000 0.000000 0.000000
# 2 -0.002723 0.011764 -0.004210 0.000000 0.000000 0.000000
# 3 -0.003279 -0.004210 0.010948 0.000000 0.000000 0.000000
# 4 0.000000 0.000000 0.000000 0.105969 0.000000 0.000000
# 5 0.000000 0.000000 0.000000 0.000000 0.054145 0.000000
# 6 0.000000 0.000000 0.000000 0.000000 0.000000 0.031468
#
#
# Mechanical properties :
#
#
# Convention : Reuss Voigt Hill
#
# Bulk Modulus (GPa) = 66.49707 68.13986 67.31847
# Shear Modulus (GPa) = 19.80344 25.24438 22.52391
#
# Velocity S-wave (km/s) = 3.23686 3.65457 3.45204
# Velocity P-wave (km/s) = 7.01077 7.33881 7.17666
#
# Compressibility (1/GPa) = 0.01503826
#
# Stress axis : x y z
#
# Youngs Moduli (GPa) = 78.42908 85.00573 91.34175
#
# Poissons Ratio (x) = 0.23147 0.29951
# Poissons Ratio (y) = 0.21356 0.38455
# Poissons Ratio (z) = 0.25717 0.35787
#
# Static dielectric constant tensor:
#      x y z
#    x 1.652680 0.000000 0.000000 
#    y 0.000000 1.674170 0.000000 
#    z 0.000000 0.000000 1.673780 
# 
# From -- ./inp_files/33774.got.cif
#   From: 2010.05.17/outbox.cif.g08.bks.cpg/sg72_17_cif.got.tgz:33774.got - 2010.06.03 17:03:01.
