data_PCOD9526385
_publ_section_title
;
Structure prediction by ZEFSAII (Michael W. Deem and Ramdas Pophale) SiO2 
 PCOD9526385
Probable space group: I B A M
;
_chemical_formula_sum "Si O2"
_cell_formula_units_Z 116
_cell_length_a 22.735998
_cell_length_b 12.774472
_cell_length_c 18.721004
_cell_angle_alpha 90.000000
_cell_angle_beta 90.000000
_cell_angle_gamma 90.000000
_cell_volume 5437.335326
_symmetry_space_group_name_H-M "I B A M"
_symmetry_group_IT_number 72
_symmetry_cell_setting 'orthorhombic'
loop_
_space_group_symop_operation_xyz
x,y,z
-x,-y,z
x,-y,1/2-z
-x,y,1/2-z
-x,-y,-z
x,y,-z
-x,y,1/2+z
x,-y,1/2+z
1/2+x,1/2+y,1/2+z
1/2-x,1/2-y,1/2+z
1/2+x,1/2-y,-z
1/2-x,1/2+y,-z
1/2-x,1/2-y,1/2-z
1/2+x,1/2+y,1/2-z
1/2-x,1/2+y,z
1/2+x,1/2-y,z
loop_
_atom_site_type_symbol
_atom_site_label
_atom_site_fract_x
_atom_site_fract_y
_atom_site_fract_z
Si Si1 0.477693 0.383625 0.414514
Si Si2 0.500000 0.000000 0.250000
Si Si3 0.486983 0.839340 0.624989
Si Si4 0.159556 0.840846 0.420050
Si Si5 0.362150 0.115775 0.924116
Si Si6 0.833804 0.330953 0.237375
Si Si7 0.797715 0.890398 0.776605
Si Si8 0.120427 0.613364 0.383860
O O1 0.500000 0.500000 0.396802
O O2 0.489314 0.364839 0.500000
O O3 0.505536 0.287075 0.369725
O O4 0.407150 0.379325 0.405683
O O5 0.474008 0.913843 0.306423
O O6 0.431779 0.860593 0.575494
O O7 0.551502 0.874325 0.598299
O O8 0.175933 0.868017 0.500000
O O9 0.202931 0.887900 0.362043
O O10 0.154759 0.715632 0.410226
O O11 0.342960 0.158107 0.846848
O O12 0.354812 0.991420 0.916892
O O13 0.336579 0.153656 0.000000
O O14 0.836985 0.207947 0.254405
O O15 0.767546 0.370407 0.253023
O O16 0.873457 0.387934 0.297153
O O17 0.820918 0.000000 0.750000
#
# Coordination Sequence:
#
# PCOD9526385 Si02
#       8
#    16   4  16  16  16  16  16  16
#     4   9  19  38  59  82 117 158 196 242 297 355
#     4  12  20  36  52  80 112 160 198 238 284 344
#     4  11  22  35  56  85 119 157 201 237 294 353
#     4   9  19  35  60  89 113 149 199 246 292 351
#     4  12  23  34  55  89 125 154 188 241 302 356
#     4  10  23  40  60  84 111 149 196 242 294 352
#     4  10  21  41  63  82 110 150 194 242 296 356
#     4  10  19  37  60  82 116 156 199 238 286 354
#
# _framework density 21.333978999999999
#
# number of rings (size 3 to 8) (size 9 to 14) (size 15 to 20)
#    0.000    1.793    1.379    2.897    0.000    3.862 
#    0.000    2.414    0.000    0.828    0.000    0.000 
#    0.000    0.000    0.000    0.000    0.000    0.000 
#
# Total GULP energy -323507.332412 kJ/mol
# GULP energy per Si atom -5577.712628 kJ/mol
# Density = 2.128542 g / cm^3
# Si number density = 21.333979 Si / 1000 Ang^3
#
#
#
# Elastic Constant Matrix: (Units=GPa)
#
#
# Indices 1 2 3 4 5 6 
#
# 1 23.6631 1.9024 5.3368 0.0000 0.0000 0.0000
# 2 1.9024 122.8963 31.7589 0.0000 0.0000 0.0000
# 3 5.3368 31.7589 104.5985 0.0000 0.0000 0.0000
# 4 0.0000 0.0000 0.0000 18.4994 0.0000 0.0000
# 5 0.0000 0.0000 0.0000 0.0000 20.2169 0.0000
# 6 0.0000 0.0000 0.0000 0.0000 0.0000 8.6186
#
#
#
# Elastic Compliance Matrix: (Units=1/GPa)
#
#
# Indices 1 2 3 4 5 6 
#
# 1 0.042753 -0.000106 -0.002149 0.000000 0.000000 0.000000
# 2 -0.000106 0.008830 -0.002676 0.000000 0.000000 0.000000
# 3 -0.002149 -0.002676 0.010482 0.000000 0.000000 0.000000
# 4 0.000000 0.000000 0.000000 0.054056 0.000000 0.000000
# 5 0.000000 0.000000 0.000000 0.000000 0.049464 0.000000
# 6 0.000000 0.000000 0.000000 0.000000 0.000000 0.116028
#
#
# Mechanical properties :
#
#
# Convention : Reuss Voigt Hill
#
# Bulk Modulus (GPa) = 19.15588 36.57270 27.86429
# Shear Modulus (GPa) = 16.18774 23.61097 19.89935
#
# Velocity S-wave (km/s) = 2.75758 3.33037 3.05742
# Velocity P-wave (km/s) = 4.37465 5.65408 5.05500
#
# Compressibility (1/GPa) = 0.05220328
#
# Stress axis : x y z
#
# Youngs Moduli (GPa) = 23.39015 113.25006 95.39802
#
# Poissons Ratio (x) = 0.01206 0.20501
# Poissons Ratio (y) = 0.00249 0.25525
# Poissons Ratio (z) = 0.05027 0.30301
#
# Static dielectric constant tensor:
#      x y z
#    x 1.788650 0.000000 0.000000 
#    y 0.000000 1.765600 0.000000 
#    z 0.000000 0.000000 1.829850 
# 
# From -- ./inp_files/33983.got.cif
#   From: 2010.05.17/outbox.cif.g08.bks.cpg/sg72_17_cif.got.tgz:33983.got - 2010.06.03 17:03:01.
