data_PCOD9526285
_publ_section_title
;
Structure prediction by ZEFSAII (Michael W. Deem and Ramdas Pophale) SiO2 
 PCOD9526285
Probable space group: I B A M
;
_chemical_formula_sum "Si O2"
_cell_formula_units_Z 60
_cell_length_a 23.691816
_cell_length_b 5.067797
_cell_length_c 23.510717
_cell_angle_alpha 90.000000
_cell_angle_beta 90.000000
_cell_angle_gamma 90.000000
_cell_volume 2822.821620
_symmetry_space_group_name_H-M "I B A M"
_symmetry_group_IT_number 72
_symmetry_cell_setting 'orthorhombic'
loop_
_space_group_symop_operation_xyz
x,y,z
-x,-y,z
x,-y,1/2-z
-x,y,1/2-z
-x,-y,-z
x,y,-z
-x,y,1/2+z
x,-y,1/2+z
1/2+x,1/2+y,1/2+z
1/2-x,1/2-y,1/2+z
1/2+x,1/2-y,-z
1/2-x,1/2+y,-z
1/2-x,1/2-y,1/2-z
1/2+x,1/2+y,1/2-z
1/2-x,1/2+y,z
1/2+x,1/2-y,z
loop_
_atom_site_type_symbol
_atom_site_label
_atom_site_fract_x
_atom_site_fract_y
_atom_site_fract_z
Si Si1 0.500000 0.000000 0.250000
Si Si2 0.168941 0.107948 0.687751
Si Si3 0.443878 0.364636 0.657472
Si Si4 0.164358 0.618408 0.620202
Si Si5 0.214677 0.425913 0.000000
O O1 0.536146 0.814359 0.290684
O O2 0.100814 0.077266 0.681229
O O3 0.190810 0.896787 0.640988
O O4 0.184954 0.000000 0.750000
O O5 0.179663 0.404831 0.668592
O O6 0.500000 0.500000 0.632765
O O7 0.402770 0.183872 0.619374
O O8 0.182491 0.523552 0.558685
O O9 0.232143 0.120208 0.000000
#
# Coordination Sequence:
#
# PCOD9526285 Si02
#       5
#     4  16  16  16   8
#     4  12  18  32  56 104 136 194 204 238 290 414
#     4  10  19  35  60  95 136 171 201 251 321 396
#     4  10  20  30  56  94 140 173 211 243 301 385
#     4  10  23  38  63  97 126 169 222 273 323 379
#     4  12  26  50  77  89 113 166 241 294 330 386
#
# _framework density 21.255327999999999
#
# number of rings (size 3 to 8) (size 9 to 14) (size 15 to 20)
#    1.600    0.000    0.000    7.600    0.000    0.000 
#    0.000    0.667    0.000   18.400    0.000    0.000 
#    0.000    0.000    0.000    0.000    0.000    0.000 
#
# Total GULP energy -167307.438186 kJ/mol
# GULP energy per Si atom -5576.914606 kJ/mol
# Density = 2.120695 g / cm^3
# Si number density = 21.255328 Si / 1000 Ang^3
#
#
#
# Elastic Constant Matrix: (Units=GPa)
#
#
# Indices 1 2 3 4 5 6 
#
# 1 82.0796 1.6278 23.8825 0.0000 0.0000 0.0000
# 2 1.6278 87.0801 6.4802 0.0000 0.0000 0.0000
# 3 23.8825 6.4802 105.1024 0.0000 0.0000 0.0000
# 4 0.0000 0.0000 0.0000 25.4249 0.0000 0.0000
# 5 0.0000 0.0000 0.0000 0.0000 31.9059 0.0000
# 6 0.0000 0.0000 0.0000 0.0000 0.0000 9.1164
#
#
#
# Elastic Compliance Matrix: (Units=1/GPa)
#
#
# Indices 1 2 3 4 5 6 
#
# 1 0.013046 -0.000023 -0.002963 0.000000 0.000000 0.000000
# 2 -0.000023 0.011537 -0.000706 0.000000 0.000000 0.000000
# 3 -0.002963 -0.000706 0.010231 0.000000 0.000000 0.000000
# 4 0.000000 0.000000 0.000000 0.039331 0.000000 0.000000
# 5 0.000000 0.000000 0.000000 0.000000 0.031342 0.000000
# 6 0.000000 0.000000 0.000000 0.000000 0.000000 0.109693
#
#
# Mechanical properties :
#
#
# Convention : Reuss Voigt Hill
#
# Bulk Modulus (GPa) = 36.45752 37.58255 37.02004
# Shear Modulus (GPa) = 21.57886 29.44088 25.50987
#
# Velocity S-wave (km/s) = 3.18971 3.72574 3.46810
# Velocity P-wave (km/s) = 5.54573 6.01897 5.78719
#
# Compressibility (1/GPa) = 0.02742918
#
# Stress axis : x y z
#
# Youngs Moduli (GPa) = 76.65247 86.68028 97.73894
#
# Poissons Ratio (x) = 0.00203 0.28960
# Poissons Ratio (y) = 0.00179 0.06900
# Poissons Ratio (z) = 0.22712 0.06120
#
# Static dielectric constant tensor:
#      x y z
#    x 1.842360 0.000000 0.000000 
#    y 0.000000 1.791130 0.000000 
#    z 0.000000 0.000000 1.706610 
# 
# From -- ./inp_files/40965.got.cif
#   From: 2010.05.17/outbox.cif.g08.bks.cpg/sg72_21_cif.got.tgz:40965.got - 2010.06.03 17:03:01.
