data_PCOD9526083
_publ_section_title
;
Structure prediction by ZEFSAII (Michael W. Deem and Ramdas Pophale) SiO2 
 PCOD9526083
Probable space group: I B A M
;
_chemical_formula_sum "Si O2"
_cell_formula_units_Z 96
_cell_length_a 33.858313
_cell_length_b 5.056792
_cell_length_c 31.887713
_cell_angle_alpha 90.000000
_cell_angle_beta 90.000000
_cell_angle_gamma 90.000000
_cell_volume 5459.637125
_symmetry_space_group_name_H-M "I B A M"
_symmetry_group_IT_number 72
_symmetry_cell_setting 'orthorhombic'
loop_
_space_group_symop_operation_xyz
x,y,z
-x,-y,z
x,-y,1/2-z
-x,y,1/2-z
-x,-y,-z
x,y,-z
-x,y,1/2+z
x,-y,1/2+z
1/2+x,1/2+y,1/2+z
1/2-x,1/2-y,1/2+z
1/2+x,1/2-y,-z
1/2-x,1/2+y,-z
1/2-x,1/2-y,1/2-z
1/2+x,1/2+y,1/2-z
1/2-x,1/2+y,z
1/2+x,1/2-y,z
loop_
_atom_site_type_symbol
_atom_site_label
_atom_site_fract_x
_atom_site_fract_y
_atom_site_fract_z
Si Si1 0.723750 0.874774 0.413188
Si Si2 0.177076 0.378656 0.000000
Si Si3 0.101560 0.997748 0.591049
Si Si4 0.143952 0.496609 0.373481
Si Si5 0.454208 0.567518 0.666701
Si Si6 0.878437 0.120811 0.000000
Si Si7 0.087980 0.432642 0.798161
O O1 0.759401 0.081107 0.409414
O O2 0.689496 0.938187 0.379960
O O3 0.703389 0.912400 0.458607
O O4 0.141876 0.592645 0.000000
O O5 0.157597 0.089423 0.000000
O O6 0.119031 0.705949 0.598394
O O7 0.062938 0.033892 0.619662
O O8 0.133282 0.205197 0.610113
O O9 0.097576 0.066625 0.542428
O O10 0.126743 0.532072 0.326922
O O11 0.500000 0.500000 0.669185
O O12 0.443631 0.859117 0.682859
O O13 0.429406 0.358745 0.694512
O O14 0.094715 0.500000 0.750000
#
# Coordination Sequence:
#
# PCOD9526083 Si02
#       7
#    16   8  16  16  16   8  16
#     4  12  22  34  50  75 108 138 168 215 269 309
#     4  12  22  33  50  76 107 133 174 227 255 302
#     4  10  19  34  53  73 101 144 180 209 249 302
#     4  10  20  37  52  73 104 138 176 211 255 313
#     4  10  21  35  54  82 114 136 164 212 265 311
#     4  12  18  33  55  72 100 141 186 217 242 296
#     4  10  21  36  59  82 103 136 173 211 258 315
#
# _framework density 17.583586
#
# number of rings (size 3 to 8) (size 9 to 14) (size 15 to 20)
#    0.000    1.333    3.333    3.500    0.000    2.000 
#    0.000    0.417    0.000    1.000    0.000    8.167 
#    0.000    0.000    0.000    0.000    0.000    0.000 
#
# Total GULP energy -268170.305672 kJ/mol
# GULP energy per Si atom -5586.881368 kJ/mol
# Density = 1.754357 g / cm^3
# Si number density = 17.583586 Si / 1000 Ang^3
#
#
#
# Elastic Constant Matrix: (Units=GPa)
#
#
# Indices 1 2 3 4 5 6 
#
# 1 48.7250 -11.7891 33.4330 0.0000 0.0000 0.0000
# 2 -11.7891 49.5873 -18.9393 0.0000 0.0000 0.0000
# 3 33.4330 -18.9393 101.9198 0.0000 0.0000 0.0000
# 4 0.0000 0.0000 0.0000 16.3118 0.0000 0.0000
# 5 0.0000 0.0000 0.0000 0.0000 7.5476 0.0000
# 6 0.0000 0.0000 0.0000 0.0000 0.0000 18.0315
#
#
#
# Elastic Compliance Matrix: (Units=1/GPa)
#
#
# Indices 1 2 3 4 5 6 
#
# 1 0.026967 0.003264 -0.008239 0.000000 0.000000 0.000000
# 2 0.003264 0.022102 0.003036 0.000000 0.000000 0.000000
# 3 -0.008239 0.003036 0.013079 0.000000 0.000000 0.000000
# 4 0.000000 0.000000 0.000000 0.061305 0.000000 0.000000
# 5 0.000000 0.000000 0.000000 0.000000 0.132492 0.000000
# 6 0.000000 0.000000 0.000000 0.000000 0.000000 0.055458
#
#
# Mechanical properties :
#
#
# Convention : Reuss Voigt Hill
#
# Bulk Modulus (GPa) = 17.16149 22.84903 20.00526
# Shear Modulus (GPa) = 14.93856 21.54669 18.24263
#
# Velocity S-wave (km/s) = 2.91791 3.50435 3.22449
# Velocity P-wave (km/s) = 4.59711 5.42187 5.02643
#
# Compressibility (1/GPa) = 0.05826999
#
# Stress axis : x y z
#
# Youngs Moduli (GPa) = 37.08287 45.24438 76.46049
#
# Poissons Ratio (x) = -0.14769 0.62998
# Poissons Ratio (y) = -0.12105 -0.23216
# Poissons Ratio (z) = 0.30554 -0.13738
#
# Static dielectric constant tensor:
#      x y z
#    x 1.570220 0.000000 0.000000 
#    y 0.000000 1.597580 0.000000 
#    z 0.000000 0.000000 1.598660 
# 
# From -- ./inp_files/52566.got.cif
#   From: 2010.05.17/outbox.cif.g08.bks.cpg/sg72_27_cif.got.tgz:52566.got - 2010.06.03 17:03:01.
