data_PCOD9526576
_publ_section_title
;
Structure prediction by ZEFSAII (Michael W. Deem and Ramdas Pophale) SiO2 
 PCOD9526576
Probable space group: I B A M
;
_chemical_formula_sum "Si O2"
_cell_formula_units_Z 80
_cell_length_a 18.941063
_cell_length_b 27.074542
_cell_length_c 8.807277
_cell_angle_alpha 90.000000
_cell_angle_beta 90.000000
_cell_angle_gamma 90.000000
_cell_volume 4516.553126
_symmetry_space_group_name_H-M "I B A M"
_symmetry_group_IT_number 72
_symmetry_cell_setting 'orthorhombic'
loop_
_space_group_symop_operation_xyz
x,y,z
-x,-y,z
x,-y,1/2-z
-x,y,1/2-z
-x,-y,-z
x,y,-z
-x,y,1/2+z
x,-y,1/2+z
1/2+x,1/2+y,1/2+z
1/2-x,1/2-y,1/2+z
1/2+x,1/2-y,-z
1/2-x,1/2+y,-z
1/2-x,1/2-y,1/2-z
1/2+x,1/2+y,1/2-z
1/2-x,1/2+y,z
1/2+x,1/2-y,z
loop_
_atom_site_type_symbol
_atom_site_label
_atom_site_fract_x
_atom_site_fract_y
_atom_site_fract_z
Si Si1 0.787286 0.702508 0.320123
Si Si2 0.076153 0.655066 0.318621
Si Si3 0.852397 0.551446 0.818167
Si Si4 0.213651 0.097619 0.819560
Si Si5 0.074097 0.055016 0.318209
O O1 0.796109 0.708777 0.500000
O O2 0.750000 0.750000 0.250000
O O3 0.862701 0.690270 0.245706
O O4 0.739600 0.653669 0.295030
O O5 0.074351 0.658805 0.500000
O O6 0.099395 0.598776 0.278887
O O7 0.000000 0.665924 0.250000
O O8 0.878845 0.500000 0.750000
O O9 0.775474 0.563270 0.748347
O O10 0.847249 0.548151 0.000000
O O11 0.140475 0.086513 0.737151
O O12 0.207189 0.088757 0.000000
O O13 0.070384 0.052519 0.500000
O O14 0.000000 0.073792 0.250000
O O15 0.083695 0.000000 0.250000
#
# Coordination Sequence:
#
# PCOD9526576 Si02
#       5
#    16  16  16  16  16
#     4  10  21  38  61  84 108 138 176 221 269 320
#     4  10  21  37  57  81 111 144 180 220 266 316
#     4  10  20  33  51  77 108 144 182 220 260 309
#     4  10  20  35  54  77 105 138 176 219 265 316
#     4  11  21  34  52  75 106 142 178 218 263 315
#
# _framework density 17.712620999999999
#
# number of rings (size 3 to 8) (size 9 to 14) (size 15 to 20)
#    0.000    1.800    0.000    5.400    0.000    5.200 
#    0.000    3.000    0.000    4.800    0.000    0.000 
#    0.000    0.000    0.000    0.000    0.000    0.000 
#
# Total GULP energy -223482.172204 kJ/mol
# GULP energy per Si atom -5587.054305 kJ/mol
# Density = 1.767231 g / cm^3
# Si number density = 17.712621 Si / 1000 Ang^3
#
#
#
# Elastic Constant Matrix: (Units=GPa)
#
#
# Indices 1 2 3 4 5 6 
#
# 1 158.0844 54.0803 73.0314 0.0000 0.0000 0.0000
# 2 54.0803 89.3676 51.5793 0.0000 0.0000 0.0000
# 3 73.0314 51.5793 107.6067 0.0000 0.0000 0.0000
# 4 0.0000 0.0000 0.0000 29.6220 0.0000 0.0000
# 5 0.0000 0.0000 0.0000 0.0000 31.3524 0.0000
# 6 0.0000 0.0000 0.0000 0.0000 0.0000 9.5736
#
#
#
# Elastic Compliance Matrix: (Units=1/GPa)
#
#
# Indices 1 2 3 4 5 6 
#
# 1 0.009719 -0.002868 -0.005222 0.000000 0.000000 0.000000
# 2 -0.002868 0.016315 -0.005874 0.000000 0.000000 0.000000
# 3 -0.005222 -0.005874 0.015653 0.000000 0.000000 0.000000
# 4 0.000000 0.000000 0.000000 0.033759 0.000000 0.000000
# 5 0.000000 0.000000 0.000000 0.000000 0.031895 0.000000
# 6 0.000000 0.000000 0.000000 0.000000 0.000000 0.104454
#
#
# Mechanical properties :
#
#
# Convention : Reuss Voigt Hill
#
# Bulk Modulus (GPa) = 72.67423 79.16011 75.91717
# Shear Modulus (GPa) = 20.46588 25.86746 23.16667
#
# Velocity S-wave (km/s) = 3.40287 3.82566 3.62044
# Velocity P-wave (km/s) = 7.52051 8.01889 7.77369
#
# Compressibility (1/GPa) = 0.01376003
#
# Stress axis : x y z
#
# Youngs Moduli (GPa) = 102.89083 61.29144 63.88693
#
# Poissons Ratio (x) = 0.17577 0.33359
# Poissons Ratio (y) = 0.29506 0.37529
# Poissons Ratio (z) = 0.53726 0.36004
#
# Static dielectric constant tensor:
#      x y z
#    x 1.586460 0.000000 0.000000 
#    y 0.000000 1.594220 0.000000 
#    z 0.000000 0.000000 1.587590 
# 
# From -- ./inp_files/4791.got.cif
#   From: 2010.05.17/outbox.cif.g08.bks.cpg/sg72_3_cif.got.tgz:4791.got - 2010.06.03 17:03:01.
