data_PCOD9526167
_publ_section_title
;
Structure prediction by ZEFSAII (Michael W. Deem and Ramdas Pophale) SiO2 
 PCOD9526167
Probable space group: I B A M
;
_chemical_formula_sum "Si O2"
_cell_formula_units_Z 112
_cell_length_a 27.440871
_cell_length_b 11.749789
_cell_length_c 14.682770
_cell_angle_alpha 90.000000
_cell_angle_beta 90.000000
_cell_angle_gamma 90.000000
_cell_volume 4734.083957
_symmetry_space_group_name_H-M "I B A M"
_symmetry_group_IT_number 72
_symmetry_cell_setting 'orthorhombic'
loop_
_space_group_symop_operation_xyz
x,y,z
-x,-y,z
x,-y,1/2-z
-x,y,1/2-z
-x,-y,-z
x,y,-z
-x,y,1/2+z
x,-y,1/2+z
1/2+x,1/2+y,1/2+z
1/2-x,1/2-y,1/2+z
1/2+x,1/2-y,-z
1/2-x,1/2+y,-z
1/2-x,1/2-y,1/2-z
1/2+x,1/2+y,1/2-z
1/2-x,1/2+y,z
1/2+x,1/2-y,z
loop_
_atom_site_type_symbol
_atom_site_label
_atom_site_fract_x
_atom_site_fract_y
_atom_site_fract_z
Si Si1 0.566446 0.785690 0.110499
Si Si2 0.628065 0.580675 0.661666
Si Si3 0.788912 0.921021 0.597313
Si Si4 0.922309 0.454615 0.607474
Si Si5 0.463364 0.715474 0.890349
Si Si6 0.184125 0.533866 0.895422
Si Si7 0.665109 0.754320 0.782992
O O1 0.519724 0.711695 0.138311
O O2 0.615098 0.741769 0.158159
O O3 0.560350 0.919598 0.138059
O O4 0.571446 0.782732 0.000000
O O5 0.624187 0.500000 0.750000
O O6 0.667268 0.512607 0.601921
O O7 0.574018 0.614505 0.630834
O O8 0.652364 0.702935 0.685687
O O9 0.792405 0.860518 0.500000
O O10 0.795767 0.832678 0.677317
O O11 0.736202 0.976102 0.604649
O O12 0.934150 0.453254 0.500000
O O13 0.943898 0.338117 0.646146
O O14 0.863849 0.456866 0.617116
O O15 0.464052 0.722933 0.000000
O O16 0.182281 0.622401 0.812553
O O17 0.177700 0.582282 0.000000
#
# Coordination Sequence:
#
# PCOD9526167 Si02
#       7
#    16  16  16  16  16  16  16
#     4   9  17  32  57  85 111 143 179 217 270 331
#     4  10  23  39  53  75 108 147 186 228 274 319
#     4  10  20  36  57  79 104 138 184 231 270 317
#     4   8  15  30  54  87 117 135 166 218 269 322
#     4  10  19  34  58  84 110 142 183 230 275 318
#     4   9  18  33  57  85 108 138 179 219 264 320
#     4  10  20  37  55  75 111 148 176 215 275 339
#
# _framework density 23.658221000000001
#
# number of rings (size 3 to 8) (size 9 to 14) (size 15 to 20)
#    0.000    2.571    0.000    3.000    0.000    4.000 
#    0.000   13.571    0.000   11.143    0.000    0.000 
#    0.000    0.000    0.000    0.000    0.000    0.000 
#
# Total GULP energy -312732.548753 kJ/mol
# GULP energy per Si atom -5584.509799 kJ/mol
# Density = 2.360437 g / cm^3
# Si number density = 23.658221 Si / 1000 Ang^3
#
#
#
# Elastic Constant Matrix: (Units=GPa)
#
#
# Indices 1 2 3 4 5 6 
#
# 1 112.6941 4.6843 -0.4040 0.0000 0.0000 0.0000
# 2 4.6843 42.0735 2.0506 0.0000 0.0000 0.0000
# 3 -0.4040 2.0506 32.3586 0.0000 0.0000 0.0000
# 4 0.0000 0.0000 0.0000 20.6809 0.0000 0.0000
# 5 0.0000 0.0000 0.0000 0.0000 15.7890 0.0000
# 6 0.0000 0.0000 0.0000 0.0000 0.0000 16.3473
#
#
#
# Elastic Compliance Matrix: (Units=1/GPa)
#
#
# Indices 1 2 3 4 5 6 
#
# 1 0.008916 -0.001001 0.000175 0.000000 0.000000 0.000000
# 2 -0.001001 0.023954 -0.001531 0.000000 0.000000 0.000000
# 3 0.000175 -0.001531 0.031003 0.000000 0.000000 0.000000
# 4 0.000000 0.000000 0.000000 0.048354 0.000000 0.000000
# 5 0.000000 0.000000 0.000000 0.000000 0.063335 0.000000
# 6 0.000000 0.000000 0.000000 0.000000 0.000000 0.061172
#
#
# Mechanical properties :
#
#
# Convention : Reuss Voigt Hill
#
# Bulk Modulus (GPa) = 16.90366 22.19869 19.55117
# Shear Modulus (GPa) = 19.14482 22.61645 20.88064
#
# Velocity S-wave (km/s) = 2.84777 3.09522 2.97407
# Velocity P-wave (km/s) = 4.23952 4.70928 4.48056
#
# Compressibility (1/GPa) = 0.05915879
#
# Stress axis : x y z
#
# Youngs Moduli (GPa) = 112.16017 41.74667 32.25510
#
# Poissons Ratio (x) = 0.04180 -0.00564
# Poissons Ratio (y) = 0.11229 0.04937
# Poissons Ratio (z) = -0.01960 0.06389
#
# Static dielectric constant tensor:
#      x y z
#    x 1.876550 0.000000 0.000000 
#    y 0.000000 1.920300 0.000000 
#    z 0.000000 0.000000 1.935860 
# 
# From -- ./inp_files/26362.got.cif
#   From: 2010.05.17/outbox.cif.g08.bks.cpg/sg72_14_cif.got.tgz:26362.got - 2010.06.03 17:03:01.
