data_PCOD9526434
_publ_section_title
;
Structure prediction by ZEFSAII (Michael W. Deem and Ramdas Pophale) SiO2 
 PCOD9526434
Probable space group: I B A M
;
_chemical_formula_sum "Si O2"
_cell_formula_units_Z 96
_cell_length_a 16.206045
_cell_length_b 15.061108
_cell_length_c 19.887886
_cell_angle_alpha 90.000000
_cell_angle_beta 90.000000
_cell_angle_gamma 90.000000
_cell_volume 4854.254983
_symmetry_space_group_name_H-M "I B A M"
_symmetry_group_IT_number 72
_symmetry_cell_setting 'orthorhombic'
loop_
_space_group_symop_operation_xyz
x,y,z
-x,-y,z
x,-y,1/2-z
-x,y,1/2-z
-x,-y,-z
x,y,-z
-x,y,1/2+z
x,-y,1/2+z
1/2+x,1/2+y,1/2+z
1/2-x,1/2-y,1/2+z
1/2+x,1/2-y,-z
1/2-x,1/2+y,-z
1/2-x,1/2-y,1/2-z
1/2+x,1/2+y,1/2-z
1/2-x,1/2+y,z
1/2+x,1/2-y,z
loop_
_atom_site_type_symbol
_atom_site_label
_atom_site_fract_x
_atom_site_fract_y
_atom_site_fract_z
Si Si1 0.656540 0.406639 0.762965
Si Si2 0.593042 0.220925 0.243119
Si Si3 0.239085 0.438799 0.393881
Si Si4 0.154687 0.264836 0.396216
Si Si5 0.052673 0.849779 0.000000
Si Si6 0.219511 0.631312 0.642842
Si Si7 0.381489 0.446963 0.500000
O O1 0.612332 0.500000 0.750000
O O2 0.599360 0.323818 0.779755
O O3 0.728017 0.416372 0.818884
O O4 0.705373 0.388509 0.694182
O O5 0.500000 0.189795 0.250000
O O6 0.630602 0.221564 0.318072
O O7 0.645476 0.165612 0.189298
O O8 0.175766 0.364459 0.419030
O O9 0.203473 0.538569 0.394035
O O10 0.322412 0.435473 0.436563
O O11 0.086540 0.208104 0.436762
O O12 0.240448 0.209181 0.401617
O O13 0.956060 0.875987 0.000000
O O14 0.090726 0.949478 0.000000
#
# Coordination Sequence:
#
# PCOD9526434 Si02
#       7
#    16  16  16  16   8  16   8
#     4   9  18  33  58  87 118 160 204 257 317 382
#     4  11  22  36  59  95 130 161 203 269 337 378
#     4  11  20  38  67  87 117 173 216 246 310 395
#     4  11  21  40  63  86 127 169 212 254 317 387
#     4  11  25  42  58  95 135 160 203 284 327 374
#     4  10  19  38  60  90 124 158 215 262 303 397
#     4  11  25  40  62  93 122 165 218 263 329 371
#
# _framework density 19.776464000000001
#
# number of rings (size 3 to 8) (size 9 to 14) (size 15 to 20)
#    0.000    1.500    5.000    1.500    2.333    0.333 
#    0.000    1.667    0.000    0.000    0.000    3.500 
#    0.000    0.000    0.000    0.000    0.000    0.000 
#
# Total GULP energy -267559.834861 kJ/mol
# GULP energy per Si atom -5574.163226 kJ/mol
# Density = 1.973145 g / cm^3
# Si number density = 19.776464 Si / 1000 Ang^3
#
#
#
# Elastic Constant Matrix: (Units=GPa)
#
#
# Indices 1 2 3 4 5 6 
#
# 1 94.1654 74.6877 15.0266 0.0000 0.0000 0.0000
# 2 74.6877 155.6578 41.5740 0.0000 0.0000 0.0000
# 3 15.0266 41.5740 35.9732 0.0000 0.0000 0.0000
# 4 0.0000 0.0000 0.0000 36.2632 0.0000 0.0000
# 5 0.0000 0.0000 0.0000 0.0000 15.5534 0.0000
# 6 0.0000 0.0000 0.0000 0.0000 0.0000 24.2522
#
#
#
# Elastic Compliance Matrix: (Units=1/GPa)
#
#
# Indices 1 2 3 4 5 6 
#
# 1 0.017435 -0.009287 0.003450 0.000000 0.000000 0.000000
# 2 -0.009287 0.014240 -0.012577 0.000000 0.000000 0.000000
# 3 0.003450 -0.012577 0.040893 0.000000 0.000000 0.000000
# 4 0.000000 0.000000 0.000000 0.027576 0.000000 0.000000
# 5 0.000000 0.000000 0.000000 0.000000 0.064295 0.000000
# 6 0.000000 0.000000 0.000000 0.000000 0.000000 0.041233
#
#
# Mechanical properties :
#
#
# Convention : Reuss Voigt Hill
#
# Bulk Modulus (GPa) = 27.98060 60.93035 44.45547
# Shear Modulus (GPa) = 19.65300 25.51429 22.58364
#
# Velocity S-wave (km/s) = 3.15581 3.59574 3.38293
# Velocity P-wave (km/s) = 5.24004 6.93654 6.14709
#
# Compressibility (1/GPa) = 0.03573905
#
# Stress axis : x y z
#
# Youngs Moduli (GPa) = 57.35487 70.22550 24.45417
#
# Poissons Ratio (x) = 0.65221 -0.08437
# Poissons Ratio (y) = 0.53267 0.30757
# Poissons Ratio (z) = -0.19789 0.88325
#
# Static dielectric constant tensor:
#      x y z
#    x 1.658910 0.000000 0.000000 
#    y 0.000000 1.764050 0.000000 
#    z 0.000000 0.000000 1.745030 
# 
# From -- ./inp_files/38085.got.cif
#   From: 2010.05.17/outbox.cif.g08.bks.cpg/sg72_20_cif.got.tgz:38085.got - 2010.06.03 17:03:01.
