data_PCOD9526122
_publ_section_title
;
Structure prediction by ZEFSAII (Michael W. Deem and Ramdas Pophale) SiO2 
 PCOD9526122
Probable space group: I B A M
;
_chemical_formula_sum "Si O2"
_cell_formula_units_Z 120
_cell_length_a 15.261393
_cell_length_b 20.158249
_cell_length_c 21.340050
_cell_angle_alpha 90.000000
_cell_angle_beta 90.000000
_cell_angle_gamma 90.000000
_cell_volume 6565.116152
_symmetry_space_group_name_H-M "I B A M"
_symmetry_group_IT_number 72
_symmetry_cell_setting 'orthorhombic'
loop_
_space_group_symop_operation_xyz
x,y,z
-x,-y,z
x,-y,1/2-z
-x,y,1/2-z
-x,-y,-z
x,y,-z
-x,y,1/2+z
x,-y,1/2+z
1/2+x,1/2+y,1/2+z
1/2-x,1/2-y,1/2+z
1/2+x,1/2-y,-z
1/2-x,1/2+y,-z
1/2-x,1/2-y,1/2-z
1/2+x,1/2+y,1/2-z
1/2-x,1/2+y,z
1/2+x,1/2-y,z
loop_
_atom_site_type_symbol
_atom_site_label
_atom_site_fract_x
_atom_site_fract_y
_atom_site_fract_z
Si Si1 0.239140 0.297738 0.397398
Si Si2 0.048811 0.630523 0.311424
Si Si3 0.042657 0.316984 0.568712
Si Si4 0.059201 0.177834 0.070680
Si Si5 0.117552 0.500000 0.250000
Si Si6 0.766441 0.909289 0.206886
Si Si7 0.238124 0.693070 0.303003
Si Si8 0.540397 0.429777 0.818944
O O1 0.148116 0.312405 0.431398
O O2 0.336559 0.303157 0.426735
O O3 0.245788 0.351897 0.342301
O O4 0.227168 0.225501 0.366075
O O5 0.069197 0.553964 0.293529
O O6 0.137965 0.672334 0.315299
O O7 0.000000 0.657812 0.250000
O O8 0.991734 0.639537 0.373331
O O9 0.013768 0.341346 0.500000
O O10 0.998443 0.244486 0.577885
O O11 0.036381 0.127270 0.127539
O O12 0.042683 0.151115 0.000000
O O13 0.183063 0.456098 0.291420
O O14 0.779509 0.872861 0.273822
O O15 0.856513 0.943244 0.190241
O O16 0.250000 0.750000 0.250000
O O17 0.500000 0.500000 0.838545
O O18 0.500000 0.411290 0.750000
#
# Coordination Sequence:
#
# PCOD9526122 Si02
#       8
#    16  16  16  16   8  16  16  16
#     4  10  19  37  57  81 113 155 194 240 296 353
#     4  11  21  35  58  85 117 150 195 245 291 353
#     4  11  23  38  59  89 121 154 194 248 307 360
#     4  10  22  39  58  85 118 157 201 245 299 364
#     4  10  19  34  55  82 114 152 190 243 290 342
#     4   9  19  33  54  81 116 149 196 238 291 356
#     4   9  17  31  51  83 112 146 189 239 292 345
#     4  10  21  36  56  85 117 155 197 251 303 348
#
# _framework density 18.278428000000002
#
# number of rings (size 3 to 8) (size 9 to 14) (size 15 to 20)
#    0.000    2.000    1.333    3.800    1.867    0.800 
#    0.000    0.000    0.000    9.600    0.000    0.000 
#    0.000    0.000    0.000    0.000    0.000    0.000 
#
# Total GULP energy -334136.661540 kJ/mol
# GULP energy per Si atom -5568.944359 kJ/mol
# Density = 1.823683 g / cm^3
# Si number density = 18.278428 Si / 1000 Ang^3
#
#
#
# Elastic Constant Matrix: (Units=GPa)
#
#
# Indices 1 2 3 4 5 6 
#
# 1 100.1158 41.9194 40.4684 0.0000 0.0000 0.0000
# 2 41.9194 65.7734 44.0292 0.0000 0.0000 0.0000
# 3 40.4684 44.0292 121.8508 0.0000 0.0000 0.0000
# 4 0.0000 0.0000 0.0000 5.3597 0.0000 0.0000
# 5 0.0000 0.0000 0.0000 0.0000 18.0883 0.0000
# 6 0.0000 0.0000 0.0000 0.0000 0.0000 28.1690
#
#
#
# Elastic Compliance Matrix: (Units=1/GPa)
#
#
# Indices 1 2 3 4 5 6 
#
# 1 0.013941 -0.007631 -0.001872 0.000000 0.000000 0.000000
# 2 -0.007631 0.024232 -0.006221 0.000000 0.000000 0.000000
# 3 -0.001872 -0.006221 0.011077 0.000000 0.000000 0.000000
# 4 0.000000 0.000000 0.000000 0.186579 0.000000 0.000000
# 5 0.000000 0.000000 0.000000 0.000000 0.055284 0.000000
# 6 0.000000 0.000000 0.000000 0.000000 0.000000 0.035500
#
#
# Mechanical properties :
#
#
# Convention : Reuss Voigt Hill
#
# Bulk Modulus (GPa) = 56.18319 60.06376 58.12348
# Shear Modulus (GPa) = 13.73640 21.07827 17.40734
#
# Velocity S-wave (km/s) = 2.74434 3.39953 3.08935
# Velocity P-wave (km/s) = 6.39109 6.95276 6.67783
#
# Compressibility (1/GPa) = 0.01779892
#
# Stress axis : x y z
#
# Youngs Moduli (GPa) = 71.73287 41.26757 90.28002
#
# Poissons Ratio (x) = 0.31493 0.16904
# Poissons Ratio (y) = 0.54742 0.56167
# Poissons Ratio (z) = 0.13431 0.25674
#
# Static dielectric constant tensor:
#      x y z
#    x 1.702620 0.000000 0.000000 
#    y 0.000000 1.629020 0.000000 
#    z 0.000000 0.000000 1.648870 
# 
# From -- ./inp_files/38459.got.cif
#   From: 2010.05.17/outbox.cif.g08.bks.cpg/sg72_20_cif.got.tgz:38459.got - 2010.06.03 17:03:01.
