data_PCOD9526077
_publ_section_title
;
Structure prediction by ZEFSAII (Michael W. Deem and Ramdas Pophale) SiO2 
 PCOD9526077
Probable space group: I B A M
;
_chemical_formula_sum "Si O2"
_cell_formula_units_Z 108
_cell_length_a 28.315770
_cell_length_b 15.387473
_cell_length_c 14.312474
_cell_angle_alpha 90.000000
_cell_angle_beta 90.000000
_cell_angle_gamma 90.000000
_cell_volume 6236.061516
_symmetry_space_group_name_H-M "I B A M"
_symmetry_group_IT_number 72
_symmetry_cell_setting 'orthorhombic'
loop_
_space_group_symop_operation_xyz
x,y,z
-x,-y,z
x,-y,1/2-z
-x,y,1/2-z
-x,-y,-z
x,y,-z
-x,y,1/2+z
x,-y,1/2+z
1/2+x,1/2+y,1/2+z
1/2-x,1/2-y,1/2+z
1/2+x,1/2-y,-z
1/2-x,1/2+y,-z
1/2-x,1/2-y,1/2-z
1/2+x,1/2+y,1/2-z
1/2-x,1/2+y,z
1/2+x,1/2-y,z
loop_
_atom_site_type_symbol
_atom_site_label
_atom_site_fract_x
_atom_site_fract_y
_atom_site_fract_z
Si Si1 0.592776 0.716732 0.606981
Si Si2 0.680287 0.033757 0.110275
Si Si3 0.369034 0.500000 0.250000
Si Si4 0.071518 0.581860 0.393587
Si Si5 0.212356 0.640441 0.210186
Si Si6 0.951531 0.954702 0.888804
Si Si7 0.819695 0.821808 0.239296
Si Si8 0.000000 0.500000 0.750000
O O1 0.605788 0.699063 0.500000
O O2 0.576794 0.814949 0.613996
O O3 0.551406 0.648519 0.630854
O O4 0.639288 0.702041 0.666925
O O5 0.623716 0.042334 0.122051
O O6 0.703057 0.102227 0.184283
O O7 0.696021 0.937393 0.142531
O O8 0.690919 0.049957 0.000000
O O9 0.404954 0.487763 0.336398
O O10 0.337465 0.415911 0.225489
O O11 0.057308 0.559707 0.500000
O O12 0.034200 0.552766 0.317895
O O13 0.186348 0.733714 0.199500
O O14 0.267732 0.660346 0.198519
O O15 0.947894 0.969140 0.000000
O O16 0.000000 0.000000 0.857966
#
# Coordination Sequence:
#
# PCOD9526077 Si02
#       8
#    16  16   8  16  16  16  16   4
#     4   9  18  35  57  78 106 145 184 223 269 331
#     4  10  20  37  59  81 112 148 182 227 279 331
#     4  10  19  34  51  78 106 141 176 217 270 318
#     4  10  21  37  56  83 111 142 188 226 272 341
#     4  10  20  35  55  84 111 143 185 227 268 326
#     4   9  18  34  54  76 102 135 175 219 265 317
#     4  10  20  34  54  79 113 143 181 228 266 322
#     4  12  22  36  58  82 106 146 170 232 284 318
#
# _framework density 17.318622999999999
#
# number of rings (size 3 to 8) (size 9 to 14) (size 15 to 20)
#    0.000    2.222    1.481    2.222    0.000    0.593 
#    5.333    6.667    0.000    0.000    0.000    0.000 
#    0.000    0.000    0.000    0.000    0.000    0.000 
#
# Total GULP energy -300645.137413 kJ/mol
# GULP energy per Si atom -5567.502545 kJ/mol
# Density = 1.727921 g / cm^3
# Si number density = 17.318623 Si / 1000 Ang^3
#
#
#
# Elastic Constant Matrix: (Units=GPa)
#
#
# Indices 1 2 3 4 5 6 
#
# 1 67.4544 16.7529 20.2232 0.0000 0.0000 0.0000
# 2 16.7529 76.6237 3.7221 0.0000 0.0000 0.0000
# 3 20.2232 3.7221 60.6046 0.0000 0.0000 0.0000
# 4 0.0000 0.0000 0.0000 18.7317 0.0000 0.0000
# 5 0.0000 0.0000 0.0000 0.0000 20.2848 0.0000
# 6 0.0000 0.0000 0.0000 0.0000 0.0000 36.1646
#
#
#
# Elastic Compliance Matrix: (Units=1/GPa)
#
#
# Indices 1 2 3 4 5 6 
#
# 1 0.017374 -0.003528 -0.005581 0.000000 0.000000 0.000000
# 2 -0.003528 0.013806 0.000329 0.000000 0.000000 0.000000
# 3 -0.005581 0.000329 0.018342 0.000000 0.000000 0.000000
# 4 0.000000 0.000000 0.000000 0.053385 0.000000 0.000000
# 5 0.000000 0.000000 0.000000 0.000000 0.049298 0.000000
# 6 0.000000 0.000000 0.000000 0.000000 0.000000 0.027651
#
#
# Mechanical properties :
#
#
# Convention : Reuss Voigt Hill
#
# Bulk Modulus (GPa) = 31.28509 31.78655 31.53582
# Shear Modulus (GPa) = 24.03031 25.96854 24.99942
#
# Velocity S-wave (km/s) = 3.72901 3.87648 3.80346
# Velocity P-wave (km/s) = 6.05346 6.19919 6.12676
#
# Compressibility (1/GPa) = 0.03196411
#
# Stress axis : x y z
#
# Youngs Moduli (GPa) = 57.55691 72.43197 54.51824
#
# Poissons Ratio (x) = 0.25551 0.30426
# Poissons Ratio (y) = 0.20303 -0.01795
# Poissons Ratio (z) = 0.32122 -0.02384
#
# Static dielectric constant tensor:
#      x y z
#    x 1.561560 0.000000 0.000000 
#    y 0.000000 1.624720 0.000000 
#    z 0.000000 0.000000 1.603740 
# 
# From -- ./inp_files/25257.got.cif
#   From: 2010.05.17/outbox.cif.g08.bks.cpg/sg72_13_cif.got.tgz:25257.got - 2010.06.03 17:03:01.
