data_PCOD9526158
_publ_section_title
;
Structure prediction by ZEFSAII (Michael W. Deem and Ramdas Pophale) SiO2 
 PCOD9526158
Probable space group: I B A M
;
_chemical_formula_sum "Si O2"
_cell_formula_units_Z 96
_cell_length_a 12.966656
_cell_length_b 18.073158
_cell_length_c 22.265580
_cell_angle_alpha 90.000000
_cell_angle_beta 90.000000
_cell_angle_gamma 90.000000
_cell_volume 5217.903552
_symmetry_space_group_name_H-M "I B A M"
_symmetry_group_IT_number 72
_symmetry_cell_setting 'orthorhombic'
loop_
_space_group_symop_operation_xyz
x,y,z
-x,-y,z
x,-y,1/2-z
-x,y,1/2-z
-x,-y,-z
x,y,-z
-x,y,1/2+z
x,-y,1/2+z
1/2+x,1/2+y,1/2+z
1/2-x,1/2-y,1/2+z
1/2+x,1/2-y,-z
1/2-x,1/2+y,-z
1/2-x,1/2-y,1/2-z
1/2+x,1/2+y,1/2-z
1/2-x,1/2+y,z
1/2+x,1/2-y,z
loop_
_atom_site_type_symbol
_atom_site_label
_atom_site_fract_x
_atom_site_fract_y
_atom_site_fract_z
Si Si1 0.446490 0.419935 0.380266
Si Si2 0.782482 0.321861 0.327467
Si Si3 0.648125 0.353694 0.432507
Si Si4 0.249038 0.018047 0.066508
Si Si5 0.886959 0.178037 0.273299
Si Si6 0.879327 0.480373 0.318721
O O1 0.500000 0.500000 0.372932
O O2 0.534790 0.365524 0.404893
O O3 0.349721 0.429415 0.424302
O O4 0.402881 0.390135 0.317887
O O5 0.723361 0.308383 0.389710
O O6 0.840516 0.248718 0.307033
O O7 0.691401 0.340262 0.280172
O O8 0.856336 0.393257 0.328571
O O9 0.641494 0.325564 0.500000
O O10 0.700160 0.435417 0.433582
O O11 0.320243 0.020964 0.126028
O O12 0.296447 0.029946 0.000000
O O13 0.000000 0.197945 0.250000
O O14 0.845555 0.500000 0.250000
O O15 0.000000 0.500000 0.322454
#
# Coordination Sequence:
#
# PCOD9526158 Si02
#       6
#    16  16  16  16  16  16
#     4  10  19  34  57  88 117 145 188 242 295 343
#     4  10  22  39  56  81 115 153 191 229 287 341
#     4   9  17  34  56  79 110 148 186 231 287 338
#     4   9  18  33  55  83 115 148 187 237 290 346
#     4  11  22  37  59  84 114 154 188 240 285 345
#     4  10  21  36  57  85 112 154 193 242 289 342
#
# _framework density 18.398192999999999
#
# number of rings (size 3 to 8) (size 9 to 14) (size 15 to 20)
#    0.000    2.167    1.667    1.500    2.333    2.667 
#    0.000    1.667    0.000    0.000    0.000    0.000 
#    0.000    0.000    0.000    0.000    0.000    0.000 
#
# Total GULP energy -267612.215238 kJ/mol
# GULP energy per Si atom -5575.254484 kJ/mol
# Density = 1.835632 g / cm^3
# Si number density = 18.398193 Si / 1000 Ang^3
#
#
#
# Elastic Constant Matrix: (Units=GPa)
#
#
# Indices 1 2 3 4 5 6 
#
# 1 94.9291 22.5140 46.8983 0.0000 0.0000 0.0000
# 2 22.5140 17.6223 13.5169 0.0000 0.0000 0.0000
# 3 46.8983 13.5169 125.5661 0.0000 0.0000 0.0000
# 4 0.0000 0.0000 0.0000 16.1414 0.0000 0.0000
# 5 0.0000 0.0000 0.0000 0.0000 16.8546 0.0000
# 6 0.0000 0.0000 0.0000 0.0000 0.0000 15.3106
#
#
#
# Elastic Compliance Matrix: (Units=1/GPa)
#
#
# Indices 1 2 3 4 5 6 
#
# 1 0.017081 -0.018453 -0.004393 0.000000 0.000000 0.000000
# 2 -0.018453 0.081788 -0.001912 0.000000 0.000000 0.000000
# 3 -0.004393 -0.001912 0.009811 0.000000 0.000000 0.000000
# 4 0.000000 0.000000 0.000000 0.061953 0.000000 0.000000
# 5 0.000000 0.000000 0.000000 0.000000 0.059331 0.000000
# 6 0.000000 0.000000 0.000000 0.000000 0.000000 0.065314
#
#
# Mechanical properties :
#
#
# Convention : Reuss Voigt Hill
#
# Bulk Modulus (GPa) = 16.90240 44.88622 30.89431
# Shear Modulus (GPa) = 13.71685 20.00719 16.86202
#
# Velocity S-wave (km/s) = 2.73345 3.30123 3.03067
# Velocity P-wave (km/s) = 4.37827 6.24347 5.39213
#
# Compressibility (1/GPa) = 0.05916321
#
# Stress axis : x y z
#
# Youngs Moduli (GPa) = 58.54470 12.22672 101.92998
#
# Poissons Ratio (x) = 0.22562 0.44781
# Poissons Ratio (y) = 1.08031 0.19492
# Poissons Ratio (z) = 0.25720 0.02338
#
# Static dielectric constant tensor:
#      x y z
#    x 1.623010 0.000000 0.000000 
#    y 0.000000 1.609940 0.000000 
#    z 0.000000 0.000000 1.663430 
# 
# From -- ./inp_files/37099.got.cif
#   From: 2010.05.17/outbox.cif.g08.bks.cpg/sg72_19_cif.got.tgz:37099.got - 2010.06.03 17:03:01.
