data_PCOD9526986
_publ_section_title
;
Structure prediction by ZEFSAII (Michael W. Deem and Ramdas Pophale) SiO2 
 PCOD9526986
Probable space group: I B A M
;
_chemical_formula_sum "Si O2"
_cell_formula_units_Z 96
_cell_length_a 31.882075
_cell_length_b 21.169679
_cell_length_c 8.593434
_cell_angle_alpha 90.000000
_cell_angle_beta 90.000000
_cell_angle_gamma 90.000000
_cell_volume 5799.994713
_symmetry_space_group_name_H-M "I B A M"
_symmetry_group_IT_number 72
_symmetry_cell_setting 'orthorhombic'
loop_
_space_group_symop_operation_xyz
x,y,z
-x,-y,z
x,-y,1/2-z
-x,y,1/2-z
-x,-y,-z
x,y,-z
-x,y,1/2+z
x,-y,1/2+z
1/2+x,1/2+y,1/2+z
1/2-x,1/2-y,1/2+z
1/2+x,1/2-y,-z
1/2-x,1/2+y,-z
1/2-x,1/2-y,1/2-z
1/2+x,1/2+y,1/2-z
1/2-x,1/2+y,z
1/2+x,1/2-y,z
loop_
_atom_site_type_symbol
_atom_site_label
_atom_site_fract_x
_atom_site_fract_y
_atom_site_fract_z
Si Si1 0.747584 0.566883 0.186212
Si Si2 0.935449 0.933871 0.180906
Si Si3 0.866736 0.241457 0.182822
Si Si4 0.782698 0.697651 0.312287
Si Si5 0.151594 0.906613 0.181506
Si Si6 0.544010 0.702604 0.186175
O O1 0.763519 0.500000 0.250000
O O2 0.769298 0.628268 0.258439
O O3 0.697929 0.571691 0.224120
O O4 0.751281 0.569307 0.000000
O O5 0.885210 0.931851 0.209782
O O6 0.951592 0.871006 0.265955
O O7 0.950802 0.000000 0.250000
O O8 0.945466 0.929637 0.000000
O O9 0.829554 0.284783 0.246568
O O10 0.850132 0.169440 0.190977
O O11 0.914095 0.238035 0.247376
O O12 0.870952 0.257465 0.000000
O O13 0.782379 0.701383 0.500000
O O14 0.750000 0.750000 0.250000
O O15 0.142532 0.923254 0.000000
O O16 0.500000 0.727051 0.250000
O O17 0.455774 0.705363 0.500000
#
# Coordination Sequence:
#
# PCOD9526986 Si02
#       6
#    16  16  16  16  16  16
#     4  11  22  35  49  72 104 140 177 219 262 306
#     4  11  21  32  46  66  90 123 165 207 253 303
#     4   8  16  32  52  72  98 129 162 204 254 299
#     4  11  20  34  54  78 104 139 177 216 257 306
#     4   9  17  32  49  67  95 129 168 212 256 298
#     4  10  20  36  53  71  94 122 156 204 255 304
#
# _framework density 16.551739999999999
#
# number of rings (size 3 to 8) (size 9 to 14) (size 15 to 20)
#    0.000    2.000    1.667    4.500    0.000    3.000 
#    0.000    4.167    0.000    0.000    0.000    0.000 
#    0.000    0.667    0.000    7.667    0.000    2.333 
#
# Total GULP energy -267859.913053 kJ/mol
# GULP energy per Si atom -5580.414855 kJ/mol
# Density = 1.651407 g / cm^3
# Si number density = 16.551740 Si / 1000 Ang^3
#
#
#
# Elastic Constant Matrix: (Units=GPa)
#
#
# Indices 1 2 3 4 5 6 
#
# 1 126.5453 53.3846 30.2743 0.0000 0.0000 0.0000
# 2 53.3846 76.5910 20.9509 0.0000 0.0000 0.0000
# 3 30.2743 20.9509 44.4390 0.0000 0.0000 0.0000
# 4 0.0000 0.0000 0.0000 20.3011 0.0000 0.0000
# 5 0.0000 0.0000 0.0000 0.0000 22.7861 0.0000
# 6 0.0000 0.0000 0.0000 0.0000 0.0000 -1.8713
#
#
#
# Elastic Compliance Matrix: (Units=1/GPa)
#
#
# Indices 1 2 3 4 5 6 
#
# 1 0.012049 -0.007064 -0.004878 0.000000 0.000000 0.000000
# 2 -0.007064 0.019131 -0.004207 0.000000 0.000000 0.000000
# 3 -0.004878 -0.004207 0.027809 0.000000 0.000000 0.000000
# 4 0.000000 0.000000 0.000000 0.049258 0.000000 0.000000
# 5 0.000000 0.000000 0.000000 0.000000 0.043886 0.000000
# 6 0.000000 0.000000 0.000000 0.000000 0.000000 -0.534385
#
#
# Mechanical properties :
#
#
# Convention : Reuss Voigt Hill
#
# Bulk Modulus (GPa) = 37.46552 50.75495 44.11024
# Shear Modulus (GPa) = -14.66042 17.77421 1.55689
#
# Velocity S-wave (km/s) = -2.97936 3.28053 0.97091
# Velocity P-wave (km/s) = 3.29380 6.71418 5.28816
#
# Compressibility (1/GPa) = 0.02669121
#
# Stress axis : x y z
#
# Youngs Moduli (GPa) = 82.99107 52.27147 35.95897
#
# Poissons Ratio (x) = 0.36925 0.17542
# Poissons Ratio (y) = 0.58626 0.15127
# Poissons Ratio (z) = 0.40486 0.21990
#
# Static dielectric constant tensor:
#      x y z
#    x 1.606930 0.000000 0.000000 
#    y 0.000000 1.541580 0.000000 
#    z 0.000000 0.000000 1.571840 
# 
# From -- ./inp_files/8051.got.cif
#   From: 2010.05.17/outbox.cif.g08.bks.cpg/sg72_5_cif.got.tgz:8051.got - 2010.06.03 17:03:01.
