data_PCOD9526198
_publ_section_title
;
Structure prediction by ZEFSAII (Michael W. Deem and Ramdas Pophale) SiO2 
 PCOD9526198
Probable space group: I B A M
;
_chemical_formula_sum "Si O2"
_cell_formula_units_Z 88
_cell_length_a 13.715760
_cell_length_b 24.357038
_cell_length_c 16.130627
_cell_angle_alpha 90.000000
_cell_angle_beta 90.000000
_cell_angle_gamma 90.000000
_cell_volume 5388.843853
_symmetry_space_group_name_H-M "I B A M"
_symmetry_group_IT_number 72
_symmetry_cell_setting 'orthorhombic'
loop_
_space_group_symop_operation_xyz
x,y,z
-x,-y,z
x,-y,1/2-z
-x,y,1/2-z
-x,-y,-z
x,y,-z
-x,y,1/2+z
x,-y,1/2+z
1/2+x,1/2+y,1/2+z
1/2-x,1/2-y,1/2+z
1/2+x,1/2-y,-z
1/2-x,1/2+y,-z
1/2-x,1/2-y,1/2-z
1/2+x,1/2+y,1/2-z
1/2-x,1/2+y,z
1/2+x,1/2-y,z
loop_
_atom_site_type_symbol
_atom_site_label
_atom_site_fract_x
_atom_site_fract_y
_atom_site_fract_z
Si Si1 0.331618 0.644038 0.341710
Si Si2 0.498638 0.802616 0.500000
Si Si3 0.337973 0.644087 0.157232
Si Si4 0.997304 0.935207 0.901115
Si Si5 0.731539 0.197153 0.500000
Si Si6 0.790490 0.671521 0.000000
Si Si7 0.508645 0.733491 0.163483
O O1 0.290935 0.638264 0.248319
O O2 0.413981 0.597429 0.357488
O O3 0.256958 0.645981 0.417362
O O4 0.389052 0.702283 0.346261
O O5 0.383941 0.815513 0.500000
O O6 0.593970 0.840428 0.500000
O O7 0.512130 0.767329 0.417349
O O8 0.394556 0.589394 0.129371
O O9 0.274796 0.668867 0.082818
O O10 0.426807 0.686758 0.170085
O O11 0.005793 0.924621 0.000000
O O12 0.000000 0.000000 0.886115
O O13 0.762903 0.262267 0.500000
O O14 0.500000 0.765505 0.250000
#
# Coordination Sequence:
#
# PCOD9526198 Si02
#       7
#    16   8  16  16   8   8  16
#     4  10  20  34  52  76 110 142 172 215 269 325
#     4  12  22  32  48  70  94 140 180 234 250 298
#     4  10  20  34  52  76 110 142 172 215 269 325
#     4  10  19  34  61  90 115 139 169 216 278 339
#     4  12  22  34  52  69 104 144 191 225 267 313
#     4  12  22  34  52  69 104 144 191 225 267 313
#     4   9  17  29  47  72  98 131 175 212 254 306
#
# _framework density 16.330034000000001
#
# number of rings (size 3 to 8) (size 9 to 14) (size 15 to 20)
#    0.000    1.636    5.455    1.636    2.545    3.636 
#    0.000    0.000    0.000    0.000    0.000    2.545 
#    0.000    2.909    0.000    0.000    0.000    0.000 
#
# Total GULP energy -245120.031374 kJ/mol
# GULP energy per Si atom -5570.909804 kJ/mol
# Density = 1.629287 g / cm^3
# Si number density = 16.330034 Si / 1000 Ang^3
#
#
#
# Elastic Constant Matrix: (Units=GPa)
#
#
# Indices 1 2 3 4 5 6 
#
# 1 65.6025 7.9078 19.8177 0.0000 0.0000 0.0000
# 2 7.9078 40.6351 29.4793 0.0000 0.0000 0.0000
# 3 19.8177 29.4793 136.6829 0.0000 0.0000 0.0000
# 4 0.0000 0.0000 0.0000 21.3973 0.0000 0.0000
# 5 0.0000 0.0000 0.0000 0.0000 6.4651 0.0000
# 6 0.0000 0.0000 0.0000 0.0000 0.0000 11.2862
#
#
#
# Elastic Compliance Matrix: (Units=1/GPa)
#
#
# Indices 1 2 3 4 5 6 
#
# 1 0.016040 -0.001700 -0.001959 0.000000 0.000000 0.000000
# 2 -0.001700 0.029354 -0.006084 0.000000 0.000000 0.000000
# 3 -0.001959 -0.006084 0.008913 0.000000 0.000000 0.000000
# 4 0.000000 0.000000 0.000000 0.046735 0.000000 0.000000
# 5 0.000000 0.000000 0.000000 0.000000 0.154676 0.000000
# 6 0.000000 0.000000 0.000000 0.000000 0.000000 0.088604
#
#
# Mechanical properties :
#
#
# Convention : Reuss Voigt Hill
#
# Bulk Modulus (GPa) = 28.71974 39.70336 34.21155
# Shear Modulus (GPa) = 13.31858 20.21077 16.76467
#
# Velocity S-wave (km/s) = 2.85895 3.52183 3.20756
# Velocity P-wave (km/s) = 5.34073 6.39559 5.89181
#
# Compressibility (1/GPa) = 0.03481926
#
# Stress axis : x y z
#
# Youngs Moduli (GPa) = 62.34395 34.06663 112.20187
#
# Poissons Ratio (x) = 0.05793 0.21979
# Poissons Ratio (y) = 0.10601 0.68269
# Poissons Ratio (z) = 0.12213 0.20728
#
# Static dielectric constant tensor:
#      x y z
#    x 1.561990 0.000000 0.000000 
#    y 0.000000 1.524900 0.000000 
#    z 0.000000 0.000000 1.590430 
# 
# From -- ./inp_files/21723.got.cif
#   From: 2010.05.17/outbox.cif.g08.bks.cpg/sg72_11_cif.got.tgz:21723.got - 2010.06.03 17:03:01.
