data_PCOD9526715
_publ_section_title
;
Structure prediction by ZEFSAII (Michael W. Deem and Ramdas Pophale) SiO2 
 PCOD9526715
Probable space group: I B A M
;
_chemical_formula_sum "Si O2"
_cell_formula_units_Z 64
_cell_length_a 23.622335
_cell_length_b 8.130600
_cell_length_c 16.381718
_cell_angle_alpha 90.000000
_cell_angle_beta 90.000000
_cell_angle_gamma 90.000000
_cell_volume 3146.334304
_symmetry_space_group_name_H-M "I B A M"
_symmetry_group_IT_number 72
_symmetry_cell_setting 'orthorhombic'
loop_
_space_group_symop_operation_xyz
x,y,z
-x,-y,z
x,-y,1/2-z
-x,y,1/2-z
-x,-y,-z
x,y,-z
-x,y,1/2+z
x,-y,1/2+z
1/2+x,1/2+y,1/2+z
1/2-x,1/2-y,1/2+z
1/2+x,1/2-y,-z
1/2-x,1/2+y,-z
1/2-x,1/2-y,1/2-z
1/2+x,1/2+y,1/2-z
1/2-x,1/2+y,z
1/2+x,1/2-y,z
loop_
_atom_site_type_symbol
_atom_site_label
_atom_site_fract_x
_atom_site_fract_y
_atom_site_fract_z
Si Si1 0.127278 0.840748 0.197105
Si Si2 0.438912 0.045374 0.846551
Si Si3 0.279581 0.479177 0.593821
Si Si4 0.827695 0.639856 0.849645
O O1 0.078010 0.737040 0.153879
O O2 0.172817 0.904208 0.132598
O O3 0.157517 0.717316 0.261345
O O4 0.108303 0.000000 0.250000
O O5 0.500000 0.000000 0.881952
O O6 0.441492 0.000000 0.750000
O O7 0.385953 0.941405 0.880721
O O8 0.268160 0.517872 0.500000
O O9 0.222498 0.507835 0.645100
O O10 0.303671 0.295587 0.601453
#
# Coordination Sequence:
#
# PCOD9526715 Si02
#       4
#    16  16  16  16
#     4   9  19  35  57  83 110 142 181 228 277 327
#     4   9  18  35  57  81 107 139 182 227 270 322
#     4  11  21  34  54  80 112 145 182 228 278 332
#     4  10  20  34  54  81 110 142 181 226 278 331
#
# _framework density 20.341132999999999
#
# number of rings (size 3 to 8) (size 9 to 14) (size 15 to 20)
#    0.000    2.250    0.000    3.000    0.000    7.000 
#    0.000   22.500    0.000    8.250    0.000    0.000 
#    0.000    0.000    0.000    0.000    0.000    0.000 
#
# Total GULP energy -178595.378767 kJ/mol
# GULP energy per Si atom -5581.105586 kJ/mol
# Density = 2.029484 g / cm^3
# Si number density = 20.341133 Si / 1000 Ang^3
#
#
#
# Elastic Constant Matrix: (Units=GPa)
#
#
# Indices 1 2 3 4 5 6 
#
# 1 169.5574 95.3547 11.7618 0.0000 0.0000 0.0000
# 2 95.3547 132.9108 28.3138 0.0000 0.0000 0.0000
# 3 11.7618 28.3138 39.1656 0.0000 0.0000 0.0000
# 4 0.0000 0.0000 0.0000 16.1885 0.0000 0.0000
# 5 0.0000 0.0000 0.0000 0.0000 -9.2357 0.0000
# 6 0.0000 0.0000 0.0000 0.0000 0.0000 28.4147
#
#
#
# Elastic Compliance Matrix: (Units=1/GPa)
#
#
# Indices 1 2 3 4 5 6 
#
# 1 0.010107 -0.007807 0.002609 0.000000 0.000000 0.000000
# 2 -0.007807 0.014924 -0.008444 0.000000 0.000000 0.000000
# 3 0.002609 -0.008444 0.030854 0.000000 0.000000 0.000000
# 4 0.000000 0.000000 0.000000 0.061772 0.000000 0.000000
# 5 0.000000 0.000000 0.000000 0.000000 -0.108276 0.000000
# 6 0.000000 0.000000 0.000000 0.000000 0.000000 0.035193
#
#
# Mechanical properties :
#
#
# Convention : Reuss Voigt Hill
#
# Bulk Modulus (GPa) = 34.96573 68.05493 51.51033
# Shear Modulus (GPa) = 61.43091 20.82040 41.12566
#
# Velocity S-wave (km/s) = 5.50145 3.20279 4.50132
# Velocity P-wave (km/s) = 7.58825 6.87070 7.23837
#
# Compressibility (1/GPa) = 0.02859943
#
# Stress axis : x y z
#
# Youngs Moduli (GPa) = 98.93971 67.00780 32.41097
#
# Poissons Ratio (x) = 0.52312 -0.08455
# Poissons Ratio (y) = 0.77241 0.27368
# Poissons Ratio (z) = -0.25809 0.56583
#
# Static dielectric constant tensor:
#      x y z
#    x 1.733160 0.000000 0.000000 
#    y 0.000000 1.792100 0.000000 
#    z 0.000000 0.000000 1.716840 
# 
# From -- ./inp_files/18670.got.cif
#   From: 2010.05.17/outbox.cif.g08.bks.cpg/sg72_10_cif.got.tgz:18670.got - 2010.06.03 17:03:01.
