data_PCOD9526689
_publ_section_title
;
Structure prediction by ZEFSAII (Michael W. Deem and Ramdas Pophale) SiO2 
 PCOD9526689
Probable space group: I B A M
;
_chemical_formula_sum "Si O2"
_cell_formula_units_Z 92
_cell_length_a 23.603793
_cell_length_b 15.880790
_cell_length_c 13.350224
_cell_angle_alpha 90.000000
_cell_angle_beta 90.000000
_cell_angle_gamma 90.000000
_cell_volume 5004.289812
_symmetry_space_group_name_H-M "I B A M"
_symmetry_group_IT_number 72
_symmetry_cell_setting 'orthorhombic'
loop_
_space_group_symop_operation_xyz
x,y,z
-x,-y,z
x,-y,1/2-z
-x,y,1/2-z
-x,-y,-z
x,y,-z
-x,y,1/2+z
x,-y,1/2+z
1/2+x,1/2+y,1/2+z
1/2-x,1/2-y,1/2+z
1/2+x,1/2-y,-z
1/2-x,1/2+y,-z
1/2-x,1/2-y,1/2-z
1/2+x,1/2+y,1/2-z
1/2-x,1/2+y,z
1/2+x,1/2-y,z
loop_
_atom_site_type_symbol
_atom_site_label
_atom_site_fract_x
_atom_site_fract_y
_atom_site_fract_z
Si Si1 0.183537 0.865812 0.380520
Si Si2 0.592459 0.593860 0.766796
Si Si3 0.694528 0.179150 0.121331
Si Si4 0.064135 0.639247 0.378958
Si Si5 0.500000 0.276441 0.250000
Si Si6 0.000000 0.500000 0.250000
Si Si7 0.207616 0.947570 0.120401
O O1 0.182464 0.863619 0.500000
O O2 0.120420 0.875317 0.337172
O O3 0.206115 0.775317 0.345337
O O4 0.213723 0.953626 0.351651
O O5 0.569220 0.500000 0.750000
O O6 0.546624 0.661679 0.798242
O O7 0.647207 0.584258 0.838271
O O8 0.630423 0.152854 0.147544
O O9 0.741488 0.112408 0.154212
O O10 0.696384 0.179741 0.000000
O O11 0.059011 0.633646 0.500000
O O12 0.029115 0.717258 0.332792
O O13 0.038615 0.558338 0.321822
O O14 0.205778 0.944577 0.000000
#
# Coordination Sequence:
#
# PCOD9526689 Si02
#       7
#    16  16  16  16   8   4  16
#     4   9  17  33  53  76 107 144 185 228 281 341
#     4  10  20  34  52  80 112 150 185 237 288 331
#     4   9  17  34  58  79 106 148 187 227 287 349
#     4  10  21  39  61  82 112 151 189 235 286 335
#     4  11  21  35  55  84 110 148 199 235 277 345
#     4  10  22  40  58  90 114 144 192 242 272 332
#     4   9  19  34  52  79 112 144 187 236 288 347
#
# _framework density 18.384226999999999
#
# number of rings (size 3 to 8) (size 9 to 14) (size 15 to 20)
#    0.000    2.435    1.739    0.522    0.000    1.391 
#    4.696    1.739    0.000    9.391    0.000    0.000 
#    0.000    0.000    0.000    0.000    0.000    0.000 
#
# Total GULP energy -256355.497879 kJ/mol
# GULP energy per Si atom -5572.945606 kJ/mol
# Density = 1.834238 g / cm^3
# Si number density = 18.384227 Si / 1000 Ang^3
#
#
#
# Elastic Constant Matrix: (Units=GPa)
#
#
# Indices 1 2 3 4 5 6 
#
# 1 127.7866 105.4797 44.1156 0.0000 0.0000 0.0000
# 2 105.4797 186.1707 48.8637 0.0000 0.0000 0.0000
# 3 44.1156 48.8637 70.3282 0.0000 0.0000 0.0000
# 4 0.0000 0.0000 0.0000 21.8064 0.0000 0.0000
# 5 0.0000 0.0000 0.0000 0.0000 19.7696 0.0000
# 6 0.0000 0.0000 0.0000 0.0000 0.0000 24.3700
#
#
#
# Elastic Compliance Matrix: (Units=1/GPa)
#
#
# Indices 1 2 3 4 5 6 
#
# 1 0.015790 -0.007762 -0.004512 0.000000 0.000000 0.000000
# 2 -0.007762 0.010385 -0.002346 0.000000 0.000000 0.000000
# 3 -0.004512 -0.002346 0.018680 0.000000 0.000000 0.000000
# 4 0.000000 0.000000 0.000000 0.045858 0.000000 0.000000
# 5 0.000000 0.000000 0.000000 0.000000 0.050583 0.000000
# 6 0.000000 0.000000 0.000000 0.000000 0.000000 0.041034
#
#
# Mechanical properties :
#
#
# Convention : Reuss Voigt Hill
#
# Bulk Modulus (GPa) = 64.04502 86.80036 75.42269
# Shear Modulus (GPa) = 23.06531 25.57765 24.32148
#
# Velocity S-wave (km/s) = 3.54591 3.73404 3.64119
# Velocity P-wave (km/s) = 7.18869 8.11836 7.66763
#
# Compressibility (1/GPa) = 0.01561402
#
# Stress axis : x y z
#
# Youngs Moduli (GPa) = 63.32968 96.29122 53.53448
#
# Poissons Ratio (x) = 0.74743 0.24154
# Poissons Ratio (y) = 0.49158 0.12562
# Poissons Ratio (z) = 0.28573 0.22594
#
# Static dielectric constant tensor:
#      x y z
#    x 1.614040 0.000000 0.000000 
#    y 0.000000 1.664100 0.000000 
#    z 0.000000 0.000000 1.638400 
# 
# From -- ./inp_files/24185.got.cif
#   From: 2010.05.17/outbox.cif.g08.bks.cpg/sg72_13_cif.got.tgz:24185.got - 2010.06.03 17:03:01.
