data_PCOD9526937
_publ_section_title
;
Structure prediction by ZEFSAII (Michael W. Deem and Ramdas Pophale) SiO2 
 PCOD9526937
Probable space group: I B A M
;
_chemical_formula_sum "Si O2"
_cell_formula_units_Z 104
_cell_length_a 31.184881
_cell_length_b 17.683218
_cell_length_c 10.002255
_cell_angle_alpha 90.000000
_cell_angle_beta 90.000000
_cell_angle_gamma 90.000000
_cell_volume 5515.734008
_symmetry_space_group_name_H-M "I B A M"
_symmetry_group_IT_number 72
_symmetry_cell_setting 'orthorhombic'
loop_
_space_group_symop_operation_xyz
x,y,z
-x,-y,z
x,-y,1/2-z
-x,y,1/2-z
-x,-y,-z
x,y,-z
-x,y,1/2+z
x,-y,1/2+z
1/2+x,1/2+y,1/2+z
1/2-x,1/2-y,1/2+z
1/2+x,1/2-y,-z
1/2-x,1/2+y,-z
1/2-x,1/2-y,1/2-z
1/2+x,1/2+y,1/2-z
1/2-x,1/2+y,z
1/2+x,1/2-y,z
loop_
_atom_site_type_symbol
_atom_site_label
_atom_site_fract_x
_atom_site_fract_y
_atom_site_fract_z
Si Si1 0.529920 0.166800 0.149866
Si Si2 0.219331 0.073851 0.842549
Si Si3 0.609302 0.806363 0.156288
Si Si4 0.816168 0.428691 0.845768
Si Si5 0.074559 0.904447 0.500000
Si Si6 0.367159 0.359558 0.751936
Si Si7 0.508565 0.696562 0.000000
Si Si8 0.412278 0.578487 0.500000
O O1 0.500000 0.119560 0.250000
O O2 0.573074 0.179915 0.232347
O O3 0.502413 0.244070 0.118376
O O4 0.538033 0.136486 0.000000
O O5 0.267981 0.103136 0.824535
O O6 0.181122 0.127645 0.796165
O O7 0.216013 0.000000 0.750000
O O8 0.213529 0.056073 0.000000
O O9 0.647274 0.866636 0.172590
O O10 0.626802 0.723248 0.187085
O O11 0.594002 0.810514 0.000000
O O12 0.822308 0.500000 0.750000
O O13 0.817842 0.454605 0.000000
O O14 0.101272 0.876403 0.371587
O O15 0.028845 0.864798 0.500000
O O16 0.068409 0.994653 0.500000
O O17 0.382416 0.414553 0.870249
O O18 0.552393 0.647389 0.000000
#
# Coordination Sequence:
#
# PCOD9526937 Si02
#       8
#    16  16  16  16   8  16   8   8
#     4  10  20  35  59  87 119 155 204 247 304 355
#     4  10  21  38  61  86 122 160 206 257 307 370
#     4  11  22  40  63  86 126 162 201 254 307 372
#     4   9  21  42  66  95 121 156 197 248 315 382
#     4  12  23  38  54  83 115 159 213 265 304 347
#     4  12  23  38  57  84 118 160 211 255 307 360
#     4  10  23  36  56  77 115 154 210 254 298 343
#     4  12  25  38  56  80 116 165 208 258 310 352
#
# _framework density 18.855150999999999
#
# number of rings (size 3 to 8) (size 9 to 14) (size 15 to 20)
#    0.462    0.923    3.077    3.000    1.077    1.231 
#    0.000    1.538    0.000    0.462    0.000    3.231 
#    0.000    0.000    0.000    0.000    0.000    0.000 
#
# Total GULP energy -289905.827604 kJ/mol
# GULP energy per Si atom -5575.112069 kJ/mol
# Density = 1.881224 g / cm^3
# Si number density = 18.855151 Si / 1000 Ang^3
#
#
#
# Elastic Constant Matrix: (Units=GPa)
#
#
# Indices 1 2 3 4 5 6 
#
# 1 110.4438 28.6733 60.0968 0.0000 0.0000 0.0000
# 2 28.6733 16.8654 19.6973 0.0000 0.0000 0.0000
# 3 60.0968 19.6973 153.3890 0.0000 0.0000 0.0000
# 4 0.0000 0.0000 0.0000 15.4378 0.0000 0.0000
# 5 0.0000 0.0000 0.0000 0.0000 35.7070 0.0000
# 6 0.0000 0.0000 0.0000 0.0000 0.0000 -76.6532
#
#
#
# Elastic Compliance Matrix: (Units=1/GPa)
#
#
# Indices 1 2 3 4 5 6 
#
# 1 0.017773 -0.025980 -0.003627 0.000000 0.000000 0.000000
# 2 -0.025980 0.107732 -0.003655 0.000000 0.000000 0.000000
# 3 -0.003627 -0.003655 0.008410 0.000000 0.000000 0.000000
# 4 0.000000 0.000000 0.000000 0.064776 0.000000 0.000000
# 5 0.000000 0.000000 0.000000 0.000000 0.028006 0.000000
# 6 0.000000 0.000000 0.000000 0.000000 0.000000 -0.013046
#
#
# Mechanical properties :
#
#
# Convention : Reuss Voigt Hill
#
# Bulk Modulus (GPa) = 14.83916 55.29257 35.06586
# Shear Modulus (GPa) = 16.52131 6.38035 11.45083
#
# Velocity S-wave (km/s) = 2.96332 1.84153 2.46703
# Velocity P-wave (km/s) = 4.42668 5.82325 5.17232
#
# Compressibility (1/GPa) = 0.06738927
#
# Stress axis : x y z
#
# Youngs Moduli (GPa) = 56.26508 9.28230 118.90803
#
# Poissons Ratio (x) = 0.24116 0.43129
# Poissons Ratio (y) = 1.46178 0.43466
# Poissons Ratio (z) = 0.20408 0.03393
#
# Static dielectric constant tensor:
#      x y z
#    x 1.664040 0.000000 0.000000 
#    y 0.000000 1.626690 0.000000 
#    z 0.000000 0.000000 1.832690 
# 
# From -- ./inp_files/9232.got.cif
#   From: 2010.05.17/outbox.cif.g08.bks.cpg/sg72_5_cif.got.tgz:9232.got - 2010.06.03 17:03:01.
