data_PCOD9526045
_publ_section_title
;
Structure prediction by ZEFSAII (Michael W. Deem and Ramdas Pophale) SiO2 
 PCOD9526045
Probable space group: I B A M
;
_chemical_formula_sum "Si O2"
_cell_formula_units_Z 116
_cell_length_a 23.855085
_cell_length_b 15.998063
_cell_length_c 14.248777
_cell_angle_alpha 90.000000
_cell_angle_beta 90.000000
_cell_angle_gamma 90.000000
_cell_volume 5437.834186
_symmetry_space_group_name_H-M "I B A M"
_symmetry_group_IT_number 72
_symmetry_cell_setting 'orthorhombic'
loop_
_space_group_symop_operation_xyz
x,y,z
-x,-y,z
x,-y,1/2-z
-x,y,1/2-z
-x,-y,-z
x,y,-z
-x,y,1/2+z
x,-y,1/2+z
1/2+x,1/2+y,1/2+z
1/2-x,1/2-y,1/2+z
1/2+x,1/2-y,-z
1/2-x,1/2+y,-z
1/2-x,1/2-y,1/2-z
1/2+x,1/2+y,1/2-z
1/2-x,1/2+y,z
1/2+x,1/2-y,z
loop_
_atom_site_type_symbol
_atom_site_label
_atom_site_fract_x
_atom_site_fract_y
_atom_site_fract_z
Si Si1 0.239915 0.299401 0.107765
Si Si2 0.500000 0.500000 0.000000
Si Si3 0.347862 0.919602 0.607619
Si Si4 0.446157 0.054200 0.390325
Si Si5 0.374023 0.181029 0.708602
Si Si6 0.543525 0.417401 0.316223
Si Si7 0.723070 0.597024 0.605441
Si Si8 0.344173 0.642293 0.732694
O O1 0.181501 0.336770 0.145962
O O2 0.235298 0.197682 0.110453
O O3 0.290427 0.327200 0.174405
O O4 0.248935 0.323894 0.000000
O O5 0.483869 0.433997 0.915838
O O6 0.351304 0.887558 0.500000
O O7 0.363023 0.853038 0.686896
O O8 0.283155 0.945643 0.621724
O O9 0.391980 0.994132 0.617339
O O10 0.454790 0.075458 0.500000
O O11 0.428378 0.135710 0.332816
O O12 0.500000 0.000000 0.359953
O O13 0.373565 0.280459 0.713252
O O14 0.552600 0.500000 0.250000
O O15 0.500000 0.366307 0.250000
O O16 0.606317 0.387723 0.332549
O O17 0.703373 0.577986 0.500000
O O18 0.678603 0.580931 0.686417
#
# Coordination Sequence:
#
# PCOD9526045 Si02
#       8
#    16   4  16  16  16  16  16  16
#     4  10  19  33  57  87 126 160 199 255 325 378
#     4   8  18  44  76  82 120 168 188 232 338 370
#     4  10  19  35  57  80 118 171 211 253 313 374
#     4  10  23  42  62  82 121 176 224 264 315 373
#     4  11  20  37  59  88 124 162 208 267 317 365
#     4   9  21  44  66  87 121 157 192 246 316 389
#     4   9  17  34  54  82 125 167 194 253 325 370
#     4  11  20  36  61  96 119 157 210 261 310 386
#
# _framework density 21.332021999999998
#
# number of rings (size 3 to 8) (size 9 to 14) (size 15 to 20)
#    0.000    2.207    2.759    1.655    0.966    1.655 
#    9.931    0.000    0.000    0.000    0.000    0.000 
#    0.000    0.000    0.000    0.000    0.000    0.000 
#
# Total GULP energy -323060.282654 kJ/mol
# GULP energy per Si atom -5570.004873 kJ/mol
# Density = 2.128347 g / cm^3
# Si number density = 21.332022 Si / 1000 Ang^3
#
#
#
# Elastic Constant Matrix: (Units=GPa)
#
#
# Indices 1 2 3 4 5 6 
#
# 1 81.1352 20.0095 29.7081 0.0000 0.0000 0.0000
# 2 20.0095 19.7671 10.1847 0.0000 0.0000 0.0000
# 3 29.7081 10.1847 128.4510 0.0000 0.0000 0.0000
# 4 0.0000 0.0000 0.0000 16.0836 0.0000 0.0000
# 5 0.0000 0.0000 0.0000 0.0000 16.9278 0.0000
# 6 0.0000 0.0000 0.0000 0.0000 0.0000 28.7677
#
#
#
# Elastic Compliance Matrix: (Units=1/GPa)
#
#
# Indices 1 2 3 4 5 6 
#
# 1 0.017293 -0.016102 -0.002723 0.000000 0.000000 0.000000
# 2 -0.016102 0.067738 -0.001647 0.000000 0.000000 0.000000
# 3 -0.002723 -0.001647 0.008545 0.000000 0.000000 0.000000
# 4 0.000000 0.000000 0.000000 0.062175 0.000000 0.000000
# 5 0.000000 0.000000 0.000000 0.000000 0.059074 0.000000
# 6 0.000000 0.000000 0.000000 0.000000 0.000000 0.034761
#
#
# Mechanical properties :
#
#
# Convention : Reuss Voigt Hill
#
# Bulk Modulus (GPa) = 18.99973 38.79530 28.89751
# Shear Modulus (GPa) = 16.22982 23.65256 19.94119
#
# Velocity S-wave (km/s) = 2.76129 3.33345 3.06077
# Velocity P-wave (km/s) = 4.36947 5.74820 5.10559
#
# Compressibility (1/GPa) = 0.05263233
#
# Stress axis : x y z
#
# Youngs Moduli (GPa) = 57.82594 14.76286 117.02251
#
# Poissons Ratio (x) = 0.23772 0.31863
# Poissons Ratio (y) = 0.93114 0.19269
# Poissons Ratio (z) = 0.15745 0.02431
#
# Static dielectric constant tensor:
#      x y z
#    x 1.826040 0.000000 0.000000 
#    y 0.000000 1.841310 0.000000 
#    z 0.000000 0.000000 1.768170 
# 
# From -- ./inp_files/25404.got.cif
#   From: 2010.05.17/outbox.cif.g08.bks.cpg/sg72_13_cif.got.tgz:25404.got - 2010.06.03 17:03:01.
