data_PCOD9526561
_publ_section_title
;
Structure prediction by ZEFSAII (Michael W. Deem and Ramdas Pophale) SiO2 
 PCOD9526561
Probable space group: I B A M
;
_chemical_formula_sum "Si O2"
_cell_formula_units_Z 116
_cell_length_a 32.320530
_cell_length_b 22.404235
_cell_length_c 8.786404
_cell_angle_alpha 90.000000
_cell_angle_beta 90.000000
_cell_angle_gamma 90.000000
_cell_volume 6362.382304
_symmetry_space_group_name_H-M "I B A M"
_symmetry_group_IT_number 72
_symmetry_cell_setting 'orthorhombic'
loop_
_space_group_symop_operation_xyz
x,y,z
-x,-y,z
x,-y,1/2-z
-x,y,1/2-z
-x,-y,-z
x,y,-z
-x,y,1/2+z
x,-y,1/2+z
1/2+x,1/2+y,1/2+z
1/2-x,1/2-y,1/2+z
1/2+x,1/2-y,-z
1/2-x,1/2+y,-z
1/2-x,1/2-y,1/2-z
1/2+x,1/2+y,1/2-z
1/2-x,1/2+y,z
1/2+x,1/2-y,z
loop_
_atom_site_type_symbol
_atom_site_label
_atom_site_fract_x
_atom_site_fract_y
_atom_site_fract_z
Si Si1 0.103918 0.165026 0.816268
Si Si2 0.342777 0.937311 0.815817
Si Si3 0.500000 0.000000 0.750000
Si Si4 0.566986 0.902315 0.324951
Si Si5 0.217779 0.669373 0.316758
Si Si6 0.544577 0.565813 0.182251
Si Si7 0.543245 0.227817 0.182860
Si Si8 0.196162 0.804115 0.683412
O O1 0.079257 0.111978 0.736353
O O2 0.080294 0.227055 0.781053
O O3 0.151801 0.170183 0.770095
O O4 0.102043 0.157115 0.000000
O O5 0.389715 0.925210 0.758499
O O6 0.313202 0.882972 0.770364
O O7 0.328296 0.000000 0.750000
O O8 0.343096 0.940974 0.000000
O O9 0.532027 0.953274 0.674805
O O10 0.576681 0.887904 0.500000
O O11 0.551765 0.839463 0.257345
O O12 0.220160 0.669038 0.500000
O O13 0.200410 0.734431 0.270492
O O14 0.263720 0.663480 0.250306
O O15 0.552822 0.500000 0.250000
O O16 0.500000 0.584785 0.250000
O O17 0.542051 0.562955 0.000000
O O18 0.500000 0.249718 0.250000
O O19 0.539000 0.226059 0.000000
O O20 0.198001 0.806108 0.500000
#
# Coordination Sequence:
#
# PCOD9526561 Si02
#       8
#    16  16   4  16  16  16  16  16
#     4  10  20  35  56  82 112 144 179 222 275 328
#     4  10  20  35  53  75 103 137 176 218 265 314
#     4  12  18  32  52  70 104 144 192 228 262 312
#     4  10  20  33  50  72 103 144 186 226 269 314
#     4   9  18  34  56  79 105 137 176 221 271 325
#     4  11  22  38  60  84 113 147 184 221 262 319
#     4  10  20  34  51  74 106 143 182 223 267 314
#     4   9  18  34  57  81 106 138 174 217 271 328
#
# _framework density 18.232164999999998
#
# number of rings (size 3 to 8) (size 9 to 14) (size 15 to 20)
#    0.000    2.069    1.379    3.103    0.000    6.069 
#    0.000    1.379    0.000    4.966    0.000    0.000 
#    0.000    0.000    0.000    0.000    0.000    0.000 
#
# Total GULP energy -323489.170319 kJ/mol
# GULP energy per Si atom -5577.399488 kJ/mol
# Density = 1.819067 g / cm^3
# Si number density = 18.232165 Si / 1000 Ang^3
#
#
#
# Elastic Constant Matrix: (Units=GPa)
#
#
# Indices 1 2 3 4 5 6 
#
# 1 161.3061 76.1879 37.6886 0.0000 0.0000 0.0000
# 2 76.1879 91.0802 29.5045 0.0000 0.0000 0.0000
# 3 37.6886 29.5045 33.3184 0.0000 0.0000 0.0000
# 4 0.0000 0.0000 0.0000 23.3772 0.0000 0.0000
# 5 0.0000 0.0000 0.0000 0.0000 25.2834 0.0000
# 6 0.0000 0.0000 0.0000 0.0000 0.0000 23.3546
#
#
#
# Elastic Compliance Matrix: (Units=1/GPa)
#
#
# Indices 1 2 3 4 5 6 
#
# 1 0.011055 -0.007287 -0.006053 0.000000 0.000000 0.000000
# 2 -0.007287 0.020199 -0.009644 0.000000 0.000000 0.000000
# 3 -0.006053 -0.009644 0.045400 0.000000 0.000000 0.000000
# 4 0.000000 0.000000 0.000000 0.042777 0.000000 0.000000
# 5 0.000000 0.000000 0.000000 0.000000 0.039552 0.000000
# 6 0.000000 0.000000 0.000000 0.000000 0.000000 0.042818
#
#
# Mechanical properties :
#
#
# Convention : Reuss Voigt Hill
#
# Bulk Modulus (GPa) = 32.58695 63.60741 48.09718
# Shear Modulus (GPa) = 19.38011 23.89131 21.63571
#
# Velocity S-wave (km/s) = 3.26385 3.62386 3.44856
# Velocity P-wave (km/s) = 5.66707 7.24383 6.50341
#
# Compressibility (1/GPa) = 0.03068713
#
# Stress axis : x y z
#
# Youngs Moduli (GPa) = 90.45383 49.50751 22.02651
#
# Poissons Ratio (x) = 0.36076 0.13332
# Poissons Ratio (y) = 0.65914 0.21242
# Poissons Ratio (z) = 0.54747 0.47745
#
# Static dielectric constant tensor:
#      x y z
#    x 1.617990 0.000000 0.000000 
#    y 0.000000 1.627780 0.000000 
#    z 0.000000 0.000000 1.628350 
# 
# From -- ./inp_files/9356.got.cif
#   From: 2010.05.17/outbox.cif.g08.bks.cpg/sg72_5_cif.got.tgz:9356.got - 2010.06.03 17:03:01.
