data_PCOD9526217
_publ_section_title
;
Structure prediction by ZEFSAII (Michael W. Deem and Ramdas Pophale) SiO2 
 PCOD9526217
Probable space group: I B A M
;
_chemical_formula_sum "Si O2"
_cell_formula_units_Z 88
_cell_length_a 27.672592
_cell_length_b 5.164538
_cell_length_c 31.653188
_cell_angle_alpha 90.000000
_cell_angle_beta 90.000000
_cell_angle_gamma 90.000000
_cell_volume 4523.751857
_symmetry_space_group_name_H-M "I B A M"
_symmetry_group_IT_number 72
_symmetry_cell_setting 'orthorhombic'
loop_
_space_group_symop_operation_xyz
x,y,z
-x,-y,z
x,-y,1/2-z
-x,y,1/2-z
-x,-y,-z
x,y,-z
-x,y,1/2+z
x,-y,1/2+z
1/2+x,1/2+y,1/2+z
1/2-x,1/2-y,1/2+z
1/2+x,1/2-y,-z
1/2-x,1/2+y,-z
1/2-x,1/2-y,1/2-z
1/2+x,1/2+y,1/2-z
1/2-x,1/2+y,z
1/2+x,1/2-y,z
loop_
_atom_site_type_symbol
_atom_site_label
_atom_site_fract_x
_atom_site_fract_y
_atom_site_fract_z
Si Si1 0.630164 0.476654 0.848056
Si Si2 0.096504 0.541823 0.799816
Si Si3 0.465327 0.248190 0.500000
Si Si4 0.050638 0.856433 0.590280
Si Si5 0.782653 0.135605 0.408540
Si Si6 0.782178 0.033965 0.500000
Si Si7 0.000000 0.500000 0.342385
O O1 0.612854 0.227750 0.821346
O O2 0.591866 0.518871 0.886552
O O3 0.680254 0.416208 0.871082
O O4 0.629030 0.727821 0.818593
O O5 0.099778 0.500000 0.750000
O O6 0.040996 0.621912 0.812216
O O7 0.500000 0.500000 0.500000
O O8 0.436055 0.251784 0.456006
O O9 0.500000 0.000000 0.500000
O O10 0.034370 0.649365 0.624982
O O11 0.000000 0.000000 0.584421
O O12 0.740067 0.921425 0.406615
O O13 0.806594 0.091681 0.455005
O O14 0.762715 0.739587 0.500000
#
# Coordination Sequence:
#
# PCOD9526217 Si02
#       7
#    16  16   8  16  16   8   8
#     4  11  23  37  62  86 114 154 193 240 296 351
#     4  11  23  39  59  85 115 146 192 247 301 354
#     4  10  20  31  52  77 118 168 196 224 264 322
#     4  10  19  35  53  82 122 154 194 231 273 340
#     4  10  20  38  61  87 120 153 193 237 288 341
#     4   8  16  31  56  85 115 146 181 236 282 322
#     4  10  19  35  58  80 116 152 192 235 295 342
#
# _framework density 19.452881000000001
#
# number of rings (size 3 to 8) (size 9 to 14) (size 15 to 20)
#    0.000    1.818    2.727    1.909    0.000    0.727 
#    0.000    1.818    0.000   17.455    0.000    0.000 
#    0.000    0.000    0.000    0.000    0.000    0.000 
#
# Total GULP energy -245017.666887 kJ/mol
# GULP energy per Si atom -5568.583338 kJ/mol
# Density = 1.940861 g / cm^3
# Si number density = 19.452881 Si / 1000 Ang^3
#
#
#
# Elastic Constant Matrix: (Units=GPa)
#
#
# Indices 1 2 3 4 5 6 
#
# 1 29.1056 -9.0488 31.8372 0.0000 0.0000 0.0000
# 2 -9.0488 75.2991 28.4284 0.0000 0.0000 0.0000
# 3 31.8372 28.4284 175.7413 0.0000 0.0000 0.0000
# 4 0.0000 0.0000 0.0000 29.5917 0.0000 0.0000
# 5 0.0000 0.0000 0.0000 0.0000 14.6382 0.0000
# 6 0.0000 0.0000 0.0000 0.0000 0.0000 15.4426
#
#
#
# Elastic Compliance Matrix: (Units=1/GPa)
#
#
# Indices 1 2 3 4 5 6 
#
# 1 0.048813 0.009803 -0.010429 0.000000 0.000000 0.000000
# 2 0.009803 0.016113 -0.004382 0.000000 0.000000 0.000000
# 3 -0.010429 -0.004382 0.008288 0.000000 0.000000 0.000000
# 4 0.000000 0.000000 0.000000 0.033793 0.000000 0.000000
# 5 0.000000 0.000000 0.000000 0.000000 0.068315 0.000000
# 6 0.000000 0.000000 0.000000 0.000000 0.000000 0.064756
#
#
# Mechanical properties :
#
#
# Convention : Reuss Voigt Hill
#
# Bulk Modulus (GPa) = 15.82321 42.50883 29.16602
# Shear Modulus (GPa) = 18.43931 27.19644 22.81788
#
# Velocity S-wave (km/s) = 3.08213 3.74313 3.42860
# Velocity P-wave (km/s) = 4.56266 6.37032 5.54071
#
# Compressibility (1/GPa) = 0.06319830
#
# Stress axis : x y z
#
# Youngs Moduli (GPa) = 20.48643 62.06173 120.65128
#
# Poissons Ratio (x) = -0.60840 1.25823
# Poissons Ratio (y) = -0.20083 0.52874
# Poissons Ratio (z) = 0.21365 0.27198
#
# Static dielectric constant tensor:
#      x y z
#    x 1.671520 0.000000 0.000000 
#    y 0.000000 1.592730 0.000000 
#    z 0.000000 0.000000 1.784040 
# 
# From -- ./inp_files/50330.got.cif
#   From: 2010.05.17/outbox.cif.g08.bks.cpg/sg72_26_cif.got.tgz:50330.got - 2010.06.03 17:03:01.
