data_PCOD9526577
_publ_section_title
;
Structure prediction by ZEFSAII (Michael W. Deem and Ramdas Pophale) SiO2 
 PCOD9526577
Probable space group: I B A M
;
_chemical_formula_sum "Si O2"
_cell_formula_units_Z 88
_cell_length_a 16.687823
_cell_length_b 28.516531
_cell_length_c 9.319166
_cell_angle_alpha 90.000000
_cell_angle_beta 90.000000
_cell_angle_gamma 90.000000
_cell_volume 4434.793737
_symmetry_space_group_name_H-M "I B A M"
_symmetry_group_IT_number 72
_symmetry_cell_setting 'orthorhombic'
loop_
_space_group_symop_operation_xyz
x,y,z
-x,-y,z
x,-y,1/2-z
-x,y,1/2-z
-x,-y,-z
x,y,-z
-x,y,1/2+z
x,-y,1/2+z
1/2+x,1/2+y,1/2+z
1/2-x,1/2-y,1/2+z
1/2+x,1/2-y,-z
1/2-x,1/2+y,-z
1/2-x,1/2-y,1/2-z
1/2+x,1/2+y,1/2-z
1/2-x,1/2+y,z
1/2+x,1/2-y,z
loop_
_atom_site_type_symbol
_atom_site_label
_atom_site_fract_x
_atom_site_fract_y
_atom_site_fract_z
Si Si1 0.258195 0.606365 0.326770
Si Si2 0.000000 0.625372 0.750000
Si Si3 0.388286 0.956072 0.840919
Si Si4 0.345305 0.183828 0.833064
Si Si5 0.083664 0.877438 0.668127
Si Si6 0.416039 0.734040 0.832435
O O1 0.262593 0.611518 0.500000
O O2 0.197028 0.564317 0.291919
O O3 0.216497 0.651540 0.253847
O O4 0.343946 0.599226 0.254558
O O5 0.052400 0.588512 0.658771
O O6 0.067343 0.657808 0.823677
O O7 0.414767 0.000000 0.750000
O O8 0.379464 0.974165 0.000000
O O9 0.354660 0.233246 0.752664
O O10 0.323013 0.188579 0.000000
O O11 0.079666 0.890675 0.500000
O O12 0.100663 0.821302 0.672728
O O13 0.000000 0.885361 0.750000
O O14 0.500000 0.740385 0.750000
O O15 0.421851 0.748232 0.000000
#
# Coordination Sequence:
#
# PCOD9526577 Si02
#       6
#    16   8  16  16  16  16
#     4  10  22  39  57  80 111 144 184 233 283 336
#     4  10  21  34  54  82 116 154 200 232 269 326
#     4  10  22  38  57  83 114 148 186 231 281 333
#     4  11  21  33  53  78 111 153 195 235 277 324
#     4  10  21  38  60  84 109 142 184 229 284 342
#     4  10  20  33  51  77 110 147 189 234 276 326
#
# _framework density 19.843087000000001
#
# number of rings (size 3 to 8) (size 9 to 14) (size 15 to 20)
#    0.000    1.818    0.909    3.000    0.000    9.455 
#    0.000    0.000    0.000    0.545    0.000    3.818 
#    0.000    0.000    0.000    0.000    0.000    0.000 
#
# Total GULP energy -245619.012552 kJ/mol
# GULP energy per Si atom -5582.250285 kJ/mol
# Density = 1.979792 g / cm^3
# Si number density = 19.843087 Si / 1000 Ang^3
#
#
#
# Elastic Constant Matrix: (Units=GPa)
#
#
# Indices 1 2 3 4 5 6 
#
# 1 130.1439 19.8594 49.2012 -0.0002 -0.0003 0.0000
# 2 19.8594 23.1577 24.2861 0.0000 -0.0002 0.0000
# 3 49.2012 24.2861 115.3442 0.0006 0.0012 -0.0099
# 4 -0.0002 0.0000 0.0006 11.1068 0.0002 -0.0018
# 5 -0.0003 -0.0002 0.0012 0.0002 13.7926 -0.0016
# 6 0.0000 0.0000 -0.0099 -0.0018 -0.0016 81.4530
#
#
#
# Elastic Compliance Matrix: (Units=1/GPa)
#
#
# Indices 1 2 3 4 5 6 
#
# 1 0.009601 -0.005055 -0.003031 0.000000 0.000000 0.000000
# 2 -0.005055 0.058081 -0.010073 0.000001 0.000001 -0.000001
# 3 -0.003031 -0.010073 0.012084 -0.000001 -0.000001 0.000001
# 4 0.000000 0.000001 -0.000001 0.090035 -0.000002 0.000002
# 5 0.000000 0.000001 -0.000001 -0.000002 0.072503 0.000001
# 6 0.000000 -0.000001 0.000001 0.000002 0.000001 0.012277
#
#
# Mechanical properties :
#
#
# Convention : Reuss Voigt Hill
#
# Bulk Modulus (GPa) = 23.01612 50.59324 36.80468
# Shear Modulus (GPa) = 16.37300 32.95708 24.66504
#
# Velocity S-wave (km/s) = 2.87561 4.07982 3.52945
# Velocity P-wave (km/s) = 4.75918 6.90979 5.93275
#
# Compressibility (1/GPa) = 0.04344780
#
# Stress axis : x y z
#
# Youngs Moduli (GPa) = 104.15510 17.21734 82.75714
#
# Poissons Ratio (x) = 0.08703 0.25085
# Poissons Ratio (y) = 0.52648 0.83361
# Poissons Ratio (z) = 0.31571 0.17343
#
# Static dielectric constant tensor:
#      x y z
#    x 1.730650 0.000000 0.000000 
#    y 0.000000 1.612130 0.000000 
#    z 0.000000 0.000000 1.674860 
# 
# From -- ./inp_files/5113.got.cif
#   From: 2010.05.17/outbox.cif.g08.bks.cpg/sg72_3_cif.got.tgz:5113.got - 2010.06.03 17:03:01.
