data_PCOD9526340
_publ_section_title
;
Structure prediction by ZEFSAII (Michael W. Deem and Ramdas Pophale) SiO2 
 PCOD9526340
Probable space group: I B A M
;
_chemical_formula_sum "Si O2"
_cell_formula_units_Z 96
_cell_length_a 13.042190
_cell_length_b 15.586414
_cell_length_c 23.843582
_cell_angle_alpha 90.000000
_cell_angle_beta 90.000000
_cell_angle_gamma 90.000000
_cell_volume 4846.946544
_symmetry_space_group_name_H-M "I B A M"
_symmetry_group_IT_number 72
_symmetry_cell_setting 'orthorhombic'
loop_
_space_group_symop_operation_xyz
x,y,z
-x,-y,z
x,-y,1/2-z
-x,y,1/2-z
-x,-y,-z
x,y,-z
-x,y,1/2+z
x,-y,1/2+z
1/2+x,1/2+y,1/2+z
1/2-x,1/2-y,1/2+z
1/2+x,1/2-y,-z
1/2-x,1/2+y,-z
1/2-x,1/2-y,1/2-z
1/2+x,1/2+y,1/2-z
1/2-x,1/2+y,z
1/2+x,1/2-y,z
loop_
_atom_site_type_symbol
_atom_site_label
_atom_site_fract_x
_atom_site_fract_y
_atom_site_fract_z
Si Si1 0.890550 0.027949 0.167886
Si Si2 0.918967 0.671524 0.435890
Si Si3 0.654949 0.631274 0.936975
Si Si4 0.204547 0.403439 0.234584
Si Si5 0.138132 0.678313 0.377846
Si Si6 0.757982 0.858696 0.147299
O O1 0.905156 0.079369 0.110191
O O2 0.820369 0.083698 0.210001
O O3 0.825033 0.943708 0.153527
O O4 0.000000 0.000000 0.189854
O O5 0.920445 0.639973 0.500000
O O6 0.886672 0.771735 0.437205
O O7 0.831889 0.628223 0.397804
O O8 0.029743 0.666848 0.407410
O O9 0.772214 0.635486 0.915314
O O10 0.647758 0.596628 0.000000
O O11 0.169114 0.500000 0.250000
O O12 0.141026 0.363931 0.183712
O O13 0.208551 0.347106 0.290782
O O14 0.173498 0.777206 0.369937
#
# Coordination Sequence:
#
# PCOD9526340 Si02
#       6
#    16  16  16  16  16  16
#     4  10  20  36  57  83 113 144 179 225 281 335
#     4  10  21  37  57  81 110 147 189 231 274 323
#     4   9  19  35  54  80 114 147 184 229 275 328
#     4   9  20  37  55  81 115 145 181 228 278 333
#     4  10  19  36  59  80 109 149 188 227 275 329
#     4  10  21  36  56  86 114 140 183 230 274 331
#
# _framework density 19.806284000000002
#
# number of rings (size 3 to 8) (size 9 to 14) (size 15 to 20)
#    0.000    2.333    0.000    2.000    0.000    5.333 
#    0.000   11.667    0.000   10.000    0.000    0.000 
#    0.000    0.000    0.000    0.000    0.000    0.000 
#
# Total GULP energy -268017.257915 kJ/mol
# GULP energy per Si atom -5583.692873 kJ/mol
# Density = 1.976120 g / cm^3
# Si number density = 19.806284 Si / 1000 Ang^3
#
#
#
# Elastic Constant Matrix: (Units=GPa)
#
#
# Indices 1 2 3 4 5 6 
#
# 1 120.8874 13.2467 61.9854 0.0000 0.0000 0.0000
# 2 13.2467 13.3908 13.0567 0.0000 0.0000 0.0000
# 3 61.9854 13.0567 160.8159 0.0000 0.0000 0.0000
# 4 0.0000 0.0000 0.0000 18.6481 0.0000 0.0000
# 5 0.0000 0.0000 0.0000 0.0000 15.7106 0.0000
# 6 0.0000 0.0000 0.0000 0.0000 0.0000 18.6563
#
#
#
# Elastic Compliance Matrix: (Units=1/GPa)
#
#
# Indices 1 2 3 4 5 6 
#
# 1 0.010926 -0.007278 -0.003620 0.000000 0.000000 0.000000
# 2 -0.007278 0.085946 -0.004173 0.000000 0.000000 0.000000
# 3 -0.003620 -0.004173 0.007953 0.000000 0.000000 0.000000
# 4 0.000000 0.000000 0.000000 0.053625 0.000000 0.000000
# 5 0.000000 0.000000 0.000000 0.000000 0.063651 0.000000
# 6 0.000000 0.000000 0.000000 0.000000 0.000000 0.053601
#
#
# Mechanical properties :
#
#
# Convention : Reuss Voigt Hill
#
# Bulk Modulus (GPa) = 13.39007 52.40799 32.89903
# Shear Modulus (GPa) = 15.11764 24.39002 19.75383
#
# Velocity S-wave (km/s) = 2.76574 3.51298 3.16151
# Velocity P-wave (km/s) = 4.11999 6.55533 5.47479
#
# Compressibility (1/GPa) = 0.07468218
#
# Stress axis : x y z
#
# Youngs Moduli (GPa) = 91.52373 11.63515 125.74577
#
# Poissons Ratio (x) = 0.08468 0.45526
# Poissons Ratio (y) = 0.66614 0.52469
# Poissons Ratio (z) = 0.33136 0.04855
#
# Static dielectric constant tensor:
#      x y z
#    x 1.672560 0.000000 0.000000 
#    y 0.000000 1.696890 0.000000 
#    z 0.000000 0.000000 1.718700 
# 
# From -- ./inp_files/43347.got.cif
#   From: 2010.05.17/outbox.cif.g08.bks.cpg/sg72_22_cif.got.tgz:43347.got - 2010.06.03 17:03:01.
