data_PCOD9526392
_publ_section_title
;
Structure prediction by ZEFSAII (Michael W. Deem and Ramdas Pophale) SiO2 
 PCOD9526392
Probable space group: I B A M
;
_chemical_formula_sum "Si O2"
_cell_formula_units_Z 108
_cell_length_a 5.625744
_cell_length_b 35.719727
_cell_length_c 27.844990
_cell_angle_alpha 90.000000
_cell_angle_beta 90.000000
_cell_angle_gamma 90.000000
_cell_volume 5595.451850
_symmetry_space_group_name_H-M "I B A M"
_symmetry_group_IT_number 72
_symmetry_cell_setting 'orthorhombic'
loop_
_space_group_symop_operation_xyz
x,y,z
-x,-y,z
x,-y,1/2-z
-x,y,1/2-z
-x,-y,-z
x,y,-z
-x,y,1/2+z
x,-y,1/2+z
1/2+x,1/2+y,1/2+z
1/2-x,1/2-y,1/2+z
1/2+x,1/2-y,-z
1/2-x,1/2+y,-z
1/2-x,1/2-y,1/2-z
1/2+x,1/2+y,1/2-z
1/2-x,1/2+y,z
1/2+x,1/2-y,z
loop_
_atom_site_type_symbol
_atom_site_label
_atom_site_fract_x
_atom_site_fract_y
_atom_site_fract_z
Si Si1 0.746963 0.476798 0.000000
Si Si2 0.280236 0.649468 0.102135
Si Si3 0.623800 0.729744 0.557926
Si Si4 0.659338 0.589170 0.865792
Si Si5 0.982046 0.583622 0.447142
Si Si6 0.836114 0.057099 0.295654
Si Si7 0.500000 0.000000 0.750000
Si Si8 0.966908 0.631487 0.302444
O O1 0.500000 0.500000 0.000000
O O2 0.777305 0.447611 0.044650
O O3 0.000000 0.500000 0.000000
O O4 0.355586 0.688519 0.080051
O O5 0.501874 0.621975 0.111164
O O6 0.116514 0.624342 0.067105
O O7 0.140105 0.654545 0.152802
O O8 0.624322 0.727354 0.500000
O O9 0.369157 0.748396 0.571629
O O10 0.492823 0.557564 0.843233
O O11 0.842503 0.573360 0.904434
O O12 0.801744 0.610050 0.822876
O O13 0.099594 0.585424 0.500000
O O14 0.642392 0.026122 0.286559
O O15 0.717241 0.097751 0.294354
O O16 0.000000 0.052557 0.250000
O O17 0.000000 0.649745 0.250000
#
# Coordination Sequence:
#
# PCOD9526392 Si02
#       8
#     8  16  16  16  16  16   4  16
#     4  10  24  44  72  86 126 180 222 280 348 400
#     4  10  22  36  65  97 131 169 223 271 328 399
#     4  10  23  42  65  99 142 180 212 267 342 403
#     4  10  21  37  65  93 121 165 222 279 324 396
#     4   9  22  38  67  94 123 167 224 280 330 410
#     4  11  20  36  61  81 125 165 212 275 348 410
#     4  12  22  32  60  86 122 176 210 288 358 432
#     4  10  19  37  61  89 123 160 219 266 322 390
#
# _framework density 19.301392
#
# number of rings (size 3 to 8) (size 9 to 14) (size 15 to 20)
#    0.444    1.481    2.222    0.667    6.222    1.185 
#    0.000    0.000   39.111    0.889    0.000    0.519 
#    0.000    0.000    0.000    0.000    0.000    0.000 
#
# Total GULP energy -301004.740076 kJ/mol
# GULP energy per Si atom -5574.161853 kJ/mol
# Density = 1.925746 g / cm^3
# Si number density = 19.301392 Si / 1000 Ang^3
#
#
#
# Elastic Constant Matrix: (Units=GPa)
#
#
# Indices 1 2 3 4 5 6 
#
# 1 92.8347 33.4392 41.7841 0.0000 0.0000 0.0000
# 2 33.4392 69.2239 44.1506 0.0000 0.0000 0.0000
# 3 41.7841 44.1506 87.7797 0.0000 0.0000 0.0000
# 4 0.0000 0.0000 0.0000 -12.8783 0.0000 0.0000
# 5 0.0000 0.0000 0.0000 0.0000 100.2597 0.0000
# 6 0.0000 0.0000 0.0000 0.0000 0.0000 5.1903
#
#
#
# Elastic Compliance Matrix: (Units=1/GPa)
#
#
# Indices 1 2 3 4 5 6 
#
# 1 0.014355 -0.003793 -0.004925 0.000000 0.000000 0.000000
# 2 -0.003793 0.022271 -0.009396 0.000000 0.000000 0.000000
# 3 -0.004925 -0.009396 0.018463 0.000000 0.000000 0.000000
# 4 0.000000 0.000000 0.000000 -0.077650 0.000000 0.000000
# 5 0.000000 0.000000 0.000000 0.000000 0.009974 0.000000
# 6 0.000000 0.000000 0.000000 0.000000 0.000000 0.192665
#
#
# Mechanical properties :
#
#
# Convention : Reuss Voigt Hill
#
# Bulk Modulus (GPa) = 53.02327 54.28734 53.65530
# Shear Modulus (GPa) = 22.46250 27.21197 24.83724
#
# Velocity S-wave (km/s) = 3.41512 3.75886 3.59111
# Velocity P-wave (km/s) = 6.56365 6.85755 6.71221
#
# Compressibility (1/GPa) = 0.01885964
#
# Stress axis : x y z
#
# Youngs Moduli (GPa) = 69.66266 44.90167 54.16328
#
# Poissons Ratio (x) = 0.17031 0.26677
# Poissons Ratio (y) = 0.26422 0.50893
# Poissons Ratio (z) = 0.34311 0.42190
#
# Static dielectric constant tensor:
#      x y z
#    x 1.679230 0.000000 0.000000 
#    y 0.000000 1.632520 0.000000 
#    z 0.000000 0.000000 1.706780 
# 
# From -- ./inp_files/50463.got.cif
#   From: 2010.05.17/outbox.cif.g08.bks.cpg/sg72_26_cif.got.tgz:50463.got - 2010.06.03 17:03:01.
