data_PCOD9526717
_publ_section_title
;
Structure prediction by ZEFSAII (Michael W. Deem and Ramdas Pophale) SiO2 
 PCOD9526717
Probable space group: I B A M
;
_chemical_formula_sum "Si O2"
_cell_formula_units_Z 80
_cell_length_a 27.151609
_cell_length_b 8.702480
_cell_length_c 15.792963
_cell_angle_alpha 90.000000
_cell_angle_beta 90.000000
_cell_angle_gamma 90.000000
_cell_volume 3731.661335
_symmetry_space_group_name_H-M "I B A M"
_symmetry_group_IT_number 72
_symmetry_cell_setting 'orthorhombic'
loop_
_space_group_symop_operation_xyz
x,y,z
-x,-y,z
x,-y,1/2-z
-x,y,1/2-z
-x,-y,-z
x,y,-z
-x,y,1/2+z
x,-y,1/2+z
1/2+x,1/2+y,1/2+z
1/2-x,1/2-y,1/2+z
1/2+x,1/2-y,-z
1/2-x,1/2+y,-z
1/2-x,1/2-y,1/2-z
1/2+x,1/2+y,1/2-z
1/2-x,1/2+y,z
1/2+x,1/2-y,z
loop_
_atom_site_type_symbol
_atom_site_label
_atom_site_fract_x
_atom_site_fract_y
_atom_site_fract_z
Si Si1 0.252530 0.070962 0.000000
Si Si2 0.315822 0.939389 0.845553
Si Si3 0.857693 0.863438 0.195197
Si Si4 0.612957 0.804616 0.139368
Si Si5 0.054000 0.040187 0.599302
Si Si6 0.182282 0.841282 0.000000
O O1 0.278194 0.003949 0.914898
O O2 0.267039 0.247834 0.000000
O O3 0.196286 0.017802 0.000000
O O4 0.321119 0.755308 0.849975
O O5 0.303316 0.000000 0.750000
O O6 0.368735 0.021127 0.867848
O O7 0.881250 0.748746 0.264594
O O8 0.832713 0.000000 0.250000
O O9 0.902283 0.945115 0.145065
O O10 0.563090 0.723937 0.109354
O O11 0.652236 0.712625 0.081125
O O12 0.056419 0.002985 0.500000
O O13 0.000000 0.000000 0.632494
#
# Coordination Sequence:
#
# PCOD9526717 Si02
#       6
#     8  16  16  16  16   8
#     4  10  22  36  60  83 114 154 188 247 286 344
#     4   9  19  38  58  84 115 152 196 233 290 346
#     4   9  19  33  55  83 108 144 185 231 281 337
#     4   9  18  36  56  73 112 150 182 234 284 341
#     4  10  20  34  54  82 114 146 188 239 285 336
#     4  10  20  36  53  81 111 146 195 231 293 340
#
# _framework density 21.438171000000001
#
# number of rings (size 3 to 8) (size 9 to 14) (size 15 to 20)
#    0.000    2.600    1.000    0.000    1.400    6.800 
#    0.000   13.000    0.000    8.400    0.000    0.000 
#    0.000    0.000    0.000    0.000    0.000    0.000 
#
# Total GULP energy -222833.440791 kJ/mol
# GULP energy per Si atom -5570.836020 kJ/mol
# Density = 2.138938 g / cm^3
# Si number density = 21.438171 Si / 1000 Ang^3
#
#
#
# Elastic Constant Matrix: (Units=GPa)
#
#
# Indices 1 2 3 4 5 6 
#
# 1 42.1165 23.1264 14.2648 0.0000 0.0000 0.0000
# 2 23.1264 104.3268 15.1983 0.0000 0.0000 0.0000
# 3 14.2648 15.1983 93.1016 0.0000 0.0000 0.0000
# 4 0.0000 0.0000 0.0000 24.9728 0.0000 0.0000
# 5 0.0000 0.0000 0.0000 0.0000 10.6835 0.0000
# 6 0.0000 0.0000 0.0000 0.0000 0.0000 25.2707
#
#
#
# Elastic Compliance Matrix: (Units=1/GPa)
#
#
# Indices 1 2 3 4 5 6 
#
# 1 0.028024 -0.005723 -0.003360 0.000000 0.000000 0.000000
# 2 -0.005723 0.010987 -0.000917 0.000000 0.000000 0.000000
# 3 -0.003360 -0.000917 0.011405 0.000000 0.000000 0.000000
# 4 0.000000 0.000000 0.000000 0.040044 0.000000 0.000000
# 5 0.000000 0.000000 0.000000 0.000000 0.093602 0.000000
# 6 0.000000 0.000000 0.000000 0.000000 0.000000 0.039571
#
#
# Mechanical properties :
#
#
# Convention : Reuss Voigt Hill
#
# Bulk Modulus (GPa) = 32.87473 38.30265 35.58869
# Shear Modulus (GPa) = 19.70274 24.64910 22.17592
#
# Velocity S-wave (km/s) = 3.03487 3.39451 3.21972
# Velocity P-wave (km/s) = 5.25819 5.76793 5.51895
#
# Compressibility (1/GPa) = 0.03041850
#
# Stress axis : x y z
#
# Youngs Moduli (GPa) = 35.68383 91.01343 87.67803
#
# Poissons Ratio (x) = 0.52084 0.29456
# Poissons Ratio (y) = 0.20421 0.08038
# Poissons Ratio (z) = 0.11988 0.08344
#
# Static dielectric constant tensor:
#      x y z
#    x 1.813740 0.000000 0.000000 
#    y 0.000000 1.834980 0.000000 
#    z 0.000000 0.000000 1.826050 
# 
# From -- ./inp_files/28204.got.cif
#   From: 2010.05.17/outbox.cif.g08.bks.cpg/sg72_15_cif.got.tgz:28204.got - 2010.06.03 17:03:01.
