data_PCOD9526299
_publ_section_title
;
Structure prediction by ZEFSAII (Michael W. Deem and Ramdas Pophale) SiO2 
 PCOD9526299
Probable space group: I B A M
;
_chemical_formula_sum "Si O2"
_cell_formula_units_Z 96
_cell_length_a 15.821684
_cell_length_b 13.355155
_cell_length_c 23.501444
_cell_angle_alpha 90.000000
_cell_angle_beta 90.000000
_cell_angle_gamma 90.000000
_cell_volume 4965.879610
_symmetry_space_group_name_H-M "I B A M"
_symmetry_group_IT_number 72
_symmetry_cell_setting 'orthorhombic'
loop_
_space_group_symop_operation_xyz
x,y,z
-x,-y,z
x,-y,1/2-z
-x,y,1/2-z
-x,-y,-z
x,y,-z
-x,y,1/2+z
x,-y,1/2+z
1/2+x,1/2+y,1/2+z
1/2-x,1/2-y,1/2+z
1/2+x,1/2-y,-z
1/2-x,1/2+y,-z
1/2-x,1/2-y,1/2-z
1/2+x,1/2+y,1/2-z
1/2-x,1/2+y,z
1/2+x,1/2-y,z
loop_
_atom_site_type_symbol
_atom_site_label
_atom_site_fract_x
_atom_site_fract_y
_atom_site_fract_z
Si Si1 0.842035 0.738728 0.431991
Si Si2 0.063537 0.208795 0.793954
Si Si3 0.943801 0.915466 0.371498
Si Si4 0.400717 0.015765 0.931457
Si Si5 0.304838 0.408177 0.784586
Si Si6 0.319351 0.174593 0.628247
O O1 0.844002 0.743178 0.500000
O O2 0.906312 0.822999 0.407537
O O3 0.870362 0.627025 0.414072
O O4 0.747451 0.764304 0.410200
O O5 0.137699 0.159824 0.756377
O O6 0.099459 0.267840 0.848022
O O7 0.000000 0.264665 0.750000
O O8 0.005935 0.123679 0.822229
O O9 0.862340 0.952212 0.336064
O O10 0.000000 0.000000 0.402522
O O11 0.500000 0.000000 0.918500
O O12 0.347137 0.927594 0.902365
O O13 0.390976 0.008123 0.000000
O O14 0.268641 0.500000 0.750000
O O15 0.232488 0.346908 0.814520
#
# Coordination Sequence:
#
# PCOD9526299 Si02
#       6
#    16  16  16  16  16  16
#     4  10  23  40  61  92 122 153 204 259 307 365
#     4  10  21  37  59  86 119 157 202 241 295 362
#     4  10  19  35  63  85 114 154 195 243 296 358
#     4  10  22  43  65  86 121 165 203 252 318 371
#     4  10  20  35  56  84 119 155 189 237 296 358
#     4  11  23  38  61  86 118 159 201 249 299 358
#
# _framework density 19.331924000000001
#
# number of rings (size 3 to 8) (size 9 to 14) (size 15 to 20)
#    0.000    1.833    1.667    2.000    2.333    0.333 
#    3.000    0.833    0.000    0.000    0.000    0.000 
#    0.000    0.000    0.000    0.000    0.000    0.000 
#
# Total GULP energy -267598.214944 kJ/mol
# GULP energy per Si atom -5574.962811 kJ/mol
# Density = 1.928792 g / cm^3
# Si number density = 19.331924 Si / 1000 Ang^3
#
#
#
# Elastic Constant Matrix: (Units=GPa)
#
#
# Indices 1 2 3 4 5 6 
#
# 1 75.5185 40.5308 20.1976 0.0000 0.0000 0.0000
# 2 40.5308 93.1605 32.9209 0.0000 0.0000 0.0000
# 3 20.1976 32.9209 55.2023 0.0000 0.0000 0.0000
# 4 0.0000 0.0000 0.0000 29.1715 0.0000 0.0000
# 5 0.0000 0.0000 0.0000 0.0000 29.4522 0.0000
# 6 0.0000 0.0000 0.0000 0.0000 0.0000 35.4631
#
#
#
# Elastic Compliance Matrix: (Units=1/GPa)
#
#
# Indices 1 2 3 4 5 6 
#
# 1 0.017515 -0.006786 -0.002362 0.000000 0.000000 0.000000
# 2 -0.006786 0.016229 -0.007196 0.000000 0.000000 0.000000
# 3 -0.002362 -0.007196 0.023271 0.000000 0.000000 0.000000
# 4 0.000000 0.000000 0.000000 0.034280 0.000000 0.000000
# 5 0.000000 0.000000 0.000000 0.000000 0.033953 0.000000
# 6 0.000000 0.000000 0.000000 0.000000 0.000000 0.028198
#
#
# Mechanical properties :
#
#
# Convention : Reuss Voigt Hill
#
# Bulk Modulus (GPa) = 41.10385 45.68666 43.39526
# Shear Modulus (GPa) = 25.74096 27.49951 26.62023
#
# Velocity S-wave (km/s) = 3.65297 3.77569 3.71483
# Velocity P-wave (km/s) = 6.25304 6.53390 6.39501
#
# Compressibility (1/GPa) = 0.02432862
#
# Stress axis : x y z
#
# Youngs Moduli (GPa) = 57.09289 61.61729 42.97249
#
# Poissons Ratio (x) = 0.41811 0.10149
# Poissons Ratio (y) = 0.38741 0.30922
# Poissons Ratio (z) = 0.13484 0.44339
#
# Static dielectric constant tensor:
#      x y z
#    x 1.713000 0.000000 0.000000 
#    y 0.000000 1.708500 0.000000 
#    z 0.000000 0.000000 1.675990 
# 
# From -- ./inp_files/38056.got.cif
#   From: 2010.05.17/outbox.cif.g08.bks.cpg/sg72_20_cif.got.tgz:38056.got - 2010.06.03 17:03:01.
