data_PCOD9526790
_publ_section_title
;
Structure prediction by ZEFSAII (Michael W. Deem and Ramdas Pophale) SiO2 
 PCOD9526790
Probable space group: I B A M
;
_chemical_formula_sum "Si O2"
_cell_formula_units_Z 116
_cell_length_a 14.624733
_cell_length_b 14.597889
_cell_length_c 23.988979
_cell_angle_alpha 90.000000
_cell_angle_beta 90.000000
_cell_angle_gamma 90.000000
_cell_volume 5121.412620
_symmetry_space_group_name_H-M "I B A M"
_symmetry_group_IT_number 72
_symmetry_cell_setting 'orthorhombic'
loop_
_space_group_symop_operation_xyz
x,y,z
-x,-y,z
x,-y,1/2-z
-x,y,1/2-z
-x,-y,-z
x,y,-z
-x,y,1/2+z
x,-y,1/2+z
1/2+x,1/2+y,1/2+z
1/2-x,1/2-y,1/2+z
1/2+x,1/2-y,-z
1/2-x,1/2+y,-z
1/2-x,1/2-y,1/2-z
1/2+x,1/2+y,1/2-z
1/2-x,1/2+y,z
1/2+x,1/2-y,z
loop_
_atom_site_type_symbol
_atom_site_label
_atom_site_fract_x
_atom_site_fract_y
_atom_site_fract_z
Si Si1 0.649878 0.849987 0.353620
Si Si2 0.000000 0.000000 0.250000
Si Si3 0.682538 0.152000 0.437231
Si Si4 0.347866 0.360626 0.364629
Si Si5 0.449439 0.619151 0.346735
Si Si6 0.704704 0.624711 0.936078
Si Si7 0.779364 0.393132 0.239275
Si Si8 0.447148 0.839367 0.337040
O O1 0.635487 0.746856 0.374297
O O2 0.701694 0.900320 0.403710
O O3 0.717489 0.847583 0.300265
O O4 0.549174 0.880175 0.334579
O O5 0.938521 0.935677 0.289282
O O6 0.667502 0.121870 0.500000
O O7 0.773563 0.109278 0.409859
O O8 0.697353 0.263123 0.437431
O O9 0.598413 0.135228 0.396086
O O10 0.447221 0.404090 0.365671
O O11 0.299490 0.367795 0.304410
O O12 0.377215 0.597669 0.394715
O O13 0.448219 0.728126 0.333784
O O14 0.699207 0.593338 0.000000
O O15 0.774830 0.500000 0.250000
O O16 0.875644 0.370890 0.209390
#
# Coordination Sequence:
#
# PCOD9526790 Si02
#       8
#    16   4  16  16  16  16  16  16
#     4  10  20  34  58  83 117 159 203 244 305 366
#     4  12  28  36  62  88 118 162 216 254 304 380
#     4   8  15  32  58  87 116 150 204 253 298 366
#     4   9  20  35  55  87 116 156 195 251 311 361
#     4  10  23  38  58  87 123 160 205 254 311 372
#     4   9  19  37  58  84 119 160 204 252 302 364
#     4  11  23  36  59  87 122 159 201 250 305 374
#     4   9  20  37  57  88 124 163 196 252 318 366
#
# _framework density 22.649999999999999
#
# number of rings (size 3 to 8) (size 9 to 14) (size 15 to 20)
#    0.000    2.483    0.000    1.655    6.759    2.207 
#    0.000    5.862    0.000    6.621    0.000    4.828 
#    0.000    0.000    0.000    0.000    0.000    0.000 
#
# Total GULP energy -324257.094839 kJ/mol
# GULP energy per Si atom -5590.639566 kJ/mol
# Density = 2.259845 g / cm^3
# Si number density = 22.650000 Si / 1000 Ang^3
#
#
#
# Elastic Constant Matrix: (Units=GPa)
#
#
# Indices 1 2 3 4 5 6 
#
# 1 141.5021 23.2883 60.8144 0.0000 0.0000 0.0000
# 2 23.2883 55.1413 9.8243 0.0000 0.0000 0.0000
# 3 60.8144 9.8243 165.3666 0.0000 0.0000 0.0000
# 4 0.0000 0.0000 0.0000 7.3455 0.0000 0.0000
# 5 0.0000 0.0000 0.0000 0.0000 19.6509 0.0000
# 6 0.0000 0.0000 0.0000 0.0000 0.0000 -9.5755
#
#
#
# Elastic Compliance Matrix: (Units=1/GPa)
#
#
# Indices 1 2 3 4 5 6 
#
# 1 0.008925 -0.003219 -0.003091 0.000000 0.000000 0.000000
# 2 -0.003219 0.019490 0.000026 0.000000 0.000000 0.000000
# 3 -0.003091 0.000026 0.007182 0.000000 0.000000 0.000000
# 4 0.000000 0.000000 0.000000 0.136138 0.000000 0.000000
# 5 0.000000 0.000000 0.000000 0.000000 0.050888 0.000000
# 6 0.000000 0.000000 0.000000 0.000000 0.000000 -0.104434
#
#
# Mechanical properties :
#
#
# Convention : Reuss Voigt Hill
#
# Bulk Modulus (GPa) = 43.42226 61.09601 52.25913
# Shear Modulus (GPa) = 36.11805 21.35639 28.73722
#
# Velocity S-wave (km/s) = 3.99760 3.07398 3.56582
# Velocity P-wave (km/s) = 6.36556 6.29537 6.33056
#
# Compressibility (1/GPa) = 0.02302967
#
# Stress axis : x y z
#
# Youngs Moduli (GPa) = 112.04167 51.30825 139.22929
#
# Poissons Ratio (x) = 0.16515 0.43037
# Poissons Ratio (y) = 0.36064 -0.00360
# Poissons Ratio (z) = 0.34633 -0.00133
#
# Static dielectric constant tensor:
#      x y z
#    x 1.870580 0.000000 0.000000 
#    y 0.000000 1.893440 0.000000 
#    z 0.000000 0.000000 1.809600 
# 
# From -- ./inp_files/44516.got.cif
#   From: 2010.05.17/outbox.cif.g08.bks.cpg/sg72_23_cif.got.tgz:44516.got - 2010.06.03 17:03:01.
