data_PCOD9526194
_publ_section_title
;
Structure prediction by ZEFSAII (Michael W. Deem and Ramdas Pophale) SiO2 
 PCOD9526194
Probable space group: I B A M
;
_chemical_formula_sum "Si O2"
_cell_formula_units_Z 72
_cell_length_a 9.354581
_cell_length_b 23.688522
_cell_length_c 13.984638
_cell_angle_alpha 90.000000
_cell_angle_beta 90.000000
_cell_angle_gamma 90.000000
_cell_volume 3098.942609
_symmetry_space_group_name_H-M "I B A M"
_symmetry_group_IT_number 72
_symmetry_cell_setting 'orthorhombic'
loop_
_space_group_symop_operation_xyz
x,y,z
-x,-y,z
x,-y,1/2-z
-x,y,1/2-z
-x,-y,-z
x,y,-z
-x,y,1/2+z
x,-y,1/2+z
1/2+x,1/2+y,1/2+z
1/2-x,1/2-y,1/2+z
1/2+x,1/2-y,-z
1/2-x,1/2+y,-z
1/2-x,1/2-y,1/2-z
1/2+x,1/2+y,1/2-z
1/2-x,1/2+y,z
1/2+x,1/2-y,z
loop_
_atom_site_type_symbol
_atom_site_label
_atom_site_fract_x
_atom_site_fract_y
_atom_site_fract_z
Si Si1 0.795893 0.371433 0.678717
Si Si2 0.469975 0.563718 0.637794
Si Si3 0.086740 0.765709 0.845774
Si Si4 0.615989 0.140273 0.390683
Si Si5 0.934429 0.840476 0.000000
O O1 0.694927 0.417370 0.628337
O O2 0.709068 0.312495 0.671586
O O3 0.821920 0.384720 0.791296
O O4 0.945920 0.366680 0.624445
O O5 0.500000 0.500000 0.608591
O O6 0.500000 0.568681 0.750000
O O7 0.560994 0.609608 0.582308
O O8 0.147688 0.707164 0.885297
O O9 0.975901 0.793554 0.918018
O O10 0.000000 0.752255 0.750000
O O11 0.658712 0.123809 0.500000
#
# Coordination Sequence:
#
# PCOD9526194 Si02
#       5
#    16  16  16  16   8
#     4  10  22  40  59  90 135 171 223 275 323 391
#     4  10  22  43  68  95 121 158 221 291 351 378
#     4  11  21  38  55  91 137 181 220 263 317 394
#     4  11  23  37  58  91 136 189 219 252 324 405
#     4  10  19  34  60  92 126 164 212 265 323 394
#
# _framework density 23.233730000000001
#
# number of rings (size 3 to 8) (size 9 to 14) (size 15 to 20)
#    0.000    1.556    3.333    3.667    6.222    0.000 
#    8.000    0.000    0.000   10.667    0.000    6.222 
#    0.000    0.000    0.000    0.000    0.000    0.000 
#
# Total GULP energy -200411.036205 kJ/mol
# GULP energy per Si atom -5566.973228 kJ/mol
# Density = 2.318085 g / cm^3
# Si number density = 23.233730 Si / 1000 Ang^3
#
#
#
# Elastic Constant Matrix: (Units=GPa)
#
#
# Indices 1 2 3 4 5 6 
#
# 1 117.0565 68.1842 26.0740 0.0000 0.0000 0.0000
# 2 68.1842 -130.5690 3.6010 -0.0001 0.0001 0.0000
# 3 26.0740 3.6010 166.8869 -0.0005 0.0004 0.0001
# 4 0.0000 -0.0001 -0.0005 18.0854 0.0002 0.0001
# 5 0.0000 0.0001 0.0004 0.0002 -57.0296 0.0000
# 6 0.0000 0.0000 0.0001 0.0001 0.0000 9.2321
#
#
#
# Elastic Compliance Matrix: (Units=1/GPa)
#
#
# Indices 1 2 3 4 5 6 
#
# 1 0.006758 0.003498 -0.001131 0.000000 0.000000 0.000000
# 2 0.003498 -0.005844 -0.000420 0.000000 0.000000 0.000000
# 3 -0.001131 -0.000420 0.006178 0.000000 0.000000 0.000000
# 4 0.000000 0.000000 0.000000 0.055293 0.000000 0.000000
# 5 0.000000 0.000000 0.000000 0.000000 -0.017535 0.000000
# 6 0.000000 0.000000 0.000000 0.000000 0.000000 0.108318
#
#
# Mechanical properties :
#
#
# Convention : Reuss Voigt Hill
#
# Bulk Modulus (GPa) = 91.04494 38.78809 64.91651
# Shear Modulus (GPa) = 32.69325 -2.24142 15.22592
#
# Velocity S-wave (km/s) = 3.75526 -0.98327 2.56273
# Velocity P-wave (km/s) = 7.62065 3.92962 6.06284
#
# Compressibility (1/GPa) = 0.01098359
#
# Stress axis : x y z
#
# Youngs Moduli (GPa) = 147.98311 -171.11909 161.86735
#
# Poissons Ratio (x) = 0.59851 0.18311
# Poissons Ratio (y) = -0.51759 0.06804
# Poissons Ratio (z) = 0.16741 -0.07193
#
# Static dielectric constant tensor:
#      x y z
#    x 1.814390 0.000000 0.000000 
#    y 0.000000 1.815450 0.000000 
#    z 0.000000 0.000000 1.887650 
# 
# From -- ./inp_files/18860.got.cif
#   From: 2010.05.17/outbox.cif.g08.bks.cpg/sg72_10_cif.got.tgz:18860.got - 2010.06.03 17:03:01.
