data_PCOD9526768
_publ_section_title
;
Structure prediction by ZEFSAII (Michael W. Deem and Ramdas Pophale) SiO2 
 PCOD9526768
Probable space group: I B A M
;
_chemical_formula_sum "Si O2"
_cell_formula_units_Z 64
_cell_length_a 12.889317
_cell_length_b 6.707071
_cell_length_c 24.178875
_cell_angle_alpha 90.000000
_cell_angle_beta 90.000000
_cell_angle_gamma 90.000000
_cell_volume 2090.253208
_symmetry_space_group_name_H-M "I B A M"
_symmetry_group_IT_number 72
_symmetry_cell_setting 'orthorhombic'
loop_
_space_group_symop_operation_xyz
x,y,z
-x,-y,z
x,-y,1/2-z
-x,y,1/2-z
-x,-y,-z
x,y,-z
-x,y,1/2+z
x,-y,1/2+z
1/2+x,1/2+y,1/2+z
1/2-x,1/2-y,1/2+z
1/2+x,1/2-y,-z
1/2-x,1/2+y,-z
1/2-x,1/2-y,1/2-z
1/2+x,1/2+y,1/2-z
1/2-x,1/2+y,z
1/2+x,1/2-y,z
loop_
_atom_site_type_symbol
_atom_site_label
_atom_site_fract_x
_atom_site_fract_y
_atom_site_fract_z
Si Si1 0.364204 0.654445 0.683243
Si Si2 0.840807 0.934893 0.560910
Si Si3 0.400924 0.884976 0.080792
Si Si4 0.380275 0.807820 0.793956
O O1 0.284493 0.038091 0.566341
O O2 0.373873 0.678642 0.617291
O O3 0.242934 0.655055 0.698724
O O4 0.398679 0.430204 0.696279
O O5 0.861208 0.849896 0.500000
O O6 0.893529 0.152261 0.563774
O O7 0.405906 0.180852 0.227280
O O8 0.500000 0.000000 0.057805
O O9 0.414383 0.886817 0.146825
#
# Coordination Sequence:
#
# PCOD9526768 Si02
#       4
#    16  16  16  16
#     4   8  14  26  47  80 119 159 209 275 338 405
#     4  10  20  34  56  91 137 192 243 285 350 433
#     4  10  21  38  61  92 137 190 243 300 357 423
#     4   8  14  27  50  81 116 160 214 274 350 409
#
# _framework density 30.618300000000001
#
# number of rings (size 3 to 8) (size 9 to 14) (size 15 to 20)
#    0.000    3.000    0.000    0.750    0.000    2.000 
#    0.000    1.250    0.000    3.000    0.000  350.000 
#    0.000  275.000    0.000    0.500    0.000    4.750 
#
# Total GULP energy -179365.706229 kJ/mol
# GULP energy per Si atom -5605.178320 kJ/mol
# Density = 3.054861 g / cm^3
# Si number density = 30.618300 Si / 1000 Ang^3
#
#
#
# Elastic Constant Matrix: (Units=GPa)
#
#
# Indices 1 2 3 4 5 6 
#
# 1 162.3061 37.7124 48.8842 0.0000 0.0000 0.0000
# 2 37.7124 78.1288 65.6711 0.0000 0.0000 0.0000
# 3 48.8842 65.6711 400.3968 0.0000 0.0000 0.0000
# 4 0.0000 0.0000 0.0000 48.4585 0.0000 0.0000
# 5 0.0000 0.0000 0.0000 0.0000 -19.5777 0.0000
# 6 0.0000 0.0000 0.0000 0.0000 0.0000 51.3696
#
#
#
# Elastic Compliance Matrix: (Units=1/GPa)
#
#
# Indices 1 2 3 4 5 6 
#
# 1 0.006981 -0.003078 -0.000348 0.000000 0.000000 0.000000
# 2 -0.003078 0.016203 -0.002282 0.000000 0.000000 0.000000
# 3 -0.000348 -0.002282 0.002914 0.000000 0.000000 0.000000
# 4 0.000000 0.000000 0.000000 0.020636 0.000000 0.000000
# 5 0.000000 0.000000 0.000000 0.000000 -0.051078 0.000000
# 6 0.000000 0.000000 0.000000 0.000000 0.000000 0.019467
#
#
# Mechanical properties :
#
#
# Convention : Reuss Voigt Hill
#
# Bulk Modulus (GPa) = 68.10010 105.04080 86.57045
# Shear Modulus (GPa) = 159.07895 48.62101 103.84998
#
# Velocity S-wave (km/s) = 7.21584 3.98926 5.83020
# Velocity P-wave (km/s) = 9.57676 7.45654 8.58237
#
# Compressibility (1/GPa) = 0.01468427
#
# Stress axis : x y z
#
# Youngs Moduli (GPa) = 143.24701 61.71761 343.14749
#
# Poissons Ratio (x) = 0.18994 0.11926
# Poissons Ratio (y) = 0.44085 0.78299
# Poissons Ratio (z) = 0.04978 0.14083
#
# Static dielectric constant tensor:
#      x y z
#    x 2.437840 0.000000 0.000000 
#    y 0.000000 2.400650 0.000000 
#    z 0.000000 0.000000 2.253670 
# 
# From -- ./inp_files/44644.got.cif
#   From: 2010.05.17/outbox.cif.g08.bks.cpg/sg72_23_cif.got.tgz:44644.got - 2010.06.03 17:03:01.
