data_PCOD9526279
_publ_section_title
;
Structure prediction by ZEFSAII (Michael W. Deem and Ramdas Pophale) SiO2 
 PCOD9526279
Probable space group: I B A M
;
_chemical_formula_sum "Si O2"
_cell_formula_units_Z 96
_cell_length_a 25.620393
_cell_length_b 7.509896
_cell_length_c 22.430536
_cell_angle_alpha 90.000000
_cell_angle_beta 90.000000
_cell_angle_gamma 90.000000
_cell_volume 4315.780631
_symmetry_space_group_name_H-M "I B A M"
_symmetry_group_IT_number 72
_symmetry_cell_setting 'orthorhombic'
loop_
_space_group_symop_operation_xyz
x,y,z
-x,-y,z
x,-y,1/2-z
-x,y,1/2-z
-x,-y,-z
x,y,-z
-x,y,1/2+z
x,-y,1/2+z
1/2+x,1/2+y,1/2+z
1/2-x,1/2-y,1/2+z
1/2+x,1/2-y,-z
1/2-x,1/2+y,-z
1/2-x,1/2-y,1/2-z
1/2+x,1/2+y,1/2-z
1/2-x,1/2+y,z
1/2+x,1/2-y,z
loop_
_atom_site_type_symbol
_atom_site_label
_atom_site_fract_x
_atom_site_fract_y
_atom_site_fract_z
Si Si1 0.291516 0.236898 0.934377
Si Si2 0.494738 0.214080 0.933630
Si Si3 0.049842 0.117873 0.822400
Si Si4 0.617458 0.072437 0.189684
Si Si5 0.174897 0.673564 0.431169
Si Si6 0.107635 0.803426 0.130166
O O1 0.230642 0.234274 0.919319
O O2 0.333468 0.327844 0.891991
O O3 0.311848 0.035527 0.936859
O O4 0.294982 0.320430 0.000000
O O5 0.531968 0.304111 0.885995
O O6 0.436088 0.285674 0.921695
O O7 0.500000 0.000000 0.927179
O O8 0.511029 0.259559 0.000000
O O9 0.071790 0.292120 0.789612
O O10 0.093689 0.968661 0.828673
O O11 0.000000 0.000000 0.805139
O O12 0.643300 0.174387 0.132009
O O13 0.646585 0.000000 0.250000
O O14 0.599873 0.886512 0.161415
O O15 0.156082 0.724880 0.500000
#
# Coordination Sequence:
#
# PCOD9526279 Si02
#       6
#    16  16  16  16  16  16
#     4   9  18  34  59  90 125 163 211 262 318 380
#     4  10  19  35  59  90 128 166 206 257 323 389
#     4  10  23  40  63  91 121 166 219 264 325 388
#     4  11  24  44  65  90 130 169 215 269 333 388
#     4   9  20  38  62  94 127 168 215 267 326 386
#     4  10  21  38  61  89 125 165 213 265 320 386
#
# _framework density 22.243948
#
# number of rings (size 3 to 8) (size 9 to 14) (size 15 to 20)
#    0.000    2.167    1.667    0.500    2.333    5.667 
#    0.000   12.500    0.000    0.000    0.000    0.000 
#    0.000    0.000    0.000    0.000    0.000    0.000 
#
# Total GULP energy -267282.363958 kJ/mol
# GULP energy per Si atom -5568.382582 kJ/mol
# Density = 2.219332 g / cm^3
# Si number density = 22.243948 Si / 1000 Ang^3
#
#
#
# Elastic Constant Matrix: (Units=GPa)
#
#
# Indices 1 2 3 4 5 6 
#
# 1 65.2094 28.8717 44.2513 0.0000 0.0000 0.0000
# 2 28.8717 86.3493 20.9430 0.0000 0.0000 0.0000
# 3 44.2513 20.9430 118.4915 0.0000 0.0000 0.0000
# 4 0.0000 0.0000 0.0000 -31.1679 0.0000 0.0000
# 5 0.0000 0.0000 0.0000 0.0000 89.9638 0.0000
# 6 0.0000 0.0000 0.0000 0.0000 0.0000 34.3026
#
#
#
# Elastic Compliance Matrix: (Units=1/GPa)
#
#
# Indices 1 2 3 4 5 6 
#
# 1 0.023083 -0.005879 -0.007581 0.000000 0.000000 0.000000
# 2 -0.005879 0.013597 -0.000208 0.000000 0.000000 0.000000
# 3 -0.007581 -0.000208 0.011307 0.000000 0.000000 0.000000
# 4 0.000000 0.000000 0.000000 -0.032084 0.000000 0.000000
# 5 0.000000 0.000000 0.000000 0.000000 0.011116 0.000000
# 6 0.000000 0.000000 0.000000 0.000000 0.000000 0.029152
#
#
# Mechanical properties :
#
#
# Convention : Reuss Voigt Hill
#
# Bulk Modulus (GPa) = 48.42369 50.90914 49.66642
# Shear Modulus (GPa) = 55.31527 30.35199 42.83363
#
# Velocity S-wave (km/s) = 4.99215 3.69793 4.39296
# Velocity P-wave (km/s) = 7.41926 6.41633 6.93595
#
# Compressibility (1/GPa) = 0.02065105
#
# Stress axis : x y z
#
# Youngs Moduli (GPa) = 43.32199 73.54570 88.43756
#
# Poissons Ratio (x) = 0.43239 0.67047
# Poissons Ratio (y) = 0.25470 0.01836
# Poissons Ratio (z) = 0.32844 0.01527
#
# Static dielectric constant tensor:
#      x y z
#    x 1.891160 0.000000 0.000000 
#    y 0.000000 1.799580 0.000000 
#    z 0.000000 0.000000 1.729490 
# 
# From -- ./inp_files/40692.got.cif
#   From: 2010.05.17/outbox.cif.g08.bks.cpg/sg72_21_cif.got.tgz:40692.got - 2010.06.03 17:03:01.
