data_PCOD9526764
_publ_section_title
;
Structure prediction by ZEFSAII (Michael W. Deem and Ramdas Pophale) SiO2 
 PCOD9526764
Probable space group: I B A M
;
_chemical_formula_sum "Si O2"
_cell_formula_units_Z 96
_cell_length_a 26.317140
_cell_length_b 9.904357
_cell_length_c 18.522884
_cell_angle_alpha 90.000000
_cell_angle_beta 90.000000
_cell_angle_gamma 90.000000
_cell_volume 4828.070285
_symmetry_space_group_name_H-M "I B A M"
_symmetry_group_IT_number 72
_symmetry_cell_setting 'orthorhombic'
loop_
_space_group_symop_operation_xyz
x,y,z
-x,-y,z
x,-y,1/2-z
-x,y,1/2-z
-x,-y,-z
x,y,-z
-x,y,1/2+z
x,-y,1/2+z
1/2+x,1/2+y,1/2+z
1/2-x,1/2-y,1/2+z
1/2+x,1/2-y,-z
1/2-x,1/2+y,-z
1/2-x,1/2-y,1/2-z
1/2+x,1/2+y,1/2-z
1/2-x,1/2+y,z
1/2+x,1/2-y,z
loop_
_atom_site_type_symbol
_atom_site_label
_atom_site_fract_x
_atom_site_fract_y
_atom_site_fract_z
Si Si1 0.769568 0.768243 0.915519
Si Si2 0.552275 0.419405 0.817053
Si Si3 0.411212 0.856629 0.779227
Si Si4 0.858411 0.013476 0.584945
Si Si5 0.664323 0.223653 0.349142
Si Si6 0.647051 0.053617 0.080861
O O1 0.725374 0.780591 0.856679
O O2 0.797582 0.623192 0.911193
O O3 0.812464 0.881542 0.902861
O O4 0.751487 0.782143 0.000000
O O5 0.500000 0.500000 0.830673
O O6 0.577040 0.500000 0.750000
O O7 0.549852 0.265691 0.789960
O O8 0.589591 0.426258 0.884307
O O9 0.365212 0.811482 0.724998
O O10 0.387391 0.884518 0.857189
O O11 0.431315 0.000000 0.750000
O O12 0.861262 0.990166 0.500000
O O13 0.850081 0.871719 0.624265
O O14 0.648078 0.105426 0.404446
O O15 0.629789 0.085615 0.000000
#
# Coordination Sequence:
#
# PCOD9526764 Si02
#       6
#    16  16  16  16  16  16
#     4  10  20  34  56  87 126 171 213 252 310 378
#     4  11  23  44  67  89 122 162 207 270 334 374
#     4  10  22  40  63  93 122 159 211 255 315 388
#     4  11  22  38  63  94 128 168 216 263 314 381
#     4  11  21  35  57  88 127 169 211 256 305 376
#     4  10  20  36  56  81 124 167 204 257 312 364
#
# _framework density 19.883721000000001
#
# number of rings (size 3 to 8) (size 9 to 14) (size 15 to 20)
#    0.000    1.500    3.333    2.500    0.000    3.667 
#    0.000    4.167    0.000    0.000    0.000    3.500 
#    0.000    0.000    0.000    0.000    0.000    0.000 
#
# Total GULP energy -267850.859150 kJ/mol
# GULP energy per Si atom -5580.226232 kJ/mol
# Density = 1.983846 g / cm^3
# Si number density = 19.883721 Si / 1000 Ang^3
#
#
#
# Elastic Constant Matrix: (Units=GPa)
#
#
# Indices 1 2 3 4 5 6 
#
# 1 91.2766 46.1786 44.2825 0.0000 0.0000 0.0000
# 2 46.1786 137.5689 32.8492 0.0000 0.0000 0.0000
# 3 44.2825 32.8492 87.4134 0.0000 0.0000 0.0000
# 4 0.0000 0.0000 0.0000 23.6517 0.0000 0.0000
# 5 0.0000 0.0000 0.0000 0.0000 13.2457 0.0000
# 6 0.0000 0.0000 0.0000 0.0000 0.0000 45.4774
#
#
#
# Elastic Compliance Matrix: (Units=1/GPa)
#
#
# Indices 1 2 3 4 5 6 
#
# 1 0.016161 -0.003812 -0.006755 0.000000 0.000000 0.000000
# 2 -0.003812 0.008885 -0.001408 0.000000 0.000000 0.000000
# 3 -0.006755 -0.001408 0.015391 0.000000 0.000000 0.000000
# 4 0.000000 0.000000 0.000000 0.042280 0.000000 0.000000
# 5 0.000000 0.000000 0.000000 0.000000 0.075496 0.000000
# 6 0.000000 0.000000 0.000000 0.000000 0.000000 0.021989
#
#
# Mechanical properties :
#
#
# Convention : Reuss Voigt Hill
#
# Bulk Modulus (GPa) = 60.64971 62.54218 61.59595
# Shear Modulus (GPa) = 23.84961 29.33818 26.59390
#
# Velocity S-wave (km/s) = 3.46707 3.84537 3.66111
# Velocity P-wave (km/s) = 6.82612 7.15808 6.99407
#
# Compressibility (1/GPa) = 0.01648812
#
# Stress axis : x y z
#
# Youngs Moduli (GPa) = 61.87630 112.55115 64.97442
#
# Poissons Ratio (x) = 0.42905 0.43887
# Poissons Ratio (y) = 0.23588 0.09146
# Poissons Ratio (z) = 0.41795 0.15844
#
# Static dielectric constant tensor:
#      x y z
#    x 1.707800 0.000000 0.000000 
#    y 0.000000 1.737260 0.000000 
#    z 0.000000 0.000000 1.687010 
# 
# From -- ./inp_files/40679.got.cif
#   From: 2010.05.17/outbox.cif.g08.bks.cpg/sg72_21_cif.got.tgz:40679.got - 2010.06.03 17:03:01.
