data_PCOD9526923
_publ_section_title
;
Structure prediction by ZEFSAII (Michael W. Deem and Ramdas Pophale) SiO2 
 PCOD9526923
Probable space group: I B A M
;
_chemical_formula_sum "Si O2"
_cell_formula_units_Z 72
_cell_length_a 20.415680
_cell_length_b 9.264283
_cell_length_c 18.625235
_cell_angle_alpha 90.000000
_cell_angle_beta 90.000000
_cell_angle_gamma 90.000000
_cell_volume 3522.714314
_symmetry_space_group_name_H-M "I B A M"
_symmetry_group_IT_number 72
_symmetry_cell_setting 'orthorhombic'
loop_
_space_group_symop_operation_xyz
x,y,z
-x,-y,z
x,-y,1/2-z
-x,y,1/2-z
-x,-y,-z
x,y,-z
-x,y,1/2+z
x,-y,1/2+z
1/2+x,1/2+y,1/2+z
1/2-x,1/2-y,1/2+z
1/2+x,1/2-y,-z
1/2-x,1/2+y,-z
1/2-x,1/2-y,1/2-z
1/2+x,1/2+y,1/2-z
1/2-x,1/2+y,z
1/2+x,1/2-y,z
loop_
_atom_site_type_symbol
_atom_site_label
_atom_site_fract_x
_atom_site_fract_y
_atom_site_fract_z
Si Si1 0.854016 0.180566 0.413418
Si Si2 0.735114 0.000000 0.750000
Si Si3 0.408616 0.374012 0.083985
Si Si4 0.212374 0.745694 0.847187
Si Si5 0.019754 0.341513 0.912311
O O1 0.846855 0.173146 0.500000
O O2 0.783085 0.208854 0.380643
O O3 0.905627 0.304409 0.394526
O O4 0.888809 0.032182 0.388350
O O5 0.777521 0.113774 0.796689
O O6 0.694206 0.105500 0.699104
O O7 0.343303 0.280047 0.095672
O O8 0.470000 0.283815 0.113609
O O9 0.422444 0.395479 0.000000
O O10 0.000000 0.500000 0.887440
O O11 0.015453 0.340729 0.000000
#
# Coordination Sequence:
#
# PCOD9526923 Si02
#       5
#    16   8  16  16  16
#     4  10  20  35  58  87 117 146 178 225 284 338
#     4  10  24  38  58  76 112 150 194 232 280 314
#     4  10  20  35  58  87 117 146 178 225 284 338
#     4  11  21  40  58  84 107 149 192 236 270 331
#     4   9  19  33  53  84 119 148 175 218 282 343
#
# _framework density 20.438784999999999
#
# number of rings (size 3 to 8) (size 9 to 14) (size 15 to 20)
#    0.000    2.000    2.222    1.333    3.111    2.667 
#    0.000    0.000    0.000    8.000    0.000    0.000 
#    0.000    0.000    0.000    0.000    0.000    0.000 
#
# Total GULP energy -200775.247326 kJ/mol
# GULP energy per Si atom -5577.090203 kJ/mol
# Density = 2.039227 g / cm^3
# Si number density = 20.438785 Si / 1000 Ang^3
#
#
#
# Elastic Constant Matrix: (Units=GPa)
#
#
# Indices 1 2 3 4 5 6 
#
# 1 93.2565 25.6559 3.7807 0.0000 0.0000 0.0000
# 2 25.6559 105.2586 20.2024 0.0000 0.0000 0.0000
# 3 3.7807 20.2024 14.5616 0.0000 0.0000 0.0000
# 4 0.0000 0.0000 0.0000 22.8154 0.0000 0.0000
# 5 0.0000 0.0000 0.0000 0.0000 -2.7776 0.0000
# 6 0.0000 0.0000 0.0000 0.0000 0.0000 30.0821
#
#
#
# Elastic Compliance Matrix: (Units=1/GPa)
#
#
# Indices 1 2 3 4 5 6 
#
# 1 0.011510 -0.003042 0.001232 0.000000 0.000000 0.000000
# 2 -0.003042 0.013752 -0.018290 0.000000 0.000000 0.000000
# 3 0.001232 -0.018290 0.093729 0.000000 0.000000 0.000000
# 4 0.000000 0.000000 0.000000 0.043830 0.000000 0.000000
# 5 0.000000 0.000000 0.000000 0.000000 -0.360028 0.000000
# 6 0.000000 0.000000 0.000000 0.000000 0.000000 0.033242
#
#
# Mechanical properties :
#
#
# Convention : Reuss Voigt Hill
#
# Bulk Modulus (GPa) = 12.69170 34.70609 23.69890
# Shear Modulus (GPa) = -51.28188 20.91982 -15.18103
#
# Velocity S-wave (km/s) = -5.01447 3.20274 -2.72831
# Velocity P-wave (km/s) = 5.22527 5.54023 1.30205
#
# Compressibility (1/GPa) = 0.07879163
#
# Stress axis : x y z
#
# Youngs Moduli (GPa) = 86.88068 72.71544 10.66904
#
# Poissons Ratio (x) = 0.22119 -0.01314
# Poissons Ratio (y) = 0.26428 0.19513
# Poissons Ratio (z) = -0.10702 1.32995
#
# Static dielectric constant tensor:
#      x y z
#    x 1.697130 0.000000 0.000000 
#    y 0.000000 1.757370 0.000000 
#    z 0.000000 0.000000 1.742390 
# 
# From -- ./inp_files/27988.got.cif
#   From: 2010.05.17/outbox.cif.g08.bks.cpg/sg72_14_cif.got.tgz:27988.got - 2010.06.03 17:03:01.
