data_PCOD9526822
_publ_section_title
;
Structure prediction by ZEFSAII (Michael W. Deem and Ramdas Pophale) SiO2 
 PCOD9526822
Probable space group: I B A M
;
_chemical_formula_sum "Si O2"
_cell_formula_units_Z 80
_cell_length_a 11.018115
_cell_length_b 17.186315
_cell_length_c 20.574250
_cell_angle_alpha 90.000000
_cell_angle_beta 90.000000
_cell_angle_gamma 90.000000
_cell_volume 3895.956339
_symmetry_space_group_name_H-M "I B A M"
_symmetry_group_IT_number 72
_symmetry_cell_setting 'orthorhombic'
loop_
_space_group_symop_operation_xyz
x,y,z
-x,-y,z
x,-y,1/2-z
-x,y,1/2-z
-x,-y,-z
x,y,-z
-x,y,1/2+z
x,-y,1/2+z
1/2+x,1/2+y,1/2+z
1/2-x,1/2-y,1/2+z
1/2+x,1/2-y,-z
1/2-x,1/2+y,-z
1/2-x,1/2-y,1/2-z
1/2+x,1/2+y,1/2-z
1/2-x,1/2+y,z
1/2+x,1/2-y,z
loop_
_atom_site_type_symbol
_atom_site_label
_atom_site_fract_x
_atom_site_fract_y
_atom_site_fract_z
Si Si1 0.676961 0.000000 0.750000
Si Si2 0.806067 0.485600 0.000000
Si Si3 0.189464 0.150869 0.500000
Si Si4 0.585306 0.089765 0.625434
Si Si5 0.728118 0.270037 0.890248
Si Si6 0.591525 0.361085 0.000000
Si Si7 0.383734 0.846110 0.199705
O O1 0.612661 0.034187 0.686339
O O2 0.712124 0.086770 0.777695
O O3 0.775054 0.575865 0.000000
O O4 0.881050 0.456851 0.061725
O O5 0.679779 0.435978 0.000000
O O6 0.213231 0.204437 0.563227
O O7 0.050355 0.122913 0.500000
O O8 0.674004 0.164070 0.626042
O O9 0.451143 0.122366 0.634864
O O10 0.627443 0.311066 0.936057
O O11 0.678256 0.232340 0.824126
O O12 0.500000 0.837071 0.250000
#
# Coordination Sequence:
#
# PCOD9526822 Si02
#       7
#     8   8   8  16  16   8  16
#     4  10  21  36  54  76 109 146 177 218 278 320
#     4  10  21  35  58  83 106 143 184 221 272 321
#     4  11  20  34  56  81 110 142 178 222 269 328
#     4  10  20  37  56  79 111 141 179 227 265 322
#     4  10  21  34  55  82 105 140 184 217 268 325
#     4   9  20  37  52  78 112 139 170 223 277 317
#     4  10  20  35  53  77 109 143 176 223 275 318
#
# _framework density 20.534109999999998
#
# number of rings (size 3 to 8) (size 9 to 14) (size 15 to 20)
#    0.000    2.000    0.000    6.000    0.000    4.800 
#    0.000    5.000    0.000    0.000    0.000    7.000 
#    0.000    0.000    0.000    0.000    0.000    0.000 
#
# Total GULP energy -222728.372777 kJ/mol
# GULP energy per Si atom -5568.209319 kJ/mol
# Density = 2.048737 g / cm^3
# Si number density = 20.534110 Si / 1000 Ang^3
#
#
#
# Elastic Constant Matrix: (Units=GPa)
#
#
# Indices 1 2 3 4 5 6 
#
# 1 58.1023 26.9439 23.5802 0.0000 0.0000 0.0000
# 2 26.9439 141.6833 46.5460 0.0000 0.0000 0.0000
# 3 23.5802 46.5460 107.2183 0.0000 0.0000 0.0000
# 4 0.0000 0.0000 0.0000 42.2799 0.0000 0.0000
# 5 0.0000 0.0000 0.0000 0.0000 14.7622 0.0000
# 6 0.0000 0.0000 0.0000 0.0000 0.0000 29.5298
#
#
#
# Elastic Compliance Matrix: (Units=1/GPa)
#
#
# Indices 1 2 3 4 5 6 
#
# 1 0.019756 -0.002717 -0.003165 0.000000 0.000000 0.000000
# 2 -0.002717 0.008606 -0.003138 0.000000 0.000000 0.000000
# 3 -0.003165 -0.003138 0.011385 0.000000 0.000000 0.000000
# 4 0.000000 0.000000 0.000000 0.023652 0.000000 0.000000
# 5 0.000000 0.000000 0.000000 0.000000 0.067740 0.000000
# 6 0.000000 0.000000 0.000000 0.000000 0.000000 0.033864
#
#
# Mechanical properties :
#
#
# Convention : Reuss Voigt Hill
#
# Bulk Modulus (GPa) = 46.07179 55.68267 50.87723
# Shear Modulus (GPa) = 26.27712 31.30997 28.79355
#
# Velocity S-wave (km/s) = 3.58114 3.90908 3.74870
# Velocity P-wave (km/s) = 6.29165 6.89569 6.60058
#
# Compressibility (1/GPa) = 0.02170526
#
# Stress axis : x y z
#
# Youngs Moduli (GPa) = 50.61861 116.20163 87.83229
#
# Poissons Ratio (x) = 0.31573 0.27801
# Poissons Ratio (y) = 0.13753 0.27565
# Poissons Ratio (z) = 0.16022 0.36469
#
# Static dielectric constant tensor:
#      x y z
#    x 1.711490 0.000000 0.000000 
#    y 0.000000 1.781730 0.000000 
#    z 0.000000 0.000000 1.772270 
# 
# From -- ./inp_files/36841.got.cif
#   From: 2010.05.17/outbox.cif.g08.bks.cpg/sg72_19_cif.got.tgz:36841.got - 2010.06.03 17:03:01.
