data_PCOD9526635
_publ_section_title
;
Structure prediction by ZEFSAII (Michael W. Deem and Ramdas Pophale) SiO2 
 PCOD9526635
Probable space group: I B A M
;
_chemical_formula_sum "Si O2"
_cell_formula_units_Z 80
_cell_length_a 12.554905
_cell_length_b 13.944151
_cell_length_c 25.069764
_cell_angle_alpha 90.000000
_cell_angle_beta 90.000000
_cell_angle_gamma 90.000000
_cell_volume 4388.900686
_symmetry_space_group_name_H-M "I B A M"
_symmetry_group_IT_number 72
_symmetry_cell_setting 'orthorhombic'
loop_
_space_group_symop_operation_xyz
x,y,z
-x,-y,z
x,-y,1/2-z
-x,y,1/2-z
-x,-y,-z
x,y,-z
-x,y,1/2+z
x,-y,1/2+z
1/2+x,1/2+y,1/2+z
1/2-x,1/2-y,1/2+z
1/2+x,1/2-y,-z
1/2-x,1/2+y,-z
1/2-x,1/2-y,1/2-z
1/2+x,1/2+y,1/2-z
1/2-x,1/2+y,z
1/2+x,1/2-y,z
loop_
_atom_site_type_symbol
_atom_site_label
_atom_site_fract_x
_atom_site_fract_y
_atom_site_fract_z
Si Si1 0.423871 0.877022 0.356351
Si Si2 0.866569 0.439326 0.696009
Si Si3 0.441813 0.600151 0.559804
Si Si4 0.422636 0.792088 0.939194
Si Si5 0.279163 0.307666 0.138336
O O1 0.520650 0.885407 0.313365
O O2 0.486634 0.857738 0.411410
O O3 0.343038 0.789299 0.347837
O O4 0.365908 0.979198 0.350582
O O5 0.860119 0.500000 0.750000
O O6 0.772488 0.364015 0.687767
O O7 0.500000 0.500000 0.567883
O O8 0.392891 0.600123 0.500000
O O9 0.527148 0.686022 0.560467
O O10 0.358890 0.624175 0.605795
O O11 0.319047 0.789651 0.902030
O O12 0.399937 0.820771 0.000000
#
# Coordination Sequence:
#
# PCOD9526635 Si02
#       5
#    16  16  16  16  16
#     4   9  19  36  56  80 109 146 179 227 275 323
#     4  10  21  39  60  80 107 143 189 236 281 327
#     4   9  18  32  51  77 112 150 178 217 272 323
#     4   9  18  33  52  80 115 147 181 220 264 325
#     4  10  20  33  57  83 109 144 184 227 273 329
#
# _framework density 18.227799999999998
#
# number of rings (size 3 to 8) (size 9 to 14) (size 15 to 20)
#    0.000    2.600    0.000    1.800    2.800    1.600 
#    0.000    9.000    0.000    0.000    0.000    0.000 
#    0.000    0.000    0.000    0.000    0.000    0.000 
#
# Total GULP energy -222865.857566 kJ/mol
# GULP energy per Si atom -5571.646439 kJ/mol
# Density = 1.818631 g / cm^3
# Si number density = 18.227800 Si / 1000 Ang^3
#
#
#
# Elastic Constant Matrix: (Units=GPa)
#
#
# Indices 1 2 3 4 5 6 
#
# 1 80.1252 41.3818 31.2486 0.0000 0.0000 0.0000
# 2 41.3818 89.8409 34.7009 0.0000 0.0000 0.0000
# 3 31.2486 34.7009 76.0480 0.0000 0.0000 0.0000
# 4 0.0000 0.0000 0.0000 27.5127 0.0000 0.0000
# 5 0.0000 0.0000 0.0000 0.0000 16.6379 0.0000
# 6 0.0000 0.0000 0.0000 0.0000 0.0000 27.8192
#
#
#
# Elastic Compliance Matrix: (Units=1/GPa)
#
#
# Indices 1 2 3 4 5 6 
#
# 1 0.017438 -0.006391 -0.004249 0.000000 0.000000 0.000000
# 2 -0.006391 0.015855 -0.004608 0.000000 0.000000 0.000000
# 3 -0.004249 -0.004608 0.016998 0.000000 0.000000 0.000000
# 4 0.000000 0.000000 0.000000 0.036347 0.000000 0.000000
# 5 0.000000 0.000000 0.000000 0.000000 0.060104 0.000000
# 6 0.000000 0.000000 0.000000 0.000000 0.000000 0.035946
#
#
# Mechanical properties :
#
#
# Convention : Reuss Voigt Hill
#
# Bulk Modulus (GPa) = 50.52032 51.18630 50.85331
# Shear Modulus (GPa) = 22.74963 23.63949 23.19456
#
# Velocity S-wave (km/s) = 3.53664 3.60515 3.57106
# Velocity P-wave (km/s) = 6.66734 6.74328 6.70542
#
# Compressibility (1/GPa) = 0.01979402
#
# Stress axis : x y z
#
# Youngs Moduli (GPa) = 57.34461 63.07331 58.82891
#
# Poissons Ratio (x) = 0.40311 0.24998
# Poissons Ratio (y) = 0.36649 0.27110
# Poissons Ratio (z) = 0.24367 0.29066
#
# Static dielectric constant tensor:
#      x y z
#    x 1.632970 0.000000 0.000000 
#    y 0.000000 1.616400 0.000000 
#    z 0.000000 0.000000 1.662980 
# 
# From -- ./inp_files/43081.got.cif
#   From: 2010.05.17/outbox.cif.g08.bks.cpg/sg72_22_cif.got.tgz:43081.got - 2010.06.03 17:03:01.
