data_PCOD9526313
_publ_section_title
;
Structure prediction by ZEFSAII (Michael W. Deem and Ramdas Pophale) SiO2 
 PCOD9526313
Probable space group: I B A M
;
_chemical_formula_sum "Si O2"
_cell_formula_units_Z 88
_cell_length_a 14.076855
_cell_length_b 21.391094
_cell_length_c 14.845142
_cell_angle_alpha 90.000000
_cell_angle_beta 90.000000
_cell_angle_gamma 90.000000
_cell_volume 4470.159191
_symmetry_space_group_name_H-M "I B A M"
_symmetry_group_IT_number 72
_symmetry_cell_setting 'orthorhombic'
loop_
_space_group_symop_operation_xyz
x,y,z
-x,-y,z
x,-y,1/2-z
-x,y,1/2-z
-x,-y,-z
x,y,-z
-x,y,1/2+z
x,-y,1/2+z
1/2+x,1/2+y,1/2+z
1/2-x,1/2-y,1/2+z
1/2+x,1/2-y,-z
1/2-x,1/2+y,-z
1/2-x,1/2-y,1/2-z
1/2+x,1/2+y,1/2-z
1/2-x,1/2+y,z
1/2+x,1/2-y,z
loop_
_atom_site_type_symbol
_atom_site_label
_atom_site_fract_x
_atom_site_fract_y
_atom_site_fract_z
Si Si1 0.878877 0.683570 0.000000
Si Si2 0.147100 0.180233 0.000000
Si Si3 0.573498 0.139682 0.500000
Si Si4 0.732251 0.523662 0.852411
Si Si5 0.598761 0.461744 0.000000
Si Si6 0.188685 0.299529 0.352569
Si Si7 0.757966 0.162350 0.832774
Si Si8 0.385115 0.998615 0.500000
O O1 0.814046 0.673459 0.086126
O O2 0.961565 0.633308 0.000000
O O3 0.913762 0.755785 0.000000
O O4 0.218332 0.186703 0.914307
O O5 0.094149 0.113965 0.000000
O O6 0.601850 0.177661 0.588280
O O7 0.632459 0.076282 0.500000
O O8 0.744416 0.500000 0.750000
O O9 0.695479 0.595232 0.847495
O O10 0.659561 0.482965 0.912202
O O11 0.830229 0.523370 0.911013
O O12 0.500000 0.500000 0.000000
O O13 0.180343 0.225761 0.331551
O O14 0.201725 0.337081 0.260997
O O15 0.500000 0.000000 0.500000
#
# Coordination Sequence:
#
# PCOD9526313 Si02
#       8
#     8   8   8  16   8  16  16   8
#     4  10  21  32  55  78 109 138 168 227 264 319
#     4   9  18  38  54  77 105 139 180 218 279 316
#     4  11  20  35  52  79 107 140 178 211 274 320
#     4  11  22  38  60  82 114 154 185 225 277 336
#     4  11  24  38  57  83 114 147 187 237 277 331
#     4   9  19  34  59  76 102 139 177 229 261 319
#     4  10  19  36  54  80 104 136 183 218 269 315
#     4  11  23  37  56  85 120 150 183 227 271 336
#
# _framework density 19.6861
#
# number of rings (size 3 to 8) (size 9 to 14) (size 15 to 20)
#    0.000    1.818    0.000    7.091    0.000    2.909 
#    0.000    3.636    0.000    6.545    0.000    0.000 
#    0.000    0.000    0.000    0.000    0.000    0.000 
#
# Total GULP energy -245395.149968 kJ/mol
# GULP energy per Si atom -5577.162499 kJ/mol
# Density = 1.964129 g / cm^3
# Si number density = 19.686100 Si / 1000 Ang^3
#
#
#
# Elastic Constant Matrix: (Units=GPa)
#
#
# Indices 1 2 3 4 5 6 
#
# 1 44.9336 -5.7575 17.6219 -0.0001 0.0000 0.0000
# 2 -5.7575 128.5592 8.3478 -0.0004 0.0002 0.0001
# 3 17.6219 8.3478 152.2480 -0.0006 0.0004 0.0002
# 4 -0.0001 -0.0004 -0.0006 25.1705 0.0003 0.0001
# 5 0.0000 0.0002 0.0004 0.0003 -21.4618 0.0000
# 6 0.0000 0.0001 0.0002 0.0001 0.0000 21.0193
#
#
#
# Elastic Compliance Matrix: (Units=1/GPa)
#
#
# Indices 1 2 3 4 5 6 
#
# 1 0.023507 0.001234 -0.002788 0.000000 0.000000 0.000000
# 2 0.001234 0.007871 -0.000574 0.000000 0.000000 0.000000
# 3 -0.002788 -0.000574 0.006922 0.000000 0.000000 0.000000
# 4 0.000000 0.000000 0.000000 0.039729 0.000000 0.000000
# 5 0.000000 0.000000 0.000000 0.000000 -0.046594 0.000000
# 6 0.000000 0.000000 0.000000 0.000000 0.000000 0.047575
#
#
# Mechanical properties :
#
#
# Convention : Reuss Voigt Hill
#
# Bulk Modulus (GPa) = 29.37528 40.68503 35.03015
# Shear Modulus (GPa) = 52.84542 25.31418 39.07980
#
# Velocity S-wave (km/s) = 5.18674 3.58982 4.46033
# Velocity P-wave (km/s) = 7.12909 6.15582 6.66026
#
# Compressibility (1/GPa) = 0.03404223
#
# Stress axis : x y z
#
# Youngs Moduli (GPa) = 42.54109 127.04752 144.45710
#
# Poissons Ratio (x) = -0.15675 0.40281
# Poissons Ratio (y) = -0.05249 0.08297
# Poissons Ratio (z) = 0.11862 0.07297
#
# Static dielectric constant tensor:
#      x y z
#    x 1.684400 0.000000 0.000000 
#    y 0.000000 1.751710 0.000000 
#    z 0.000000 0.000000 1.653690 
# 
# From -- ./inp_files/21761.got.cif
#   From: 2010.05.17/outbox.cif.g08.bks.cpg/sg72_11_cif.got.tgz:21761.got - 2010.06.03 17:03:01.
