data_PCOD9526485
_publ_section_title
;
Structure prediction by ZEFSAII (Michael W. Deem and Ramdas Pophale) SiO2 
 PCOD9526485
Probable space group: I B A M
;
_chemical_formula_sum "Si O2"
_cell_formula_units_Z 128
_cell_length_a 14.301120
_cell_length_b 24.127322
_cell_length_c 15.343185
_cell_angle_alpha 90.000000
_cell_angle_beta 90.000000
_cell_angle_gamma 90.000000
_cell_volume 5294.131112
_symmetry_space_group_name_H-M "I B A M"
_symmetry_group_IT_number 72
_symmetry_cell_setting 'orthorhombic'
loop_
_space_group_symop_operation_xyz
x,y,z
-x,-y,z
x,-y,1/2-z
-x,y,1/2-z
-x,-y,-z
x,y,-z
-x,y,1/2+z
x,-y,1/2+z
1/2+x,1/2+y,1/2+z
1/2-x,1/2-y,1/2+z
1/2+x,1/2-y,-z
1/2-x,1/2+y,-z
1/2-x,1/2-y,1/2-z
1/2+x,1/2+y,1/2-z
1/2-x,1/2+y,z
1/2+x,1/2-y,z
loop_
_atom_site_type_symbol
_atom_site_label
_atom_site_fract_x
_atom_site_fract_y
_atom_site_fract_z
Si Si1 0.631591 0.797818 0.102167
Si Si2 0.899929 0.419214 0.349997
Si Si3 0.353852 0.320841 0.101890
Si Si4 0.131590 0.297818 0.102167
Si Si5 0.313305 0.560214 0.102889
Si Si6 0.813305 0.939785 0.397111
Si Si7 0.353852 0.320841 0.398110
Si Si8 0.100071 0.580786 0.849996
O O1 0.606264 0.737002 0.138046
O O2 0.743297 0.807557 0.103391
O O3 0.596245 0.852546 0.147693
O O4 0.605173 0.799589 0.000000
O O5 0.903755 0.352546 0.352307
O O6 0.800164 0.435090 0.390788
O O7 0.895670 0.437326 0.250000
O O8 0.000000 0.438063 0.388161
O O9 0.243297 0.307557 0.103391
O O10 0.359669 0.383103 0.139395
O O11 0.382754 0.323410 0.000000
O O12 0.106264 0.237001 0.138046
O O13 0.105172 0.299589 0.000000
O O14 0.340599 0.500000 0.139424
O O15 0.359669 0.616897 0.139395
O O16 0.199836 0.564910 0.109212
O O17 0.335271 0.560233 0.000000
O O18 0.835271 0.939766 0.500000
O O19 0.382755 0.323411 0.500000
#
# Coordination Sequence:
#
# PCOD9526485 Si02
#       8
#    16  16  16  16  16  16  16  16
#     4   8  13  24  42  58  73  95 123 156 193 234
#     4  10  20  30  38  52  78 108 134 163 196 223
#     4   7  11  22  40  60  77  92 116 155 198 230
#     4   8  13  24  42  58  73  95 123 156 193 234
#     4   9  17  29  44  59  76 102 134 161 185 223
#     4   9  17  29  44  59  76 102 134 161 185 223
#     4   7  11  22  40  60  77  92 116 155 198 230
#     4  10  20  30  38  52  78 108 134 163 196 223
#
# _framework density 24.177716
#
# number of rings (size 3 to 8) (size 9 to 14) (size 15 to 20)
#    0.000    3.500    0.000    3.750    0.000    3.000 
#    0.000   12.500    0.000    0.000    0.000    0.000 
#    0.000    1.000    0.000   12.500    0.000    2.500 
#
# Total GULP energy -356294.165915 kJ/mol
# GULP energy per Si atom -5567.096342 kJ/mol
# Density = 2.412269 g / cm^3
# Si number density = 24.177716 Si / 1000 Ang^3
#
#
#
# Elastic Constant Matrix: (Units=GPa)
#
#
# Indices 1 2 3 4 5 6 
#
# 1 42.2347 0.7336 -4.6149 0.0000 0.0000 0.0000
# 2 0.7336 289.8737 19.1051 0.0001 0.0000 0.0000
# 3 -4.6149 19.1051 45.9583 0.0002 0.0000 0.0000
# 4 0.0000 0.0001 0.0002 -315.7329 -0.0001 0.0000
# 5 0.0000 0.0000 0.0000 -0.0001 -0.1874 0.0000
# 6 0.0000 0.0000 0.0000 0.0000 0.0000 -34.5790
#
#
#
# Elastic Compliance Matrix: (Units=1/GPa)
#
#
# Indices 1 2 3 4 5 6 
#
# 1 0.023954 -0.000225 0.002499 0.000000 0.000000 0.000000
# 2 -0.000225 0.003549 -0.001498 0.000000 0.000000 0.000000
# 3 0.002499 -0.001498 0.022633 0.000000 0.000000 0.000000
# 4 0.000000 0.000000 0.000000 -0.003167 0.000001 0.000000
# 5 0.000000 0.000000 0.000000 0.000001 -5.336540 0.000000
# 6 0.000000 0.000000 0.000000 0.000000 0.000000 -0.028919
#
#
# Mechanical properties :
#
#
# Convention : Reuss Voigt Hill
#
# Bulk Modulus (GPa) = 19.34718 45.39050 32.36884
# Shear Modulus (GPa) = -0.94290 -45.91032 -23.42661
#
# Velocity S-wave (km/s) = -0.62517 -4.36233 -3.11615
# Velocity P-wave (km/s) = 2.73831 2.56101 0.68541
#
# Compressibility (1/GPa) = 0.05168712
#
# Stress axis : x y z
#
# Youngs Moduli (GPa) = 41.74639 281.76321 44.18423
#
# Poissons Ratio (x) = 0.06349 -0.11042
# Poissons Ratio (y) = 0.00941 0.06619
# Poissons Ratio (z) = -0.10432 0.42208
#
# Static dielectric constant tensor:
#      x y z
#    x 2.063700 0.000000 0.000000 
#    y 0.000000 2.022960 0.000000 
#    z 0.000000 0.000000 1.859920 
# 
# From -- ./inp_files/32986.got.cif
#   From: 2010.05.17/outbox.cif.g08.bks.cpg/sg72_17_cif.got.tgz:32986.got - 2010.06.03 17:03:01.
