data_PCOD9526599
_publ_section_title
;
Structure prediction by ZEFSAII (Michael W. Deem and Ramdas Pophale) SiO2 
 PCOD9526599
Probable space group: I B A M
;
_chemical_formula_sum "Si O2"
_cell_formula_units_Z 80
_cell_length_a 26.804511
_cell_length_b 19.333249
_cell_length_c 8.701458
_cell_angle_alpha 90.000000
_cell_angle_beta 90.000000
_cell_angle_gamma 90.000000
_cell_volume 4509.254646
_symmetry_space_group_name_H-M "I B A M"
_symmetry_group_IT_number 72
_symmetry_cell_setting 'orthorhombic'
loop_
_space_group_symop_operation_xyz
x,y,z
-x,-y,z
x,-y,1/2-z
-x,y,1/2-z
-x,-y,-z
x,y,-z
-x,y,1/2+z
x,-y,1/2+z
1/2+x,1/2+y,1/2+z
1/2-x,1/2-y,1/2+z
1/2+x,1/2-y,-z
1/2-x,1/2+y,-z
1/2-x,1/2-y,1/2-z
1/2+x,1/2+y,1/2-z
1/2-x,1/2+y,z
1/2+x,1/2-y,z
loop_
_atom_site_type_symbol
_atom_site_label
_atom_site_fract_x
_atom_site_fract_y
_atom_site_fract_z
Si Si1 0.859336 0.577901 0.315286
Si Si2 0.052963 0.826767 0.815245
Si Si3 0.446533 0.172661 0.683731
Si Si4 0.146366 0.922527 0.183759
Si Si5 0.251392 0.577870 0.816351
O O1 0.862708 0.500000 0.250000
O O2 0.864069 0.575686 0.500000
O O3 0.902269 0.624462 0.243370
O O4 0.803555 0.606517 0.278732
O O5 0.060935 0.750489 0.746147
O O6 0.098723 0.876519 0.774080
O O7 0.000000 0.852468 0.750000
O O8 0.049938 0.821638 0.000000
O O9 0.500000 0.148773 0.750000
O O10 0.448472 0.173210 0.500000
O O11 0.198341 0.890797 0.246048
O O12 0.141108 0.000000 0.250000
O O13 0.149415 0.926998 0.000000
O O14 0.250477 0.500000 0.750000
O O15 0.256244 0.575344 0.000000
#
# Coordination Sequence:
#
# PCOD9526599 Si02
#       5
#    16  16  16  16  16
#     4  10  20  35  55  81 109 137 173 215 256 305
#     4  10  21  37  55  76 103 138 175 215 261 310
#     4  11  22  37  57  78 103 138 174 213 261 312
#     4  10  20  33  53  79 107 137 173 215 258 306
#     4   9  17  30  51  76 105 138 170 208 256 305
#
# _framework density 17.741291
#
# number of rings (size 3 to 8) (size 9 to 14) (size 15 to 20)
#    0.000    2.000    0.000    6.600    0.000    6.400 
#    0.000    5.000    0.000    0.000    0.000    0.000 
#    0.000    0.000    0.000    0.000    0.000    0.000 
#
# Total GULP energy -223175.951731 kJ/mol
# GULP energy per Si atom -5579.398793 kJ/mol
# Density = 1.770091 g / cm^3
# Si number density = 17.741291 Si / 1000 Ang^3
#
#
#
# Elastic Constant Matrix: (Units=GPa)
#
#
# Indices 1 2 3 4 5 6 
#
# 1 221.5061 81.5070 80.5828 0.0000 0.0000 0.0000
# 2 81.5070 48.4106 34.7458 0.0000 0.0000 0.0000
# 3 80.5828 34.7458 96.2712 0.0000 0.0000 0.0000
# 4 0.0000 0.0000 0.0000 24.8967 0.0000 0.0000
# 5 0.0000 0.0000 0.0000 0.0000 31.5125 0.0000
# 6 0.0000 0.0000 0.0000 0.0000 0.0000 -82.0421
#
#
#
# Elastic Compliance Matrix: (Units=1/GPa)
#
#
# Indices 1 2 3 4 5 6 
#
# 1 0.012913 -0.018872 -0.003998 0.000000 0.000000 0.000000
# 2 -0.018872 0.055460 -0.004219 0.000000 0.000000 0.000000
# 3 -0.003998 -0.004219 0.015256 0.000000 0.000000 0.000000
# 4 0.000000 0.000000 0.000000 0.040166 0.000000 0.000000
# 5 0.000000 0.000000 0.000000 0.000000 0.031733 0.000000
# 6 0.000000 0.000000 0.000000 0.000000 0.000000 -0.012189
#
#
# Mechanical properties :
#
#
# Convention : Reuss Voigt Hill
#
# Bulk Modulus (GPa) = 33.95512 84.42880 59.19196
# Shear Modulus (GPa) = 24.11552 6.16358 15.13955
#
# Velocity S-wave (km/s) = 3.69085 1.86593 2.92439
# Velocity P-wave (km/s) = 6.11095 7.23425 6.69620
#
# Compressibility (1/GPa) = 0.02945064
#
# Stress axis : x y z
#
# Youngs Moduli (GPa) = 77.43968 18.03110 65.54682
#
# Poissons Ratio (x) = 0.34029 0.26203
# Poissons Ratio (y) = 1.46147 0.27656
# Poissons Ratio (z) = 0.30957 0.07608
#
# Static dielectric constant tensor:
#      x y z
#    x 1.639990 0.000000 0.000000 
#    y 0.000000 1.567610 0.000000 
#    z 0.000000 0.000000 1.592410 
# 
# From -- ./inp_files/4742.got.cif
#   From: 2010.05.17/outbox.cif.g08.bks.cpg/sg72_3_cif.got.tgz:4742.got - 2010.06.03 17:03:01.
