data_PCOD9526709
_publ_section_title
;
Structure prediction by ZEFSAII (Michael W. Deem and Ramdas Pophale) SiO2 
 PCOD9526709
Probable space group: I B A M
;
_chemical_formula_sum "Si O2"
_cell_formula_units_Z 56
_cell_length_a 8.565519
_cell_length_b 26.574271
_cell_length_c 11.427345
_cell_angle_alpha 90.000000
_cell_angle_beta 90.000000
_cell_angle_gamma 90.000000
_cell_volume 2601.119959
_symmetry_space_group_name_H-M "I B A M"
_symmetry_group_IT_number 72
_symmetry_cell_setting 'orthorhombic'
loop_
_space_group_symop_operation_xyz
x,y,z
-x,-y,z
x,-y,1/2-z
-x,y,1/2-z
-x,-y,-z
x,y,-z
-x,y,1/2+z
x,-y,1/2+z
1/2+x,1/2+y,1/2+z
1/2-x,1/2-y,1/2+z
1/2+x,1/2-y,-z
1/2-x,1/2+y,-z
1/2-x,1/2-y,1/2-z
1/2+x,1/2+y,1/2-z
1/2-x,1/2+y,z
1/2+x,1/2-y,z
loop_
_atom_site_type_symbol
_atom_site_label
_atom_site_fract_x
_atom_site_fract_y
_atom_site_fract_z
Si Si1 0.500000 0.773855 0.750000
Si Si2 0.418737 0.576971 0.869581
Si Si3 0.941815 0.442730 0.872958
Si Si4 0.194253 0.809661 0.631026
O O1 0.348521 0.804811 0.710081
O O2 0.427362 0.735020 0.844263
O O3 0.500000 0.559841 0.750000
O O4 0.244366 0.555693 0.870010
O O5 0.392606 0.637156 0.858942
O O6 0.489486 0.566569 0.000000
O O7 0.000000 0.500000 0.874721
O O8 0.000000 0.419612 0.750000
O O9 0.987481 0.419200 0.000000
O O10 0.253985 0.805511 0.500000
#
# Coordination Sequence:
#
# PCOD9526709 Si02
#       4
#     8  16  16  16
#     4  10  20  34  54  78 113 151 190 236 276 340
#     4  10  21  38  58  85 118 149 192 237 284 343
#     4   9  19  37  61  86 113 144 183 232 284 342
#     4  10  20  35  53  79 113 151 191 236 282 332
#
# _framework density 21.529188000000001
#
# number of rings (size 3 to 8) (size 9 to 14) (size 15 to 20)
#    0.000    2.286    1.429    0.857    2.000    1.143 
#    0.000    4.286    0.000   15.429    0.000    0.000 
#    0.000    0.000    0.000    0.000    0.000    0.000 
#
# Total GULP energy -156078.730862 kJ/mol
# GULP energy per Si atom -5574.240388 kJ/mol
# Density = 2.148019 g / cm^3
# Si number density = 21.529188 Si / 1000 Ang^3
#
#
#
# Elastic Constant Matrix: (Units=GPa)
#
#
# Indices 1 2 3 4 5 6 
#
# 1 37.0713 -3.4486 47.8066 -0.0003 0.0001 0.0002
# 2 -3.4486 44.1390 22.5958 -0.0002 0.0002 0.0002
# 3 47.8066 22.5958 195.9443 -0.0028 0.0009 0.0014
# 4 -0.0003 -0.0002 -0.0028 -33.0102 -0.0003 -0.0002
# 5 0.0001 0.0002 0.0009 -0.0003 32.4420 0.0001
# 6 0.0002 0.0002 0.0014 -0.0002 0.0001 27.1099
#
#
#
# Elastic Compliance Matrix: (Units=1/GPa)
#
#
# Indices 1 2 3 4 5 6 
#
# 1 0.042601 0.009192 -0.011454 0.000001 0.000000 0.000000
# 2 0.009192 0.026060 -0.005248 0.000000 0.000000 0.000000
# 3 -0.011454 -0.005248 0.008503 -0.000001 0.000000 0.000000
# 4 0.000001 0.000000 -0.000001 -0.030294 0.000000 0.000000
# 5 0.000000 0.000000 0.000000 0.000000 0.030824 0.000000
# 6 0.000000 0.000000 0.000000 0.000000 0.000000 0.036887
#
#
# Mechanical properties :
#
#
# Convention : Reuss Voigt Hill
#
# Bulk Modulus (GPa) = 16.09148 45.67357 30.88252
# Shear Modulus (GPa) = 33.26325 19.32172 26.29249
#
# Velocity S-wave (km/s) = 3.93495 2.99902 3.49843
# Velocity P-wave (km/s) = 5.30430 5.76654 5.54024
#
# Compressibility (1/GPa) = 0.06214471
#
# Stress axis : x y z
#
# Youngs Moduli (GPa) = 23.47380 38.37249 117.60363
#
# Poissons Ratio (x) = -0.35271 1.34700
# Poissons Ratio (y) = -0.21577 0.61716
# Poissons Ratio (z) = 0.26886 0.20137
#
# Static dielectric constant tensor:
#      x y z
#    x 1.734180 0.000000 0.000000 
#    y 0.000000 1.786340 0.000000 
#    z 0.000000 0.000000 1.883960 
# 
# From -- ./inp_files/10375.got.cif
#   From: 2010.05.17/outbox.cif.g08.bks.cpg/sg72_6_cif.got.tgz:10375.got - 2010.06.03 17:03:01.
