data_PCOD9526107
_publ_section_title
;
Structure prediction by ZEFSAII (Michael W. Deem and Ramdas Pophale) SiO2 
 PCOD9526107
Probable space group: I B A M
;
_chemical_formula_sum "Si O2"
_cell_formula_units_Z 80
_cell_length_a 12.574295
_cell_length_b 14.547961
_cell_length_c 21.584362
_cell_angle_alpha 90.000000
_cell_angle_beta 90.000000
_cell_angle_gamma 90.000000
_cell_volume 3948.434966
_symmetry_space_group_name_H-M "I B A M"
_symmetry_group_IT_number 72
_symmetry_cell_setting 'orthorhombic'
loop_
_space_group_symop_operation_xyz
x,y,z
-x,-y,z
x,-y,1/2-z
-x,y,1/2-z
-x,-y,-z
x,y,-z
-x,y,1/2+z
x,-y,1/2+z
1/2+x,1/2+y,1/2+z
1/2-x,1/2-y,1/2+z
1/2+x,1/2-y,-z
1/2-x,1/2+y,-z
1/2-x,1/2-y,1/2-z
1/2+x,1/2+y,1/2-z
1/2-x,1/2+y,z
1/2+x,1/2-y,z
loop_
_atom_site_type_symbol
_atom_site_label
_atom_site_fract_x
_atom_site_fract_y
_atom_site_fract_z
Si Si1 0.207894 0.100910 0.896081
Si Si2 0.150744 0.299848 0.930009
Si Si3 0.365900 0.396823 0.927281
Si Si4 0.447986 0.100784 0.927885
Si Si5 0.024892 0.892064 0.316252
O O1 0.171467 0.192040 0.931761
O O2 0.334648 0.098469 0.894766
O O3 0.149348 0.115395 0.830840
O O4 0.160041 0.006087 0.923392
O O5 0.257566 0.347004 0.905412
O O6 0.038607 0.331162 0.901750
O O7 0.143541 0.337394 0.000000
O O8 0.456218 0.368564 0.877946
O O9 0.389591 0.374091 0.000000
O O10 0.500000 0.000000 0.926808
O O11 0.423091 0.124928 0.000000
O O12 0.000000 0.847479 0.250000
O O13 0.000000 0.000000 0.310872
#
# Coordination Sequence:
#
# PCOD9526107 Si02
#       5
#    16  16  16  16  16
#     4  11  21  35  59  84 118 160 200 237 298 363
#     4  10  21  33  53  88 124 155 193 242 302 358
#     4  10  20  36  59  89 119 148 193 250 295 354
#     4  10  19  34  54  81 125 163 193 244 309 357
#     4   9  21  40  60  83 115 158 200 244 302 354
#
# _framework density 20.261192000000001
#
# number of rings (size 3 to 8) (size 9 to 14) (size 15 to 20)
#    0.000    2.000    2.000    1.800    2.800    5.200 
#    0.000    1.000    0.000    0.000    0.000    0.000 
#    0.000    0.000    0.000    0.000    0.000    0.000 
#
# Total GULP energy -222907.636728 kJ/mol
# GULP energy per Si atom -5572.690918 kJ/mol
# Density = 2.021508 g / cm^3
# Si number density = 20.261192 Si / 1000 Ang^3
#
#
#
# Elastic Constant Matrix: (Units=GPa)
#
#
# Indices 1 2 3 4 5 6 
#
# 1 183.3320 33.9342 67.8459 0.0000 0.0000 0.0000
# 2 33.9342 95.0683 8.4383 0.0000 0.0000 0.0000
# 3 67.8459 8.4383 91.1269 0.0000 0.0000 0.0000
# 4 0.0000 0.0000 0.0000 1.0014 0.0000 0.0000
# 5 0.0000 0.0000 0.0000 0.0000 33.0385 0.0000
# 6 0.0000 0.0000 0.0000 0.0000 0.0000 27.6920
#
#
#
# Elastic Compliance Matrix: (Units=1/GPa)
#
#
# Indices 1 2 3 4 5 6 
#
# 1 0.008019 -0.002352 -0.005752 0.000000 0.000000 0.000000
# 2 -0.002352 0.011296 0.000705 0.000000 0.000000 0.000000
# 3 -0.005752 0.000705 0.015191 0.000000 0.000000 0.000000
# 4 0.000000 0.000000 0.000000 0.998613 0.000000 0.000000
# 5 0.000000 0.000000 0.000000 0.000000 0.030268 0.000000
# 6 0.000000 0.000000 0.000000 0.000000 0.000000 0.036112
#
#
# Mechanical properties :
#
#
# Convention : Reuss Voigt Hill
#
# Bulk Modulus (GPa) = 50.74268 65.55156 58.14712
# Shear Modulus (GPa) = 4.46084 29.63364 17.04724
#
# Velocity S-wave (km/s) = 1.48541 3.82852 2.90379
# Velocity P-wave (km/s) = 5.29533 7.20881 6.32485
#
# Compressibility (1/GPa) = 0.01970728
#
# Stress axis : x y z
#
# Youngs Moduli (GPa) = 124.70985 88.53011 65.82793
#
# Poissons Ratio (x) = 0.20819 0.37866
# Poissons Ratio (y) = 0.29327 -0.04640
# Poissons Ratio (z) = 0.71736 -0.06240
#
# Static dielectric constant tensor:
#      x y z
#    x 1.775590 0.000000 0.000000 
#    y 0.000000 1.700820 0.000000 
#    z 0.000000 0.000000 1.760250 
# 
# From -- ./inp_files/43100.got.cif
#   From: 2010.05.17/outbox.cif.g08.bks.cpg/sg72_22_cif.got.tgz:43100.got - 2010.06.03 17:03:01.
