data_PCOD9526630
_publ_section_title
;
Structure prediction by ZEFSAII (Michael W. Deem and Ramdas Pophale) SiO2 
 PCOD9526630
Probable space group: I B A M
;
_chemical_formula_sum "Si O2"
_cell_formula_units_Z 104
_cell_length_a 24.156807
_cell_length_b 13.960458
_cell_length_c 15.589968
_cell_angle_alpha 90.000000
_cell_angle_beta 90.000000
_cell_angle_gamma 90.000000
_cell_volume 5257.562204
_symmetry_space_group_name_H-M "I B A M"
_symmetry_group_IT_number 72
_symmetry_cell_setting 'orthorhombic'
loop_
_space_group_symop_operation_xyz
x,y,z
-x,-y,z
x,-y,1/2-z
-x,y,1/2-z
-x,-y,-z
x,y,-z
-x,y,1/2+z
x,-y,1/2+z
1/2+x,1/2+y,1/2+z
1/2-x,1/2-y,1/2+z
1/2+x,1/2-y,-z
1/2-x,1/2+y,-z
1/2-x,1/2-y,1/2-z
1/2+x,1/2+y,1/2-z
1/2-x,1/2+y,z
1/2+x,1/2-y,z
loop_
_atom_site_type_symbol
_atom_site_label
_atom_site_fract_x
_atom_site_fract_y
_atom_site_fract_z
Si Si1 0.398736 0.513488 0.500000
Si Si2 0.746051 0.177423 0.401137
Si Si3 0.875627 0.732579 0.664311
Si Si4 0.556331 0.734811 0.000000
Si Si5 0.660711 0.435360 0.332353
Si Si6 0.781166 0.533579 0.153281
Si Si7 0.571611 0.296943 0.000000
Si Si8 0.851925 0.707860 0.853350
O O1 0.427254 0.619810 0.500000
O O2 0.360375 0.511972 0.416484
O O3 0.431527 0.413415 0.500000
O O4 0.755913 0.205070 0.500000
O O5 0.685918 0.212087 0.370714
O O6 0.798150 0.220530 0.348642
O O7 0.737943 0.062812 0.393936
O O8 0.917303 0.716726 0.585321
O O9 0.878295 0.845536 0.681208
O O10 0.878319 0.689400 0.759393
O O11 0.490660 0.741155 0.000000
O O12 0.658370 0.500000 0.250000
O O13 0.724549 0.406067 0.342521
O O14 0.795868 0.500000 0.250000
O O15 0.827459 0.604666 0.117258
O O16 0.605562 0.257254 0.081877
#
# Coordination Sequence:
#
# PCOD9526630 Si02
#       8
#     8  16  16   8  16  16   8  16
#     4  10  21  39  62  87 125 166 206 257 314 371
#     4  12  23  37  61  96 132 169 199 251 320 394
#     4  11  21  41  63  87 125 166 211 252 315 383
#     4  10  25  43  67  89 116 174 221 268 318 381
#     4  10  20  33  55  90 128 162 199 238 303 383
#     4  11  22  36  58  92 131 169 205 246 313 387
#     4  12  25  42  61  94 127 162 223 274 315 363
#     4  12  24  40  63  96 135 166 208 264 316 381
#
# _framework density 19.781030000000001
#
# number of rings (size 3 to 8) (size 9 to 14) (size 15 to 20)
#    0.000    0.923    4.615    4.385    2.154    0.615 
#    0.000    0.000    0.000    4.615    0.000    0.000 
#    0.000    0.000    0.000    0.000    0.000    0.000 
#
# Total GULP energy -290072.262885 kJ/mol
# GULP energy per Si atom -5578.312748 kJ/mol
# Density = 1.973601 g / cm^3
# Si number density = 19.781030 Si / 1000 Ang^3
#
#
#
# Elastic Constant Matrix: (Units=GPa)
#
#
# Indices 1 2 3 4 5 6 
#
# 1 104.7075 24.2462 49.4923 0.0000 0.0000 0.0000
# 2 24.2462 50.3922 -3.5114 0.0000 0.0000 0.0000
# 3 49.4923 -3.5114 100.1893 0.0000 0.0000 0.0000
# 4 0.0000 0.0000 0.0000 5.6526 0.0000 0.0000
# 5 0.0000 0.0000 0.0000 0.0000 7.6120 0.0000
# 6 0.0000 0.0000 0.0000 0.0000 0.0000 18.5967
#
#
#
# Elastic Compliance Matrix: (Units=1/GPa)
#
#
# Indices 1 2 3 4 5 6 
#
# 1 0.014963 -0.007733 -0.007663 0.000000 0.000000 0.000000
# 2 -0.007733 0.023890 0.004657 0.000000 0.000000 0.000000
# 3 -0.007663 0.004657 0.013930 0.000000 0.000000 0.000000
# 4 0.000000 0.000000 0.000000 0.176910 0.000000 0.000000
# 5 0.000000 0.000000 0.000000 0.000000 0.131372 0.000000
# 6 0.000000 0.000000 0.000000 0.000000 0.000000 0.053773
#
#
# Mechanical properties :
#
#
# Convention : Reuss Voigt Hill
#
# Bulk Modulus (GPa) = 31.94342 43.97148 37.95745
# Shear Modulus (GPa) = 11.19194 18.70971 14.95082
#
# Velocity S-wave (km/s) = 2.38122 3.07879 2.75219
# Velocity P-wave (km/s) = 4.87276 5.90897 5.41571
#
# Compressibility (1/GPa) = 0.03130536
#
# Stress axis : x y z
#
# Youngs Moduli (GPa) = 66.83120 41.85887 71.78976
#
# Poissons Ratio (x) = 0.32371 0.55010
# Poissons Ratio (y) = 0.51683 -0.33436
# Poissons Ratio (z) = 0.51210 -0.19496
#
# Static dielectric constant tensor:
#      x y z
#    x 1.666430 0.000000 0.000000 
#    y 0.000000 1.765640 0.000000 
#    z 0.000000 0.000000 1.722510 
# 
# From -- ./inp_files/32684.got.cif
#   From: 2010.05.17/outbox.cif.g08.bks.cpg/sg72_17_cif.got.tgz:32684.got - 2010.06.03 17:03:01.
