data_PCOD9526645
_publ_section_title
;
Structure prediction by ZEFSAII (Michael W. Deem and Ramdas Pophale) SiO2 
 PCOD9526645
Probable space group: I B A M
;
_chemical_formula_sum "Si O2"
_cell_formula_units_Z 52
_cell_length_a 12.532021
_cell_length_b 17.837659
_cell_length_c 10.085597
_cell_angle_alpha 90.000000
_cell_angle_beta 90.000000
_cell_angle_gamma 90.000000
_cell_volume 2254.553689
_symmetry_space_group_name_H-M "I B A M"
_symmetry_group_IT_number 72
_symmetry_cell_setting 'orthorhombic'
loop_
_space_group_symop_operation_xyz
x,y,z
-x,-y,z
x,-y,1/2-z
-x,y,1/2-z
-x,-y,-z
x,y,-z
-x,y,1/2+z
x,-y,1/2+z
1/2+x,1/2+y,1/2+z
1/2-x,1/2-y,1/2+z
1/2+x,1/2-y,-z
1/2-x,1/2+y,-z
1/2-x,1/2-y,1/2-z
1/2+x,1/2+y,1/2-z
1/2-x,1/2+y,z
1/2+x,1/2-y,z
loop_
_atom_site_type_symbol
_atom_site_label
_atom_site_fract_x
_atom_site_fract_y
_atom_site_fract_z
Si Si1 0.373421 0.137211 0.717161
Si Si2 0.661085 0.012148 0.000000
Si Si3 0.115161 0.075096 0.000000
Si Si4 0.120182 0.646261 0.000000
Si Si5 0.000000 0.000000 0.750000
Si Si6 0.590528 0.751968 0.500000
O O1 0.500000 0.131478 0.750000
O O2 0.345258 0.065088 0.629115
O O3 0.320616 0.149080 0.859714
O O4 0.356622 0.209417 0.627136
O O5 0.773539 0.969595 0.000000
O O6 0.579550 0.941112 0.000000
O O7 0.064426 0.049546 0.142105
O O8 0.099370 0.164197 0.000000
O O9 0.029473 0.710703 0.000000
#
# Coordination Sequence:
#
# PCOD9526645 Si02
#       6
#    16   8   8   8   4   8
#     4   9  20  37  65 106 146 184 217 288 363 434
#     4  11  23  39  68 108 147 180 240 295 355 423
#     4  11  26  50  74 101 135 192 251 302 343 426
#     4  10  20  33  65 106 130 190 213 286 359 423
#     4  10  28  50  76  94 126 208 252 294 352 410
#     4   9  21  41  65  97 146 179 227 285 372 425
#
# _framework density 23.064433000000001
#
# number of rings (size 3 to 8) (size 9 to 14) (size 15 to 20)
#    0.000    2.154    0.000    1.846   10.769   13.538 
#    0.000    7.692    0.000    0.000    0.000    0.000 
#    0.000    0.000    0.000    0.000    0.000    0.000 
#
# Total GULP energy -144995.429783 kJ/mol
# GULP energy per Si atom -5576.747299 kJ/mol
# Density = 2.301194 g / cm^3
# Si number density = 23.064433 Si / 1000 Ang^3
#
#
#
# Elastic Constant Matrix: (Units=GPa)
#
#
# Indices 1 2 3 4 5 6 
#
# 1 64.4604 61.3114 43.2997 0.0000 0.0000 0.0000
# 2 61.3114 240.6710 112.5427 0.0000 0.0000 0.0000
# 3 43.2997 112.5427 273.6414 0.0001 0.0000 0.0000
# 4 0.0000 0.0000 0.0001 7.2163 0.0000 0.0000
# 5 0.0000 0.0000 0.0000 0.0000 14.1049 0.0000
# 6 0.0000 0.0000 0.0000 0.0000 0.0000 25.5999
#
#
#
# Elastic Compliance Matrix: (Units=1/GPa)
#
#
# Indices 1 2 3 4 5 6 
#
# 1 0.020889 -0.004675 -0.001383 0.000000 0.000000 0.000000
# 2 -0.004675 0.006191 -0.001806 0.000000 0.000000 0.000000
# 3 -0.001383 -0.001806 0.004616 0.000000 0.000000 0.000000
# 4 0.000000 0.000000 0.000000 0.138575 0.000000 0.000000
# 5 0.000000 0.000000 0.000000 0.000000 0.070898 0.000000
# 6 0.000000 0.000000 0.000000 0.000000 0.000000 0.039063
#
#
# Mechanical properties :
#
#
# Convention : Reuss Voigt Hill
#
# Bulk Modulus (GPa) = 62.62644 112.56449 87.59547
# Shear Modulus (GPa) = 16.59580 33.49214 25.04397
#
# Velocity S-wave (km/s) = 2.68534 3.81479 3.29876
# Velocity P-wave (km/s) = 6.06848 8.26522 7.25053
#
# Compressibility (1/GPa) = 0.01596770
#
# Stress axis : x y z
#
# Youngs Moduli (GPa) = 47.87284 161.53332 216.63228
#
# Poissons Ratio (x) = 0.75515 0.29953
# Poissons Ratio (y) = 0.22380 0.39132
# Poissons Ratio (z) = 0.06619 0.29179
#
# Static dielectric constant tensor:
#      x y z
#    x 1.991560 0.000000 0.000000 
#    y 0.000000 1.826900 0.000000 
#    z 0.000000 0.000000 1.953810 
# 
# From -- ./inp_files/12266.got.cif
#   From: 2010.05.17/outbox.cif.g08.bks.cpg/sg72_7_cif.got.tgz:12266.got - 2010.06.03 17:03:01.
