data_PCOD9526406
_publ_section_title
;
Structure prediction by ZEFSAII (Michael W. Deem and Ramdas Pophale) SiO2 
 PCOD9526406
Probable space group: I B A M
;
_chemical_formula_sum "Si O2"
_cell_formula_units_Z 96
_cell_length_a 10.540165
_cell_length_b 15.430076
_cell_length_c 24.500396
_cell_angle_alpha 90.000000
_cell_angle_beta 90.000000
_cell_angle_gamma 90.000000
_cell_volume 3984.635305
_symmetry_space_group_name_H-M "I B A M"
_symmetry_group_IT_number 72
_symmetry_cell_setting 'orthorhombic'
loop_
_space_group_symop_operation_xyz
x,y,z
-x,-y,z
x,-y,1/2-z
-x,y,1/2-z
-x,-y,-z
x,y,-z
-x,y,1/2+z
x,-y,1/2+z
1/2+x,1/2+y,1/2+z
1/2-x,1/2-y,1/2+z
1/2+x,1/2-y,-z
1/2-x,1/2+y,-z
1/2-x,1/2-y,1/2-z
1/2+x,1/2+y,1/2-z
1/2-x,1/2+y,z
1/2+x,1/2-y,z
loop_
_atom_site_type_symbol
_atom_site_label
_atom_site_fract_x
_atom_site_fract_y
_atom_site_fract_z
Si Si1 0.380865 0.704518 0.329416
Si Si2 0.884289 0.377105 0.789360
Si Si3 0.865196 0.048972 0.557882
Si Si4 0.269000 0.523274 0.327685
Si Si5 0.034086 0.589831 0.393700
Si Si6 0.367098 0.738106 0.101147
O O1 0.365680 0.775121 0.281509
O O2 0.358774 0.604464 0.313628
O O3 0.522237 0.714705 0.354613
O O4 0.267049 0.733184 0.371655
O O5 0.765769 0.442125 0.788721
O O6 0.000000 0.403355 0.750000
O O7 0.920315 0.384017 0.853563
O O8 0.798969 0.027282 0.500000
O O9 0.863973 0.153120 0.564029
O O10 0.813747 0.014934 0.614692
O O11 0.000000 0.000000 0.554838
O O12 0.138162 0.568311 0.346958
O O13 0.081011 0.672982 0.426049
O O14 0.000000 0.500000 0.422526
#
# Coordination Sequence:
#
# PCOD9526406 Si02
#       6
#    16  16  16  16  16  16
#     4  10  20  37  65  97 134 186 228 277 354 421
#     4  10  20  37  67  98 133 182 233 280 345 433
#     4  11  22  38  64  97 131 175 235 291 352 425
#     4  10  19  37  63  91 130 184 226 283 350 414
#     4   8  18  34  59  86 124 174 221 266 339 409
#     4  10  19  37  62  94 129 178 225 277 352 415
#
# _framework density 24.092545000000001
#
# number of rings (size 3 to 8) (size 9 to 14) (size 15 to 20)
#    0.000    2.167    3.333    0.000    0.000    3.000 
#    0.000   11.667    7.333    5.000    0.000    1.167 
#    0.000    0.000    0.000    0.000    0.000    0.000 
#
# Total GULP energy -267329.493604 kJ/mol
# GULP energy per Si atom -5569.364450 kJ/mol
# Density = 2.403771 g / cm^3
# Si number density = 24.092545 Si / 1000 Ang^3
#
#
#
# Elastic Constant Matrix: (Units=GPa)
#
#
# Indices 1 2 3 4 5 6 
#
# 1 40.0873 -21.3874 22.9590 0.0000 0.0000 0.0000
# 2 -21.3874 150.5044 42.3753 0.0000 0.0000 0.0000
# 3 22.9590 42.3753 76.4685 0.0000 0.0000 0.0000
# 4 0.0000 0.0000 0.0000 53.2203 0.0000 0.0000
# 5 0.0000 0.0000 0.0000 0.0000 -685.2747 0.0000
# 6 0.0000 0.0000 0.0000 0.0000 0.0000 46.0051
#
#
#
# Elastic Compliance Matrix: (Units=1/GPa)
#
#
# Indices 1 2 3 4 5 6 
#
# 1 0.041607 0.011173 -0.018684 0.000000 0.000000 0.000000
# 2 0.011173 0.010873 -0.009380 0.000000 0.000000 0.000000
# 3 -0.018684 -0.009380 0.023885 0.000000 0.000000 0.000000
# 4 0.000000 0.000000 0.000000 0.018790 0.000000 0.000000
# 5 0.000000 0.000000 0.000000 0.000000 -0.001459 0.000000
# 6 0.000000 0.000000 0.000000 0.000000 0.000000 0.021737
#
#
# Mechanical properties :
#
#
# Convention : Reuss Voigt Hill
#
# Bulk Modulus (GPa) = 23.48303 39.43931 31.46117
# Shear Modulus (GPa) = 30.59812 -102.33566 -35.86877
#
# Velocity S-wave (km/s) = 3.56761 -6.52444 -3.86267
# Velocity P-wave (km/s) = 5.17094 6.35234 2.60899
#
# Compressibility (1/GPa) = 0.04258394
#
# Stress axis : x y z
#
# Youngs Moduli (GPa) = 24.03418 91.97042 41.86746
#
# Poissons Ratio (x) = -1.02760 0.78225
# Poissons Ratio (y) = -0.26854 0.39272
# Poissons Ratio (z) = 0.44905 0.86268
#
# Static dielectric constant tensor:
#      x y z
#    x 2.043410 0.000000 0.000000 
#    y 0.000000 2.065900 0.000000 
#    z 0.000000 0.000000 1.817580 
# 
# From -- ./inp_files/43324.got.cif
#   From: 2010.05.17/outbox.cif.g08.bks.cpg/sg72_22_cif.got.tgz:43324.got - 2010.06.03 17:03:01.
