data_PCOD9526581
_publ_section_title
;
Structure prediction by ZEFSAII (Michael W. Deem and Ramdas Pophale) SiO2 
 PCOD9526581
Probable space group: I B A M
;
_chemical_formula_sum "Si O2"
_cell_formula_units_Z 96
_cell_length_a 13.223101
_cell_length_b 34.467339
_cell_length_c 10.716344
_cell_angle_alpha 90.000000
_cell_angle_beta 90.000000
_cell_angle_gamma 90.000000
_cell_volume 4884.135646
_symmetry_space_group_name_H-M "I B A M"
_symmetry_group_IT_number 72
_symmetry_cell_setting 'orthorhombic'
loop_
_space_group_symop_operation_xyz
x,y,z
-x,-y,z
x,-y,1/2-z
-x,y,1/2-z
-x,-y,-z
x,y,-z
-x,y,1/2+z
x,-y,1/2+z
1/2+x,1/2+y,1/2+z
1/2-x,1/2-y,1/2+z
1/2+x,1/2-y,-z
1/2-x,1/2+y,-z
1/2-x,1/2-y,1/2-z
1/2+x,1/2+y,1/2-z
1/2-x,1/2+y,z
1/2+x,1/2-y,z
loop_
_atom_site_type_symbol
_atom_site_label
_atom_site_fract_x
_atom_site_fract_y
_atom_site_fract_z
Si Si1 0.888527 0.979813 0.135743
Si Si2 0.374812 0.267378 0.500000
Si Si3 0.879375 0.367468 0.755554
Si Si4 0.620812 0.314584 0.755431
Si Si5 0.115723 0.315853 0.500000
Si Si6 0.126691 0.677680 0.500000
Si Si7 0.690423 0.396888 0.148949
Si Si8 0.122239 0.773454 0.000000
O O1 0.882865 0.933972 0.161634
O O2 0.833615 0.000000 0.250000
O O3 0.841729 0.985872 0.000000
O O4 0.000000 0.000000 0.129782
O O5 0.344284 0.289089 0.626863
O O6 0.341203 0.222693 0.500000
O O7 0.498429 0.270663 0.500000
O O8 0.850676 0.346560 0.625540
O O9 0.802149 0.402082 0.790639
O O10 0.000000 0.376407 0.750000
O O11 0.859319 0.337938 0.871263
O O12 0.500000 0.312553 0.750000
O O13 0.648613 0.358957 0.782299
O O14 0.653790 0.296408 0.624236
O O15 0.152016 0.271655 0.500000
O O16 0.994443 0.317137 0.500000
O O17 0.698229 0.389726 0.000000
#
# Coordination Sequence:
#
# PCOD9526581 Si02
#       8
#    16   8  16  16   8   8  16   8
#     4   9  20  40  64  93 120 153 191 224 282 361
#     4   9  16  33  51  73 112 163 202 248 310 370
#     4  10  20  36  58  86 112 156 208 254 306 343
#     4  10  20  33  51  80 116 161 202 245 313 363
#     4   9  16  33  57  77 110 164 209 256 310 359
#     4   9  18  31  55  81 112 150 211 268 294 339
#     4  11  22  39  62  86 125 159 191 242 303 370
#     4   9  18  31  49  79 116 155 210 260 302 354
#
# _framework density 19.655474000000002
#
# number of rings (size 3 to 8) (size 9 to 14) (size 15 to 20)
#    0.000    2.333    1.667    1.000    2.333    4.667 
#    3.000    5.000    0.000    0.500    0.000    2.333 
#    0.000    0.000    0.000    0.000    0.000    0.000 
#
# Total GULP energy -267618.429699 kJ/mol
# GULP energy per Si atom -5575.383952 kJ/mol
# Density = 1.961074 g / cm^3
# Si number density = 19.655474 Si / 1000 Ang^3
#
#
#
# Elastic Constant Matrix: (Units=GPa)
#
#
# Indices 1 2 3 4 5 6 
#
# 1 91.7996 38.0388 24.0056 -0.0006 -0.0007 -0.0001
# 2 38.0388 103.4585 65.7251 0.0003 -0.0004 -0.0001
# 3 24.0056 65.7251 178.9189 -0.0008 -0.0025 -0.0005
# 4 -0.0006 0.0003 -0.0008 31.7712 0.0008 -0.0001
# 5 -0.0007 -0.0004 -0.0025 0.0008 4.1053 0.0003
# 6 -0.0001 -0.0001 -0.0005 -0.0001 0.0003 27.3064
#
#
#
# Elastic Compliance Matrix: (Units=1/GPa)
#
#
# Indices 1 2 3 4 5 6 
#
# 1 0.012851 -0.004735 0.000015 0.000000 0.000002 0.000000
# 2 -0.004735 0.014352 -0.004637 0.000000 -0.000002 0.000000
# 3 0.000015 -0.004637 0.007291 0.000000 0.000004 0.000000
# 4 0.000000 0.000000 0.000000 0.031475 -0.000006 0.000000
# 5 0.000002 -0.000002 0.000004 -0.000006 0.243585 -0.000003
# 6 0.000000 0.000000 0.000000 0.000000 -0.000003 0.036622
#
#
# Mechanical properties :
#
#
# Convention : Reuss Voigt Hill
#
# Bulk Modulus (GPa) = 63.36807 69.96845 66.66826
# Shear Modulus (GPa) = 13.50807 29.06375 21.28591
#
# Velocity S-wave (km/s) = 2.62437 3.84951 3.29439
# Velocity P-wave (km/s) = 6.44147 7.44533 6.96152
#
# Compressibility (1/GPa) = 0.01578082
#
# Stress axis : x y z
#
# Youngs Moduli (GPa) = 77.81361 69.67541 137.16466
#
# Poissons Ratio (x) = 0.32988 -0.00205
# Poissons Ratio (y) = 0.36841 0.63603
# Poissons Ratio (z) = -0.00116 0.32309
#
# Static dielectric constant tensor:
#      x y z
#    x 1.798270 0.000000 0.000000 
#    y 0.000000 1.675970 0.000000 
#    z 0.000000 0.000000 1.715630 
# 
# From -- ./inp_files/13127.got.cif
#   From: 2010.05.17/outbox.cif.g08.bks.cpg/sg72_7_cif.got.tgz:13127.got - 2010.06.03 17:03:01.
