data_PCOD9526565
_publ_section_title
;
Structure prediction by ZEFSAII (Michael W. Deem and Ramdas Pophale) SiO2 
 PCOD9526565
Probable space group: I B A M
;
_chemical_formula_sum "Si O2"
_cell_formula_units_Z 68
_cell_length_a 37.023775
_cell_length_b 5.644657
_cell_length_c 14.144084
_cell_angle_alpha 90.000000
_cell_angle_beta 90.000000
_cell_angle_gamma 90.000000
_cell_volume 2955.922762
_symmetry_space_group_name_H-M "I B A M"
_symmetry_group_IT_number 72
_symmetry_cell_setting 'orthorhombic'
loop_
_space_group_symop_operation_xyz
x,y,z
-x,-y,z
x,-y,1/2-z
-x,y,1/2-z
-x,-y,-z
x,y,-z
-x,y,1/2+z
x,-y,1/2+z
1/2+x,1/2+y,1/2+z
1/2-x,1/2-y,1/2+z
1/2+x,1/2-y,-z
1/2-x,1/2+y,-z
1/2-x,1/2-y,1/2-z
1/2+x,1/2+y,1/2-z
1/2-x,1/2+y,z
1/2+x,1/2-y,z
loop_
_atom_site_type_symbol
_atom_site_label
_atom_site_fract_x
_atom_site_fract_y
_atom_site_fract_z
Si Si1 0.618459 0.108484 0.393388
Si Si2 0.963321 0.613802 0.646300
Si Si3 0.352169 0.609996 0.115243
Si Si4 0.267406 0.385145 0.385087
Si Si5 0.000000 0.000000 0.750000
O O1 0.634261 0.111008 0.500000
O O2 0.575167 0.095207 0.400008
O O3 0.630018 0.362722 0.351498
O O4 0.631438 0.859755 0.349938
O O5 0.959662 0.500000 0.750000
O O6 0.973480 0.876427 0.675652
O O7 0.000000 0.500000 0.604308
O O8 0.309791 0.607352 0.136879
O O9 0.356887 0.612200 0.000000
O O10 0.263921 0.383987 0.500000
O O11 0.249399 0.633330 0.352739
#
# Coordination Sequence:
#
# PCOD9526565 Si02
#       5
#    16  16  16  16   4
#     4  10  20  33  50  73 105 136 162 202 254 302
#     4   9  20  35  54  74  96 131 169 211 251 289
#     4   9  18  30  44  69 104 135 163 202 252 294
#     4   9  15  24  41  63  92 132 169 196 233 291
#     4   8  18  36  54  70  96 124 166 218 250 284
#
# _framework density 23.004663000000001
#
# number of rings (size 3 to 8) (size 9 to 14) (size 15 to 20)
#    0.000    3.059    0.000    1.412    6.588    6.118 
#    0.000    0.588    0.000    0.000    0.000    0.000 
#    0.000   18.824    0.000    0.000    0.000    0.000 
#
# Total GULP energy -189519.507061 kJ/mol
# GULP energy per Si atom -5574.103149 kJ/mol
# Density = 2.295230 g / cm^3
# Si number density = 23.004663 Si / 1000 Ang^3
#
#
#
# Elastic Constant Matrix: (Units=GPa)
#
#
# Indices 1 2 3 4 5 6 
#
# 1 161.9154 121.6784 5.5979 0.0000 0.0000 0.0000
# 2 121.6784 232.9252 32.5524 0.0000 0.0000 0.0000
# 3 5.5979 32.5524 61.7595 0.0000 0.0000 0.0000
# 4 0.0000 0.0000 0.0000 19.2723 0.0000 0.0000
# 5 0.0000 0.0000 0.0000 0.0000 48.8013 0.0000
# 6 0.0000 0.0000 0.0000 0.0000 0.0000 69.1980
#
#
#
# Elastic Compliance Matrix: (Units=1/GPa)
#
#
# Indices 1 2 3 4 5 6 
#
# 1 0.010408 -0.005727 0.002075 0.000000 0.000000 0.000000
# 2 -0.005727 0.007786 -0.003585 0.000000 0.000000 0.000000
# 3 0.002075 -0.003585 0.017893 0.000000 0.000000 0.000000
# 4 0.000000 0.000000 0.000000 0.051888 0.000000 0.000000
# 5 0.000000 0.000000 0.000000 0.000000 0.020491 0.000000
# 6 0.000000 0.000000 0.000000 0.000000 0.000000 0.014451
#
#
# Mechanical properties :
#
#
# Convention : Reuss Voigt Hill
#
# Bulk Modulus (GPa) = 46.26594 86.25081 66.25838
# Shear Modulus (GPa) = 34.57902 47.23907 40.90905
#
# Velocity S-wave (km/s) = 3.88123 4.53642 4.22156
# Velocity P-wave (km/s) = 6.34354 8.06306 7.25443
#
# Compressibility (1/GPa) = 0.02161417
#
# Stress axis : x y z
#
# Youngs Moduli (GPa) = 96.07694 128.43400 55.88709
#
# Poissons Ratio (x) = 0.73558 -0.11598
# Poissons Ratio (y) = 0.55026 0.20034
# Poissons Ratio (z) = -0.19939 0.46041
#
# Static dielectric constant tensor:
#      x y z
#    x 1.790250 0.000000 0.000000 
#    y 0.000000 1.844400 0.000000 
#    z 0.000000 0.000000 1.940360 
# 
# From -- ./inp_files/34825.got.cif
#   From: 2010.05.17/outbox.cif.g08.bks.cpg/sg72_18_cif.got.tgz:34825.got - 2010.06.03 17:03:01.
