data_PCOD9526959
_publ_section_title
;
Structure prediction by ZEFSAII (Michael W. Deem and Ramdas Pophale) SiO2 
 PCOD9526959
Probable space group: I B A M
;
_chemical_formula_sum "Si O2"
_cell_formula_units_Z 88
_cell_length_a 25.610772
_cell_length_b 10.771683
_cell_length_c 15.104898
_cell_angle_alpha 90.000000
_cell_angle_beta 90.000000
_cell_angle_gamma 90.000000
_cell_volume 4167.005089
_symmetry_space_group_name_H-M "I B A M"
_symmetry_group_IT_number 72
_symmetry_cell_setting 'orthorhombic'
loop_
_space_group_symop_operation_xyz
x,y,z
-x,-y,z
x,-y,1/2-z
-x,y,1/2-z
-x,-y,-z
x,y,-z
-x,y,1/2+z
x,-y,1/2+z
1/2+x,1/2+y,1/2+z
1/2-x,1/2-y,1/2+z
1/2+x,1/2-y,-z
1/2-x,1/2+y,-z
1/2-x,1/2-y,1/2-z
1/2+x,1/2+y,1/2-z
1/2-x,1/2+y,z
1/2+x,1/2-y,z
loop_
_atom_site_type_symbol
_atom_site_label
_atom_site_fract_x
_atom_site_fract_y
_atom_site_fract_z
Si Si1 0.714279 0.695086 0.102224
Si Si2 0.386967 0.840620 0.652960
Si Si3 0.803878 0.000000 0.250000
Si Si4 0.885649 0.375709 0.640289
Si Si5 0.314945 0.339063 0.403398
Si Si6 0.001306 0.641781 0.105022
O O1 0.655850 0.748242 0.114067
O O2 0.724328 0.593392 0.179756
O O3 0.754189 0.809720 0.114378
O O4 0.721986 0.653508 0.000000
O O5 0.375467 0.863578 0.755602
O O6 0.447005 0.796244 0.644149
O O7 0.385171 0.980051 0.611728
O O8 0.835335 0.916245 0.179986
O O9 0.842137 0.293869 0.594987
O O10 0.942555 0.315706 0.622560
O O11 0.322160 0.397490 0.500000
O O12 0.000000 0.500000 0.140760
O O13 0.009099 0.638450 0.000000
#
# Coordination Sequence:
#
# PCOD9526959 Si02
#       6
#    16  16   8  16  16  16
#     4  11  25  41  63  91 120 162 205 247 300 357
#     4  10  20  35  60  90 123 157 199 249 308 366
#     4  12  24  44  62  83 124 163 202 256 286 358
#     4  10  20  35  60  90 123 157 199 249 308 366
#     4  11  25  41  63  91 120 162 205 247 300 357
#     4   9  17  31  53  85 122 155 192 248 309 364
#
# _framework density 21.118285
#
# number of rings (size 3 to 8) (size 9 to 14) (size 15 to 20)
#    0.000    1.636    1.818    2.727    2.545    4.364 
#    0.000    0.000    0.000    2.182    0.000    3.818 
#    0.000    0.000    0.000    0.000    0.000    0.000 
#
# Total GULP energy -245360.935371 kJ/mol
# GULP energy per Si atom -5576.384895 kJ/mol
# Density = 2.107022 g / cm^3
# Si number density = 21.118285 Si / 1000 Ang^3
#
#
#
# Elastic Constant Matrix: (Units=GPa)
#
#
# Indices 1 2 3 4 5 6 
#
# 1 86.4483 8.5878 5.5703 0.0000 0.0000 0.0000
# 2 8.5878 53.6518 31.5253 0.0000 0.0000 0.0000
# 3 5.5703 31.5253 157.0091 0.0000 0.0000 0.0000
# 4 0.0000 0.0000 0.0000 14.6885 0.0000 0.0000
# 5 0.0000 0.0000 0.0000 0.0000 22.8944 0.0000
# 6 0.0000 0.0000 0.0000 0.0000 0.0000 22.1894
#
#
#
# Elastic Compliance Matrix: (Units=1/GPa)
#
#
# Indices 1 2 3 4 5 6 
#
# 1 0.011755 -0.001855 -0.000044 0.000000 0.000000 0.000000
# 2 -0.001855 0.021425 -0.004236 0.000000 0.000000 0.000000
# 3 -0.000044 -0.004236 0.007221 0.000000 0.000000 0.000000
# 4 0.000000 0.000000 0.000000 0.068081 0.000000 0.000000
# 5 0.000000 0.000000 0.000000 0.000000 0.043679 0.000000
# 6 0.000000 0.000000 0.000000 0.000000 0.000000 0.045067
#
#
# Mechanical properties :
#
#
# Convention : Reuss Voigt Hill
#
# Bulk Modulus (GPa) = 35.55059 43.16401 39.35730
# Shear Modulus (GPa) = 22.84412 28.71617 25.78014
#
# Velocity S-wave (km/s) = 3.29252 3.69152 3.49771
# Velocity P-wave (km/s) = 5.59686 6.21717 5.91515
#
# Compressibility (1/GPa) = 0.02812893
#
# Stress axis : x y z
#
# Youngs Moduli (GPa) = 85.07173 46.67511 138.48188
#
# Poissons Ratio (x) = 0.08660 0.00616
# Poissons Ratio (y) = 0.15784 0.58660
# Poissons Ratio (z) = 0.00378 0.19771
#
# Static dielectric constant tensor:
#      x y z
#    x 1.753460 0.000000 0.000000 
#    y 0.000000 1.828880 0.000000 
#    z 0.000000 0.000000 1.787270 
# 
# From -- ./inp_files/20532.got.cif
#   From: 2010.05.17/outbox.cif.g08.bks.cpg/sg72_11_cif.got.tgz:20532.got - 2010.06.03 17:03:01.
