data_PCOD9526793
_publ_section_title
;
Structure prediction by ZEFSAII (Michael W. Deem and Ramdas Pophale) SiO2 
 PCOD9526793
Probable space group: I B A M
;
_chemical_formula_sum "Si O2"
_cell_formula_units_Z 120
_cell_length_a 20.149884
_cell_length_b 13.100363
_cell_length_c 23.088653
_cell_angle_alpha 90.000000
_cell_angle_beta 90.000000
_cell_angle_gamma 90.000000
_cell_volume 6094.730083
_symmetry_space_group_name_H-M "I B A M"
_symmetry_group_IT_number 72
_symmetry_cell_setting 'orthorhombic'
loop_
_space_group_symop_operation_xyz
x,y,z
-x,-y,z
x,-y,1/2-z
-x,y,1/2-z
-x,-y,-z
x,y,-z
-x,y,1/2+z
x,-y,1/2+z
1/2+x,1/2+y,1/2+z
1/2-x,1/2-y,1/2+z
1/2+x,1/2-y,-z
1/2-x,1/2+y,-z
1/2-x,1/2-y,1/2-z
1/2+x,1/2+y,1/2-z
1/2-x,1/2+y,z
1/2+x,1/2-y,z
loop_
_atom_site_type_symbol
_atom_site_label
_atom_site_fract_x
_atom_site_fract_y
_atom_site_fract_z
Si Si1 0.055366 0.288971 0.933145
Si Si2 0.567915 0.913763 0.786515
Si Si3 0.539862 0.605992 0.069458
Si Si4 0.334637 0.250050 0.228082
Si Si5 0.289896 0.796476 0.930597
Si Si6 0.217642 0.852119 0.332222
Si Si7 0.500000 0.000000 0.393913
Si Si8 0.681277 0.421231 0.366765
O O1 0.131932 0.301342 0.914177
O O2 0.006669 0.200509 0.908556
O O3 0.023207 0.400610 0.927722
O O4 0.061420 0.258839 0.000000
O O5 0.500000 0.902487 0.750000
O O6 0.597886 0.803069 0.788667
O O7 0.607116 0.000000 0.750000
O O8 0.556001 0.959412 0.849646
O O9 0.500000 0.500000 0.077808
O O10 0.611514 0.596016 0.099994
O O11 0.551032 0.618903 0.000000
O O12 0.280945 0.163619 0.209798
O O13 0.333352 0.283434 0.294705
O O14 0.319362 0.346628 0.188368
O O15 0.265618 0.698512 0.893993
O O16 0.243506 0.887558 0.906962
O O17 0.283727 0.787865 0.000000
O O18 0.191569 0.964280 0.344255
#
# Coordination Sequence:
#
# PCOD9526793 Si02
#       8
#    16  16  16  16  16  16   8  16
#     4  10  21  37  59  88 123 159 204 256 312 381
#     4   9  21  36  57  87 115 156 198 250 305 365
#     4  10  21  39  63  88 124 174 216 260 321 389
#     4  10  22  40  60  89 121 163 207 254 314 379
#     4  10  23  40  62  92 121 158 206 258 314 371
#     4  10  23  38  64  86 122 165 202 257 308 383
#     4  10  20  34  58  88 116 156 200 248 314 372
#     4  11  22  40  62  93 126 161 213 264 316 372
#
# _framework density 19.689140999999999
#
# number of rings (size 3 to 8) (size 9 to 14) (size 15 to 20)
#    0.000    2.133    0.000    2.600    5.600    4.267 
#    2.400    0.000    0.000    0.000    0.000    0.000 
#    0.000    0.000    0.000    0.000    0.000    0.000 
#
# Total GULP energy -334184.706332 kJ/mol
# GULP energy per Si atom -5569.745106 kJ/mol
# Density = 1.964433 g / cm^3
# Si number density = 19.689141 Si / 1000 Ang^3
#
#
#
# Elastic Constant Matrix: (Units=GPa)
#
#
# Indices 1 2 3 4 5 6 
#
# 1 99.8673 60.1952 33.8144 0.0000 0.0000 0.0000
# 2 60.1952 107.0286 31.7626 0.0000 0.0000 0.0000
# 3 33.8144 31.7626 91.6924 0.0000 0.0000 0.0000
# 4 0.0000 0.0000 0.0000 57.8658 0.0000 0.0000
# 5 0.0000 0.0000 0.0000 0.0000 4.6436 0.0000
# 6 0.0000 0.0000 0.0000 0.0000 0.0000 32.7533
#
#
#
# Elastic Compliance Matrix: (Units=1/GPa)
#
#
# Indices 1 2 3 4 5 6 
#
# 1 0.015893 -0.008024 -0.003082 0.000000 0.000000 0.000000
# 2 -0.008024 0.014465 -0.002052 0.000000 0.000000 0.000000
# 3 -0.003082 -0.002052 0.012753 0.000000 0.000000 0.000000
# 4 0.000000 0.000000 0.000000 0.017281 0.000000 0.000000
# 5 0.000000 0.000000 0.000000 0.000000 0.215352 0.000000
# 6 0.000000 0.000000 0.000000 0.000000 0.000000 0.030531
#
#
# Mechanical properties :
#
#
# Convention : Reuss Voigt Hill
#
# Bulk Modulus (GPa) = 59.53494 61.12584 60.33039
# Shear Modulus (GPa) = 14.78460 30.57360 22.67910
#
# Velocity S-wave (km/s) = 2.74323 3.94485 3.39759
# Velocity P-wave (km/s) = 6.35113 7.20153 6.78966
#
# Compressibility (1/GPa) = 0.01679686
#
# Stress axis : x y z
#
# Youngs Moduli (GPa) = 62.91959 69.13169 78.41227
#
# Poissons Ratio (x) = 0.55473 0.24163
# Poissons Ratio (y) = 0.50488 0.16087
# Poissons Ratio (z) = 0.19389 0.14183
#
# Static dielectric constant tensor:
#      x y z
#    x 1.766290 0.000000 0.000000 
#    y 0.000000 1.765210 0.000000 
#    z 0.000000 0.000000 1.699450 
# 
# From -- ./inp_files/45472.got.cif
#   From: 2010.05.17/outbox.cif.g08.bks.cpg/sg72_23_cif.got.tgz:45472.got - 2010.06.03 17:03:01.
