data_PCOD9526138
_publ_section_title
;
Structure prediction by ZEFSAII (Michael W. Deem and Ramdas Pophale) SiO2 
 PCOD9526138
Probable space group: I B A M
;
_chemical_formula_sum "Si O2"
_cell_formula_units_Z 96
_cell_length_a 24.468284
_cell_length_b 8.258893
_cell_length_c 23.193452
_cell_angle_alpha 90.000000
_cell_angle_beta 90.000000
_cell_angle_gamma 90.000000
_cell_volume 4686.954569
_symmetry_space_group_name_H-M "I B A M"
_symmetry_group_IT_number 72
_symmetry_cell_setting 'orthorhombic'
loop_
_space_group_symop_operation_xyz
x,y,z
-x,-y,z
x,-y,1/2-z
-x,y,1/2-z
-x,-y,-z
x,y,-z
-x,y,1/2+z
x,-y,1/2+z
1/2+x,1/2+y,1/2+z
1/2-x,1/2-y,1/2+z
1/2+x,1/2-y,-z
1/2-x,1/2+y,-z
1/2-x,1/2-y,1/2-z
1/2+x,1/2+y,1/2-z
1/2-x,1/2+y,z
1/2+x,1/2-y,z
loop_
_atom_site_type_symbol
_atom_site_label
_atom_site_fract_x
_atom_site_fract_y
_atom_site_fract_z
Si Si1 0.276583 0.691160 0.569349
Si Si2 0.463184 0.665511 0.628431
Si Si3 0.434335 0.188108 0.245328
Si Si4 0.577206 0.803902 0.628630
Si Si5 0.116342 0.624471 0.067258
Si Si6 0.170967 0.138076 0.069271
O O1 0.272630 0.673164 0.500000
O O2 0.320400 0.833442 0.578603
O O3 0.215694 0.729820 0.589337
O O4 0.304485 0.529407 0.591753
O O5 0.500000 0.500000 0.629727
O O6 0.429367 0.705616 0.687427
O O7 0.512295 0.795010 0.621475
O O8 0.420085 0.714057 0.578902
O O9 0.500000 0.183469 0.250000
O O10 0.411879 0.252957 0.305701
O O11 0.416302 0.000000 0.250000
O O12 0.610993 0.680864 0.589676
O O13 0.596693 0.981703 0.609337
O O14 0.110791 0.576086 0.000000
O O15 0.170890 0.135094 0.000000
#
# Coordination Sequence:
#
# PCOD9526138 Si02
#       6
#    16  16  16  16  16  16
#     4   9  19  35  55  81 116 154 194 234 283 351
#     4  11  23  38  58  86 117 152 195 245 296 347
#     4   9  18  36  57  77 106 146 194 235 279 339
#     4  11  21  34  58  83 113 150 195 242 292 343
#     4  11  22  36  56  85 121 160 194 234 293 359
#     4  10  19  34  56  84 115 149 192 243 293 348
#
# _framework density 20.482384
#
# number of rings (size 3 to 8) (size 9 to 14) (size 15 to 20)
#    0.000    1.833    1.667    3.000    0.000    8.000 
#    0.000    0.000    0.000    1.000    0.000    0.000 
#    0.000    0.000    0.000    0.000    0.000    0.000 
#
# Total GULP energy -267345.855389 kJ/mol
# GULP energy per Si atom -5569.705321 kJ/mol
# Density = 2.043576 g / cm^3
# Si number density = 20.482384 Si / 1000 Ang^3
#
#
#
# Elastic Constant Matrix: (Units=GPa)
#
#
# Indices 1 2 3 4 5 6 
#
# 1 55.3824 -1.3325 24.5541 0.0000 0.0000 0.0000
# 2 -1.3325 73.1312 16.5861 0.0000 0.0000 0.0000
# 3 24.5541 16.5861 64.7366 0.0000 0.0000 0.0000
# 4 0.0000 0.0000 0.0000 17.4313 0.0000 0.0000
# 5 0.0000 0.0000 0.0000 0.0000 -28.6672 0.0000
# 6 0.0000 0.0000 0.0000 0.0000 0.0000 17.3573
#
#
#
# Elastic Compliance Matrix: (Units=1/GPa)
#
#
# Indices 1 2 3 4 5 6 
#
# 1 0.022111 0.002447 -0.009014 0.000000 0.000000 0.000000
# 2 0.002447 0.014788 -0.004717 0.000000 0.000000 0.000000
# 3 -0.009014 -0.004717 0.020075 0.000000 0.000000 0.000000
# 4 0.000000 0.000000 0.000000 0.057368 0.000000 0.000000
# 5 0.000000 0.000000 0.000000 0.000000 -0.034883 0.000000
# 6 0.000000 0.000000 0.000000 0.000000 0.000000 0.057613
#
#
# Mechanical properties :
#
#
# Convention : Reuss Voigt Hill
#
# Bulk Modulus (GPa) = 29.06366 30.31840 29.69103
# Shear Modulus (GPa) = 29.22126 11.45380 20.33753
#
# Velocity S-wave (km/s) = 3.78120 2.36731 3.15449
# Velocity P-wave (km/s) = 5.76921 4.72298 5.27211
#
# Compressibility (1/GPa) = 0.03440723
#
# Stress axis : x y z
#
# Youngs Moduli (GPa) = 45.22546 67.62020 49.81414
#
# Poissons Ratio (x) = -0.16548 0.44901
# Poissons Ratio (y) = -0.11068 0.23498
# Poissons Ratio (z) = 0.40765 0.31897
#
# Static dielectric constant tensor:
#      x y z
#    x 1.689440 0.000000 0.000000 
#    y 0.000000 1.868060 0.000000 
#    z 0.000000 0.000000 1.758530 
# 
# From -- ./inp_files/45654.got.cif
#   From: 2010.05.17/outbox.cif.g08.bks.cpg/sg72_23_cif.got.tgz:45654.got - 2010.06.03 17:03:01.
