data_PCOD9526814
_publ_section_title
;
Structure prediction by ZEFSAII (Michael W. Deem and Ramdas Pophale) SiO2 
 PCOD9526814
Probable space group: I B A M
;
_chemical_formula_sum "Si O2"
_cell_formula_units_Z 116
_cell_length_a 31.938179
_cell_length_b 22.327546
_cell_length_c 8.895093
_cell_angle_alpha 90.000000
_cell_angle_beta 90.000000
_cell_angle_gamma 90.000000
_cell_volume 6343.101144
_symmetry_space_group_name_H-M "I B A M"
_symmetry_group_IT_number 72
_symmetry_cell_setting 'orthorhombic'
loop_
_space_group_symop_operation_xyz
x,y,z
-x,-y,z
x,-y,1/2-z
-x,y,1/2-z
-x,-y,-z
x,y,-z
-x,y,1/2+z
x,-y,1/2+z
1/2+x,1/2+y,1/2+z
1/2-x,1/2-y,1/2+z
1/2+x,1/2-y,-z
1/2-x,1/2+y,-z
1/2-x,1/2-y,1/2-z
1/2+x,1/2+y,1/2-z
1/2-x,1/2+y,z
1/2+x,1/2-y,z
loop_
_atom_site_type_symbol
_atom_site_label
_atom_site_fract_x
_atom_site_fract_y
_atom_site_fract_z
Si Si1 0.500000 0.000000 0.250000
Si Si2 0.568027 0.903169 0.827290
Si Si3 0.215868 0.666135 0.321124
Si Si4 0.802937 0.195249 0.678520
Si Si5 0.609145 0.329557 0.679953
Si Si6 0.456373 0.227261 0.181392
Si Si7 0.044548 0.935099 0.819802
Si Si8 0.840136 0.562659 0.319160
O O1 0.532345 0.953789 0.173517
O O2 0.552324 0.840338 0.760594
O O3 0.611994 0.926015 0.762807
O O4 0.577611 0.888669 0.000000
O O5 0.214309 0.656177 0.500000
O O6 0.198965 0.733280 0.289764
O O7 0.263553 0.666100 0.262999
O O8 0.188214 0.617217 0.236407
O O9 0.798047 0.187239 0.500000
O O10 0.846995 0.170630 0.735581
O O11 0.616500 0.327936 0.500000
O O12 0.581834 0.270889 0.719953
O O13 0.580321 0.386876 0.713731
O O14 0.500000 0.248798 0.250000
O O15 0.460619 0.227207 0.000000
O O16 0.000000 0.915978 0.750000
O O17 0.054204 0.000000 0.750000
O O18 0.040247 0.939901 0.000000
O O19 0.825521 0.500000 0.250000
O O20 0.839655 0.558701 0.500000
#
# Coordination Sequence:
#
# PCOD9526814 Si02
#       8
#     4  16  16  16  16  16  16  16
#     4  12  18  36  52  74 108 152 200 232 282 324
#     4  10  21  34  52  76 108 151 193 236 283 328
#     4  10  21  39  61  86 114 145 183 229 283 344
#     4  10  21  37  61  89 113 143 183 229 282 339
#     4  10  21  36  56  82 115 148 183 230 285 339
#     4  10  20  35  52  76 109 148 190 234 282 329
#     4  10  20  35  56  82 111 150 190 229 275 330
#     4  11  22  38  58  83 113 149 192 238 286 336
#
# _framework density 18.287583999999999
#
# number of rings (size 3 to 8) (size 9 to 14) (size 15 to 20)
#    0.000    1.793    1.379    3.517    0.000    4.414 
#    0.000    2.069    0.000    1.655    0.000    0.000 
#    0.000    0.000    0.000    0.000    0.000    0.000 
#
# Total GULP energy -323715.855956 kJ/mol
# GULP energy per Si atom -5581.307861 kJ/mol
# Density = 1.824596 g / cm^3
# Si number density = 18.287584 Si / 1000 Ang^3
#
#
#
# Elastic Constant Matrix: (Units=GPa)
#
#
# Indices 1 2 3 4 5 6 
#
# 1 125.5710 59.7552 44.8271 0.0000 0.0000 0.0000
# 2 59.7552 81.3328 36.5249 0.0000 0.0000 0.0000
# 3 44.8271 36.5249 52.9761 0.0000 0.0000 0.0000
# 4 0.0000 0.0000 0.0000 24.3572 0.0000 0.0000
# 5 0.0000 0.0000 0.0000 0.0000 26.3967 0.0000
# 6 0.0000 0.0000 0.0000 0.0000 0.0000 19.8820
#
#
#
# Elastic Compliance Matrix: (Units=1/GPa)
#
#
# Indices 1 2 3 4 5 6 
#
# 1 0.013733 -0.007056 -0.006756 0.000000 0.000000 0.000000
# 2 -0.007056 0.021434 -0.008808 0.000000 0.000000 0.000000
# 3 -0.006756 -0.008808 0.030666 0.000000 0.000000 0.000000
# 4 0.000000 0.000000 0.000000 0.041056 0.000000 0.000000
# 5 0.000000 0.000000 0.000000 0.000000 0.037883 0.000000
# 6 0.000000 0.000000 0.000000 0.000000 0.000000 0.050297
#
#
# Mechanical properties :
#
#
# Convention : Reuss Voigt Hill
#
# Bulk Modulus (GPa) = 48.55707 60.23272 54.39489
# Shear Modulus (GPa) = 20.22880 22.04537 21.13708
#
# Velocity S-wave (km/s) = 3.32949 3.47577 3.40342
# Velocity P-wave (km/s) = 6.43353 7.00827 6.72704
#
# Compressibility (1/GPa) = 0.02059433
#
# Stress axis : x y z
#
# Youngs Moduli (GPa) = 72.81756 46.65406 32.60968
#
# Poissons Ratio (x) = 0.32918 0.22031
# Poissons Ratio (y) = 0.51378 0.28722
# Poissons Ratio (z) = 0.49195 0.41092
#
# Static dielectric constant tensor:
#      x y z
#    x 1.607070 0.000000 0.000000 
#    y 0.000000 1.631690 0.000000 
#    z 0.000000 0.000000 1.623860 
# 
# From -- ./inp_files/8394.got.cif
#   From: 2010.05.17/outbox.cif.g08.bks.cpg/sg72_5_cif.got.tgz:8394.got - 2010.06.03 17:03:01.
