data_PCOD9526644
_publ_section_title
;
Structure prediction by ZEFSAII (Michael W. Deem and Ramdas Pophale) SiO2 
 PCOD9526644
Probable space group: I B A M
;
_chemical_formula_sum "Si O2"
_cell_formula_units_Z 68
_cell_length_a 9.147097
_cell_length_b 19.636421
_cell_length_c 17.992246
_cell_angle_alpha 90.000000
_cell_angle_beta 90.000000
_cell_angle_gamma 90.000000
_cell_volume 3231.699713
_symmetry_space_group_name_H-M "I B A M"
_symmetry_group_IT_number 72
_symmetry_cell_setting 'orthorhombic'
loop_
_space_group_symop_operation_xyz
x,y,z
-x,-y,z
x,-y,1/2-z
-x,y,1/2-z
-x,-y,-z
x,y,-z
-x,y,1/2+z
x,-y,1/2+z
1/2+x,1/2+y,1/2+z
1/2-x,1/2-y,1/2+z
1/2+x,1/2-y,-z
1/2-x,1/2+y,-z
1/2-x,1/2-y,1/2-z
1/2+x,1/2+y,1/2-z
1/2-x,1/2+y,z
1/2+x,1/2-y,z
loop_
_atom_site_type_symbol
_atom_site_label
_atom_site_fract_x
_atom_site_fract_y
_atom_site_fract_z
Si Si1 0.644767 0.756305 0.586795
Si Si2 0.000000 0.500000 0.000000
Si Si3 0.523890 0.106440 0.368800
Si Si4 0.260586 0.922458 0.758315
Si Si5 0.077138 0.801747 0.178625
O O1 0.684005 0.752315 0.500000
O O2 0.538921 0.821715 0.601119
O O3 0.783988 0.766304 0.639998
O O4 0.546924 0.694003 0.615927
O O5 0.045404 0.555391 0.935764
O O6 0.666364 0.107483 0.316583
O O7 0.392999 0.077745 0.317414
O O8 0.139143 0.872073 0.789979
O O9 0.210395 0.000000 0.750000
O O10 0.000000 0.765425 0.250000
#
# Coordination Sequence:
#
# PCOD9526644 Si02
#       5
#    16   4  16  16  16
#     4  11  24  42  64  99 134 174 218 284 346 401
#     4  12  16  34  60 100 130 170 232 282 336 392
#     4  10  20  33  64  96 130 172 228 281 330 395
#     4  10  20  39  61  93 132 175 225 277 329 397
#     4  11  26  42  67  94 130 177 228 275 332 407
#
# _framework density 21.041557999999998
#
# number of rings (size 3 to 8) (size 9 to 14) (size 15 to 20)
#    0.000    1.412    3.529    2.118    9.882    0.471 
#    0.000    0.000    2.588    0.000    0.000    8.235 
#    0.000    0.000    0.000    0.000    0.000    0.000 
#
# Total GULP energy -189457.308909 kJ/mol
# GULP energy per Si atom -5572.273791 kJ/mol
# Density = 2.099367 g / cm^3
# Si number density = 21.041558 Si / 1000 Ang^3
#
#
#
# Elastic Constant Matrix: (Units=GPa)
#
#
# Indices 1 2 3 4 5 6 
#
# 1 114.9419 65.9871 54.5020 0.0000 0.0000 0.0000
# 2 65.9871 88.7756 60.9532 0.0000 0.0000 0.0000
# 3 54.5020 60.9532 165.6269 0.0000 0.0000 0.0000
# 4 0.0000 0.0000 0.0000 30.3058 0.0000 0.0000
# 5 0.0000 0.0000 0.0000 0.0000 21.3221 0.0000
# 6 0.0000 0.0000 0.0000 0.0000 0.0000 24.9803
#
#
#
# Elastic Compliance Matrix: (Units=1/GPa)
#
#
# Indices 1 2 3 4 5 6 
#
# 1 0.015335 -0.010616 -0.001139 0.000000 0.000000 0.000000
# 2 -0.010616 0.022423 -0.004758 0.000000 0.000000 0.000000
# 3 -0.001139 -0.004758 0.008164 0.000000 0.000000 0.000000
# 4 0.000000 0.000000 0.000000 0.032997 0.000000 0.000000
# 5 0.000000 0.000000 0.000000 0.000000 0.046900 0.000000
# 6 0.000000 0.000000 0.000000 0.000000 0.000000 0.040032
#
#
# Mechanical properties :
#
#
# Convention : Reuss Voigt Hill
#
# Bulk Modulus (GPa) = 77.55917 81.35876 79.45897
# Shear Modulus (GPa) = 24.60929 27.84844 26.22886
#
# Velocity S-wave (km/s) = 3.42359 3.64194 3.53445
# Velocity P-wave (km/s) = 7.25038 7.51230 7.38250
#
# Compressibility (1/GPa) = 0.01289338
#
# Stress axis : x y z
#
# Youngs Moduli (GPa) = 65.21042 44.59787 122.49333
#
# Poissons Ratio (x) = 0.47347 0.13955
# Poissons Ratio (y) = 0.69229 0.58287
# Poissons Ratio (z) = 0.07429 0.21221
#
# Static dielectric constant tensor:
#      x y z
#    x 1.780900 0.000000 0.000000 
#    y 0.000000 1.802400 0.000000 
#    z 0.000000 0.000000 1.753220 
# 
# From -- ./inp_files/27774.got.cif
#   From: 2010.05.17/outbox.cif.g08.bks.cpg/sg72_14_cif.got.tgz:27774.got - 2010.06.03 17:03:01.
