data_PCOD9526085
_publ_section_title
;
Structure prediction by ZEFSAII (Michael W. Deem and Ramdas Pophale) SiO2 
 PCOD9526085
Probable space group: I B A M
;
_chemical_formula_sum "Si O2"
_cell_formula_units_Z 112
_cell_length_a 12.799662
_cell_length_b 30.866509
_cell_length_c 14.746326
_cell_angle_alpha 90.000000
_cell_angle_beta 90.000000
_cell_angle_gamma 90.000000
_cell_volume 5825.991487
_symmetry_space_group_name_H-M "I B A M"
_symmetry_group_IT_number 72
_symmetry_cell_setting 'orthorhombic'
loop_
_space_group_symop_operation_xyz
x,y,z
-x,-y,z
x,-y,1/2-z
-x,y,1/2-z
-x,-y,-z
x,y,-z
-x,y,1/2+z
x,-y,1/2+z
1/2+x,1/2+y,1/2+z
1/2-x,1/2-y,1/2+z
1/2+x,1/2-y,-z
1/2-x,1/2+y,-z
1/2-x,1/2-y,1/2-z
1/2+x,1/2+y,1/2-z
1/2-x,1/2+y,z
1/2+x,1/2-y,z
loop_
_atom_site_type_symbol
_atom_site_label
_atom_site_fract_x
_atom_site_fract_y
_atom_site_fract_z
Si Si1 0.721802 0.752837 0.605816
Si Si2 0.722235 0.940375 0.897452
Si Si3 0.873404 0.342101 0.398172
Si Si4 0.510170 0.079380 0.142165
Si Si5 0.705782 0.386693 0.270987
Si Si6 0.382128 0.702540 0.738035
Si Si7 0.261412 0.960963 0.105586
O O1 0.737951 0.741921 0.500000
O O2 0.632675 0.790631 0.610169
O O3 0.684197 0.715006 0.672240
O O4 0.823198 0.774790 0.653197
O O5 0.596102 0.939278 0.896890
O O6 0.764027 0.905159 0.826870
O O7 0.750574 0.989096 0.867536
O O8 0.759035 0.933044 0.000000
O O9 0.830380 0.351489 0.500000
O O10 0.977212 0.370556 0.389064
O O11 0.802858 0.361666 0.318416
O O12 0.500000 0.077363 0.250000
O O13 0.616638 0.054119 0.116211
O O14 0.620240 0.349350 0.271935
O O15 0.692800 0.428482 0.334623
O O16 0.500000 0.717978 0.750000
O O17 0.235583 0.957021 0.000000
#
# Coordination Sequence:
#
# PCOD9526085 Si02
#       7
#    16  16  16  16  16  16  16
#     4   9  20  40  63  88 119 152 188 235 290 354
#     4  11  21  31  46  73 109 149 188 231 287 342
#     4   9  17  32  51  73 105 144 184 223 266 327
#     4  11  18  27  46  73 108 148 187 229 280 341
#     4  10  19  34  53  74 103 141 181 231 278 331
#     4  10  22  40  63  90 117 147 192 240 291 347
#     4  10  20  33  50  71 102 145 193 239 284 340
#
# _framework density 19.224195000000002
#
# number of rings (size 3 to 8) (size 9 to 14) (size 15 to 20)
#    0.000    2.000    2.857    3.429    0.000    4.000 
#    2.571    0.000    0.000    1.714    0.000    2.000 
#    0.000    0.000    0.000    0.000    0.000    0.000 
#
# Total GULP energy -312094.448771 kJ/mol
# GULP energy per Si atom -5573.115157 kJ/mol
# Density = 1.918044 g / cm^3
# Si number density = 19.224195 Si / 1000 Ang^3
#
#
#
# Elastic Constant Matrix: (Units=GPa)
#
#
# Indices 1 2 3 4 5 6 
#
# 1 40.9679 17.7904 17.7947 0.0000 -0.0001 0.0003
# 2 17.7904 39.0695 14.1454 -0.0001 -0.0001 0.0005
# 3 17.7947 14.1454 121.7211 -0.0005 0.0000 0.0016
# 4 0.0000 -0.0001 -0.0005 29.4494 0.0000 0.0004
# 5 -0.0001 -0.0001 0.0000 0.0000 -3.6738 -0.0001
# 6 0.0003 0.0005 0.0016 0.0004 -0.0001 12.6839
#
#
#
# Elastic Compliance Matrix: (Units=1/GPa)
#
#
# Indices 1 2 3 4 5 6 
#
# 1 0.031485 -0.013227 -0.003066 0.000000 0.000000 0.000000
# 2 -0.013227 0.032276 -0.001817 0.000000 -0.000001 -0.000001
# 3 -0.003066 -0.001817 0.008875 0.000000 0.000000 -0.000001
# 4 0.000000 0.000000 0.000000 0.033956 0.000000 -0.000001
# 5 0.000000 -0.000001 0.000000 0.000000 -0.272197 -0.000001
# 6 0.000000 -0.000001 -0.000001 -0.000001 -0.000001 0.078840
#
#
# Mechanical properties :
#
#
# Convention : Reuss Voigt Hill
#
# Bulk Modulus (GPa) = 27.46012 33.46884 30.46448
# Shear Modulus (GPa) = -130.18683 17.82711 -56.17986
#
# Velocity S-wave (km/s) = -8.23816 3.04851 -5.41174
# Velocity P-wave (km/s) = 8.72781 5.46248 4.81331
#
# Compressibility (1/GPa) = 0.03641645
#
# Stress axis : x y z
#
# Youngs Moduli (GPa) = 31.76148 30.98267 112.67770
#
# Poissons Ratio (x) = 0.40980 0.34544
# Poissons Ratio (y) = 0.42010 0.20476
# Poissons Ratio (z) = 0.09737 0.05630
#
# Static dielectric constant tensor:
#      x y z
#    x 1.649120 0.000000 0.000000 
#    y 0.000000 1.717330 0.000000 
#    z 0.000000 0.000000 1.684330 
# 
# From -- ./inp_files/20668.got.cif
#   From: 2010.05.17/outbox.cif.g08.bks.cpg/sg72_11_cif.got.tgz:20668.got - 2010.06.03 17:03:01.
