data_PCOD9526902
_publ_section_title
;
Structure prediction by ZEFSAII (Michael W. Deem and Ramdas Pophale) SiO2 
 PCOD9526902
Probable space group: I B A M
;
_chemical_formula_sum "Si O2"
_cell_formula_units_Z 96
_cell_length_a 30.034296
_cell_length_b 9.871268
_cell_length_c 15.101165
_cell_angle_alpha 90.000000
_cell_angle_beta 90.000000
_cell_angle_gamma 90.000000
_cell_volume 4477.141829
_symmetry_space_group_name_H-M "I B A M"
_symmetry_group_IT_number 72
_symmetry_cell_setting 'orthorhombic'
loop_
_space_group_symop_operation_xyz
x,y,z
-x,-y,z
x,-y,1/2-z
-x,y,1/2-z
-x,-y,-z
x,y,-z
-x,y,1/2+z
x,-y,1/2+z
1/2+x,1/2+y,1/2+z
1/2-x,1/2-y,1/2+z
1/2+x,1/2-y,-z
1/2-x,1/2+y,-z
1/2-x,1/2-y,1/2-z
1/2+x,1/2+y,1/2-z
1/2-x,1/2+y,z
1/2+x,1/2-y,z
loop_
_atom_site_type_symbol
_atom_site_label
_atom_site_fract_x
_atom_site_fract_y
_atom_site_fract_z
Si Si1 0.716897 0.833046 0.641844
Si Si2 0.792715 0.362840 0.853196
Si Si3 0.109153 0.422011 0.393841
Si Si4 0.382103 0.766982 0.105867
Si Si5 0.013911 0.647978 0.852057
Si Si6 0.962092 0.902679 0.900433
O O1 0.759413 0.749515 0.609895
O O2 0.716505 0.854001 0.748066
O O3 0.670832 0.755896 0.620352
O O4 0.716601 0.987424 0.608366
O O5 0.845371 0.349573 0.866115
O O6 0.107968 0.428145 0.500000
O O7 0.107415 0.579307 0.360361
O O8 0.066556 0.342585 0.360190
O O9 0.414731 0.647378 0.140456
O O10 0.389762 0.768216 0.000000
O O11 0.000000 0.500000 0.885009
O O12 0.000000 0.659147 0.750000
O O13 0.987989 0.761059 0.904453
O O14 0.953438 0.957782 0.000000
O O15 0.000000 0.000000 0.858032
#
# Coordination Sequence:
#
# PCOD9526902 Si02
#       6
#    16  16  16  16  16  16
#     4   9  18  34  56  79 112 144 186 232 284 338
#     4   9  19  34  56  80 109 148 184 230 286 338
#     4  10  20  35  57  85 112 145 192 242 285 337
#     4   9  18  33  57  81 108 150 189 229 283 341
#     4  11  23  35  59  86 112 146 191 239 290 343
#     4  10  21  38  57  79 115 155 188 229 289 350
#
# _framework density 21.442250000000001
#
# number of rings (size 3 to 8) (size 9 to 14) (size 15 to 20)
#    0.000    2.333    1.667    0.500    2.333    3.000 
#    3.000    0.000    0.000    0.000    0.000    0.000 
#    0.000    0.000    0.000    0.000    0.000    0.000 
#
# Total GULP energy -267678.947921 kJ/mol
# GULP energy per Si atom -5576.644748 kJ/mol
# Density = 2.139345 g / cm^3
# Si number density = 21.442250 Si / 1000 Ang^3
#
#
#
# Elastic Constant Matrix: (Units=GPa)
#
#
# Indices 1 2 3 4 5 6 
#
# 1 178.7824 58.0737 0.3657 0.0000 0.0000 0.0000
# 2 58.0737 59.8678 7.1384 0.0000 0.0000 0.0000
# 3 0.3657 7.1384 45.7752 0.0000 0.0000 0.0000
# 4 0.0000 0.0000 0.0000 5.9969 0.0000 0.0000
# 5 0.0000 0.0000 0.0000 0.0000 31.8794 0.0000
# 6 0.0000 0.0000 0.0000 0.0000 0.0000 36.7660
#
#
#
# Elastic Compliance Matrix: (Units=1/GPa)
#
#
# Indices 1 2 3 4 5 6 
#
# 1 0.008231 -0.008128 0.001202 0.000000 0.000000 0.000000
# 2 -0.008128 0.025046 -0.003841 0.000000 0.000000 0.000000
# 3 0.001202 -0.003841 0.022435 0.000000 0.000000 0.000000
# 4 0.000000 0.000000 0.000000 0.166753 0.000000 0.000000
# 5 0.000000 0.000000 0.000000 0.000000 0.031368 0.000000
# 6 0.000000 0.000000 0.000000 0.000000 0.000000 0.027199
#
#
# Mechanical properties :
#
#
# Convention : Reuss Voigt Hill
#
# Bulk Modulus (GPa) = 29.25832 46.17567 37.71700
# Shear Modulus (GPa) = 15.92566 29.51828 22.72197
#
# Velocity S-wave (km/s) = 2.72825 3.71434 3.25881
# Velocity P-wave (km/s) = 4.85791 6.32271 5.63808
#
# Compressibility (1/GPa) = 0.03417831
#
# Stress axis : x y z
#
# Youngs Moduli (GPa) = 121.49136 39.92726 44.57276
#
# Poissons Ratio (x) = 0.32452 -0.05356
# Poissons Ratio (y) = 0.98744 0.17119
# Poissons Ratio (z) = -0.14600 0.15335
#
# Static dielectric constant tensor:
#      x y z
#    x 1.810980 0.000000 0.000000 
#    y 0.000000 1.797310 0.000000 
#    z 0.000000 0.000000 1.823660 
# 
# From -- ./inp_files/33884.got.cif
#   From: 2010.05.17/outbox.cif.g08.bks.cpg/sg72_17_cif.got.tgz:33884.got - 2010.06.03 17:03:01.
