data_PCOD9526696
_publ_section_title
;
Structure prediction by ZEFSAII (Michael W. Deem and Ramdas Pophale) SiO2 
 PCOD9526696
Probable space group: I B A M
;
_chemical_formula_sum "Si O2"
_cell_formula_units_Z 116
_cell_length_a 28.080867
_cell_length_b 24.798467
_cell_length_c 9.586882
_cell_angle_alpha 90.000000
_cell_angle_beta 90.000000
_cell_angle_gamma 90.000000
_cell_volume 6675.944672
_symmetry_space_group_name_H-M "I B A M"
_symmetry_group_IT_number 72
_symmetry_cell_setting 'orthorhombic'
loop_
_space_group_symop_operation_xyz
x,y,z
-x,-y,z
x,-y,1/2-z
-x,y,1/2-z
-x,-y,-z
x,y,-z
-x,y,1/2+z
x,-y,1/2+z
1/2+x,1/2+y,1/2+z
1/2-x,1/2-y,1/2+z
1/2+x,1/2-y,-z
1/2-x,1/2+y,-z
1/2-x,1/2-y,1/2-z
1/2+x,1/2+y,1/2-z
1/2-x,1/2+y,z
1/2+x,1/2-y,z
loop_
_atom_site_type_symbol
_atom_site_label
_atom_site_fract_x
_atom_site_fract_y
_atom_site_fract_z
Si Si1 0.134396 0.257441 0.664685
Si Si2 0.173402 0.436750 0.280618
Si Si3 0.308422 0.351080 0.841926
Si Si4 0.281509 0.447071 0.344621
Si Si5 0.932572 0.406488 0.150853
Si Si6 0.500000 0.000000 0.250000
Si Si7 0.197473 0.330526 0.151396
Si Si8 0.452270 0.195621 0.668113
O O1 0.124586 0.266281 0.500000
O O2 0.155479 0.197677 0.682011
O O3 0.173844 0.299370 0.721026
O O4 0.089833 0.269349 0.763792
O O5 0.168605 0.500000 0.250000
O O6 0.225125 0.432056 0.352309
O O7 0.123368 0.420405 0.348202
O O8 0.180785 0.392889 0.158281
O O9 0.308954 0.398632 0.730492
O O10 0.254363 0.328390 0.838048
O O11 0.315311 0.372090 0.000000
O O12 0.284505 0.500000 0.250000
O O13 0.298802 0.457315 0.500000
O O14 0.942484 0.365657 0.277562
O O15 0.964742 0.459732 0.167752
O O16 0.944445 0.381000 0.000000
O O17 0.182929 0.307842 0.000000
O O18 0.500000 0.211869 0.750000
O O19 0.454468 0.198567 0.500000
#
# Coordination Sequence:
#
# PCOD9526696 Si02
#       8
#    16  16  16  16  16   4  16  16
#     4  11  22  37  58  82 109 142 179 224 280 334
#     4  10  21  35  51  75 102 138 185 230 284 336
#     4   9  20  36  54  80 114 147 182 224 267 324
#     4  10  20  34  54  80 112 150 186 224 269 321
#     4  12  24  39  56  75 101 132 176 232 292 344
#     4  12  26  40  56  78  98 132 186 240 304 340
#     4  10  20  34  53  78 108 142 181 226 276 332
#     4  12  26  43  61  79 103 137 179 229 285 339
#
# _framework density 17.375819
#
# number of rings (size 3 to 8) (size 9 to 14) (size 15 to 20)
#    0.000    1.379    2.759    3.103    0.000    7.724 
#    0.000    0.000    0.000    0.000    0.000    0.000 
#    0.000    0.552    0.000    5.793    0.000    2.621 
#
# Total GULP energy -323435.354745 kJ/mol
# GULP energy per Si atom -5576.471634 kJ/mol
# Density = 1.733627 g / cm^3
# Si number density = 17.375819 Si / 1000 Ang^3
#
#
#
# Elastic Constant Matrix: (Units=GPa)
#
#
# Indices 1 2 3 4 5 6 
#
# 1 68.4345 40.1725 47.2961 0.0000 0.0000 0.0000
# 2 40.1725 73.3402 61.6769 0.0000 0.0000 0.0000
# 3 47.2961 61.6769 167.8311 0.0000 0.0000 0.0000
# 4 0.0000 0.0000 0.0000 18.3746 0.0000 0.0000
# 5 0.0000 0.0000 0.0000 0.0000 5.7972 0.0000
# 6 0.0000 0.0000 0.0000 0.0000 0.0000 -13.5019
#
#
#
# Elastic Compliance Matrix: (Units=1/GPa)
#
#
# Indices 1 2 3 4 5 6 
#
# 1 0.022294 -0.010027 -0.002598 0.000000 0.000000 0.000000
# 2 -0.010027 0.024244 -0.006084 0.000000 0.000000 0.000000
# 3 -0.002598 -0.006084 0.008926 0.000000 0.000000 0.000000
# 4 0.000000 0.000000 0.000000 0.054423 0.000000 0.000000
# 5 0.000000 0.000000 0.000000 0.000000 0.172496 0.000000
# 6 0.000000 0.000000 0.000000 0.000000 0.000000 -0.074064
#
#
# Mechanical properties :
#
#
# Convention : Reuss Voigt Hill
#
# Bulk Modulus (GPa) = 55.41138 67.54409 61.47773
# Shear Modulus (GPa) = 19.86085 12.83133 16.34609
#
# Velocity S-wave (km/s) = 3.38452 2.72041 3.07047
# Velocity P-wave (km/s) = 6.87259 6.98744 6.93025
#
# Compressibility (1/GPa) = 0.01804683
#
# Stress axis : x y z
#
# Youngs Moduli (GPa) = 44.85529 41.24796 112.03026
#
# Poissons Ratio (x) = 0.41359 0.29103
# Poissons Ratio (y) = 0.44976 0.68156
# Poissons Ratio (z) = 0.11652 0.25094
#
# Static dielectric constant tensor:
#      x y z
#    x 1.599620 0.000000 0.000000 
#    y 0.000000 1.582430 0.000000 
#    z 0.000000 0.000000 1.621180 
# 
# From -- ./inp_files/8384.got.cif
#   From: 2010.05.17/outbox.cif.g08.bks.cpg/sg72_5_cif.got.tgz:8384.got - 2010.06.03 17:03:01.
