data_PCOD9526512
_publ_section_title
;
Structure prediction by ZEFSAII (Michael W. Deem and Ramdas Pophale) SiO2 
 PCOD9526512
Probable space group: I B A M
;
_chemical_formula_sum "Si O2"
_cell_formula_units_Z 80
_cell_length_a 29.429830
_cell_length_b 13.954415
_cell_length_c 7.386881
_cell_angle_alpha 90.000000
_cell_angle_beta 90.000000
_cell_angle_gamma 90.000000
_cell_volume 3033.615194
_symmetry_space_group_name_H-M "I B A M"
_symmetry_group_IT_number 72
_symmetry_cell_setting 'orthorhombic'
loop_
_space_group_symop_operation_xyz
x,y,z
-x,-y,z
x,-y,1/2-z
-x,y,1/2-z
-x,-y,-z
x,y,-z
-x,y,1/2+z
x,-y,1/2+z
1/2+x,1/2+y,1/2+z
1/2-x,1/2-y,1/2+z
1/2+x,1/2-y,-z
1/2-x,1/2+y,-z
1/2-x,1/2-y,1/2-z
1/2+x,1/2+y,1/2-z
1/2-x,1/2+y,z
1/2+x,1/2-y,z
loop_
_atom_site_type_symbol
_atom_site_label
_atom_site_fract_x
_atom_site_fract_y
_atom_site_fract_z
Si Si1 0.340704 0.644488 0.779896
Si Si2 0.646631 0.131489 0.292424
Si Si3 0.050464 0.678976 0.782824
Si Si4 0.559901 0.393860 0.699140
Si Si5 0.243740 0.636159 0.216269
O O1 0.345934 0.753735 0.711878
O O2 0.385708 0.598171 0.703449
O O3 0.292762 0.601225 0.717053
O O4 0.341992 0.644939 0.000000
O O5 0.645342 0.096298 0.500000
O O6 0.595517 0.122562 0.214204
O O7 0.695283 0.100909 0.208270
O O8 0.050931 0.789792 0.710100
O O9 0.000000 0.639221 0.750000
O O10 0.057239 0.683214 0.000000
O O11 0.544977 0.500000 0.750000
O O12 0.540863 0.380282 0.500000
O O13 0.250000 0.750000 0.250000
O O14 0.241806 0.622153 0.000000
#
# Coordination Sequence:
#
# PCOD9526512 Si02
#       5
#    16  16  16  16  16
#     4   9  15  23  37  56  72  88 110 139 174 213
#     4   8  14  25  37  51  71  93 114 139 172 210
#     4   9  18  29  40  52  68  91 120 154 189 217
#     4  10  20  32  42  52  67  90 119 154 190 222
#     4   8  13  21  35  53  72  90 109 133 165 207
#
# _framework density 26.371175999999998
#
# number of rings (size 3 to 8) (size 9 to 14) (size 15 to 20)
#    0.000    3.200    0.000    2.400    0.000    5.200 
#    0.000    2.000    0.000    0.000    0.000    0.000 
#    0.000    0.000    0.000    0.000    0.000    1.000 
#
# Total GULP energy -222826.761068 kJ/mol
# GULP energy per Si atom -5570.669027 kJ/mol
# Density = 2.631115 g / cm^3
# Si number density = 26.371176 Si / 1000 Ang^3
#
#
#
# Elastic Constant Matrix: (Units=GPa)
#
#
# Indices 1 2 3 4 5 6 
#
# 1 313.8013 7.1857 0.1571 0.0000 0.0000 0.0000
# 2 7.1857 84.5912 -9.3716 0.0000 0.0000 0.0000
# 3 0.1571 -9.3716 112.9569 0.0000 0.0000 0.0000
# 4 0.0000 0.0000 0.0000 -2.3730 0.0000 0.0000
# 5 0.0000 0.0000 0.0000 0.0000 16.9299 0.0000
# 6 0.0000 0.0000 0.0000 0.0000 0.0000 -33.0727
#
#
#
# Elastic Compliance Matrix: (Units=1/GPa)
#
#
# Indices 1 2 3 4 5 6 
#
# 1 0.003193 -0.000274 -0.000027 0.000000 0.000000 0.000000
# 2 -0.000274 0.011955 0.000992 0.000000 0.000000 0.000000
# 3 -0.000027 0.000992 0.008935 0.000000 0.000000 0.000000
# 4 0.000000 0.000000 0.000000 -0.421405 0.000000 0.000000
# 5 0.000000 0.000000 0.000000 0.000000 0.059067 0.000000
# 6 0.000000 0.000000 0.000000 0.000000 0.000000 -0.030236
#
#
# Mechanical properties :
#
#
# Convention : Reuss Voigt Hill
#
# Bulk Modulus (GPa) = 39.27009 56.36576 47.81793
# Shear Modulus (GPa) = -13.83567 30.52205 8.34319
#
# Velocity S-wave (km/s) = -2.29301 3.40575 1.78062
# Velocity P-wave (km/s) = 2.81302 6.07338 4.73281
#
# Compressibility (1/GPa) = 0.02546467
#
# Stress axis : x y z
#
# Youngs Moduli (GPa) = 313.18280 83.64849 111.91573
#
# Poissons Ratio (x) = 0.02294 0.00304
# Poissons Ratio (y) = 0.08589 -0.11105
# Poissons Ratio (z) = 0.00852 -0.08300
#
# Static dielectric constant tensor:
#      x y z
#    x 2.152280 0.000000 0.000000 
#    y 0.000000 2.043660 0.000000 
#    z 0.000000 0.000000 1.982270 
# 
# From -- ./inp_files/4983.got.cif
#   From: 2010.05.17/outbox.cif.g08.bks.cpg/sg72_3_cif.got.tgz:4983.got - 2010.06.03 17:03:01.
