data_PCOD9526720
_publ_section_title
;
Structure prediction by ZEFSAII (Michael W. Deem and Ramdas Pophale) SiO2 
 PCOD9526720
Probable space group: I B A M
;
_chemical_formula_sum "Si O2"
_cell_formula_units_Z 112
_cell_length_a 15.687573
_cell_length_b 12.813904
_cell_length_c 27.277207
_cell_angle_alpha 90.000000
_cell_angle_beta 90.000000
_cell_angle_gamma 90.000000
_cell_volume 5483.238358
_symmetry_space_group_name_H-M "I B A M"
_symmetry_group_IT_number 72
_symmetry_cell_setting 'orthorhombic'
loop_
_space_group_symop_operation_xyz
x,y,z
-x,-y,z
x,-y,1/2-z
-x,y,1/2-z
-x,-y,-z
x,y,-z
-x,y,1/2+z
x,-y,1/2+z
1/2+x,1/2+y,1/2+z
1/2-x,1/2-y,1/2+z
1/2+x,1/2-y,-z
1/2-x,1/2+y,-z
1/2-x,1/2-y,1/2-z
1/2+x,1/2+y,1/2-z
1/2-x,1/2+y,z
1/2+x,1/2-y,z
loop_
_atom_site_type_symbol
_atom_site_label
_atom_site_fract_x
_atom_site_fract_y
_atom_site_fract_z
Si Si1 0.639514 0.651552 0.447463
Si Si2 0.830926 0.169539 0.871706
Si Si3 0.330844 0.740295 0.842538
Si Si4 0.571813 0.077541 0.883986
Si Si5 0.729792 0.962873 0.444529
Si Si6 0.971390 0.250877 0.943380
Si Si7 0.398630 0.520050 0.194146
O O1 0.657461 0.703436 0.500000
O O2 0.666705 0.709276 0.399367
O O3 0.695231 0.548024 0.446513
O O4 0.536626 0.651652 0.444221
O O5 0.768641 0.232893 0.834869
O O6 0.775356 0.132325 0.918025
O O7 0.906077 0.231710 0.898848
O O8 0.859244 0.064833 0.843120
O O9 0.387972 0.845398 0.842928
O O10 0.371105 0.639168 0.817130
O O11 0.648635 0.014332 0.910142
O O12 0.527863 0.150121 0.926068
O O13 0.500000 0.000000 0.864859
O O14 0.701216 0.945814 0.500000
O O15 0.939515 0.263610 0.000000
O O16 0.500000 0.500000 0.190844
O O17 0.371849 0.500000 0.250000
#
# Coordination Sequence:
#
# PCOD9526720 Si02
#       7
#    16  16  16  16  16  16  16
#     4   9  18  34  55  81 123 166 203 249 292 353
#     4  11  23  36  63  91 120 157 202 259 318 372
#     4  10  22  41  62  92 129 156 212 261 311 374
#     4  10  22  37  55  84 125 172 213 252 300 361
#     4  10  20  34  54  82 122 167 208 250 299 356
#     4  10  21  35  55  87 125 167 212 253 301 365
#     4  11  24  45  69  91 117 159 208 261 328 393
#
# _framework density 20.425885999999998
#
# number of rings (size 3 to 8) (size 9 to 14) (size 15 to 20)
#    0.000    1.857    1.429    2.571    2.000    5.714 
#    0.000    2.143    0.000    0.000    0.000    1.000 
#    0.000    0.000    0.000    0.000    0.000    0.000 
#
# Total GULP energy -311830.463579 kJ/mol
# GULP energy per Si atom -5568.401135 kJ/mol
# Density = 2.037940 g / cm^3
# Si number density = 20.425886 Si / 1000 Ang^3
#
#
#
# Elastic Constant Matrix: (Units=GPa)
#
#
# Indices 1 2 3 4 5 6 
#
# 1 90.1795 48.0965 21.7598 0.0000 0.0000 0.0000
# 2 48.0965 84.8242 34.5770 0.0000 0.0000 0.0000
# 3 21.7598 34.5770 59.7905 0.0000 0.0000 0.0000
# 4 0.0000 0.0000 0.0000 29.7442 0.0000 0.0000
# 5 0.0000 0.0000 0.0000 0.0000 8.0861 0.0000
# 6 0.0000 0.0000 0.0000 0.0000 0.0000 32.5301
#
#
#
# Elastic Compliance Matrix: (Units=1/GPa)
#
#
# Indices 1 2 3 4 5 6 
#
# 1 0.015922 -0.008722 -0.000751 0.000000 0.000000 0.000000
# 2 -0.008722 0.020203 -0.008509 0.000000 0.000000 0.000000
# 3 -0.000751 -0.008509 0.021919 0.000000 0.000000 0.000000
# 4 0.000000 0.000000 0.000000 0.033620 0.000000 0.000000
# 5 0.000000 0.000000 0.000000 0.000000 0.123670 0.000000
# 6 0.000000 0.000000 0.000000 0.000000 0.000000 0.030741
#
#
# Mechanical properties :
#
#
# Convention : Reuss Voigt Hill
#
# Bulk Modulus (GPa) = 45.28878 49.29565 47.29221
# Shear Modulus (GPa) = 17.27719 22.76279 20.01999
#
# Velocity S-wave (km/s) = 2.91150 3.34190 3.13410
# Velocity P-wave (km/s) = 5.78989 6.25119 6.02496
#
# Compressibility (1/GPa) = 0.02208052
#
# Stress axis : x y z
#
# Youngs Moduli (GPa) = 62.80658 49.49691 45.62202
#
# Poissons Ratio (x) = 0.43171 0.03424
# Poissons Ratio (y) = 0.54780 0.38822
# Poissons Ratio (z) = 0.04714 0.42119
#
# Static dielectric constant tensor:
#      x y z
#    x 1.846160 0.000000 0.000000 
#    y 0.000000 2.126630 0.000000 
#    z 0.000000 0.000000 1.702660 
# 
# From -- ./inp_files/51754.got.cif
#   From: 2010.05.17/outbox.cif.g08.bks.cpg/sg72_26_cif.got.tgz:51754.got - 2010.06.03 17:03:01.
