data_PCOD9526669
_publ_section_title
;
Structure prediction by ZEFSAII (Michael W. Deem and Ramdas Pophale) SiO2 
 PCOD9526669
Probable space group: I B A M
;
_chemical_formula_sum "Si O2"
_cell_formula_units_Z 112
_cell_length_a 19.015785
_cell_length_b 18.541388
_cell_length_c 17.905858
_cell_angle_alpha 90.000000
_cell_angle_beta 90.000000
_cell_angle_gamma 90.000000
_cell_volume 6313.230364
_symmetry_space_group_name_H-M "I B A M"
_symmetry_group_IT_number 72
_symmetry_cell_setting 'orthorhombic'
loop_
_space_group_symop_operation_xyz
x,y,z
-x,-y,z
x,-y,1/2-z
-x,y,1/2-z
-x,-y,-z
x,y,-z
-x,y,1/2+z
x,-y,1/2+z
1/2+x,1/2+y,1/2+z
1/2-x,1/2-y,1/2+z
1/2+x,1/2-y,-z
1/2-x,1/2+y,-z
1/2-x,1/2-y,1/2-z
1/2+x,1/2+y,1/2-z
1/2-x,1/2+y,z
1/2+x,1/2-y,z
loop_
_atom_site_type_symbol
_atom_site_label
_atom_site_fract_x
_atom_site_fract_y
_atom_site_fract_z
Si Si1 0.286219 0.861135 0.353680
Si Si2 0.455834 0.226551 0.649215
Si Si3 0.270120 0.633517 0.686019
Si Si4 0.102684 0.760703 0.185548
Si Si5 0.203080 0.480495 0.913316
Si Si6 0.543381 0.071451 0.911772
Si Si7 0.811267 0.745671 0.082739
O O1 0.256762 0.873421 0.270335
O O2 0.350850 0.805132 0.346741
O O3 0.225786 0.821403 0.401051
O O4 0.305438 0.936610 0.390205
O O5 0.529215 0.268284 0.642408
O O6 0.421634 0.240616 0.730460
O O7 0.472913 0.142207 0.636110
O O8 0.394684 0.247770 0.592207
O O9 0.347175 0.669503 0.685532
O O10 0.257878 0.560419 0.640211
O O11 0.220641 0.691785 0.644032
O O12 0.126389 0.444131 0.904341
O O13 0.223337 0.474567 0.000000
O O14 0.500000 0.000000 0.890003
O O15 0.528555 0.085148 0.000000
O O16 0.792871 0.719482 0.000000
#
# Coordination Sequence:
#
# PCOD9526669 Si02
#       7
#    16  16  16  16  16  16  16
#     4  11  20  37  56  87 113 149 192 241 287 340
#     4  11  19  35  56  83 113 148 195 236 287 340
#     4  11  20  38  57  82 112 155 195 237 286 349
#     4  10  21  35  57  83 114 144 194 247 279 340
#     4  11  22  35  55  83 118 154 191 236 291 347
#     4  10  20  34  51  78 119 159 186 219 279 352
#     4  11  20  35  58  82 114 152 194 238 287 344
#
# _framework density 17.740521999999999
#
# number of rings (size 3 to 8) (size 9 to 14) (size 15 to 20)
#    0.000    1.286    4.286    3.429    0.000    0.000 
#    0.000   12.143    0.000    0.857    0.000    2.000 
#    0.000    0.000    0.000    0.000    0.000    0.000 
#
# Total GULP energy -312661.499016 kJ/mol
# GULP energy per Si atom -5583.241054 kJ/mol
# Density = 1.770014 g / cm^3
# Si number density = 17.740522 Si / 1000 Ang^3
#
#
#
# Elastic Constant Matrix: (Units=GPa)
#
#
# Indices 1 2 3 4 5 6 
#
# 1 92.1162 11.3662 21.5816 0.0000 0.0000 0.0000
# 2 11.3662 30.9506 2.1839 0.0000 0.0000 0.0000
# 3 21.5816 2.1839 52.7145 0.0000 0.0000 0.0000
# 4 0.0000 0.0000 0.0000 49.8382 0.0000 0.0000
# 5 0.0000 0.0000 0.0000 0.0000 19.9328 0.0000
# 6 0.0000 0.0000 0.0000 0.0000 0.0000 30.6050
#
#
#
# Elastic Compliance Matrix: (Units=1/GPa)
#
#
# Indices 1 2 3 4 5 6 
#
# 1 0.012543 -0.004256 -0.004959 0.000000 0.000000 0.000000
# 2 -0.004256 0.033849 0.000340 0.000000 0.000000 0.000000
# 3 -0.004959 0.000340 0.020986 0.000000 0.000000 0.000000
# 4 0.000000 0.000000 0.000000 0.020065 0.000000 0.000000
# 5 0.000000 0.000000 0.000000 0.000000 0.050169 0.000000
# 6 0.000000 0.000000 0.000000 0.000000 0.000000 0.032674
#
#
# Mechanical properties :
#
#
# Convention : Reuss Voigt Hill
#
# Bulk Modulus (GPa) = 20.14995 27.33831 23.74413
# Shear Modulus (GPa) = 24.44056 29.45181 26.94619
#
# Velocity S-wave (km/s) = 3.71572 4.07891 3.90154
# Velocity P-wave (km/s) = 5.45817 6.13407 5.80596
#
# Compressibility (1/GPa) = 0.04962793
#
# Stress axis : x y z
#
# Youngs Moduli (GPa) = 79.72699 29.54329 47.65048
#
# Poissons Ratio (x) = 0.12574 0.23629
# Poissons Ratio (y) = 0.33934 -0.01621
# Poissons Ratio (z) = 0.39535 -0.01005
#
# Static dielectric constant tensor:
#      x y z
#    x 1.611720 0.000000 0.000000 
#    y 0.000000 1.602660 0.000000 
#    z 0.000000 0.000000 1.622090 
# 
# From -- ./inp_files/32766.got.cif
#   From: 2010.05.17/outbox.cif.g08.bks.cpg/sg72_17_cif.got.tgz:32766.got - 2010.06.03 17:03:01.
