data_PCOD9526322
_publ_section_title
;
Structure prediction by ZEFSAII (Michael W. Deem and Ramdas Pophale) SiO2 
 PCOD9526322
Probable space group: I B A M
;
_chemical_formula_sum "Si O2"
_cell_formula_units_Z 128
_cell_length_a 14.877518
_cell_length_b 16.834538
_cell_length_c 26.063098
_cell_angle_alpha 90.000000
_cell_angle_beta 90.000000
_cell_angle_gamma 90.000000
_cell_volume 6527.662977
_symmetry_space_group_name_H-M "I B A M"
_symmetry_group_IT_number 72
_symmetry_cell_setting 'orthorhombic'
loop_
_space_group_symop_operation_xyz
x,y,z
-x,-y,z
x,-y,1/2-z
-x,y,1/2-z
-x,-y,-z
x,y,-z
-x,y,1/2+z
x,-y,1/2+z
1/2+x,1/2+y,1/2+z
1/2-x,1/2-y,1/2+z
1/2+x,1/2-y,-z
1/2-x,1/2+y,-z
1/2-x,1/2-y,1/2-z
1/2+x,1/2+y,1/2-z
1/2-x,1/2+y,z
1/2+x,1/2-y,z
loop_
_atom_site_type_symbol
_atom_site_label
_atom_site_fract_x
_atom_site_fract_y
_atom_site_fract_z
Si Si1 0.263413 0.092297 0.738236
Si Si2 0.518844 0.407416 0.403814
Si Si3 0.668523 0.834777 0.642199
Si Si4 0.214974 0.871296 0.055584
Si Si5 0.658663 0.191391 0.445395
Si Si6 0.548162 0.752137 0.557977
Si Si7 0.309519 0.804063 0.664678
Si Si8 0.428858 0.334738 0.203488
O O1 0.336904 0.116772 0.694943
O O2 0.288108 0.137952 0.789743
O O3 0.163801 0.122177 0.720865
O O4 0.261037 0.000000 0.750000
O O5 0.500000 0.500000 0.408390
O O6 0.613722 0.394663 0.432088
O O7 0.452608 0.341968 0.428915
O O8 0.529359 0.382667 0.344249
O O9 0.724608 0.891560 0.603830
O O10 0.592261 0.799983 0.605026
O O11 0.727889 0.758527 0.659003
O O12 0.213106 0.774769 0.054537
O O13 0.243566 0.900974 0.000000
O O14 0.676559 0.150172 0.500000
O O15 0.554941 0.218619 0.444401
O O16 0.678995 0.154034 0.390442
O O17 0.585547 0.765045 0.500000
O O18 0.395361 0.749466 0.679881
O O19 0.500000 0.327307 0.250000
#
# Coordination Sequence:
#
# PCOD9526322 Si02
#       8
#    16  16  16  16  16  16  16  16
#     4  11  25  39  58  85 119 152 191 249 306 352
#     4  11  22  34  54  87 126 159 190 237 299 359
#     4  10  19  36  56  84 110 152 206 240 284 343
#     4   9  16  32  53  75 113 156 190 229 283 334
#     4   8  15  31  55  82 107 138 186 234 280 331
#     4  10  20  34  57  87 115 153 199 242 282 349
#     4  10  20  37  58  81 111 155 195 239 287 344
#     4  11  23  36  59  85 115 162 202 235 280 351
#
# _framework density 19.608855999999999
#
# number of rings (size 3 to 8) (size 9 to 14) (size 15 to 20)
#    0.000    2.000    5.000    3.000    5.250    1.500 
#    0.000    0.000    0.000    4.875    0.000    1.750 
#    0.000    0.000    0.000    0.000    0.000    0.000 
#
# Total GULP energy -356625.940844 kJ/mol
# GULP energy per Si atom -5572.280326 kJ/mol
# Density = 1.956422 g / cm^3
# Si number density = 19.608856 Si / 1000 Ang^3
#
#
#
# Elastic Constant Matrix: (Units=GPa)
#
#
# Indices 1 2 3 4 5 6 
#
# 1 19.2198 7.3956 15.1235 0.0000 0.0000 0.0000
# 2 7.3956 44.5777 40.2475 0.0000 0.0000 0.0000
# 3 15.1235 40.2475 184.7819 0.0000 0.0000 0.0000
# 4 0.0000 0.0000 0.0000 3.4175 0.0000 0.0000
# 5 0.0000 0.0000 0.0000 0.0000 34.2487 0.0000
# 6 0.0000 0.0000 0.0000 0.0000 0.0000 10.0956
#
#
#
# Elastic Compliance Matrix: (Units=1/GPa)
#
#
# Indices 1 2 3 4 5 6 
#
# 1 0.057103 -0.006540 -0.003249 0.000000 0.000000 0.000000
# 2 -0.006540 0.028673 -0.005710 0.000000 0.000000 0.000000
# 3 -0.003249 -0.005710 0.006921 0.000000 0.000000 0.000000
# 4 0.000000 0.000000 0.000000 0.292612 0.000000 0.000000
# 5 0.000000 0.000000 0.000000 0.000000 0.029198 0.000000
# 6 0.000000 0.000000 0.000000 0.000000 0.000000 0.099053
#
#
# Mechanical properties :
#
#
# Convention : Reuss Voigt Hill
#
# Bulk Modulus (GPa) = 16.20772 41.56808 28.88790
# Shear Modulus (GPa) = 8.84758 21.93988 15.39373
#
# Velocity S-wave (km/s) = 2.12646 3.34859 2.80490
# Velocity P-wave (km/s) = 3.78319 6.01626 5.02533
#
# Compressibility (1/GPa) = 0.06169900
#
# Stress axis : x y z
#
# Youngs Moduli (GPa) = 17.51220 34.87579 144.47906
#
# Poissons Ratio (x) = 0.22809 0.46942
# Poissons Ratio (y) = 0.11453 0.82498
# Poissons Ratio (z) = 0.05690 0.19914
#
# Static dielectric constant tensor:
#      x y z
#    x 1.731850 0.000000 0.000000 
#    y 0.000000 1.657390 0.000000 
#    z 0.000000 0.000000 1.752460 
# 
# From -- ./inp_files/45054.got.cif
#   From: 2010.05.17/outbox.cif.g08.bks.cpg/sg72_23_cif.got.tgz:45054.got - 2010.06.03 17:03:01.
