data_PCOD9526254
_publ_section_title
;
Structure prediction by ZEFSAII (Michael W. Deem and Ramdas Pophale) SiO2 
 PCOD9526254
Probable space group: I B A M
;
_chemical_formula_sum "Si O2"
_cell_formula_units_Z 96
_cell_length_a 18.629136
_cell_length_b 15.539778
_cell_length_c 16.763017
_cell_angle_alpha 90.000000
_cell_angle_beta 90.000000
_cell_angle_gamma 90.000000
_cell_volume 4852.770008
_symmetry_space_group_name_H-M "I B A M"
_symmetry_group_IT_number 72
_symmetry_cell_setting 'orthorhombic'
loop_
_space_group_symop_operation_xyz
x,y,z
-x,-y,z
x,-y,1/2-z
-x,y,1/2-z
-x,-y,-z
x,y,-z
-x,y,1/2+z
x,-y,1/2+z
1/2+x,1/2+y,1/2+z
1/2-x,1/2-y,1/2+z
1/2+x,1/2-y,-z
1/2-x,1/2+y,-z
1/2-x,1/2-y,1/2-z
1/2+x,1/2+y,1/2-z
1/2-x,1/2+y,z
1/2+x,1/2-y,z
loop_
_atom_site_type_symbol
_atom_site_label
_atom_site_fract_x
_atom_site_fract_y
_atom_site_fract_z
Si Si1 0.789951 0.039993 0.594471
Si Si2 0.091239 0.740352 0.094096
Si Si3 0.566561 0.438898 0.597136
Si Si4 0.270872 0.174810 0.192728
Si Si5 0.836713 0.553425 0.819277
Si Si6 0.016628 0.399813 0.156296
O O1 0.793053 0.046801 0.500000
O O2 0.787733 0.133845 0.634345
O O3 0.857843 0.983031 0.621226
O O4 0.713581 0.997426 0.619976
O O5 0.068035 0.837470 0.120330
O O6 0.159912 0.704673 0.142496
O O7 0.029829 0.669379 0.108657
O O8 0.108763 0.744898 0.000000
O O9 0.500000 0.500000 0.623889
O O10 0.564020 0.439038 0.500000
O O11 0.250000 0.250000 0.250000
O O12 0.285922 0.102381 0.258665
O O13 0.879177 0.500000 0.750000
O O14 0.898185 0.610008 0.858570
O O15 0.000000 0.500000 0.134944
O O16 0.000000 0.383242 0.250000
#
# Coordination Sequence:
#
# PCOD9526254 Si02
#       6
#    16  16  16  16  16  16
#     4  10  21  39  64  90 119 162 222 271 319 395
#     4  11  23  39  63  95 130 168 220 279 330 391
#     4   9  20  41  63  85 121 167 211 269 331 381
#     4  11  22  36  58  87 124 161 200 266 331 391
#     4  10  19  35  58  81 118 161 198 248 317 382
#     4  11  19  36  59  86 126 172 205 255 329 397
#
# _framework density 19.782515
#
# number of rings (size 3 to 8) (size 9 to 14) (size 15 to 20)
#    0.000    1.667    3.333    2.500    0.000    2.333 
#    0.000    0.833    0.000    0.000    0.000    0.000 
#    0.000    0.000    0.000    0.000    0.000    0.000 
#
# Total GULP energy -267315.453479 kJ/mol
# GULP energy per Si atom -5569.071947 kJ/mol
# Density = 1.973749 g / cm^3
# Si number density = 19.782515 Si / 1000 Ang^3
#
#
#
# Elastic Constant Matrix: (Units=GPa)
#
#
# Indices 1 2 3 4 5 6 
#
# 1 82.4827 34.3990 21.0445 0.0000 0.0000 0.0000
# 2 34.3990 118.2993 36.3834 0.0000 0.0000 0.0000
# 3 21.0445 36.3834 56.8469 0.0000 0.0000 0.0000
# 4 0.0000 0.0000 0.0000 32.5922 0.0000 0.0000
# 5 0.0000 0.0000 0.0000 0.0000 -12.4000 0.0000
# 6 0.0000 0.0000 0.0000 0.0000 0.0000 28.4878
#
#
#
# Elastic Compliance Matrix: (Units=1/GPa)
#
#
# Indices 1 2 3 4 5 6 
#
# 1 0.014269 -0.003143 -0.003271 0.000000 0.000000 0.000000
# 2 -0.003143 0.011217 -0.006016 0.000000 0.000000 0.000000
# 3 -0.003271 -0.006016 0.022652 0.000000 0.000000 0.000000
# 4 0.000000 0.000000 0.000000 0.030682 0.000000 0.000000
# 5 0.000000 0.000000 0.000000 0.000000 -0.080645 0.000000
# 6 0.000000 0.000000 0.000000 0.000000 0.000000 0.035103
#
#
# Mechanical properties :
#
#
# Convention : Reuss Voigt Hill
#
# Bulk Modulus (GPa) = 42.95659 49.03139 45.99399
# Shear Modulus (GPa) = 75.87599 20.78947 48.33273
#
# Velocity S-wave (km/s) = 6.19987 3.24528 4.94824
# Velocity P-wave (km/s) = 8.54475 6.23550 7.47978
#
# Compressibility (1/GPa) = 0.02327931
#
# Stress axis : x y z
#
# Youngs Moduli (GPa) = 70.08150 89.14812 44.14607
#
# Poissons Ratio (x) = 0.28022 0.14438
# Poissons Ratio (y) = 0.22029 0.26557
# Poissons Ratio (z) = 0.22921 0.53629
#
# Static dielectric constant tensor:
#      x y z
#    x 1.696200 0.000000 0.000000 
#    y 0.000000 2.101220 0.000000 
#    z 0.000000 0.000000 1.819690 
# 
# From -- ./inp_files/24110.got.cif
#   From: 2010.05.17/outbox.cif.g08.bks.cpg/sg72_13_cif.got.tgz:24110.got - 2010.06.03 17:03:01.
