data_PCOD9526657
_publ_section_title
;
Structure prediction by ZEFSAII (Michael W. Deem and Ramdas Pophale) SiO2 
 PCOD9526657
Probable space group: I B A M
;
_chemical_formula_sum "Si O2"
_cell_formula_units_Z 108
_cell_length_a 13.902511
_cell_length_b 29.985788
_cell_length_c 14.535469
_cell_angle_alpha 90.000000
_cell_angle_beta 90.000000
_cell_angle_gamma 90.000000
_cell_volume 6059.513576
_symmetry_space_group_name_H-M "I B A M"
_symmetry_group_IT_number 72
_symmetry_cell_setting 'orthorhombic'
loop_
_space_group_symop_operation_xyz
x,y,z
-x,-y,z
x,-y,1/2-z
-x,y,1/2-z
-x,-y,-z
x,y,-z
-x,y,1/2+z
x,-y,1/2+z
1/2+x,1/2+y,1/2+z
1/2-x,1/2-y,1/2+z
1/2+x,1/2-y,-z
1/2-x,1/2+y,-z
1/2-x,1/2-y,1/2-z
1/2+x,1/2+y,1/2-z
1/2-x,1/2+y,z
1/2+x,1/2-y,z
loop_
_atom_site_type_symbol
_atom_site_label
_atom_site_fract_x
_atom_site_fract_y
_atom_site_fract_z
Si Si1 0.031952 0.271795 0.389855
Si Si2 0.500000 0.306733 0.250000
Si Si3 0.049881 0.929267 0.102093
Si Si4 0.666607 0.192905 0.888814
Si Si5 0.839403 0.115781 0.396594
Si Si6 0.500000 0.500000 0.750000
Si Si7 0.246283 0.286632 0.392575
Si Si8 0.817019 0.869773 0.706155
O O1 0.031098 0.263198 0.500000
O O2 0.004703 0.226465 0.337175
O O3 0.136596 0.288647 0.357644
O O4 0.947321 0.307030 0.372522
O O5 0.406607 0.337621 0.235258
O O6 0.139591 0.897937 0.122998
O O7 0.951428 0.899603 0.108298
O O8 0.052522 0.966734 0.180090
O O9 0.052811 0.948378 0.000000
O O10 0.702241 0.242237 0.857486
O O11 0.728151 0.158420 0.830251
O O12 0.682515 0.187643 0.000000
O O13 0.807537 0.101127 0.500000
O O14 0.807329 0.167985 0.391396
O O15 0.796979 0.100803 0.297834
O O16 0.234237 0.277293 0.500000
#
# Coordination Sequence:
#
# PCOD9526657 Si02
#       8
#    16   8  16  16  16   4  16  16
#     4  10  22  35  44  67  99 138 192 238 272 305
#     4  12  21  28  48  67  92 140 180 237 266 305
#     4  11  23  38  59  84 114 141 171 219 269 329
#     4  10  21  33  49  69 100 143 184 230 272 310
#     4  10  20  34  51  73 101 139 176 213 260 313
#     4  12  20  44  60  90 108 138 174 204 276 344
#     4   9  18  32  49  68  98 140 187 232 267 306
#     4  12  21  35  49  78 104 137 184 221 267 321
#
# _framework density 17.823212999999999
#
# number of rings (size 3 to 8) (size 9 to 14) (size 15 to 20)
#    0.000    1.481    4.444    1.556    2.074    3.556 
#    0.000    0.000    0.000    0.000    0.000    0.000 
#    0.000    2.370    0.000   11.259    0.000    0.148 
#
# Total GULP energy -300671.241404 kJ/mol
# GULP energy per Si atom -5567.985952 kJ/mol
# Density = 1.778265 g / cm^3
# Si number density = 17.823213 Si / 1000 Ang^3
#
#
#
# Elastic Constant Matrix: (Units=GPa)
#
#
# Indices 1 2 3 4 5 6 
#
# 1 84.2489 27.8365 28.7963 0.0000 0.0000 0.0000
# 2 27.8365 42.8656 19.1214 0.0000 0.0000 0.0000
# 3 28.7963 19.1214 105.1358 0.0004 -0.0001 -0.0001
# 4 0.0000 0.0000 0.0004 19.2626 0.0000 -0.0001
# 5 0.0000 0.0000 -0.0001 0.0000 20.9809 0.0000
# 6 0.0000 0.0000 -0.0001 -0.0001 0.0000 0.1885
#
#
#
# Elastic Compliance Matrix: (Units=1/GPa)
#
#
# Indices 1 2 3 4 5 6 
#
# 1 0.015774 -0.009051 -0.002674 0.000000 0.000000 -0.000002
# 2 -0.009051 0.030581 -0.003083 0.000000 0.000000 0.000000
# 3 -0.002674 -0.003083 0.010805 0.000000 0.000000 0.000006
# 4 0.000000 0.000000 0.000000 0.051914 0.000000 0.000017
# 5 0.000000 0.000000 0.000000 0.000000 0.047662 0.000003
# 6 -0.000002 0.000000 0.000006 0.000017 0.000003 5.304043
#
#
# Mechanical properties :
#
#
# Convention : Reuss Voigt Hill
#
# Bulk Modulus (GPa) = 36.30527 42.63984 39.47256
# Shear Modulus (GPa) = 0.90916 18.51948 9.71432
#
# Velocity S-wave (km/s) = 0.71499 3.22695 2.33714
# Velocity P-wave (km/s) = 4.59298 6.15305 5.42934
#
# Compressibility (1/GPa) = 0.02754421
#
# Stress axis : x y z
#
# Youngs Moduli (GPa) = 63.39519 32.69975 92.55197
#
# Poissons Ratio (x) = 0.29595 0.24752
# Poissons Ratio (y) = 0.57376 0.28534
# Poissons Ratio (z) = 0.16955 0.10081
#
# Static dielectric constant tensor:
#      x y z
#    x 1.633330 0.000000 0.000000 
#    y 0.000000 1.609100 0.000000 
#    z 0.000000 0.000000 1.747860 
# 
# From -- ./inp_files/22344.got.cif
#   From: 2010.05.17/outbox.cif.g08.bks.cpg/sg72_12_cif.got.tgz:22344.got - 2010.06.03 17:03:01.
