data_PCOD9526584
_publ_section_title
;
Structure prediction by ZEFSAII (Michael W. Deem and Ramdas Pophale) SiO2 
 PCOD9526584
Probable space group: I B A M
;
_chemical_formula_sum "Si O2"
_cell_formula_units_Z 80
_cell_length_a 26.745606
_cell_length_b 7.517615
_cell_length_c 18.142251
_cell_angle_alpha 90.000000
_cell_angle_beta 90.000000
_cell_angle_gamma 90.000000
_cell_volume 3647.738476
_symmetry_space_group_name_H-M "I B A M"
_symmetry_group_IT_number 72
_symmetry_cell_setting 'orthorhombic'
loop_
_space_group_symop_operation_xyz
x,y,z
-x,-y,z
x,-y,1/2-z
-x,y,1/2-z
-x,-y,-z
x,y,-z
-x,y,1/2+z
x,-y,1/2+z
1/2+x,1/2+y,1/2+z
1/2-x,1/2-y,1/2+z
1/2+x,1/2-y,-z
1/2-x,1/2+y,-z
1/2-x,1/2-y,1/2-z
1/2+x,1/2+y,1/2-z
1/2-x,1/2+y,z
1/2+x,1/2-y,z
loop_
_atom_site_type_symbol
_atom_site_label
_atom_site_fract_x
_atom_site_fract_y
_atom_site_fract_z
Si Si1 0.721873 0.017790 0.664192
Si Si2 0.384700 0.069096 0.335155
Si Si3 0.486971 0.788943 0.166184
Si Si4 0.686985 0.369737 0.587750
Si Si5 0.418430 0.707205 0.413564
O O1 0.673744 0.888174 0.652253
O O2 0.768449 0.999194 0.609823
O O3 0.736407 0.000000 0.750000
O O4 0.699330 0.208241 0.643338
O O5 0.427564 0.216544 0.346604
O O6 0.388803 0.000000 0.250000
O O7 0.399770 0.901940 0.386217
O O8 0.500000 0.748086 0.250000
O O9 0.527360 0.679261 0.120657
O O10 0.500000 0.000000 0.155187
O O11 0.689953 0.324941 0.500000
O O12 0.629230 0.418111 0.603003
O O13 0.424896 0.710684 0.500000
#
# Coordination Sequence:
#
# PCOD9526584 Si02
#       5
#    16  16  16  16  16
#     4  10  20  33  52  76 104 136 177 215 256 305
#     4   9  15  26  42  65  96 127 159 200 253 301
#     4   9  13  23  40  61  91 127 154 189 252 304
#     4  10  20  35  51  73 106 141 172 213 263 310
#     4   9  17  26  41  65  93 126 163 198 244 302
#
# _framework density 21.931397
#
# number of rings (size 3 to 8) (size 9 to 14) (size 15 to 20)
#    0.000    2.600    4.000    1.200    0.000    4.400 
#    0.000    0.000    0.000    0.000    0.000    1.400 
#    0.000    4.800    0.000    0.000    0.000    0.000 
#
# Total GULP energy -222768.829452 kJ/mol
# GULP energy per Si atom -5569.220736 kJ/mol
# Density = 2.188148 g / cm^3
# Si number density = 21.931397 Si / 1000 Ang^3
#
#
#
# Elastic Constant Matrix: (Units=GPa)
#
#
# Indices 1 2 3 4 5 6 
#
# 1 175.8498 29.3849 55.5991 0.0000 0.0000 0.0000
# 2 29.3849 19.5581 16.4764 0.0000 0.0000 0.0000
# 3 55.5991 16.4764 59.4255 0.0000 0.0000 0.0000
# 4 0.0000 0.0000 0.0000 4.0053 0.0000 0.0000
# 5 0.0000 0.0000 0.0000 0.0000 14.5745 0.0000
# 6 0.0000 0.0000 0.0000 0.0000 0.0000 -47.2257
#
#
#
# Elastic Compliance Matrix: (Units=1/GPa)
#
#
# Indices 1 2 3 4 5 6 
#
# 1 0.009024 -0.008410 -0.006111 0.000000 0.000000 0.000000
# 2 -0.008410 0.074549 -0.012801 0.000000 0.000000 0.000000
# 3 -0.006111 -0.012801 0.026095 0.000000 0.000000 0.000000
# 4 0.000000 0.000000 0.000000 0.249672 0.000000 0.000000
# 5 0.000000 0.000000 0.000000 0.000000 0.068613 0.000000
# 6 0.000000 0.000000 0.000000 0.000000 0.000000 -0.021175
#
#
# Mechanical properties :
#
#
# Convention : Reuss Voigt Hill
#
# Bulk Modulus (GPa) = 18.17413 50.86158 34.51785
# Shear Modulus (GPa) = 10.42177 4.49569 7.45873
#
# Velocity S-wave (km/s) = 2.18227 1.43330 1.84616
# Velocity P-wave (km/s) = 3.82812 5.09712 4.50751
#
# Compressibility (1/GPa) = 0.05502327
#
# Stress axis : x y z
#
# Youngs Moduli (GPa) = 110.81249 13.41395 38.32149
#
# Poissons Ratio (x) = 0.11281 0.23420
# Poissons Ratio (y) = 0.93192 0.49057
# Poissons Ratio (z) = 0.67722 0.17172
#
# Static dielectric constant tensor:
#      x y z
#    x 1.966660 0.000000 0.000000 
#    y 0.000000 1.869560 0.000000 
#    z 0.000000 0.000000 1.745730 
# 
# From -- ./inp_files/28305.got.cif
#   From: 2010.05.17/outbox.cif.g08.bks.cpg/sg72_15_cif.got.tgz:28305.got - 2010.06.03 17:03:01.
