data_PCOD9526410
_publ_section_title
;
Structure prediction by ZEFSAII (Michael W. Deem and Ramdas Pophale) SiO2 
 PCOD9526410
Probable space group: I B A M
;
_chemical_formula_sum "Si O2"
_cell_formula_units_Z 116
_cell_length_a 8.613301
_cell_length_b 23.464917
_cell_length_c 24.511388
_cell_angle_alpha 90.000000
_cell_angle_beta 90.000000
_cell_angle_gamma 90.000000
_cell_volume 4954.006263
_symmetry_space_group_name_H-M "I B A M"
_symmetry_group_IT_number 72
_symmetry_cell_setting 'orthorhombic'
loop_
_space_group_symop_operation_xyz
x,y,z
-x,-y,z
x,-y,1/2-z
-x,y,1/2-z
-x,-y,-z
x,y,-z
-x,y,1/2+z
x,-y,1/2+z
1/2+x,1/2+y,1/2+z
1/2-x,1/2-y,1/2+z
1/2+x,1/2-y,-z
1/2-x,1/2+y,-z
1/2-x,1/2-y,1/2-z
1/2+x,1/2+y,1/2-z
1/2-x,1/2+y,z
1/2+x,1/2-y,z
loop_
_atom_site_type_symbol
_atom_site_label
_atom_site_fract_x
_atom_site_fract_y
_atom_site_fract_z
Si Si1 0.500000 0.000000 0.500000
Si Si2 0.358199 0.836834 0.059741
Si Si3 0.920718 0.407513 0.665566
Si Si4 0.379935 0.453970 0.174575
Si Si5 0.107385 0.699737 0.204649
Si Si6 0.694267 0.040525 0.395205
Si Si7 0.427630 0.737016 0.404062
Si Si8 0.122019 0.856899 0.351011
O O1 0.386103 0.973605 0.451642
O O2 0.357237 0.883730 0.107166
O O3 0.502542 0.793508 0.068144
O O4 0.205731 0.797458 0.065249
O O5 0.366028 0.864302 0.000000
O O6 0.783205 0.434927 0.700684
O O7 0.985978 0.350413 0.691412
O O8 0.062264 0.448099 0.650594
O O9 0.500000 0.500000 0.197240
O O10 0.310444 0.490067 0.122927
O O11 0.477096 0.396152 0.166666
O O12 0.130296 0.743757 0.155489
O O13 0.273392 0.666554 0.199685
O O14 0.000000 0.730923 0.250000
O O15 0.781068 0.100708 0.390045
O O16 0.565519 0.694088 0.389199
#
# Coordination Sequence:
#
# PCOD9526410 Si02
#       8
#     4  16  16  16  16  16  16  16
#     4  12  20  36  62  96 122 164 238 268 308 400
#     4  11  23  37  60  89 123 176 220 264 322 404
#     4  10  20  39  62  88 129 169 211 272 330 395
#     4  10  19  37  64  87 119 168 202 263 328 381
#     4  10  23  42  68  95 123 167 217 268 336 406
#     4  10  22  37  60  90 126 170 218 267 326 383
#     4  11  21  42  60  87 132 166 213 269 329 391
#     4  10  21  41  61  88 127 164 206 264 336 385
#
# _framework density 23.415393000000002
#
# number of rings (size 3 to 8) (size 9 to 14) (size 15 to 20)
#    0.000    1.655    4.138    0.414    0.966    0.552 
#    2.483    3.793    0.000   19.034    0.000    0.000 
#    0.000    0.000    0.000    0.000    0.000    0.000 
#
# Total GULP energy -322883.717862 kJ/mol
# GULP energy per Si atom -5566.960653 kJ/mol
# Density = 2.336210 g / cm^3
# Si number density = 23.415393 Si / 1000 Ang^3
#
#
#
# Elastic Constant Matrix: (Units=GPa)
#
#
# Indices 1 2 3 4 5 6 
#
# 1 115.6406 19.5871 22.4654 0.0001 0.0000 0.0000
# 2 19.5871 77.2334 3.0571 -0.0001 0.0000 0.0000
# 3 22.4654 3.0571 81.7541 0.0006 0.0000 0.0000
# 4 0.0001 -0.0001 0.0006********** -0.0004 0.0000
# 5 0.0000 0.0000 0.0000 -0.0004 14.0952 0.0000
# 6 0.0000 0.0000 0.0000 0.0000 0.0000 42.7620
#
#
#
# Elastic Compliance Matrix: (Units=1/GPa)
#
#
# Indices 1 2 3 4 5 6 
#
# 1 0.009532 -0.002317 -0.002533 0.000000 0.000000 0.000000
# 2 -0.002317 0.013530 0.000131 0.000000 0.000000 0.000000
# 3 -0.002533 0.000131 0.012923 0.000000 0.000000 0.000000
# 4 0.000000 0.000000 0.000000 -0.000092 0.000000 0.000000
# 5 0.000000 0.000000 0.000000 0.000000 0.070946 0.000000
# 6 0.000000 0.000000 0.000000 0.000000 0.000000 0.023385
#
#
# Mechanical properties :
#
#
# Convention : Reuss Voigt Hill
#
# Bulk Modulus (GPa) = 37.66900 40.53858 39.10379
# Shear Modulus (GPa) = 33.66739 -2148.01132 -1057.17197
#
# Velocity S-wave (km/s) = 3.79599 -30.32065 -21.27125
# Velocity P-wave (km/s) = 5.94432 34.76260 24.21883
#
# Compressibility (1/GPa) = 0.02654703
#
# Stress axis : x y z
#
# Youngs Moduli (GPa) = 104.91003 73.90855 77.38221
#
# Poissons Ratio (x) = 0.17126 0.19598
# Poissons Ratio (y) = 0.24309 -0.01012
# Poissons Ratio (z) = 0.26570 -0.00967
#
# Static dielectric constant tensor:
#      x y z
#    x 1.738270 0.000000 0.000000 
#    y 0.000000 1.934420 0.000000 
#    z 0.000000 0.000000 1.880240 
# 
# From -- ./inp_files/42689.got.cif
#   From: 2010.05.17/outbox.cif.g08.bks.cpg/sg72_22_cif.got.tgz:42689.got - 2010.06.03 17:03:01.
