data_PCOD9526329
_publ_section_title
;
Structure prediction by ZEFSAII (Michael W. Deem and Ramdas Pophale) SiO2 
 PCOD9526329
Probable space group: I B A M
;
_chemical_formula_sum "Si O2"
_cell_formula_units_Z 116
_cell_length_a 19.041398
_cell_length_b 15.760791
_cell_length_c 18.793360
_cell_angle_alpha 90.000000
_cell_angle_beta 90.000000
_cell_angle_gamma 90.000000
_cell_volume 5640.028178
_symmetry_space_group_name_H-M "I B A M"
_symmetry_group_IT_number 72
_symmetry_cell_setting 'orthorhombic'
loop_
_space_group_symop_operation_xyz
x,y,z
-x,-y,z
x,-y,1/2-z
-x,y,1/2-z
-x,-y,-z
x,y,-z
-x,y,1/2+z
x,-y,1/2+z
1/2+x,1/2+y,1/2+z
1/2-x,1/2-y,1/2+z
1/2+x,1/2-y,-z
1/2-x,1/2+y,-z
1/2-x,1/2-y,1/2-z
1/2+x,1/2+y,1/2-z
1/2-x,1/2+y,z
1/2+x,1/2-y,z
loop_
_atom_site_type_symbol
_atom_site_label
_atom_site_fract_x
_atom_site_fract_y
_atom_site_fract_z
Si Si1 0.909268 0.901464 0.866723
Si Si2 0.500000 0.500000 0.750000
Si Si3 0.795315 0.821280 0.681519
Si Si4 0.755221 0.163736 0.587922
Si Si5 0.364249 0.428374 0.075385
Si Si6 0.687944 0.091003 0.282865
Si Si7 0.523832 0.275631 0.422553
Si Si8 0.572333 0.790035 0.212117
O O1 0.830433 0.865901 0.879396
O O2 0.957451 0.825295 0.892818
O O3 0.947465 0.939803 0.796109
O O4 0.907869 0.986255 0.914815
O O5 0.766280 0.756353 0.620682
O O6 0.815082 0.908905 0.641785
O O7 0.740483 0.844274 0.742334
O O8 0.866958 0.782050 0.714746
O O9 0.753842 0.161470 0.500000
O O10 0.702436 0.102261 0.632703
O O11 0.416590 0.348575 0.074378
O O12 0.325801 0.432305 0.000000
O O13 0.610464 0.124944 0.264371
O O14 0.700057 0.000000 0.250000
O O15 0.509489 0.242178 0.500000
O O16 0.551620 0.205069 0.370163
O O17 0.500000 0.768459 0.250000
#
# Coordination Sequence:
#
# PCOD9526329 Si02
#       8
#    16   4  16  16  16  16  16  16
#     4  12  24  36  58  92 131 172 216 262 330 398
#     4  12  28  36  54  92 144 184 206 264 340 420
#     4  10  23  42  63  96 127 172 216 273 340 402
#     4  11  24  41  66  95 130 175 230 283 338 404
#     4  10  19  36  57  84 124 164 205 253 321 399
#     4  11  25  44  68  94 132 174 225 283 336 401
#     4  10  21  35  57  88 126 164 204 256 320 392
#     4  10  23  39  65  93 124 166 216 268 329 396
#
# _framework density 20.567274000000001
#
# number of rings (size 3 to 8) (size 9 to 14) (size 15 to 20)
#    0.000    1.379    1.379    4.138    7.724    4.690 
#    0.000    0.690    0.000    0.828    0.000    4.828 
#    0.000    0.000    0.000    0.000    0.000    0.000 
#
# Total GULP energy -323314.365660 kJ/mol
# GULP energy per Si atom -5574.385615 kJ/mol
# Density = 2.052046 g / cm^3
# Si number density = 20.567274 Si / 1000 Ang^3
#
#
#
# Elastic Constant Matrix: (Units=GPa)
#
#
# Indices 1 2 3 4 5 6 
#
# 1 106.2992 29.4710 61.3556 0.0000 0.0000 0.0000
# 2 29.4710 74.3905 38.0167 0.0000 0.0000 0.0000
# 3 61.3556 38.0167 105.4197 0.0000 0.0000 0.0000
# 4 0.0000 0.0000 0.0000 17.7132 0.0000 0.0000
# 5 0.0000 0.0000 0.0000 0.0000 16.4548 0.0000
# 6 0.0000 0.0000 0.0000 0.0000 0.0000 22.3612
#
#
#
# Elastic Compliance Matrix: (Units=1/GPa)
#
#
# Indices 1 2 3 4 5 6 
#
# 1 0.014347 -0.001737 -0.007724 0.000000 0.000000 0.000000
# 2 -0.001737 0.016690 -0.005008 0.000000 0.000000 0.000000
# 3 -0.007724 -0.005008 0.015787 0.000000 0.000000 0.000000
# 4 0.000000 0.000000 0.000000 0.056455 0.000000 0.000000
# 5 0.000000 0.000000 0.000000 0.000000 0.060773 0.000000
# 6 0.000000 0.000000 0.000000 0.000000 0.000000 0.044720
#
#
# Mechanical properties :
#
#
# Convention : Reuss Voigt Hill
#
# Bulk Modulus (GPa) = 55.90587 60.42176 58.16382
# Shear Modulus (GPa) = 20.51943 21.79027 21.15485
#
# Velocity S-wave (km/s) = 3.16202 3.25847 3.21061
# Velocity P-wave (km/s) = 6.36963 6.60290 6.48731
#
# Compressibility (1/GPa) = 0.01788721
#
# Stress axis : x y z
#
# Youngs Moduli (GPa) = 69.70040 59.91662 63.34186
#
# Poissons Ratio (x) = 0.10405 0.48925
# Poissons Ratio (y) = 0.12104 0.31722
# Poissons Ratio (z) = 0.53836 0.30006
#
# Static dielectric constant tensor:
#      x y z
#    x 1.771910 0.000000 0.000000 
#    y 0.000000 1.741590 0.000000 
#    z 0.000000 0.000000 1.818180 
# 
# From -- ./inp_files/31769.got.cif
#   From: 2010.05.17/outbox.cif.g08.bks.cpg/sg72_16_cif.got.tgz:31769.got - 2010.06.03 17:03:01.
