data_PCOD9526982
_publ_section_title
;
Structure prediction by ZEFSAII (Michael W. Deem and Ramdas Pophale) SiO2 
 PCOD9526982
Probable space group: I B A M
;
_chemical_formula_sum "Si O2"
_cell_formula_units_Z 64
_cell_length_a 5.264213
_cell_length_b 26.101565
_cell_length_c 26.220602
_cell_angle_alpha 90.000000
_cell_angle_beta 90.000000
_cell_angle_gamma 90.000000
_cell_volume 3602.820783
_symmetry_space_group_name_H-M "I B A M"
_symmetry_group_IT_number 72
_symmetry_cell_setting 'orthorhombic'
loop_
_space_group_symop_operation_xyz
x,y,z
-x,-y,z
x,-y,1/2-z
-x,y,1/2-z
-x,-y,-z
x,y,-z
-x,y,1/2+z
x,-y,1/2+z
1/2+x,1/2+y,1/2+z
1/2-x,1/2-y,1/2+z
1/2+x,1/2-y,-z
1/2-x,1/2+y,-z
1/2-x,1/2-y,1/2-z
1/2+x,1/2+y,1/2-z
1/2-x,1/2+y,z
1/2+x,1/2-y,z
loop_
_atom_site_type_symbol
_atom_site_label
_atom_site_fract_x
_atom_site_fract_y
_atom_site_fract_z
Si Si1 0.833815 0.142859 0.198082
Si Si2 0.046651 0.782637 0.000000
Si Si3 0.535087 0.285512 0.888076
Si Si4 0.749250 0.522721 0.191685
Si Si5 0.000000 0.285584 0.750000
O O1 0.988911 0.170775 0.153585
O O2 0.765307 0.083659 0.191605
O O3 0.574479 0.175321 0.205165
O O4 0.000000 0.146159 0.250000
O O5 0.990192 0.807810 0.054523
O O6 0.339346 0.763987 0.000000
O O7 0.802167 0.255520 0.882695
O O8 0.500000 0.500000 0.166507
O O9 0.749454 0.500000 0.250000
O O10 0.000000 0.500000 0.167225
O O11 0.750000 0.250000 0.750000
#
# Coordination Sequence:
#
# PCOD9526982 Si02
#       5
#    16   8  16  16   8
#     4  12  24  35  54  78 109 144 179 218 266 319
#     4   8  16  36  54  70 100 138 180 218 246 300
#     4  10  22  35  53  78 107 142 177 212 259 312
#     4  10  20  36  51  68  96 136 180 218 254 306
#     4  12  24  34  45  68 111 144 162 196 254 318
#
# _framework density 17.763857999999999
#
# number of rings (size 3 to 8) (size 9 to 14) (size 15 to 20)
#    0.000    1.500    3.750    3.000    3.500    0.000 
#    0.000    0.000    0.000    0.000    0.000    1.750 
#    0.000    0.000    0.000    1.125    0.000    0.000 
#
# Total GULP energy -178339.870606 kJ/mol
# GULP energy per Si atom -5573.120956 kJ/mol
# Density = 1.772343 g / cm^3
# Si number density = 17.763858 Si / 1000 Ang^3
#
#
#
# Elastic Constant Matrix: (Units=GPa)
#
#
# Indices 1 2 3 4 5 6 
#
# 1 149.2806 53.3530 11.7217 0.0000 0.0000 0.0000
# 2 53.3530 144.0749 38.9419 0.0000 0.0000 0.0000
# 3 11.7217 38.9419 104.3367 0.0000 0.0000 0.0000
# 4 0.0000 0.0000 0.0000 6.6687 0.0000 0.0000
# 5 0.0000 0.0000 0.0000 0.0000 18.2741 0.0000
# 6 0.0000 0.0000 0.0000 0.0000 0.0000 19.3526
#
#
#
# Elastic Compliance Matrix: (Units=1/GPa)
#
#
# Indices 1 2 3 4 5 6 
#
# 1 0.007725 -0.002921 0.000222 0.000000 0.000000 0.000000
# 2 -0.002921 0.008824 -0.002965 0.000000 0.000000 0.000000
# 3 0.000222 -0.002965 0.010666 0.000000 0.000000 0.000000
# 4 0.000000 0.000000 0.000000 0.149954 0.000000 0.000000
# 5 0.000000 0.000000 0.000000 0.000000 0.054722 0.000000
# 6 0.000000 0.000000 0.000000 0.000000 0.000000 0.051673
#
#
# Mechanical properties :
#
#
# Convention : Reuss Voigt Hill
#
# Bulk Modulus (GPa) = 62.94196 67.30281 65.12239
# Shear Modulus (GPa) = 16.65624 28.43747 22.54685
#
# Velocity S-wave (km/s) = 3.06542 4.00542 3.56652
# Velocity P-wave (km/s) = 6.93099 7.70460 7.32801
#
# Compressibility (1/GPa) = 0.01588765
#
# Stress axis : x y z
#
# Youngs Moduli (GPa) = 129.44563 113.32810 93.75494
#
# Poissons Ratio (x) = 0.33101 -0.02084
# Poissons Ratio (y) = 0.37809 0.27801
# Poissons Ratio (z) = -0.02877 0.33604
#
# Static dielectric constant tensor:
#      x y z
#    x 1.680730 0.000000 0.000000 
#    y 0.000000 1.608050 0.000000 
#    z 0.000000 0.000000 1.656450 
# 
# From -- ./inp_files/46630.got.cif
#   From: 2010.05.17/outbox.cif.g08.bks.cpg/sg72_24_cif.got.tgz:46630.got - 2010.06.03 17:03:01.
