data_PCOD9526366
_publ_section_title
;
Structure prediction by ZEFSAII (Michael W. Deem and Ramdas Pophale) SiO2 
 PCOD9526366
Probable space group: I B A M
;
_chemical_formula_sum "Si O2"
_cell_formula_units_Z 116
_cell_length_a 20.877877
_cell_length_b 15.480072
_cell_length_c 17.232373
_cell_angle_alpha 90.000000
_cell_angle_beta 90.000000
_cell_angle_gamma 90.000000
_cell_volume 5569.348537
_symmetry_space_group_name_H-M "I B A M"
_symmetry_group_IT_number 72
_symmetry_cell_setting 'orthorhombic'
loop_
_space_group_symop_operation_xyz
x,y,z
-x,-y,z
x,-y,1/2-z
-x,y,1/2-z
-x,-y,-z
x,y,-z
-x,y,1/2+z
x,-y,1/2+z
1/2+x,1/2+y,1/2+z
1/2-x,1/2-y,1/2+z
1/2+x,1/2-y,-z
1/2-x,1/2+y,-z
1/2-x,1/2-y,1/2-z
1/2+x,1/2+y,1/2-z
1/2-x,1/2+y,z
1/2+x,1/2-y,z
loop_
_atom_site_type_symbol
_atom_site_label
_atom_site_fract_x
_atom_site_fract_y
_atom_site_fract_z
Si Si1 0.723425 0.107513 0.909518
Si Si2 0.067939 0.110517 0.210543
Si Si3 0.480972 0.749253 0.089692
Si Si4 0.399452 0.115354 0.666955
Si Si5 0.611305 0.236942 0.315560
Si Si6 0.693084 0.473836 0.835039
Si Si7 0.000000 0.500000 0.750000
Si Si8 0.259262 0.197492 0.906614
O O1 0.664285 0.069368 0.861789
O O2 0.725519 0.209800 0.890916
O O3 0.786642 0.053821 0.888648
O O4 0.711825 0.098685 0.000000
O O5 0.048531 0.170030 0.137683
O O6 0.106582 0.168739 0.274206
O O7 0.117114 0.040855 0.176369
O O8 0.000000 0.087905 0.250000
O O9 0.428919 0.824749 0.099853
O O10 0.545741 0.773814 0.135965
O O11 0.493532 0.730670 0.000000
O O12 0.386031 0.173512 0.742296
O O13 0.454585 0.053246 0.694373
O O14 0.670886 0.214614 0.370045
O O15 0.718337 0.500000 0.750000
O O16 0.724075 0.384533 0.867269
O O17 0.261799 0.185011 0.000000
#
# Coordination Sequence:
#
# PCOD9526366 Si02
#       8
#    16  16  16  16  16  16   4  16
#     4  11  26  44  65  98 137 175 221 277 336 405
#     4   9  21  40  65  95 128 168 221 277 333 398
#     4  10  19  36  63  93 126 171 220 277 337 395
#     4  11  22  39  60  86 127 172 224 271 330 395
#     4  10  19  38  62  93 126 167 226 276 325 395
#     4  12  25  41  66  98 129 173 223 274 332 395
#     4  12  24  40  58  88 124 176 218 272 328 376
#     4  11  24  43  66  95 134 176 214 270 342 405
#
# _framework density 20.828289000000002
#
# number of rings (size 3 to 8) (size 9 to 14) (size 15 to 20)
#    0.000    1.379    1.379    5.379    2.897    4.138 
#    0.000    1.379    0.000    0.828    0.000   10.621 
#    0.000    0.000    0.000    0.000    0.000    0.000 
#
# Total GULP energy -324007.297359 kJ/mol
# GULP energy per Si atom -5586.332713 kJ/mol
# Density = 2.078088 g / cm^3
# Si number density = 20.828289 Si / 1000 Ang^3
#
#
#
# Elastic Constant Matrix: (Units=GPa)
#
#
# Indices 1 2 3 4 5 6 
#
# 1 118.3407 37.2634 52.5654 0.0000 0.0000 0.0000
# 2 37.2634 91.4301 42.0991 0.0000 0.0000 0.0000
# 3 52.5654 42.0991 111.9176 0.0000 0.0000 0.0000
# 4 0.0000 0.0000 0.0000 24.3861 0.0000 0.0000
# 5 0.0000 0.0000 0.0000 0.0000 27.1717 0.0000
# 6 0.0000 0.0000 0.0000 0.0000 0.0000 29.7974
#
#
#
# Elastic Compliance Matrix: (Units=1/GPa)
#
#
# Indices 1 2 3 4 5 6 
#
# 1 0.011160 -0.002582 -0.004270 0.000000 0.000000 0.000000
# 2 -0.002582 0.013826 -0.003988 0.000000 0.000000 0.000000
# 3 -0.004270 -0.003988 0.012441 0.000000 0.000000 0.000000
# 4 0.000000 0.000000 0.000000 0.041007 0.000000 0.000000
# 5 0.000000 0.000000 0.000000 0.000000 0.036803 0.000000
# 6 0.000000 0.000000 0.000000 0.000000 0.000000 0.033560
#
#
# Mechanical properties :
#
#
# Convention : Reuss Voigt Hill
#
# Bulk Modulus (GPa) = 63.50812 65.06046 64.28429
# Shear Modulus (GPa) = 28.45328 28.92175 28.68751
#
# Velocity S-wave (km/s) = 3.70007 3.73041 3.71527
# Velocity P-wave (km/s) = 6.98652 7.06109 7.02391
#
# Compressibility (1/GPa) = 0.01574602
#
# Stress axis : x y z
#
# Youngs Moduli (GPa) = 89.60504 72.32756 80.37949
#
# Poissons Ratio (x) = 0.18676 0.34325
# Poissons Ratio (y) = 0.23137 0.32056
# Poissons Ratio (z) = 0.38265 0.28844
#
# Static dielectric constant tensor:
#      x y z
#    x 1.737100 0.000000 0.000000 
#    y 0.000000 1.797820 0.000000 
#    z 0.000000 0.000000 1.667840 
# 
# From -- ./inp_files/31725.got.cif
#   From: 2010.05.17/outbox.cif.g08.bks.cpg/sg72_16_cif.got.tgz:31725.got - 2010.06.03 17:03:01.
