data_PCOD9526637
_publ_section_title
;
Structure prediction by ZEFSAII (Michael W. Deem and Ramdas Pophale) SiO2 
 PCOD9526637
Probable space group: I B A M
;
_chemical_formula_sum "Si O2"
_cell_formula_units_Z 92
_cell_length_a 15.080754
_cell_length_b 18.880522
_cell_length_c 14.570472
_cell_angle_alpha 90.000000
_cell_angle_beta 90.000000
_cell_angle_gamma 90.000000
_cell_volume 4148.687031
_symmetry_space_group_name_H-M "I B A M"
_symmetry_group_IT_number 72
_symmetry_cell_setting 'orthorhombic'
loop_
_space_group_symop_operation_xyz
x,y,z
-x,-y,z
x,-y,1/2-z
-x,y,1/2-z
-x,-y,-z
x,y,-z
-x,y,1/2+z
x,-y,1/2+z
1/2+x,1/2+y,1/2+z
1/2-x,1/2-y,1/2+z
1/2+x,1/2-y,-z
1/2-x,1/2+y,-z
1/2-x,1/2-y,1/2-z
1/2+x,1/2+y,1/2-z
1/2-x,1/2+y,z
1/2+x,1/2-y,z
loop_
_atom_site_type_symbol
_atom_site_label
_atom_site_fract_x
_atom_site_fract_y
_atom_site_fract_z
Si Si1 0.136412 0.007097 0.610500
Si Si2 0.283391 0.000000 0.750000
Si Si3 0.599989 0.869810 0.761633
Si Si4 0.500000 0.500000 0.750000
Si Si5 0.718486 0.223412 0.150610
Si Si6 0.915858 0.846293 0.104710
Si Si7 0.911919 0.235951 0.105337
O O1 0.131475 0.018782 0.500000
O O2 0.121047 0.922987 0.633692
O O3 0.060821 0.041330 0.675502
O O4 0.225372 0.026416 0.663595
O O5 0.340417 0.064373 0.788242
O O6 0.500000 0.893935 0.750000
O O7 0.645622 0.836580 0.670528
O O8 0.596443 0.807112 0.835843
O O9 0.750000 0.250000 0.250000
O O10 0.664300 0.289453 0.108723
O O11 0.812754 0.201873 0.106567
O O12 0.005044 0.809478 0.143547
O O13 0.941538 0.860539 0.000000
O O14 0.932449 0.253477 0.000000
#
# Coordination Sequence:
#
# PCOD9526637 Si02
#       7
#    16   8  16   4  16  16  16
#     4  10  22  41  62  90 130 168 216 277 325 391
#     4  11  25  41  63  92 122 186 233 259 325 397
#     4  11  22  41  61  88 127 168 216 276 319 387
#     4  10  22  36  62  94 122 172 216 254 328 396
#     4  10  20  33  57  87 119 156 200 264 325 383
#     4  10  20  37  61  89 124 164 209 271 340 399
#     4  10  21  37  64  96 125 163 210 268 344 404
#
# _framework density 22.175691
#
# number of rings (size 3 to 8) (size 9 to 14) (size 15 to 20)
#    0.000    1.739    1.739    3.130    0.000    7.652 
#    0.000    4.348    0.000    2.087    0.000    0.000 
#    0.000    0.000    0.000    0.000    0.000    0.000 
#
# Total GULP energy -256409.923428 kJ/mol
# GULP energy per Si atom -5574.128770 kJ/mol
# Density = 2.212522 g / cm^3
# Si number density = 22.175691 Si / 1000 Ang^3
#
#
#
# Elastic Constant Matrix: (Units=GPa)
#
#
# Indices 1 2 3 4 5 6 
#
# 1 145.4412 21.1256 26.0561 0.0000 0.0000 0.0000
# 2 21.1256 64.3634 7.7291 0.0000 0.0000 0.0000
# 3 26.0561 7.7291 128.4914 0.0000 0.0000 0.0000
# 4 0.0000 0.0000 0.0000 24.5677 0.0000 0.0000
# 5 0.0000 0.0000 0.0000 0.0000 26.1411 0.0000
# 6 0.0000 0.0000 0.0000 0.0000 0.0000 37.3555
#
#
#
# Elastic Compliance Matrix: (Units=1/GPa)
#
#
# Indices 1 2 3 4 5 6 
#
# 1 0.007453 -0.002281 -0.001374 0.000000 0.000000 0.000000
# 2 -0.002281 0.016348 -0.000521 0.000000 0.000000 0.000000
# 3 -0.001374 -0.000521 0.008093 0.000000 0.000000 0.000000
# 4 0.000000 0.000000 0.000000 0.040704 0.000000 0.000000
# 5 0.000000 0.000000 0.000000 0.000000 0.038254 0.000000
# 6 0.000000 0.000000 0.000000 0.000000 0.000000 0.026770
#
#
# Mechanical properties :
#
#
# Convention : Reuss Voigt Hill
#
# Bulk Modulus (GPa) = 42.47831 49.79084 46.13458
# Shear Modulus (GPa) = 32.50531 36.50521 34.50526
#
# Velocity S-wave (km/s) = 3.83274 4.06172 3.94889
# Velocity P-wave (km/s) = 6.22764 6.67071 6.45298
#
# Compressibility (1/GPa) = 0.02354142
#
# Stress axis : x y z
#
# Youngs Moduli (GPa) = 134.17092 61.16924 123.56953
#
# Poissons Ratio (x) = 0.13955 0.16981
# Poissons Ratio (y) = 0.30608 0.06435
# Poissons Ratio (z) = 0.18437 0.03185
#
# Static dielectric constant tensor:
#      x y z
#    x 1.918340 0.000000 0.000000 
#    y 0.000000 1.595050 0.000000 
#    z 0.000000 0.000000 1.811310 
# 
# From -- ./inp_files/21898.got.cif
#   From: 2010.05.17/outbox.cif.g08.bks.cpg/sg72_11_cif.got.tgz:21898.got - 2010.06.03 17:03:01.
