data_PCOD9526460
_publ_section_title
;
Structure prediction by ZEFSAII (Michael W. Deem and Ramdas Pophale) SiO2 
 PCOD9526460
Probable space group: I B A M
;
_chemical_formula_sum "Si O2"
_cell_formula_units_Z 64
_cell_length_a 19.893149
_cell_length_b 9.317391
_cell_length_c 14.279224
_cell_angle_alpha 90.000000
_cell_angle_beta 90.000000
_cell_angle_gamma 90.000000
_cell_volume 2646.686260
_symmetry_space_group_name_H-M "I B A M"
_symmetry_group_IT_number 72
_symmetry_cell_setting 'orthorhombic'
loop_
_space_group_symop_operation_xyz
x,y,z
-x,-y,z
x,-y,1/2-z
-x,y,1/2-z
-x,-y,-z
x,y,-z
-x,y,1/2+z
x,-y,1/2+z
1/2+x,1/2+y,1/2+z
1/2-x,1/2-y,1/2+z
1/2+x,1/2-y,-z
1/2-x,1/2+y,-z
1/2-x,1/2-y,1/2-z
1/2+x,1/2+y,1/2-z
1/2-x,1/2+y,z
1/2+x,1/2-y,z
loop_
_atom_site_type_symbol
_atom_site_label
_atom_site_fract_x
_atom_site_fract_y
_atom_site_fract_z
Si Si1 0.674923 0.429504 0.384651
Si Si2 0.440203 0.090352 0.655245
Si Si3 0.470163 0.657916 0.609766
Si Si4 0.305130 0.242026 0.390174
O O1 0.672626 0.431293 0.500000
O O2 0.606114 0.351187 0.355088
O O3 0.679272 0.596709 0.354219
O O4 0.739029 0.337721 0.352739
O O5 0.477546 0.241481 0.660934
O O6 0.367886 0.132626 0.616042
O O7 0.500000 0.000000 0.605036
O O8 0.428930 0.000000 0.750000
O O9 0.500000 0.500000 0.613531
O O10 0.469036 0.701004 0.500000
O O11 0.291535 0.264569 0.500000
#
# Coordination Sequence:
#
# PCOD9526460 Si02
#       4
#    16  16  16  16
#     4   9  19  34  62 103 135 159 203 275 347 395
#     4  11  25  42  60  88 138 180 226 269 319 395
#     4  10  19  38  70 100 124 166 223 282 343 394
#     4  10  20  38  64  98 134 167 211 275 338 397
#
# _framework density 24.181180999999999
#
# number of rings (size 3 to 8) (size 9 to 14) (size 15 to 20)
#    0.000    2.000    2.500    0.750    3.500    2.000 
#    0.000    3.750    0.000    0.000    0.000    0.000 
#    0.000    0.000    0.000    0.000    0.000    0.000 
#
# Total GULP energy -178749.240292 kJ/mol
# GULP energy per Si atom -5585.913759 kJ/mol
# Density = 2.412614 g / cm^3
# Si number density = 24.181181 Si / 1000 Ang^3
#
#
#
# Elastic Constant Matrix: (Units=GPa)
#
#
# Indices 1 2 3 4 5 6 
#
# 1 187.1295 25.9562 8.0566 0.0000 0.0000 0.0000
# 2 25.9562 97.8487 21.7161 0.0000 0.0000 0.0000
# 3 8.0566 21.7161 60.6714 0.0000 0.0000 0.0000
# 4 0.0000 0.0000 0.0000 5.7781 0.0000 0.0000
# 5 0.0000 0.0000 0.0000 0.0000 17.3788 0.0000
# 6 0.0000 0.0000 0.0000 0.0000 0.0000 34.8178
#
#
#
# Elastic Compliance Matrix: (Units=1/GPa)
#
#
# Indices 1 2 3 4 5 6 
#
# 1 0.005551 -0.001422 -0.000228 0.000000 0.000000 0.000000
# 2 -0.001422 0.011466 -0.003915 0.000000 0.000000 0.000000
# 3 -0.000228 -0.003915 0.017914 0.000000 0.000000 0.000000
# 4 0.000000 0.000000 0.000000 0.173068 0.000000 0.000000
# 5 0.000000 0.000000 0.000000 0.000000 0.057541 0.000000
# 6 0.000000 0.000000 0.000000 0.000000 0.000000 0.028721
#
#
# Mechanical properties :
#
#
# Convention : Reuss Voigt Hill
#
# Bulk Modulus (GPa) = 42.01624 50.78971 46.40298
# Shear Modulus (GPa) = 15.95786 30.92297 23.44042
#
# Velocity S-wave (km/s) = 2.57169 3.57992 3.11684
# Velocity P-wave (km/s) = 5.12167 6.17553 5.67312
#
# Compressibility (1/GPa) = 0.02380032
#
# Stress axis : x y z
#
# Youngs Moduli (GPa) = 180.14972 87.21471 55.82253
#
# Poissons Ratio (x) = 0.12401 0.01274
# Poissons Ratio (y) = 0.25615 0.21856
# Poissons Ratio (z) = 0.04111 0.34146
#
# Static dielectric constant tensor:
#      x y z
#    x 1.956470 0.000000 0.000000 
#    y 0.000000 2.058500 0.000000 
#    z 0.000000 0.000000 2.042180 
# 
# From -- ./inp_files/32200.got.cif
#   From: 2010.05.17/outbox.cif.g08.bks.cpg/sg72_17_cif.got.tgz:32200.got - 2010.06.03 17:03:01.
