data_PCOD9526870
_publ_section_title
;
Structure prediction by ZEFSAII (Michael W. Deem and Ramdas Pophale) SiO2 
 PCOD9526870
Probable space group: I B A M
;
_chemical_formula_sum "Si O2"
_cell_formula_units_Z 116
_cell_length_a 31.869952
_cell_length_b 22.062923
_cell_length_c 9.232471
_cell_angle_alpha 90.000000
_cell_angle_beta 90.000000
_cell_angle_gamma 90.000000
_cell_volume 6491.759331
_symmetry_space_group_name_H-M "I B A M"
_symmetry_group_IT_number 72
_symmetry_cell_setting 'orthorhombic'
loop_
_space_group_symop_operation_xyz
x,y,z
-x,-y,z
x,-y,1/2-z
-x,y,1/2-z
-x,-y,-z
x,y,-z
-x,y,1/2+z
x,-y,1/2+z
1/2+x,1/2+y,1/2+z
1/2-x,1/2-y,1/2+z
1/2+x,1/2-y,-z
1/2-x,1/2+y,-z
1/2-x,1/2-y,1/2-z
1/2+x,1/2+y,1/2-z
1/2-x,1/2+y,z
1/2+x,1/2-y,z
loop_
_atom_site_type_symbol
_atom_site_label
_atom_site_fract_x
_atom_site_fract_y
_atom_site_fract_z
Si Si1 0.217577 0.667514 0.673349
Si Si2 0.456558 0.563260 0.172976
Si Si3 0.896116 0.823690 0.172065
Si Si4 0.456584 0.232064 0.171104
Si Si5 0.930636 0.593195 0.337870
Si Si6 0.847258 0.437953 0.673009
Si Si7 0.801293 0.806961 0.173216
Si Si8 0.000000 0.500000 0.750000
O O1 0.222797 0.664925 0.500000
O O2 0.183666 0.616968 0.714537
O O3 0.201466 0.735224 0.709569
O O4 0.262566 0.660729 0.748836
O O5 0.444993 0.500000 0.250000
O O6 0.500000 0.582594 0.250000
O O7 0.421776 0.614551 0.194162
O O8 0.462824 0.554949 0.000000
O O9 0.919349 0.770997 0.259615
O O10 0.847487 0.829524 0.213788
O O11 0.897457 0.808844 0.000000
O O12 0.500000 0.247913 0.250000
O O13 0.447591 0.160606 0.191206
O O14 0.460090 0.243993 0.000000
O O15 0.912245 0.592186 0.500000
O O16 0.894381 0.576478 0.225595
O O17 0.968530 0.545249 0.332346
O O18 0.834094 0.500000 0.750000
O O19 0.846662 0.444613 0.500000
O O20 0.796326 0.812828 0.000000
#
# Coordination Sequence:
#
# PCOD9526870 Si02
#       8
#    16  16  16  16  16  16  16   4
#     4   9  19  36  57  82 109 140 178 222 273 327
#     4  10  20  35  56  80 109 144 184 222 264 323
#     4  10  21  37  57  84 114 146 183 227 281 336
#     4  11  23  37  54  81 114 150 191 236 281 329
#     4  11  24  39  57  82 111 150 198 238 282 331
#     4  11  23  38  58  82 111 146 186 231 279 331
#     4   9  18  35  59  83 108 140 177 220 273 329
#     4  12  22  40  60  78 114 152 196 240 278 324
#
# _framework density 17.868808000000001
#
# number of rings (size 3 to 8) (size 9 to 14) (size 15 to 20)
#    0.000    1.793    1.379    3.103    0.000    6.621 
#    0.000    3.448    0.000    3.310    0.000    0.000 
#    0.000    0.000    0.000    0.000    0.000    0.000 
#
# Total GULP energy -323850.295237 kJ/mol
# GULP energy per Si atom -5583.625780 kJ/mol
# Density = 1.782814 g / cm^3
# Si number density = 17.868808 Si / 1000 Ang^3
#
#
#
# Elastic Constant Matrix: (Units=GPa)
#
#
# Indices 1 2 3 4 5 6 
#
# 1 136.3673 64.6966 54.1580 0.0000 0.0000 0.0000
# 2 64.6966 72.2139 44.8671 0.0000 0.0000 0.0000
# 3 54.1580 44.8671 65.5814 0.0000 0.0000 0.0000
# 4 0.0000 0.0000 0.0000 22.6895 0.0000 0.0000
# 5 0.0000 0.0000 0.0000 0.0000 30.1501 0.0000
# 6 0.0000 0.0000 0.0000 0.0000 0.0000 21.2011
#
#
#
# Elastic Compliance Matrix: (Units=1/GPa)
#
#
# Indices 1 2 3 4 5 6 
#
# 1 0.013655 -0.009092 -0.005056 0.000000 0.000000 0.000000
# 2 -0.009092 0.030139 -0.013112 0.000000 0.000000 0.000000
# 3 -0.005056 -0.013112 0.028394 0.000000 0.000000 0.000000
# 4 0.000000 0.000000 0.000000 0.044073 0.000000 0.000000
# 5 0.000000 0.000000 0.000000 0.000000 0.033167 0.000000
# 6 0.000000 0.000000 0.000000 0.000000 0.000000 0.047167
#
#
# Mechanical properties :
#
#
# Convention : Reuss Voigt Hill
#
# Bulk Modulus (GPa) = 56.59641 66.84509 61.72075
# Shear Modulus (GPa) = 19.45496 22.17088 20.81292
#
# Velocity S-wave (km/s) = 3.30323 3.52626 3.41656
# Velocity P-wave (km/s) = 6.80371 7.35319 7.08378
#
# Compressibility (1/GPa) = 0.01766896
#
# Stress axis : x y z
#
# Youngs Moduli (GPa) = 73.23584 33.17916 35.21908
#
# Poissons Ratio (x) = 0.30166 0.17807
# Poissons Ratio (y) = 0.66584 0.46178
# Poissons Ratio (z) = 0.37028 0.43503
#
# Static dielectric constant tensor:
#      x y z
#    x 1.588380 0.000000 0.000000 
#    y 0.000000 1.605030 0.000000 
#    z 0.000000 0.000000 1.607020 
# 
# From -- ./inp_files/9343.got.cif
#   From: 2010.05.17/outbox.cif.g08.bks.cpg/sg72_5_cif.got.tgz:9343.got - 2010.06.03 17:03:01.
