data_PCOD9526253
_publ_section_title
;
Structure prediction by ZEFSAII (Michael W. Deem and Ramdas Pophale) SiO2 
 PCOD9526253
Probable space group: I B A M
;
_chemical_formula_sum "Si O2"
_cell_formula_units_Z 112
_cell_length_a 29.964879
_cell_length_b 10.971807
_cell_length_c 16.594982
_cell_angle_alpha 90.000000
_cell_angle_beta 90.000000
_cell_angle_gamma 90.000000
_cell_volume 5455.913466
_symmetry_space_group_name_H-M "I B A M"
_symmetry_group_IT_number 72
_symmetry_cell_setting 'orthorhombic'
loop_
_space_group_symop_operation_xyz
x,y,z
-x,-y,z
x,-y,1/2-z
-x,y,1/2-z
-x,-y,-z
x,y,-z
-x,y,1/2+z
x,-y,1/2+z
1/2+x,1/2+y,1/2+z
1/2-x,1/2-y,1/2+z
1/2+x,1/2-y,-z
1/2-x,1/2+y,-z
1/2-x,1/2-y,1/2-z
1/2+x,1/2+y,1/2-z
1/2-x,1/2+y,z
1/2+x,1/2-y,z
loop_
_atom_site_type_symbol
_atom_site_label
_atom_site_fract_x
_atom_site_fract_y
_atom_site_fract_z
Si Si1 0.025747 0.869241 0.593972
Si Si2 0.852944 0.347724 0.094970
Si Si3 0.306051 0.931248 0.165919
Si Si4 0.063407 0.772913 0.903135
Si Si5 0.227257 0.803188 0.093941
Si Si6 0.111209 0.018224 0.843983
Si Si7 0.183424 0.813806 0.592731
O O1 0.036366 0.843866 0.500000
O O2 0.071621 0.883141 0.641467
O O3 0.987267 0.780483 0.627600
O O4 0.000000 0.000000 0.595557
O O5 0.831144 0.478109 0.106324
O O6 0.903186 0.332290 0.125708
O O7 0.818700 0.246297 0.129150
O O8 0.854258 0.321594 0.000000
O O9 0.254652 0.904219 0.142340
O O10 0.327796 0.797428 0.153761
O O11 0.309338 0.000000 0.250000
O O12 0.090838 0.896089 0.882977
O O13 0.058126 0.768018 0.000000
O O14 0.262571 0.689253 0.095763
O O15 0.222926 0.839840 0.000000
O O16 0.156262 0.066776 0.884752
O O17 0.118303 0.000000 0.750000
O O18 0.172409 0.780485 0.500000
#
# Coordination Sequence:
#
# PCOD9526253 Si02
#       7
#    16  16  16  16  16  16  16
#     4   8  15  31  50  74 109 145 179 222 284 347
#     4  10  19  35  58  80 107 147 196 239 278 343
#     4  10  21  35  56  77 112 149 183 239 293 337
#     4   9  19  32  52  81 110 144 185 231 285 345
#     4   8  18  35  54  78 105 144 196 231 277 337
#     4  11  21  31  54  81 115 143 185 236 285 349
#     4   9  19  38  56  78 108 153 195 228 285 352
#
# _framework density 20.528185000000001
#
# number of rings (size 3 to 8) (size 9 to 14) (size 15 to 20)
#    0.857    1.857    0.000    3.000    2.000    4.286 
#    0.000    5.714    0.000    0.857    0.000    5.000 
#    0.000    0.000    0.000    0.000    0.000    0.000 
#
# Total GULP energy -311786.558243 kJ/mol
# GULP energy per Si atom -5567.617111 kJ/mol
# Density = 2.048146 g / cm^3
# Si number density = 20.528185 Si / 1000 Ang^3
#
#
#
# Elastic Constant Matrix: (Units=GPa)
#
#
# Indices 1 2 3 4 5 6 
#
# 1 66.3729 -7.7500 14.2925 0.0000 0.0000 0.0000
# 2 -7.7500 20.0854 -3.5444 0.0000 0.0000 0.0000
# 3 14.2925 -3.5444 48.6580 0.0000 0.0000 0.0000
# 4 0.0000 0.0000 0.0000 16.5472 0.0000 0.0000
# 5 0.0000 0.0000 0.0000 0.0000 -11.2669 0.0000
# 6 0.0000 0.0000 0.0000 0.0000 0.0000 18.3279
#
#
#
# Elastic Compliance Matrix: (Units=1/GPa)
#
#
# Indices 1 2 3 4 5 6 
#
# 1 0.016693 0.005648 -0.004492 0.000000 0.000000 0.000000
# 2 0.005648 0.052347 0.002154 0.000000 0.000000 0.000000
# 3 -0.004492 0.002154 0.022028 0.000000 0.000000 0.000000
# 4 0.000000 0.000000 0.000000 0.060433 0.000000 0.000000
# 5 0.000000 0.000000 0.000000 0.000000 -0.088755 0.000000
# 6 0.000000 0.000000 0.000000 0.000000 0.000000 0.054562
#
#
# Mechanical properties :
#
#
# Convention : Reuss Voigt Hill
#
# Bulk Modulus (GPa) = 10.23659 15.67920 12.95789
# Shear Modulus (GPa) = 34.90415 13.52952 24.21684
#
# Velocity S-wave (km/s) = 4.12795 2.57002 3.43838
# Velocity P-wave (km/s) = 5.26473 4.05723 4.69992
#
# Compressibility (1/GPa) = 0.09768882
#
# Stress axis : x y z
#
# Youngs Moduli (GPa) = 59.90467 19.10334 45.39690
#
# Poissons Ratio (x) = -0.10790 0.20392
# Poissons Ratio (y) = -0.33837 -0.09778
# Poissons Ratio (z) = 0.26909 -0.04115
#
# Static dielectric constant tensor:
#      x y z
#    x 1.786090 0.000000 0.000000 
#    y 0.000000 1.786830 0.000000 
#    z 0.000000 0.000000 1.738210 
# 
# From -- ./inp_files/40879.got.cif
#   From: 2010.05.17/outbox.cif.g08.bks.cpg/sg72_21_cif.got.tgz:40879.got - 2010.06.03 17:03:01.
