data_PCOD9526283
_publ_section_title
;
Structure prediction by ZEFSAII (Michael W. Deem and Ramdas Pophale) SiO2 
 PCOD9526283
Probable space group: I B A M
;
_chemical_formula_sum "Si O2"
_cell_formula_units_Z 64
_cell_length_a 11.389458
_cell_length_b 14.616541
_cell_length_c 14.304065
_cell_angle_alpha 90.000000
_cell_angle_beta 90.000000
_cell_angle_gamma 90.000000
_cell_volume 2381.261780
_symmetry_space_group_name_H-M "I B A M"
_symmetry_group_IT_number 72
_symmetry_cell_setting 'orthorhombic'
loop_
_space_group_symop_operation_xyz
x,y,z
-x,-y,z
x,-y,1/2-z
-x,y,1/2-z
-x,-y,-z
x,y,-z
-x,y,1/2+z
x,-y,1/2+z
1/2+x,1/2+y,1/2+z
1/2-x,1/2-y,1/2+z
1/2+x,1/2-y,-z
1/2-x,1/2+y,-z
1/2-x,1/2-y,1/2-z
1/2+x,1/2+y,1/2-z
1/2-x,1/2+y,z
1/2+x,1/2-y,z
loop_
_atom_site_type_symbol
_atom_site_label
_atom_site_fract_x
_atom_site_fract_y
_atom_site_fract_z
Si Si1 0.864875 0.192191 0.603134
Si Si2 0.855265 0.563903 0.396402
Si Si3 0.089253 0.082994 0.609040
Si Si4 0.671160 0.120876 0.195886
O O1 0.844814 0.231625 0.500000
O O2 0.780792 0.102532 0.604474
O O3 0.835002 0.274093 0.670410
O O4 0.000622 0.167884 0.613335
O O5 0.898194 0.589374 0.500000
O O6 0.875134 0.455833 0.377507
O O7 0.887622 0.606858 0.296677
O O8 0.132781 0.077016 0.500000
O O9 0.190562 0.094301 0.684873
O O10 0.000000 0.000000 0.625575
#
# Coordination Sequence:
#
# PCOD9526283 Si02
#       4
#    16  16  16  16
#     4  10  20  35  58  89 125 164 211 258 312 382
#     4  10  21  37  57  88 125 161 208 261 317 377
#     4  10  19  35  60  92 127 164 209 261 313 371
#     4  11  21  36  63  89 124 168 208 261 321 377
#
# _framework density 26.876507
#
# number of rings (size 3 to 8) (size 9 to 14) (size 15 to 20)
#    0.000    1.750    2.500    3.000    0.000    1.000 
#    0.000    0.000    0.000    3.000    0.000   10.500 
#    0.000    0.000    0.000    2.500    0.000    0.250 
#
# Total GULP energy -178861.089029 kJ/mol
# GULP energy per Si atom -5589.409032 kJ/mol
# Density = 2.681533 g / cm^3
# Si number density = 26.876507 Si / 1000 Ang^3
#
#
#
# Elastic Constant Matrix: (Units=GPa)
#
#
# Indices 1 2 3 4 5 6 
#
# 1 84.3483 19.7153 63.8266 0.0000 0.0000 0.0000
# 2 19.7153 123.3403 68.0431 0.0000 0.0000 0.0000
# 3 63.8266 68.0431 214.8578 0.0000 0.0000 0.0000
# 4 0.0000 0.0000 0.0000 29.6512 0.0000 0.0000
# 5 0.0000 0.0000 0.0000 0.0000 27.2561 0.0000
# 6 0.0000 0.0000 0.0000 0.0000 0.0000 19.5081
#
#
#
# Elastic Compliance Matrix: (Units=1/GPa)
#
#
# Indices 1 2 3 4 5 6 
#
# 1 0.015294 0.000075 -0.004567 0.000000 0.000000 0.000000
# 2 0.000075 0.009824 -0.003133 0.000000 0.000000 0.000000
# 3 -0.004567 -0.003133 0.007003 0.000000 0.000000 0.000000
# 4 0.000000 0.000000 0.000000 0.033725 0.000000 0.000000
# 5 0.000000 0.000000 0.000000 0.000000 0.036689 0.000000
# 6 0.000000 0.000000 0.000000 0.000000 0.000000 0.051261
#
#
# Mechanical properties :
#
#
# Convention : Reuss Voigt Hill
#
# Bulk Modulus (GPa) = 59.27590 80.63514 69.95552
# Shear Modulus (GPa) = 28.62514 33.34717 30.98615
#
# Velocity S-wave (km/s) = 3.26707 3.52626 3.39913
# Velocity P-wave (km/s) = 6.02781 6.82983 6.44131
#
# Compressibility (1/GPa) = 0.01687026
#
# Stress axis : x y z
#
# Youngs Moduli (GPa) = 65.38526 101.78803 142.79049
#
# Poissons Ratio (x) = -0.00761 0.65212
# Poissons Ratio (y) = -0.00489 0.44743
# Poissons Ratio (z) = 0.29861 0.31895
#
# Static dielectric constant tensor:
#      x y z
#    x 2.207230 0.000000 0.000000 
#    y 0.000000 2.041640 0.000000 
#    z 0.000000 0.000000 2.117940 
# 
# From -- ./inp_files/21213.got.cif
#   From: 2010.05.17/outbox.cif.g08.bks.cpg/sg72_11_cif.got.tgz:21213.got - 2010.06.03 17:03:01.
