data_PCOD9526464
_publ_section_title
;
Structure prediction by ZEFSAII (Michael W. Deem and Ramdas Pophale) SiO2 
 PCOD9526464
Probable space group: I B A M
;
_chemical_formula_sum "Si O2"
_cell_formula_units_Z 60
_cell_length_a 12.869362
_cell_length_b 23.769799
_cell_length_c 9.602816
_cell_angle_alpha 90.000000
_cell_angle_beta 90.000000
_cell_angle_gamma 90.000000
_cell_volume 2937.522041
_symmetry_space_group_name_H-M "I B A M"
_symmetry_group_IT_number 72
_symmetry_cell_setting 'orthorhombic'
loop_
_space_group_symop_operation_xyz
x,y,z
-x,-y,z
x,-y,1/2-z
-x,y,1/2-z
-x,-y,-z
x,y,-z
-x,y,1/2+z
x,-y,1/2+z
1/2+x,1/2+y,1/2+z
1/2-x,1/2-y,1/2+z
1/2+x,1/2-y,-z
1/2-x,1/2+y,-z
1/2-x,1/2-y,1/2-z
1/2+x,1/2+y,1/2-z
1/2-x,1/2+y,z
1/2+x,1/2-y,z
loop_
_atom_site_type_symbol
_atom_site_label
_atom_site_fract_x
_atom_site_fract_y
_atom_site_fract_z
Si Si1 0.567941 0.272862 0.000000
Si Si2 0.137079 0.536858 0.000000
Si Si3 0.500000 0.000000 0.750000
Si Si4 0.839732 0.819261 0.500000
Si Si5 0.306130 0.091407 0.500000
Si Si6 0.158631 0.314048 0.200989
Si Si7 0.222068 0.656998 0.000000
O O1 0.584401 0.231541 0.131677
O O2 0.661512 0.318217 0.000000
O O3 0.456831 0.301731 0.000000
O O4 0.068107 0.536296 0.859309
O O5 0.186111 0.474485 0.000000
O O6 0.214016 0.589459 0.000000
O O7 0.812944 0.885940 0.500000
O O8 0.772809 0.799159 0.365801
O O9 0.357822 0.124481 0.629827
O O10 0.163680 0.321040 0.363564
#
# Coordination Sequence:
#
# PCOD9526464 Si02
#       7
#     8   8   4   8   8  16   8
#     4  10  19  39  62  83 129 173 217 259 316 376
#     4  11  21  40  62  94 128 160 206 257 315 378
#     4  10  24  38  64  90 126 166 204 250 304 380
#     4   7  18  39  61  88 113 171 209 259 305 376
#     4   7  17  40  63  84 122 168 195 261 312 365
#     4   8  20  37  59  89 124 165 206 262 317 364
#     4  12  21  34  61  93 126 163 200 264 329 369
#
# _framework density 20.425379
#
# number of rings (size 3 to 8) (size 9 to 14) (size 15 to 20)
#    1.600    1.333    0.000    2.400    0.000    1.067 
#    0.000   18.000    0.000    0.000    6.933    0.000 
#    0.000    0.000    0.000    0.000    0.000    0.000 
#
# Total GULP energy -167273.442912 kJ/mol
# GULP energy per Si atom -5575.781430 kJ/mol
# Density = 2.037889 g / cm^3
# Si number density = 20.425379 Si / 1000 Ang^3
#
#
#
# Elastic Constant Matrix: (Units=GPa)
#
#
# Indices 1 2 3 4 5 6 
#
# 1 120.4954 72.1485 50.6444 -0.0001 0.0000 0.0000
# 2 72.1485 186.1850 49.3969 0.0002 -0.0001 0.0000
# 3 50.6444 49.3969 200.9340 0.0026 -0.0006 0.0000
# 4 -0.0001 0.0002 0.0026 7.7144 -0.0007 0.0000
# 5 0.0000 -0.0001 -0.0006 -0.0007 17.5144 0.0000
# 6 0.0000 0.0000 0.0000 0.0000 0.0000 24.1245
#
#
#
# Elastic Compliance Matrix: (Units=1/GPa)
#
#
# Indices 1 2 3 4 5 6 
#
# 1 0.011461 -0.003931 -0.001922 0.000001 0.000000 0.000000
# 2 -0.003931 0.007094 -0.000753 0.000000 0.000000 0.000000
# 3 -0.001922 -0.000753 0.005646 -0.000002 0.000000 0.000000
# 4 0.000001 0.000000 -0.000002 0.129628 0.000005 0.000000
# 5 0.000000 0.000000 0.000000 0.000005 0.057096 0.000000
# 6 0.000000 0.000000 0.000000 0.000000 0.000000 0.041452
#
#
# Mechanical properties :
#
#
# Convention : Reuss Voigt Hill
#
# Bulk Modulus (GPa) = 91.00615 94.66599 92.83607
# Shear Modulus (GPa) = 18.56985 32.23227 25.40106
#
# Velocity S-wave (km/s) = 3.01849 3.97678 3.53030
# Velocity P-wave (km/s) = 7.53661 8.21792 7.88463
#
# Compressibility (1/GPa) = 0.01098827
#
# Stress axis : x y z
#
# Youngs Moduli (GPa) = 87.25350 140.96006 177.10390
#
# Poissons Ratio (x) = 0.55414 0.34043
# Poissons Ratio (y) = 0.34301 0.13339
# Poissons Ratio (z) = 0.16772 0.10617
#
# Static dielectric constant tensor:
#      x y z
#    x 1.738560 0.000000 0.000000 
#    y 0.000000 1.768640 0.000000 
#    z 0.000000 0.000000 1.771090 
# 
# From -- ./inp_files/3417.got.cif
#   From: 2010.05.17/outbox.cif.g08.bks.cpg/sg72_2_cif.got.tgz:3417.got - 2010.06.03 17:03:01.
