data_PCOD9526358
_publ_section_title
;
Structure prediction by ZEFSAII (Michael W. Deem and Ramdas Pophale) SiO2 
 PCOD9526358
Probable space group: I B A M
;
_chemical_formula_sum "Si O2"
_cell_formula_units_Z 88
_cell_length_a 14.996434
_cell_length_b 16.888610
_cell_length_c 15.492673
_cell_angle_alpha 90.000000
_cell_angle_beta 90.000000
_cell_angle_gamma 90.000000
_cell_volume 3923.812639
_symmetry_space_group_name_H-M "I B A M"
_symmetry_group_IT_number 72
_symmetry_cell_setting 'orthorhombic'
loop_
_space_group_symop_operation_xyz
x,y,z
-x,-y,z
x,-y,1/2-z
-x,y,1/2-z
-x,-y,-z
x,y,-z
-x,y,1/2+z
x,-y,1/2+z
1/2+x,1/2+y,1/2+z
1/2-x,1/2-y,1/2+z
1/2+x,1/2-y,-z
1/2-x,1/2+y,-z
1/2-x,1/2-y,1/2-z
1/2+x,1/2+y,1/2-z
1/2-x,1/2+y,z
1/2+x,1/2-y,z
loop_
_atom_site_type_symbol
_atom_site_label
_atom_site_fract_x
_atom_site_fract_y
_atom_site_fract_z
Si Si1 0.920665 0.316838 0.500000
Si Si2 0.319114 0.027632 0.500000
Si Si3 0.686300 0.171605 0.684797
Si Si4 0.772636 0.020469 0.342598
Si Si5 0.546227 0.582742 0.599163
Si Si6 0.386680 0.270818 0.322853
Si Si7 0.629969 0.838970 0.000000
O O1 0.895885 0.408843 0.500000
O O2 0.884110 0.273533 0.585402
O O3 0.026962 0.317036 0.500000
O O4 0.263548 0.042054 0.411545
O O5 0.348821 0.934572 0.500000
O O6 0.690394 0.076544 0.684523
O O7 0.610748 0.206518 0.746637
O O8 0.790155 0.191884 0.703314
O O9 0.670344 0.196430 0.586791
O O10 0.848214 0.064744 0.398001
O O11 0.814497 0.000000 0.250000
O O12 0.500000 0.500000 0.625204
O O13 0.518788 0.600222 0.500000
O O14 0.541333 0.659465 0.660438
#
# Coordination Sequence:
#
# PCOD9526358 Si02
#       7
#     8   8  16  16  16  16   8
#     4  12  22  35  58  89 122 151 193 261 310 361
#     4  10  21  38  59  83 117 160 199 251 303 372
#     4   9  20  39  63  85 117 160 209 252 306 366
#     4  10  19  36  61  88 116 157 205 254 306 370
#     4  10  20  38  62  85 125 167 201 246 314 378
#     4  10  20  38  63  89 117 160 208 258 301 368
#     4  10  22  39  59  86 119 159 194 242 311 377
#
# _framework density 22.427166
#
# number of rings (size 3 to 8) (size 9 to 14) (size 15 to 20)
#    0.000    2.000    1.818    1.909    2.545    1.091 
#    0.000   12.727    0.000    3.273    0.000    0.636 
#    0.000    0.000    0.000    0.000    0.000    0.000 
#
# Total GULP energy -244977.245446 kJ/mol
# GULP energy per Si atom -5567.664669 kJ/mol
# Density = 2.237612 g / cm^3
# Si number density = 22.427166 Si / 1000 Ang^3
#
#
#
# Elastic Constant Matrix: (Units=GPa)
#
#
# Indices 1 2 3 4 5 6 
#
# 1 25.8517 10.7157 -9.8733 0.0000 0.0000 0.0000
# 2 10.7157 71.6146 32.0894 0.0000 0.0000 0.0000
# 3 -9.8733 32.0894 129.1722 0.0000 0.0000 0.0000
# 4 0.0000 0.0000 0.0000 13.9556 0.0000 0.0000
# 5 0.0000 0.0000 0.0000 0.0000 76.5055 0.0000
# 6 0.0000 0.0000 0.0000 0.0000 0.0000 35.1735
#
#
#
# Elastic Compliance Matrix: (Units=1/GPa)
#
#
# Indices 1 2 3 4 5 6 
#
# 1 0.044698 -0.009249 0.005714 0.000000 0.000000 0.000000
# 2 -0.009249 0.017626 -0.005086 0.000000 0.000000 0.000000
# 3 0.005714 -0.005086 0.009442 0.000000 0.000000 0.000000
# 4 0.000000 0.000000 0.000000 0.071656 0.000000 0.000000
# 5 0.000000 0.000000 0.000000 0.000000 0.013071 0.000000
# 6 0.000000 0.000000 0.000000 0.000000 0.000000 0.028431
#
#
# Mechanical properties :
#
#
# Convention : Reuss Voigt Hill
#
# Bulk Modulus (GPa) = 18.33993 32.50024 25.42008
# Shear Modulus (GPa) = 22.69227 38.04069 30.36648
#
# Velocity S-wave (km/s) = 3.18436 4.12295 3.68367
# Velocity P-wave (km/s) = 4.65999 6.09818 5.42694
#
# Compressibility (1/GPa) = 0.05452585
#
# Stress axis : x y z
#
# Youngs Moduli (GPa) = 22.37226 56.73326 105.91223
#
# Poissons Ratio (x) = 0.52471 -0.60519
# Poissons Ratio (y) = 0.20691 0.53864
# Poissons Ratio (z) = -0.12784 0.28853
#
# Static dielectric constant tensor:
#      x y z
#    x 1.837820 0.000000 0.000000 
#    y 0.000000 1.990550 0.000000 
#    z 0.000000 0.000000 1.930560 
# 
# From -- ./inp_files/23241.got.cif
#   From: 2010.05.17/outbox.cif.g08.bks.cpg/sg72_12_cif.got.tgz:23241.got - 2010.06.03 17:03:01.
