data_PCOD9526478
_publ_section_title
;
Structure prediction by ZEFSAII (Michael W. Deem and Ramdas Pophale) SiO2 
 PCOD9526478
Probable space group: I B A M
;
_chemical_formula_sum "Si O2"
_cell_formula_units_Z 80
_cell_length_a 11.872761
_cell_length_b 30.789892
_cell_length_c 10.415357
_cell_angle_alpha 90.000000
_cell_angle_beta 90.000000
_cell_angle_gamma 90.000000
_cell_volume 3807.448622
_symmetry_space_group_name_H-M "I B A M"
_symmetry_group_IT_number 72
_symmetry_cell_setting 'orthorhombic'
loop_
_space_group_symop_operation_xyz
x,y,z
-x,-y,z
x,-y,1/2-z
-x,y,1/2-z
-x,-y,-z
x,y,-z
-x,y,1/2+z
x,-y,1/2+z
1/2+x,1/2+y,1/2+z
1/2-x,1/2-y,1/2+z
1/2+x,1/2-y,-z
1/2-x,1/2+y,-z
1/2-x,1/2-y,1/2-z
1/2+x,1/2+y,1/2-z
1/2-x,1/2+y,z
1/2+x,1/2-y,z
loop_
_atom_site_type_symbol
_atom_site_label
_atom_site_fract_x
_atom_site_fract_y
_atom_site_fract_z
Si Si1 0.500000 0.897666 0.750000
Si Si2 0.220286 0.690667 0.500000
Si Si3 0.957497 0.839053 0.500000
Si Si4 0.884998 0.908960 0.291144
Si Si5 0.705145 0.154417 0.712618
Si Si6 0.307782 0.710602 0.000000
Si Si7 0.326232 0.035244 0.360663
O O1 0.412566 0.867234 0.674586
O O2 0.578955 0.928445 0.664167
O O3 0.355940 0.695251 0.500000
O O4 0.195177 0.665929 0.365460
O O5 0.169372 0.738369 0.500000
O O6 0.935086 0.871095 0.381372
O O7 0.075022 0.815287 0.500000
O O8 0.803816 0.881772 0.195363
O O9 0.795329 0.941283 0.354254
O O10 0.000000 0.932467 0.250000
O O11 0.739412 0.195091 0.626071
O O12 0.342033 0.014976 0.500000
O O13 0.333988 0.000000 0.250000
#
# Coordination Sequence:
#
# PCOD9526478 Si02
#       7
#     8   8   8  16  16   8  16
#     4  10  25  42  68  90 132 176 220 268 312 398
#     4  10  24  40  58  91 137 174 206 266 342 382
#     4  10  20  38  64  87 127 170 208 265 322 378
#     4  10  19  41  66  91 126 169 213 261 321 391
#     4  10  23  39  63  93 125 172 221 260 323 383
#     4  12  22  38  64 101 124 164 228 275 322 381
#     4  11  25  46  68  98 134 173 212 269 340 395
#
# _framework density 21.011447
#
# number of rings (size 3 to 8) (size 9 to 14) (size 15 to 20)
#    0.000    1.600    3.000    0.900    5.600    3.600 
#    7.200    1.000    0.000    0.000    0.000    0.000 
#    0.000    0.000    0.000    0.000    0.000    0.000 
#
# Total GULP energy -223139.710162 kJ/mol
# GULP energy per Si atom -5578.492754 kJ/mol
# Density = 2.096362 g / cm^3
# Si number density = 21.011447 Si / 1000 Ang^3
#
#
#
# Elastic Constant Matrix: (Units=GPa)
#
#
# Indices 1 2 3 4 5 6 
#
# 1 160.9612 37.9135 30.4062 0.0002 0.0002 0.0000
# 2 37.9135 77.2448 29.6515 0.0002 -0.0001 0.0000
# 3 30.4062 29.6515 92.8059 0.0010 0.0004 0.0000
# 4 0.0002 0.0002 0.0010 24.5856 -0.0001 0.0000
# 5 0.0002 -0.0001 0.0004 -0.0001 7.0757 0.0000
# 6 0.0000 0.0000 0.0000 0.0000 0.0000 20.4938
#
#
#
# Elastic Compliance Matrix: (Units=1/GPa)
#
#
# Indices 1 2 3 4 5 6 
#
# 1 0.007180 -0.002988 -0.001398 0.000000 0.000000 0.000000
# 2 -0.002988 0.015999 -0.004133 0.000000 0.000000 0.000000
# 3 -0.001398 -0.004133 0.012554 0.000000 -0.000001 0.000000
# 4 0.000000 0.000000 0.000000 0.040674 0.000001 0.000000
# 5 0.000000 0.000000 -0.000001 0.000001 0.141330 0.000000
# 6 0.000000 0.000000 0.000000 0.000000 0.000000 0.048795
#
#
# Mechanical properties :
#
#
# Convention : Reuss Voigt Hill
#
# Bulk Modulus (GPa) = 53.48747 58.55048 56.01898
# Shear Modulus (GPa) = 17.25324 25.96707 21.61015
#
# Velocity S-wave (km/s) = 2.86865 3.51928 3.21049
# Velocity P-wave (km/s) = 6.04019 6.66636 6.36098
#
# Compressibility (1/GPa) = 0.01869597
#
# Stress axis : x y z
#
# Youngs Moduli (GPa) = 139.26609 62.50508 79.65837
#
# Poissons Ratio (x) = 0.18675 0.11136
# Poissons Ratio (y) = 0.41609 0.32921
# Poissons Ratio (z) = 0.19469 0.25832
#
# Static dielectric constant tensor:
#      x y z
#    x 1.789470 0.000000 0.000000 
#    y 0.000000 1.726140 0.000000 
#    z 0.000000 0.000000 1.808820 
# 
# From -- ./inp_files/11709.got.cif
#   From: 2010.05.17/outbox.cif.g08.bks.cpg/sg72_6_cif.got.tgz:11709.got - 2010.06.03 17:03:01.
