data_PCOD9526604
_publ_section_title
;
Structure prediction by ZEFSAII (Michael W. Deem and Ramdas Pophale) SiO2 
 PCOD9526604
Probable space group: I B A M
;
_chemical_formula_sum "Si O2"
_cell_formula_units_Z 96
_cell_length_a 23.460890
_cell_length_b 26.487244
_cell_length_c 8.286675
_cell_angle_alpha 90.000000
_cell_angle_beta 90.000000
_cell_angle_gamma 90.000000
_cell_volume 5149.458493
_symmetry_space_group_name_H-M "I B A M"
_symmetry_group_IT_number 72
_symmetry_cell_setting 'orthorhombic'
loop_
_space_group_symop_operation_xyz
x,y,z
-x,-y,z
x,-y,1/2-z
-x,y,1/2-z
-x,-y,-z
x,y,-z
-x,y,1/2+z
x,-y,1/2+z
1/2+x,1/2+y,1/2+z
1/2-x,1/2-y,1/2+z
1/2+x,1/2-y,-z
1/2-x,1/2+y,-z
1/2-x,1/2-y,1/2-z
1/2+x,1/2+y,1/2-z
1/2-x,1/2+y,z
1/2+x,1/2-y,z
loop_
_atom_site_type_symbol
_atom_site_label
_atom_site_fract_x
_atom_site_fract_y
_atom_site_fract_z
Si Si1 0.564793 0.743290 0.694882
Si Si2 0.177791 0.556049 0.808473
Si Si3 0.623504 0.153573 0.815615
Si Si4 0.810111 0.056988 0.305519
Si Si5 0.149319 0.155463 0.689347
Si Si6 0.263660 0.195203 0.185393
O O1 0.500000 0.737646 0.750000
O O2 0.569809 0.742466 0.500000
O O3 0.587446 0.798779 0.751804
O O4 0.601625 0.696381 0.762793
O O5 0.162899 0.500000 0.750000
O O6 0.131374 0.598274 0.760747
O O7 0.243444 0.566909 0.751652
O O8 0.181396 0.556110 0.000000
O O9 0.687959 0.173441 0.799083
O O10 0.605798 0.146882 0.000000
O O11 0.812361 0.060457 0.500000
O O12 0.855111 0.095957 0.226848
O O13 0.821847 0.000000 0.250000
O O14 0.161855 0.162463 0.500000
O O15 0.204170 0.167374 0.798384
O O16 0.250000 0.250000 0.250000
O O17 0.283665 0.194319 0.000000
#
# Coordination Sequence:
#
# PCOD9526604 Si02
#       6
#    16  16  16  16  16  16
#     4  11  25  43  62  84 113 149 195 244 292 345
#     4  10  20  33  53  81 119 157 192 231 279 340
#     4  11  22  36  57  83 116 152 189 234 287 345
#     4  10  20  34  53  82 120 157 194 232 279 339
#     4  12  23  36  58  84 117 155 191 235 288 343
#     4  12  22  33  51  81 116 151 188 229 284 345
#
# _framework density 18.642737
#
# number of rings (size 3 to 8) (size 9 to 14) (size 15 to 20)
#    0.000    1.000    3.333    5.000    0.000    3.333 
#    0.000    0.000    0.000    1.000    0.000    7.000 
#    0.000    0.000    0.000    0.000    0.000    0.000 
#
# Total GULP energy -267653.388624 kJ/mol
# GULP energy per Si atom -5576.112263 kJ/mol
# Density = 1.860031 g / cm^3
# Si number density = 18.642737 Si / 1000 Ang^3
#
#
#
# Elastic Constant Matrix: (Units=GPa)
#
#
# Indices 1 2 3 4 5 6 
#
# 1 47.8717 25.6647 -5.7817 0.0000 0.0000 0.0000
# 2 25.6647 140.9074 18.3570 0.0000 0.0000 0.0000
# 3 -5.7817 18.3570 63.5018 0.0000 0.0000 0.0000
# 4 0.0000 0.0000 0.0000 29.7766 0.0000 0.0000
# 5 0.0000 0.0000 0.0000 0.0000 19.5131 0.0000
# 6 0.0000 0.0000 0.0000 0.0000 0.0000 8.2494
#
#
#
# Elastic Compliance Matrix: (Units=1/GPa)
#
#
# Indices 1 2 3 4 5 6 
#
# 1 0.023904 -0.004819 0.003569 0.000000 0.000000 0.000000
# 2 -0.004819 0.008346 -0.002851 0.000000 0.000000 0.000000
# 3 0.003569 -0.002851 0.016897 0.000000 0.000000 0.000000
# 4 0.000000 0.000000 0.000000 0.033583 0.000000 0.000000
# 5 0.000000 0.000000 0.000000 0.000000 0.051248 0.000000
# 6 0.000000 0.000000 0.000000 0.000000 0.000000 0.121221
#
#
# Mechanical properties :
#
#
# Convention : Reuss Voigt Hill
#
# Bulk Modulus (GPa) = 24.42302 36.52900 30.47601
# Shear Modulus (GPa) = 18.04737 25.77722 21.91229
#
# Velocity S-wave (km/s) = 3.11475 3.72249 3.43210
# Velocity P-wave (km/s) = 5.10534 6.17355 5.66468
#
# Compressibility (1/GPa) = 0.04094498
#
# Stress axis : x y z
#
# Youngs Moduli (GPa) = 41.83451 119.81754 59.18262
#
# Poissons Ratio (x) = 0.57738 -0.21125
# Poissons Ratio (y) = 0.20159 0.16875
# Poissons Ratio (z) = -0.14932 0.34165
#
# Static dielectric constant tensor:
#      x y z
#    x 1.617990 0.000000 0.000000 
#    y 0.000000 1.615180 0.000000 
#    z 0.000000 0.000000 1.654400 
# 
# From -- ./inp_files/6024.got.cif
#   From: 2010.05.17/outbox.cif.g08.bks.cpg/sg72_4_cif.got.tgz:6024.got - 2010.06.03 17:03:01.
