data_PCOD9526702
_publ_section_title
;
Structure prediction by ZEFSAII (Michael W. Deem and Ramdas Pophale) SiO2 
 PCOD9526702
Probable space group: I B A M
;
_chemical_formula_sum "Si O2"
_cell_formula_units_Z 116
_cell_length_a 27.000823
_cell_length_b 26.718167
_cell_length_c 9.001275
_cell_angle_alpha 90.000000
_cell_angle_beta 90.000000
_cell_angle_gamma 90.000000
_cell_volume 6493.632283
_symmetry_space_group_name_H-M "I B A M"
_symmetry_group_IT_number 72
_symmetry_cell_setting 'orthorhombic'
loop_
_space_group_symop_operation_xyz
x,y,z
-x,-y,z
x,-y,1/2-z
-x,y,1/2-z
-x,-y,-z
x,y,-z
-x,y,1/2+z
x,-y,1/2+z
1/2+x,1/2+y,1/2+z
1/2-x,1/2-y,1/2+z
1/2+x,1/2-y,-z
1/2-x,1/2+y,-z
1/2-x,1/2-y,1/2-z
1/2+x,1/2+y,1/2-z
1/2-x,1/2+y,z
1/2+x,1/2-y,z
loop_
_atom_site_type_symbol
_atom_site_label
_atom_site_fract_x
_atom_site_fract_y
_atom_site_fract_z
Si Si1 0.255537 0.869188 0.325805
Si Si2 0.051008 0.704141 0.822345
Si Si3 0.848080 0.326176 0.674892
Si Si4 0.820131 0.946398 0.677491
Si Si5 0.000000 0.000000 0.750000
Si Si6 0.826079 0.789733 0.829911
Si Si7 0.422136 0.582240 0.167557
Si Si8 0.076953 0.181015 0.325557
O O1 0.259235 0.881931 0.500000
O O2 0.309057 0.862720 0.252469
O O3 0.219973 0.907851 0.241854
O O4 0.226411 0.816278 0.314904
O O5 0.098506 0.676832 0.752665
O O6 0.056306 0.763861 0.788826
O O7 0.000000 0.686543 0.750000
O O8 0.050835 0.698949 0.000000
O O9 0.852840 0.336791 0.500000
O O10 0.826669 0.269610 0.690397
O O11 0.818294 0.948221 0.500000
O O12 0.875642 0.931871 0.729385
O O13 0.809761 0.000000 0.750000
O O14 0.962840 0.038397 0.668872
O O15 0.864951 0.813777 0.716128
O O16 0.843704 0.799353 0.000000
O O17 0.442519 0.634910 0.228810
O O18 0.403634 0.588601 0.000000
O O19 0.069954 0.171336 0.500000
#
# Coordination Sequence:
#
# PCOD9526702 Si02
#       8
#    16  16  16  16   4  16  16  16
#     4  11  21  35  56  83 113 148 183 226 280 337
#     4  10  21  37  55  79 110 149 188 228 276 330
#     4  10  20  34  53  81 114 149 187 229 272 330
#     4  12  25  42  63  84 108 142 184 232 288 347
#     4  12  30  44  60  78 102 136 190 248 304 348
#     4   9  18  32  52  77 109 146 181 221 274 331
#     4  12  25  42  60  77 102 136 181 238 297 348
#     4  10  21  35  54  78 104 138 183 230 279 338
#
# _framework density 17.863654
#
# number of rings (size 3 to 8) (size 9 to 14) (size 15 to 20)
#    0.000    1.379    2.069    3.931    0.966    4.414 
#    0.000    0.000    0.000    0.000    0.000    0.000 
#    0.000    0.552    0.000    5.517    0.000    3.310 
#
# Total GULP energy -323996.064553 kJ/mol
# GULP energy per Si atom -5586.139044 kJ/mol
# Density = 1.782300 g / cm^3
# Si number density = 17.863654 Si / 1000 Ang^3
#
#
#
# Elastic Constant Matrix: (Units=GPa)
#
#
# Indices 1 2 3 4 5 6 
#
# 1 130.4529 41.1248 69.8647 0.0000 0.0000 0.0000
# 2 41.1248 40.6353 34.1950 0.0000 0.0000 0.0000
# 3 69.8647 34.1950 118.7334 0.0000 0.0000 0.0000
# 4 0.0000 0.0000 0.0000 14.0005 0.0000 0.0000
# 5 0.0000 0.0000 0.0000 0.0000 10.5293 0.0000
# 6 0.0000 0.0000 0.0000 0.0000 0.0000 25.1174
#
#
#
# Elastic Compliance Matrix: (Units=1/GPa)
#
#
# Indices 1 2 3 4 5 6 
#
# 1 0.013331 -0.009095 -0.005225 0.000000 0.000000 0.000000
# 2 -0.009095 0.038686 -0.005790 0.000000 0.000000 0.000000
# 3 -0.005225 -0.005790 0.013164 0.000000 0.000000 0.000000
# 4 0.000000 0.000000 0.000000 0.071426 0.000000 0.000000
# 5 0.000000 0.000000 0.000000 0.000000 0.094973 0.000000
# 6 0.000000 0.000000 0.000000 0.000000 0.000000 0.039813
#
#
# Mechanical properties :
#
#
# Convention : Reuss Voigt Hill
#
# Bulk Modulus (GPa) = 40.06135 64.46561 52.26348
# Shear Modulus (GPa) = 15.62829 19.57191 17.60010
#
# Velocity S-wave (km/s) = 2.96102 3.31362 3.14227
# Velocity P-wave (km/s) = 5.84509 7.12783 6.51809
#
# Compressibility (1/GPa) = 0.02496172
#
# Stress axis : x y z
#
# Youngs Moduli (GPa) = 75.01390 25.84930 75.96411
#
# Poissons Ratio (x) = 0.23509 0.39690
# Poissons Ratio (y) = 0.68223 0.43983
# Poissons Ratio (z) = 0.39194 0.14967
#
# Static dielectric constant tensor:
#      x y z
#    x 1.614400 0.000000 0.000000 
#    y 0.000000 1.615060 0.000000 
#    z 0.000000 0.000000 1.606120 
# 
# From -- ./inp_files/7321.got.cif
#   From: 2010.05.17/outbox.cif.g08.bks.cpg/sg72_4_cif.got.tgz:7321.got - 2010.06.03 17:03:01.
