data_PCOD9526594
_publ_section_title
;
Structure prediction by ZEFSAII (Michael W. Deem and Ramdas Pophale) SiO2 
 PCOD9526594
Probable space group: I B A M
;
_chemical_formula_sum "Si O2"
_cell_formula_units_Z 92
_cell_length_a 18.180527
_cell_length_b 22.432246
_cell_length_c 9.691021
_cell_angle_alpha 90.000000
_cell_angle_beta 90.000000
_cell_angle_gamma 90.000000
_cell_volume 3952.289618
_symmetry_space_group_name_H-M "I B A M"
_symmetry_group_IT_number 72
_symmetry_cell_setting 'orthorhombic'
loop_
_space_group_symop_operation_xyz
x,y,z
-x,-y,z
x,-y,1/2-z
-x,y,1/2-z
-x,-y,-z
x,y,-z
-x,y,1/2+z
x,-y,1/2+z
1/2+x,1/2+y,1/2+z
1/2-x,1/2-y,1/2+z
1/2+x,1/2-y,-z
1/2-x,1/2+y,-z
1/2-x,1/2-y,1/2-z
1/2+x,1/2+y,1/2-z
1/2-x,1/2+y,z
1/2+x,1/2-y,z
loop_
_atom_site_type_symbol
_atom_site_label
_atom_site_fract_x
_atom_site_fract_y
_atom_site_fract_z
Si Si1 0.726952 0.165295 0.656954
Si Si2 0.000000 0.500000 0.000000
Si Si3 0.609314 0.796480 0.660938
Si Si4 0.274885 0.947365 0.154599
Si Si5 0.596817 0.444777 0.655007
Si Si6 0.903967 0.834705 0.152448
Si Si7 0.000000 0.597266 0.750000
O O1 0.702594 0.155042 0.500000
O O2 0.675919 0.213358 0.730541
O O3 0.711677 0.111214 0.759826
O O4 0.814679 0.171139 0.651839
O O5 0.988003 0.447334 0.121145
O O6 0.633821 0.803545 0.500000
O O7 0.567685 0.732765 0.664322
O O8 0.563215 0.854392 0.706686
O O9 0.186111 0.950730 0.145080
O O10 0.303669 0.000000 0.250000
O O11 0.305787 0.949215 0.000000
O O12 0.575136 0.500000 0.750000
O O13 0.568036 0.447803 0.500000
O O14 0.579462 0.382379 0.729342
O O15 0.924100 0.858467 0.000000
#
# Coordination Sequence:
#
# PCOD9526594 Si02
#       7
#    16   4  16  16  16  16   8
#     4  10  20  33  52  81 117 154 194 240 299 372
#     4  10  24  50  76  90 116 150 206 274 336 380
#     4  11  23  40  61  87 117 153 196 251 315 377
#     4   9  16  28  43  65 100 142 188 233 277 333
#     4   9  16  27  47  74 109 154 196 231 273 331
#     4   9  19  35  55  83 122 162 199 244 301 368
#     4  11  24  48  72  94 115 154 208 270 331 380
#
# _framework density 23.277647000000002
#
# number of rings (size 3 to 8) (size 9 to 14) (size 15 to 20)
#    0.000    2.261    0.870    2.087    1.217    5.565 
#    3.130    0.000    0.000    0.000    0.000    0.609 
#    0.000    4.174    0.000    0.000    0.000    0.000 
#
# Total GULP energy -256219.413431 kJ/mol
# GULP energy per Si atom -5569.987248 kJ/mol
# Density = 2.322467 g / cm^3
# Si number density = 23.277647 Si / 1000 Ang^3
#
#
#
# Elastic Constant Matrix: (Units=GPa)
#
#
# Indices 1 2 3 4 5 6 
#
# 1 61.3466 -8.2579 32.9313 0.0000 0.0000 0.0000
# 2 -8.2579 149.9628 92.7399 0.0000 0.0000 0.0000
# 3 32.9313 92.7399 269.7659 0.0000 0.0000 0.0000
# 4 0.0000 0.0000 0.0000 19.7253 0.0000 0.0000
# 5 0.0000 0.0000 0.0000 0.0000 10.4159 0.0000
# 6 0.0000 0.0000 0.0000 0.0000 0.0000 22.6658
#
#
#
# Elastic Compliance Matrix: (Units=1/GPa)
#
#
# Indices 1 2 3 4 5 6 
#
# 1 0.018491 0.003066 -0.003311 0.000000 0.000000 0.000000
# 2 0.003066 0.008977 -0.003460 0.000000 0.000000 0.000000
# 3 -0.003311 -0.003460 0.005301 0.000000 0.000000 0.000000
# 4 0.000000 0.000000 0.000000 0.050696 0.000000 0.000000
# 5 0.000000 0.000000 0.000000 0.000000 0.096008 0.000000
# 6 0.000000 0.000000 0.000000 0.000000 0.000000 0.044119
#
#
# Mechanical properties :
#
#
# Convention : Reuss Voigt Hill
#
# Bulk Modulus (GPa) = 39.43600 79.54465 59.49032
# Shear Modulus (GPa) = 20.88064 34.80552 27.84308
#
# Velocity S-wave (km/s) = 2.99829 3.87102 3.46226
# Velocity P-wave (km/s) = 5.38188 7.36383 6.44945
#
# Compressibility (1/GPa) = 0.02535754
#
# Stress axis : x y z
#
# Youngs Moduli (GPa) = 54.08014 111.39383 188.65194
#
# Poissons Ratio (x) = -0.34153 0.62468
# Poissons Ratio (y) = -0.16581 0.65282
# Poissons Ratio (z) = 0.17908 0.38547
#
# Static dielectric constant tensor:
#      x y z
#    x 1.960970 0.000000 0.000000 
#    y 0.000000 2.240490 0.000000 
#    z 0.000000 0.000000 1.842380 
# 
# From -- ./inp_files/8088.got.cif
#   From: 2010.05.17/outbox.cif.g08.bks.cpg/sg72_5_cif.got.tgz:8088.got - 2010.06.03 17:03:01.
