data_PCOD9526089
_publ_section_title
;
Structure prediction by ZEFSAII (Michael W. Deem and Ramdas Pophale) SiO2 
 PCOD9526089
Probable space group: I B A M
;
_chemical_formula_sum "Si O2"
_cell_formula_units_Z 112
_cell_length_a 24.460925
_cell_length_b 14.200527
_cell_length_c 15.082418
_cell_angle_alpha 90.000000
_cell_angle_beta 90.000000
_cell_angle_gamma 90.000000
_cell_volume 5238.998942
_symmetry_space_group_name_H-M "I B A M"
_symmetry_group_IT_number 72
_symmetry_cell_setting 'orthorhombic'
loop_
_space_group_symop_operation_xyz
x,y,z
-x,-y,z
x,-y,1/2-z
-x,y,1/2-z
-x,-y,-z
x,y,-z
-x,y,1/2+z
x,-y,1/2+z
1/2+x,1/2+y,1/2+z
1/2-x,1/2-y,1/2+z
1/2+x,1/2-y,-z
1/2-x,1/2+y,-z
1/2-x,1/2-y,1/2-z
1/2+x,1/2+y,1/2-z
1/2-x,1/2+y,z
1/2+x,1/2-y,z
loop_
_atom_site_type_symbol
_atom_site_label
_atom_site_fract_x
_atom_site_fract_y
_atom_site_fract_z
Si Si1 0.452616 0.791806 0.854698
Si Si2 0.126033 0.181496 0.598933
Si Si3 0.438050 0.139638 0.151514
Si Si4 0.726854 0.791173 0.891353
Si Si5 0.660632 0.974928 0.891538
Si Si6 0.828351 0.682186 0.896943
Si Si7 0.515724 0.599612 0.147988
O O1 0.499547 0.867134 0.880741
O O2 0.442561 0.813337 0.749653
O O3 0.392277 0.794730 0.892703
O O4 0.481792 0.692630 0.880331
O O5 0.134939 0.145122 0.500000
O O6 0.095403 0.282670 0.596302
O O7 0.184413 0.209343 0.638329
O O8 0.080664 0.116018 0.642522
O O9 0.399567 0.049505 0.146225
O O10 0.702325 0.891987 0.864666
O O11 0.787006 0.760752 0.860812
O O12 0.724588 0.793588 0.000000
O O13 0.678473 0.077506 0.858740
O O14 0.656655 0.976174 0.000000
O O15 0.813293 0.673896 0.000000
O O16 0.500000 0.500000 0.105208
O O17 0.500000 0.594462 0.250000
#
# Coordination Sequence:
#
# PCOD9526089 Si02
#       7
#    16  16  16  16  16  16  16
#     4  10  19  34  53  77 108 145 176 222 282 316
#     4   9  16  31  56  79 101 140 185 220 260 317
#     4   9  17  33  54  76 105 138 177 215 270 332
#     4   8  16  34  55  74 104 143 181 226 272 322
#     4   9  18  34  56  77 103 144 183 221 278 332
#     4  10  21  35  53  80 112 141 180 232 278 320
#     4  10  19  35  56  77 112 148 177 219 275 331
#
# _framework density 21.378129999999999
#
# number of rings (size 3 to 8) (size 9 to 14) (size 15 to 20)
#    0.000    2.714    2.857    1.286    0.000    4.286 
#    2.571    5.714    0.000    0.000    0.000    0.000 
#    0.000    0.000    0.000    0.000    0.000    0.000 
#
# Total GULP energy -311828.118632 kJ/mol
# GULP energy per Si atom -5568.359261 kJ/mol
# Density = 2.132947 g / cm^3
# Si number density = 21.378130 Si / 1000 Ang^3
#
#
#
# Elastic Constant Matrix: (Units=GPa)
#
#
# Indices 1 2 3 4 5 6 
#
# 1 137.3232 47.9025 -2.4225 0.0000 0.0000 0.0000
# 2 47.9025 83.9831 1.2033 0.0000 0.0000 0.0000
# 3 -2.4225 1.2033 42.9119 0.0000 0.0000 0.0000
# 4 0.0000 0.0000 0.0000 3.5850 0.0000 0.0000
# 5 0.0000 0.0000 0.0000 0.0000 24.3929 0.0000
# 6 0.0000 0.0000 0.0000 0.0000 0.0000 5.7777
#
#
#
# Elastic Compliance Matrix: (Units=1/GPa)
#
#
# Indices 1 2 3 4 5 6 
#
# 1 0.009110 -0.005205 0.000660 0.000000 0.000000 0.000000
# 2 -0.005205 0.014886 -0.000711 0.000000 0.000000 0.000000
# 3 0.000660 -0.000711 0.023361 0.000000 0.000000 0.000000
# 4 0.000000 0.000000 0.000000 0.278938 0.000000 0.000000
# 5 0.000000 0.000000 0.000000 0.000000 0.040996 0.000000
# 6 0.000000 0.000000 0.000000 0.000000 0.000000 0.173078
#
#
# Mechanical properties :
#
#
# Convention : Reuss Voigt Hill
#
# Bulk Modulus (GPa) = 27.14157 39.73163 33.43660
# Shear Modulus (GPa) = 8.87842 21.25345 15.06594
#
# Velocity S-wave (km/s) = 2.04011 3.15646 2.65757
# Velocity P-wave (km/s) = 4.27468 5.64888 5.00913
#
# Compressibility (1/GPa) = 0.03684385
#
# Stress axis : x y z
#
# Youngs Moduli (GPa) = 109.77511 67.17535 42.80676
#
# Poissons Ratio (x) = 0.34967 -0.02826
# Poissons Ratio (y) = 0.57142 0.03045
# Poissons Ratio (z) = -0.07248 0.04778
#
# Static dielectric constant tensor:
#      x y z
#    x 1.796240 0.000000 0.000000 
#    y 0.000000 1.822160 0.000000 
#    z 0.000000 0.000000 1.819840 
# 
# From -- ./inp_files/25227.got.cif
#   From: 2010.05.17/outbox.cif.g08.bks.cpg/sg72_13_cif.got.tgz:25227.got - 2010.06.03 17:03:01.
