data_PCOD9526980
_publ_section_title
;
Structure prediction by ZEFSAII (Michael W. Deem and Ramdas Pophale) SiO2 
 PCOD9526980
Probable space group: I B A M
;
_chemical_formula_sum "Si O2"
_cell_formula_units_Z 88
_cell_length_a 23.903116
_cell_length_b 8.188449
_cell_length_c 21.033004
_cell_angle_alpha 90.000000
_cell_angle_beta 90.000000
_cell_angle_gamma 90.000000
_cell_volume 4116.778227
_symmetry_space_group_name_H-M "I B A M"
_symmetry_group_IT_number 72
_symmetry_cell_setting 'orthorhombic'
loop_
_space_group_symop_operation_xyz
x,y,z
-x,-y,z
x,-y,1/2-z
-x,y,1/2-z
-x,-y,-z
x,y,-z
-x,y,1/2+z
x,-y,1/2+z
1/2+x,1/2+y,1/2+z
1/2-x,1/2-y,1/2+z
1/2+x,1/2-y,-z
1/2-x,1/2+y,-z
1/2-x,1/2-y,1/2-z
1/2+x,1/2+y,1/2-z
1/2-x,1/2+y,z
1/2+x,1/2-y,z
loop_
_atom_site_type_symbol
_atom_site_label
_atom_site_fract_x
_atom_site_fract_y
_atom_site_fract_z
Si Si1 0.690308 0.623861 0.500000
Si Si2 0.500000 0.500000 0.895524
Si Si3 0.810658 0.519281 0.363176
Si Si4 0.312712 0.193816 0.000000
Si Si5 0.926364 0.150019 0.703414
Si Si6 0.590169 0.540071 0.000000
Si Si7 0.306067 0.365551 0.360224
Si Si8 0.602851 0.000000 0.750000
O O1 0.754163 0.239337 0.500000
O O2 0.622122 0.637914 0.500000
O O3 0.695609 0.547658 0.429226
O O4 0.528268 0.362487 0.852298
O O5 0.550278 0.560039 0.939842
O O6 0.819885 0.598622 0.432720
O O7 0.753103 0.584033 0.331359
O O8 0.805268 0.326628 0.373338
O O9 0.859273 0.543332 0.311685
O O10 0.360636 0.328772 0.000000
O O11 0.863618 0.110054 0.676940
O O12 0.927507 0.330386 0.733016
O O13 0.938241 0.000000 0.750000
#
# Coordination Sequence:
#
# PCOD9526980 Si02
#       8
#     8   8  16   8  16   8  16   8
#     4  10  20  35  64  97 135 170 219 290 360 423
#     4  11  25  48  74 104 133 195 252 306 364 419
#     4  10  23  38  63 103 142 188 228 295 374 435
#     4  10  24  37  69  99 140 178 230 291 370 436
#     4  11  25  44  72  99 137 193 244 299 355 430
#     4  11  24  44  75 108 139 179 246 304 359 448
#     4  10  22  36  64  97 141 180 236 291 361 442
#     4  10  26  44  69 108 148 187 246 306 368 444
#
# _framework density 21.375938000000001
#
# number of rings (size 3 to 8) (size 9 to 14) (size 15 to 20)
#    0.000    1.636    1.818    0.818   16.545    1.455 
#    0.000    1.818    0.000    4.364    0.000    0.000 
#    0.000    0.000    0.000    0.000    0.000    0.000 
#
# Total GULP energy -245110.713276 kJ/mol
# GULP energy per Si atom -5570.698029 kJ/mol
# Density = 2.132729 g / cm^3
# Si number density = 21.375938 Si / 1000 Ang^3
#
#
#
# Elastic Constant Matrix: (Units=GPa)
#
#
# Indices 1 2 3 4 5 6 
#
# 1 147.8384 82.9343 63.6691 0.0000 0.0000 0.0000
# 2 82.9343 104.5220 65.9726 0.0000 0.0000 0.0000
# 3 63.6691 65.9726 115.5396 0.0000 0.0000 0.0000
# 4 0.0000 0.0000 0.0000 18.7764 0.0000 0.0000
# 5 0.0000 0.0000 0.0000 0.0000 9.9686 0.0000
# 6 0.0000 0.0000 0.0000 0.0000 0.0000 18.8857
#
#
#
# Elastic Compliance Matrix: (Units=1/GPa)
#
#
# Indices 1 2 3 4 5 6 
#
# 1 0.012454 -0.008677 -0.001908 0.000000 0.000000 0.000000
# 2 -0.008677 0.021004 -0.007212 0.000000 0.000000 0.000000
# 3 -0.001908 -0.007212 0.013824 0.000000 0.000000 0.000000
# 4 0.000000 0.000000 0.000000 0.053258 0.000000 0.000000
# 5 0.000000 0.000000 0.000000 0.000000 0.100315 0.000000
# 6 0.000000 0.000000 0.000000 0.000000 0.000000 0.052950
#
#
# Mechanical properties :
#
#
# Convention : Reuss Voigt Hill
#
# Bulk Modulus (GPa) = 85.55505 88.11687 86.83596
# Shear Modulus (GPa) = 17.04767 19.88108 18.46438
#
# Velocity S-wave (km/s) = 2.82710 3.05301 2.94222
# Velocity P-wave (km/s) = 7.12513 7.33074 7.22867
#
# Compressibility (1/GPa) = 0.01168838
#
# Stress axis : x y z
#
# Youngs Moduli (GPa) = 80.29845 47.60952 72.33605
#
# Poissons Ratio (x) = 0.41311 0.13802
# Poissons Ratio (y) = 0.69676 0.52167
# Poissons Ratio (z) = 0.15321 0.34335
#
# Static dielectric constant tensor:
#      x y z
#    x 1.808000 0.000000 0.000000 
#    y 0.000000 1.880190 0.000000 
#    z 0.000000 0.000000 1.415200 
# 
# From -- ./inp_files/40218.got.cif
#   From: 2010.05.17/outbox.cif.g08.bks.cpg/sg72_21_cif.got.tgz:40218.got - 2010.06.03 17:03:01.
