data_PCOD9526736
_publ_section_title
;
Structure prediction by ZEFSAII (Michael W. Deem and Ramdas Pophale) SiO2 
 PCOD9526736
Probable space group: I B A M
;
_chemical_formula_sum "Si O2"
_cell_formula_units_Z 104
_cell_length_a 21.246938
_cell_length_b 25.975415
_cell_length_c 9.207846
_cell_angle_alpha 90.000000
_cell_angle_beta 90.000000
_cell_angle_gamma 90.000000
_cell_volume 5081.792087
_symmetry_space_group_name_H-M "I B A M"
_symmetry_group_IT_number 72
_symmetry_cell_setting 'orthorhombic'
loop_
_space_group_symop_operation_xyz
x,y,z
-x,-y,z
x,-y,1/2-z
-x,y,1/2-z
-x,-y,-z
x,y,-z
-x,y,1/2+z
x,-y,1/2+z
1/2+x,1/2+y,1/2+z
1/2-x,1/2-y,1/2+z
1/2+x,1/2-y,-z
1/2-x,1/2+y,-z
1/2-x,1/2-y,1/2-z
1/2+x,1/2+y,1/2-z
1/2-x,1/2+y,z
1/2+x,1/2-y,z
loop_
_atom_site_type_symbol
_atom_site_label
_atom_site_fract_x
_atom_site_fract_y
_atom_site_fract_z
Si Si1 0.117798 0.205841 0.335545
Si Si2 0.407026 0.550175 0.164403
Si Si3 0.933295 0.583666 0.828396
Si Si4 0.000000 0.135912 0.750000
Si Si5 0.307909 0.948291 0.674377
Si Si6 0.203367 0.890318 0.173190
Si Si7 0.065124 0.705622 0.333286
O O1 0.122048 0.224262 0.500000
O O2 0.053063 0.172415 0.320560
O O3 0.174482 0.166478 0.306171
O O4 0.114630 0.254738 0.232085
O O5 0.429960 0.500000 0.250000
O O6 0.458609 0.595653 0.157542
O O7 0.349106 0.572162 0.257902
O O8 0.388079 0.536997 0.000000
O O9 0.878073 0.557850 0.736817
O O10 0.920395 0.645193 0.821924
O O11 0.000000 0.573970 0.750000
O O12 0.933930 0.568980 0.000000
O O13 0.306187 0.950966 0.500000
O O14 0.266492 0.901856 0.738838
O O15 0.281504 0.000000 0.750000
O O16 0.211135 0.898979 0.000000
O O17 0.054980 0.718503 0.500000
O O18 0.000000 0.713829 0.250000
#
# Coordination Sequence:
#
# PCOD9526736 Si02
#       7
#    16  16  16   8  16  16  16
#     4  10  20  34  55  83 116 155 202 253 301 350
#     4  11  22  35  51  73 106 149 199 252 307 359
#     4  10  22  42  66  97 130 159 194 240 292 354
#     4  10  21  32  50  76 108 148 197 252 302 352
#     4  12  25  43  68  94 121 158 198 242 297 360
#     4  10  22  40  59  83 116 155 201 252 299 351
#     4  10  20  34  58  88 123 162 200 244 298 355
#
# _framework density 20.465221
#
# number of rings (size 3 to 8) (size 9 to 14) (size 15 to 20)
#    0.000    1.538    0.769    4.385    0.000    7.692 
#    0.000    2.308    0.000    0.000    0.000    0.000 
#    0.000    0.000    0.000    0.000    0.000    0.000 
#
# Total GULP energy -290441.901968 kJ/mol
# GULP energy per Si atom -5585.421192 kJ/mol
# Density = 2.041864 g / cm^3
# Si number density = 20.465221 Si / 1000 Ang^3
#
#
#
# Elastic Constant Matrix: (Units=GPa)
#
#
# Indices 1 2 3 4 5 6 
#
# 1 87.0942 9.6723 41.2288 0.0000 0.0000 0.0000
# 2 9.6723 34.0757 41.5213 0.0000 0.0000 0.0000
# 3 41.2288 41.5213 170.7743 0.0000 0.0000 0.0000
# 4 0.0000 0.0000 0.0000 24.9597 0.0000 0.0000
# 5 0.0000 0.0000 0.0000 0.0000 17.8946 0.0000
# 6 0.0000 0.0000 0.0000 0.0000 0.0000 15.7713
#
#
#
# Elastic Compliance Matrix: (Units=1/GPa)
#
#
# Indices 1 2 3 4 5 6 
#
# 1 0.012964 0.000190 -0.003176 0.000000 0.000000 0.000000
# 2 0.000190 0.041704 -0.010186 0.000000 0.000000 0.000000
# 3 -0.003176 -0.010186 0.009099 0.000000 0.000000 0.000000
# 4 0.000000 0.000000 0.000000 0.040065 0.000000 0.000000
# 5 0.000000 0.000000 0.000000 0.000000 0.055883 0.000000
# 6 0.000000 0.000000 0.000000 0.000000 0.000000 0.063406
#
#
# Mechanical properties :
#
#
# Convention : Reuss Voigt Hill
#
# Bulk Modulus (GPa) = 26.72087 52.97653 39.84870
# Shear Modulus (GPa) = 19.08848 25.02656 22.05752
#
# Velocity S-wave (km/s) = 3.05737 3.50077 3.28656
# Velocity P-wave (km/s) = 5.05455 6.50252 5.82371
#
# Compressibility (1/GPa) = 0.03742393
#
# Stress axis : x y z
#
# Youngs Moduli (GPa) = 77.13548 23.97873 109.90286
#
# Poissons Ratio (x) = -0.00456 0.34906
# Poissons Ratio (y) = -0.01468 1.11942
# Poissons Ratio (z) = 0.24499 0.24424
#
# Static dielectric constant tensor:
#      x y z
#    x 1.748400 0.000000 0.000000 
#    y 0.000000 1.759310 0.000000 
#    z 0.000000 0.000000 1.690210 
# 
# From -- ./inp_files/6139.got.cif
#   From: 2010.05.17/outbox.cif.g08.bks.cpg/sg72_4_cif.got.tgz:6139.got - 2010.06.03 17:03:01.
