data_PCOD9526746
_publ_section_title
;
Structure prediction by ZEFSAII (Michael W. Deem and Ramdas Pophale) SiO2 
 PCOD9526746
Probable space group: I B A M
;
_chemical_formula_sum "Si O2"
_cell_formula_units_Z 96
_cell_length_a 23.710591
_cell_length_b 12.331237
_cell_length_c 15.029389
_cell_angle_alpha 90.000000
_cell_angle_beta 90.000000
_cell_angle_gamma 90.000000
_cell_volume 4394.306538
_symmetry_space_group_name_H-M "I B A M"
_symmetry_group_IT_number 72
_symmetry_cell_setting 'orthorhombic'
loop_
_space_group_symop_operation_xyz
x,y,z
-x,-y,z
x,-y,1/2-z
-x,y,1/2-z
-x,-y,-z
x,y,-z
-x,y,1/2+z
x,-y,1/2+z
1/2+x,1/2+y,1/2+z
1/2-x,1/2-y,1/2+z
1/2+x,1/2-y,-z
1/2-x,1/2+y,-z
1/2-x,1/2-y,1/2-z
1/2+x,1/2+y,1/2-z
1/2-x,1/2+y,z
1/2+x,1/2-y,z
loop_
_atom_site_type_symbol
_atom_site_label
_atom_site_fract_x
_atom_site_fract_y
_atom_site_fract_z
Si Si1 0.634168 0.994022 0.643088
Si Si2 0.428356 0.784452 0.152574
Si Si3 0.146648 0.089132 0.891486
Si Si4 0.945011 0.313058 0.864368
Si Si5 0.268842 0.844185 0.394477
Si Si6 0.847056 0.845676 0.397912
O O1 0.585099 0.074812 0.609069
O O2 0.693202 0.047518 0.615612
O O3 0.634129 0.000000 0.750000
O O4 0.617310 0.872175 0.618071
O O5 0.404001 0.664946 0.140077
O O6 0.438137 0.806285 0.257287
O O7 0.489873 0.803245 0.110925
O O8 0.206062 0.139678 0.860324
O O9 0.146259 0.964943 0.859077
O O10 0.144824 0.089704 0.000000
O O11 0.906629 0.215671 0.899203
O O12 0.264226 0.826699 0.500000
O O13 0.303537 0.741523 0.356365
O O14 0.828429 0.862881 0.500000
#
# Coordination Sequence:
#
# PCOD9526746 Si02
#       6
#    16  16  16  16  16  16
#     4   9  18  35  56  84 108 140 178 223 275 319
#     4  10  20  34  56  82 109 141 180 224 268 321
#     4  10  22  36  53  80 108 142 182 222 267 320
#     4   9  19  37  56  78 109 143 179 222 272 319
#     4   9  19  36  56  76 107 146 181 221 270 321
#     4   9  19  37  55  73 105 144 179 220 273 322
#
# _framework density 21.846449
#
# number of rings (size 3 to 8) (size 9 to 14) (size 15 to 20)
#    0.000    2.667    0.000    0.500    2.333    4.667 
#    3.000    5.833    0.000    5.000    0.000    0.000 
#    0.000    0.000    0.000    0.000    0.000    0.000 
#
# Total GULP energy -267930.101270 kJ/mol
# GULP energy per Si atom -5581.877110 kJ/mol
# Density = 2.179673 g / cm^3
# Si number density = 21.846449 Si / 1000 Ang^3
#
#
#
# Elastic Constant Matrix: (Units=GPa)
#
#
# Indices 1 2 3 4 5 6 
#
# 1 51.5340 -0.0203 -6.0162 0.0000 0.0000 0.0000
# 2 -0.0203 98.2734 0.6673 0.0000 0.0000 0.0000
# 3 -6.0162 0.6673 39.3707 0.0000 0.0000 0.0000
# 4 0.0000 0.0000 0.0000 19.5863 0.0000 0.0000
# 5 0.0000 0.0000 0.0000 0.0000 15.7098 0.0000
# 6 0.0000 0.0000 0.0000 0.0000 0.0000 4.2581
#
#
#
# Elastic Compliance Matrix: (Units=1/GPa)
#
#
# Indices 1 2 3 4 5 6 
#
# 1 0.019757 -0.000016 0.003019 0.000000 0.000000 0.000000
# 2 -0.000016 0.010177 -0.000175 0.000000 0.000000 0.000000
# 3 0.003019 -0.000175 0.025864 0.000000 0.000000 0.000000
# 4 0.000000 0.000000 0.000000 0.051056 0.000000 0.000000
# 5 0.000000 0.000000 0.000000 0.000000 0.063654 0.000000
# 6 0.000000 0.000000 0.000000 0.000000 0.000000 0.234845
#
#
# Mechanical properties :
#
#
# Convention : Reuss Voigt Hill
#
# Bulk Modulus (GPa) = 16.27237 19.82662 18.04950
# Shear Modulus (GPa) = 11.89961 20.88067 16.39014
#
# Velocity S-wave (km/s) = 2.33640 3.09494 2.74203
# Velocity P-wave (km/s) = 3.83967 4.67619 4.27842
#
# Compressibility (1/GPa) = 0.06145386
#
# Stress axis : x y z
#
# Youngs Moduli (GPa) = 50.61455 98.26193 38.66386
#
# Poissons Ratio (x) = 0.00161 -0.11674
# Poissons Ratio (y) = 0.00083 0.00677
# Poissons Ratio (z) = -0.15282 0.01719
#
# Static dielectric constant tensor:
#      x y z
#    x 1.767140 0.000000 0.000000 
#    y 0.000000 1.792490 0.000000 
#    z 0.000000 0.000000 1.864030 
# 
# From -- ./inp_files/29450.got.cif
#   From: 2010.05.17/outbox.cif.g08.bks.cpg/sg72_15_cif.got.tgz:29450.got - 2010.06.03 17:03:01.
