data_PCOD9526350
_publ_section_title
;
Structure prediction by ZEFSAII (Michael W. Deem and Ramdas Pophale) SiO2 
 PCOD9526350
Probable space group: I B A M
;
_chemical_formula_sum "Si O2"
_cell_formula_units_Z 96
_cell_length_a 28.588427
_cell_length_b 9.751677
_cell_length_c 14.982454
_cell_angle_alpha 90.000000
_cell_angle_beta 90.000000
_cell_angle_gamma 90.000000
_cell_volume 4176.885027
_symmetry_space_group_name_H-M "I B A M"
_symmetry_group_IT_number 72
_symmetry_cell_setting 'orthorhombic'
loop_
_space_group_symop_operation_xyz
x,y,z
-x,-y,z
x,-y,1/2-z
-x,y,1/2-z
-x,-y,-z
x,y,-z
-x,y,1/2+z
x,-y,1/2+z
1/2+x,1/2+y,1/2+z
1/2-x,1/2-y,1/2+z
1/2+x,1/2-y,-z
1/2-x,1/2+y,-z
1/2-x,1/2-y,1/2-z
1/2+x,1/2+y,1/2-z
1/2-x,1/2+y,z
1/2+x,1/2-y,z
loop_
_atom_site_type_symbol
_atom_site_label
_atom_site_fract_x
_atom_site_fract_y
_atom_site_fract_z
Si Si1 0.776674 0.687506 0.899236
Si Si2 0.304239 0.512594 0.109984
Si Si3 0.882858 0.815384 0.393167
Si Si4 0.044725 0.593371 0.607831
Si Si5 0.645962 0.985459 0.150513
Si Si6 0.988189 0.153179 0.109172
O O1 0.735039 0.596170 0.859855
O O2 0.792001 0.833594 0.859174
O O3 0.820938 0.586140 0.904105
O O4 0.760535 0.720638 0.000000
O O5 0.353668 0.447246 0.138303
O O6 0.304614 0.516432 0.000000
O O7 0.886433 0.827821 0.500000
O O8 0.855787 0.673516 0.375628
O O9 0.936176 0.806670 0.359845
O O10 0.050296 0.588880 0.500000
O O11 0.093000 0.540507 0.646325
O O12 0.000000 0.500000 0.629533
O O13 0.028779 0.743468 0.637499
O O14 0.664250 0.000000 0.250000
O O15 0.987879 0.160220 0.000000
O O16 0.000000 0.000000 0.135557
#
# Coordination Sequence:
#
# PCOD9526350 Si02
#       6
#    16  16  16  16  16  16
#     4  10  20  38  62  90 116 150 194 244 296 350
#     4   9  19  35  64  95 117 144 192 249 300 344
#     4  10  19  37  60  86 117 150 189 243 295 344
#     4  10  19  36  60  85 110 148 194 240 292 344
#     4  12  25  38  55  83 120 159 202 236 288 343
#     4   9  18  31  55  88 116 141 181 236 295 349
#
# _framework density 22.983635
#
# number of rings (size 3 to 8) (size 9 to 14) (size 15 to 20)
#    0.000    2.000    1.667    2.500    2.333    3.000 
#    0.000    4.167    0.000    1.000    0.000    0.000 
#    0.000    0.000    0.000    0.000    0.000    0.000 
#
# Total GULP energy -268216.257339 kJ/mol
# GULP energy per Si atom -5587.838695 kJ/mol
# Density = 2.293132 g / cm^3
# Si number density = 22.983635 Si / 1000 Ang^3
#
#
#
# Elastic Constant Matrix: (Units=GPa)
#
#
# Indices 1 2 3 4 5 6 
#
# 1 51.6118 2.7183 7.2819 0.0000 0.0000 0.0000
# 2 2.7183 127.6765 4.7838 0.0000 0.0000 0.0000
# 3 7.2819 4.7838 45.4233 0.0000 0.0000 0.0000
# 4 0.0000 0.0000 0.0000 -18.0084 0.0000 0.0000
# 5 0.0000 0.0000 0.0000 0.0000 -28.7824 0.0000
# 6 0.0000 0.0000 0.0000 0.0000 0.0000 41.0340
#
#
#
# Elastic Compliance Matrix: (Units=1/GPa)
#
#
# Indices 1 2 3 4 5 6 
#
# 1 0.019836 -0.000304 -0.003148 0.000000 0.000000 0.000000
# 2 -0.000304 0.007868 -0.000780 0.000000 0.000000 0.000000
# 3 -0.003148 -0.000780 0.022602 0.000000 0.000000 0.000000
# 4 0.000000 0.000000 0.000000 -0.055530 0.000000 0.000000
# 5 0.000000 0.000000 0.000000 0.000000 -0.034743 0.000000
# 6 0.000000 0.000000 0.000000 0.000000 0.000000 0.024370
#
#
# Mechanical properties :
#
#
# Convention : Reuss Voigt Hill
#
# Bulk Modulus (GPa) = 23.89976 28.25329 26.07652
# Shear Modulus (GPa) = 733.81619 12.84381 373.33000
#
# Velocity S-wave (km/s) = 17.88773 2.36651 12.75875
# Velocity P-wave (km/s) = 20.90572 4.44822 15.11350
#
# Compressibility (1/GPa) = 0.04184143
#
# Stress axis : x y z
#
# Youngs Moduli (GPa) = 50.41450 127.09721 44.24405
#
# Poissons Ratio (x) = 0.03868 0.13927
# Poissons Ratio (y) = 0.01534 0.03450
# Poissons Ratio (z) = 0.15870 0.09911
#
# Static dielectric constant tensor:
#      x y z
#    x 1.833090 0.000000 0.000000 
#    y 0.000000 1.545930 0.000000 
#    z 0.000000 0.000000 2.058620 
# 
# From -- ./inp_files/40678.got.cif
#   From: 2010.05.17/outbox.cif.g08.bks.cpg/sg72_21_cif.got.tgz:40678.got - 2010.06.03 17:03:01.
