data_PCOD9526977
_publ_section_title
;
Structure prediction by ZEFSAII (Michael W. Deem and Ramdas Pophale) SiO2 
 PCOD9526977
Probable space group: I B A M
;
_chemical_formula_sum "Si O2"
_cell_formula_units_Z 48
_cell_length_a 24.842418
_cell_length_b 8.426726
_cell_length_c 10.592712
_cell_angle_alpha 90.000000
_cell_angle_beta 90.000000
_cell_angle_gamma 90.000000
_cell_volume 2217.480975
_symmetry_space_group_name_H-M "I B A M"
_symmetry_group_IT_number 72
_symmetry_cell_setting 'orthorhombic'
loop_
_space_group_symop_operation_xyz
x,y,z
-x,-y,z
x,-y,1/2-z
-x,y,1/2-z
-x,-y,-z
x,y,-z
-x,y,1/2+z
x,-y,1/2+z
1/2+x,1/2+y,1/2+z
1/2-x,1/2-y,1/2+z
1/2+x,1/2-y,-z
1/2-x,1/2+y,-z
1/2-x,1/2-y,1/2-z
1/2+x,1/2+y,1/2-z
1/2-x,1/2+y,z
1/2+x,1/2-y,z
loop_
_atom_site_type_symbol
_atom_site_label
_atom_site_fract_x
_atom_site_fract_y
_atom_site_fract_z
Si Si1 0.849966 0.324768 0.228250
Si Si2 0.709682 0.649955 0.000000
Si Si3 0.673837 0.287104 0.000000
Si Si4 0.528682 0.826318 0.864751
O O1 0.826300 0.500000 0.250000
O O2 0.814528 0.229586 0.127061
O O3 0.855550 0.247409 0.367175
O O4 0.908768 0.345846 0.166519
O O5 0.773295 0.676682 0.000000
O O6 0.693675 0.467157 0.000000
O O7 0.500000 0.739268 0.750000
O O8 0.500000 0.000000 0.872447
O O9 0.522152 0.748015 0.000000
#
# Coordination Sequence:
#
# PCOD9526977 Si02
#       4
#    16   8   8  16
#     4  12  23  41  72 107 134 181 235 288 350 408
#     4  12  26  50  64 101 143 183 241 292 352 427
#     4  12  28  44  72  95 143 187 233 296 360 413
#     4  10  20  35  63 104 139 168 228 289 326 402
#
# _framework density 21.646184000000002
#
# number of rings (size 3 to 8) (size 9 to 14) (size 15 to 20)
#    0.000    0.667    5.000    5.000    2.333    0.000 
#    0.000    0.000    0.000    6.000    0.000    0.000 
#    0.000    0.000    0.000    0.000    0.000    0.000 
#
# Total GULP energy -134134.793818 kJ/mol
# GULP energy per Si atom -5588.949742 kJ/mol
# Density = 2.159692 g / cm^3
# Si number density = 21.646184 Si / 1000 Ang^3
#
#
#
# Elastic Constant Matrix: (Units=GPa)
#
#
# Indices 1 2 3 4 5 6 
#
# 1 68.7893 -15.5204 22.5499 0.0000 0.0000 0.0000
# 2 -15.5204 87.7460 26.6061 0.0000 0.0000 0.0000
# 3 22.5499 26.6061 222.7470 0.0000 0.0000 0.0000
# 4 0.0000 0.0000 0.0000 20.6851 0.0000 0.0000
# 5 0.0000 0.0000 0.0000 0.0000 37.4138 0.0000
# 6 0.0000 0.0000 0.0000 0.0000 0.0000 11.0878
#
#
#
# Elastic Compliance Matrix: (Units=1/GPa)
#
#
# Indices 1 2 3 4 5 6 
#
# 1 0.015979 0.003441 -0.002029 0.000000 0.000000 0.000000
# 2 0.003441 0.012566 -0.001849 0.000000 0.000000 0.000000
# 3 -0.002029 -0.001849 0.004916 0.000000 0.000000 0.000000
# 4 0.000000 0.000000 0.000000 0.048344 0.000000 0.000000
# 5 0.000000 0.000000 0.000000 0.000000 0.026728 0.000000
# 6 0.000000 0.000000 0.000000 0.000000 0.000000 0.090189
#
#
# Mechanical properties :
#
#
# Convention : Reuss Voigt Hill
#
# Bulk Modulus (GPa) = 30.68700 49.61707 40.15203
# Shear Modulus (GPa) = 23.75782 36.88045 30.31914
#
# Velocity S-wave (km/s) = 3.31653 4.13217 3.74661
# Velocity P-wave (km/s) = 5.37338 6.76299 6.10783
#
# Compressibility (1/GPa) = 0.03258709
#
# Stress axis : x y z
#
# Youngs Moduli (GPa) = 62.58357 79.57984 203.43122
#
# Poissons Ratio (x) = -0.27387 0.41269
# Poissons Ratio (y) = -0.21538 0.37621
# Poissons Ratio (z) = 0.12696 0.14717
#
# Static dielectric constant tensor:
#      x y z
#    x 1.780930 0.000000 0.000000 
#    y 0.000000 1.771080 0.000000 
#    z 0.000000 0.000000 1.860310 
# 
# From -- ./inp_files/10232.got.cif
#   From: 2010.05.17/outbox.cif.g08.bks.cpg/sg72_6_cif.got.tgz:10232.got - 2010.06.03 17:03:01.
