data_PCOD9526588
_publ_section_title
;
Structure prediction by ZEFSAII (Michael W. Deem and Ramdas Pophale) SiO2 
 PCOD9526588
Probable space group: I B A M
;
_chemical_formula_sum "Si O2"
_cell_formula_units_Z 56
_cell_length_a 18.426717
_cell_length_b 14.609777
_cell_length_c 11.422750
_cell_angle_alpha 90.000000
_cell_angle_beta 90.000000
_cell_angle_gamma 90.000000
_cell_volume 3075.121111
_symmetry_space_group_name_H-M "I B A M"
_symmetry_group_IT_number 72
_symmetry_cell_setting 'orthorhombic'
loop_
_space_group_symop_operation_xyz
x,y,z
-x,-y,z
x,-y,1/2-z
-x,y,1/2-z
-x,-y,-z
x,y,-z
-x,y,1/2+z
x,-y,1/2+z
1/2+x,1/2+y,1/2+z
1/2-x,1/2-y,1/2+z
1/2+x,1/2-y,-z
1/2-x,1/2+y,-z
1/2-x,1/2-y,1/2-z
1/2+x,1/2+y,1/2-z
1/2-x,1/2+y,z
1/2+x,1/2-y,z
loop_
_atom_site_type_symbol
_atom_site_label
_atom_site_fract_x
_atom_site_fract_y
_atom_site_fract_z
Si Si1 0.764727 0.894842 0.725021
Si Si2 0.909223 0.944474 0.626662
Si Si3 0.000000 0.802834 0.250000
Si Si4 0.351557 0.248867 0.637714
O O1 0.829586 0.899823 0.630673
O O2 0.697613 0.834480 0.683873
O O3 0.805406 0.840755 0.830432
O O4 0.744725 0.000000 0.750000
O O5 0.917682 0.990958 0.500000
O O6 0.970067 0.867832 0.646117
O O7 0.912130 0.000000 0.750000
O O8 0.070937 0.751553 0.297147
O O9 0.362130 0.242762 0.500000
#
# Coordination Sequence:
#
# PCOD9526588 Si02
#       4
#    16  16   8  16
#     4   9  20  36  57  83 108 138 182 230 275 327
#     4  10  20  33  52  79 108 140 179 225 279 334
#     4  10  21  32  49  76 110 144 180 220 266 328
#     4  10  20  36  57  80 109 145 182 225 276 328
#
# _framework density 18.210663
#
# number of rings (size 3 to 8) (size 9 to 14) (size 15 to 20)
#    0.000    2.286    0.000    2.143    0.000   14.857 
#    0.000    2.143    0.000    1.714    0.000    0.000 
#    0.000    0.000    0.000    0.000    0.000    0.000 
#
# Total GULP energy -155991.957163 kJ/mol
# GULP energy per Si atom -5571.141327 kJ/mol
# Density = 1.816922 g / cm^3
# Si number density = 18.210663 Si / 1000 Ang^3
#
#
#
# Elastic Constant Matrix: (Units=GPa)
#
#
# Indices 1 2 3 4 5 6 
#
# 1 160.2311 67.2363 63.7015 0.0000 0.0000 0.0000
# 2 67.2363 108.8323 32.8133 0.0000 0.0000 0.0000
# 3 63.7015 32.8133 130.3645 0.0000 0.0000 0.0000
# 4 0.0000 0.0000 0.0000 12.1362 0.0000 0.0000
# 5 0.0000 0.0000 0.0000 0.0000 4.4813 0.0000
# 6 0.0000 0.0000 0.0000 0.0000 0.0000 40.0895
#
#
#
# Elastic Compliance Matrix: (Units=1/GPa)
#
#
# Indices 1 2 3 4 5 6 
#
# 1 0.009705 -0.004941 -0.003499 0.000000 0.000000 0.000000
# 2 -0.004941 0.012459 -0.000721 0.000000 0.000000 0.000000
# 3 -0.003499 -0.000721 0.009562 0.000000 0.000000 0.000000
# 4 0.000000 0.000000 0.000000 0.082398 0.000000 0.000000
# 5 0.000000 0.000000 0.000000 0.000000 0.223149 0.000000
# 6 0.000000 0.000000 0.000000 0.000000 0.000000 0.024944
#
#
# Mechanical properties :
#
#
# Convention : Reuss Voigt Hill
#
# Bulk Modulus (GPa) = 74.60804 80.77001 77.68903
# Shear Modulus (GPa) = 12.98675 27.05319 20.01997
#
# Velocity S-wave (km/s) = 2.67336 3.85849 3.31925
# Velocity P-wave (km/s) = 7.11249 8.01873 7.57917
#
# Compressibility (1/GPa) = 0.01340338
#
# Stress axis : x y z
#
# Youngs Moduli (GPa) = 103.03649 80.26631 104.58030
#
# Poissons Ratio (x) = 0.39660 0.36590
# Poissons Ratio (y) = 0.50911 0.07545
# Poissons Ratio (z) = 0.36050 0.05791
#
# Static dielectric constant tensor:
#      x y z
#    x 1.636310 0.000000 0.000000 
#    y 0.000000 1.660440 0.000000 
#    z 0.000000 0.000000 1.643060 
# 
# From -- ./inp_files/12120.got.cif
#   From: 2010.05.17/outbox.cif.g08.bks.cpg/sg72_7_cif.got.tgz:12120.got - 2010.06.03 17:03:01.
