data_PCOD9526818
_publ_section_title
;
Structure prediction by ZEFSAII (Michael W. Deem and Ramdas Pophale) SiO2 
 PCOD9526818
Probable space group: I B A M
;
_chemical_formula_sum "Si O2"
_cell_formula_units_Z 120
_cell_length_a 32.336767
_cell_length_b 23.076529
_cell_length_c 9.457614
_cell_angle_alpha 90.000000
_cell_angle_beta 90.000000
_cell_angle_gamma 90.000000
_cell_volume 7057.463948
_symmetry_space_group_name_H-M "I B A M"
_symmetry_group_IT_number 72
_symmetry_cell_setting 'orthorhombic'
loop_
_space_group_symop_operation_xyz
x,y,z
-x,-y,z
x,-y,1/2-z
-x,y,1/2-z
-x,-y,-z
x,y,-z
-x,y,1/2+z
x,-y,1/2+z
1/2+x,1/2+y,1/2+z
1/2-x,1/2-y,1/2+z
1/2+x,1/2-y,-z
1/2-x,1/2+y,-z
1/2-x,1/2-y,1/2-z
1/2+x,1/2+y,1/2-z
1/2-x,1/2+y,z
1/2+x,1/2-y,z
loop_
_atom_site_type_symbol
_atom_site_label
_atom_site_fract_x
_atom_site_fract_y
_atom_site_fract_z
Si Si1 0.456449 0.833920 0.830902
Si Si2 0.396287 0.939267 0.168708
Si Si3 0.785311 0.061342 0.169079
Si Si4 0.000000 0.850674 0.750000
Si Si5 0.629725 0.380275 0.332134
Si Si6 0.424932 0.728196 0.339092
Si Si7 0.694646 0.939248 0.668665
Si Si8 0.560824 0.553952 0.658923
O O1 0.500000 0.833623 0.750000
O O2 0.431415 0.892651 0.798772
O O3 0.430582 0.779667 0.771232
O O4 0.462203 0.829048 0.000000
O O5 0.350433 0.913220 0.202171
O O6 0.401216 0.000000 0.250000
O O7 0.397678 0.950432 0.000000
O O8 0.822920 0.104610 0.200942
O O9 0.739648 0.086991 0.203058
O O10 0.790363 0.000000 0.250000
O O11 0.786697 0.049904 0.000000
O O12 0.966804 0.810589 0.670871
O O13 0.972329 0.894207 0.842138
O O14 0.622781 0.391162 0.500000
O O15 0.612953 0.315305 0.307029
O O16 0.600970 0.421708 0.238936
O O17 0.420991 0.749818 0.500000
O O18 0.694733 0.948781 0.500000
O O19 0.694646 0.000000 0.750000
O O20 0.545667 0.500000 0.750000
O O21 0.570186 0.535627 0.500000
#
# Coordination Sequence:
#
# PCOD9526818 Si02
#       8
#    16  16  16   8  16  16  16  16
#     4  11  23  37  55  78 103 131 165 204 246 294
#     4   9  19  35  55  81 109 135 162 194 237 292
#     4   9  16  27  46  72 101 132 166 206 250 296
#     4  10  21  34  52  68  87 116 166 210 256 298
#     4   9  19  33  48  69  97 129 167 211 254 297
#     4  10  20  35  53  71  94 125 167 212 251 293
#     4   8  14  27  48  73 101 132 164 197 237 287
#     4  11  22  33  46  66  93 127 164 207 259 309
#
# _framework density 17.003274999999999
#
# number of rings (size 3 to 8) (size 9 to 14) (size 15 to 20)
#    0.000    2.400    0.667    1.800    0.000    7.200 
#    0.000    1.333    0.000    0.800    0.000    0.000 
#    0.000    0.000    0.000    0.000    0.000    0.133 
#
# Total GULP energy -334186.347684 kJ/mol
# GULP energy per Si atom -5569.772461 kJ/mol
# Density = 1.696458 g / cm^3
# Si number density = 17.003275 Si / 1000 Ang^3
#
#
#
# Elastic Constant Matrix: (Units=GPa)
#
#
# Indices 1 2 3 4 5 6 
#
# 1 88.0217 44.4566 38.2254 0.0000 0.0000 0.0000
# 2 44.4566 76.5352 41.0705 0.0000 0.0000 0.0000
# 3 38.2254 41.0705 64.4141 0.0000 0.0000 0.0000
# 4 0.0000 0.0000 0.0000 21.2495 0.0000 0.0000
# 5 0.0000 0.0000 0.0000 0.0000 6.4956 0.0000
# 6 0.0000 0.0000 0.0000 0.0000 0.0000 15.5095
#
#
#
# Elastic Compliance Matrix: (Units=1/GPa)
#
#
# Indices 1 2 3 4 5 6 
#
# 1 0.017444 -0.006958 -0.005915 0.000000 0.000000 0.000000
# 2 -0.006958 0.022637 -0.010304 0.000000 0.000000 0.000000
# 3 -0.005915 -0.010304 0.025605 0.000000 0.000000 0.000000
# 4 0.000000 0.000000 0.000000 0.047060 0.000000 0.000000
# 5 0.000000 0.000000 0.000000 0.000000 0.153951 0.000000
# 6 0.000000 0.000000 0.000000 0.000000 0.000000 0.064477
#
#
# Mechanical properties :
#
#
# Convention : Reuss Voigt Hill
#
# Bulk Modulus (GPa) = 51.73166 52.94177 52.33671
# Shear Modulus (GPa) = 13.02174 15.66547 14.34360
#
# Velocity S-wave (km/s) = 2.77038 3.03862 2.90759
# Velocity P-wave (km/s) = 6.38153 6.59657 6.48994
#
# Compressibility (1/GPa) = 0.01933052
#
# Stress axis : x y z
#
# Youngs Moduli (GPa) = 57.32603 44.17494 39.05520
#
# Poissons Ratio (x) = 0.30739 0.23102
# Poissons Ratio (y) = 0.39890 0.40243
# Poissons Ratio (z) = 0.33909 0.45519
#
# Static dielectric constant tensor:
#      x y z
#    x 1.618150 0.000000 0.000000 
#    y 0.000000 1.554690 0.000000 
#    z 0.000000 0.000000 1.571460 
# 
# From -- ./inp_files/9479.got.cif
#   From: 2010.05.17/outbox.cif.g08.bks.cpg/sg72_5_cif.got.tgz:9479.got - 2010.06.03 17:03:01.
