data_PCOD9526629
_publ_section_title
;
Structure prediction by ZEFSAII (Michael W. Deem and Ramdas Pophale) SiO2 
 PCOD9526629
Probable space group: I B A M
;
_chemical_formula_sum "Si O2"
_cell_formula_units_Z 88
_cell_length_a 19.507589
_cell_length_b 9.168744
_cell_length_c 26.057479
_cell_angle_alpha 90.000000
_cell_angle_beta 90.000000
_cell_angle_gamma 90.000000
_cell_volume 4660.643029
_symmetry_space_group_name_H-M "I B A M"
_symmetry_group_IT_number 72
_symmetry_cell_setting 'orthorhombic'
loop_
_space_group_symop_operation_xyz
x,y,z
-x,-y,z
x,-y,1/2-z
-x,y,1/2-z
-x,-y,-z
x,y,-z
-x,y,1/2+z
x,-y,1/2+z
1/2+x,1/2+y,1/2+z
1/2-x,1/2-y,1/2+z
1/2+x,1/2-y,-z
1/2-x,1/2+y,-z
1/2-x,1/2-y,1/2-z
1/2+x,1/2+y,1/2-z
1/2-x,1/2+y,z
1/2+x,1/2-y,z
loop_
_atom_site_type_symbol
_atom_site_label
_atom_site_fract_x
_atom_site_fract_y
_atom_site_fract_z
Si Si1 0.500000 0.000000 0.887199
Si Si2 0.275321 0.038136 0.389006
Si Si3 0.705582 0.639055 0.783838
Si Si4 0.617271 0.203805 0.638438
Si Si5 0.895361 0.283439 0.439284
Si Si6 0.871876 0.044171 0.060269
O O1 0.444966 0.092581 0.855499
O O2 0.542898 0.113972 0.921262
O O3 0.249387 0.082857 0.332599
O O4 0.327739 0.157865 0.410694
O O5 0.208613 0.026556 0.424870
O O6 0.318280 0.888942 0.383730
O O7 0.686032 0.500000 0.750000
O O8 0.750000 0.750000 0.750000
O O9 0.641685 0.721599 0.809317
O O10 0.600834 0.327765 0.596567
O O11 0.884863 0.298696 0.500000
O O12 0.905875 0.112454 0.428561
O O13 0.879464 0.077671 0.000000
#
# Coordination Sequence:
#
# PCOD9526629 Si02
#       6
#     8  16  16  16  16  16
#     4  10  23  42  58  79 116 164 213 238 287 358
#     4  10  20  35  57  92 122 153 189 245 310 360
#     4  11  21  37  64  97 119 147 192 250 314 367
#     4  10  22  38  58  88 117 161 197 246 295 359
#     4  10  21  36  58  85 121 165 201 241 291 357
#     4  10  20  33  55  89 123 152 195 249 301 350
#
# _framework density 18.881515
#
# number of rings (size 3 to 8) (size 9 to 14) (size 15 to 20)
#    0.000    1.818    1.818    3.000    2.545    6.545 
#    0.000    1.818    0.000    8.727    9.455    0.000 
#    0.000    0.000    0.000    0.000    0.000    0.000 
#
# Total GULP energy -245775.021234 kJ/mol
# GULP energy per Si atom -5585.795937 kJ/mol
# Density = 1.883854 g / cm^3
# Si number density = 18.881515 Si / 1000 Ang^3
#
#
#
# Elastic Constant Matrix: (Units=GPa)
#
#
# Indices 1 2 3 4 5 6 
#
# 1 78.3355 49.2358 29.5996 0.0000 0.0000 0.0000
# 2 49.2358 138.4636 69.2945 0.0000 0.0000 0.0000
# 3 29.5996 69.2945 99.4899 0.0000 0.0000 0.0000
# 4 0.0000 0.0000 0.0000 36.8147 0.0000 0.0000
# 5 0.0000 0.0000 0.0000 0.0000 8.9629 0.0000
# 6 0.0000 0.0000 0.0000 0.0000 0.0000 26.3401
#
#
#
# Elastic Compliance Matrix: (Units=1/GPa)
#
#
# Indices 1 2 3 4 5 6 
#
# 1 0.016543 -0.005249 -0.001266 0.000000 0.000000 0.000000
# 2 -0.005249 0.012752 -0.007320 0.000000 0.000000 0.000000
# 3 -0.001266 -0.007320 0.015526 0.000000 0.000000 0.000000
# 4 0.000000 0.000000 0.000000 0.027163 0.000000 0.000000
# 5 0.000000 0.000000 0.000000 0.000000 0.111571 0.000000
# 6 0.000000 0.000000 0.000000 0.000000 0.000000 0.037965
#
#
# Mechanical properties :
#
#
# Convention : Reuss Voigt Hill
#
# Bulk Modulus (GPa) = 58.30411 68.06098 63.18255
# Shear Modulus (GPa) = 19.61500 25.63414 22.62457
#
# Velocity S-wave (km/s) = 3.22661 3.68860 3.46531
# Velocity P-wave (km/s) = 6.69532 7.36652 7.03893
#
# Compressibility (1/GPa) = 0.01715145
#
# Stress axis : x y z
#
# Youngs Moduli (GPa) = 60.44838 78.41961 64.40691
#
# Poissons Ratio (x) = 0.41162 0.08153
# Poissons Ratio (y) = 0.31729 0.47146
# Poissons Ratio (z) = 0.07652 0.57403
#
# Static dielectric constant tensor:
#      x y z
#    x 1.655990 0.000000 0.000000 
#    y 0.000000 1.675250 0.000000 
#    z 0.000000 0.000000 1.611880 
# 
# From -- ./inp_files/45269.got.cif
#   From: 2010.05.17/outbox.cif.g08.bks.cpg/sg72_23_cif.got.tgz:45269.got - 2010.06.03 17:03:01.
