data_PCOD9526450
_publ_section_title
;
Structure prediction by ZEFSAII (Michael W. Deem and Ramdas Pophale) SiO2 
 PCOD9526450
Probable space group: I B A M
;
_chemical_formula_sum "Si O2"
_cell_formula_units_Z 56
_cell_length_a 11.837601
_cell_length_b 17.323369
_cell_length_c 14.185604
_cell_angle_alpha 90.000000
_cell_angle_beta 90.000000
_cell_angle_gamma 90.000000
_cell_volume 2909.001102
_symmetry_space_group_name_H-M "I B A M"
_symmetry_group_IT_number 72
_symmetry_cell_setting 'orthorhombic'
loop_
_space_group_symop_operation_xyz
x,y,z
-x,-y,z
x,-y,1/2-z
-x,y,1/2-z
-x,-y,-z
x,y,-z
-x,y,1/2+z
x,-y,1/2+z
1/2+x,1/2+y,1/2+z
1/2-x,1/2-y,1/2+z
1/2+x,1/2-y,-z
1/2-x,1/2+y,-z
1/2-x,1/2-y,1/2-z
1/2+x,1/2+y,1/2-z
1/2-x,1/2+y,z
1/2+x,1/2-y,z
loop_
_atom_site_type_symbol
_atom_site_label
_atom_site_fract_x
_atom_site_fract_y
_atom_site_fract_z
Si Si1 0.930444 0.687264 0.500000
Si Si2 0.573755 0.926274 0.609102
Si Si3 0.809237 0.036068 0.154065
Si Si4 0.946974 0.869443 0.500000
Si Si5 0.291618 0.408446 0.500000
O O1 0.925796 0.778573 0.500000
O O2 0.804434 0.655031 0.500000
O O3 0.996816 0.649267 0.409814
O O4 0.609343 0.943489 0.500000
O O5 0.689059 0.919745 0.667241
O O6 0.500000 0.000000 0.639780
O O7 0.892231 0.088327 0.091168
O O8 0.855193 0.000000 0.250000
O O9 0.778725 0.962057 0.091002
O O10 0.080691 0.879630 0.500000
#
# Coordination Sequence:
#
# PCOD9526450 Si02
#       5
#     8  16  16   8   8
#     4  10  19  38  63  90 128 157 212 267 316 391
#     4   9  15  35  63  87 115 162 210 254 302 369
#     4  11  21  39  65  91 120 162 222 255 305 385
#     4  11  25  36  64  91 124 172 196 265 344 367
#     4  11  21  41  61  84 120 173 204 257 323 374
#
# _framework density 19.250594
#
# number of rings (size 3 to 8) (size 9 to 14) (size 15 to 20)
#    0.857    0.857    5.714    1.714    4.000    2.857 
#    0.000    1.429    6.286    0.000    0.000    0.000 
#    0.000    0.000    0.000    0.000    0.000    0.000 
#
# Total GULP energy -156008.094630 kJ/mol
# GULP energy per Si atom -5571.717665 kJ/mol
# Density = 1.920678 g / cm^3
# Si number density = 19.250594 Si / 1000 Ang^3
#
#
#
# Elastic Constant Matrix: (Units=GPa)
#
#
# Indices 1 2 3 4 5 6 
#
# 1 156.5958 64.0599 24.3174 0.0000 0.0000 0.0000
# 2 64.0599 115.0847 43.5012 0.0000 0.0000 0.0000
# 3 24.3174 43.5012 86.7113 0.0000 0.0000 -0.0001
# 4 0.0000 0.0000 0.0000 2.2718 0.0000 0.0000
# 5 0.0000 0.0000 0.0000 0.0000 2.5149 0.0000
# 6 0.0000 0.0000 -0.0001 0.0000 0.0000 -27.5417
#
#
#
# Elastic Compliance Matrix: (Units=1/GPa)
#
#
# Indices 1 2 3 4 5 6 
#
# 1 0.008269 -0.004598 -0.000012 0.000000 0.000000 0.000000
# 2 -0.004598 0.013279 -0.005373 0.000000 0.000000 0.000000
# 3 -0.000012 -0.005373 0.014231 0.000000 0.000000 0.000000
# 4 0.000000 0.000000 0.000000 0.440180 -0.000002 0.000000
# 5 0.000000 0.000000 0.000000 -0.000002 0.397629 0.000000
# 6 0.000000 0.000000 0.000000 0.000000 0.000000 -0.036309
#
#
# Mechanical properties :
#
#
# Convention : Reuss Voigt Hill
#
# Bulk Modulus (GPa) = 63.23539 69.12765 66.18152
# Shear Modulus (GPa) = 5.79699 10.54988 8.17343
#
# Velocity S-wave (km/s) = 1.73720 2.34354 2.06277
# Velocity P-wave (km/s) = 6.07813 6.58105 6.33458
#
# Compressibility (1/GPa) = 0.01581393
#
# Stress axis : x y z
#
# Youngs Moduli (GPa) = 120.93784 75.30433 70.26807
#
# Poissons Ratio (x) = 0.34625 0.00085
# Poissons Ratio (y) = 0.55608 0.37752
# Poissons Ratio (z) = 0.00147 0.40457
#
# Static dielectric constant tensor:
#      x y z
#    x 1.740790 0.000000 0.000000 
#    y 0.000000 1.654310 0.000000 
#    z 0.000000 0.000000 1.711840 
# 
# From -- ./inp_files/19660.got.cif
#   From: 2010.05.17/outbox.cif.g08.bks.cpg/sg72_10_cif.got.tgz:19660.got - 2010.06.03 17:03:01.
