data_PCOD9526264
_publ_section_title
;
Structure prediction by ZEFSAII (Michael W. Deem and Ramdas Pophale) SiO2 
 PCOD9526264
Probable space group: I B A M
;
_chemical_formula_sum "Si O2"
_cell_formula_units_Z 68
_cell_length_a 5.397374
_cell_length_b 34.374412
_cell_length_c 20.472489
_cell_angle_alpha 90.000000
_cell_angle_beta 90.000000
_cell_angle_gamma 90.000000
_cell_volume 3798.292772
_symmetry_space_group_name_H-M "I B A M"
_symmetry_group_IT_number 72
_symmetry_cell_setting 'orthorhombic'
loop_
_space_group_symop_operation_xyz
x,y,z
-x,-y,z
x,-y,1/2-z
-x,y,1/2-z
-x,-y,-z
x,y,-z
-x,y,1/2+z
x,-y,1/2+z
1/2+x,1/2+y,1/2+z
1/2-x,1/2-y,1/2+z
1/2+x,1/2-y,-z
1/2-x,1/2+y,-z
1/2-x,1/2-y,1/2-z
1/2+x,1/2+y,1/2-z
1/2-x,1/2+y,z
1/2+x,1/2-y,z
loop_
_atom_site_type_symbol
_atom_site_label
_atom_site_fract_x
_atom_site_fract_y
_atom_site_fract_z
Si Si1 0.000000 0.863633 0.250000
Si Si2 0.500000 0.500000 0.750000
Si Si3 0.431358 0.342089 0.893807
Si Si4 0.433431 0.890497 0.425370
Si Si5 0.073814 0.224648 0.500000
Si Si6 0.810354 0.565026 0.302963
O O1 0.933639 0.839437 0.314749
O O2 0.788681 0.894027 0.226773
O O3 0.390583 0.468448 0.698692
O O4 0.683034 0.364989 0.914056
O O5 0.182926 0.365891 0.912101
O O6 0.427210 0.302896 0.935954
O O7 0.435595 0.903548 0.500000
O O8 0.421086 0.924824 0.372666
O O9 0.324560 0.249816 0.500000
O O10 0.000000 0.549410 0.250000
#
# Coordination Sequence:
#
# PCOD9526264 Si02
#       6
#     8   4  16  16   8  16
#     4   9  20  35  60  90 110 150 210 258 286 328
#     4  10  22  36  54  82 128 164 194 234 314 360
#     4  11  21  38  61  87 121 152 197 254 294 340
#     4  11  20  36  61  92 115 150 204 257 291 331
#     4  12  24  40  58  88 124 165 195 225 305 386
#     4  10  19  35  58  86 116 157 200 245 294 361
#
# _framework density 17.902778999999999
#
# number of rings (size 3 to 8) (size 9 to 14) (size 15 to 20)
#    0.000    1.412    4.706    1.765    0.000    0.000 
#    0.000    1.765    0.000    2.824    0.000    0.000 
#    0.000    0.000    0.000    0.000    0.000    0.000 
#
# Total GULP energy -189376.541182 kJ/mol
# GULP energy per Si atom -5569.898270 kJ/mol
# Density = 1.786203 g / cm^3
# Si number density = 17.902779 Si / 1000 Ang^3
#
#
#
# Elastic Constant Matrix: (Units=GPa)
#
#
# Indices 1 2 3 4 5 6 
#
# 1 94.9490 31.2455 24.5281 0.0000 0.0000 0.0000
# 2 31.2455 94.6301 57.3840 0.0000 0.0000 0.0000
# 3 24.5281 57.3840 183.1278 0.0000 0.0000 0.0000
# 4 0.0000 0.0000 0.0000 11.0066 0.0000 0.0000
# 5 0.0000 0.0000 0.0000 0.0000 20.5970 0.0000
# 6 0.0000 0.0000 0.0000 0.0000 0.0000 -103.3324
#
#
#
# Elastic Compliance Matrix: (Units=1/GPa)
#
#
# Indices 1 2 3 4 5 6 
#
# 1 0.011845 -0.003641 -0.000446 0.000000 0.000000 0.000000
# 2 -0.003641 0.014166 -0.003951 0.000000 0.000000 0.000000
# 3 -0.000446 -0.003951 0.006758 0.000000 0.000000 0.000000
# 4 0.000000 0.000000 0.000000 0.090855 0.000000 0.000000
# 5 0.000000 0.000000 0.000000 0.000000 0.048551 0.000000
# 6 0.000000 0.000000 0.000000 0.000000 0.000000 -0.009678
#
#
# Mechanical properties :
#
#
# Convention : Reuss Voigt Hill
#
# Bulk Modulus (GPa) = 59.90224 66.55801 63.23012
# Shear Modulus (GPa) = 27.15360 2.95753 15.05556
#
# Velocity S-wave (km/s) = 3.89874 1.28669 2.90308
# Velocity P-wave (km/s) = 7.33480 6.28217 6.82880
#
# Compressibility (1/GPa) = 0.01669387
#
# Stress axis : x y z
#
# Youngs Moduli (GPa) = 84.42217 70.59323 147.96203
#
# Poissons Ratio (x) = 0.25702 0.06594
# Poissons Ratio (y) = 0.30737 0.58463
# Poissons Ratio (z) = 0.03762 0.27893
#
# Static dielectric constant tensor:
#      x y z
#    x 1.823770 0.000000 0.000000 
#    y 0.000000 1.574950 0.000000 
#    z 0.000000 0.000000 1.533860 
# 
# From -- ./inp_files/34856.got.cif
#   From: 2010.05.17/outbox.cif.g08.bks.cpg/sg72_18_cif.got.tgz:34856.got - 2010.06.03 17:03:01.
