data_PCOD9526732
_publ_section_title
;
Structure prediction by ZEFSAII (Michael W. Deem and Ramdas Pophale) SiO2 
 PCOD9526732
Probable space group: I B A M
;
_chemical_formula_sum "Si O2"
_cell_formula_units_Z 116
_cell_length_a 32.980483
_cell_length_b 22.083284
_cell_length_c 8.817989
_cell_angle_alpha 90.000000
_cell_angle_beta 90.000000
_cell_angle_gamma 90.000000
_cell_volume 6422.294580
_symmetry_space_group_name_H-M "I B A M"
_symmetry_group_IT_number 72
_symmetry_cell_setting 'orthorhombic'
loop_
_space_group_symop_operation_xyz
x,y,z
-x,-y,z
x,-y,1/2-z
-x,y,1/2-z
-x,-y,-z
x,y,-z
-x,y,1/2+z
x,-y,1/2+z
1/2+x,1/2+y,1/2+z
1/2-x,1/2-y,1/2+z
1/2+x,1/2-y,-z
1/2-x,1/2+y,-z
1/2-x,1/2-y,1/2-z
1/2+x,1/2+y,1/2-z
1/2-x,1/2+y,z
1/2+x,1/2-y,z
loop_
_atom_site_type_symbol
_atom_site_label
_atom_site_fract_x
_atom_site_fract_y
_atom_site_fract_z
Si Si1 0.399122 0.204931 0.320353
Si Si2 0.456756 0.692204 0.317913
Si Si3 0.188833 0.707876 0.179058
Si Si4 0.333211 0.563107 0.819104
Si Si5 0.274520 0.328873 0.317367
Si Si6 0.571960 0.565710 0.683120
Si Si7 0.540277 0.879699 0.171344
Si Si8 0.000000 0.500000 0.250000
O O1 0.401936 0.212988 0.500000
O O2 0.422099 0.261600 0.241198
O O3 0.352669 0.200207 0.268862
O O4 0.422367 0.144098 0.267914
O O5 0.500000 0.711819 0.250000
O O6 0.457511 0.692096 0.500000
O O7 0.449202 0.624136 0.255551
O O8 0.226610 0.663123 0.212599
O O9 0.207953 0.772106 0.226518
O O10 0.180191 0.705816 0.000000
O O11 0.320226 0.500000 0.750000
O O12 0.302643 0.615402 0.773685
O O13 0.380202 0.573656 0.777499
O O14 0.332449 0.559154 0.000000
O O15 0.278490 0.317857 0.500000
O O16 0.559350 0.500000 0.750000
O O17 0.567237 0.565652 0.500000
O O18 0.500000 0.853452 0.250000
O O19 0.529921 0.951636 0.169903
O O20 0.544700 0.858178 0.000000
#
# Coordination Sequence:
#
# PCOD9526732 Si02
#       8
#    16  16  16  16  16  16  16   4
#     4  12  24  38  57  82 115 150 187 232 283 334
#     4  12  25  41  59  82 112 146 187 233 287 340
#     4  10  20  34  55  82 110 144 184 226 277 332
#     4   9  18  32  53  79 108 141 178 222 269 318
#     4   9  18  34  55  80 111 144 180 224 277 331
#     4  10  20  36  57  83 114 150 192 235 280 331
#     4  10  20  36  59  86 114 144 183 226 273 327
#     4   8  22  36  66  88 118 144 184 228 274 328
#
# _framework density 18.062080000000002
#
# number of rings (size 3 to 8) (size 9 to 14) (size 15 to 20)
#    0.414    1.379    0.000    5.172    0.000    3.034 
#    0.000    1.379    1.517    0.000    0.000    0.000 
#    0.000    0.000    0.000    0.000    0.000    0.000 
#
# Total GULP energy -323431.765489 kJ/mol
# GULP energy per Si atom -5576.409750 kJ/mol
# Density = 1.802097 g / cm^3
# Si number density = 18.062080 Si / 1000 Ang^3
#
#
#
# Elastic Constant Matrix: (Units=GPa)
#
#
# Indices 1 2 3 4 5 6 
#
# 1 86.8357 25.8725 35.7923 0.0000 0.0000 0.0000
# 2 25.8725 79.9159 23.9980 0.0000 0.0000 0.0000
# 3 35.7923 23.9980 99.4876 0.0000 0.0000 0.0000
# 4 0.0000 0.0000 0.0000 20.6736 0.0000 0.0000
# 5 0.0000 0.0000 0.0000 0.0000 26.5854 0.0000
# 6 0.0000 0.0000 0.0000 0.0000 0.0000 45.4140
#
#
#
# Elastic Compliance Matrix: (Units=1/GPa)
#
#
# Indices 1 2 3 4 5 6 
#
# 1 0.014296 -0.003325 -0.004341 0.000000 0.000000 0.000000
# 2 -0.003325 0.014263 -0.002244 0.000000 0.000000 0.000000
# 3 -0.004341 -0.002244 0.012155 0.000000 0.000000 0.000000
# 4 0.000000 0.000000 0.000000 0.048371 0.000000 0.000000
# 5 0.000000 0.000000 0.000000 0.000000 0.037615 0.000000
# 6 0.000000 0.000000 0.000000 0.000000 0.000000 0.022020
#
#
# Mechanical properties :
#
#
# Convention : Reuss Voigt Hill
#
# Bulk Modulus (GPa) = 47.86189 48.61832 48.24011
# Shear Modulus (GPa) = 28.48928 30.57302 29.53115
#
# Velocity S-wave (km/s) = 3.97583 4.11866 4.04788
# Velocity P-wave (km/s) = 6.90162 7.04227 6.97230
#
# Compressibility (1/GPa) = 0.02089345
#
# Stress axis : x y z
#
# Youngs Moduli (GPa) = 69.94978 70.10906 82.27237
#
# Poissons Ratio (x) = 0.23309 0.35717
# Poissons Ratio (y) = 0.23256 0.18466
# Poissons Ratio (z) = 0.30367 0.15736
#
# Static dielectric constant tensor:
#      x y z
#    x 1.633840 0.000000 0.000000 
#    y 0.000000 1.620190 0.000000 
#    z 0.000000 0.000000 1.600440 
# 
# From -- ./inp_files/9346.got.cif
#   From: 2010.05.17/outbox.cif.g08.bks.cpg/sg72_5_cif.got.tgz:9346.got - 2010.06.03 17:03:01.
