data_PCOD9526160
_publ_section_title
;
Structure prediction by ZEFSAII (Michael W. Deem and Ramdas Pophale) SiO2 
 PCOD9526160
Probable space group: I B A M
;
_chemical_formula_sum "Si O2"
_cell_formula_units_Z 108
_cell_length_a 26.555049
_cell_length_b 12.568685
_cell_length_c 14.009374
_cell_angle_alpha 90.000000
_cell_angle_beta 90.000000
_cell_angle_gamma 90.000000
_cell_volume 4675.797330
_symmetry_space_group_name_H-M "I B A M"
_symmetry_group_IT_number 72
_symmetry_cell_setting 'orthorhombic'
loop_
_space_group_symop_operation_xyz
x,y,z
-x,-y,z
x,-y,1/2-z
-x,y,1/2-z
-x,-y,-z
x,y,-z
-x,y,1/2+z
x,-y,1/2+z
1/2+x,1/2+y,1/2+z
1/2-x,1/2-y,1/2+z
1/2+x,1/2-y,-z
1/2-x,1/2+y,-z
1/2-x,1/2-y,1/2-z
1/2+x,1/2+y,1/2-z
1/2-x,1/2+y,z
1/2+x,1/2-y,z
loop_
_atom_site_type_symbol
_atom_site_label
_atom_site_fract_x
_atom_site_fract_y
_atom_site_fract_z
Si Si1 0.229299 0.155782 0.642654
Si Si2 0.855263 0.014165 0.391819
Si Si3 0.541541 0.587787 0.884030
Si Si4 0.457579 0.175581 0.890573
Si Si5 0.649788 0.163069 0.317466
Si Si6 0.000000 0.500000 0.250000
Si Si7 0.160621 0.259110 0.109112
Si Si8 0.710508 0.000000 0.750000
O O1 0.194777 0.058385 0.605308
O O2 0.190631 0.249235 0.656541
O O3 0.280940 0.203615 0.600085
O O4 0.253605 0.098890 0.733490
O O5 0.871471 0.031771 0.500000
O O6 0.902967 0.949962 0.348907
O O7 0.844271 0.134748 0.359558
O O8 0.500000 0.500000 0.858946
O O9 0.525971 0.707106 0.855141
O O10 0.543161 0.595080 0.000000
O O11 0.397427 0.181438 0.883510
O O12 0.471168 0.079939 0.820511
O O13 0.474282 0.158204 0.000000
O O14 0.638885 0.178799 0.202748
O O15 0.673663 0.045931 0.330676
O O16 0.139357 0.273175 0.000000
#
# Coordination Sequence:
#
# PCOD9526160 Si02
#       8
#    16  16  16  16  16   4  16   8
#     4  11  19  35  58  88 130 180 228 281 331 402
#     4  10  19  34  57  90 129 172 225 279 338 411
#     4   9  19  39  68 100 132 168 220 287 352 413
#     4  11  25  49  77 103 136 178 225 285 348 409
#     4  11  22  40  63  92 129 174 232 278 329 414
#     4  12  28  52  74 106 136 172 226 284 344 426
#     4  10  22  36  56  91 137 183 223 277 340 399
#     4  10  21  36  54  87 133 176 218 277 328 382
#
# _framework density 23.097664000000002
#
# number of rings (size 3 to 8) (size 9 to 14) (size 15 to 20)
#    0.000    1.630    1.481    4.667    0.000    1.778 
#    0.000   11.481    0.000    0.000    0.000    0.000 
#    0.000    0.000    0.000    0.000    0.000    0.000 
#
# Total GULP energy -300779.520151 kJ/mol
# GULP energy per Si atom -5569.991114 kJ/mol
# Density = 2.304509 g / cm^3
# Si number density = 23.097664 Si / 1000 Ang^3
#
#
#
# Elastic Constant Matrix: (Units=GPa)
#
#
# Indices 1 2 3 4 5 6 
#
# 1 40.8933 43.8746 11.6618 0.0000 0.0000 0.0000
# 2 43.8746 131.7410 10.0938 0.0000 0.0000 0.0000
# 3 11.6618 10.0938 85.4591 0.0000 0.0000 0.0000
# 4 0.0000 0.0000 0.0000 14.7351 0.0000 0.0000
# 5 0.0000 0.0000 0.0000 0.0000 14.7280 0.0000
# 6 0.0000 0.0000 0.0000 0.0000 0.0000 28.6195
#
#
#
# Elastic Compliance Matrix: (Units=1/GPa)
#
#
# Indices 1 2 3 4 5 6 
#
# 1 0.039265 -0.012782 -0.003848 0.000000 0.000000 0.000000
# 2 -0.012782 0.011821 0.000348 0.000000 0.000000 0.000000
# 3 -0.003848 0.000348 0.012186 0.000000 0.000000 0.000000
# 4 0.000000 0.000000 0.000000 0.067865 0.000000 0.000000
# 5 0.000000 0.000000 0.000000 0.000000 0.067898 0.000000
# 6 0.000000 0.000000 0.000000 0.000000 0.000000 0.034941
#
#
# Mechanical properties :
#
#
# Convention : Reuss Voigt Hill
#
# Bulk Modulus (GPa) = 32.56593 43.26152 37.91372
# Shear Modulus (GPa) = 18.06516 24.44740 21.25628
#
# Velocity S-wave (km/s) = 2.79968 3.25689 3.03690
# Velocity P-wave (km/s) = 4.95790 5.73704 5.36164
#
# Compressibility (1/GPa) = 0.03070694
#
# Stress axis : x y z
#
# Youngs Moduli (GPa) = 25.46792 84.59655 82.06435
#
# Poissons Ratio (x) = 1.08130 0.31582
# Poissons Ratio (y) = 0.32553 -0.02856
# Poissons Ratio (z) = 0.09801 -0.02944
#
# Static dielectric constant tensor:
#      x y z
#    x 1.884140 0.000000 0.000000 
#    y 0.000000 1.941840 0.000000 
#    z 0.000000 0.000000 1.867250 
# 
# From -- ./inp_files/26447.got.cif
#   From: 2010.05.17/outbox.cif.g08.bks.cpg/sg72_14_cif.got.tgz:26447.got - 2010.06.03 17:03:01.
