data_PCOD9526828
_publ_section_title
;
Structure prediction by ZEFSAII (Michael W. Deem and Ramdas Pophale) SiO2 
 PCOD9526828
Probable space group: I B A M
;
_chemical_formula_sum "Si O2"
_cell_formula_units_Z 96
_cell_length_a 27.854779
_cell_length_b 14.103171
_cell_length_c 14.263409
_cell_angle_alpha 90.000000
_cell_angle_beta 90.000000
_cell_angle_gamma 90.000000
_cell_volume 5603.247739
_symmetry_space_group_name_H-M "I B A M"
_symmetry_group_IT_number 72
_symmetry_cell_setting 'orthorhombic'
loop_
_space_group_symop_operation_xyz
x,y,z
-x,-y,z
x,-y,1/2-z
-x,y,1/2-z
-x,-y,-z
x,y,-z
-x,y,1/2+z
x,-y,1/2+z
1/2+x,1/2+y,1/2+z
1/2-x,1/2-y,1/2+z
1/2+x,1/2-y,-z
1/2-x,1/2+y,-z
1/2-x,1/2-y,1/2-z
1/2+x,1/2+y,1/2-z
1/2-x,1/2+y,z
1/2+x,1/2-y,z
loop_
_atom_site_type_symbol
_atom_site_label
_atom_site_fract_x
_atom_site_fract_y
_atom_site_fract_z
Si Si1 0.165743 0.353812 0.500000
Si Si2 0.635579 0.466441 0.000000
Si Si3 0.630797 0.899211 0.798058
Si Si4 0.198301 0.244522 0.203111
Si Si5 0.219737 0.828102 0.500000
Si Si6 0.949535 0.245317 0.197868
Si Si7 0.118624 0.100933 0.203036
Si Si8 0.409408 0.679875 0.500000
O O1 0.151157 0.405379 0.403764
O O2 0.222864 0.338516 0.500000
O O3 0.134577 0.256013 0.500000
O O4 0.691973 0.430972 0.000000
O O5 0.616361 0.416756 0.092963
O O6 0.616713 0.575857 0.000000
O O7 0.667066 0.833352 0.737657
O O8 0.580805 0.842382 0.803003
O O9 0.625932 0.000000 0.750000
O O10 0.250000 0.250000 0.250000
O O11 0.168344 0.151267 0.233142
O O12 0.204393 0.230116 0.092151
O O13 0.922105 0.170705 0.263184
O O14 0.000000 0.259587 0.250000
O O15 0.941855 0.201028 0.092742
O O16 0.114531 0.000000 0.250000
#
# Coordination Sequence:
#
# PCOD9526828 Si02
#       8
#     8   8  16  16   8  16  16   8
#     4  10  20  39  56  85 117 152 201 242 285 351
#     4  10  20  35  53  86 119 158 190 234 290 343
#     4  10  22  40  60  83 119 154 194 250 295 343
#     4  10  20  35  54  82 117 157 192 238 283 340
#     4  10  20  35  55  86 121 156 206 232 275 357
#     4  10  22  40  62  86 112 151 196 242 303 357
#     4  10  20  35  55  81 119 150 188 238 289 349
#     4  10  20  39  62  83 119 154 191 249 301 345
#
# _framework density 17.132921
#
# number of rings (size 3 to 8) (size 9 to 14) (size 15 to 20)
#    0.000    2.000    3.333    0.000    0.000    2.667 
#    3.000    3.333    0.000    3.000    0.000    0.000 
#    0.000    0.000    0.000    0.000    0.000    0.000 
#
# Total GULP energy -267369.942353 kJ/mol
# GULP energy per Si atom -5570.207132 kJ/mol
# Density = 1.709393 g / cm^3
# Si number density = 17.132921 Si / 1000 Ang^3
#
#
#
# Elastic Constant Matrix: (Units=GPa)
#
#
# Indices 1 2 3 4 5 6 
#
# 1 106.9335 25.1612 60.7857 0.0000 0.0000 0.0000
# 2 25.1612 92.8554 55.0730 0.0000 0.0000 0.0000
# 3 60.7857 55.0730 130.8954 0.0000 0.0000 0.0000
# 4 0.0000 0.0000 0.0000 24.7776 0.0000 0.0000
# 5 0.0000 0.0000 0.0000 0.0000 37.2837 0.0000
# 6 0.0000 0.0000 0.0000 0.0000 0.0000 3.7332
#
#
#
# Elastic Compliance Matrix: (Units=1/GPa)
#
#
# Indices 1 2 3 4 5 6 
#
# 1 0.012706 0.000075 -0.005932 0.000000 0.000000 0.000000
# 2 0.000075 0.014351 -0.006073 0.000000 0.000000 0.000000
# 3 -0.005932 -0.006073 0.012950 0.000000 0.000000 0.000000
# 4 0.000000 0.000000 0.000000 0.040359 0.000000 0.000000
# 5 0.000000 0.000000 0.000000 0.000000 0.026821 0.000000
# 6 0.000000 0.000000 0.000000 0.000000 0.000000 0.267866
#
#
# Mechanical properties :
#
#
# Convention : Reuss Voigt Hill
#
# Bulk Modulus (GPa) = 61.93098 68.08042 65.00570
# Shear Modulus (GPa) = 12.36722 25.80319 19.08520
#
# Velocity S-wave (km/s) = 2.68962 3.88501 3.34121
# Velocity P-wave (km/s) = 6.77283 7.74256 7.27387
#
# Compressibility (1/GPa) = 0.01614701
#
# Stress axis : x y z
#
# Youngs Moduli (GPa) = 78.70313 69.68178 77.22195
#
# Poissons Ratio (x) = -0.00526 0.45810
# Poissons Ratio (y) = -0.00594 0.46897
# Poissons Ratio (z) = 0.46688 0.42318
#
# Static dielectric constant tensor:
#      x y z
#    x 1.591190 0.000000 0.000000 
#    y 0.000000 1.554440 0.000000 
#    z 0.000000 0.000000 1.586350 
# 
# From -- ./inp_files/25156.got.cif
#   From: 2010.05.17/outbox.cif.g08.bks.cpg/sg72_13_cif.got.tgz:25156.got - 2010.06.03 17:03:01.
