data_PCOD9526992
_publ_section_title
;
Structure prediction by ZEFSAII (Michael W. Deem and Ramdas Pophale) SiO2 
 PCOD9526992
Probable space group: I B A M
;
_chemical_formula_sum "Si O2"
_cell_formula_units_Z 112
_cell_length_a 16.916632
_cell_length_b 26.930223
_cell_length_c 11.063854
_cell_angle_alpha 90.000000
_cell_angle_beta 90.000000
_cell_angle_gamma 90.000000
_cell_volume 5040.345276
_symmetry_space_group_name_H-M "I B A M"
_symmetry_group_IT_number 72
_symmetry_cell_setting 'orthorhombic'
loop_
_space_group_symop_operation_xyz
x,y,z
-x,-y,z
x,-y,1/2-z
-x,y,1/2-z
-x,-y,-z
x,y,-z
-x,y,1/2+z
x,-y,1/2+z
1/2+x,1/2+y,1/2+z
1/2-x,1/2-y,1/2+z
1/2+x,1/2-y,-z
1/2-x,1/2+y,-z
1/2-x,1/2-y,1/2-z
1/2+x,1/2+y,1/2-z
1/2-x,1/2+y,z
1/2+x,1/2-y,z
loop_
_atom_site_type_symbol
_atom_site_label
_atom_site_fract_x
_atom_site_fract_y
_atom_site_fract_z
Si Si1 0.801564 0.872700 0.867958
Si Si2 0.731474 0.919691 0.635970
Si Si3 0.201828 0.756595 0.629365
Si Si4 0.452920 0.189860 0.368533
Si Si5 0.521017 0.376585 0.870497
Si Si6 0.099166 0.969498 0.130742
Si Si7 0.055475 0.429868 0.137112
O O1 0.748228 0.885425 0.752748
O O2 0.821060 0.814416 0.869416
O O3 0.889087 0.896133 0.860436
O O4 0.766449 0.885937 0.000000
O O5 0.729430 0.895908 0.500000
O O6 0.808632 0.954305 0.634890
O O7 0.646883 0.946106 0.650928
O O8 0.244393 0.748058 0.500000
O O9 0.250000 0.750000 0.750000
O O10 0.128226 0.719847 0.631901
O O11 0.500000 0.204960 0.250000
O O12 0.492099 0.198871 0.500000
O O13 0.439376 0.130516 0.360042
O O14 0.500000 0.346369 0.750000
O O15 0.457292 0.421102 0.870982
O O16 0.514250 0.350435 0.000000
O O17 0.082547 0.000000 0.250000
O O18 0.087151 0.995018 0.000000
O O19 0.000000 0.444335 0.250000
O O20 0.028107 0.443066 0.000000
#
# Coordination Sequence:
#
# PCOD9526992 Si02
#       7
#    16  16  16  16  16  16  16
#     4  10  21  35  53  78 110 146 187 237 282 327
#     4  10  20  37  58  82 110 142 182 227 278 337
#     4  10  21  36  53  76 106 142 186 233 281 331
#     4   9  18  33  50  73 103 134 172 219 269 323
#     4  10  20  36  54  77 111 149 189 230 275 327
#     4  10  22  39  59  84 115 151 191 232 277 332
#     4   9  18  33  56  81 108 138 173 222 277 335
#
# _framework density 22.220700999999998
#
# number of rings (size 3 to 8) (size 9 to 14) (size 15 to 20)
#    0.000    2.286    1.429    0.857    0.000    4.857 
#    0.000    4.286    0.000    0.429    0.000    3.000 
#    0.000    0.000    0.000    0.000    0.000    0.000 
#
# Total GULP energy -312396.484848 kJ/mol
# GULP energy per Si atom -5578.508658 kJ/mol
# Density = 2.217013 g / cm^3
# Si number density = 22.220701 Si / 1000 Ang^3
#
#
#
# Elastic Constant Matrix: (Units=GPa)
#
#
# Indices 1 2 3 4 5 6 
#
# 1 109.6986 14.8072 73.5035 0.0000 0.0000 0.0000
# 2 14.8072 45.7722 38.4172 -0.0001 0.0001 0.0001
# 3 73.5035 38.4172 254.3848 -0.0013 0.0012 0.0002
# 4 0.0000 -0.0001 -0.0013 8.0808 0.0002 0.0001
# 5 0.0000 0.0001 0.0012 0.0002 33.9691 0.0000
# 6 0.0000 0.0001 0.0002 0.0001 0.0000 15.8332
#
#
#
# Elastic Compliance Matrix: (Units=1/GPa)
#
#
# Indices 1 2 3 4 5 6 
#
# 1 0.011349 -0.001052 -0.003120 0.000000 0.000000 0.000000
# 2 -0.001052 0.025116 -0.003489 0.000000 0.000000 0.000000
# 3 -0.003120 -0.003489 0.005360 0.000001 0.000000 0.000000
# 4 0.000000 0.000000 0.000001 0.123750 -0.000001 -0.000001
# 5 0.000000 0.000000 0.000000 -0.000001 0.029438 0.000000
# 6 0.000000 0.000000 0.000000 -0.000001 0.000000 0.063159
#
#
# Mechanical properties :
#
#
# Convention : Reuss Voigt Hill
#
# Bulk Modulus (GPa) = 37.73428 73.70125 55.71776
# Shear Modulus (GPa) = 17.70988 30.45180 24.08084
#
# Velocity S-wave (km/s) = 2.82618 3.70594 3.29555
# Velocity P-wave (km/s) = 5.26005 7.17996 6.29365
#
# Compressibility (1/GPa) = 0.02650110
#
# Stress axis : x y z
#
# Youngs Moduli (GPa) = 88.11634 39.81512 186.58386
#
# Poissons Ratio (x) = 0.04190 0.58218
# Poissons Ratio (y) = 0.09274 0.65098
# Poissons Ratio (z) = 0.27494 0.13891
#
# Static dielectric constant tensor:
#      x y z
#    x 1.797340 0.000000 0.000000 
#    y 0.000000 1.875300 0.000000 
#    z 0.000000 0.000000 1.912060 
# 
# From -- ./inp_files/13133.got.cif
#   From: 2010.05.17/outbox.cif.g08.bks.cpg/sg72_7_cif.got.tgz:13133.got - 2010.06.03 17:03:01.
