data_PCOD9526302
_publ_section_title
;
Structure prediction by ZEFSAII (Michael W. Deem and Ramdas Pophale) SiO2 
 PCOD9526302
Probable space group: I B A M
;
_chemical_formula_sum "Si O2"
_cell_formula_units_Z 96
_cell_length_a 8.229357
_cell_length_b 30.191721
_cell_length_c 18.206085
_cell_angle_alpha 90.000000
_cell_angle_beta 90.000000
_cell_angle_gamma 90.000000
_cell_volume 4523.455670
_symmetry_space_group_name_H-M "I B A M"
_symmetry_group_IT_number 72
_symmetry_cell_setting 'orthorhombic'
loop_
_space_group_symop_operation_xyz
x,y,z
-x,-y,z
x,-y,1/2-z
-x,y,1/2-z
-x,-y,-z
x,y,-z
-x,y,1/2+z
x,-y,1/2+z
1/2+x,1/2+y,1/2+z
1/2-x,1/2-y,1/2+z
1/2+x,1/2-y,-z
1/2-x,1/2+y,-z
1/2-x,1/2-y,1/2-z
1/2+x,1/2+y,1/2-z
1/2-x,1/2+y,z
1/2+x,1/2-y,z
loop_
_atom_site_type_symbol
_atom_site_label
_atom_site_fract_x
_atom_site_fract_y
_atom_site_fract_z
Si Si1 0.867849 0.130568 0.686838
Si Si2 0.924460 0.223921 0.669095
Si Si3 0.246615 0.801437 0.912594
Si Si4 0.656965 0.603903 0.087688
Si Si5 0.175536 0.456518 0.286879
Si Si6 0.306358 0.493671 0.087162
O O1 0.805935 0.180527 0.671769
O O2 0.753401 0.091843 0.715517
O O3 0.000000 0.138371 0.750000
O O4 0.977476 0.111164 0.620834
O O5 0.848580 0.268098 0.636696
O O6 0.000000 0.231745 0.750000
O O7 0.062748 0.209122 0.611683
O O8 0.265823 0.853391 0.894007
O O9 0.271101 0.794975 0.000000
O O10 0.728840 0.556921 0.111227
O O11 0.640808 0.602698 0.000000
O O12 0.262249 0.500000 0.250000
O O13 0.191633 0.528040 0.128750
O O14 0.000000 0.454537 0.250000
O O15 0.500000 0.500000 0.102286
O O16 0.285544 0.497681 0.000000
#
# Coordination Sequence:
#
# PCOD9526302 Si02
#       6
#    16  16  16  16  16  16
#     4  10  20  36  60  86 115 159 210 255 297 365
#     4  10  21  38  59  88 120 159 207 260 309 366
#     4  10  20  37  60  89 125 160 203 256 315 371
#     4   9  18  33  59  95 122 152 208 264 301 355
#     4  11  24  39  57  92 132 164 198 254 322 379
#     4  10  19  35  64  96 122 159 213 261 307 364
#
# _framework density 21.222714
#
# number of rings (size 3 to 8) (size 9 to 14) (size 15 to 20)
#    0.000    2.000    1.667    2.000    0.000    0.667 
#    0.000   11.667    0.000    1.000    0.000    0.000 
#    0.000    0.000    0.000    0.000    0.000    0.000 
#
# Total GULP energy -267748.490138 kJ/mol
# GULP energy per Si atom -5578.093545 kJ/mol
# Density = 2.117441 g / cm^3
# Si number density = 21.222714 Si / 1000 Ang^3
#
#
#
# Elastic Constant Matrix: (Units=GPa)
#
#
# Indices 1 2 3 4 5 6 
#
# 1 44.5791 50.3649 30.7385 0.0000 0.0000 0.0000
# 2 50.3649 162.6122 67.9372 0.0000 0.0000 0.0000
# 3 30.7385 67.9372 81.7472 -0.0002 0.0000 -0.0001
# 4 0.0000 0.0000 -0.0002 67.3587 0.0000 0.0001
# 5 0.0000 0.0000 0.0000 0.0000 20.7298 0.0000
# 6 0.0000 0.0000 -0.0001 0.0001 0.0000 25.6648
#
#
#
# Elastic Compliance Matrix: (Units=1/GPa)
#
#
# Indices 1 2 3 4 5 6 
#
# 1 0.036740 -0.008590 -0.006676 0.000000 0.000000 0.000000
# 2 -0.008590 0.011429 -0.006268 0.000000 0.000000 0.000000
# 3 -0.006676 -0.006268 0.019952 0.000000 0.000000 0.000000
# 4 0.000000 0.000000 0.000000 0.014846 0.000000 0.000000
# 5 0.000000 0.000000 0.000000 0.000000 0.048240 0.000000
# 6 0.000000 0.000000 0.000000 0.000000 0.000000 0.038964
#
#
# Mechanical properties :
#
#
# Convention : Reuss Voigt Hill
#
# Bulk Modulus (GPa) = 39.91547 65.22442 52.56995
# Shear Modulus (GPa) = 22.56409 32.07718 27.32064
#
# Velocity S-wave (km/s) = 3.26422 3.89196 3.59183
# Velocity P-wave (km/s) = 5.74940 7.14118 6.48275
#
# Compressibility (1/GPa) = 0.02505294
#
# Stress axis : x y z
#
# Youngs Moduli (GPa) = 27.21796 87.49739 50.11940
#
# Poissons Ratio (x) = 0.75162 0.33460
# Poissons Ratio (y) = 0.23381 0.31415
# Poissons Ratio (z) = 0.18171 0.54844
#
# Static dielectric constant tensor:
#      x y z
#    x 1.765810 0.000000 0.000000 
#    y 0.000000 1.840770 0.000000 
#    z 0.000000 0.000000 1.862860 
# 
# From -- ./inp_files/36069.got.cif
#   From: 2010.05.17/outbox.cif.g08.bks.cpg/sg72_19_cif.got.tgz:36069.got - 2010.06.03 17:03:01.
