data_PCOD9526109
_publ_section_title
;
Structure prediction by ZEFSAII (Michael W. Deem and Ramdas Pophale) SiO2 
 PCOD9526109
Probable space group: I B A M
;
_chemical_formula_sum "Si O2"
_cell_formula_units_Z 72
_cell_length_a 16.717687
_cell_length_b 24.930612
_cell_length_c 8.956682
_cell_angle_alpha 90.000000
_cell_angle_beta 90.000000
_cell_angle_gamma 90.000000
_cell_volume 3732.985343
_symmetry_space_group_name_H-M "I B A M"
_symmetry_group_IT_number 72
_symmetry_cell_setting 'orthorhombic'
loop_
_space_group_symop_operation_xyz
x,y,z
-x,-y,z
x,-y,1/2-z
-x,y,1/2-z
-x,-y,-z
x,y,-z
-x,y,1/2+z
x,-y,1/2+z
1/2+x,1/2+y,1/2+z
1/2-x,1/2-y,1/2+z
1/2+x,1/2-y,-z
1/2-x,1/2+y,-z
1/2-x,1/2-y,1/2-z
1/2+x,1/2+y,1/2-z
1/2-x,1/2+y,z
1/2+x,1/2-y,z
loop_
_atom_site_type_symbol
_atom_site_label
_atom_site_fract_x
_atom_site_fract_y
_atom_site_fract_z
Si Si1 0.000000 0.137539 0.250000
Si Si2 0.914448 0.665327 0.680727
Si Si3 0.363483 0.717738 0.330804
Si Si4 0.743315 0.129204 0.180666
Si Si5 0.629929 0.445959 0.831604
O O1 0.938771 0.177189 0.167287
O O2 0.941450 0.097388 0.336469
O O3 0.918078 0.664115 0.500000
O O4 0.891635 0.725991 0.735410
O O5 0.843178 0.629127 0.744595
O O6 0.000000 0.651480 0.750000
O O7 0.339458 0.730066 0.500000
O O8 0.290374 0.683406 0.264824
O O9 0.798691 0.080917 0.237460
O O10 0.739623 0.129632 0.000000
O O11 0.603354 0.500000 0.750000
O O12 0.655785 0.457660 0.000000
#
# Coordination Sequence:
#
# PCOD9526109 Si02
#       5
#     8  16  16  16  16
#     4  10  19  34  54  84 120 158 193 230 278 334
#     4  11  21  35  55  82 114 150 192 235 285 339
#     4   9  18  32  51  78 114 153 191 230 275 333
#     4  10  21  38  57  80 111 148 192 240 290 340
#     4  11  23  38  59  84 114 152 195 242 291 342
#
# _framework density 19.287510999999999
#
# number of rings (size 3 to 8) (size 9 to 14) (size 15 to 20)
#    0.000    1.778    1.111    3.667    0.000    3.556 
#    0.000    2.222    0.000    0.667    0.000    4.667 
#    0.000    0.000    0.000    0.000    0.000    0.000 
#
# Total GULP energy -200763.276418 kJ/mol
# GULP energy per Si atom -5576.757678 kJ/mol
# Density = 1.924361 g / cm^3
# Si number density = 19.287511 Si / 1000 Ang^3
#
#
#
# Elastic Constant Matrix: (Units=GPa)
#
#
# Indices 1 2 3 4 5 6 
#
# 1 132.6476 12.3796 34.5337 0.0000 0.0000 0.0000
# 2 12.3796 47.0232 13.6005 0.0000 0.0000 0.0000
# 3 34.5337 13.6005 93.3401 0.0000 0.0000 0.0000
# 4 0.0000 0.0000 0.0000 18.1074 0.0000 0.0000
# 5 0.0000 0.0000 0.0000 0.0000 11.1054 0.0000
# 6 0.0000 0.0000 0.0000 0.0000 0.0000 15.4951
#
#
#
# Elastic Compliance Matrix: (Units=1/GPa)
#
#
# Indices 1 2 3 4 5 6 
#
# 1 0.008427 -0.001375 -0.002917 0.000000 0.000000 0.000000
# 2 -0.001375 0.022426 -0.002759 0.000000 0.000000 0.000000
# 3 -0.002917 -0.002759 0.012195 0.000000 0.000000 0.000000
# 4 0.000000 0.000000 0.000000 0.055226 0.000000 0.000000
# 5 0.000000 0.000000 0.000000 0.000000 0.090046 0.000000
# 6 0.000000 0.000000 0.000000 0.000000 0.000000 0.064536
#
#
# Mechanical properties :
#
#
# Convention : Reuss Voigt Hill
#
# Bulk Modulus (GPa) = 34.54791 43.78205 39.16498
# Shear Modulus (GPa) = 18.07621 23.10806 20.59214
#
# Velocity S-wave (km/s) = 3.06469 3.46509 3.27102
# Velocity P-wave (km/s) = 5.52033 6.22560 5.88354
#
# Compressibility (1/GPa) = 0.02894531
#
# Stress axis : x y z
#
# Youngs Moduli (GPa) = 118.67224 44.59107 82.00157
#
# Poissons Ratio (x) = 0.06130 0.23923
# Poissons Ratio (y) = 0.16313 0.22625
# Poissons Ratio (z) = 0.34621 0.12303
#
# Static dielectric constant tensor:
#      x y z
#    x 1.671730 0.000000 0.000000 
#    y 0.000000 1.676120 0.000000 
#    z 0.000000 0.000000 1.686280 
# 
# From -- ./inp_files/3676.got.cif
#   From: 2010.05.17/outbox.cif.g08.bks.cpg/sg72_2_cif.got.tgz:3676.got - 2010.06.03 17:03:01.
