data_PCOD9526293
_publ_section_title
;
Structure prediction by ZEFSAII (Michael W. Deem and Ramdas Pophale) SiO2 
 PCOD9526293
Probable space group: I B A M
;
_chemical_formula_sum "Si O2"
_cell_formula_units_Z 96
_cell_length_a 21.457916
_cell_length_b 13.496695
_cell_length_c 16.145162
_cell_angle_alpha 90.000000
_cell_angle_beta 90.000000
_cell_angle_gamma 90.000000
_cell_volume 4675.815666
_symmetry_space_group_name_H-M "I B A M"
_symmetry_group_IT_number 72
_symmetry_cell_setting 'orthorhombic'
loop_
_space_group_symop_operation_xyz
x,y,z
-x,-y,z
x,-y,1/2-z
-x,y,1/2-z
-x,-y,-z
x,y,-z
-x,y,1/2+z
x,-y,1/2+z
1/2+x,1/2+y,1/2+z
1/2-x,1/2-y,1/2+z
1/2+x,1/2-y,-z
1/2-x,1/2+y,-z
1/2-x,1/2-y,1/2-z
1/2+x,1/2+y,1/2-z
1/2-x,1/2+y,z
1/2+x,1/2-y,z
loop_
_atom_site_type_symbol
_atom_site_label
_atom_site_fract_x
_atom_site_fract_y
_atom_site_fract_z
Si Si1 0.159961 0.424092 0.904956
Si Si2 0.908187 0.752540 0.404924
Si Si3 0.324328 0.737874 0.169290
Si Si4 0.074649 0.883929 0.246597
Si Si5 0.301616 0.870923 0.667097
Si Si6 0.518887 0.892088 0.600480
O O1 0.192671 0.317524 0.901610
O O2 0.185393 0.512650 0.847956
O O3 0.091044 0.387679 0.877349
O O4 0.156851 0.460321 0.000000
O O5 0.918187 0.782074 0.500000
O O6 0.902007 0.842025 0.341376
O O7 0.847749 0.682914 0.397659
O O8 0.968137 0.688442 0.374103
O O9 0.388815 0.678408 0.182874
O O10 0.319514 0.812825 0.248237
O O11 0.271051 0.654850 0.162223
O O12 0.000000 0.871960 0.250000
O O13 0.088932 0.000000 0.250000
O O14 0.515840 0.891605 0.500000
O O15 0.500000 0.000000 0.631260
#
# Coordination Sequence:
#
# PCOD9526293 Si02
#       6
#    16  16  16  16  16  16
#     4  11  21  35  58  87 120 154 193 246 303 361
#     4  10  19  35  62  92 120 157 205 253 304 366
#     4  10  23  39  57  82 115 155 200 246 297 361
#     4  10  22  42  63  84 117 161 207 254 303 358
#     4  10  21  37  57  80 116 159 195 237 298 366
#     4   9  16  29  53  87 122 148 176 234 308 356
#
# _framework density 20.531178000000001
#
# number of rings (size 3 to 8) (size 9 to 14) (size 15 to 20)
#    0.000    2.000    1.667    2.000    0.000    5.333 
#    0.000    2.500    0.000    0.000    0.000    0.000 
#    0.000    0.000    0.000    0.000    0.000    0.000 
#
# Total GULP energy -267315.414560 kJ/mol
# GULP energy per Si atom -5569.071137 kJ/mol
# Density = 2.048445 g / cm^3
# Si number density = 20.531178 Si / 1000 Ang^3
#
#
#
# Elastic Constant Matrix: (Units=GPa)
#
#
# Indices 1 2 3 4 5 6 
#
# 1 85.9035 51.2576 16.7039 0.0000 0.0000 0.0000
# 2 51.2576 155.9750 40.1593 0.0000 0.0000 0.0000
# 3 16.7039 40.1593 58.9592 0.0000 0.0000 0.0000
# 4 0.0000 0.0000 0.0000 25.4995 0.0000 0.0000
# 5 0.0000 0.0000 0.0000 0.0000 13.9241 0.0000
# 6 0.0000 0.0000 0.0000 0.0000 0.0000 5.5209
#
#
#
# Elastic Compliance Matrix: (Units=1/GPa)
#
#
# Indices 1 2 3 4 5 6 
#
# 1 0.014534 -0.004506 -0.001048 0.000000 0.000000 0.000000
# 2 -0.004506 0.009172 -0.004971 0.000000 0.000000 0.000000
# 3 -0.001048 -0.004971 0.020644 0.000000 0.000000 0.000000
# 4 0.000000 0.000000 0.000000 0.039216 0.000000 0.000000
# 5 0.000000 0.000000 0.000000 0.000000 0.071818 0.000000
# 6 0.000000 0.000000 0.000000 0.000000 0.000000 0.181130
#
#
# Mechanical properties :
#
#
# Convention : Reuss Voigt Hill
#
# Bulk Modulus (GPa) = 42.92049 57.45324 50.18687
# Shear Modulus (GPa) = 13.68624 21.83670 17.76147
#
# Velocity S-wave (km/s) = 2.58468 3.26481 2.94444
# Velocity P-wave (km/s) = 5.46423 6.50047 6.00474
#
# Compressibility (1/GPa) = 0.02329890
#
# Stress axis : x y z
#
# Youngs Moduli (GPa) = 68.80602 109.02781 48.44124
#
# Poissons Ratio (x) = 0.49131 0.05078
# Poissons Ratio (y) = 0.31006 0.24079
# Poissons Ratio (z) = 0.07212 0.54194
#
# Static dielectric constant tensor:
#      x y z
#    x 1.897020 0.000000 0.000000 
#    y 0.000000 1.803370 0.000000 
#    z 0.000000 0.000000 1.796300 
# 
# From -- ./inp_files/33249.got.cif
#   From: 2010.05.17/outbox.cif.g08.bks.cpg/sg72_17_cif.got.tgz:33249.got - 2010.06.03 17:03:01.
