data_PCOD9526353
_publ_section_title
;
Structure prediction by ZEFSAII (Michael W. Deem and Ramdas Pophale) SiO2 
 PCOD9526353
Probable space group: I B A M
;
_chemical_formula_sum "Si O2"
_cell_formula_units_Z 96
_cell_length_a 21.327890
_cell_length_b 14.044596
_cell_length_c 14.563535
_cell_angle_alpha 90.000000
_cell_angle_beta 90.000000
_cell_angle_gamma 90.000000
_cell_volume 4362.384555
_symmetry_space_group_name_H-M "I B A M"
_symmetry_group_IT_number 72
_symmetry_cell_setting 'orthorhombic'
loop_
_space_group_symop_operation_xyz
x,y,z
-x,-y,z
x,-y,1/2-z
-x,y,1/2-z
-x,-y,-z
x,y,-z
-x,y,1/2+z
x,-y,1/2+z
1/2+x,1/2+y,1/2+z
1/2-x,1/2-y,1/2+z
1/2+x,1/2-y,-z
1/2-x,1/2+y,-z
1/2-x,1/2-y,1/2-z
1/2+x,1/2+y,1/2-z
1/2-x,1/2+y,z
1/2+x,1/2-y,z
loop_
_atom_site_type_symbol
_atom_site_label
_atom_site_fract_x
_atom_site_fract_y
_atom_site_fract_z
Si Si1 0.425604 0.388867 0.246915
Si Si2 0.333724 0.652493 0.100722
Si Si3 0.662466 0.875075 0.602230
Si Si4 0.482996 0.894417 0.889015
Si Si5 0.722017 0.146788 0.281974
Si Si6 0.103716 0.728217 0.111239
O O1 0.409791 0.500000 0.250000
O O2 0.500000 0.379132 0.250000
O O3 0.396052 0.348866 0.339655
O O4 0.397728 0.330935 0.160859
O O5 0.319061 0.764552 0.091095
O O6 0.277623 0.604874 0.156912
O O7 0.341990 0.610893 0.000000
O O8 0.668412 0.920333 0.500000
O O9 0.589520 0.875982 0.632094
O O10 0.702322 0.908240 0.689479
O O11 0.537777 0.822034 0.861091
O O12 0.500000 0.000000 0.857244
O O13 0.485550 0.893431 0.000000
O O14 0.750000 0.250000 0.250000
O O15 0.661124 0.169054 0.344516
O O16 0.108687 0.732710 0.000000
#
# Coordination Sequence:
#
# PCOD9526353 Si02
#       6
#    16  16  16  16  16  16
#     4  11  24  41  63  92 123 154 206 270 322 384
#     4  10  20  39  64  86 119 162 201 251 318 382
#     4   9  17  32  59  87 120 164 202 249 310 366
#     4   9  19  36  59  93 131 167 208 252 305 374
#     4  10  19  36  60  88 120 163 215 257 301 379
#     4  11  22  38  64  92 125 168 212 257 314 380
#
# _framework density 22.006312999999999
#
# number of rings (size 3 to 8) (size 9 to 14) (size 15 to 20)
#    0.000    2.000    3.333    1.500    0.000    3.333 
#    0.000    5.000    0.000    2.000    0.000    0.000 
#    0.000    0.000    0.000    0.000    0.000    0.000 
#
# Total GULP energy -267910.902109 kJ/mol
# GULP energy per Si atom -5581.477127 kJ/mol
# Density = 2.195623 g / cm^3
# Si number density = 22.006313 Si / 1000 Ang^3
#
#
#
# Elastic Constant Matrix: (Units=GPa)
#
#
# Indices 1 2 3 4 5 6 
#
# 1 103.5716 13.7032 66.2812 0.0000 0.0000 0.0000
# 2 13.7032 53.4454 26.4819 0.0000 0.0000 0.0000
# 3 66.2812 26.4819 167.5493 0.0000 0.0000 0.0000
# 4 0.0000 0.0000 0.0000 -0.0368 0.0000 0.0000
# 5 0.0000 0.0000 0.0000 0.0000 11.6921 0.0000
# 6 0.0000 0.0000 0.0000 0.0000 0.0000 11.7495
#
#
#
# Elastic Compliance Matrix: (Units=1/GPa)
#
#
# Indices 1 2 3 4 5 6 
#
# 1 0.012963 -0.000849 -0.004994 0.000000 0.000000 0.000000
# 2 -0.000849 0.020356 -0.002881 0.000000 0.000000 0.000000
# 3 -0.004994 -0.002881 0.008399 0.000000 0.000000 0.000000
# 4 0.000000 0.000000 0.000000-27.204848 0.000000 0.000000
# 5 0.000000 0.000000 0.000000 0.000000 0.085528 0.000000
# 6 0.000000 0.000000 0.000000 0.000000 0.000000 0.085110
#
#
# Mechanical properties :
#
#
# Convention : Reuss Voigt Hill
#
# Bulk Modulus (GPa) = 41.20376 59.72207 50.46291
# Shear Modulus (GPa) = -0.18541 19.22096 9.51777
#
# Velocity S-wave (km/s) = -0.29058 2.95859 2.08192
# Velocity P-wave (km/s) = 4.31876 6.23446 5.36284
#
# Compressibility (1/GPa) = 0.02426963
#
# Stress axis : x y z
#
# Youngs Moduli (GPa) = 77.13984 49.12520 119.05609
#
# Poissons Ratio (x) = 0.04172 0.59457
# Poissons Ratio (y) = 0.06551 0.34305
# Poissons Ratio (z) = 0.38524 0.14155
#
# Static dielectric constant tensor:
#      x y z
#    x 1.798710 0.000000 0.000000 
#    y 0.000000 1.645480 0.000000 
#    z 0.000000 0.000000 1.871970 
# 
# From -- ./inp_files/24129.got.cif
#   From: 2010.05.17/outbox.cif.g08.bks.cpg/sg72_13_cif.got.tgz:24129.got - 2010.06.03 17:03:01.
