data_PCOD9526228
_publ_section_title
;
Structure prediction by ZEFSAII (Michael W. Deem and Ramdas Pophale) SiO2 
 PCOD9526228
Probable space group: I B A M
;
_chemical_formula_sum "Si O2"
_cell_formula_units_Z 128
_cell_length_a 8.652993
_cell_length_b 24.846924
_cell_length_c 26.011174
_cell_angle_alpha 90.000000
_cell_angle_beta 90.000000
_cell_angle_gamma 90.000000
_cell_volume 5592.409158
_symmetry_space_group_name_H-M "I B A M"
_symmetry_group_IT_number 72
_symmetry_cell_setting 'orthorhombic'
loop_
_space_group_symop_operation_xyz
x,y,z
-x,-y,z
x,-y,1/2-z
-x,y,1/2-z
-x,-y,-z
x,y,-z
-x,y,1/2+z
x,-y,1/2+z
1/2+x,1/2+y,1/2+z
1/2-x,1/2-y,1/2+z
1/2+x,1/2-y,-z
1/2-x,1/2+y,-z
1/2-x,1/2-y,1/2-z
1/2+x,1/2+y,1/2-z
1/2-x,1/2+y,z
1/2+x,1/2-y,z
loop_
_atom_site_type_symbol
_atom_site_label
_atom_site_fract_x
_atom_site_fract_y
_atom_site_fract_z
Si Si1 0.819761 0.514857 0.191854
Si Si2 0.153966 0.365114 0.786721
Si Si3 0.100971 0.913076 0.940719
Si Si4 0.842385 0.372749 0.059984
Si Si5 0.961884 0.182027 0.612002
Si Si6 0.712519 0.297229 0.790848
Si Si7 0.788420 0.021427 0.588145
Si Si8 0.001297 0.298358 0.869448
O O1 0.777269 0.500000 0.250000
O O2 0.810924 0.578922 0.186742
O O3 0.720199 0.484137 0.149544
O O4 0.000000 0.500000 0.184520
O O5 0.279005 0.349378 0.744813
O O6 0.000000 0.370556 0.750000
O O7 0.128549 0.317486 0.828120
O O8 0.092394 0.860652 0.904422
O O9 0.944320 0.947970 0.929756
O O10 0.224347 0.960679 0.932376
O O11 0.100663 0.895500 0.000000
O O12 0.689804 0.344354 0.085372
O O13 0.838373 0.436394 0.069642
O O14 0.981030 0.346689 0.091050
O O15 0.843420 0.361508 0.000000
O O16 0.935312 0.193620 0.672888
O O17 0.983018 0.244290 0.597158
O O18 0.750000 0.250000 0.750000
O O19 0.850512 0.294114 0.832657
#
# Coordination Sequence:
#
# PCOD9526228 Si02
#       8
#    16  16  16  16  16  16  16  16
#     4  11  22  35  58  88 121 160 195 246 306 360
#     4  10  19  35  55  80 115 162 197 231 288 362
#     4  10  21  40  67  87 114 159 204 259 313 360
#     4  10  21  37  62  85 112 156 204 254 301 356
#     4  10  20  35  57  88 117 150 200 248 298 358
#     4  10  20  34  56  84 116 158 198 235 283 351
#     4  10  20  38  62  88 114 153 208 250 304 373
#     4  10  21  35  58  84 118 154 200 240 291 359
#
# _framework density 22.888169000000001
#
# number of rings (size 3 to 8) (size 9 to 14) (size 15 to 20)
#    0.000    1.875    2.500    3.375    5.250    2.000 
#    0.000    1.250    0.000   10.875    0.000    0.000 
#    0.000    0.000    0.000    0.000    0.000    0.000 
#
# Total GULP energy -356975.733456 kJ/mol
# GULP energy per Si atom -5577.745835 kJ/mol
# Density = 2.283607 g / cm^3
# Si number density = 22.888169 Si / 1000 Ang^3
#
#
#
# Elastic Constant Matrix: (Units=GPa)
#
#
# Indices 1 2 3 4 5 6 
#
# 1 16.7081 15.3804 24.7459 0.0000 0.0000 0.0000
# 2 15.3804 140.5031 55.4666 0.0000 0.0000 0.0000
# 3 24.7459 55.4666 134.9619 0.0000 0.0000 0.0000
# 4 0.0000 0.0000 0.0000 41.8407 0.0000 0.0000
# 5 0.0000 0.0000 0.0000 0.0000 19.8783 0.0000
# 6 0.0000 0.0000 0.0000 0.0000 0.0000 14.5944
#
#
#
# Elastic Compliance Matrix: (Units=1/GPa)
#
#
# Indices 1 2 3 4 5 6 
#
# 1 0.083751 -0.003707 -0.013833 0.000000 0.000000 0.000000
# 2 -0.003707 0.008660 -0.002879 0.000000 0.000000 0.000000
# 3 -0.013833 -0.002879 0.011129 0.000000 0.000000 0.000000
# 4 0.000000 0.000000 0.000000 0.023900 0.000000 0.000000
# 5 0.000000 0.000000 0.000000 0.000000 0.050306 0.000000
# 6 0.000000 0.000000 0.000000 0.000000 0.000000 0.068519
#
#
# Mechanical properties :
#
#
# Convention : Reuss Voigt Hill
#
# Bulk Modulus (GPa) = 15.94850 53.70654 34.82752
# Shear Modulus (GPa) = 16.23353 28.36802 22.30078
#
# Velocity S-wave (km/s) = 2.66607 3.52436 3.12482
# Velocity P-wave (km/s) = 4.05714 6.33065 5.31684
#
# Compressibility (1/GPa) = 0.06270181
#
# Stress axis : x y z
#
# Youngs Moduli (GPa) = 11.94015 115.47688 89.85485
#
# Poissons Ratio (x) = 0.42810 1.24292
# Poissons Ratio (y) = 0.04427 0.25871
# Poissons Ratio (z) = 0.16516 0.33248
#
# Static dielectric constant tensor:
#      x y z
#    x 1.956380 0.000000 0.000000 
#    y 0.000000 1.918900 0.000000 
#    z 0.000000 0.000000 1.832000 
# 
# From -- ./inp_files/43665.got.cif
#   From: 2010.05.17/outbox.cif.g08.bks.cpg/sg72_22_cif.got.tgz:43665.got - 2010.06.03 17:03:01.
