data_PCOD9526913
_publ_section_title
;
Structure prediction by ZEFSAII (Michael W. Deem and Ramdas Pophale) SiO2 
 PCOD9526913
Probable space group: I B A M
;
_chemical_formula_sum "Si O2"
_cell_formula_units_Z 96
_cell_length_a 12.936446
_cell_length_b 18.209633
_cell_length_c 21.707644
_cell_angle_alpha 90.000000
_cell_angle_beta 90.000000
_cell_angle_gamma 90.000000
_cell_volume 5113.624849
_symmetry_space_group_name_H-M "I B A M"
_symmetry_group_IT_number 72
_symmetry_cell_setting 'orthorhombic'
loop_
_space_group_symop_operation_xyz
x,y,z
-x,-y,z
x,-y,1/2-z
-x,y,1/2-z
-x,-y,-z
x,y,-z
-x,y,1/2+z
x,-y,1/2+z
1/2+x,1/2+y,1/2+z
1/2-x,1/2-y,1/2+z
1/2+x,1/2-y,-z
1/2-x,1/2+y,-z
1/2-x,1/2-y,1/2-z
1/2+x,1/2+y,1/2-z
1/2-x,1/2+y,z
1/2+x,1/2-y,z
loop_
_atom_site_type_symbol
_atom_site_label
_atom_site_fract_x
_atom_site_fract_y
_atom_site_fract_z
Si Si1 0.742532 0.153837 0.862421
Si Si2 0.118532 0.525828 0.426462
Si Si3 0.861946 0.193208 0.637422
Si Si4 0.874886 0.913060 0.749611
Si Si5 0.572515 0.727862 0.073127
Si Si6 0.318479 0.871126 0.428443
O O1 0.680577 0.227076 0.842906
O O2 0.812840 0.121259 0.807777
O O3 0.825342 0.179810 0.914021
O O4 0.661736 0.095222 0.889699
O O5 0.156140 0.379096 0.500000
O O6 0.180070 0.453461 0.404185
O O7 0.000000 0.500000 0.417625
O O8 0.791535 0.165943 0.581073
O O9 0.843932 0.133840 0.690584
O O10 0.978196 0.198844 0.613478
O O11 0.000000 0.905511 0.750000
O O12 0.852355 0.000000 0.750000
O O13 0.599844 0.810949 0.095205
O O14 0.549344 0.728652 0.000000
O O15 0.632302 0.960354 0.500000
#
# Coordination Sequence:
#
# PCOD9526913 Si02
#       6
#    16  16  16  16  16  16
#     4  11  22  38  61  87 120 156 203 254 299 356
#     4  10  20  36  59  88 122 159 195 237 301 368
#     4  11  21  37  60  85 115 154 195 248 297 352
#     4  11  23  41  62  82 113 156 203 249 304 362
#     4  10  20  35  57  89 122 155 197 242 297 363
#     4   9  19  34  54  83 118 152 189 236 294 358
#
# _framework density 18.773375000000001
#
# number of rings (size 3 to 8) (size 9 to 14) (size 15 to 20)
#    0.000    1.667    1.667    3.500    0.000    3.333 
#    0.000    0.000    0.000    5.000    0.000    0.000 
#    0.000    0.000    0.000    0.000    0.000    0.000 
#
# Total GULP energy -267558.651335 kJ/mol
# GULP energy per Si atom -5574.138569 kJ/mol
# Density = 1.873065 g / cm^3
# Si number density = 18.773375 Si / 1000 Ang^3
#
#
#
# Elastic Constant Matrix: (Units=GPa)
#
#
# Indices 1 2 3 4 5 6 
#
# 1 83.7991 46.0809 23.8855 0.0000 0.0000 0.0000
# 2 46.0809 135.9366 40.9442 0.0000 0.0000 0.0000
# 3 23.8855 40.9442 65.2198 0.0000 0.0000 0.0000
# 4 0.0000 0.0000 0.0000 27.6796 0.0000 0.0000
# 5 0.0000 0.0000 0.0000 0.0000 15.9652 0.0000
# 6 0.0000 0.0000 0.0000 0.0000 0.0000 29.6182
#
#
#
# Elastic Compliance Matrix: (Units=1/GPa)
#
#
# Indices 1 2 3 4 5 6 
#
# 1 0.015086 -0.004254 -0.002854 0.000000 0.000000 0.000000
# 2 -0.004254 0.010272 -0.004890 0.000000 0.000000 0.000000
# 3 -0.002854 -0.004890 0.019448 0.000000 0.000000 0.000000
# 4 0.000000 0.000000 0.000000 0.036128 0.000000 0.000000
# 5 0.000000 0.000000 0.000000 0.000000 0.062636 0.000000
# 6 0.000000 0.000000 0.000000 0.000000 0.000000 0.033763
#
#
# Mechanical properties :
#
#
# Convention : Reuss Voigt Hill
#
# Bulk Modulus (GPa) = 48.05791 56.30852 52.18322
# Shear Modulus (GPa) = 24.00767 26.25558 25.13163
#
# Velocity S-wave (km/s) = 3.57993 3.74378 3.66277
# Velocity P-wave (km/s) = 6.53777 6.98189 6.76348
#
# Compressibility (1/GPa) = 0.02080823
#
# Stress axis : x y z
#
# Youngs Moduli (GPa) = 66.28522 97.35673 51.41883
#
# Poissons Ratio (x) = 0.41419 0.14676
# Poissons Ratio (y) = 0.28200 0.25145
# Poissons Ratio (z) = 0.18919 0.47610
#
# Static dielectric constant tensor:
#      x y z
#    x 1.666240 0.000000 0.000000 
#    y 0.000000 1.678920 0.000000 
#    z 0.000000 0.000000 1.638740 
# 
# From -- ./inp_files/43338.got.cif
#   From: 2010.05.17/outbox.cif.g08.bks.cpg/sg72_22_cif.got.tgz:43338.got - 2010.06.03 17:03:01.
