data_PCOD9526114
_publ_section_title
;
Structure prediction by ZEFSAII (Michael W. Deem and Ramdas Pophale) SiO2 
 PCOD9526114
Probable space group: I B A M
;
_chemical_formula_sum "Si O2"
_cell_formula_units_Z 80
_cell_length_a 8.331616
_cell_length_b 24.614611
_cell_length_c 15.346168
_cell_angle_alpha 90.000000
_cell_angle_beta 90.000000
_cell_angle_gamma 90.000000
_cell_volume 3147.184258
_symmetry_space_group_name_H-M "I B A M"
_symmetry_group_IT_number 72
_symmetry_cell_setting 'orthorhombic'
loop_
_space_group_symop_operation_xyz
x,y,z
-x,-y,z
x,-y,1/2-z
-x,y,1/2-z
-x,-y,-z
x,y,-z
-x,y,1/2+z
x,-y,1/2+z
1/2+x,1/2+y,1/2+z
1/2-x,1/2-y,1/2+z
1/2+x,1/2-y,-z
1/2-x,1/2+y,-z
1/2-x,1/2-y,1/2-z
1/2+x,1/2+y,1/2-z
1/2-x,1/2+y,z
1/2+x,1/2-y,z
loop_
_atom_site_type_symbol
_atom_site_label
_atom_site_fract_x
_atom_site_fract_y
_atom_site_fract_z
Si Si1 0.670828 0.429451 0.894832
Si Si2 0.491711 0.862883 0.348337
Si Si3 0.514967 0.668896 0.892535
Si Si4 0.330985 0.966538 0.100643
Si Si5 0.319300 0.767381 0.099096
O O1 0.522883 0.392460 0.865032
O O2 0.703984 0.490378 0.861989
O O3 0.828642 0.393060 0.875125
O O4 0.661605 0.435093 0.000000
O O5 0.500000 0.843822 0.250000
O O6 0.628033 0.909697 0.356226
O O7 0.532932 0.809704 0.402844
O O8 0.375296 0.710354 0.863068
O O9 0.676020 0.697750 0.860737
O O10 0.517787 0.667930 0.000000
O O11 0.500000 0.000000 0.101004
O O12 0.290514 0.954226 0.000000
O O13 0.272045 0.755541 0.000000
#
# Coordination Sequence:
#
# PCOD9526114 Si02
#       5
#    16  16  16  16  16
#     4   9  17  33  55  78 104 136 179 228 275 324
#     4  11  21  32  49  78 109 146 184 220 265 319
#     4   9  18  33  57  83 105 138 183 231 278 325
#     4   8  15  29  51  76 102 133 173 223 270 315
#     4  10  19  34  55  79 109 143 182 226 273 324
#
# _framework density 25.419546
#
# number of rings (size 3 to 8) (size 9 to 14) (size 15 to 20)
#    0.000    2.600    0.000    4.200    0.000    6.800 
#    0.000    6.000    0.000    4.800    0.000    8.400 
#    0.000    0.000    0.000    0.000    0.000    0.400 
#
# Total GULP energy -223540.419176 kJ/mol
# GULP energy per Si atom -5588.510479 kJ/mol
# Density = 2.536169 g / cm^3
# Si number density = 25.419546 Si / 1000 Ang^3
#
#
#
# Elastic Constant Matrix: (Units=GPa)
#
#
# Indices 1 2 3 4 5 6 
#
# 1 60.3695 12.3602 3.5138 0.0001 0.0000 0.0000
# 2 12.3602 109.2858 11.9937 0.0001 0.0000 0.0000
# 3 3.5138 11.9937 54.7339 0.0004 0.0000 0.0000
# 4 0.0001 0.0001 0.0004 54.2190 0.0000 0.0000
# 5 0.0000 0.0000 0.0000 0.0000 -6.2284 0.0000
# 6 0.0000 0.0000 0.0000 0.0000 0.0000 38.9560
#
#
#
# Elastic Compliance Matrix: (Units=1/GPa)
#
#
# Indices 1 2 3 4 5 6 
#
# 1 0.016982 -0.001845 -0.000686 0.000000 0.000000 0.000000
# 2 -0.001845 0.009576 -0.001980 0.000000 0.000000 0.000000
# 3 -0.000686 -0.001980 0.018748 0.000000 0.000000 0.000000
# 4 0.000000 0.000000 0.000000 0.018444 0.000000 0.000000
# 5 0.000000 0.000000 0.000000 0.000000 -0.160554 0.000000
# 6 0.000000 0.000000 0.000000 0.000000 0.000000 0.025670
#
#
# Mechanical properties :
#
#
# Convention : Reuss Voigt Hill
#
# Bulk Modulus (GPa) = 27.56008 31.12496 29.34252
# Shear Modulus (GPa) = -99.96662 30.49077 -34.73792
#
# Velocity S-wave (km/s) = -6.27790 3.46714 -3.70074
# Velocity P-wave (km/s) = 6.45630 5.31969 2.58695
#
# Compressibility (1/GPa) = 0.03628436
#
# Stress axis : x y z
#
# Youngs Moduli (GPa) = 58.88445 104.42414 53.33871
#
# Poissons Ratio (x) = 0.19271 0.03658
# Poissons Ratio (y) = 0.10867 0.10561
# Poissons Ratio (z) = 0.04039 0.20676
#
# Static dielectric constant tensor:
#      x y z
#    x 2.119650 0.000000 0.000000 
#    y 0.000000 1.951310 0.000000 
#    z 0.000000 0.000000 1.961480 
# 
# From -- ./inp_files/28201.got.cif
#   From: 2010.05.17/outbox.cif.g08.bks.cpg/sg72_15_cif.got.tgz:28201.got - 2010.06.03 17:03:01.
