data_PCOD9526453
_publ_section_title
;
Structure prediction by ZEFSAII (Michael W. Deem and Ramdas Pophale) SiO2 
 PCOD9526453
Probable space group: I B A M
;
_chemical_formula_sum "Si O2"
_cell_formula_units_Z 56
_cell_length_a 8.330433
_cell_length_b 12.741640
_cell_length_c 21.798030
_cell_angle_alpha 90.000000
_cell_angle_beta 90.000000
_cell_angle_gamma 90.000000
_cell_volume 2313.716545
_symmetry_space_group_name_H-M "I B A M"
_symmetry_group_IT_number 72
_symmetry_cell_setting 'orthorhombic'
loop_
_space_group_symop_operation_xyz
x,y,z
-x,-y,z
x,-y,1/2-z
-x,y,1/2-z
-x,-y,-z
x,y,-z
-x,y,1/2+z
x,-y,1/2+z
1/2+x,1/2+y,1/2+z
1/2-x,1/2-y,1/2+z
1/2+x,1/2-y,-z
1/2-x,1/2+y,-z
1/2-x,1/2-y,1/2-z
1/2+x,1/2+y,1/2-z
1/2-x,1/2+y,z
1/2+x,1/2-y,z
loop_
_atom_site_type_symbol
_atom_site_label
_atom_site_fract_x
_atom_site_fract_y
_atom_site_fract_z
Si Si1 0.723390 0.820825 0.568409
Si Si2 0.995543 0.801650 0.660522
Si Si3 0.198156 0.404069 0.299098
Si Si4 0.500000 0.000000 0.594159
O O1 0.779887 0.787053 0.500000
O O2 0.860769 0.853519 0.617199
O O3 0.620042 0.739933 0.608632
O O4 0.596069 0.912407 0.559932
O O5 0.905576 0.706588 0.698054
O O6 0.115510 0.872834 0.700133
O O7 0.172695 0.500000 0.250000
O O8 0.134381 0.450348 0.362243
#
# Coordination Sequence:
#
# PCOD9526453 Si02
#       4
#    16  16  16   8
#     4  10  19  38  64  96 135 174 216 279 335 393
#     4   9  21  40  67 101 131 175 233 269 333 419
#     4  10  21  44  67  93 137 181 223 285 337 391
#     4  10  22  38  60  94 132 174 228 270 326 410
#
# _framework density 24.203482000000001
#
# number of rings (size 3 to 8) (size 9 to 14) (size 15 to 20)
#    0.000    2.286    0.000    1.714    0.000    1.143 
#    0.000   47.143    0.000    0.000    0.000    0.000 
#    0.000    0.000    0.000    0.000    0.000    0.000 
#
# Total GULP energy -155936.767861 kJ/mol
# GULP energy per Si atom -5569.170281 kJ/mol
# Density = 2.414839 g / cm^3
# Si number density = 24.203482 Si / 1000 Ang^3
#
#
#
# Elastic Constant Matrix: (Units=GPa)
#
#
# Indices 1 2 3 4 5 6 
#
# 1 155.0463 67.1995 76.8492 0.0000 0.0000 0.0000
# 2 67.1995 90.4732 58.7365 0.0000 0.0000 0.0000
# 3 76.8492 58.7365 142.1886 0.0000 0.0000 0.0000
# 4 0.0000 0.0000 0.0000 -743.2527 0.0000 0.0000
# 5 0.0000 0.0000 0.0000 0.0000 12.7224 0.0000
# 6 0.0000 0.0000 0.0000 0.0000 0.0000 36.1403
#
#
#
# Elastic Compliance Matrix: (Units=1/GPa)
#
#
# Indices 1 2 3 4 5 6 
#
# 1 0.010579 -0.005665 -0.003378 0.000000 0.000000 0.000000
# 2 -0.005665 0.018137 -0.004430 0.000000 0.000000 0.000000
# 3 -0.003378 -0.004430 0.010689 0.000000 0.000000 0.000000
# 4 0.000000 0.000000 0.000000 -0.001345 0.000000 0.000000
# 5 0.000000 0.000000 0.000000 0.000000 0.078601 0.000000
# 6 0.000000 0.000000 0.000000 0.000000 0.000000 0.027670
#
#
# Mechanical properties :
#
#
# Convention : Reuss Voigt Hill
#
# Bulk Modulus (GPa) = 80.26504 88.14205 84.20354
# Shear Modulus (GPa) = 28.50154 -126.54980 -49.02413
#
# Velocity S-wave (km/s) = 3.43531 -7.23874 -4.50544
# Velocity P-wave (km/s) = 6.99784 5.77664 2.79286
#
# Compressibility (1/GPa) = 0.01245872
#
# Stress axis : x y z
#
# Youngs Moduli (GPa) = 94.52645 55.13615 93.55776
#
# Poissons Ratio (x) = 0.31234 0.31600
# Poissons Ratio (y) = 0.53548 0.41450
# Poissons Ratio (z) = 0.31927 0.24428
#
# Static dielectric constant tensor:
#      x y z
#    x 1.963640 0.000000 0.000000 
#    y 0.000000 2.004240 0.000000 
#    z 0.000000 0.000000 1.183770 
# 
# From -- ./inp_files/35212.got.cif
#   From: 2010.05.17/outbox.cif.g08.bks.cpg/sg72_18_cif.got.tgz:35212.got - 2010.06.03 17:03:01.
