data_PCOD9526767
_publ_section_title
;
Structure prediction by ZEFSAII (Michael W. Deem and Ramdas Pophale) SiO2 
 PCOD9526767
Probable space group: I B A M
;
_chemical_formula_sum "Si O2"
_cell_formula_units_Z 116
_cell_length_a 16.379216
_cell_length_b 24.254465
_cell_length_c 14.526717
_cell_angle_alpha 90.000000
_cell_angle_beta 90.000000
_cell_angle_gamma 90.000000
_cell_volume 5771.016097
_symmetry_space_group_name_H-M "I B A M"
_symmetry_group_IT_number 72
_symmetry_cell_setting 'orthorhombic'
loop_
_space_group_symop_operation_xyz
x,y,z
-x,-y,z
x,-y,1/2-z
-x,y,1/2-z
-x,-y,-z
x,y,-z
-x,y,1/2+z
x,-y,1/2+z
1/2+x,1/2+y,1/2+z
1/2-x,1/2-y,1/2+z
1/2+x,1/2-y,-z
1/2-x,1/2+y,-z
1/2-x,1/2-y,1/2-z
1/2+x,1/2+y,1/2-z
1/2-x,1/2+y,z
1/2+x,1/2-y,z
loop_
_atom_site_type_symbol
_atom_site_label
_atom_site_fract_x
_atom_site_fract_y
_atom_site_fract_z
Si Si1 0.193656 0.988950 0.611943
Si Si2 0.331438 0.698170 0.602693
Si Si3 0.608691 0.378774 0.888495
Si Si4 0.427114 0.583956 0.389842
Si Si5 0.090807 0.769358 0.278193
Si Si6 0.641529 0.826329 0.601965
Si Si7 0.633428 0.043933 0.109765
Si Si8 0.000000 0.500000 0.750000
O O1 0.190013 0.990508 0.500000
O O2 0.173096 0.926249 0.638145
O O3 0.122958 0.031109 0.645638
O O4 0.283490 0.011254 0.635358
O O5 0.359557 0.714124 0.500000
O O6 0.371676 0.638342 0.623077
O O7 0.358815 0.736591 0.684841
O O8 0.234572 0.694328 0.602684
O O9 0.519384 0.402752 0.859985
O O10 0.623006 0.319889 0.840892
O O11 0.608711 0.372005 0.000000
O O12 0.434410 0.575505 0.500000
O O13 0.091562 0.711739 0.330206
O O14 0.000000 0.785059 0.250000
O O15 0.606777 0.818628 0.500000
O O16 0.647471 0.890966 0.619340
O O17 0.560505 0.030612 0.179130
O O18 0.616588 0.032918 0.000000
#
# Coordination Sequence:
#
# PCOD9526767 Si02
#       8
#    16  16  16  16  16  16  16   4
#     4   9  17  34  62  89 120 164 207 252 308 378
#     4  10  20  38  61  83 115 164 213 258 306 366
#     4  10  20  34  56  91 134 168 200 248 308 369
#     4   9  15  30  56  85 118 162 205 240 297 374
#     4  12  24  36  58  90 129 166 212 258 309 374
#     4  10  22  42  67  87 116 165 217 262 313 377
#     4  10  22  43  67  93 122 158 207 265 327 384
#     4  12  26  40  68  94 122 152 198 272 338 382
#
# _framework density 20.100446999999999
#
# number of rings (size 3 to 8) (size 9 to 14) (size 15 to 20)
#    0.000    1.931    2.759    1.448    0.966    3.310 
#    0.000    0.000    0.000    0.000    0.000    0.000 
#    0.000    0.000    0.000    0.000    0.000    0.000 
#
# Total GULP energy -323771.316708 kJ/mol
# GULP energy per Si atom -5582.264081 kJ/mol
# Density = 2.005470 g / cm^3
# Si number density = 20.100447 Si / 1000 Ang^3
#
#
#
# Elastic Constant Matrix: (Units=GPa)
#
#
# Indices 1 2 3 4 5 6 
#
# 1 52.1252 19.8587 25.2741 0.0000 0.0000 0.0000
# 2 19.8587 47.2454 33.6104 0.0000 0.0000 0.0000
# 3 25.2741 33.6104 79.0675 0.0001 0.0000 0.0001
# 4 0.0000 0.0000 0.0001 9.8723 0.0000 0.0000
# 5 0.0000 0.0000 0.0000 0.0000 20.6645 0.0001
# 6 0.0000 0.0000 0.0001 0.0000 0.0001 316.8848
#
#
#
# Elastic Compliance Matrix: (Units=1/GPa)
#
#
# Indices 1 2 3 4 5 6 
#
# 1 0.024082 -0.006660 -0.004867 0.000000 0.000000 0.000000
# 2 -0.006660 0.032184 -0.011552 0.000000 0.000000 0.000000
# 3 -0.004867 -0.011552 0.019114 0.000000 0.000000 0.000000
# 4 0.000000 0.000000 0.000000 0.101294 0.000000 0.000000
# 5 0.000000 0.000000 0.000000 0.000000 0.048392 0.000000
# 6 0.000000 0.000000 0.000000 0.000000 0.000000 0.003156
#
#
# Mechanical properties :
#
#
# Convention : Reuss Voigt Hill
#
# Bulk Modulus (GPa) = 34.22128 37.32495 35.77312
# Shear Modulus (GPa) = 17.59831 76.13064 46.86448
#
# Velocity S-wave (km/s) = 2.96213 6.16095 4.83381
# Velocity P-wave (km/s) = 5.36293 8.31981 6.99930
#
# Compressibility (1/GPa) = 0.02922158
#
# Stress axis : x y z
#
# Youngs Moduli (GPa) = 41.52537 31.07181 52.31889
#
# Poissons Ratio (x) = 0.20694 0.25462
# Poissons Ratio (y) = 0.27656 0.60438
# Poissons Ratio (z) = 0.20209 0.35894
#
# Static dielectric constant tensor:
#      x y z
#    x 1.701600 0.000000 0.000000 
#    y 0.000000 1.697830 0.000000 
#    z 0.000000 0.000000 1.769910 
# 
# From -- ./inp_files/23546.got.cif
#   From: 2010.05.17/outbox.cif.g08.bks.cpg/sg72_12_cif.got.tgz:23546.got - 2010.06.03 17:03:01.
