data_PCOD9526380
_publ_section_title
;
Structure prediction by ZEFSAII (Michael W. Deem and Ramdas Pophale) SiO2 
 PCOD9526380
Probable space group: I B A M
;
_chemical_formula_sum "Si O2"
_cell_formula_units_Z 100
_cell_length_a 7.719269
_cell_length_b 31.719307
_cell_length_c 20.876610
_cell_angle_alpha 90.000000
_cell_angle_beta 90.000000
_cell_angle_gamma 90.000000
_cell_volume 5111.635103
_symmetry_space_group_name_H-M "I B A M"
_symmetry_group_IT_number 72
_symmetry_cell_setting 'orthorhombic'
loop_
_space_group_symop_operation_xyz
x,y,z
-x,-y,z
x,-y,1/2-z
-x,y,1/2-z
-x,-y,-z
x,y,-z
-x,y,1/2+z
x,-y,1/2+z
1/2+x,1/2+y,1/2+z
1/2-x,1/2-y,1/2+z
1/2+x,1/2-y,-z
1/2-x,1/2+y,-z
1/2-x,1/2-y,1/2-z
1/2+x,1/2+y,1/2-z
1/2-x,1/2+y,z
1/2+x,1/2-y,z
loop_
_atom_site_type_symbol
_atom_site_label
_atom_site_fract_x
_atom_site_fract_y
_atom_site_fract_z
Si Si1 0.500000 0.000000 0.250000
Si Si2 0.690813 0.438997 0.270188
Si Si3 0.388025 0.288787 0.813455
Si Si4 0.763596 0.792563 0.131195
Si Si5 0.235718 0.369055 0.130761
Si Si6 0.427081 0.230675 0.000000
Si Si7 0.208913 0.821280 0.000000
Si Si8 0.389203 0.123190 0.814632
O O1 0.644709 0.029883 0.214829
O O2 0.500000 0.454972 0.250000
O O3 0.669335 0.406010 0.329263
O O4 0.763071 0.413805 0.207922
O O5 0.500000 0.295064 0.750000
O O6 0.298760 0.244033 0.820596
O O7 0.531091 0.289643 0.869414
O O8 0.256678 0.326517 0.826560
O O9 0.673377 0.784483 0.063683
O O10 0.714518 0.836903 0.161293
O O11 0.036153 0.383926 0.131875
O O12 0.294057 0.352296 0.061576
O O13 0.610965 0.206169 0.000000
O O14 0.424888 0.281900 0.000000
O O15 0.500000 0.130973 0.750000
#
# Coordination Sequence:
#
# PCOD9526380 Si02
#       8
#     4  16  16  16  16   8   8  16
#     4  12  22  44  76 108 140 156 198 264 350 418
#     4  11  23  43  70 106 134 163 201 262 343 413
#     4  12  23  35  53  79 113 162 215 276 330 376
#     4  12  22  35  52  77 114 167 225 270 320 375
#     4  11  21  39  59  87 128 171 218 271 322 383
#     4  12  24  38  52  76 118 173 242 288 311 360
#     4  12  24  40  58  79 129 185 237 286 319 365
#     4  10  19  37  58  84 126 160 206 268 325 383
#
# _framework density 19.563212
#
# number of rings (size 3 to 8) (size 9 to 14) (size 15 to 20)
#    0.000    0.640    5.600    6.480    0.000    0.000 
#    0.000    0.000    0.000    0.480    0.000    1.120 
#    0.000    0.000    0.000    0.000    0.000    0.000 
#
# Total GULP energy -278810.015169 kJ/mol
# GULP energy per Si atom -5576.200303 kJ/mol
# Density = 1.951869 g / cm^3
# Si number density = 19.563212 Si / 1000 Ang^3
#
#
#
# Elastic Constant Matrix: (Units=GPa)
#
#
# Indices 1 2 3 4 5 6 
#
# 1 99.6882 22.1114 0.9595 0.0000 0.0000 0.0000
# 2 22.1114 87.1578 18.3401 0.0000 0.0000 0.0000
# 3 0.9595 18.3401 78.3207 0.0001 0.0000 0.0001
# 4 0.0000 0.0000 0.0001 50.5189 0.0000 0.0000
# 5 0.0000 0.0000 0.0000 0.0000 24.3320 0.0000
# 6 0.0000 0.0000 0.0001 0.0000 0.0000 150.0555
#
#
#
# Elastic Compliance Matrix: (Units=1/GPa)
#
#
# Indices 1 2 3 4 5 6 
#
# 1 0.010650 -0.002813 0.000528 0.000000 0.000000 0.000000
# 2 -0.002813 0.012811 -0.002965 0.000000 0.000000 0.000000
# 3 0.000528 -0.002965 0.013456 0.000000 0.000000 0.000000
# 4 0.000000 0.000000 0.000000 0.019795 0.000000 0.000000
# 5 0.000000 0.000000 0.000000 0.000000 0.041098 0.000000
# 6 0.000000 0.000000 0.000000 0.000000 0.000000 0.006664
#
#
# Mechanical properties :
#
#
# Convention : Reuss Voigt Hill
#
# Bulk Modulus (GPa) = 37.85485 38.66540 38.26013
# Shear Modulus (GPa) = 40.39415 59.89832 50.14623
#
# Velocity S-wave (km/s) = 4.54894 5.53934 5.06839
# Velocity P-wave (km/s) = 6.85438 7.79228 7.33833
#
# Compressibility (1/GPa) = 0.02641669
#
# Stress axis : x y z
#
# Youngs Moduli (GPa) = 93.89547 78.05734 74.31646
#
# Poissons Ratio (x) = 0.21958 -0.03926
# Poissons Ratio (y) = 0.26413 0.22038
# Poissons Ratio (z) = -0.04960 0.23148
#
# Static dielectric constant tensor:
#      x y z
#    x 1.755490 0.000000 0.000000 
#    y 0.000000 2.128060 0.000000 
#    z 0.000000 0.000000 1.734790 
# 
# From -- ./inp_files/36288.got.cif
#   From: 2010.05.17/outbox.cif.g08.bks.cpg/sg72_19_cif.got.tgz:36288.got - 2010.06.03 17:03:01.
