data_PCOD9526592
_publ_section_title
;
Structure prediction by ZEFSAII (Michael W. Deem and Ramdas Pophale) SiO2 
 PCOD9526592
Probable space group: I B A M
;
_chemical_formula_sum "Si O2"
_cell_formula_units_Z 80
_cell_length_a 8.900207
_cell_length_b 28.547670
_cell_length_c 15.007811
_cell_angle_alpha 90.000000
_cell_angle_beta 90.000000
_cell_angle_gamma 90.000000
_cell_volume 3813.187206
_symmetry_space_group_name_H-M "I B A M"
_symmetry_group_IT_number 72
_symmetry_cell_setting 'orthorhombic'
loop_
_space_group_symop_operation_xyz
x,y,z
-x,-y,z
x,-y,1/2-z
-x,y,1/2-z
-x,-y,-z
x,y,-z
-x,y,1/2+z
x,-y,1/2+z
1/2+x,1/2+y,1/2+z
1/2-x,1/2-y,1/2+z
1/2+x,1/2-y,-z
1/2-x,1/2+y,-z
1/2-x,1/2-y,1/2-z
1/2+x,1/2+y,1/2-z
1/2-x,1/2+y,z
1/2+x,1/2-y,z
loop_
_atom_site_type_symbol
_atom_site_label
_atom_site_fract_x
_atom_site_fract_y
_atom_site_fract_z
Si Si1 0.468703 0.774722 0.395274
Si Si2 0.558548 0.951556 0.852743
Si Si3 0.604827 0.864207 0.663433
Si Si4 0.152425 0.908432 0.713762
Si Si5 0.144566 0.813774 0.391764
O O1 0.447281 0.768056 0.500000
O O2 0.598196 0.814078 0.382698
O O3 0.309705 0.794990 0.362803
O O4 0.525058 0.725032 0.360331
O O5 0.500000 0.952372 0.750000
O O6 0.481991 0.904760 0.891439
O O7 0.735335 0.942747 0.839925
O O8 0.500000 0.000000 0.892874
O O9 0.500000 0.856513 0.750000
O O10 0.756531 0.886171 0.702139
O O11 0.118129 0.864117 0.651018
O O12 0.000000 0.930423 0.750000
O O13 0.142605 0.817040 0.500000
#
# Coordination Sequence:
#
# PCOD9526592 Si02
#       5
#    16  16  16  16  16
#     4  10  20  34  50  71 105 148 186 218 263 315
#     4   8  15  32  54  74 103 135 164 219 268 314
#     4   9  17  33  49  73 103 134 174 222 263 309
#     4  10  20  33  52  81 108 136 178 221 267 312
#     4  10  21  35  50  73 108 149 185 217 261 316
#
# _framework density 20.979825999999999
#
# number of rings (size 3 to 8) (size 9 to 14) (size 15 to 20)
#    0.000    3.000    4.000    0.000    2.800    1.600 
#    0.000    8.000    0.000    2.400    0.000    0.000 
#    0.000   36.000    0.000    0.000    0.000    0.000 
#
# Total GULP energy -222860.443367 kJ/mol
# GULP energy per Si atom -5571.511084 kJ/mol
# Density = 2.093208 g / cm^3
# Si number density = 20.979826 Si / 1000 Ang^3
#
#
#
# Elastic Constant Matrix: (Units=GPa)
#
#
# Indices 1 2 3 4 5 6 
#
# 1 86.3258 19.3538 14.0489 0.0000 0.0000 0.0000
# 2 19.3538 109.5285 11.9053 0.0001 0.0000 0.0000
# 3 14.0489 11.9053 33.7610 0.0003 0.0000 0.0000
# 4 0.0000 0.0001 0.0003 18.5328 0.0000 0.0000
# 5 0.0000 0.0000 0.0000 0.0000 9.8968 0.0000
# 6 0.0000 0.0000 0.0000 0.0000 0.0000 23.4225
#
#
#
# Elastic Compliance Matrix: (Units=1/GPa)
#
#
# Indices 1 2 3 4 5 6 
#
# 1 0.012737 -0.001741 -0.004686 0.000000 0.000000 0.000000
# 2 -0.001741 0.009732 -0.002707 0.000000 0.000000 0.000000
# 3 -0.004686 -0.002707 0.032525 0.000000 0.000000 0.000000
# 4 0.000000 0.000000 0.000000 0.053958 0.000000 0.000000
# 5 0.000000 0.000000 0.000000 0.000000 0.101043 0.000000
# 6 0.000000 0.000000 0.000000 0.000000 0.000000 0.042694
#
#
# Mechanical properties :
#
#
# Convention : Reuss Voigt Hill
#
# Bulk Modulus (GPa) = 27.22993 35.58125 31.40559
# Shear Modulus (GPa) = 17.65536 22.65756 20.15646
#
# Velocity S-wave (km/s) = 2.90408 3.28985 3.10297
# Velocity P-wave (km/s) = 4.92465 5.60602 5.27634
#
# Compressibility (1/GPa) = 0.03672430
#
# Stress axis : x y z
#
# Youngs Moduli (GPa) = 78.51106 102.75379 30.74587
#
# Poissons Ratio (x) = 0.17892 0.14408
# Poissons Ratio (y) = 0.13671 0.08324
# Poissons Ratio (z) = 0.36792 0.27818
#
# Static dielectric constant tensor:
#      x y z
#    x 1.813430 0.000000 0.000000 
#    y 0.000000 1.858320 0.000000 
#    z 0.000000 0.000000 1.758090 
# 
# From -- ./inp_files/28144.got.cif
#   From: 2010.05.17/outbox.cif.g08.bks.cpg/sg72_15_cif.got.tgz:28144.got - 2010.06.03 17:03:01.
