data_PCOD9526370
_publ_section_title
;
Structure prediction by ZEFSAII (Michael W. Deem and Ramdas Pophale) SiO2 
 PCOD9526370
Probable space group: I B A M
;
_chemical_formula_sum "Si O2"
_cell_formula_units_Z 96
_cell_length_a 22.823840
_cell_length_b 13.820304
_cell_length_c 13.810434
_cell_angle_alpha 90.000000
_cell_angle_beta 90.000000
_cell_angle_gamma 90.000000
_cell_volume 4356.258442
_symmetry_space_group_name_H-M "I B A M"
_symmetry_group_IT_number 72
_symmetry_cell_setting 'orthorhombic'
loop_
_space_group_symop_operation_xyz
x,y,z
-x,-y,z
x,-y,1/2-z
-x,y,1/2-z
-x,-y,-z
x,y,-z
-x,y,1/2+z
x,-y,1/2+z
1/2+x,1/2+y,1/2+z
1/2-x,1/2-y,1/2+z
1/2+x,1/2-y,-z
1/2-x,1/2+y,-z
1/2-x,1/2-y,1/2-z
1/2+x,1/2+y,1/2-z
1/2-x,1/2+y,z
1/2+x,1/2-y,z
loop_
_atom_site_type_symbol
_atom_site_label
_atom_site_fract_x
_atom_site_fract_y
_atom_site_fract_z
Si Si1 0.621318 0.076813 0.116680
Si Si2 0.759534 0.944318 0.382488
Si Si3 0.120952 0.364045 0.615123
Si Si4 0.732928 0.764623 0.115934
Si Si5 0.155636 0.121967 0.116767
Si Si6 0.568252 0.740157 0.731060
O O1 0.690448 0.063673 0.142738
O O2 0.587364 0.164872 0.167175
O O3 0.596831 0.969593 0.141326
O O4 0.618678 0.090632 0.000000
O O5 0.758476 0.949922 0.500000
O O6 0.784207 0.840851 0.348370
O O7 0.804256 0.029628 0.355828
O O8 0.117127 0.358761 0.500000
O O9 0.189099 0.349613 0.644464
O O10 0.091970 0.272359 0.664391
O O11 0.799855 0.788852 0.135241
O O12 0.729007 0.761001 0.000000
O O13 0.099061 0.148882 0.179413
O O14 0.143643 0.117701 0.000000
O O15 0.500000 0.727109 0.750000
#
# Coordination Sequence:
#
# PCOD9526370 Si02
#       6
#    16  16  16  16  16  16
#     4  10  19  37  63  91 123 162 207 267 335 388
#     4   9  16  31  60  96 129 156 197 265 338 402
#     4  10  22  39  58  83 122 166 211 268 325 382
#     4   9  16  32  60  92 125 156 199 266 337 395
#     4  10  19  36  64  95 127 164 208 265 333 393
#     4  12  26  40  56  87 130 178 224 255 300 393
#
# _framework density 22.037258999999999
#
# number of rings (size 3 to 8) (size 9 to 14) (size 15 to 20)
#    0.000    2.000    3.333    1.000    0.000    3.333 
#    0.000    2.500    0.000    2.000    0.000    4.667 
#    0.000    0.000    0.000    0.000    0.000    0.000 
#
# Total GULP energy -267815.926717 kJ/mol
# GULP energy per Si atom -5579.498473 kJ/mol
# Density = 2.198710 g / cm^3
# Si number density = 22.037259 Si / 1000 Ang^3
#
#
#
# Elastic Constant Matrix: (Units=GPa)
#
#
# Indices 1 2 3 4 5 6 
#
# 1 100.8018 27.6940 18.5721 0.0000 0.0000 0.0000
# 2 27.6940 102.8809 23.4726 0.0000 0.0000 0.0000
# 3 18.5721 23.4726 98.1321 0.0000 0.0000 0.0000
# 4 0.0000 0.0000 0.0000 30.0133 0.0000 0.0000
# 5 0.0000 0.0000 0.0000 0.0000 29.5227 0.0000
# 6 0.0000 0.0000 0.0000 0.0000 0.0000 21.1522
#
#
#
# Elastic Compliance Matrix: (Units=1/GPa)
#
#
# Indices 1 2 3 4 5 6 
#
# 1 0.010902 -0.002606 -0.001440 0.000000 0.000000 0.000000
# 2 -0.002606 0.010904 -0.002115 0.000000 0.000000 0.000000
# 3 -0.001440 -0.002115 0.010969 0.000000 0.000000 0.000000
# 4 0.000000 0.000000 0.000000 0.033319 0.000000 0.000000
# 5 0.000000 0.000000 0.000000 0.000000 0.033872 0.000000
# 6 0.000000 0.000000 0.000000 0.000000 0.000000 0.047276
#
#
# Mechanical properties :
#
#
# Convention : Reuss Voigt Hill
#
# Bulk Modulus (GPa) = 48.89333 49.03249 48.96291
# Shear Modulus (GPa) = 30.05151 31.60938 30.83044
#
# Velocity S-wave (km/s) = 3.69679 3.79140 3.74440
# Velocity P-wave (km/s) = 6.36055 6.43929 6.40004
#
# Compressibility (1/GPa) = 0.02045269
#
# Stress axis : x y z
#
# Youngs Moduli (GPa) = 91.72855 91.70921 91.16824
#
# Poissons Ratio (x) = 0.23900 0.13127
# Poissons Ratio (y) = 0.23905 0.19282
# Poissons Ratio (z) = 0.13208 0.19396
#
# Static dielectric constant tensor:
#      x y z
#    x 1.843250 0.000000 0.000000 
#    y 0.000000 1.866260 0.000000 
#    z 0.000000 0.000000 1.890020 
# 
# From -- ./inp_files/24139.got.cif
#   From: 2010.05.17/outbox.cif.g08.bks.cpg/sg72_13_cif.got.tgz:24139.got - 2010.06.03 17:03:01.
