data_PCOD9526011
_publ_section_title
;
Structure prediction by ZEFSAII (Michael W. Deem and Ramdas Pophale) SiO2 
 PCOD9526011
Probable space group: I B A M
;
_chemical_formula_sum "Si O2"
_cell_formula_units_Z 96
_cell_length_a 15.772250
_cell_length_b 18.207052
_cell_length_c 14.211033
_cell_angle_alpha 90.000000
_cell_angle_beta 90.000000
_cell_angle_gamma 90.000000
_cell_volume 4080.928002
_symmetry_space_group_name_H-M "I B A M"
_symmetry_group_IT_number 72
_symmetry_cell_setting 'orthorhombic'
loop_
_space_group_symop_operation_xyz
x,y,z
-x,-y,z
x,-y,1/2-z
-x,y,1/2-z
-x,-y,-z
x,y,-z
-x,y,1/2+z
x,-y,1/2+z
1/2+x,1/2+y,1/2+z
1/2-x,1/2-y,1/2+z
1/2+x,1/2-y,-z
1/2-x,1/2+y,-z
1/2-x,1/2-y,1/2-z
1/2+x,1/2+y,1/2-z
1/2-x,1/2+y,z
1/2+x,1/2-y,z
loop_
_atom_site_type_symbol
_atom_site_label
_atom_site_fract_x
_atom_site_fract_y
_atom_site_fract_z
Si Si1 0.435724 0.301403 0.886041
Si Si2 0.088274 0.970940 0.855364
Si Si3 0.100865 0.282555 0.115252
Si Si4 0.765362 0.457160 0.892632
Si Si5 0.921889 0.448164 0.385180
Si Si6 0.725551 0.207774 0.384560
O O1 0.412780 0.383351 0.856340
O O2 0.528760 0.275193 0.855691
O O3 0.363468 0.243796 0.856980
O O4 0.436063 0.302232 0.000000
O O5 0.089088 0.000000 0.750000
O O6 0.173814 0.005259 0.895972
O O7 0.000000 0.000000 0.898143
O O8 0.076292 0.364147 0.147787
O O9 0.194133 0.256748 0.144556
O O10 0.100888 0.283605 0.000000
O O11 0.834881 0.513183 0.854365
O O12 0.763756 0.375804 0.849644
O O13 0.793754 0.444421 0.000000
O O14 0.923485 0.444045 0.500000
O O15 0.000000 0.500000 0.357886
O O16 0.727690 0.207546 0.500000
#
# Coordination Sequence:
#
# PCOD9526011 Si02
#       6
#    16  16  16  16  16  16
#     4  10  19  33  55  80 106 138 177 219 266 323
#     4  11  24  39  53  73 105 143 182 229 277 319
#     4   9  16  26  43  71 106 138 169 210 257 307
#     4  10  19  33  56  83 111 144 181 220 266 324
#     4   9  16  27  47  79 114 141 169 214 270 319
#     4   9  17  29  48  78 108 132 167 216 263 310
#
# _framework density 23.524062000000001
#
# number of rings (size 3 to 8) (size 9 to 14) (size 15 to 20)
#    0.000    2.333    0.000    3.500    0.000    9.333 
#    0.000    0.833    0.000    2.500    0.000    0.000 
#    0.000    0.000    0.000    0.000    0.000    0.000 
#
# Total GULP energy -268535.787262 kJ/mol
# GULP energy per Si atom -5594.495568 kJ/mol
# Density = 2.347052 g / cm^3
# Si number density = 23.524062 Si / 1000 Ang^3
#
#
#
# Elastic Constant Matrix: (Units=GPa)
#
#
# Indices 1 2 3 4 5 6 
#
# 1 138.2299 46.0660 -18.1899 0.0000 0.0000 0.0000
# 2 46.0660 154.7365 -21.7216 0.0000 0.0000 0.0000
# 3 -18.1899 -21.7216 61.9175 0.0000 0.0000 0.0000
# 4 0.0000 0.0000 0.0000 13.6823 0.0000 0.0000
# 5 0.0000 0.0000 0.0000 0.0000 0.0508 0.0000
# 6 0.0000 0.0000 0.0000 0.0000 0.0000 43.6990
#
#
#
# Elastic Compliance Matrix: (Units=1/GPa)
#
#
# Indices 1 2 3 4 5 6 
#
# 1 0.008185 -0.002208 0.001630 0.000000 0.000000 0.000000
# 2 -0.002208 0.007393 0.001945 0.000000 0.000000 0.000000
# 3 0.001630 0.001945 0.017312 0.000000 0.000000 0.000000
# 4 0.000000 0.000000 0.000000 0.073087 0.000000 0.000000
# 5 0.000000 0.000000 0.000000 0.000000 19.675314 0.000000
# 6 0.000000 0.000000 0.000000 0.000000 0.000000 0.022884
#
#
# Mechanical properties :
#
#
# Convention : Reuss Voigt Hill
#
# Bulk Modulus (GPa) = 28.07155 40.79919 34.43537
# Shear Modulus (GPa) = 0.25236 34.73505 17.49370
#
# Velocity S-wave (km/s) = 0.32788 3.84679 2.72996
# Velocity P-wave (km/s) = 3.47885 6.09193 4.96055
#
# Compressibility (1/GPa) = 0.03562325
#
# Stress axis : x y z
#
# Youngs Moduli (GPa) = 122.18115 135.26490 57.76455
#
# Poissons Ratio (x) = 0.29864 -0.09415
# Poissons Ratio (y) = 0.26975 -0.11235
# Poissons Ratio (z) = -0.19914 -0.26308
#
# Static dielectric constant tensor:
#      x y z
#    x 1.313210 0.000000 0.000000 
#    y 0.000000 1.832590 0.000000 
#    z 0.000000 0.000000 1.872730 
# 
# From -- ./inp_files/38009.got.cif
#   From: 2010.05.17/outbox.cif.g08.bks.cpg/sg72_20_cif.got.tgz:38009.got - 2010.06.03 17:03:01.
