data_PCOD9526665
_publ_section_title
;
Structure prediction by ZEFSAII (Michael W. Deem and Ramdas Pophale) SiO2 
 PCOD9526665
Probable space group: I B A M
;
_chemical_formula_sum "Si O2"
_cell_formula_units_Z 116
_cell_length_a 30.647834
_cell_length_b 12.056663
_cell_length_c 13.342604
_cell_angle_alpha 90.000000
_cell_angle_beta 90.000000
_cell_angle_gamma 90.000000
_cell_volume 4930.233693
_symmetry_space_group_name_H-M "I B A M"
_symmetry_group_IT_number 72
_symmetry_cell_setting 'orthorhombic'
loop_
_space_group_symop_operation_xyz
x,y,z
-x,-y,z
x,-y,1/2-z
-x,y,1/2-z
-x,-y,-z
x,y,-z
-x,y,1/2+z
x,-y,1/2+z
1/2+x,1/2+y,1/2+z
1/2-x,1/2-y,1/2+z
1/2+x,1/2-y,-z
1/2-x,1/2+y,-z
1/2-x,1/2-y,1/2-z
1/2+x,1/2+y,1/2-z
1/2-x,1/2+y,z
1/2+x,1/2-y,z
loop_
_atom_site_type_symbol
_atom_site_label
_atom_site_fract_x
_atom_site_fract_y
_atom_site_fract_z
Si Si1 0.616647 0.811824 0.121143
Si Si2 0.790666 0.299373 0.378304
Si Si3 0.523022 0.793367 0.879571
Si Si4 0.626224 0.936339 0.621929
Si Si5 0.192785 0.847647 0.122045
Si Si6 0.346139 0.584656 0.878281
Si Si7 0.071155 0.779879 0.621594
Si Si8 0.500000 0.000000 0.250000
O O1 0.571314 0.749401 0.145585
O O2 0.659701 0.748574 0.153440
O O3 0.617422 0.939019 0.155717
O O4 0.617950 0.814776 0.000000
O O5 0.789385 0.299789 0.500000
O O6 0.826001 0.392187 0.349713
O O7 0.742107 0.327096 0.343518
O O8 0.810822 0.179516 0.352014
O O9 0.479852 0.724356 0.850292
O O10 0.521775 0.913071 0.826573
O O11 0.520804 0.808241 0.000000
O O12 0.624964 0.939177 0.500000
O O13 0.591723 0.840246 0.648794
O O14 0.170831 0.963890 0.150616
O O15 0.194359 0.846774 0.000000
O O16 0.394101 0.626974 0.844543
O O17 0.348169 0.583519 0.000000
O O18 0.071506 0.785814 0.500000
#
# Coordination Sequence:
#
# PCOD9526665 Si02
#       8
#    16  16  16  16  16  16  16   4
#     4   9  17  27  40  62  96 137 172 209 266 320
#     4   8  14  21  32  52  84 128 168 215 270 308
#     4  10  20  34  51  76 112 144 172 215 267 313
#     4   8  13  21  34  54  81 119 165 203 256 320
#     4   9  16  23  35  57  90 132 178 219 259 313
#     4   8  14  24  37  58  88 128 180 221 258 315
#     4   8  14  27  45  62  89 133 172 208 258 311
#     4  12  22  32  56  86 106 140 186 216 260 320
#
# _framework density 23.528296999999998
#
# number of rings (size 3 to 8) (size 9 to 14) (size 15 to 20)
#    0.000    3.310    0.000    2.690    1.931    2.207 
#    0.000    0.690    0.000    4.138    0.000    1.931 
#    0.000    9.931    0.000    1.241    3.310    0.552 
#
# Total GULP energy -324156.984565 kJ/mol
# GULP energy per Si atom -5588.913527 kJ/mol
# Density = 2.347475 g / cm^3
# Si number density = 23.528297 Si / 1000 Ang^3
#
#
#
# Elastic Constant Matrix: (Units=GPa)
#
#
# Indices 1 2 3 4 5 6 
#
# 1 215.9957 74.1879 23.1259 0.0000 0.0000 0.0000
# 2 74.1879 108.3873 7.0794 0.0000 0.0000 0.0000
# 3 23.1259 7.0794 92.7011 0.0000 0.0000 0.0000
# 4 0.0000 0.0000 0.0000 18.6979 0.0000 0.0000
# 5 0.0000 0.0000 0.0000 0.0000 25.1932 0.0000
# 6 0.0000 0.0000 0.0000 0.0000 0.0000 12.7503
#
#
#
# Elastic Compliance Matrix: (Units=1/GPa)
#
#
# Indices 1 2 3 4 5 6 
#
# 1 0.006188 -0.004156 -0.001226 0.000000 0.000000 0.000000
# 2 -0.004156 0.012063 0.000115 0.000000 0.000000 0.000000
# 3 -0.001226 0.000115 0.011084 0.000000 0.000000 0.000000
# 4 0.000000 0.000000 0.000000 0.053482 0.000000 0.000000
# 5 0.000000 0.000000 0.000000 0.000000 0.039693 0.000000
# 6 0.000000 0.000000 0.000000 0.000000 0.000000 0.078430
#
#
# Mechanical properties :
#
#
# Convention : Reuss Voigt Hill
#
# Bulk Modulus (GPa) = 53.18391 69.54116 61.36254
# Shear Modulus (GPa) = 22.96301 32.17435 27.56868
#
# Velocity S-wave (km/s) = 3.12745 3.70195 3.42676
# Velocity P-wave (km/s) = 5.97449 6.92049 6.46482
#
# Compressibility (1/GPa) = 0.01880268
#
# Stress axis : x y z
#
# Youngs Moduli (GPa) = 161.59340 82.89778 90.21613
#
# Poissons Ratio (x) = 0.34449 0.11064
# Poissons Ratio (y) = 0.67153 -0.01042
# Poissons Ratio (z) = 0.19818 -0.00957
#
# Static dielectric constant tensor:
#      x y z
#    x 1.866960 0.000000 0.000000 
#    y 0.000000 1.804530 0.000000 
#    z 0.000000 0.000000 1.982560 
# 
# From -- ./inp_files/33987.got.cif
#   From: 2010.05.17/outbox.cif.g08.bks.cpg/sg72_17_cif.got.tgz:33987.got - 2010.06.03 17:03:01.
