data_PCOD9526436
_publ_section_title
;
Structure prediction by ZEFSAII (Michael W. Deem and Ramdas Pophale) SiO2 
 PCOD9526436
Probable space group: I B A M
;
_chemical_formula_sum "Si O2"
_cell_formula_units_Z 92
_cell_length_a 14.628520
_cell_length_b 14.923442
_cell_length_c 21.081412
_cell_angle_alpha 90.000000
_cell_angle_beta 90.000000
_cell_angle_gamma 90.000000
_cell_volume 4602.238145
_symmetry_space_group_name_H-M "I B A M"
_symmetry_group_IT_number 72
_symmetry_cell_setting 'orthorhombic'
loop_
_space_group_symop_operation_xyz
x,y,z
-x,-y,z
x,-y,1/2-z
-x,y,1/2-z
-x,-y,-z
x,y,-z
-x,y,1/2+z
x,-y,1/2+z
1/2+x,1/2+y,1/2+z
1/2-x,1/2-y,1/2+z
1/2+x,1/2-y,-z
1/2-x,1/2+y,-z
1/2-x,1/2-y,1/2-z
1/2+x,1/2+y,1/2-z
1/2-x,1/2+y,z
1/2+x,1/2-y,z
loop_
_atom_site_type_symbol
_atom_site_label
_atom_site_fract_x
_atom_site_fract_y
_atom_site_fract_z
Si Si1 0.478782 0.627639 0.500000
Si Si2 0.000000 0.000000 0.250000
Si Si3 0.367216 0.756986 0.000000
Si Si4 0.310726 0.796665 0.634700
Si Si5 0.938175 0.869261 0.358978
Si Si6 0.609878 0.762755 0.363390
Si Si7 0.609314 0.100120 0.246948
Si Si8 0.157013 0.705916 0.000000
O O1 0.585047 0.657960 0.500000
O O2 0.452871 0.589303 0.569706
O O3 0.422185 0.720659 0.500000
O O4 0.942736 0.062318 0.200237
O O5 0.400069 0.799404 0.934727
O O6 0.257662 0.752483 0.000000
O O7 0.348912 0.694255 0.637546
O O8 0.201462 0.796815 0.636638
O O9 0.352188 0.846318 0.693899
O O10 0.344836 0.839729 0.568436
O O11 0.022609 0.799212 0.348718
O O12 0.627444 0.842461 0.315368
O O13 0.500000 0.095687 0.250000
O O14 0.646985 0.000000 0.250000
#
# Coordination Sequence:
#
# PCOD9526436 Si02
#       8
#     8   4   8  16  16  16  16   8
#     4   8  16  31  56  76 101 142 168 216 271 314
#     4  12  24  34  52  80 114 144 176 232 252 310
#     4   8  16  30  58  85  99 127 182 222 260 321
#     4  10  19  38  61  80 105 143 178 221 272 319
#     4  10  20  37  55  81 110 136 181 220 267 318
#     4  10  19  38  61  80 105 143 178 221 272 319
#     4  11  22  36  53  79 114 146 180 219 261 317
#     4   8  16  30  58  85  99 127 182 222 260 321
#
# _framework density 19.990272999999998
#
# number of rings (size 3 to 8) (size 9 to 14) (size 15 to 20)
#    0.000    2.261    1.739    1.565    0.000    0.348 
#    6.261    0.870    0.000    2.087    0.000    0.000 
#    0.000    0.000    0.000    0.000    0.000    0.000 
#
# Total GULP energy -256271.210944 kJ/mol
# GULP energy per Si atom -5571.113281 kJ/mol
# Density = 1.994477 g / cm^3
# Si number density = 19.990273 Si / 1000 Ang^3
#
#
#
# Elastic Constant Matrix: (Units=GPa)
#
#
# Indices 1 2 3 4 5 6 
#
# 1 77.9886 -5.1810 -8.2320 0.0000 0.0000 0.0000
# 2 -5.1810 43.8660 49.3711 0.0000 0.0000 0.0000
# 3 -8.2320 49.3711 197.7197 0.0000 0.0000 0.0000
# 4 0.0000 0.0000 0.0000 5.6101 0.0000 0.0000
# 5 0.0000 0.0000 0.0000 0.0000 -19.6101 0.0000
# 6 0.0000 0.0000 0.0000 0.0000 0.0000 7.6901
#
#
#
# Elastic Compliance Matrix: (Units=1/GPa)
#
#
# Indices 1 2 3 4 5 6 
#
# 1 0.012931 0.001281 0.000218 0.000000 0.000000 0.000000
# 2 0.001281 0.031835 -0.007896 0.000000 0.000000 0.000000
# 3 0.000218 -0.007896 0.007038 0.000000 0.000000 0.000000
# 4 0.000000 0.000000 0.000000 0.178250 0.000000 0.000000
# 5 0.000000 0.000000 0.000000 0.000000 -0.050994 0.000000
# 6 0.000000 0.000000 0.000000 0.000000 0.000000 0.130038
#
#
# Mechanical properties :
#
#
# Convention : Reuss Voigt Hill
#
# Bulk Modulus (GPa) = 25.63338 43.49895 34.56617
# Shear Modulus (GPa) = 14.93011 17.64577 16.28794
#
# Velocity S-wave (km/s) = 2.73585 2.97428 2.85756
# Velocity P-wave (km/s) = 4.77814 5.79676 5.31192
#
# Compressibility (1/GPa) = 0.03901163
#
# Stress axis : x y z
#
# Youngs Moduli (GPa) = 77.33617 31.41212 142.07817
#
# Poissons Ratio (x) = -0.04025 -0.03103
# Poissons Ratio (y) = -0.09910 1.12183
# Poissons Ratio (z) = -0.01689 0.24803
#
# Static dielectric constant tensor:
#      x y z
#    x 1.728080 0.000000 0.000000 
#    y 0.000000 1.695860 0.000000 
#    z 0.000000 0.000000 1.782000 
# 
# From -- ./inp_files/38100.got.cif
#   From: 2010.05.17/outbox.cif.g08.bks.cpg/sg72_20_cif.got.tgz:38100.got - 2010.06.03 17:03:01.
