data_PCOD9526249
_publ_section_title
;
Structure prediction by ZEFSAII (Michael W. Deem and Ramdas Pophale) SiO2 
 PCOD9526249
Probable space group: I B A M
;
_chemical_formula_sum "Si O2"
_cell_formula_units_Z 104
_cell_length_a 16.515710
_cell_length_b 21.104978
_cell_length_c 15.246566
_cell_angle_alpha 90.000000
_cell_angle_beta 90.000000
_cell_angle_gamma 90.000000
_cell_volume 5314.399399
_symmetry_space_group_name_H-M "I B A M"
_symmetry_group_IT_number 72
_symmetry_cell_setting 'orthorhombic'
loop_
_space_group_symop_operation_xyz
x,y,z
-x,-y,z
x,-y,1/2-z
-x,y,1/2-z
-x,-y,-z
x,y,-z
-x,y,1/2+z
x,-y,1/2+z
1/2+x,1/2+y,1/2+z
1/2-x,1/2-y,1/2+z
1/2+x,1/2-y,-z
1/2-x,1/2+y,-z
1/2-x,1/2-y,1/2-z
1/2+x,1/2+y,1/2-z
1/2-x,1/2+y,z
1/2+x,1/2-y,z
loop_
_atom_site_type_symbol
_atom_site_label
_atom_site_fract_x
_atom_site_fract_y
_atom_site_fract_z
Si Si1 0.288546 0.171170 0.164092
Si Si2 0.254773 0.022248 0.843924
Si Si3 0.576089 0.542111 0.605951
Si Si4 0.633773 0.997341 0.000000
Si Si5 0.110545 0.343966 0.500000
Si Si6 0.891700 0.811351 0.106892
Si Si7 0.922241 0.685061 0.810952
Si Si8 0.567970 0.871921 0.500000
O O1 0.270738 0.096733 0.153777
O O2 0.347266 0.186067 0.083561
O O3 0.199540 0.198442 0.144960
O O4 0.341809 0.183094 0.250202
O O5 0.159748 0.012608 0.859757
O O6 0.280760 0.000000 0.750000
O O7 0.309305 0.990679 0.916928
O O8 0.500000 0.500000 0.635457
O O9 0.579018 0.539589 0.500000
O O10 0.577241 0.617325 0.627939
O O11 0.566031 0.051433 0.000000
O O12 0.616828 0.921679 0.000000
O O13 0.016333 0.335021 0.500000
O O14 0.941070 0.756000 0.154351
O O15 0.889793 0.805220 0.000000
O O16 0.901540 0.647535 0.902046
O O17 0.000000 0.663128 0.750000
#
# Coordination Sequence:
#
# PCOD9526249 Si02
#       8
#    16  16  16   8   8  16  16   8
#     4  10  20  38  63  86 113 160 199 243 298 363
#     4  10  19  35  57  86 118 150 196 242 295 363
#     4   9  18  36  62  85 115 156 194 242 300 355
#     4  10  21  36  59  84 118 151 197 243 298 350
#     4  10  19  37  63  88 113 152 201 241 296 360
#     4  10  20  39  64  87 115 158 204 244 298 359
#     4  12  24  39  60  86 124 157 200 252 297 351
#     4  12  23  39  59  84 122 157 192 246 305 347
#
# _framework density 19.569474
#
# number of rings (size 3 to 8) (size 9 to 14) (size 15 to 20)
#    0.000    1.692    3.846    1.615    0.000    0.308 
#    5.538    0.000    0.000    0.000    0.000    0.000 
#    0.000    0.000    0.000    0.000    0.000    0.000 
#
# Total GULP energy -289489.187443 kJ/mol
# GULP energy per Si atom -5567.099759 kJ/mol
# Density = 1.952493 g / cm^3
# Si number density = 19.569474 Si / 1000 Ang^3
#
#
#
# Elastic Constant Matrix: (Units=GPa)
#
#
# Indices 1 2 3 4 5 6 
#
# 1 66.9816 16.7146 36.5150 0.0000 0.0000 0.0000
# 2 16.7146 43.4542 23.0238 0.0000 0.0000 0.0000
# 3 36.5150 23.0238 126.7003 0.0000 0.0000 0.0000
# 4 0.0000 0.0000 0.0000 38.7164 0.0000 0.0000
# 5 0.0000 0.0000 0.0000 0.0000 30.9334 0.0000
# 6 0.0000 0.0000 0.0000 0.0000 0.0000 -330.9893
#
#
#
# Elastic Compliance Matrix: (Units=1/GPa)
#
#
# Indices 1 2 3 4 5 6 
#
# 1 0.018563 -0.004764 -0.004484 0.000000 0.000000 0.000000
# 2 -0.004764 0.026687 -0.003476 0.000000 0.000000 0.000000
# 3 -0.004484 -0.003476 0.009817 0.000000 0.000000 0.000000
# 4 0.000000 0.000000 0.000000 0.025829 0.000000 0.000000
# 5 0.000000 0.000000 0.000000 0.000000 0.032327 0.000000
# 6 0.000000 0.000000 0.000000 0.000000 0.000000 -0.003021
#
#
# Mechanical properties :
#
#
# Convention : Reuss Voigt Hill
#
# Bulk Modulus (GPa) = 33.76432 43.29366 38.52899
# Shear Modulus (GPa) = 34.35857 -41.54239 -3.59191
#
# Velocity S-wave (km/s) = 4.19468 -4.61240 -1.35626
# Velocity P-wave (km/s) = 6.38369 2.48889 4.15674
#
# Compressibility (1/GPa) = 0.02961706
#
# Stress axis : x y z
#
# Youngs Moduli (GPa) = 53.87108 37.47097 101.86740
#
# Poissons Ratio (x) = 0.17853 0.45678
# Poissons Ratio (y) = 0.25666 0.35414
# Poissons Ratio (z) = 0.24156 0.13027
#
# Static dielectric constant tensor:
#      x y z
#    x 1.709480 0.000000 0.000000 
#    y 0.000000 1.854140 0.000000 
#    z 0.000000 0.000000 1.695590 
# 
# From -- ./inp_files/23408.got.cif
#   From: 2010.05.17/outbox.cif.g08.bks.cpg/sg72_12_cif.got.tgz:23408.got - 2010.06.03 17:03:01.
