data_PCOD9526134
_publ_section_title
;
Structure prediction by ZEFSAII (Michael W. Deem and Ramdas Pophale) SiO2 
 PCOD9526134
Probable space group: I B A M
;
_chemical_formula_sum "Si O2"
_cell_formula_units_Z 68
_cell_length_a 16.646754
_cell_length_b 23.423391
_cell_length_c 8.826074
_cell_angle_alpha 90.000000
_cell_angle_beta 90.000000
_cell_angle_gamma 90.000000
_cell_volume 3441.493028
_symmetry_space_group_name_H-M "I B A M"
_symmetry_group_IT_number 72
_symmetry_cell_setting 'orthorhombic'
loop_
_space_group_symop_operation_xyz
x,y,z
-x,-y,z
x,-y,1/2-z
-x,y,1/2-z
-x,-y,-z
x,y,-z
-x,y,1/2+z
x,-y,1/2+z
1/2+x,1/2+y,1/2+z
1/2-x,1/2-y,1/2+z
1/2+x,1/2-y,-z
1/2-x,1/2+y,-z
1/2-x,1/2-y,1/2-z
1/2+x,1/2+y,1/2-z
1/2-x,1/2+y,z
1/2+x,1/2-y,z
loop_
_atom_site_type_symbol
_atom_site_label
_atom_site_fract_x
_atom_site_fract_y
_atom_site_fract_z
Si Si1 0.589689 0.711673 0.816709
Si Si2 0.410629 0.172371 0.681854
Si Si3 0.141463 0.912276 0.823320
Si Si4 0.315264 0.942717 0.818104
Si Si5 0.500000 0.500000 0.250000
O O1 0.500000 0.711757 0.750000
O O2 0.627141 0.769955 0.752268
O O3 0.625287 0.651234 0.762836
O O4 0.588042 0.713465 0.000000
O O5 0.500000 0.166330 0.750000
O O6 0.415206 0.178517 0.500000
O O7 0.360920 0.115668 0.718714
O O8 0.223634 0.937216 0.757296
O O9 0.064945 0.954569 0.816675
O O10 0.158213 0.903611 0.000000
O O11 0.352328 0.000000 0.750000
O O12 0.315235 0.948644 0.000000
#
# Coordination Sequence:
#
# PCOD9526134 Si02
#       5
#    16  16  16  16   4
#     4  10  19  34  56  83 114 148 189 234 275 328
#     4  10  21  38  60  83 111 146 187 235 285 337
#     4  10  21  35  55  84 117 150 186 228 275 331
#     4  10  22  40  58  82 115 148 186 233 283 335
#     4  12  18  36  60  82 118 152 184 224 274 328
#
# _framework density 19.758866000000001
#
# number of rings (size 3 to 8) (size 9 to 14) (size 15 to 20)
#    0.000    1.882    2.353    3.176    0.000    3.294 
#    0.000    4.706    0.000    0.000    0.000    0.000 
#    0.000    0.000    0.000    0.000    0.000    0.000 
#
# Total GULP energy -189369.128877 kJ/mol
# GULP energy per Si atom -5569.680261 kJ/mol
# Density = 1.971389 g / cm^3
# Si number density = 19.758866 Si / 1000 Ang^3
#
#
#
# Elastic Constant Matrix: (Units=GPa)
#
#
# Indices 1 2 3 4 5 6 
#
# 1 51.2573 47.3411 15.8978 0.0000 0.0000 0.0000
# 2 47.3411 215.8684 47.1723 0.0000 0.0000 0.0000
# 3 15.8978 47.1723 41.3476 0.0000 0.0000 0.0000
# 4 0.0000 0.0000 0.0000 14.5565 0.0000 0.0000
# 5 0.0000 0.0000 0.0000 0.0000 16.9440 0.0000
# 6 0.0000 0.0000 0.0000 0.0000 0.0000 17.9067
#
#
#
# Elastic Compliance Matrix: (Units=1/GPa)
#
#
# Indices 1 2 3 4 5 6 
#
# 1 0.025074 -0.004519 -0.004486 0.000000 0.000000 0.000000
# 2 -0.004519 0.006985 -0.006232 0.000000 0.000000 0.000000
# 3 -0.004486 -0.006232 0.033020 0.000000 0.000000 0.000000
# 4 0.000000 0.000000 0.000000 0.068698 0.000000 0.000000
# 5 0.000000 0.000000 0.000000 0.000000 0.059018 0.000000
# 6 0.000000 0.000000 0.000000 0.000000 0.000000 0.055845
#
#
# Mechanical properties :
#
#
# Convention : Reuss Voigt Hill
#
# Bulk Modulus (GPa) = 28.89610 58.81066 43.85338
# Shear Modulus (GPa) = 17.20300 23.08560 20.14430
#
# Velocity S-wave (km/s) = 2.95387 3.42185 3.19644
# Velocity P-wave (km/s) = 5.12737 6.74098 5.98877
#
# Compressibility (1/GPa) = 0.03460674
#
# Stress axis : x y z
#
# Youngs Moduli (GPa) = 39.88183 143.15909 30.28503
#
# Poissons Ratio (x) = 0.64689 0.13584
# Poissons Ratio (y) = 0.18021 0.18873
# Poissons Ratio (z) = 0.17889 0.89215
#
# Static dielectric constant tensor:
#      x y z
#    x 1.716660 0.000000 0.000000 
#    y 0.000000 1.749120 0.000000 
#    z 0.000000 0.000000 1.678860 
# 
# From -- ./inp_files/4409.got.cif
#   From: 2010.05.17/outbox.cif.g08.bks.cpg/sg72_3_cif.got.tgz:4409.got - 2010.06.03 17:03:01.
