data_PCOD9526647
_publ_section_title
;
Structure prediction by ZEFSAII (Michael W. Deem and Ramdas Pophale) SiO2 
 PCOD9526647
Probable space group: I B A M
;
_chemical_formula_sum "Si O2"
_cell_formula_units_Z 128
_cell_length_a 21.776597
_cell_length_b 18.375388
_cell_length_c 19.685230
_cell_angle_alpha 90.000000
_cell_angle_beta 90.000000
_cell_angle_gamma 90.000000
_cell_volume 7877.112092
_symmetry_space_group_name_H-M "I B A M"
_symmetry_group_IT_number 72
_symmetry_cell_setting 'orthorhombic'
loop_
_space_group_symop_operation_xyz
x,y,z
-x,-y,z
x,-y,1/2-z
-x,y,1/2-z
-x,-y,-z
x,y,-z
-x,y,1/2+z
x,-y,1/2+z
1/2+x,1/2+y,1/2+z
1/2-x,1/2-y,1/2+z
1/2+x,1/2-y,-z
1/2-x,1/2+y,-z
1/2-x,1/2-y,1/2-z
1/2+x,1/2+y,1/2-z
1/2-x,1/2+y,z
1/2+x,1/2-y,z
loop_
_atom_site_type_symbol
_atom_site_label
_atom_site_fract_x
_atom_site_fract_y
_atom_site_fract_z
Si Si1 0.433157 0.247582 0.282184
Si Si2 0.413274 0.677858 0.076337
Si Si3 0.869818 0.156645 0.831531
Si Si4 0.816226 0.334202 0.294937
Si Si5 0.237465 0.960502 0.821148
Si Si6 0.726116 0.780959 0.850009
Si Si7 0.287542 0.592705 0.921267
Si Si8 0.029946 0.925880 0.076913
O O1 0.500000 0.235122 0.250000
O O2 0.430272 0.270281 0.361001
O O3 0.402369 0.311205 0.235738
O O4 0.387135 0.179396 0.279757
O O5 0.354075 0.628438 0.093943
O O6 0.472219 0.626803 0.071128
O O7 0.402246 0.709617 0.000000
O O8 0.818692 0.096224 0.816491
O O9 0.831270 0.226084 0.861058
O O10 0.918943 0.116434 0.879654
O O11 0.797224 0.409618 0.328778
O O12 0.786262 0.269926 0.340501
O O13 0.783398 0.322268 0.221896
O O14 0.243263 0.000000 0.750000
O O15 0.225397 0.021282 0.877337
O O16 0.739276 0.843134 0.904262
O O17 0.286391 0.573806 0.000000
O O18 0.053278 0.942643 0.000000
O O19 0.000000 0.000000 0.106364
#
# Coordination Sequence:
#
# PCOD9526647 Si02
#       8
#    16  16  16  16  16  16  16  16
#     4  11  19  34  57  81 102 133 190 234 259 321
#     4  10  20  34  50  71 108 149 175 211 269 319
#     4  10  21  32  52  81 106 140 186 228 258 317
#     4   9  18  33  55  77 105 138 175 226 280 316
#     4  11  20  34  54  77 108 144 174 221 277 328
#     4   9  17  33  52  76 107 139 178 226 275 313
#     4  11  21  34  54  81 111 146 186 222 270 334
#     4  10  20  34  47  67 108 153 177 207 262 311
#
# _framework density 16.249610000000001
#
# number of rings (size 3 to 8) (size 9 to 14) (size 15 to 20)
#    0.000    1.875    3.750    2.250    0.000    2.000 
#    0.000    3.125    0.000    0.375    0.000    0.000 
#    0.000    4.000    0.000    0.000    0.000    0.000 
#
# Total GULP energy -356452.922796 kJ/mol
# GULP energy per Si atom -5569.576919 kJ/mol
# Density = 1.621263 g / cm^3
# Si number density = 16.249610 Si / 1000 Ang^3
#
#
#
# Elastic Constant Matrix: (Units=GPa)
#
#
# Indices 1 2 3 4 5 6 
#
# 1 91.5030 48.1016 36.7100 0.0000 0.0000 0.0000
# 2 48.1016 63.6403 29.3299 0.0000 0.0000 0.0000
# 3 36.7100 29.3299 66.1977 0.0000 0.0000 0.0000
# 4 0.0000 0.0000 0.0000 27.0494 0.0000 0.0000
# 5 0.0000 0.0000 0.0000 0.0000 -0.0700 0.0000
# 6 0.0000 0.0000 0.0000 0.0000 0.0000 22.7090
#
#
#
# Elastic Compliance Matrix: (Units=1/GPa)
#
#
# Indices 1 2 3 4 5 6 
#
# 1 0.019557 -0.012294 -0.005398 0.000000 0.000000 0.000000
# 2 -0.012294 0.027473 -0.005355 0.000000 0.000000 0.000000
# 3 -0.005398 -0.005355 0.020473 0.000000 0.000000 0.000000
# 4 0.000000 0.000000 0.000000 0.036969 0.000000 0.000000
# 5 0.000000 0.000000 0.000000 0.000000-14.278361 0.000000
# 6 0.000000 0.000000 0.000000 0.000000 0.000000 0.044035
#
#
# Mechanical properties :
#
#
# Convention : Reuss Voigt Hill
#
# Bulk Modulus (GPa) = 46.71029 49.95821 48.33425
# Shear Modulus (GPa) = -0.35520 17.08431 8.36455
#
# Velocity S-wave (km/s) = -0.46804 3.24600 2.27128
# Velocity P-wave (km/s) = 5.34002 6.69774 6.05704
#
# Compressibility (1/GPa) = 0.02140856
#
# Stress axis : x y z
#
# Youngs Moduli (GPa) = 51.13221 36.39877 48.84601
#
# Poissons Ratio (x) = 0.44749 0.26369
# Poissons Ratio (y) = 0.62862 0.26156
# Poissons Ratio (z) = 0.27603 0.19491
#
# Static dielectric constant tensor:
#      x y z
#    x 1.568220 0.000000 0.000000 
#    y 0.000000 1.550840 0.000000 
#    z 0.000000 0.000000 1.588730 
# 
# From -- ./inp_files/39365.got.cif
#   From: 2010.05.17/outbox.cif.g08.bks.cpg/sg72_20_cif.got.tgz:39365.got - 2010.06.03 17:03:01.
