data_PCOD9526188
_publ_section_title
;
Structure prediction by ZEFSAII (Michael W. Deem and Ramdas Pophale) SiO2 
 PCOD9526188
Probable space group: I B A M
;
_chemical_formula_sum "Si O2"
_cell_formula_units_Z 96
_cell_length_a 15.494499
_cell_length_b 19.262460
_cell_length_c 16.535379
_cell_angle_alpha 90.000000
_cell_angle_beta 90.000000
_cell_angle_gamma 90.000000
_cell_volume 4935.185052
_symmetry_space_group_name_H-M "I B A M"
_symmetry_group_IT_number 72
_symmetry_cell_setting 'orthorhombic'
loop_
_space_group_symop_operation_xyz
x,y,z
-x,-y,z
x,-y,1/2-z
-x,y,1/2-z
-x,-y,-z
x,y,-z
-x,y,1/2+z
x,-y,1/2+z
1/2+x,1/2+y,1/2+z
1/2-x,1/2-y,1/2+z
1/2+x,1/2-y,-z
1/2-x,1/2+y,-z
1/2-x,1/2-y,1/2-z
1/2+x,1/2+y,1/2-z
1/2-x,1/2+y,z
1/2+x,1/2-y,z
loop_
_atom_site_type_symbol
_atom_site_label
_atom_site_fract_x
_atom_site_fract_y
_atom_site_fract_z
Si Si1 0.589193 0.973951 0.657339
Si Si2 0.511282 0.288427 0.342888
Si Si3 0.279946 0.508575 0.652915
Si Si4 0.943205 0.066887 0.595554
Si Si5 0.885642 0.674615 0.093707
Si Si6 0.309254 0.665762 0.596326
O O1 0.681158 0.999554 0.623513
O O2 0.591916 0.890997 0.649460
O O3 0.500000 0.000000 0.619007
O O4 0.588853 0.000000 0.750000
O O5 0.500000 0.268918 0.250000
O O6 0.473755 0.365377 0.357702
O O7 0.454021 0.235277 0.394199
O O8 0.611693 0.291897 0.366501
O O9 0.282927 0.500000 0.750000
O O10 0.345273 0.454351 0.613703
O O11 0.308369 0.586841 0.629781
O O12 0.956310 0.078811 0.500000
O O13 0.000000 0.000000 0.619541
O O14 0.786516 0.695806 0.112018
O O15 0.886209 0.651182 0.000000
O O16 0.322519 0.661934 0.500000
#
# Coordination Sequence:
#
# PCOD9526188 Si02
#       6
#    16  16  16  16  16  16
#     4   9  20  39  66  90 121 159 199 251 305 363
#     4  12  25  39  62  92 124 166 204 254 305 364
#     4  10  19  34  59  91 121 155 204 250 301 360
#     4  11  22  36  59  87 120 161 203 248 301 363
#     4  10  23  42  64  91 124 162 206 251 304 370
#     4  10  20  40  64  84 120 170 203 244 312 365
#
# _framework density 19.452158000000001
#
# number of rings (size 3 to 8) (size 9 to 14) (size 15 to 20)
#    0.000    1.667    1.667    3.000    2.333    1.667 
#    3.000    0.000    0.000    0.000    0.000    0.000 
#    0.000    0.000    0.000    0.000    0.000    0.000 
#
# Total GULP energy -268020.056263 kJ/mol
# GULP energy per Si atom -5583.751172 kJ/mol
# Density = 1.940788 g / cm^3
# Si number density = 19.452158 Si / 1000 Ang^3
#
#
#
# Elastic Constant Matrix: (Units=GPa)
#
#
# Indices 1 2 3 4 5 6 
#
# 1 167.5040 47.3908 20.5303 0.0000 0.0000 0.0000
# 2 47.3908 52.3977 15.5451 0.0000 0.0000 0.0000
# 3 20.5303 15.5451 56.8593 0.0000 0.0000 0.0000
# 4 0.0000 0.0000 0.0000 13.7546 0.0000 0.0000
# 5 0.0000 0.0000 0.0000 0.0000 22.4722 0.0000
# 6 0.0000 0.0000 0.0000 0.0000 0.0000 33.0373
#
#
#
# Elastic Compliance Matrix: (Units=1/GPa)
#
#
# Indices 1 2 3 4 5 6 
#
# 1 0.008075 -0.007007 -0.001000 0.000000 0.000000 0.000000
# 2 -0.007007 0.026849 -0.004811 0.000000 0.000000 0.000000
# 3 -0.001000 -0.004811 0.019264 0.000000 0.000000 0.000000
# 4 0.000000 0.000000 0.000000 0.072703 0.000000 0.000000
# 5 0.000000 0.000000 0.000000 0.000000 0.044499 0.000000
# 6 0.000000 0.000000 0.000000 0.000000 0.000000 0.030269
#
#
# Mechanical properties :
#
#
# Convention : Reuss Voigt Hill
#
# Bulk Modulus (GPa) = 35.02242 49.29926 42.16084
# Shear Modulus (GPa) = 21.11391 26.73914 23.92652
#
# Velocity S-wave (km/s) = 3.29816 3.71160 3.51097
# Velocity P-wave (km/s) = 5.70502 6.61565 6.17714
#
# Compressibility (1/GPa) = 0.02855314
#
# Stress axis : x y z
#
# Youngs Moduli (GPa) = 123.84035 37.24530 51.91154
#
# Poissons Ratio (x) = 0.26096 0.05191
# Poissons Ratio (y) = 0.86770 0.24972
# Poissons Ratio (z) = 0.12385 0.17917
#
# Static dielectric constant tensor:
#      x y z
#    x 1.718020 0.000000 0.000000 
#    y 0.000000 1.643070 0.000000 
#    z 0.000000 0.000000 1.691310 
# 
# From -- ./inp_files/21886.got.cif
#   From: 2010.05.17/outbox.cif.g08.bks.cpg/sg72_11_cif.got.tgz:21886.got - 2010.06.03 17:03:01.
