data_PCOD9526026
_publ_section_title
;
Structure prediction by ZEFSAII (Michael W. Deem and Ramdas Pophale) SiO2 
 PCOD9526026
Probable space group: I B A M
;
_chemical_formula_sum "Si O2"
_cell_formula_units_Z 72
_cell_length_a 13.790286
_cell_length_b 15.568700
_cell_length_c 16.319255
_cell_angle_alpha 90.000000
_cell_angle_beta 90.000000
_cell_angle_gamma 90.000000
_cell_volume 3503.692245
_symmetry_space_group_name_H-M "I B A M"
_symmetry_group_IT_number 72
_symmetry_cell_setting 'orthorhombic'
loop_
_space_group_symop_operation_xyz
x,y,z
-x,-y,z
x,-y,1/2-z
-x,y,1/2-z
-x,-y,-z
x,y,-z
-x,y,1/2+z
x,-y,1/2+z
1/2+x,1/2+y,1/2+z
1/2-x,1/2-y,1/2+z
1/2+x,1/2-y,-z
1/2-x,1/2+y,-z
1/2-x,1/2-y,1/2-z
1/2+x,1/2+y,1/2-z
1/2-x,1/2+y,z
1/2+x,1/2-y,z
loop_
_atom_site_type_symbol
_atom_site_label
_atom_site_fract_x
_atom_site_fract_y
_atom_site_fract_z
Si Si1 0.872030 0.824039 0.196917
Si Si2 0.024194 0.299844 0.092589
Si Si3 0.809895 0.000000 0.750000
Si Si4 0.212504 0.590427 0.405164
Si Si5 0.819911 0.264195 0.864644
O O1 0.959666 0.783836 0.147959
O O2 0.849773 0.760150 0.271956
O O3 0.777329 0.819333 0.139313
O O4 0.876560 0.919639 0.227675
O O5 0.104162 0.371962 0.114895
O O6 0.909837 0.315877 0.098249
O O7 0.049079 0.277485 0.000000
O O8 0.746823 0.029989 0.829787
O O9 0.212066 0.557621 0.500000
O O10 0.285317 0.673440 0.403266
#
# Coordination Sequence:
#
# PCOD9526026 Si02
#       5
#    16  16   8  16  16
#     4   9  19  33  52  76 102 137 178 215 260 316
#     4  10  19  33  56  81 103 134 178 225 267 311
#     4  10  20  36  54  76 112 150 172 212 276 324
#     4   9  19  35  54  79 109 140 179 223 267 319
#     4   9  17  34  56  75  98 135 181 224 261 303
#
# _framework density 20.54975
#
# number of rings (size 3 to 8) (size 9 to 14) (size 15 to 20)
#    0.000    2.667    0.000    2.667    0.000    1.778 
#    0.000   11.111    0.000    9.333    0.000    0.000 
#    0.000    0.000    0.000    0.000    0.000    0.000 
#
# Total GULP energy -200490.736565 kJ/mol
# GULP energy per Si atom -5569.187127 kJ/mol
# Density = 2.050298 g / cm^3
# Si number density = 20.549750 Si / 1000 Ang^3
#
#
#
# Elastic Constant Matrix: (Units=GPa)
#
#
# Indices 1 2 3 4 5 6 
#
# 1 94.3724 -11.3941 15.7661 0.0000 0.0000 0.0000
# 2 -11.3941 30.6043 17.5158 0.0000 0.0000 0.0000
# 3 15.7661 17.5158 89.7639 0.0000 0.0000 0.0000
# 4 0.0000 0.0000 0.0000 17.8846 0.0000 0.0000
# 5 0.0000 0.0000 0.0000 0.0000 26.2494 0.0000
# 6 0.0000 0.0000 0.0000 0.0000 0.0000 5.7000
#
#
#
# Elastic Compliance Matrix: (Units=1/GPa)
#
#
# Indices 1 2 3 4 5 6 
#
# 1 0.011919 0.006344 -0.003331 0.000000 0.000000 0.000000
# 2 0.006344 0.040160 -0.008951 0.000000 0.000000 0.000000
# 3 -0.003331 -0.008951 0.013472 0.000000 0.000000 0.000000
# 4 0.000000 0.000000 0.000000 0.055914 0.000000 0.000000
# 5 0.000000 0.000000 0.000000 0.000000 0.038096 0.000000
# 6 0.000000 0.000000 0.000000 0.000000 0.000000 0.175440
#
#
# Mechanical properties :
#
#
# Convention : Reuss Voigt Hill
#
# Bulk Modulus (GPa) = 18.63076 28.72401 23.67739
# Shear Modulus (GPa) = 13.70733 22.82364 18.26548
#
# Velocity S-wave (km/s) = 2.58550 3.33626 2.98458
# Velocity P-wave (km/s) = 4.24251 5.37113 4.83983
#
# Compressibility (1/GPa) = 0.05367467
#
# Stress axis : x y z
#
# Youngs Moduli (GPa) = 83.90093 24.90049 74.22786
#
# Poissons Ratio (x) = -0.15797 0.24728
# Poissons Ratio (y) = -0.53227 0.66439
# Poissons Ratio (z) = 0.27950 0.22288
#
# Static dielectric constant tensor:
#      x y z
#    x 1.786260 0.000000 0.000000 
#    y 0.000000 1.729420 0.000000 
#    z 0.000000 0.000000 1.780060 
# 
# From -- ./inp_files/21434.got.cif
#   From: 2010.05.17/outbox.cif.g08.bks.cpg/sg72_11_cif.got.tgz:21434.got - 2010.06.03 17:03:01.
