data_PCOD9526458
_publ_section_title
;
Structure prediction by ZEFSAII (Michael W. Deem and Ramdas Pophale) SiO2 
 PCOD9526458
Probable space group: I B A M
;
_chemical_formula_sum "Si O2"
_cell_formula_units_Z 120
_cell_length_a 11.534877
_cell_length_b 20.712928
_cell_length_c 19.784504
_cell_angle_alpha 90.000000
_cell_angle_beta 90.000000
_cell_angle_gamma 90.000000
_cell_volume 4726.934999
_symmetry_space_group_name_H-M "I B A M"
_symmetry_group_IT_number 72
_symmetry_cell_setting 'orthorhombic'
loop_
_space_group_symop_operation_xyz
x,y,z
-x,-y,z
x,-y,1/2-z
-x,y,1/2-z
-x,-y,-z
x,y,-z
-x,y,1/2+z
x,-y,1/2+z
1/2+x,1/2+y,1/2+z
1/2-x,1/2-y,1/2+z
1/2+x,1/2-y,-z
1/2-x,1/2+y,-z
1/2-x,1/2-y,1/2-z
1/2+x,1/2+y,1/2-z
1/2-x,1/2+y,z
1/2+x,1/2-y,z
loop_
_atom_site_type_symbol
_atom_site_label
_atom_site_fract_x
_atom_site_fract_y
_atom_site_fract_z
Si Si1 0.628419 0.277478 0.715594
Si Si2 0.994374 0.903752 0.079524
Si Si3 0.189066 0.001963 0.619493
Si Si4 0.666998 0.154498 0.370678
Si Si5 0.890998 0.220476 0.577387
Si Si6 0.416565 0.864287 0.112410
Si Si7 0.684594 0.038674 0.000000
Si Si8 0.731790 0.904133 0.729143
O O1 0.500000 0.275781 0.750000
O O2 0.750000 0.250000 0.750000
O O3 0.621842 0.223296 0.658240
O O4 0.667871 0.352018 0.710052
O O5 0.989880 0.829486 0.101188
O O6 0.115882 0.939727 0.083667
O O7 0.905354 0.945400 0.123522
O O8 0.960549 0.906659 0.000000
O O9 0.281848 0.987156 0.561449
O O10 0.230677 0.030705 0.690073
O O11 0.776840 0.176518 0.413954
O O12 0.551453 0.128061 0.404213
O O13 0.705247 0.108181 0.308185
O O14 0.915093 0.235602 0.500000
O O15 0.877631 0.289637 0.610526
O O16 0.385009 0.886289 0.188012
O O17 0.349417 0.908060 0.059193
#
# Coordination Sequence:
#
# PCOD9526458 Si02
#       8
#    16  16  16  16  16  16   8  16
#     4  10  20  34  56  84 122 166 210 246 314 407
#     4  10  20  39  64  95 129 174 213 265 338 395
#     4  10  19  38  67  94 126 164 224 272 323 404
#     4  11  23  39  58  82 132 172 215 266 340 414
#     4  11  25  39  57  92 130 169 214 271 338 391
#     4  11  22  38  59  92 133 166 220 269 336 409
#     4  10  20  35  60  93 124 165 216 269 324 383
#     4  10  22  37  60  95 122 171 217 269 333 408
#
# _framework density 25.386430000000001
#
# number of rings (size 3 to 8) (size 9 to 14) (size 15 to 20)
#    0.000    1.600    3.333    2.400    4.667    0.000 
#    0.000    0.667    0.000    5.600    0.000    7.467 
#    0.000    0.000    0.000    0.000    0.000    0.000 
#
# Total GULP energy -334178.924588 kJ/mol
# GULP energy per Si atom -5569.648743 kJ/mol
# Density = 2.532865 g / cm^3
# Si number density = 25.386430 Si / 1000 Ang^3
#
#
#
# Elastic Constant Matrix: (Units=GPa)
#
#
# Indices 1 2 3 4 5 6 
#
# 1 105.6113 31.9592 2.2996 0.0000 0.0000 0.0000
# 2 31.9592 69.1604 18.8067 0.0000 0.0000 0.0000
# 3 2.2996 18.8067 84.2544 0.0000 0.0000 0.0000
# 4 0.0000 0.0000 0.0000 28.2518 0.0000 0.0000
# 5 0.0000 0.0000 0.0000 0.0000 21.5981 0.0000
# 6 0.0000 0.0000 0.0000 0.0000 0.0000 44.4665
#
#
#
# Elastic Compliance Matrix: (Units=1/GPa)
#
#
# Indices 1 2 3 4 5 6 
#
# 1 0.011071 -0.005359 0.000894 0.000000 0.000000 0.000000
# 2 -0.005359 0.017988 -0.003869 0.000000 0.000000 0.000000
# 3 0.000894 -0.003869 0.012708 0.000000 0.000000 0.000000
# 4 0.000000 0.000000 0.000000 0.035396 0.000000 0.000000
# 5 0.000000 0.000000 0.000000 0.000000 0.046300 0.000000
# 6 0.000000 0.000000 0.000000 0.000000 0.000000 0.022489
#
#
# Mechanical properties :
#
#
# Convention : Reuss Voigt Hill
#
# Bulk Modulus (GPa) = 39.84232 40.57301 40.20767
# Shear Modulus (GPa) = 29.24225 32.59399 30.91812
#
# Velocity S-wave (km/s) = 3.39763 3.58706 3.49363
# Velocity P-wave (km/s) = 5.57855 5.75959 5.66979
#
# Compressibility (1/GPa) = 0.02509894
#
# Stress axis : x y z
#
# Youngs Moduli (GPa) = 90.32672 55.59387 78.69065
#
# Poissons Ratio (x) = 0.29793 -0.07035
# Poissons Ratio (y) = 0.48406 0.30444
# Poissons Ratio (z) = -0.08076 0.21508
#
# Static dielectric constant tensor:
#      x y z
#    x 2.121120 0.000000 0.000000 
#    y 0.000000 2.084160 0.000000 
#    z 0.000000 0.000000 2.165190 
# 
# From -- ./inp_files/43584.got.cif
#   From: 2010.05.17/outbox.cif.g08.bks.cpg/sg72_22_cif.got.tgz:43584.got - 2010.06.03 17:03:01.
