data_PCOD9526672
_publ_section_title
;
Structure prediction by ZEFSAII (Michael W. Deem and Ramdas Pophale) SiO2 
 PCOD9526672
Probable space group: I B A M
;
_chemical_formula_sum "Si O2"
_cell_formula_units_Z 96
_cell_length_a 24.943943
_cell_length_b 24.041301
_cell_length_c 8.505599
_cell_angle_alpha 90.000000
_cell_angle_beta 90.000000
_cell_angle_gamma 90.000000
_cell_volume 5100.678791
_symmetry_space_group_name_H-M "I B A M"
_symmetry_group_IT_number 72
_symmetry_cell_setting 'orthorhombic'
loop_
_space_group_symop_operation_xyz
x,y,z
-x,-y,z
x,-y,1/2-z
-x,y,1/2-z
-x,-y,-z
x,y,-z
-x,y,1/2+z
x,-y,1/2+z
1/2+x,1/2+y,1/2+z
1/2-x,1/2-y,1/2+z
1/2+x,1/2-y,-z
1/2-x,1/2+y,-z
1/2-x,1/2-y,1/2-z
1/2+x,1/2+y,1/2-z
1/2-x,1/2+y,z
1/2+x,1/2-y,z
loop_
_atom_site_type_symbol
_atom_site_label
_atom_site_fract_x
_atom_site_fract_y
_atom_site_fract_z
Si Si1 0.158690 0.361941 0.691675
Si Si2 0.776700 0.868642 0.810658
Si Si3 0.442626 0.662731 0.687430
Si Si4 0.620454 0.561939 0.311912
Si Si5 0.441324 0.937119 0.689424
Si Si6 0.661124 0.733568 0.810369
O O1 0.157170 0.362307 0.500000
O O2 0.216959 0.384848 0.741161
O O3 0.107220 0.397231 0.743295
O O4 0.159113 0.297395 0.741330
O O5 0.823669 0.909865 0.754901
O O6 0.792885 0.806456 0.757591
O O7 0.777306 0.869001 0.000000
O O8 0.500000 0.680669 0.750000
O O9 0.443721 0.660186 0.500000
O O10 0.426321 0.602591 0.753818
O O11 0.394860 0.704217 0.734761
O O12 0.615003 0.500000 0.250000
O O13 0.620868 0.561608 0.500000
O O14 0.500000 0.918957 0.750000
O O15 0.442478 0.937906 0.500000
O O16 0.432632 0.000000 0.750000
O O17 0.665977 0.732790 0.000000
#
# Coordination Sequence:
#
# PCOD9526672 Si02
#       6
#    16  16  16  16  16  16
#     4   9  18  33  54  78 103 134 169 204 247 299
#     4   9  18  33  52  75 104 135 166 204 250 297
#     4  10  20  34  52  74 101 133 169 209 252 298
#     4  10  20  34  52  74 101 133 169 209 252 298
#     4  10  20  36  55  74 101 134 168 209 254 298
#     4   9  18  33  52  75 104 135 166 204 250 297
#
# _framework density 18.821023
#
# number of rings (size 3 to 8) (size 9 to 14) (size 15 to 20)
#    0.000    2.500    0.000    2.500    0.000    3.000 
#    0.000    5.000    0.000    0.000    0.000    0.000 
#    0.000    0.000    0.000    0.000    0.000    0.000 
#
# Total GULP energy -267798.413613 kJ/mol
# GULP energy per Si atom -5579.133617 kJ/mol
# Density = 1.877819 g / cm^3
# Si number density = 18.821023 Si / 1000 Ang^3
#
#
#
# Elastic Constant Matrix: (Units=GPa)
#
#
# Indices 1 2 3 4 5 6 
#
# 1 114.2612 7.7207 14.0039 0.0000 0.0000 0.0000
# 2 7.7207 20.7394 2.8585 0.0000 0.0000 0.0000
# 3 14.0039 2.8585 21.3372 0.0000 0.0000 0.0000
# 4 0.0000 0.0000 0.0000 22.6303 0.0000 0.0000
# 5 0.0000 0.0000 0.0000 0.0000 20.9657 0.0000
# 6 0.0000 0.0000 0.0000 0.0000 0.0000 21.0678
#
#
#
# Elastic Compliance Matrix: (Units=1/GPa)
#
#
# Indices 1 2 3 4 5 6 
#
# 1 0.009672 -0.002777 -0.005976 0.000000 0.000000 0.000000
# 2 -0.002777 0.049922 -0.004865 0.000000 0.000000 0.000000
# 3 -0.005976 -0.004865 0.051440 0.000000 0.000000 0.000000
# 4 0.000000 0.000000 0.000000 0.044189 0.000000 0.000000
# 5 0.000000 0.000000 0.000000 0.000000 0.047697 0.000000
# 6 0.000000 0.000000 0.000000 0.000000 0.000000 0.047466
#
#
# Mechanical properties :
#
#
# Convention : Reuss Voigt Hill
#
# Bulk Modulus (GPa) = 11.93348 22.83377 17.38363
# Shear Modulus (GPa) = 16.36370 21.71639 19.04005
#
# Velocity S-wave (km/s) = 2.95182 3.40050 3.18407
# Velocity P-wave (km/s) = 4.23933 5.25131 4.77222
#
# Compressibility (1/GPa) = 0.08379784
#
# Stress axis : x y z
#
# Youngs Moduli (GPa) = 103.39222 20.03131 19.43999
#
# Poissons Ratio (x) = 0.05563 0.11617
# Poissons Ratio (y) = 0.28711 0.09458
# Poissons Ratio (z) = 0.61785 0.09746
#
# Static dielectric constant tensor:
#      x y z
#    x 1.664850 0.000000 0.000000 
#    y 0.000000 1.630450 0.000000 
#    z 0.000000 0.000000 1.637120 
# 
# From -- ./inp_files/6985.got.cif
#   From: 2010.05.17/outbox.cif.g08.bks.cpg/sg72_4_cif.got.tgz:6985.got - 2010.06.03 17:03:01.
