data_PCOD9526789
_publ_section_title
;
Structure prediction by ZEFSAII (Michael W. Deem and Ramdas Pophale) SiO2 
 PCOD9526789
Probable space group: I B A M
;
_chemical_formula_sum "Si O2"
_cell_formula_units_Z 116
_cell_length_a 22.661048
_cell_length_b 27.599095
_cell_length_c 8.980105
_cell_angle_alpha 90.000000
_cell_angle_beta 90.000000
_cell_angle_gamma 90.000000
_cell_volume 5616.376930
_symmetry_space_group_name_H-M "I B A M"
_symmetry_group_IT_number 72
_symmetry_cell_setting 'orthorhombic'
loop_
_space_group_symop_operation_xyz
x,y,z
-x,-y,z
x,-y,1/2-z
-x,y,1/2-z
-x,-y,-z
x,y,-z
-x,y,1/2+z
x,-y,1/2+z
1/2+x,1/2+y,1/2+z
1/2-x,1/2-y,1/2+z
1/2+x,1/2-y,-z
1/2-x,1/2+y,-z
1/2-x,1/2-y,1/2-z
1/2+x,1/2+y,1/2-z
1/2-x,1/2+y,z
1/2+x,1/2-y,z
loop_
_atom_site_type_symbol
_atom_site_label
_atom_site_fract_x
_atom_site_fract_y
_atom_site_fract_z
Si Si1 0.806712 0.446961 0.177275
Si Si2 0.846360 0.355702 0.327451
Si Si3 0.093292 0.826439 0.822115
Si Si4 0.225574 0.201911 0.328602
Si Si5 0.000000 0.000000 0.500000
Si Si6 0.313535 0.551947 0.675456
Si Si7 0.061222 0.285661 0.675367
Si Si8 0.576248 0.581980 0.660246
O O1 0.816195 0.500000 0.250000
O O2 0.850219 0.405924 0.238014
O O3 0.742599 0.428974 0.235567
O O4 0.807166 0.451010 0.000000
O O5 0.861780 0.363403 0.500000
O O6 0.779665 0.335221 0.323448
O O7 0.886808 0.314882 0.254454
O O8 0.163421 0.821839 0.779205
O O9 0.070058 0.771890 0.805294
O O10 0.060349 0.863613 0.710739
O O11 0.088373 0.839448 0.000000
O O12 0.213726 0.215542 0.500000
O O13 0.250000 0.250000 0.250000
O O14 0.970152 0.039036 0.376650
O O15 0.319539 0.500000 0.750000
O O16 0.301132 0.551563 0.500000
O O17 0.378316 0.571802 0.706671
O O18 0.061500 0.295908 0.500000
O O19 0.000000 0.300142 0.750000
O O20 0.609122 0.585144 0.500000
#
# Coordination Sequence:
#
# PCOD9526789 Si02
#       8
#    16  16  16  16   4  16  16  16
#     4  11  22  38  63 100 139 180 222 271 333 407
#     4  11  22  38  64  99 141 185 225 280 346 419
#     4  10  21  39  65  97 133 175 224 288 364 444
#     4  10  20  34  57  96 142 178 217 273 352 439
#     4   8  24  44  64  88 122 160 234 304 346 420
#     4  11  21  37  63  92 123 163 212 274 347 423
#     4  11  24  43  66  93 132 179 232 284 340 417
#     4  10  21  41  66  87 120 162 220 289 358 424
#
# _framework density 20.653883
#
# number of rings (size 3 to 8) (size 9 to 14) (size 15 to 20)
#    0.414    1.103    1.379    5.379    0.000    3.310 
#    0.000    3.103    3.034    0.414    0.000    2.897 
#    0.000    0.000    0.000    0.000    0.000    0.000 
#
# Total GULP energy -322873.028028 kJ/mol
# GULP energy per Si atom -5566.776345 kJ/mol
# Density = 2.060687 g / cm^3
# Si number density = 20.653883 Si / 1000 Ang^3
#
#
#
# Elastic Constant Matrix: (Units=GPa)
#
#
# Indices 1 2 3 4 5 6 
#
# 1 61.3357 21.5349 26.3978 0.0000 0.0000 0.0000
# 2 21.5349 123.4064 66.3832 0.0000 0.0000 0.0000
# 3 26.3978 66.3832 154.5721 0.0000 0.0000 0.0000
# 4 0.0000 0.0000 0.0000 60.2989 0.0000 0.0000
# 5 0.0000 0.0000 0.0000 0.0000 23.7984 0.0000
# 6 0.0000 0.0000 0.0000 0.0000 0.0000 25.0011
#
#
#
# Elastic Compliance Matrix: (Units=1/GPa)
#
#
# Indices 1 2 3 4 5 6 
#
# 1 0.017943 -0.001928 -0.002236 0.000000 0.000000 0.000000
# 2 -0.001928 0.010745 -0.004285 0.000000 0.000000 0.000000
# 3 -0.002236 -0.004285 0.008692 0.000000 0.000000 0.000000
# 4 0.000000 0.000000 0.000000 0.016584 0.000000 0.000000
# 5 0.000000 0.000000 0.000000 0.000000 0.042020 0.000000
# 6 0.000000 0.000000 0.000000 0.000000 0.000000 0.039998
#
#
# Mechanical properties :
#
#
# Convention : Reuss Voigt Hill
#
# Bulk Modulus (GPa) = 48.82717 63.10509 55.96613
# Shear Modulus (GPa) = 31.30712 36.81956 34.06334
#
# Velocity S-wave (km/s) = 3.89755 4.22678 4.06550
# Velocity P-wave (km/s) = 6.62922 7.37840 7.01382
#
# Compressibility (1/GPa) = 0.02048040
#
# Stress axis : x y z
#
# Youngs Moduli (GPa) = 55.73154 93.06712 115.05171
#
# Poissons Ratio (x) = 0.17945 0.25728
# Poissons Ratio (y) = 0.10746 0.49303
# Poissons Ratio (z) = 0.12463 0.39882
#
# Static dielectric constant tensor:
#      x y z
#    x 1.743900 0.000000 0.000000 
#    y 0.000000 1.809510 0.000000 
#    z 0.000000 0.000000 1.734750 
# 
# From -- ./inp_files/7339.got.cif
#   From: 2010.05.17/outbox.cif.g08.bks.cpg/sg72_4_cif.got.tgz:7339.got - 2010.06.03 17:03:01.
