data_PCOD9526381
_publ_section_title
;
Structure prediction by ZEFSAII (Michael W. Deem and Ramdas Pophale) SiO2 
 PCOD9526381
Probable space group: I B A M
;
_chemical_formula_sum "Si O2"
_cell_formula_units_Z 88
_cell_length_a 14.957189
_cell_length_b 19.529320
_cell_length_c 15.260816
_cell_angle_alpha 90.000000
_cell_angle_beta 90.000000
_cell_angle_gamma 90.000000
_cell_volume 4457.741281
_symmetry_space_group_name_H-M "I B A M"
_symmetry_group_IT_number 72
_symmetry_cell_setting 'orthorhombic'
loop_
_space_group_symop_operation_xyz
x,y,z
-x,-y,z
x,-y,1/2-z
-x,y,1/2-z
-x,-y,-z
x,y,-z
-x,y,1/2+z
x,-y,1/2+z
1/2+x,1/2+y,1/2+z
1/2-x,1/2-y,1/2+z
1/2+x,1/2-y,-z
1/2-x,1/2+y,-z
1/2-x,1/2-y,1/2-z
1/2+x,1/2+y,1/2-z
1/2-x,1/2+y,z
1/2+x,1/2-y,z
loop_
_atom_site_type_symbol
_atom_site_label
_atom_site_fract_x
_atom_site_fract_y
_atom_site_fract_z
Si Si1 0.909063 0.972624 0.899707
Si Si2 0.420580 0.661135 0.000000
Si Si3 0.600334 0.858166 0.856118
Si Si4 0.106062 0.622244 0.343569
Si Si5 0.305615 0.794232 0.000000
Si Si6 0.892771 0.241966 0.000000
Si Si7 0.210830 0.508024 0.895712
O O1 0.812981 0.991876 0.862679
O O2 0.913423 0.891134 0.917918
O O3 0.908540 0.002511 0.000000
O O4 0.000000 0.000000 0.857614
O O5 0.341266 0.716139 0.000000
O O6 0.515844 0.698918 0.000000
O O7 0.498474 0.884393 0.866603
O O8 0.613667 0.846099 0.752989
O O9 0.609270 0.791411 0.915507
O O10 0.668026 0.917294 0.885138
O O11 0.153296 0.669260 0.415240
O O12 0.152296 0.548330 0.346632
O O13 0.198916 0.800144 0.000000
O O14 0.209720 0.491867 0.000000
#
# Coordination Sequence:
#
# PCOD9526381 Si02
#       7
#    16   8  16  16   8   8  16
#     4   8  18  34  60  91 122 151 212 257 308 361
#     4  10  19  37  58  92 122 163 203 257 301 374
#     4  11  23  43  59  95 128 167 202 262 313 383
#     4  11  24  39  64  92 130 160 211 256 318 376
#     4  12  24  39  63  95 123 167 212 256 310 384
#     4  12  24  38  67  87 131 172 215 252 320 370
#     4  11  20  35  65  94 122 164 204 262 321 369
#
# _framework density 19.740939999999998
#
# number of rings (size 3 to 8) (size 9 to 14) (size 15 to 20)
#    0.545    0.909    3.636    2.182    2.545    2.909 
#    0.000    0.000    0.000    2.182    0.000    0.000 
#    0.000    0.000    0.000    0.000    0.000    0.000 
#
# Total GULP energy -245656.913917 kJ/mol
# GULP energy per Si atom -5583.111680 kJ/mol
# Density = 1.969601 g / cm^3
# Si number density = 19.740940 Si / 1000 Ang^3
#
#
#
# Elastic Constant Matrix: (Units=GPa)
#
#
# Indices 1 2 3 4 5 6 
#
# 1 117.8782 3.1536 28.2987 0.0000 0.0000 0.0000
# 2 3.1536 41.8840 8.1071 0.0000 0.0000 0.0000
# 3 28.2987 8.1071 71.7571 0.0000 0.0001 0.0000
# 4 0.0000 0.0000 0.0000 -6.7616 0.0000 0.0000
# 5 0.0000 0.0000 0.0001 0.0000 36.7895 0.0000
# 6 0.0000 0.0000 0.0000 0.0000 0.0000 22.8003
#
#
#
# Elastic Compliance Matrix: (Units=1/GPa)
#
#
# Indices 1 2 3 4 5 6 
#
# 1 0.009370 0.000010 -0.003697 0.000000 0.000000 0.000000
# 2 0.000010 0.024409 -0.002762 0.000000 0.000000 0.000000
# 3 -0.003697 -0.002762 0.015706 0.000000 0.000000 0.000000
# 4 0.000000 0.000000 0.000000 -0.147893 0.000000 0.000000
# 5 0.000000 0.000000 0.000000 0.000000 0.027182 0.000000
# 6 0.000000 0.000000 0.000000 0.000000 0.000000 0.043859
#
#
# Mechanical properties :
#
#
# Convention : Reuss Voigt Hill
#
# Bulk Modulus (GPa) = 27.33064 34.51533 30.92299
# Shear Modulus (GPa) = -2198.80510 23.36294 -1087.72108
#
# Velocity S-wave (km/s) = -33.41030 3.44390 -23.49880
# Velocity P-wave (km/s) = 38.39865 5.77374 26.84325
#
# Compressibility (1/GPa) = 0.03658897
#
# Stress axis : x y z
#
# Youngs Moduli (GPa) = 106.71805 40.96799 63.67110
#
# Poissons Ratio (x) = -0.00041 0.23536
# Poissons Ratio (y) = -0.00106 0.17584
# Poissons Ratio (z) = 0.39449 0.11314
#
# Static dielectric constant tensor:
#      x y z
#    x 1.696480 0.000000 0.000000 
#    y 0.000000 1.673660 0.000000 
#    z 0.000000 0.000000 1.725410 
# 
# From -- ./inp_files/21735.got.cif
#   From: 2010.05.17/outbox.cif.g08.bks.cpg/sg72_11_cif.got.tgz:21735.got - 2010.06.03 17:03:01.
