data_PCOD9526542
_publ_section_title
;
Structure prediction by ZEFSAII (Michael W. Deem and Ramdas Pophale) SiO2 
 PCOD9526542
Probable space group: I B A M
;
_chemical_formula_sum "Si O2"
_cell_formula_units_Z 84
_cell_length_a 11.742379
_cell_length_b 18.409814
_cell_length_c 19.257770
_cell_angle_alpha 90.000000
_cell_angle_beta 90.000000
_cell_angle_gamma 90.000000
_cell_volume 4163.048686
_symmetry_space_group_name_H-M "I B A M"
_symmetry_group_IT_number 72
_symmetry_cell_setting 'orthorhombic'
loop_
_space_group_symop_operation_xyz
x,y,z
-x,-y,z
x,-y,1/2-z
-x,y,1/2-z
-x,-y,-z
x,y,-z
-x,y,1/2+z
x,-y,1/2+z
1/2+x,1/2+y,1/2+z
1/2-x,1/2-y,1/2+z
1/2+x,1/2-y,-z
1/2-x,1/2+y,-z
1/2-x,1/2-y,1/2-z
1/2+x,1/2+y,1/2-z
1/2-x,1/2+y,z
1/2+x,1/2-y,z
loop_
_atom_site_type_symbol
_atom_site_label
_atom_site_fract_x
_atom_site_fract_y
_atom_site_fract_z
Si Si1 0.000000 0.000000 0.250000
Si Si2 0.043124 0.833192 0.922928
Si Si3 0.835700 0.805090 0.170375
Si Si4 0.684438 0.605520 0.189676
Si Si5 0.575787 0.138964 0.180992
Si Si6 0.388249 0.834573 0.578810
O O1 0.911089 0.953867 0.295055
O O2 0.153964 0.864313 0.885835
O O3 0.063388 0.747141 0.927171
O O4 0.937209 0.843567 0.871737
O O5 0.023023 0.861808 0.000000
O O6 0.832234 0.835029 0.248770
O O7 0.866679 0.719393 0.171366
O O8 0.720719 0.825750 0.129321
O O9 0.817242 0.585474 0.190063
O O10 0.500000 0.142354 0.250000
O O11 0.489645 0.123175 0.117936
O O12 0.361293 0.859257 0.500000
#
# Coordination Sequence:
#
# PCOD9526542 Si02
#       6
#     4  16  16  16  16  16
#     4  12  28  44  64  84 112 156 218 268 296 352
#     4  10  20  33  54  88 126 158 193 241 300 359
#     4  11  18  34  60  90 125 160 193 242 299 366
#     4  12  22  40  61  82 117 160 209 254 296 351
#     4  11  21  33  59  93 119 159 198 246 306 359
#     4  10  20  32  54  94 133 159 185 233 307 375
#
# _framework density 20.177520999999999
#
# number of rings (size 3 to 8) (size 9 to 14) (size 15 to 20)
#    0.000    1.143    5.714    3.429    0.000    1.524 
#    0.000    0.952    0.000    0.000    0.000    1.333 
#    0.000    0.000    0.000    0.000    0.000    0.000 
#
# Total GULP energy -234288.545874 kJ/mol
# GULP energy per Si atom -5578.298711 kJ/mol
# Density = 2.013160 g / cm^3
# Si number density = 20.177521 Si / 1000 Ang^3
#
#
#
# Elastic Constant Matrix: (Units=GPa)
#
#
# Indices 1 2 3 4 5 6 
#
# 1 148.1269 15.8594 31.0701 0.0000 0.0000 0.0000
# 2 15.8594 11.5915 2.5381 0.0000 0.0000 -0.0002
# 3 31.0701 2.5381 100.2214 0.0000 0.0000 -0.0001
# 4 0.0000 0.0000 0.0000 3.6736 0.0000 -0.0001
# 5 0.0000 0.0000 0.0000 0.0000 -14.2222 0.0000
# 6 0.0000 -0.0002 -0.0001 -0.0001 0.0000 -302.2097
#
#
#
# Elastic Compliance Matrix: (Units=1/GPa)
#
#
# Indices 1 2 3 4 5 6 
#
# 1 0.008418 -0.011008 -0.002331 0.000000 0.000000 0.000000
# 2 -0.011008 0.101145 0.000851 0.000000 0.000000 0.000000
# 3 -0.002331 0.000851 0.010679 0.000000 0.000000 0.000000
# 4 0.000000 0.000000 0.000000 0.272211 0.000000 0.000000
# 5 0.000000 0.000000 0.000000 0.000000 -0.070313 0.000000
# 6 0.000000 0.000000 0.000000 0.000000 0.000000 -0.003309
#
#
# Mechanical properties :
#
#
# Convention : Reuss Voigt Hill
#
# Bulk Modulus (GPa) = 10.49684 39.87501 25.18592
# Shear Modulus (GPa) = 13.31338 -48.52018 -17.60340
#
# Velocity S-wave (km/s) = 2.57147 -4.90906 -2.95689
# Velocity P-wave (km/s) = 3.74568 3.51096 0.92286
#
# Compressibility (1/GPa) = 0.09526677
#
# Stress axis : x y z
#
# Youngs Moduli (GPa) = 118.78617 9.88683 93.64148
#
# Poissons Ratio (x) = 0.10883 0.21829
# Poissons Ratio (y) = 1.30757 -0.07970
# Poissons Ratio (z) = 0.27690 -0.00841
#
# Static dielectric constant tensor:
#      x y z
#    x 1.756540 0.000000 0.000000 
#    y 0.000000 1.747710 0.000000 
#    z 0.000000 0.000000 1.770060 
# 
# From -- ./inp_files/33211.got.cif
#   From: 2010.05.17/outbox.cif.g08.bks.cpg/sg72_17_cif.got.tgz:33211.got - 2010.06.03 17:03:01.
