data_PCOD9526956
_publ_section_title
;
Structure prediction by ZEFSAII (Michael W. Deem and Ramdas Pophale) SiO2 
 PCOD9526956
Probable space group: I B A M
;
_chemical_formula_sum "Si O2"
_cell_formula_units_Z 112
_cell_length_a 14.322929
_cell_length_b 27.848659
_cell_length_c 14.748461
_cell_angle_alpha 90.000000
_cell_angle_beta 90.000000
_cell_angle_gamma 90.000000
_cell_volume 5882.783025
_symmetry_space_group_name_H-M "I B A M"
_symmetry_group_IT_number 72
_symmetry_cell_setting 'orthorhombic'
loop_
_space_group_symop_operation_xyz
x,y,z
-x,-y,z
x,-y,1/2-z
-x,y,1/2-z
-x,-y,-z
x,y,-z
-x,y,1/2+z
x,-y,1/2+z
1/2+x,1/2+y,1/2+z
1/2-x,1/2-y,1/2+z
1/2+x,1/2-y,-z
1/2-x,1/2+y,-z
1/2-x,1/2-y,1/2-z
1/2+x,1/2+y,1/2-z
1/2-x,1/2+y,z
1/2+x,1/2-y,z
loop_
_atom_site_type_symbol
_atom_site_label
_atom_site_fract_x
_atom_site_fract_y
_atom_site_fract_z
Si Si1 0.888698 0.700347 0.604432
Si Si2 0.356102 0.948094 0.500000
Si Si3 0.213757 0.196948 0.602929
Si Si4 0.395260 0.338385 0.275906
Si Si5 0.411778 0.240132 0.608608
Si Si6 0.599854 0.055320 0.789660
Si Si7 0.275990 0.888625 0.333278
Si Si8 0.916179 0.450540 0.500000
O O1 0.893638 0.682761 0.500000
O O2 0.831728 0.749865 0.604350
O O3 0.833008 0.661124 0.660053
O O4 0.992977 0.713202 0.634002
O O5 0.312850 0.921589 0.414618
O O6 0.469367 0.950456 0.500000
O O7 0.342837 0.004784 0.500000
O O8 0.201498 0.177909 0.500000
O O9 0.162106 0.169337 0.682766
O O10 0.322798 0.205993 0.620764
O O11 0.500000 0.352802 0.250000
O O12 0.400977 0.288252 0.332027
O O13 0.332623 0.375373 0.333080
O O14 0.417071 0.252083 0.500000
O O15 0.500000 0.072995 0.750000
O O16 0.688882 0.083164 0.753492
O O17 0.597729 0.065411 0.896587
O O18 0.605034 0.000000 0.750000
#
# Coordination Sequence:
#
# PCOD9526956 Si02
#       8
#    16   8  16  16  16  16  16   8
#     4  10  20  35  60  88 122 156 210 263 302 363
#     4  11  20  40  68  97 129 159 197 249 298 392
#     4  10  21  40  56  76 113 166 215 259 315 368
#     4  12  25  40  58  80 117 165 215 265 315 359
#     4  10  21  37  58  83 112 162 210 261 318 367
#     4  11  21  39  65  98 134 169 192 235 313 390
#     4  12  24  37  62  97 124 160 212 260 310 370
#     4  11  20  42  68  93 137 171 191 233 318 393
#
# _framework density 19.038608
#
# number of rings (size 3 to 8) (size 9 to 14) (size 15 to 20)
#    0.000    1.143    6.429    1.286    1.000    1.143 
#    1.286    0.000    0.000    0.429    0.000    1.000 
#    0.000    0.000    0.000    0.000    0.000    0.000 
#
# Total GULP energy -312381.776539 kJ/mol
# GULP energy per Si atom -5578.246010 kJ/mol
# Density = 1.899528 g / cm^3
# Si number density = 19.038608 Si / 1000 Ang^3
#
#
#
# Elastic Constant Matrix: (Units=GPa)
#
#
# Indices 1 2 3 4 5 6 
#
# 1 121.1708 27.6434 25.3116 0.0000 0.0000 0.0000
# 2 27.6434 24.1612 14.9145 0.0000 0.0000 0.0000
# 3 25.3116 14.9145 110.8538 0.0001 0.0000 0.0000
# 4 0.0000 0.0000 0.0001 4.2438 0.0000 0.0000
# 5 0.0000 0.0000 0.0000 0.0000 16.4606 0.0000
# 6 0.0000 0.0000 0.0000 0.0000 0.0000 24.6329
#
#
#
# Elastic Compliance Matrix: (Units=1/GPa)
#
#
# Indices 1 2 3 4 5 6 
#
# 1 0.011252 -0.012310 -0.000913 0.000000 0.000000 0.000000
# 2 -0.012310 0.058605 -0.005074 0.000000 0.000000 0.000000
# 3 -0.000913 -0.005074 0.009912 0.000000 0.000000 0.000000
# 4 0.000000 0.000000 0.000000 0.235640 0.000000 0.000000
# 5 0.000000 0.000000 0.000000 0.000000 0.060751 0.000000
# 6 0.000000 0.000000 0.000000 0.000000 0.000000 0.040596
#
#
# Mechanical properties :
#
#
# Convention : Reuss Voigt Hill
#
# Bulk Modulus (GPa) = 23.16164 43.54719 33.35442
# Shear Modulus (GPa) = 10.68966 21.62188 16.15577
#
# Velocity S-wave (km/s) = 2.37211 3.37365 2.91620
# Velocity P-wave (km/s) = 4.43786 6.17237 5.37553
#
# Compressibility (1/GPa) = 0.04317483
#
# Stress axis : x y z
#
# Youngs Moduli (GPa) = 88.87425 17.06344 100.88757
#
# Poissons Ratio (x) = 0.21005 0.09211
# Poissons Ratio (y) = 1.09404 0.51191
# Poissons Ratio (z) = 0.08114 0.08658
#
# Static dielectric constant tensor:
#      x y z
#    x 1.652990 0.000000 0.000000 
#    y 0.000000 1.779000 0.000000 
#    z 0.000000 0.000000 1.771170 
# 
# From -- ./inp_files/22341.got.cif
#   From: 2010.05.17/outbox.cif.g08.bks.cpg/sg72_12_cif.got.tgz:22341.got - 2010.06.03 17:03:01.
