data_PCOD9526684
_publ_section_title
;
Structure prediction by ZEFSAII (Michael W. Deem and Ramdas Pophale) SiO2 
 PCOD9526684
Probable space group: I B A M
;
_chemical_formula_sum "Si O2"
_cell_formula_units_Z 112
_cell_length_a 10.124715
_cell_length_b 28.481605
_cell_length_c 21.628091
_cell_angle_alpha 90.000000
_cell_angle_beta 90.000000
_cell_angle_gamma 90.000000
_cell_volume 6236.852230
_symmetry_space_group_name_H-M "I B A M"
_symmetry_group_IT_number 72
_symmetry_cell_setting 'orthorhombic'
loop_
_space_group_symop_operation_xyz
x,y,z
-x,-y,z
x,-y,1/2-z
-x,y,1/2-z
-x,-y,-z
x,y,-z
-x,y,1/2+z
x,-y,1/2+z
1/2+x,1/2+y,1/2+z
1/2-x,1/2-y,1/2+z
1/2+x,1/2-y,-z
1/2-x,1/2+y,-z
1/2-x,1/2-y,1/2-z
1/2+x,1/2+y,1/2-z
1/2-x,1/2+y,z
1/2+x,1/2-y,z
loop_
_atom_site_type_symbol
_atom_site_label
_atom_site_fract_x
_atom_site_fract_y
_atom_site_fract_z
Si Si1 0.683838 0.847608 0.873558
Si Si2 0.330719 0.950517 0.074675
Si Si3 0.641799 0.056425 0.574742
Si Si4 0.566386 0.297275 0.926348
Si Si5 0.902217 0.308678 0.389301
Si Si6 0.834544 0.863237 0.569827
Si Si7 0.153179 0.705825 0.746425
O O1 0.709113 0.901977 0.887400
O O2 0.790866 0.817723 0.910520
O O3 0.537064 0.836646 0.898264
O O4 0.682432 0.829548 0.802770
O O5 0.484988 0.942810 0.090695
O O6 0.230120 0.910543 0.098183
O O7 0.302455 0.004776 0.089900
O O8 0.327593 0.947112 0.000000
O O9 0.653519 0.063524 0.500000
O O10 0.560980 0.245779 0.896809
O O11 0.456328 0.334053 0.902002
O O12 0.548009 0.291918 0.000000
O O13 0.787098 0.326742 0.433013
O O14 0.841935 0.316990 0.321096
O O15 0.877820 0.875677 0.500000
O O16 0.250000 0.750000 0.750000
O O17 0.000000 0.721615 0.750000
#
# Coordination Sequence:
#
# PCOD9526684 Si02
#       7
#    16  16  16  16  16  16  16
#     4  11  21  35  53  76 105 137 180 225 265 313
#     4   8  15  30  52  78 106 137 176 216 263 330
#     4   9  16  29  54  82 103 134 177 221 270 322
#     4  11  23  33  48  79 114 143 174 217 271 324
#     4  11  21  35  54  74 103 143 186 222 260 313
#     4  10  20  34  52  78 109 143 177 216 271 327
#     4  10  22  37  54  74 101 138 184 222 257 310
#
# _framework density 17.957775999999999
#
# number of rings (size 3 to 8) (size 9 to 14) (size 15 to 20)
#    0.000    2.000    2.857    2.571    2.000    2.857 
#    0.000    0.714    0.000    4.286    0.000    0.000 
#    0.000    2.286    0.000    0.000    0.000    0.000 
#
# Total GULP energy -311998.730582 kJ/mol
# GULP energy per Si atom -5571.405903 kJ/mol
# Density = 1.791690 g / cm^3
# Si number density = 17.957776 Si / 1000 Ang^3
#
#
#
# Elastic Constant Matrix: (Units=GPa)
#
#
# Indices 1 2 3 4 5 6 
#
# 1 38.4694 18.9588 10.7377 0.0000 0.0000 0.0000
# 2 18.9588 128.9361 13.2781 0.0000 0.0000 0.0000
# 3 10.7377 13.2781 39.3205 0.0001 0.0000 0.0000
# 4 0.0000 0.0000 0.0001 7.5914 0.0000 0.0000
# 5 0.0000 0.0000 0.0000 0.0000 14.7844 0.0000
# 6 0.0000 0.0000 0.0000 0.0000 0.0000 17.7799
#
#
#
# Elastic Compliance Matrix: (Units=1/GPa)
#
#
# Indices 1 2 3 4 5 6 
#
# 1 0.029719 -0.003661 -0.006879 0.000000 0.000000 0.000000
# 2 -0.003661 0.008486 -0.001866 0.000000 0.000000 0.000000
# 3 -0.006879 -0.001866 0.027941 0.000000 0.000000 0.000000
# 4 0.000000 0.000000 0.000000 0.131727 0.000000 0.000000
# 5 0.000000 0.000000 0.000000 0.000000 0.067639 0.000000
# 6 0.000000 0.000000 0.000000 0.000000 0.000000 0.056243
#
#
# Mechanical properties :
#
#
# Convention : Reuss Voigt Hill
#
# Bulk Modulus (GPa) = 24.19376 32.51948 28.35662
# Shear Modulus (GPa) = 13.87552 18.94791 16.41172
#
# Velocity S-wave (km/s) = 2.78272 3.25181 3.02637
# Velocity P-wave (km/s) = 4.88124 5.67866 5.29498
#
# Compressibility (1/GPa) = 0.04133297
#
# Stress axis : x y z
#
# Youngs Moduli (GPa) = 33.64813 117.83684 35.79007
#
# Poissons Ratio (x) = 0.43146 0.24621
# Poissons Ratio (y) = 0.12320 0.06678
# Poissons Ratio (z) = 0.23148 0.21987
#
# Static dielectric constant tensor:
#      x y z
#    x 1.619930 0.000000 0.000000 
#    y 0.000000 1.656440 0.000000 
#    z 0.000000 0.000000 1.662470 
# 
# From -- ./inp_files/43730.got.cif
#   From: 2010.05.17/outbox.cif.g08.bks.cpg/sg72_22_cif.got.tgz:43730.got - 2010.06.03 17:03:01.
