data_PCOD9526170
_publ_section_title
;
Structure prediction by ZEFSAII (Michael W. Deem and Ramdas Pophale) SiO2 
 PCOD9526170
Probable space group: I B A M
;
_chemical_formula_sum "Si O2"
_cell_formula_units_Z 116
_cell_length_a 23.279442
_cell_length_b 27.122654
_cell_length_c 9.396378
_cell_angle_alpha 90.000000
_cell_angle_beta 90.000000
_cell_angle_gamma 90.000000
_cell_volume 5932.875425
_symmetry_space_group_name_H-M "I B A M"
_symmetry_group_IT_number 72
_symmetry_cell_setting 'orthorhombic'
loop_
_space_group_symop_operation_xyz
x,y,z
-x,-y,z
x,-y,1/2-z
-x,y,1/2-z
-x,-y,-z
x,y,-z
-x,y,1/2+z
x,-y,1/2+z
1/2+x,1/2+y,1/2+z
1/2-x,1/2-y,1/2+z
1/2+x,1/2-y,-z
1/2-x,1/2+y,-z
1/2-x,1/2-y,1/2-z
1/2+x,1/2+y,1/2-z
1/2-x,1/2+y,z
1/2+x,1/2-y,z
loop_
_atom_site_type_symbol
_atom_site_label
_atom_site_fract_x
_atom_site_fract_y
_atom_site_fract_z
Si Si1 0.781177 0.594315 0.326316
Si Si2 0.440798 0.807148 0.327973
Si Si3 0.407311 0.082302 0.832289
Si Si4 0.389251 0.721964 0.164254
Si Si5 0.160029 0.049838 0.171379
Si Si6 0.258482 0.299366 0.663286
Si Si7 0.000000 0.500000 0.750000
Si Si8 0.944101 0.121964 0.669875
O O1 0.779802 0.594216 0.500000
O O2 0.842544 0.573312 0.275693
O O3 0.724085 0.565691 0.281213
O O4 0.772808 0.651500 0.282775
O O5 0.500000 0.793061 0.250000
O O6 0.444738 0.804715 0.500000
O O7 0.427567 0.863620 0.281941
O O8 0.394231 0.768597 0.267738
O O9 0.454196 0.039329 0.814414
O O10 0.400302 0.088288 0.000000
O O11 0.327415 0.695162 0.164331
O O12 0.433249 0.679192 0.206625
O O13 0.399680 0.737654 0.000000
O O14 0.112560 0.090864 0.205503
O O15 0.144109 0.000000 0.250000
O O16 0.160779 0.043857 0.000000
O O17 0.240053 0.292065 0.500000
O O18 0.250000 0.250000 0.750000
O O19 0.951948 0.119351 0.500000
O O20 0.000000 0.103147 0.750000
#
# Coordination Sequence:
#
# PCOD9526170 Si02
#       8
#    16  16  16  16  16  16   4  16
#     4   9  18  37  61  84 114 157 197 239 298 365
#     4  11  22  38  57  85 120 158 199 248 302 362
#     4  10  22  38  59  85 115 155 202 245 301 362
#     4  10  20  36  58  86 119 158 198 244 296 356
#     4  10  21  39  62  86 116 153 199 249 298 353
#     4  10  19  34  58  86 120 157 196 243 297 356
#     4  12  22  40  60  86 120 160 204 256 300 348
#     4  10  21  38  59  86 118 157 197 240 295 352
#
# _framework density 19.552070000000001
#
# number of rings (size 3 to 8) (size 9 to 14) (size 15 to 20)
#    0.000    1.931    2.069    1.862    0.966    4.138 
#    0.000    2.069    0.000    2.483    0.000    0.000 
#    0.000    0.000    0.000    0.000    0.000    0.000 
#
# Total GULP energy -323300.079198 kJ/mol
# GULP energy per Si atom -5574.139297 kJ/mol
# Density = 1.950757 g / cm^3
# Si number density = 19.552070 Si / 1000 Ang^3
#
#
#
# Elastic Constant Matrix: (Units=GPa)
#
#
# Indices 1 2 3 4 5 6 
#
# 1 105.7566 30.7201 18.4142 0.0000 0.0000 0.0000
# 2 30.7201 102.8523 27.8734 0.0000 0.0000 0.0000
# 3 18.4142 27.8734 22.4774 0.0000 0.0000 0.0000
# 4 0.0000 0.0000 0.0000 22.0573 0.0000 0.0000
# 5 0.0000 0.0000 0.0000 0.0000 25.0885 0.0000
# 6 0.0000 0.0000 0.0000 0.0000 0.0000 25.5618
#
#
#
# Elastic Compliance Matrix: (Units=1/GPa)
#
#
# Indices 1 2 3 4 5 6 
#
# 1 0.011141 -0.001286 -0.007532 0.000000 0.000000 0.000000
# 2 -0.001286 0.014793 -0.017290 0.000000 0.000000 0.000000
# 3 -0.007532 -0.017290 0.072100 0.000000 0.000000 0.000000
# 4 0.000000 0.000000 0.000000 0.045337 0.000000 0.000000
# 5 0.000000 0.000000 0.000000 0.000000 0.039859 0.000000
# 6 0.000000 0.000000 0.000000 0.000000 0.000000 0.039121
#
#
# Mechanical properties :
#
#
# Convention : Reuss Voigt Hill
#
# Bulk Modulus (GPa) = 21.82576 42.78905 32.30740
# Shear Modulus (GPa) = 17.25106 24.81344 21.03225
#
# Velocity S-wave (km/s) = 2.97360 3.56630 3.28335
# Velocity P-wave (km/s) = 4.79342 6.23620 5.56179
#
# Compressibility (1/GPa) = 0.04581742
#
# Stress axis : x y z
#
# Youngs Moduli (GPa) = 89.76065 67.60181 13.86968
#
# Poissons Ratio (x) = 0.08697 0.10446
# Poissons Ratio (y) = 0.11547 0.23980
# Poissons Ratio (z) = 0.67604 1.16882
#
# Static dielectric constant tensor:
#      x y z
#    x 1.756700 0.000000 0.000000 
#    y 0.000000 1.692050 0.000000 
#    z 0.000000 0.000000 1.660200 
# 
# From -- ./inp_files/7274.got.cif
#   From: 2010.05.17/outbox.cif.g08.bks.cpg/sg72_4_cif.got.tgz:7274.got - 2010.06.03 17:03:01.
