data_PCOD9526589
_publ_section_title
;
Structure prediction by ZEFSAII (Michael W. Deem and Ramdas Pophale) SiO2 
 PCOD9526589
Probable space group: I B A M
;
_chemical_formula_sum "Si O2"
_cell_formula_units_Z 112
_cell_length_a 19.630481
_cell_length_b 18.403899
_cell_length_c 18.206279
_cell_angle_alpha 90.000000
_cell_angle_beta 90.000000
_cell_angle_gamma 90.000000
_cell_volume 6577.516952
_symmetry_space_group_name_H-M "I B A M"
_symmetry_group_IT_number 72
_symmetry_cell_setting 'orthorhombic'
loop_
_space_group_symop_operation_xyz
x,y,z
-x,-y,z
x,-y,1/2-z
-x,y,1/2-z
-x,-y,-z
x,y,-z
-x,y,1/2+z
x,-y,1/2+z
1/2+x,1/2+y,1/2+z
1/2-x,1/2-y,1/2+z
1/2+x,1/2-y,-z
1/2-x,1/2+y,-z
1/2-x,1/2-y,1/2-z
1/2+x,1/2+y,1/2-z
1/2-x,1/2+y,z
1/2+x,1/2-y,z
loop_
_atom_site_type_symbol
_atom_site_label
_atom_site_fract_x
_atom_site_fract_y
_atom_site_fract_z
Si Si1 0.761799 0.702076 0.322878
Si Si2 0.156860 0.716976 0.588224
Si Si3 0.762436 0.912602 0.412606
Si Si4 0.057927 0.558602 0.911546
Si Si5 0.370180 0.292727 0.911792
Si Si6 0.697566 0.037607 0.673969
Si Si7 0.998405 0.714576 0.088868
O O1 0.750000 0.750000 0.250000
O O2 0.697410 0.717676 0.374731
O O3 0.826136 0.734032 0.367417
O O4 0.773570 0.617534 0.309948
O O5 0.158009 0.723700 0.500000
O O6 0.200465 0.643918 0.605085
O O7 0.079239 0.716359 0.615240
O O8 0.759558 0.926442 0.500000
O O9 0.832443 0.869017 0.396644
O O10 0.750863 0.985535 0.367710
O O11 0.130216 0.542542 0.875699
O O12 0.032216 0.638365 0.889197
O O13 0.000000 0.500000 0.891853
O O14 0.065148 0.557036 0.000000
O O15 0.449080 0.279205 0.892228
O O16 0.362730 0.280167 0.000000
O O17 0.678942 0.000000 0.750000
O O18 0.994122 0.713615 0.000000
#
# Coordination Sequence:
#
# PCOD9526589 Si02
#       7
#    16  16  16  16  16  16  16
#     4  11  22  36  52  73 104 141 184 225 260 310
#     4   9  18  34  56  80 105 133 173 222 268 319
#     4   9  18  32  52  77 107 139 173 218 268 321
#     4  10  20  33  52  79 111 141 170 207 262 333
#     4   9  17  33  55  77 101 135 177 217 261 321
#     4  12  23  34  50  75 107 146 180 219 267 311
#     4   9  16  30  54  80 103 132 170 214 265 317
#
# _framework density 17.027702999999999
#
# number of rings (size 3 to 8) (size 9 to 14) (size 15 to 20)
#    0.000    2.143    1.429    4.286    0.000    4.286 
#    0.000    0.714    0.000    0.857    0.000    5.000 
#    0.000    0.000    0.000    0.000    0.000    0.000 
#
# Total GULP energy -312265.085112 kJ/mol
# GULP energy per Si atom -5576.162234 kJ/mol
# Density = 1.698895 g / cm^3
# Si number density = 17.027703 Si / 1000 Ang^3
#
#
#
# Elastic Constant Matrix: (Units=GPa)
#
#
# Indices 1 2 3 4 5 6 
#
# 1 70.0953 51.4022 21.6837 0.0000 0.0000 0.0000
# 2 51.4022 100.6648 33.0803 0.0000 0.0000 0.0000
# 3 21.6837 33.0803 31.0178 0.0000 0.0000 0.0000
# 4 0.0000 0.0000 0.0000 22.1293 0.0000 0.0000
# 5 0.0000 0.0000 0.0000 0.0000 1.7416 0.0000
# 6 0.0000 0.0000 0.0000 0.0000 0.0000 18.4895
#
#
#
# Elastic Compliance Matrix: (Units=1/GPa)
#
#
# Indices 1 2 3 4 5 6 
#
# 1 0.023415 -0.010126 -0.005569 0.000000 0.000000 0.000000
# 2 -0.010126 0.019673 -0.013903 0.000000 0.000000 0.000000
# 3 -0.005569 -0.013903 0.050960 0.000000 0.000000 0.000000
# 4 0.000000 0.000000 0.000000 0.045189 0.000000 0.000000
# 5 0.000000 0.000000 0.000000 0.000000 0.574186 0.000000
# 6 0.000000 0.000000 0.000000 0.000000 0.000000 0.054085
#
#
# Mechanical properties :
#
#
# Convention : Reuss Voigt Hill
#
# Bulk Modulus (GPa) = 28.69261 46.01224 37.35243
# Shear Modulus (GPa) = 5.96431 14.84619 10.40525
#
# Velocity S-wave (km/s) = 1.87358 2.95597 2.47468
# Velocity P-wave (km/s) = 4.64409 6.22343 5.49084
#
# Compressibility (1/GPa) = 0.03485217
#
# Stress axis : x y z
#
# Youngs Moduli (GPa) = 42.70813 50.83060 19.62327
#
# Poissons Ratio (x) = 0.51471 0.10929
# Poissons Ratio (y) = 0.43246 0.27281
# Poissons Ratio (z) = 0.23785 0.70667
#
# Static dielectric constant tensor:
#      x y z
#    x 1.588760 0.000000 0.000000 
#    y 0.000000 1.575710 0.000000 
#    z 0.000000 0.000000 1.589510 
# 
# From -- ./inp_files/32738.got.cif
#   From: 2010.05.17/outbox.cif.g08.bks.cpg/sg72_17_cif.got.tgz:32738.got - 2010.06.03 17:03:01.
