data_PCOD9526812
_publ_section_title
;
Structure prediction by ZEFSAII (Michael W. Deem and Ramdas Pophale) SiO2 
 PCOD9526812
Probable space group: I B A M
;
_chemical_formula_sum "Si O2"
_cell_formula_units_Z 64
_cell_length_a 9.606362
_cell_length_b 43.385788
_cell_length_c 8.594355
_cell_angle_alpha 90.000000
_cell_angle_beta 90.000000
_cell_angle_gamma 90.000000
_cell_volume 3581.951712
_symmetry_space_group_name_H-M "I B A M"
_symmetry_group_IT_number 72
_symmetry_cell_setting 'orthorhombic'
loop_
_space_group_symop_operation_xyz
x,y,z
-x,-y,z
x,-y,1/2-z
-x,y,1/2-z
-x,-y,-z
x,y,-z
-x,y,1/2+z
x,-y,1/2+z
1/2+x,1/2+y,1/2+z
1/2-x,1/2-y,1/2+z
1/2+x,1/2-y,-z
1/2-x,1/2+y,-z
1/2-x,1/2-y,1/2-z
1/2+x,1/2+y,1/2-z
1/2-x,1/2+y,z
1/2+x,1/2-y,z
loop_
_atom_site_type_symbol
_atom_site_label
_atom_site_fract_x
_atom_site_fract_y
_atom_site_fract_z
Si Si1 0.342069 0.222207 0.685557
Si Si2 0.843454 0.967174 0.812784
Si Si3 0.156780 0.590263 0.812446
Si Si4 0.341830 0.842046 0.313165
O O1 0.500000 0.224660 0.750000
O O2 0.346898 0.222914 0.500000
O O3 0.250000 0.250000 0.750000
O O4 0.281426 0.189151 0.741214
O O5 0.750330 0.938336 0.760855
O O6 0.000000 0.963586 0.750000
O O7 0.789798 0.000000 0.750000
O O8 0.846653 0.968149 0.000000
O O9 0.215991 0.624197 0.769443
O O10 0.000000 0.587470 0.750000
O O11 0.150190 0.589664 0.000000
O O12 0.500000 0.842934 0.250000
O O13 0.342748 0.839198 0.500000
#
# Coordination Sequence:
#
# PCOD9526812 Si02
#       4
#    16  16  16  16
#     4  11  21  35  54  78 105 137 173 212 255 304
#     4  10  20  35  52  73  99 133 169 204 246 298
#     4   9  19  33  52  76 102 129 165 208 252 297
#     4   9  16  30  50  73 100 132 166 206 251 301
#
# _framework density 17.867353000000001
#
# number of rings (size 3 to 8) (size 9 to 14) (size 15 to 20)
#    0.000    2.250    0.000    6.000    0.000    3.500 
#    0.000    3.750    0.000    3.000    0.000    0.000 
#    0.000    0.000    0.000    0.000    0.000    0.000 
#
# Total GULP energy -178405.630391 kJ/mol
# GULP energy per Si atom -5575.175950 kJ/mol
# Density = 1.782669 g / cm^3
# Si number density = 17.867353 Si / 1000 Ang^3
#
#
#
# Elastic Constant Matrix: (Units=GPa)
#
#
# Indices 1 2 3 4 5 6 
#
# 1 43.3731 71.2416 22.2593 0.0143 0.0006 0.0010
# 2 71.2416 231.1786 61.3404 0.0115 0.0003 0.0038
# 3 22.2593 61.3404 90.3994 0.0022 -0.0019 -0.0014
# 4 0.0143 0.0115 0.0022 -54.1453 0.0148 -0.0040
# 5 0.0006 0.0003 -0.0019 0.0148 21.5358 0.0023
# 6 0.0010 0.0038 -0.0014 -0.0040 0.0023 30.4160
#
#
#
# Elastic Compliance Matrix: (Units=1/GPa)
#
#
# Indices 1 2 3 4 5 6 
#
# 1 0.047022 -0.013926 -0.002129 0.000009 -0.000001 0.000000
# 2 -0.013926 0.009400 -0.002949 -0.000002 0.000000 -0.000001
# 3 -0.002129 -0.002949 0.013587 -0.000001 0.000001 0.000001
# 4 0.000009 -0.000002 -0.000001 -0.018469 0.000013 -0.000002
# 5 -0.000001 0.000000 0.000001 0.000013 0.046434 -0.000004
# 6 0.000000 -0.000001 0.000001 -0.000002 -0.000004 0.032877
#
#
# Mechanical properties :
#
#
# Convention : Reuss Voigt Hill
#
# Bulk Modulus (GPa) = 31.24900 74.95930 53.10415
# Shear Modulus (GPa) = 27.85106 13.56862 20.70984
#
# Velocity S-wave (km/s) = 3.95241 2.75873 3.40823
# Velocity P-wave (km/s) = 6.19323 7.22438 6.72859
#
# Compressibility (1/GPa) = 0.03200102
#
# Stress axis : x y z
#
# Youngs Moduli (GPa) = 21.26676 106.38756 73.59762
#
# Poissons Ratio (x) = 1.48151 0.15670
# Poissons Ratio (y) = 0.29615 0.21705
# Poissons Ratio (z) = 0.04528 0.31375
#
# Static dielectric constant tensor:
#      x y z
#    x 1.562290 0.000000 0.000000 
#    y 0.000000 1.667580 0.000000 
#    z 0.000000 0.000000 1.603130 
# 
# From -- ./inp_files/2609.got.cif
#   From: 2010.05.17/outbox.cif.g08.bks.cpg/sg72_2_cif.got.tgz:2609.got - 2010.06.03 17:03:01.
