data_PCOD9526664
_publ_section_title
;
Structure prediction by ZEFSAII (Michael W. Deem and Ramdas Pophale) SiO2 
 PCOD9526664
Probable space group: I B A M
;
_chemical_formula_sum "Si O2"
_cell_formula_units_Z 80
_cell_length_a 18.353603
_cell_length_b 27.357927
_cell_length_c 8.921635
_cell_angle_alpha 90.000000
_cell_angle_beta 90.000000
_cell_angle_gamma 90.000000
_cell_volume 4479.700418
_symmetry_space_group_name_H-M "I B A M"
_symmetry_group_IT_number 72
_symmetry_cell_setting 'orthorhombic'
loop_
_space_group_symop_operation_xyz
x,y,z
-x,-y,z
x,-y,1/2-z
-x,y,1/2-z
-x,-y,-z
x,y,-z
-x,y,1/2+z
x,-y,1/2+z
1/2+x,1/2+y,1/2+z
1/2-x,1/2-y,1/2+z
1/2+x,1/2-y,-z
1/2-x,1/2+y,-z
1/2-x,1/2-y,1/2-z
1/2+x,1/2+y,1/2-z
1/2-x,1/2+y,z
1/2+x,1/2-y,z
loop_
_atom_site_type_symbol
_atom_site_label
_atom_site_fract_x
_atom_site_fract_y
_atom_site_fract_z
Si Si1 0.576188 0.580174 0.322499
Si Si2 0.575753 0.210174 0.678282
Si Si3 0.217907 0.351277 0.319417
Si Si4 0.271988 0.550076 0.321158
Si Si5 0.874117 0.190980 0.675985
O O1 0.500000 0.565043 0.250000
O O2 0.578755 0.569371 0.500000
O O3 0.645661 0.557205 0.240402
O O4 0.586258 0.638881 0.304379
O O5 0.500000 0.193860 0.750000
O O6 0.569758 0.208804 0.500000
O O7 0.644525 0.176790 0.722652
O O8 0.592292 0.265421 0.729855
O O9 0.219470 0.359094 0.500000
O O10 0.228344 0.402801 0.237832
O O11 0.289537 0.318887 0.284195
O O12 0.243174 0.500000 0.250000
O O13 0.272147 0.547937 0.500000
O O14 0.878309 0.203868 0.500000
#
# Coordination Sequence:
#
# PCOD9526664 Si02
#       5
#    16  16  16  16  16
#     4  10  20  34  51  76 110 145 181 220 259 304
#     4  11  22  34  52  78 110 143 176 215 260 309
#     4   9  20  38  56  77 105 138 176 220 262 307
#     4  11  22  37  58  80 102 133 172 217 267 319
#     4   9  18  33  53  76 106 142 180 217 254 301
#
# _framework density 17.858336999999999
#
# number of rings (size 3 to 8) (size 9 to 14) (size 15 to 20)
#    0.000    2.000    0.000    5.400    0.000    7.600 
#    0.000    2.000    0.000    0.600    0.000    4.200 
#    0.000    0.000    0.000    0.000    0.000    0.000 
#
# Total GULP energy -223503.352300 kJ/mol
# GULP energy per Si atom -5587.583807 kJ/mol
# Density = 1.781769 g / cm^3
# Si number density = 17.858337 Si / 1000 Ang^3
#
#
#
# Elastic Constant Matrix: (Units=GPa)
#
#
# Indices 1 2 3 4 5 6 
#
# 1 76.3264 16.7280 28.7440 0.0000 0.0000 0.0000
# 2 16.7280 57.2624 32.3001 0.0000 0.0000 0.0000
# 3 28.7440 32.3001 66.2440 0.0000 0.0000 0.0000
# 4 0.0000 0.0000 0.0000 21.9808 0.0000 0.0000
# 5 0.0000 0.0000 0.0000 0.0000 28.3645 0.0000
# 6 0.0000 0.0000 0.0000 0.0000 0.0000 -0.1839
#
#
#
# Elastic Compliance Matrix: (Units=1/GPa)
#
#
# Indices 1 2 3 4 5 6 
#
# 1 0.015704 -0.001026 -0.006314 0.000000 0.000000 0.000000
# 2 -0.001026 0.024156 -0.011333 0.000000 0.000000 0.000000
# 3 -0.006314 -0.011333 0.023361 0.000000 0.000000 -0.000001
# 4 0.000000 0.000000 0.000000 0.045494 0.000000 0.000000
# 5 0.000000 0.000000 0.000000 0.000000 0.035255 0.000000
# 6 0.000000 0.000000 -0.000001 0.000000 0.000000 -5.436479
#
#
# Mechanical properties :
#
#
# Convention : Reuss Voigt Hill
#
# Bulk Modulus (GPa) = 38.64688 39.48634 39.06661
# Shear Modulus (GPa) = -0.95301 18.16966 8.60832
#
# Velocity S-wave (km/s) = -0.73131 3.19318 2.19791
# Velocity P-wave (km/s) = 4.57982 5.97947 5.32582
#
# Compressibility (1/GPa) = 0.02587531
#
# Stress axis : x y z
#
# Youngs Moduli (GPa) = 63.67678 41.39792 42.80598
#
# Poissons Ratio (x) = 0.04248 0.27027
# Poissons Ratio (y) = 0.06534 0.48512
# Poissons Ratio (z) = 0.40205 0.46916
#
# Static dielectric constant tensor:
#      x y z
#    x 1.604250 0.000000 0.000000 
#    y 0.000000 1.607840 0.000000 
#    z 0.000000 0.000000 1.589560 
# 
# From -- ./inp_files/4761.got.cif
#   From: 2010.05.17/outbox.cif.g08.bks.cpg/sg72_3_cif.got.tgz:4761.got - 2010.06.03 17:03:01.
