data_PCOD9526400
_publ_section_title
;
Structure prediction by ZEFSAII (Michael W. Deem and Ramdas Pophale) SiO2 
 PCOD9526400
Probable space group: I B A M
;
_chemical_formula_sum "Si O2"
_cell_formula_units_Z 96
_cell_length_a 10.041186
_cell_length_b 28.680011
_cell_length_c 14.452167
_cell_angle_alpha 90.000000
_cell_angle_beta 90.000000
_cell_angle_gamma 90.000000
_cell_volume 4161.954201
_symmetry_space_group_name_H-M "I B A M"
_symmetry_group_IT_number 72
_symmetry_cell_setting 'orthorhombic'
loop_
_space_group_symop_operation_xyz
x,y,z
-x,-y,z
x,-y,1/2-z
-x,y,1/2-z
-x,-y,-z
x,y,-z
-x,y,1/2+z
x,-y,1/2+z
1/2+x,1/2+y,1/2+z
1/2-x,1/2-y,1/2+z
1/2+x,1/2-y,-z
1/2-x,1/2+y,-z
1/2-x,1/2-y,1/2-z
1/2+x,1/2+y,1/2-z
1/2-x,1/2+y,z
1/2+x,1/2-y,z
loop_
_atom_site_type_symbol
_atom_site_label
_atom_site_fract_x
_atom_site_fract_y
_atom_site_fract_z
Si Si1 0.986311 0.854440 0.360291
Si Si2 0.752693 0.285618 0.392300
Si Si3 0.921806 0.957717 0.348387
Si Si4 0.620842 0.034864 0.112617
Si Si5 0.961237 0.361758 0.613262
Si Si6 0.272625 0.817461 0.393973
O O1 0.886071 0.813389 0.388558
O O2 0.932548 0.905420 0.388978
O O3 0.000000 0.852881 0.250000
O O4 0.133886 0.844160 0.394946
O O5 0.791026 0.279183 0.500000
O O6 0.744537 0.233841 0.351102
O O7 0.862222 0.321116 0.353943
O O8 0.767624 0.972602 0.345543
O O9 0.000000 0.953277 0.250000
O O10 0.000000 0.000000 0.396633
O O11 0.580536 0.086896 0.141946
O O12 0.500000 0.000000 0.136841
O O13 0.635386 0.032648 0.000000
O O14 0.954987 0.363442 0.500000
O O15 0.109071 0.348632 0.644848
O O16 0.314783 0.808574 0.500000
#
# Coordination Sequence:
#
# PCOD9526400 Si02
#       6
#    16  16  16  16  16  16
#     4  11  23  38  59  86 124 161 201 254 301 362
#     4  10  19  37  62  86 117 158 202 248 302 360
#     4  10  23  43  63  84 125 167 208 251 305 386
#     4  10  21  38  64  96 123 153 201 264 323 365
#     4   9  18  34  56  85 120 150 189 248 299 352
#     4  10  21  36  60  90 118 157 205 248 301 368
#
# _framework density 23.066088000000001
#
# number of rings (size 3 to 8) (size 9 to 14) (size 15 to 20)
#    0.000    2.000    1.667    1.500    2.333    4.333 
#    0.000    2.500    0.000    0.000    0.000    0.000 
#    0.000    0.000    0.000    0.000    0.000    0.000 
#
# Total GULP energy -268185.682164 kJ/mol
# GULP energy per Si atom -5587.201712 kJ/mol
# Density = 2.301359 g / cm^3
# Si number density = 23.066088 Si / 1000 Ang^3
#
#
#
# Elastic Constant Matrix: (Units=GPa)
#
#
# Indices 1 2 3 4 5 6 
#
# 1 210.2256 75.2562 -4.8207 0.0000 0.0000 0.0000
# 2 75.2562 140.5441 -0.4625 0.0000 0.0000 0.0000
# 3 -4.8207 -0.4625 80.3047 0.0000 0.0000 0.0000
# 4 0.0000 0.0000 0.0000 -73.5676 0.0000 0.0000
# 5 0.0000 0.0000 0.0000 0.0000 35.8059 0.0000
# 6 0.0000 0.0000 0.0000 0.0000 0.0000 43.2246
#
#
#
# Elastic Compliance Matrix: (Units=1/GPa)
#
#
# Indices 1 2 3 4 5 6 
#
# 1 0.005894 -0.003155 0.000336 0.000000 0.000000 0.000000
# 2 -0.003155 0.008804 -0.000139 0.000000 0.000000 0.000000
# 3 0.000336 -0.000139 0.012472 0.000000 0.000000 0.000000
# 4 0.000000 0.000000 0.000000 -0.013593 0.000000 0.000000
# 5 0.000000 0.000000 0.000000 0.000000 0.027928 0.000000
# 6 0.000000 0.000000 0.000000 0.000000 0.000000 0.023135
#
#
# Mechanical properties :
#
#
# Convention : Reuss Voigt Hill
#
# Bulk Modulus (GPa) = 47.04984 63.44672 55.24828
# Shear Modulus (GPa) = 64.39926 25.16601 44.78264
#
# Velocity S-wave (km/s) = 5.28962 3.30667 4.41102
# Velocity P-wave (km/s) = 7.59927 6.49192 7.06731
#
# Compressibility (1/GPa) = 0.02125406
#
# Stress axis : x y z
#
# Youngs Moduli (GPa) = 169.66828 113.58412 80.18012
#
# Poissons Ratio (x) = 0.35834 -0.02691
# Poissons Ratio (y) = 0.53528 0.01112
# Poissons Ratio (z) = -0.05695 0.01575
#
# Static dielectric constant tensor:
#      x y z
#    x 1.820930 0.000000 0.000000 
#    y 0.000000 1.848410 0.000000 
#    z 0.000000 0.000000 1.936790 
# 
# From -- ./inp_files/35994.got.cif
#   From: 2010.05.17/outbox.cif.g08.bks.cpg/sg72_18_cif.got.tgz:35994.got - 2010.06.03 17:03:01.
