data_PCOD9526742
_publ_section_title
;
Structure prediction by ZEFSAII (Michael W. Deem and Ramdas Pophale) SiO2 
 PCOD9526742
Probable space group: I B A M
;
_chemical_formula_sum "Si O2"
_cell_formula_units_Z 96
_cell_length_a 23.762297
_cell_length_b 8.654674
_cell_length_c 23.471548
_cell_angle_alpha 90.000000
_cell_angle_beta 90.000000
_cell_angle_gamma 90.000000
_cell_volume 4827.039655
_symmetry_space_group_name_H-M "I B A M"
_symmetry_group_IT_number 72
_symmetry_cell_setting 'orthorhombic'
loop_
_space_group_symop_operation_xyz
x,y,z
-x,-y,z
x,-y,1/2-z
-x,y,1/2-z
-x,-y,-z
x,y,-z
-x,y,1/2+z
x,-y,1/2+z
1/2+x,1/2+y,1/2+z
1/2-x,1/2-y,1/2+z
1/2+x,1/2-y,-z
1/2-x,1/2+y,-z
1/2-x,1/2-y,1/2-z
1/2+x,1/2+y,1/2-z
1/2-x,1/2+y,z
1/2+x,1/2-y,z
loop_
_atom_site_type_symbol
_atom_site_label
_atom_site_fract_x
_atom_site_fract_y
_atom_site_fract_z
Si Si1 0.340852 0.342525 0.500000
Si Si2 0.768497 0.757921 0.315458
Si Si3 0.687408 0.033044 0.878635
Si Si4 0.488232 0.685644 0.684499
Si Si5 0.236566 0.457382 0.000000
Si Si6 0.622841 0.547677 0.814714
Si Si7 0.407353 0.250366 0.613322
O O1 0.303612 0.501505 0.500000
O O2 0.289122 0.217748 0.500000
O O3 0.382910 0.309001 0.552631
O O4 0.750000 0.750000 0.250000
O O5 0.719419 0.811721 0.357728
O O6 0.796037 0.598234 0.334438
O O7 0.815292 0.889108 0.321965
O O8 0.622917 0.085954 0.878527
O O9 0.709871 0.982556 0.940700
O O10 0.500000 0.500000 0.684250
O O11 0.500000 0.740102 0.750000
O O12 0.421994 0.682179 0.670774
O O13 0.528022 0.758060 0.635713
O O14 0.612966 0.500000 0.750000
O O15 0.614476 0.389677 0.847557
#
# Coordination Sequence:
#
# PCOD9526742 Si02
#       7
#     8  16  16  16   8  16  16
#     4  10  20  34  55  87 121 153 196 248 294 352
#     4  12  24  35  53  84 121 151 185 244 307 358
#     4  11  22  38  56  83 118 154 196 240 290 363
#     4   9  16  33  57  81 103 145 198 235 284 342
#     4  10  20  36  58  79 113 161 197 232 288 352
#     4  11  19  35  58  80 109 153 195 237 291 355
#     4  10  20  35  59  84 112 149 196 242 290 347
#
# _framework density 19.887965000000001
#
# number of rings (size 3 to 8) (size 9 to 14) (size 15 to 20)
#    0.000    1.500    3.333    6.500    0.000    0.000 
#    0.000    4.583    0.000    1.000    0.000    3.500 
#    0.000    0.000    0.000    0.000    0.000    0.000 
#
# Total GULP energy -267365.066629 kJ/mol
# GULP energy per Si atom -5570.105555 kJ/mol
# Density = 1.984270 g / cm^3
# Si number density = 19.887965 Si / 1000 Ang^3
#
#
#
# Elastic Constant Matrix: (Units=GPa)
#
#
# Indices 1 2 3 4 5 6 
#
# 1 81.2833 -6.2893 20.9073 0.0000 0.0000 0.0000
# 2 -6.2893 31.0901 20.4425 0.0000 0.0000 0.0000
# 3 20.9073 20.4425 128.4990 0.0000 0.0000 0.0000
# 4 0.0000 0.0000 0.0000 19.0768 0.0000 0.0000
# 5 0.0000 0.0000 0.0000 0.0000 28.4443 0.0000
# 6 0.0000 0.0000 0.0000 0.0000 0.0000 13.1432
#
#
#
# Elastic Compliance Matrix: (Units=1/GPa)
#
#
# Indices 1 2 3 4 5 6 
#
# 1 0.013412 0.004633 -0.002919 0.000000 0.000000 0.000000
# 2 0.004633 0.037522 -0.006723 0.000000 0.000000 0.000000
# 3 -0.002919 -0.006723 0.009327 0.000000 0.000000 0.000000
# 4 0.000000 0.000000 0.000000 0.052420 0.000000 0.000000
# 5 0.000000 0.000000 0.000000 0.000000 0.035156 0.000000
# 6 0.000000 0.000000 0.000000 0.000000 0.000000 0.076085
#
#
# Mechanical properties :
#
#
# Convention : Reuss Voigt Hill
#
# Bulk Modulus (GPa) = 19.90381 34.55483 27.22932
# Shear Modulus (GPa) = 19.94508 25.85364 22.89936
#
# Velocity S-wave (km/s) = 3.17025 3.60941 3.39694
# Velocity P-wave (km/s) = 4.84049 5.89771 5.39506
#
# Compressibility (1/GPa) = 0.05024165
#
# Stress axis : x y z
#
# Youngs Moduli (GPa) = 74.56037 26.65081 107.21936
#
# Poissons Ratio (x) = -0.12346 0.31299
# Poissons Ratio (y) = -0.34541 0.72084
# Poissons Ratio (z) = 0.21765 0.17917
#
# Static dielectric constant tensor:
#      x y z
#    x 1.960900 0.000000 0.000000 
#    y 0.000000 2.232530 0.000000 
#    z 0.000000 0.000000 1.699700 
# 
# From -- ./inp_files/45686.got.cif
#   From: 2010.05.17/outbox.cif.g08.bks.cpg/sg72_23_cif.got.tgz:45686.got - 2010.06.03 17:03:01.
