data_PCOD9526572
_publ_section_title
;
Structure prediction by ZEFSAII (Michael W. Deem and Ramdas Pophale) SiO2 
 PCOD9526572
Probable space group: I B A M
;
_chemical_formula_sum "Si O2"
_cell_formula_units_Z 64
_cell_length_a 28.484461
_cell_length_b 14.931698
_cell_length_c 8.715713
_cell_angle_alpha 90.000000
_cell_angle_beta 90.000000
_cell_angle_gamma 90.000000
_cell_volume 3706.978988
_symmetry_space_group_name_H-M "I B A M"
_symmetry_group_IT_number 72
_symmetry_cell_setting 'orthorhombic'
loop_
_space_group_symop_operation_xyz
x,y,z
-x,-y,z
x,-y,1/2-z
-x,y,1/2-z
-x,-y,-z
x,y,-z
-x,y,1/2+z
x,-y,1/2+z
1/2+x,1/2+y,1/2+z
1/2-x,1/2-y,1/2+z
1/2+x,1/2-y,-z
1/2-x,1/2+y,-z
1/2-x,1/2-y,1/2-z
1/2+x,1/2+y,1/2-z
1/2-x,1/2+y,z
1/2+x,1/2-y,z
loop_
_atom_site_type_symbol
_atom_site_label
_atom_site_fract_x
_atom_site_fract_y
_atom_site_fract_z
Si Si1 0.264205 0.846249 0.183949
Si Si2 0.864946 0.710551 0.815066
Si Si3 0.329543 0.409101 0.683203
Si Si4 0.551417 0.097831 0.683064
O O1 0.250000 0.750000 0.250000
O O2 0.319393 0.851529 0.222099
O O3 0.224326 0.906357 0.258895
O O4 0.259808 0.849024 0.000000
O O5 0.853143 0.813888 0.770706
O O6 0.910346 0.669898 0.735859
O O7 0.870309 0.709307 0.000000
O O8 0.351594 0.500000 0.750000
O O9 0.329885 0.412361 0.500000
O O10 0.500000 0.119454 0.750000
O O11 0.548981 0.092364 0.500000
O O12 0.564375 0.000000 0.750000
#
# Coordination Sequence:
#
# PCOD9526572 Si02
#       4
#    16  16  16  16
#     4   9  17  30  48  70 100 135 172 213 253 297
#     4   9  19  35  53  76 105 137 174 215 258 306
#     4  10  20  33  51  75 107 144 180 218 256 302
#     4  11  22  37  58  80 104 132 164 208 259 313
#
# _framework density 17.264731999999999
#
# number of rings (size 3 to 8) (size 9 to 14) (size 15 to 20)
#    0.000    2.250    0.000    6.000    0.000    7.000 
#    0.000    0.000    0.000    0.750    0.000    5.250 
#    0.000    0.000    0.000    0.000    0.000    0.000 
#
# Total GULP energy -178319.925732 kJ/mol
# GULP energy per Si atom -5572.497679 kJ/mol
# Density = 1.722544 g / cm^3
# Si number density = 17.264732 Si / 1000 Ang^3
#
#
#
# Elastic Constant Matrix: (Units=GPa)
#
#
# Indices 1 2 3 4 5 6 
#
# 1 102.4657 72.9143 52.4470 0.0000 0.0000 0.0000
# 2 72.9143 117.8289 47.2768 0.0000 0.0000 0.0000
# 3 52.4470 47.2768 78.3134 0.0000 0.0000 0.0000
# 4 0.0000 0.0000 0.0000 26.7707 0.0000 0.0000
# 5 0.0000 0.0000 0.0000 0.0000 27.6966 0.0000
# 6 0.0000 0.0000 0.0000 0.0000 0.0000 23.2805
#
#
#
# Elastic Compliance Matrix: (Units=1/GPa)
#
#
# Indices 1 2 3 4 5 6 
#
# 1 0.020712 -0.009569 -0.008094 0.000000 0.000000 0.000000
# 2 -0.009569 0.015621 -0.003022 0.000000 0.000000 0.000000
# 3 -0.008094 -0.003022 0.020014 0.000000 0.000000 0.000000
# 4 0.000000 0.000000 0.000000 0.037354 0.000000 0.000000
# 5 0.000000 0.000000 0.000000 0.000000 0.036105 0.000000
# 6 0.000000 0.000000 0.000000 0.000000 0.000000 0.042954
#
#
# Mechanical properties :
#
#
# Convention : Reuss Voigt Hill
#
# Bulk Modulus (GPa) = 66.76911 71.54268 69.15590
# Shear Modulus (GPa) = 22.81836 23.94756 23.38296
#
# Velocity S-wave (km/s) = 3.63943 3.72839 3.68418
# Velocity P-wave (km/s) = 7.51121 7.75004 7.63156
#
# Compressibility (1/GPa) = 0.01497698
#
# Stress axis : x y z
#
# Youngs Moduli (GPa) = 48.28220 64.01750 49.96546
#
# Poissons Ratio (x) = 0.61259 0.40442
# Poissons Ratio (y) = 0.46202 0.15097
# Poissons Ratio (z) = 0.39079 0.19343
#
# Static dielectric constant tensor:
#      x y z
#    x 1.584250 0.000000 0.000000 
#    y 0.000000 1.599090 0.000000 
#    z 0.000000 0.000000 1.573680 
# 
# From -- ./inp_files/3429.got.cif
#   From: 2010.05.17/outbox.cif.g08.bks.cpg/sg72_2_cif.got.tgz:3429.got - 2010.06.03 17:03:01.
