data_PCOD9526603
_publ_section_title
;
Structure prediction by ZEFSAII (Michael W. Deem and Ramdas Pophale) SiO2 
 PCOD9526603
Probable space group: I B A M
;
_chemical_formula_sum "Si O2"
_cell_formula_units_Z 80
_cell_length_a 29.123240
_cell_length_b 15.224392
_cell_length_c 8.849345
_cell_angle_alpha 90.000000
_cell_angle_beta 90.000000
_cell_angle_gamma 90.000000
_cell_volume 3923.654639
_symmetry_space_group_name_H-M "I B A M"
_symmetry_group_IT_number 72
_symmetry_cell_setting 'orthorhombic'
loop_
_space_group_symop_operation_xyz
x,y,z
-x,-y,z
x,-y,1/2-z
-x,y,1/2-z
-x,-y,-z
x,y,-z
-x,y,1/2+z
x,-y,1/2+z
1/2+x,1/2+y,1/2+z
1/2-x,1/2-y,1/2+z
1/2+x,1/2-y,-z
1/2-x,1/2+y,-z
1/2-x,1/2-y,1/2-z
1/2+x,1/2+y,1/2-z
1/2-x,1/2+y,z
1/2+x,1/2-y,z
loop_
_atom_site_type_symbol
_atom_site_label
_atom_site_fract_x
_atom_site_fract_y
_atom_site_fract_z
Si Si1 0.684335 0.408017 0.827132
Si Si2 0.128111 0.598495 0.318367
Si Si3 0.549423 0.776364 0.181873
Si Si4 0.596924 0.597581 0.179416
Si Si5 0.779744 0.672948 0.673878
O O1 0.677050 0.500000 0.750000
O O2 0.645595 0.356909 0.733060
O O3 0.738672 0.397033 0.826963
O O4 0.669508 0.402181 0.000000
O O5 0.125277 0.500000 0.250000
O O6 0.126400 0.594719 0.500000
O O7 0.087678 0.659735 0.253542
O O8 0.176601 0.640829 0.265696
O O9 0.500000 0.798839 0.250000
O O10 0.560616 0.673779 0.216955
O O11 0.550143 0.785885 0.000000
O O12 0.587383 0.500000 0.250000
O O13 0.599207 0.585622 0.000000
O O14 0.792118 0.693626 0.500000
O O15 0.750000 0.750000 0.750000
#
# Coordination Sequence:
#
# PCOD9526603 Si02
#       5
#    16  16  16  16  16
#     4  10  20  33  53  81 115 155 197 238 287 351
#     4  12  26  45  69  96 129 171 219 274 330 389
#     4  11  25  45  68  95 125 162 211 269 331 395
#     4  10  21  37  61  92 129 169 210 258 314 381
#     4  11  23  38  59  90 126 166 210 257 312 375
#
# _framework density 20.389154999999999
#
# number of rings (size 3 to 8) (size 9 to 14) (size 15 to 20)
#    0.000    1.200    0.000    7.200    0.000   12.000 
#    0.000    4.000    0.000    0.000    0.000    0.000 
#    0.000    0.000    0.000    0.000    0.000    0.000 
#
# Total GULP energy -222959.315266 kJ/mol
# GULP energy per Si atom -5573.982882 kJ/mol
# Density = 2.034275 g / cm^3
# Si number density = 20.389155 Si / 1000 Ang^3
#
#
#
# Elastic Constant Matrix: (Units=GPa)
#
#
# Indices 1 2 3 4 5 6 
#
# 1 139.9988 61.7359 60.1918 0.0000 0.0000 0.0000
# 2 61.7359 118.9414 67.1551 0.0000 0.0000 0.0000
# 3 60.1918 67.1551 138.3434 0.0000 0.0000 0.0000
# 4 0.0000 0.0000 0.0000 24.4694 0.0000 0.0000
# 5 0.0000 0.0000 0.0000 0.0000 33.0964 0.0000
# 6 0.0000 0.0000 0.0000 0.0000 0.0000 26.0833
#
#
#
# Elastic Compliance Matrix: (Units=1/GPa)
#
#
# Indices 1 2 3 4 5 6 
#
# 1 0.009846 -0.003708 -0.002484 0.000000 0.000000 0.000000
# 2 -0.003708 0.012978 -0.004687 0.000000 0.000000 0.000000
# 3 -0.002484 -0.004687 0.010584 0.000000 0.000000 0.000000
# 4 0.000000 0.000000 0.000000 0.040867 0.000000 0.000000
# 5 0.000000 0.000000 0.000000 0.000000 0.030215 0.000000
# 6 0.000000 0.000000 0.000000 0.000000 0.000000 0.038339
#
#
# Mechanical properties :
#
#
# Convention : Reuss Voigt Hill
#
# Bulk Modulus (GPa) = 85.82823 86.16104 85.99464
# Shear Modulus (GPa) = 29.67883 30.60986 30.14434
#
# Velocity S-wave (km/s) = 3.81940 3.87884 3.84923
# Velocity P-wave (km/s) = 7.85091 7.90003 7.87551
#
# Compressibility (1/GPa) = 0.01165118
#
# Stress axis : x y z
#
# Youngs Moduli (GPa) = 101.56357 77.05201 94.48136
#
# Poissons Ratio (x) = 0.28572 0.23468
# Poissons Ratio (y) = 0.37661 0.44280
# Poissons Ratio (z) = 0.25228 0.36111
#
# Static dielectric constant tensor:
#      x y z
#    x 1.278210 0.000000 0.000000 
#    y 0.000000 1.637850 0.000000 
#    z 0.000000 0.000000 1.709800 
# 
# From -- ./inp_files/7939.got.cif
#   From: 2010.05.17/outbox.cif.g08.bks.cpg/sg72_4_cif.got.tgz:7939.got - 2010.06.03 17:03:01.
