data_PCOD9526974
_publ_section_title
;
Structure prediction by ZEFSAII (Michael W. Deem and Ramdas Pophale) SiO2 
 PCOD9526974
Probable space group: I B A M
;
_chemical_formula_sum "Si O2"
_cell_formula_units_Z 80
_cell_length_a 26.084669
_cell_length_b 11.014825
_cell_length_c 14.406086
_cell_angle_alpha 90.000000
_cell_angle_beta 90.000000
_cell_angle_gamma 90.000000
_cell_volume 4139.128742
_symmetry_space_group_name_H-M "I B A M"
_symmetry_group_IT_number 72
_symmetry_cell_setting 'orthorhombic'
loop_
_space_group_symop_operation_xyz
x,y,z
-x,-y,z
x,-y,1/2-z
-x,y,1/2-z
-x,-y,-z
x,y,-z
-x,y,1/2+z
x,-y,1/2+z
1/2+x,1/2+y,1/2+z
1/2-x,1/2-y,1/2+z
1/2+x,1/2-y,-z
1/2-x,1/2+y,-z
1/2-x,1/2-y,1/2-z
1/2+x,1/2+y,1/2-z
1/2-x,1/2+y,z
1/2+x,1/2-y,z
loop_
_atom_site_type_symbol
_atom_site_label
_atom_site_fract_x
_atom_site_fract_y
_atom_site_fract_z
Si Si1 0.806292 0.303736 0.747473
Si Si2 0.087775 0.817412 0.708473
Si Si3 0.333205 0.009969 0.897004
Si Si4 0.557457 0.447546 0.606194
Si Si5 0.553054 0.056516 0.147408
O O1 0.750000 0.250000 0.750000
O O2 0.853227 0.215574 0.725159
O O3 0.809889 0.405932 0.667968
O O4 0.820628 0.366137 0.844801
O O5 0.087626 0.933760 0.641583
O O6 0.058156 0.702363 0.661945
O O7 0.063850 0.851325 0.809639
O O8 0.394472 0.987305 0.899298
O O9 0.312407 0.005980 0.000000
O O10 0.500000 0.500000 0.606019
O O11 0.569956 0.408902 0.500000
O O12 0.500000 0.000000 0.108772
O O13 0.556708 0.000000 0.250000
#
# Coordination Sequence:
#
# PCOD9526974 Si02
#       5
#    16  16  16  16  16
#     4  10  22  41  60  82 112 153 195 247 297 345
#     4  10  20  39  61  81 115 155 190 242 284 340
#     4  10  21  39  58  88 121 148 188 243 300 351
#     4  10  23  37  56  86 118 155 192 231 282 342
#     4  10  20  35  62  91 118 156 194 229 292 361
#
# _framework density 19.327736999999999
#
# number of rings (size 3 to 8) (size 9 to 14) (size 15 to 20)
#    0.000    2.000    4.000    1.200    5.600    8.400 
#    0.000    2.000    0.000    0.600    0.000    0.000 
#    0.000    0.000    0.000    0.000    0.000    0.000 
#
# Total GULP energy -223031.744190 kJ/mol
# GULP energy per Si atom -5575.793605 kJ/mol
# Density = 1.928375 g / cm^3
# Si number density = 19.327737 Si / 1000 Ang^3
#
#
#
# Elastic Constant Matrix: (Units=GPa)
#
#
# Indices 1 2 3 4 5 6 
#
# 1 131.2900 49.0507 26.3906 0.0000 0.0000 0.0000
# 2 49.0507 64.9748 10.7402 0.0000 0.0000 0.0000
# 3 26.3906 10.7402 106.5848 0.0000 0.0000 0.0000
# 4 0.0000 0.0000 0.0000 -3.1868 0.0000 0.0000
# 5 0.0000 0.0000 0.0000 0.0000 -4.1184 0.0000
# 6 0.0000 0.0000 0.0000 0.0000 0.0000 20.1161
#
#
#
# Elastic Compliance Matrix: (Units=1/GPa)
#
#
# Indices 1 2 3 4 5 6 
#
# 1 0.010980 -0.007973 -0.001915 0.000000 0.000000 0.000000
# 2 -0.007973 0.021440 -0.000186 0.000000 0.000000 0.000000
# 3 -0.001915 -0.000186 0.009875 0.000000 0.000000 0.000000
# 4 0.000000 0.000000 0.000000 -0.313799 0.000000 0.000000
# 5 0.000000 0.000000 0.000000 0.000000 -0.242813 0.000000
# 6 0.000000 0.000000 0.000000 0.000000 0.000000 0.049712
#
#
# Mechanical properties :
#
#
# Convention : Reuss Voigt Hill
#
# Bulk Modulus (GPa) = 45.15322 52.80139 48.97731
# Shear Modulus (GPa) = -11.43972 17.00672 2.78350
#
# Velocity S-wave (km/s) = -2.43550 2.96955 1.20137
# Velocity P-wave (km/s) = 3.93748 6.25587 5.22684
#
# Compressibility (1/GPa) = 0.02214681
#
# Stress axis : x y z
#
# Youngs Moduli (GPa) = 91.07146 46.64150 101.26338
#
# Poissons Ratio (x) = 0.37186 0.19396
# Poissons Ratio (y) = 0.72609 0.01887
# Poissons Ratio (z) = 0.17444 0.00869
#
# Static dielectric constant tensor:
#      x y z
#    x 1.657280 0.000000 0.000000 
#    y 0.000000 1.708880 0.000000 
#    z 0.000000 0.000000 1.679680 
# 
# From -- ./inp_files/24893.got.cif
#   From: 2010.05.17/outbox.cif.g08.bks.cpg/sg72_13_cif.got.tgz:24893.got - 2010.06.03 17:03:01.
