data_PCOD9526323
_publ_section_title
;
Structure prediction by ZEFSAII (Michael W. Deem and Ramdas Pophale) SiO2 
 PCOD9526323
Probable space group: I B A M
;
_chemical_formula_sum "Si O2"
_cell_formula_units_Z 120
_cell_length_a 10.890156
_cell_length_b 25.843422
_cell_length_c 20.860530
_cell_angle_alpha 90.000000
_cell_angle_beta 90.000000
_cell_angle_gamma 90.000000
_cell_volume 5870.964557
_symmetry_space_group_name_H-M "I B A M"
_symmetry_group_IT_number 72
_symmetry_cell_setting 'orthorhombic'
loop_
_space_group_symop_operation_xyz
x,y,z
-x,-y,z
x,-y,1/2-z
-x,y,1/2-z
-x,-y,-z
x,y,-z
-x,y,1/2+z
x,-y,1/2+z
1/2+x,1/2+y,1/2+z
1/2-x,1/2-y,1/2+z
1/2+x,1/2-y,-z
1/2-x,1/2+y,-z
1/2-x,1/2-y,1/2-z
1/2+x,1/2+y,1/2-z
1/2-x,1/2+y,z
1/2+x,1/2-y,z
loop_
_atom_site_type_symbol
_atom_site_label
_atom_site_fract_x
_atom_site_fract_y
_atom_site_fract_z
Si Si1 0.507346 0.197025 0.672322
Si Si2 0.482726 0.894853 0.071777
Si Si3 0.702425 0.500000 0.250000
Si Si4 0.644978 0.638308 0.171298
Si Si5 0.260566 0.570638 0.069600
Si Si6 0.128412 0.893322 0.696233
Si Si7 0.263043 0.039442 0.617624
Si Si8 0.254242 0.246052 0.327104
O O1 0.500000 0.187912 0.750000
O O2 0.475265 0.147241 0.628791
O O3 0.400703 0.240744 0.658242
O O4 0.646886 0.213499 0.653601
O O5 0.614807 0.921915 0.071924
O O6 0.382856 0.938921 0.084270
O O7 0.464377 0.872139 0.000000
O O8 0.622850 0.452895 0.221240
O O9 0.782640 0.519995 0.190680
O O10 0.500611 0.634163 0.184289
O O11 0.698506 0.632367 0.244079
O O12 0.677178 0.589417 0.127536
O O13 0.697391 0.691927 0.147965
O O14 0.308811 0.603959 0.128229
O O15 0.290174 0.510221 0.081499
O O16 0.306711 0.586996 0.000000
O O17 0.250000 0.250000 0.250000
#
# Coordination Sequence:
#
# PCOD9526323 Si02
#       8
#    16  16   8  16  16  16  16  16
#     4  10  23  39  66  91 123 151 208 255 319 366
#     4  11  23  40  60  85 121 165 203 249 302 358
#     4   8  18  33  51  88 118 156 195 243 298 346
#     4  10  20  35  60  90 115 150 190 242 315 354
#     4  10  22  37  56  82 116 163 203 235 285 348
#     4   9  20  33  58  82 122 148 192 242 293 356
#     4  10  19  36  56  84 122 159 199 246 288 361
#     4  10  22  38  61  95 117 151 192 257 313 369
#
# _framework density 20.439571999999998
#
# number of rings (size 3 to 8) (size 9 to 14) (size 15 to 20)
#    0.000    2.133    1.333    0.800    9.333   10.133 
#    0.000    6.667    0.000    0.000    0.000    0.000 
#    0.000    0.000    0.000    0.000    0.000    0.000 
#
# Total GULP energy -334191.218147 kJ/mol
# GULP energy per Si atom -5569.853636 kJ/mol
# Density = 2.039305 g / cm^3
# Si number density = 20.439572 Si / 1000 Ang^3
#
#
#
# Elastic Constant Matrix: (Units=GPa)
#
#
# Indices 1 2 3 4 5 6 
#
# 1 56.6547 8.5487 20.5340 0.0000 0.0000 0.0000
# 2 8.5487 64.7270 7.3604 0.0000 0.0000 0.0000
# 3 20.5340 7.3604 85.8010 0.0000 0.0000 0.0000
# 4 0.0000 0.0000 0.0000 -1.6133 0.0000 0.0000
# 5 0.0000 0.0000 0.0000 0.0000 13.9804 0.0000
# 6 0.0000 0.0000 0.0000 0.0000 0.0000 28.4787
#
#
#
# Elastic Compliance Matrix: (Units=1/GPa)
#
#
# Indices 1 2 3 4 5 6 
#
# 1 0.019599 -0.002075 -0.004513 0.000000 0.000000 0.000000
# 2 -0.002075 0.015821 -0.000861 0.000000 0.000000 0.000000
# 3 -0.004513 -0.000861 0.012809 0.000000 0.000000 0.000000
# 4 0.000000 0.000000 0.000000 -0.619836 0.000000 0.000000
# 5 0.000000 0.000000 0.000000 0.000000 0.071528 0.000000
# 6 0.000000 0.000000 0.000000 0.000000 0.000000 0.035114
#
#
# Mechanical properties :
#
#
# Convention : Reuss Voigt Hill
#
# Bulk Modulus (GPa) = 30.00068 31.11877 30.55973
# Shear Modulus (GPa) = -11.39065 19.55181 4.08058
#
# Velocity S-wave (km/s) = -2.36325 3.09620 1.41448
# Velocity P-wave (km/s) = 2.69500 5.29525 4.20135
#
# Compressibility (1/GPa) = 0.03333258
#
# Stress axis : x y z
#
# Youngs Moduli (GPa) = 51.02177 63.20530 78.07234
#
# Poissons Ratio (x) = 0.13118 0.35230
# Poissons Ratio (y) = 0.10589 0.06719
# Poissons Ratio (z) = 0.23024 0.05439
#
# Static dielectric constant tensor:
#      x y z
#    x 1.765210 0.000000 0.000000 
#    y 0.000000 1.777830 0.000000 
#    z 0.000000 0.000000 1.725520 
# 
# From -- ./inp_files/37360.got.cif
#   From: 2010.05.17/outbox.cif.g08.bks.cpg/sg72_19_cif.got.tgz:37360.got - 2010.06.03 17:03:01.
