data_PCOD9526832
_publ_section_title
;
Structure prediction by ZEFSAII (Michael W. Deem and Ramdas Pophale) SiO2 
 PCOD9526832
Probable space group: I B A M
;
_chemical_formula_sum "Si O2"
_cell_formula_units_Z 80
_cell_length_a 7.552493
_cell_length_b 30.376592
_cell_length_c 15.058573
_cell_angle_alpha 90.000000
_cell_angle_beta 90.000000
_cell_angle_gamma 90.000000
_cell_volume 3454.722736
_symmetry_space_group_name_H-M "I B A M"
_symmetry_group_IT_number 72
_symmetry_cell_setting 'orthorhombic'
loop_
_space_group_symop_operation_xyz
x,y,z
-x,-y,z
x,-y,1/2-z
-x,y,1/2-z
-x,-y,-z
x,y,-z
-x,y,1/2+z
x,-y,1/2+z
1/2+x,1/2+y,1/2+z
1/2-x,1/2-y,1/2+z
1/2+x,1/2-y,-z
1/2-x,1/2+y,-z
1/2-x,1/2-y,1/2-z
1/2+x,1/2+y,1/2-z
1/2-x,1/2+y,z
1/2+x,1/2-y,z
loop_
_atom_site_type_symbol
_atom_site_label
_atom_site_fract_x
_atom_site_fract_y
_atom_site_fract_z
Si Si1 0.892738 0.102947 0.392551
Si Si2 0.111743 0.803873 0.340005
Si Si3 0.745644 0.784783 0.598456
Si Si4 0.924532 0.546751 0.608627
Si Si5 0.703921 0.120554 0.891234
O O1 0.892266 0.103447 0.500000
O O2 0.806350 0.148737 0.359248
O O3 0.772098 0.061978 0.363750
O O4 0.098278 0.105145 0.363703
O O5 0.230076 0.760861 0.349848
O O6 0.000000 0.804418 0.250000
O O7 0.951054 0.797276 0.408517
O O8 0.670295 0.778521 0.500000
O O9 0.664877 0.829437 0.639612
O O10 0.923498 0.545484 0.500000
O O11 0.000000 0.500000 0.638933
O O12 0.059957 0.585076 0.635689
O O13 0.704039 0.122614 0.000000
#
# Coordination Sequence:
#
# PCOD9526832 Si02
#       5
#    16  16  16  16  16
#     4   9  18  33  52  75 109 150 185 227 289 354
#     4  11  22  35  52  81 115 147 196 242 293 349
#     4  10  20  35  54  77 108 151 193 233 286 352
#     4   9  17  29  50  81 109 136 180 237 294 345
#     4   8  16  30  47  73 106 140 182 228 277 339
#
# _framework density 23.156706
#
# number of rings (size 3 to 8) (size 9 to 14) (size 15 to 20)
#    0.000    2.600    0.000    3.600    2.800    0.800 
#    0.000    4.000    0.000    0.000    0.000   16.800 
#    0.000    0.000    0.000    0.000    0.000    0.200 
#
# Total GULP energy -223253.056387 kJ/mol
# GULP energy per Si atom -5581.326410 kJ/mol
# Density = 2.310400 g / cm^3
# Si number density = 23.156706 Si / 1000 Ang^3
#
#
#
# Elastic Constant Matrix: (Units=GPa)
#
#
# Indices 1 2 3 4 5 6 
#
# 1 45.5868 11.9246 -4.1169 0.0000 0.0000 0.0000
# 2 11.9246 78.5046 -4.6871 -0.0001 0.0000 0.0000
# 3 -4.1169 -4.6871 49.2306 -0.0003 0.0000 0.0000
# 4 0.0000 -0.0001 -0.0003 -2.6760 0.0000 0.0000
# 5 0.0000 0.0000 0.0000 0.0000 13.8913 0.0000
# 6 0.0000 0.0000 0.0000 0.0000 0.0000 45.6336
#
#
#
# Elastic Compliance Matrix: (Units=1/GPa)
#
#
# Indices 1 2 3 4 5 6 
#
# 1 0.022968 -0.003393 0.001598 0.000000 0.000000 0.000000
# 2 -0.003393 0.013312 0.000984 -0.000001 0.000000 0.000000
# 3 0.001598 0.000984 0.020540 -0.000002 0.000000 0.000000
# 4 0.000000 -0.000001 -0.000002 -0.373699 0.000000 0.000000
# 5 0.000000 0.000000 0.000000 0.000000 0.071987 0.000000
# 6 0.000000 0.000000 0.000000 0.000000 0.000000 0.021914
#
#
# Mechanical properties :
#
#
# Convention : Reuss Voigt Hill
#
# Bulk Modulus (GPa) = 18.11726 19.95146 19.03436
# Shear Modulus (GPa) = -24.63606 22.71656 -0.95975
#
# Velocity S-wave (km/s) = -3.26526 3.13548 -0.64448
# Velocity P-wave (km/s) = 2.52491 4.66292 2.77197
#
# Compressibility (1/GPa) = 0.05519599
#
# Stress axis : x y z
#
# Youngs Moduli (GPa) = 43.53868 75.11868 48.68596
#
# Poissons Ratio (x) = 0.25491 -0.07778
# Poissons Ratio (y) = 0.14774 -0.04789
# Poissons Ratio (z) = -0.06956 -0.07389
#
# Static dielectric constant tensor:
#      x y z
#    x 1.880820 0.000000 0.000000 
#    y 0.000000 1.890830 0.000000 
#    z 0.000000 0.000000 1.934160 
# 
# From -- ./inp_files/28315.got.cif
#   From: 2010.05.17/outbox.cif.g08.bks.cpg/sg72_15_cif.got.tgz:28315.got - 2010.06.03 17:03:01.
