data_PCOD9526899
_publ_section_title
;
Structure prediction by ZEFSAII (Michael W. Deem and Ramdas Pophale) SiO2 
 PCOD9526899
Probable space group: I B A M
;
_chemical_formula_sum "Si O2"
_cell_formula_units_Z 68
_cell_length_a 16.326330
_cell_length_b 22.327106
_cell_length_c 9.782334
_cell_angle_alpha 90.000000
_cell_angle_beta 90.000000
_cell_angle_gamma 90.000000
_cell_volume 3565.853460
_symmetry_space_group_name_H-M "I B A M"
_symmetry_group_IT_number 72
_symmetry_cell_setting 'orthorhombic'
loop_
_space_group_symop_operation_xyz
x,y,z
-x,-y,z
x,-y,1/2-z
-x,y,1/2-z
-x,-y,-z
x,y,-z
-x,y,1/2+z
x,-y,1/2+z
1/2+x,1/2+y,1/2+z
1/2-x,1/2-y,1/2+z
1/2+x,1/2-y,-z
1/2-x,1/2+y,-z
1/2-x,1/2-y,1/2-z
1/2+x,1/2+y,1/2-z
1/2-x,1/2+y,z
1/2+x,1/2-y,z
loop_
_atom_site_type_symbol
_atom_site_label
_atom_site_fract_x
_atom_site_fract_y
_atom_site_fract_z
Si Si1 0.417744 0.326873 0.161813
Si Si2 0.416164 0.807188 0.662422
Si Si3 0.362792 0.910210 0.847992
Si Si4 0.677338 0.553795 0.843442
Si Si5 0.500000 0.000000 0.750000
O O1 0.500000 0.331683 0.250000
O O2 0.381810 0.260018 0.182030
O O3 0.357939 0.381381 0.196702
O O4 0.437465 0.330826 0.000000
O O5 0.500000 0.808692 0.750000
O O6 0.429254 0.816628 0.500000
O O7 0.365470 0.860528 0.730057
O O8 0.275845 0.942987 0.839199
O O9 0.438401 0.956103 0.830991
O O10 0.368111 0.882449 0.000000
O O11 0.647315 0.500000 0.750000
O O12 0.652944 0.542795 0.000000
#
# Coordination Sequence:
#
# PCOD9526899 Si02
#       5
#    16  16  16  16   4
#     4   9  20  39  61  84 114 149 189 236 287 342
#     4  10  20  35  57  84 113 149 191 236 282 335
#     4  11  23  37  57  85 118 152 189 234 282 337
#     4  10  22  40  58  83 117 151 189 236 288 339
#     4  12  22  36  60  86 116 152 188 224 278 332
#
# _framework density 19.069769000000001
#
# number of rings (size 3 to 8) (size 9 to 14) (size 15 to 20)
#    0.000    1.882    2.353    1.059    0.000    5.176 
#    0.000    2.353    0.000    0.000    0.000    0.000 
#    0.000    0.000    0.000    0.000    0.000    0.000 
#
# Total GULP energy -189607.516392 kJ/mol
# GULP energy per Si atom -5576.691659 kJ/mol
# Density = 1.902637 g / cm^3
# Si number density = 19.069769 Si / 1000 Ang^3
#
#
#
# Elastic Constant Matrix: (Units=GPa)
#
#
# Indices 1 2 3 4 5 6 
#
# 1 32.1243 15.9514 13.8854 0.0000 0.0000 0.0000
# 2 15.9514 115.6791 70.2730 0.0000 0.0000 0.0000
# 3 13.8854 70.2730 99.4413 0.0000 0.0000 0.0000
# 4 0.0000 0.0000 0.0000 31.9135 0.0000 0.0000
# 5 0.0000 0.0000 0.0000 0.0000 18.4556 0.0000
# 6 0.0000 0.0000 0.0000 0.0000 0.0000 18.7333
#
#
#
# Elastic Compliance Matrix: (Units=1/GPa)
#
#
# Indices 1 2 3 4 5 6 
#
# 1 0.033767 -0.003140 -0.002496 0.000000 0.000000 0.000000
# 2 -0.003140 0.015439 -0.010472 0.000000 0.000000 0.000000
# 3 -0.002496 -0.010472 0.017805 0.000000 0.000000 0.000000
# 4 0.000000 0.000000 0.000000 0.031335 0.000000 0.000000
# 5 0.000000 0.000000 0.000000 0.000000 0.054184 0.000000
# 6 0.000000 0.000000 0.000000 0.000000 0.000000 0.053381
#
#
# Mechanical properties :
#
#
# Convention : Reuss Voigt Hill
#
# Bulk Modulus (GPa) = 28.73961 49.71827 39.22894
# Shear Modulus (GPa) = 20.02195 23.62947 21.82571
#
# Velocity S-wave (km/s) = 3.24378 3.52391 3.38674
# Velocity P-wave (km/s) = 5.39750 6.53343 5.99244
#
# Compressibility (1/GPa) = 0.03479518
#
# Stress axis : x y z
#
# Youngs Moduli (GPa) = 29.61453 64.77023 56.16355
#
# Poissons Ratio (x) = 0.20337 0.14019
# Poissons Ratio (y) = 0.09299 0.58815
# Poissons Ratio (z) = 0.07392 0.67828
#
# Static dielectric constant tensor:
#      x y z
#    x 1.643930 0.000000 0.000000 
#    y 0.000000 1.684480 0.000000 
#    z 0.000000 0.000000 1.658100 
# 
# From -- ./inp_files/4397.got.cif
#   From: 2010.05.17/outbox.cif.g08.bks.cpg/sg72_3_cif.got.tgz:4397.got - 2010.06.03 17:03:01.
