data_PCOD9526755
_publ_section_title
;
Structure prediction by ZEFSAII (Michael W. Deem and Ramdas Pophale) SiO2 
 PCOD9526755
Probable space group: I B A M
;
_chemical_formula_sum "Si O2"
_cell_formula_units_Z 116
_cell_length_a 26.056631
_cell_length_b 25.861560
_cell_length_c 9.429432
_cell_angle_alpha 90.000000
_cell_angle_beta 90.000000
_cell_angle_gamma 90.000000
_cell_volume 6354.165383
_symmetry_space_group_name_H-M "I B A M"
_symmetry_group_IT_number 72
_symmetry_cell_setting 'orthorhombic'
loop_
_space_group_symop_operation_xyz
x,y,z
-x,-y,z
x,-y,1/2-z
-x,y,1/2-z
-x,-y,-z
x,y,-z
-x,y,1/2+z
x,-y,1/2+z
1/2+x,1/2+y,1/2+z
1/2-x,1/2-y,1/2+z
1/2+x,1/2-y,-z
1/2-x,1/2+y,-z
1/2-x,1/2-y,1/2-z
1/2+x,1/2+y,1/2-z
1/2-x,1/2+y,z
1/2+x,1/2-y,z
loop_
_atom_site_type_symbol
_atom_site_label
_atom_site_fract_x
_atom_site_fract_y
_atom_site_fract_z
Si Si1 0.000000 0.000000 0.750000
Si Si2 0.845675 0.548326 0.167959
Si Si3 0.851213 0.734438 0.170266
Si Si4 0.397333 0.548160 0.162672
Si Si5 0.550328 0.071652 0.663227
Si Si6 0.667712 0.354212 0.830001
Si Si7 0.950181 0.696382 0.337837
Si Si8 0.727797 0.853031 0.333656
O O1 0.041044 0.037867 0.826754
O O2 0.820591 0.500000 0.250000
O O3 0.899647 0.556723 0.247472
O O4 0.812511 0.600254 0.182522
O O5 0.852213 0.538170 0.000000
O O6 0.845988 0.794913 0.203509
O O7 0.899505 0.712906 0.255069
O O8 0.801332 0.700036 0.207906
O O9 0.858773 0.728174 0.000000
O O10 0.374822 0.500000 0.250000
O O11 0.375203 0.603232 0.212146
O O12 0.382752 0.542361 0.000000
O O13 0.500000 0.055843 0.750000
O O14 0.551335 0.052652 0.500000
O O15 0.549099 0.134073 0.656950
O O16 0.721819 0.364545 0.755953
O O17 0.673353 0.356927 0.000000
O O18 0.951047 0.715387 0.500000
O O19 0.000000 0.713750 0.250000
O O20 0.741345 0.849089 0.500000
#
# Coordination Sequence:
#
# PCOD9526755 Si02
#       8
#     4  16  16  16  16  16  16  16
#     4   8  18  36  66  84 118 156 194 224 282 340
#     4  11  23  39  58  82 112 148 193 244 292 346
#     4  10  20  38  60  83 117 154 193 245 297 349
#     4   9  19  36  59  87 117 153 191 230 285 342
#     4  10  20  35  57  83 111 146 188 234 287 345
#     4  10  22  38  59  88 119 151 192 244 292 345
#     4  10  20  34  56  84 115 153 194 235 285 345
#     4  10  22  39  59  82 112 154 196 241 297 351
#
# _framework density 18.255741
#
# number of rings (size 3 to 8) (size 9 to 14) (size 15 to 20)
#    0.414    1.655    1.379    1.862    0.000    4.690 
#    1.241    4.138    0.000    0.000    0.000    0.000 
#    0.000    0.000    0.000    0.000    0.000    0.000 
#
# Total GULP energy -323330.808677 kJ/mol
# GULP energy per Si atom -5574.669115 kJ/mol
# Density = 1.821419 g / cm^3
# Si number density = 18.255741 Si / 1000 Ang^3
#
#
#
# Elastic Constant Matrix: (Units=GPa)
#
#
# Indices 1 2 3 4 5 6 
#
# 1 92.1656 45.6686 37.2951 0.0000 0.0000 0.0000
# 2 45.6686 114.5870 42.0426 0.0000 0.0000 0.0000
# 3 37.2951 42.0426 72.2125 0.0000 0.0000 0.0000
# 4 0.0000 0.0000 0.0000 26.5506 0.0000 0.0000
# 5 0.0000 0.0000 0.0000 0.0000 25.5584 0.0000
# 6 0.0000 0.0000 0.0000 0.0000 0.0000 10.0047
#
#
#
# Elastic Compliance Matrix: (Units=1/GPa)
#
#
# Indices 1 2 3 4 5 6 
#
# 1 0.015030 -0.003996 -0.005436 0.000000 0.000000 0.000000
# 2 -0.003996 0.012160 -0.005016 0.000000 0.000000 0.000000
# 3 -0.005436 -0.005016 0.019576 0.000000 0.000000 0.000000
# 4 0.000000 0.000000 0.000000 0.037664 0.000000 0.000000
# 5 0.000000 0.000000 0.000000 0.000000 0.039126 0.000000
# 6 0.000000 0.000000 0.000000 0.000000 0.000000 0.099953
#
#
# Mechanical properties :
#
#
# Convention : Reuss Voigt Hill
#
# Bulk Modulus (GPa) = 55.95906 58.77530 57.36718
# Shear Modulus (GPa) = 19.35283 22.68665 21.01974
#
# Velocity S-wave (km/s) = 3.25944 3.52904 3.39692
# Velocity P-wave (km/s) = 6.69960 6.99077 6.84674
#
# Compressibility (1/GPa) = 0.01787021
#
# Stress axis : x y z
#
# Youngs Moduli (GPa) = 66.53564 82.23814 51.08338
#
# Poissons Ratio (x) = 0.32859 0.27769
# Poissons Ratio (y) = 0.26585 0.25623
# Poissons Ratio (z) = 0.36169 0.41250
#
# Static dielectric constant tensor:
#      x y z
#    x 1.605390 0.000000 0.000000 
#    y 0.000000 1.653220 0.000000 
#    z 0.000000 0.000000 1.618490 
# 
# From -- ./inp_files/8390.got.cif
#   From: 2010.05.17/outbox.cif.g08.bks.cpg/sg72_5_cif.got.tgz:8390.got - 2010.06.03 17:03:01.
