data_PCOD9526799
_publ_section_title
;
Structure prediction by ZEFSAII (Michael W. Deem and Ramdas Pophale) SiO2 
 PCOD9526799
Probable space group: I B A M
;
_chemical_formula_sum "Si O2"
_cell_formula_units_Z 96
_cell_length_a 28.775316
_cell_length_b 20.351597
_cell_length_c 8.726777
_cell_angle_alpha 90.000000
_cell_angle_beta 90.000000
_cell_angle_gamma 90.000000
_cell_volume 5110.606867
_symmetry_space_group_name_H-M "I B A M"
_symmetry_group_IT_number 72
_symmetry_cell_setting 'orthorhombic'
loop_
_space_group_symop_operation_xyz
x,y,z
-x,-y,z
x,-y,1/2-z
-x,y,1/2-z
-x,-y,-z
x,y,-z
-x,y,1/2+z
x,-y,1/2+z
1/2+x,1/2+y,1/2+z
1/2-x,1/2-y,1/2+z
1/2+x,1/2-y,-z
1/2-x,1/2+y,-z
1/2-x,1/2-y,1/2-z
1/2+x,1/2+y,1/2-z
1/2-x,1/2+y,z
1/2+x,1/2-y,z
loop_
_atom_site_type_symbol
_atom_site_label
_atom_site_fract_x
_atom_site_fract_y
_atom_site_fract_z
Si Si1 0.051678 0.434419 0.317128
Si Si2 0.051101 0.839538 0.682779
Si Si3 0.811737 0.298068 0.673293
Si Si4 0.135621 0.926424 0.184046
Si Si5 0.409692 0.207438 0.819842
Si Si6 0.224122 0.851991 0.675273
O O1 0.075015 0.500000 0.250000
O O2 0.050086 0.439895 0.500000
O O3 0.074006 0.365188 0.275688
O O4 0.000000 0.432481 0.250000
O O5 0.050874 0.847323 0.500000
O O6 0.091397 0.885126 0.754657
O O7 0.065016 0.764891 0.726677
O O8 0.000000 0.854106 0.750000
O O9 0.826458 0.315090 0.500000
O O10 0.855156 0.292342 0.785488
O O11 0.791399 0.224287 0.667889
O O12 0.772561 0.348019 0.733589
O O13 0.182997 0.892186 0.243946
O O14 0.133243 0.000000 0.250000
O O15 0.135161 0.926857 0.000000
O O16 0.418938 0.218326 0.000000
O O17 0.230257 0.875164 0.500000
#
# Coordination Sequence:
#
# PCOD9526799 Si02
#       6
#    16  16  16  16  16  16
#     4  10  21  36  56  81 112 153 197 240 292 352
#     4  12  25  42  63  91 123 160 207 258 312 368
#     4  10  20  34  59  90 121 156 195 244 297 353
#     4  12  25  43  66  91 124 164 207 256 311 372
#     4  11  22  37  59  90 123 159 200 251 306 361
#     4  10  20  37  60  89 121 155 198 244 295 355
#
# _framework density 18.784462000000001
#
# number of rings (size 3 to 8) (size 9 to 14) (size 15 to 20)
#    0.000    1.167    1.667    6.000    0.000    5.667 
#    0.000    2.500    0.000    2.000    0.000    0.000 
#    0.000    0.000    0.000    0.000    0.000    0.000 
#
# Total GULP energy -268125.505505 kJ/mol
# GULP energy per Si atom -5585.948031 kJ/mol
# Density = 1.874171 g / cm^3
# Si number density = 18.784462 Si / 1000 Ang^3
#
#
#
# Elastic Constant Matrix: (Units=GPa)
#
#
# Indices 1 2 3 4 5 6 
#
# 1 39.9412 10.7626 9.1758 0.0000 0.0000 0.0000
# 2 10.7626 86.4653 46.6111 0.0000 0.0000 0.0000
# 3 9.1758 46.6111 112.3369 0.0000 0.0000 0.0000
# 4 0.0000 0.0000 0.0000 31.8988 0.0000 0.0000
# 5 0.0000 0.0000 0.0000 0.0000 22.2720 0.0000
# 6 0.0000 0.0000 0.0000 0.0000 0.0000 -5.8056
#
#
#
# Elastic Compliance Matrix: (Units=1/GPa)
#
#
# Indices 1 2 3 4 5 6 
#
# 1 0.025994 -0.002693 -0.001006 0.000000 0.000000 0.000000
# 2 -0.002693 0.015177 -0.006077 0.000000 0.000000 0.000000
# 3 -0.001006 -0.006077 0.011505 0.000000 0.000000 0.000000
# 4 0.000000 0.000000 0.000000 0.031349 0.000000 0.000000
# 5 0.000000 0.000000 0.000000 0.000000 0.044899 0.000000
# 6 0.000000 0.000000 0.000000 0.000000 0.000000 -0.172248
#
#
# Mechanical properties :
#
#
# Convention : Reuss Voigt Hill
#
# Bulk Modulus (GPa) = 30.19017 41.31584 35.75300
# Shear Modulus (GPa) = -392.76141 21.15264 -185.80438
#
# Velocity S-wave (km/s) = -14.47558 3.35934 -9.95633
# Velocity P-wave (km/s) = 16.22600 6.09010 10.63470
#
# Compressibility (1/GPa) = 0.03312337
#
# Stress axis : x y z
#
# Youngs Moduli (GPa) = 38.47102 65.89101 86.91528
#
# Poissons Ratio (x) = 0.17747 0.08741
# Poissons Ratio (y) = 0.10362 0.52819
# Poissons Ratio (z) = 0.03869 0.40043
#
# Static dielectric constant tensor:
#      x y z
#    x 1.582370 0.000000 0.000000 
#    y 0.000000 1.652950 0.000000 
#    z 0.000000 0.000000 1.645020 
# 
# From -- ./inp_files/8049.got.cif
#   From: 2010.05.17/outbox.cif.g08.bks.cpg/sg72_5_cif.got.tgz:8049.got - 2010.06.03 17:03:01.
