data_PCOD9526615
_publ_section_title
;
Structure prediction by ZEFSAII (Michael W. Deem and Ramdas Pophale) SiO2 
 PCOD9526615
Probable space group: I B A M
;
_chemical_formula_sum "Si O2"
_cell_formula_units_Z 112
_cell_length_a 15.242453
_cell_length_b 15.101778
_cell_length_c 27.523996
_cell_angle_alpha 90.000000
_cell_angle_beta 90.000000
_cell_angle_gamma 90.000000
_cell_volume 6335.697483
_symmetry_space_group_name_H-M "I B A M"
_symmetry_group_IT_number 72
_symmetry_cell_setting 'orthorhombic'
loop_
_space_group_symop_operation_xyz
x,y,z
-x,-y,z
x,-y,1/2-z
-x,y,1/2-z
-x,-y,-z
x,y,-z
-x,y,1/2+z
x,-y,1/2+z
1/2+x,1/2+y,1/2+z
1/2-x,1/2-y,1/2+z
1/2+x,1/2-y,-z
1/2-x,1/2+y,-z
1/2-x,1/2-y,1/2-z
1/2+x,1/2+y,1/2-z
1/2-x,1/2+y,z
1/2+x,1/2-y,z
loop_
_atom_site_type_symbol
_atom_site_label
_atom_site_fract_x
_atom_site_fract_y
_atom_site_fract_z
Si Si1 0.730370 0.381315 0.444497
Si Si2 0.341166 0.812644 0.443223
Si Si3 0.536537 0.093399 0.629776
Si Si4 0.696669 0.984165 0.807242
Si Si5 0.811712 0.141559 0.630606
Si Si6 0.596361 0.458207 0.055560
Si Si7 0.150864 0.340539 0.857308
O O1 0.758858 0.388563 0.500000
O O2 0.670475 0.293289 0.439852
O O3 0.669965 0.466370 0.433968
O O4 0.814950 0.365093 0.411303
O O5 0.340512 0.837052 0.500000
O O6 0.423107 0.849471 0.413538
O O7 0.260253 0.852692 0.412756
O O8 0.610436 0.065202 0.669588
O O9 0.452260 0.144247 0.650388
O O10 0.500000 0.000000 0.610560
O O11 0.776722 0.926331 0.828881
O O12 0.692264 0.000000 0.750000
O O13 0.699883 0.083934 0.827278
O O14 0.895529 0.110539 0.599690
O O15 0.823188 0.239549 0.651905
O O16 0.500000 0.500000 0.055521
O O17 0.611650 0.424197 0.000000
#
# Coordination Sequence:
#
# PCOD9526615 Si02
#       7
#    16  16  16  16  16  16  16
#     4   9  18  33  51  75 109 148 184 220 262 321
#     4   9  18  32  50  75 111 147 182 222 265 322
#     4   9  20  34  51  81 110 140 182 227 278 330
#     4  10  21  40  62  81 108 142 185 236 285 338
#     4  10  20  36  57  82 110 146 185 230 279 330
#     4  10  20  33  54  81 112 152 192 222 264 323
#     4  10  20  35  56  83 112 143 184 225 280 332
#
# _framework density 17.677610999999999
#
# number of rings (size 3 to 8) (size 9 to 14) (size 15 to 20)
#    0.000    2.429    1.429    0.429    2.000    4.571 
#    0.000    0.000    0.000    2.143    0.000    0.000 
#    0.000    0.000    0.000    0.000    0.000    0.000 
#
# Total GULP energy -311861.200748 kJ/mol
# GULP energy per Si atom -5568.950013 kJ/mol
# Density = 1.763738 g / cm^3
# Si number density = 17.677611 Si / 1000 Ang^3
#
#
#
# Elastic Constant Matrix: (Units=GPa)
#
#
# Indices 1 2 3 4 5 6 
#
# 1 39.0939 24.3701 11.3535 0.0000 0.0000 0.0000
# 2 24.3701 96.1475 58.0951 0.0000 0.0000 0.0000
# 3 11.3535 58.0951 89.1833 0.0000 0.0000 0.0000
# 4 0.0000 0.0000 0.0000 9.9115 0.0000 0.0000
# 5 0.0000 0.0000 0.0000 0.0000 5.7332 0.0000
# 6 0.0000 0.0000 0.0000 0.0000 0.0000 19.4182
#
#
#
# Elastic Compliance Matrix: (Units=1/GPa)
#
#
# Indices 1 2 3 4 5 6 
#
# 1 0.030575 -0.008901 0.001906 0.000000 0.000000 0.000000
# 2 -0.008901 0.019743 -0.011728 0.000000 0.000000 0.000000
# 3 0.001906 -0.011728 0.018610 0.000000 0.000000 0.000000
# 4 0.000000 0.000000 0.000000 0.100892 0.000000 0.000000
# 5 0.000000 0.000000 0.000000 0.000000 0.174423 0.000000
# 6 0.000000 0.000000 0.000000 0.000000 0.000000 0.051498
#
#
# Mechanical properties :
#
#
# Convention : Reuss Voigt Hill
#
# Bulk Modulus (GPa) = 31.76444 45.78467 38.77455
# Shear Modulus (GPa) = 11.26937 15.71966 13.49452
#
# Velocity S-wave (km/s) = 2.52760 2.98525 2.76591
# Velocity P-wave (km/s) = 5.15035 6.15129 5.67294
#
# Compressibility (1/GPa) = 0.03148175
#
# Stress axis : x y z
#
# Youngs Moduli (GPa) = 32.70668 50.65061 53.73522
#
# Poissons Ratio (x) = 0.45086 -0.10243
# Poissons Ratio (y) = 0.29114 0.63019
# Poissons Ratio (z) = -0.06234 0.59402
#
# Static dielectric constant tensor:
#      x y z
#    x 1.666060 0.000000 0.000000 
#    y 0.000000 1.637110 0.000000 
#    z 0.000000 0.000000 1.607430 
# 
# From -- ./inp_files/48698.got.cif
#   From: 2010.05.17/outbox.cif.g08.bks.cpg/sg72_25_cif.got.tgz:48698.got - 2010.06.03 17:03:01.
