data_PCOD9526376
_publ_section_title
;
Structure prediction by ZEFSAII (Michael W. Deem and Ramdas Pophale) SiO2 
 PCOD9526376
Probable space group: I B A M
;
_chemical_formula_sum "Si O2"
_cell_formula_units_Z 96
_cell_length_a 32.311458
_cell_length_b 8.496076
_cell_length_c 16.893404
_cell_angle_alpha 90.000000
_cell_angle_beta 90.000000
_cell_angle_gamma 90.000000
_cell_volume 4637.587450
_symmetry_space_group_name_H-M "I B A M"
_symmetry_group_IT_number 72
_symmetry_cell_setting 'orthorhombic'
loop_
_space_group_symop_operation_xyz
x,y,z
-x,-y,z
x,-y,1/2-z
-x,y,1/2-z
-x,-y,-z
x,y,-z
-x,y,1/2+z
x,-y,1/2+z
1/2+x,1/2+y,1/2+z
1/2-x,1/2-y,1/2+z
1/2+x,1/2-y,-z
1/2-x,1/2+y,-z
1/2-x,1/2-y,1/2-z
1/2+x,1/2+y,1/2-z
1/2-x,1/2+y,z
1/2+x,1/2-y,z
loop_
_atom_site_type_symbol
_atom_site_label
_atom_site_fract_x
_atom_site_fract_y
_atom_site_fract_z
Si Si1 0.105731 0.736906 0.868712
Si Si2 0.026829 0.747494 0.500000
Si Si3 0.277739 0.870363 0.857662
Si Si4 0.826518 0.222406 0.500000
Si Si5 0.802693 0.282046 0.179972
Si Si6 0.515248 0.818029 0.832816
Si Si7 0.601669 0.021788 0.000000
Si Si8 0.899649 0.004606 0.000000
O O1 0.149235 0.757337 0.826088
O O2 0.096805 0.887129 0.923003
O O3 0.064375 0.697236 0.822424
O O4 0.109940 0.586574 0.925302
O O5 0.000332 0.750741 0.418106
O O6 0.054894 0.588068 0.500000
O O7 0.937705 0.118124 0.500000
O O8 0.298723 0.763720 0.924325
O O9 0.228190 0.847743 0.856129
O O10 0.292285 0.809545 0.771858
O O11 0.291615 0.052044 0.863000
O O12 0.852513 0.061912 0.500000
O O13 0.865112 0.341929 0.500000
O O14 0.500000 0.744823 0.750000
O O15 0.500000 0.000000 0.834944
#
# Coordination Sequence:
#
# PCOD9526376 Si02
#       8
#    16   8  16   8  16  16   8   8
#     4  11  22  42  63  97 130 167 218 276 307 395
#     4  11  21  46  64  92 140 174 205 277 321 399
#     4  10  23  41  66  93 125 178 207 269 328 389
#     4  11  22  40  61  98 124 165 222 270 309 387
#     4  10  23  43  66  93 132 169 217 264 333 381
#     4  11  24  40  72 105 126 170 225 269 333 392
#     4  10  19  36  67  89 122 167 210 261 331 357
#     4  10  27  39  66  99 133 175 218 259 341 378
#
# _framework density 20.700417000000002
#
# number of rings (size 3 to 8) (size 9 to 14) (size 15 to 20)
#    0.000    1.500    3.333    1.250    2.333    8.667 
#    0.000    3.333    0.000    0.000    0.000    0.000 
#    0.000    0.000    0.000    0.000    0.000    0.000 
#
# Total GULP energy -267920.459058 kJ/mol
# GULP energy per Si atom -5581.676230 kJ/mol
# Density = 2.065330 g / cm^3
# Si number density = 20.700417 Si / 1000 Ang^3
#
#
#
# Elastic Constant Matrix: (Units=GPa)
#
#
# Indices 1 2 3 4 5 6 
#
# 1 180.7517 17.6592 47.9748 0.0000 0.0000 0.0000
# 2 17.6592 48.5928 9.7536 0.0000 0.0000 0.0000
# 3 47.9748 9.7536 66.2539 0.0000 0.0000 0.0000
# 4 0.0000 0.0000 0.0000 9.4949 0.0000 0.0000
# 5 0.0000 0.0000 0.0000 0.0000 83.9846 0.0000
# 6 0.0000 0.0000 0.0000 0.0000 0.0000 30.2139
#
#
#
# Elastic Compliance Matrix: (Units=1/GPa)
#
#
# Indices 1 2 3 4 5 6 
#
# 1 0.006962 -0.001564 -0.004811 0.000000 0.000000 0.000000
# 2 -0.001564 0.021557 -0.002041 0.000000 0.000000 0.000000
# 3 -0.004811 -0.002041 0.018878 0.000000 0.000000 0.000000
# 4 0.000000 0.000000 0.000000 0.105320 0.000000 0.000000
# 5 0.000000 0.000000 0.000000 0.000000 0.011907 0.000000
# 6 0.000000 0.000000 0.000000 0.000000 0.000000 0.033097
#
#
# Mechanical properties :
#
#
# Convention : Reuss Voigt Hill
#
# Bulk Modulus (GPa) = 32.71758 49.59706 41.15732
# Shear Modulus (GPa) = 22.24768 39.41938 30.83353
#
# Velocity S-wave (km/s) = 3.28189 4.36854 3.86361
# Velocity P-wave (km/s) = 5.49551 7.03257 6.31101
#
# Compressibility (1/GPa) = 0.03056460
#
# Stress axis : x y z
#
# Youngs Moduli (GPa) = 143.63177 46.38791 52.97280
#
# Poissons Ratio (x) = 0.07257 0.25486
# Poissons Ratio (y) = 0.22471 0.10810
# Poissons Ratio (z) = 0.69102 0.09467
#
# Static dielectric constant tensor:
#      x y z
#    x 1.753120 0.000000 0.000000 
#    y 0.000000 1.765560 0.000000 
#    z 0.000000 0.000000 0.703480 
# 
# From -- ./inp_files/33321.got.cif
#   From: 2010.05.17/outbox.cif.g08.bks.cpg/sg72_17_cif.got.tgz:33321.got - 2010.06.03 17:03:01.
