data_PCOD9526766
_publ_section_title
;
Structure prediction by ZEFSAII (Michael W. Deem and Ramdas Pophale) SiO2 
 PCOD9526766
Probable space group: I B A M
;
_chemical_formula_sum "Si O2"
_cell_formula_units_Z 116
_cell_length_a 26.973190
_cell_length_b 25.052881
_cell_length_c 8.005862
_cell_angle_alpha 90.000000
_cell_angle_beta 90.000000
_cell_angle_gamma 90.000000
_cell_volume 5410.010236
_symmetry_space_group_name_H-M "I B A M"
_symmetry_group_IT_number 72
_symmetry_cell_setting 'orthorhombic'
loop_
_space_group_symop_operation_xyz
x,y,z
-x,-y,z
x,-y,1/2-z
-x,y,1/2-z
-x,-y,-z
x,y,-z
-x,y,1/2+z
x,-y,1/2+z
1/2+x,1/2+y,1/2+z
1/2-x,1/2-y,1/2+z
1/2+x,1/2-y,-z
1/2-x,1/2+y,-z
1/2-x,1/2-y,1/2-z
1/2+x,1/2+y,1/2-z
1/2-x,1/2+y,z
1/2+x,1/2-y,z
loop_
_atom_site_type_symbol
_atom_site_label
_atom_site_fract_x
_atom_site_fract_y
_atom_site_fract_z
Si Si1 0.286172 0.443837 0.303766
Si Si2 0.073734 0.585421 0.199482
Si Si3 0.500000 0.000000 0.250000
Si Si4 0.687179 0.220539 0.308813
Si Si5 0.312037 0.895972 0.295332
Si Si6 0.053084 0.818981 0.307935
Si Si7 0.164258 0.834781 0.195756
Si Si8 0.421257 0.800663 0.195806
O O1 0.308722 0.500000 0.250000
O O2 0.280919 0.446825 0.500000
O O3 0.230487 0.435518 0.233926
O O4 0.315809 0.390214 0.264330
O O5 0.132031 0.587081 0.248810
O O6 0.055938 0.645724 0.231604
O O7 0.041053 0.544112 0.305025
O O8 0.069052 0.572596 0.000000
O O9 0.704849 0.223449 0.500000
O O10 0.703883 0.163721 0.234179
O O11 0.689728 0.280090 0.231055
O O12 0.628088 0.209960 0.303118
O O13 0.312411 0.892924 0.500000
O O14 0.060456 0.833584 0.500000
O O15 0.104685 0.833145 0.219050
O O16 0.050089 0.754633 0.296607
O O17 0.000000 0.840969 0.250000
O O18 0.174538 0.832904 0.000000
O O19 0.408299 0.809387 0.000000
#
# Coordination Sequence:
#
# PCOD9526766 Si02
#       8
#    16  16   4  16  16  16  16  16
#     4  11  23  39  60  84 113 152 197 242 291 348
#     4  10  22  40  56  74 107 148 193 247 304 353
#     4  12  26  36  56  82 102 148 208 262 302 344
#     4   8  15  32  57  84 115 151 185 228 294 353
#     4   8  17  36  60  82 109 149 191 240 298 354
#     4  10  20  34  56  88 121 155 191 229 280 340
#     4  10  20  36  59  88 122 155 191 238 289 348
#     4   9  18  32  52  80 111 145 188 235 282 340
#
# _framework density 21.441735000000001
#
# number of rings (size 3 to 8) (size 9 to 14) (size 15 to 20)
#    0.000    2.483    0.000    2.690    1.931    3.862 
#    0.000    5.517    0.000    0.414    0.000    2.897 
#    0.000    0.000    0.000    0.000    0.000    0.000 
#
# Total GULP energy -323007.184177 kJ/mol
# GULP energy per Si atom -5569.089382 kJ/mol
# Density = 2.139293 g / cm^3
# Si number density = 21.441735 Si / 1000 Ang^3
#
#
#
# Elastic Constant Matrix: (Units=GPa)
#
#
# Indices 1 2 3 4 5 6 
#
# 1 61.5056 38.2986 11.4711 0.0000 0.0000 0.0000
# 2 38.2986 146.3335 13.5423 0.0000 0.0000 0.0000
# 3 11.4711 13.5423 45.2143 0.0000 0.0000 0.0000
# 4 0.0000 0.0000 0.0000 -221.1288 0.0000 0.0000
# 5 0.0000 0.0000 0.0000 0.0000 246.1520 0.0000
# 6 0.0000 0.0000 0.0000 0.0000 0.0000 19.0279
#
#
#
# Elastic Compliance Matrix: (Units=1/GPa)
#
#
# Indices 1 2 3 4 5 6 
#
# 1 0.019979 -0.004896 -0.003602 0.000000 0.000000 0.000000
# 2 -0.004896 0.008228 -0.001222 0.000000 0.000000 0.000000
# 3 -0.003602 -0.001222 0.023397 0.000000 0.000000 0.000000
# 4 0.000000 0.000000 0.000000 -0.004522 0.000000 0.000000
# 5 0.000000 0.000000 0.000000 0.000000 0.004063 0.000000
# 6 0.000000 0.000000 0.000000 0.000000 0.000000 0.052554
#
#
# Mechanical properties :
#
#
# Convention : Reuss Voigt Hill
#
# Bulk Modulus (GPa) = 31.09144 42.18637 36.63890
# Shear Modulus (GPa) = 37.35230 21.45964 29.40597
#
# Velocity S-wave (km/s) = 4.17830 3.16703 3.70731
# Velocity P-wave (km/s) = 6.14894 5.75248 5.95401
#
# Compressibility (1/GPa) = 0.03216320
#
# Stress axis : x y z
#
# Youngs Moduli (GPa) = 50.05269 121.53477 42.74052
#
# Poissons Ratio (x) = 0.59498 0.15397
# Poissons Ratio (y) = 0.24503 0.05225
# Poissons Ratio (z) = 0.18031 0.14856
#
# Static dielectric constant tensor:
#      x y z
#    x 1.813470 0.000000 0.000000 
#    y 0.000000 1.848090 0.000000 
#    z 0.000000 0.000000 1.812500 
# 
# From -- ./inp_files/7295.got.cif
#   From: 2010.05.17/outbox.cif.g08.bks.cpg/sg72_4_cif.got.tgz:7295.got - 2010.06.03 17:03:01.
