data_PCOD9526104
_publ_section_title
;
Structure prediction by ZEFSAII (Michael W. Deem and Ramdas Pophale) SiO2 
 PCOD9526104
Probable space group: I B A M
;
_chemical_formula_sum "Si O2"
_cell_formula_units_Z 104
_cell_length_a 22.059248
_cell_length_b 27.800147
_cell_length_c 9.006021
_cell_angle_alpha 90.000000
_cell_angle_beta 90.000000
_cell_angle_gamma 90.000000
_cell_volume 5522.945414
_symmetry_space_group_name_H-M "I B A M"
_symmetry_group_IT_number 72
_symmetry_cell_setting 'orthorhombic'
loop_
_space_group_symop_operation_xyz
x,y,z
-x,-y,z
x,-y,1/2-z
-x,y,1/2-z
-x,-y,-z
x,y,-z
-x,y,1/2+z
x,-y,1/2+z
1/2+x,1/2+y,1/2+z
1/2-x,1/2-y,1/2+z
1/2+x,1/2-y,-z
1/2-x,1/2+y,-z
1/2-x,1/2-y,1/2-z
1/2+x,1/2+y,1/2-z
1/2-x,1/2+y,z
1/2+x,1/2-y,z
loop_
_atom_site_type_symbol
_atom_site_label
_atom_site_fract_x
_atom_site_fract_y
_atom_site_fract_z
Si Si1 0.000000 0.874422 0.750000
Si Si2 0.105509 0.051813 0.172472
Si Si3 0.728932 0.552314 0.178808
Si Si4 0.089321 0.210214 0.328182
Si Si5 0.674277 0.126667 0.822807
Si Si6 0.437453 0.818686 0.321108
Si Si7 0.777552 0.797026 0.321832
O O1 0.950997 0.911225 0.820578
O O2 0.956309 0.834598 0.673919
O O3 0.165464 0.072892 0.254519
O O4 0.090971 0.000000 0.250000
O O5 0.119887 0.042634 0.000000
O O6 0.729508 0.500000 0.250000
O O7 0.793766 0.576326 0.215619
O O8 0.723397 0.553225 0.000000
O O9 0.098797 0.221271 0.500000
O O10 0.070785 0.262747 0.265824
O O11 0.154420 0.195620 0.264190
O O12 0.617577 0.148139 0.735222
O O13 0.731294 0.160913 0.789912
O O14 0.661140 0.127939 0.000000
O O15 0.500000 0.836037 0.250000
O O16 0.440656 0.819666 0.500000
O O17 0.778477 0.792229 0.500000
O O18 0.750000 0.750000 0.250000
#
# Coordination Sequence:
#
# PCOD9526104 Si02
#       7
#     8  16  16  16  16  16  16
#     4  12  23  38  56  80 118 158 211 250 296 348
#     4  11  24  40  61  86 115 155 202 254 304 359
#     4  10  21  40  66  92 122 154 191 246 302 360
#     4  10  21  36  53  77 113 155 196 242 295 342
#     4  10  21  37  60  87 118 155 192 239 299 354
#     4  11  22  38  59  83 117 158 198 238 285 349
#     4  10  19  34  54  78 109 146 191 240 290 342
#
# _framework density 18.830532000000002
#
# number of rings (size 3 to 8) (size 9 to 14) (size 15 to 20)
#    0.000    1.538    2.308    3.923    0.000    5.538 
#    0.000    3.077    0.000    0.462    0.000    3.231 
#    0.000    0.000    0.000    0.000    0.000    0.000 
#
# Total GULP energy -289544.728242 kJ/mol
# GULP energy per Si atom -5568.167851 kJ/mol
# Density = 1.878767 g / cm^3
# Si number density = 18.830532 Si / 1000 Ang^3
#
#
#
# Elastic Constant Matrix: (Units=GPa)
#
#
# Indices 1 2 3 4 5 6 
#
# 1 161.4599 50.7211 51.7238 0.0000 0.0000 0.0000
# 2 50.7211 68.7585 22.2407 0.0000 0.0000 0.0000
# 3 51.7238 22.2407 59.9870 0.0000 0.0000 0.0000
# 4 0.0000 0.0000 0.0000 4.8454 0.0000 0.0000
# 5 0.0000 0.0000 0.0000 0.0000 20.9056 0.0000
# 6 0.0000 0.0000 0.0000 0.0000 0.0000 30.1476
#
#
#
# Elastic Compliance Matrix: (Units=1/GPa)
#
#
# Indices 1 2 3 4 5 6 
#
# 1 0.009958 -0.005191 -0.006662 0.000000 0.000000 0.000000
# 2 -0.005191 0.019232 -0.002654 0.000000 0.000000 0.000000
# 3 -0.006662 -0.002654 0.023399 0.000000 0.000000 0.000000
# 4 0.000000 0.000000 0.000000 0.206381 0.000000 0.000000
# 5 0.000000 0.000000 0.000000 0.000000 0.047834 0.000000
# 6 0.000000 0.000000 0.000000 0.000000 0.000000 0.033170
#
#
# Mechanical properties :
#
#
# Convention : Reuss Voigt Hill
#
# Bulk Modulus (GPa) = 42.41969 59.95295 51.18632
# Shear Modulus (GPa) = 13.26801 22.21439 17.74120
#
# Velocity S-wave (km/s) = 2.65731 3.43840 3.07278
# Velocity P-wave (km/s) = 5.65606 6.90440 6.31117
#
# Compressibility (1/GPa) = 0.02357396
#
# Stress axis : x y z
#
# Youngs Moduli (GPa) = 100.41773 51.99792 42.73756
#
# Poissons Ratio (x) = 0.26993 0.28472
# Poissons Ratio (y) = 0.52128 0.11343
# Poissons Ratio (z) = 0.66898 0.13801
#
# Static dielectric constant tensor:
#      x y z
#    x 1.898970 0.000000 0.000000 
#    y 0.000000 1.895220 0.000000 
#    z 0.000000 0.000000 1.651370 
# 
# From -- ./inp_files/6214.got.cif
#   From: 2010.05.17/outbox.cif.g08.bks.cpg/sg72_4_cif.got.tgz:6214.got - 2010.06.03 17:03:01.
