data_PCOD9526258
_publ_section_title
;
Structure prediction by ZEFSAII (Michael W. Deem and Ramdas Pophale) SiO2 
 PCOD9526258
Probable space group: I B A M
;
_chemical_formula_sum "Si O2"
_cell_formula_units_Z 96
_cell_length_a 9.192062
_cell_length_b 31.645087
_cell_length_c 14.763832
_cell_angle_alpha 90.000000
_cell_angle_beta 90.000000
_cell_angle_gamma 90.000000
_cell_volume 4294.556627
_symmetry_space_group_name_H-M "I B A M"
_symmetry_group_IT_number 72
_symmetry_cell_setting 'orthorhombic'
loop_
_space_group_symop_operation_xyz
x,y,z
-x,-y,z
x,-y,1/2-z
-x,y,1/2-z
-x,-y,-z
x,y,-z
-x,y,1/2+z
x,-y,1/2+z
1/2+x,1/2+y,1/2+z
1/2-x,1/2-y,1/2+z
1/2+x,1/2-y,-z
1/2-x,1/2+y,-z
1/2-x,1/2-y,1/2-z
1/2+x,1/2+y,1/2-z
1/2-x,1/2+y,z
1/2+x,1/2-y,z
loop_
_atom_site_type_symbol
_atom_site_label
_atom_site_fract_x
_atom_site_fract_y
_atom_site_fract_z
Si Si1 0.594587 0.537906 0.895551
Si Si2 0.578753 0.043393 0.889252
Si Si3 0.397867 0.125448 0.110189
Si Si4 0.939391 0.123146 0.350465
Si Si5 0.908880 0.210185 0.894398
Si Si6 0.580636 0.207741 0.888762
O O1 0.500000 0.500000 0.854564
O O2 0.755009 0.544446 0.855216
O O3 0.503566 0.581017 0.895678
O O4 0.622533 0.525351 0.000000
O O5 0.487474 0.084190 0.861023
O O6 0.500000 0.000000 0.863379
O O7 0.580562 0.045013 0.000000
O O8 0.233854 0.124329 0.145087
O O9 0.485382 0.167330 0.137666
O O10 0.388607 0.125446 0.000000
O O11 0.000000 0.120981 0.250000
O O12 0.004628 0.166443 0.389525
O O13 0.746856 0.205591 0.854922
O O14 0.003423 0.249099 0.858365
O O15 0.887018 0.220480 0.000000
O O16 0.584838 0.207034 0.000000
#
# Coordination Sequence:
#
# PCOD9526258 Si02
#       6
#    16  16  16  16  16  16
#     4  10  20  37  62  87 111 144 186 232 282 333
#     4   9  17  31  56  89 115 137 176 229 280 333
#     4  10  19  35  58  83 112 146 187 234 281 329
#     4  12  25  38  53  79 115 154 190 227 276 333
#     4  10  19  36  59  83 110 141 184 234 286 339
#     4   9  18  33  60  90 110 137 183 239 287 331
#
# _framework density 22.35388
#
# number of rings (size 3 to 8) (size 9 to 14) (size 15 to 20)
#    0.000    2.000    0.000    4.500    0.000    8.333 
#    0.000    6.667    0.000    1.000    0.000    0.000 
#    0.000    0.000    0.000    0.000    0.000    0.000 
#
# Total GULP energy -268425.111547 kJ/mol
# GULP energy per Si atom -5592.189824 kJ/mol
# Density = 2.230300 g / cm^3
# Si number density = 22.353880 Si / 1000 Ang^3
#
#
#
# Elastic Constant Matrix: (Units=GPa)
#
#
# Indices 1 2 3 4 5 6 
#
# 1 260.2171 138.1035 -3.4062 0.0000 0.0000 0.0000
# 2 138.1035 217.8230 -9.1712 -0.0008 0.0000 0.0000
# 3 -3.4062 -9.1712 44.3984 -0.0038 -0.0001 -0.0001
# 4 0.0000 -0.0008 -0.0038 -657.3752 0.0003 0.0000
# 5 0.0000 0.0000 -0.0001 0.0003 3.6680 0.0000
# 6 0.0000 0.0000 -0.0001 0.0000 0.0000 43.5935
#
#
#
# Elastic Compliance Matrix: (Units=1/GPa)
#
#
# Indices 1 2 3 4 5 6 
#
# 1 0.005796 -0.003688 -0.000317 0.000000 0.000000 0.000000
# 2 -0.003688 0.006978 0.001158 0.000000 0.000000 0.000000
# 3 -0.000317 0.001158 0.022738 0.000000 0.000000 0.000000
# 4 0.000000 0.000000 0.000000 -0.001521 0.000000 0.000000
# 5 0.000000 0.000000 0.000000 0.000000 0.272631 0.000000
# 6 0.000000 0.000000 0.000000 0.000000 0.000000 0.022939
#
#
# Mechanical properties :
#
#
# Convention : Reuss Voigt Hill
#
# Bulk Modulus (GPa) = 33.53607 85.94344 59.73975
# Shear Modulus (GPa) = 14.48457 -95.56192 -40.53867
#
# Velocity S-wave (km/s) = 2.54828 -6.54541 -4.26314
# Velocity P-wave (km/s) = 4.86757 4.31196 1.59691
#
# Compressibility (1/GPa) = 0.02981864
#
# Stress axis : x y z
#
# Youngs Moduli (GPa) = 172.52529 143.30566 43.97868
#
# Poissons Ratio (x) = 0.52855 0.01395
# Poissons Ratio (y) = 0.63632 -0.05095
# Poissons Ratio (z) = 0.05472 -0.16602
#
# Static dielectric constant tensor:
#      x y z
#    x 1.783440 0.000000 0.000000 
#    y 0.000000 1.795430 0.000000 
#    z 0.000000 0.000000 1.927380 
# 
# From -- ./inp_files/36017.got.cif
#   From: 2010.05.17/outbox.cif.g08.bks.cpg/sg72_19_cif.got.tgz:36017.got - 2010.06.03 17:03:01.
