data_PCOD9526641
_publ_section_title
;
Structure prediction by ZEFSAII (Michael W. Deem and Ramdas Pophale) SiO2 
 PCOD9526641
Probable space group: I B A M
;
_chemical_formula_sum "Si O2"
_cell_formula_units_Z 68
_cell_length_a 13.266883
_cell_length_b 14.687533
_cell_length_c 13.778214
_cell_angle_alpha 90.000000
_cell_angle_beta 90.000000
_cell_angle_gamma 90.000000
_cell_volume 2684.792218
_symmetry_space_group_name_H-M "I B A M"
_symmetry_group_IT_number 72
_symmetry_cell_setting 'orthorhombic'
loop_
_space_group_symop_operation_xyz
x,y,z
-x,-y,z
x,-y,1/2-z
-x,y,1/2-z
-x,-y,-z
x,y,-z
-x,y,1/2+z
x,-y,1/2+z
1/2+x,1/2+y,1/2+z
1/2-x,1/2-y,1/2+z
1/2+x,1/2-y,-z
1/2-x,1/2+y,-z
1/2-x,1/2-y,1/2-z
1/2+x,1/2+y,1/2-z
1/2-x,1/2+y,z
1/2+x,1/2-y,z
loop_
_atom_site_type_symbol
_atom_site_label
_atom_site_fract_x
_atom_site_fract_y
_atom_site_fract_z
Si Si1 0.500000 0.000000 0.250000
Si Si2 0.098118 0.764148 0.295012
Si Si3 0.599029 0.549902 0.386414
Si Si4 0.712986 0.709641 0.889944
Si Si5 0.323700 0.929290 0.388226
O O1 0.418979 0.952244 0.322667
O O2 0.076488 0.843466 0.370788
O O3 0.173942 0.696898 0.349449
O O4 0.145900 0.817036 0.202018
O O5 0.000000 0.720258 0.250000
O O6 0.500000 0.500000 0.348410
O O7 0.603605 0.530561 0.500000
O O8 0.714598 0.531324 0.354527
O O9 0.695270 0.819602 0.890490
O O10 0.696864 0.676707 0.000000
O O11 0.341223 0.957806 0.500000
#
# Coordination Sequence:
#
# PCOD9526641 Si02
#       5
#     4  16  16  16  16
#     4  12  22  32  62  86 120 152 204 238 288 346
#     4  10  20  33  60  88 113 152 205 248 299 362
#     4   9  19  38  63  89 122 158 194 251 318 368
#     4   9  20  39  57  80 120 161 197 247 303 357
#     4   9  20  38  58  84 119 158 201 245 298 360
#
# _framework density 25.327846000000001
#
# number of rings (size 3 to 8) (size 9 to 14) (size 15 to 20)
#    0.000    2.588    0.000    2.471    1.647    6.118 
#    0.000    0.000    0.000    6.353    0.000    0.000 
#    0.000    0.000    0.000    0.000    0.000    0.000 
#
# Total GULP energy -189832.077253 kJ/mol
# GULP energy per Si atom -5583.296390 kJ/mol
# Density = 2.527020 g / cm^3
# Si number density = 25.327846 Si / 1000 Ang^3
#
#
#
# Elastic Constant Matrix: (Units=GPa)
#
#
# Indices 1 2 3 4 5 6 
#
# 1 177.5192 43.3238 47.4758 0.0000 0.0000 0.0000
# 2 43.3238 36.2582 21.1818 0.0000 0.0000 0.0000
# 3 47.4758 21.1818 160.0546 0.0000 0.0000 0.0000
# 4 0.0000 0.0000 0.0000 15.4964 0.0000 0.0000
# 5 0.0000 0.0000 0.0000 0.0000 37.2000 0.0000
# 6 0.0000 0.0000 0.0000 0.0000 0.0000 -439.8174
#
#
#
# Elastic Compliance Matrix: (Units=1/GPa)
#
#
# Indices 1 2 3 4 5 6 
#
# 1 0.008168 -0.009044 -0.001226 0.000000 0.000000 0.000000
# 2 -0.009044 0.039904 -0.002598 0.000000 0.000000 0.000000
# 3 -0.001226 -0.002598 0.006955 0.000000 0.000000 0.000000
# 4 0.000000 0.000000 0.000000 0.064531 0.000000 0.000000
# 5 0.000000 0.000000 0.000000 0.000000 0.026882 0.000000
# 6 0.000000 0.000000 0.000000 0.000000 0.000000 -0.002274
#
#
# Mechanical properties :
#
#
# Convention : Reuss Voigt Hill
#
# Bulk Modulus (GPa) = 34.13972 66.42165 50.28069
# Shear Modulus (GPa) = 27.82932 -59.96747 -16.06907
#
# Velocity S-wave (km/s) = 3.31836 -4.87113 -2.52155
# Velocity P-wave (km/s) = 5.30946 2.31420 3.37897
#
# Compressibility (1/GPa) = 0.02929139
#
# Stress axis : x y z
#
# Youngs Moduli (GPa) = 122.42587 25.06015 143.77313
#
# Poissons Ratio (x) = 0.22664 0.17627
# Poissons Ratio (y) = 1.10718 0.37358
# Poissons Ratio (z) = 0.15010 0.06512
#
# Static dielectric constant tensor:
#      x y z
#    x 2.043620 0.000000 0.000000 
#    y 0.000000 2.049500 0.000000 
#    z 0.000000 0.000000 1.966370 
# 
# From -- ./inp_files/19977.got.cif
#   From: 2010.05.17/outbox.cif.g08.bks.cpg/sg72_10_cif.got.tgz:19977.got - 2010.06.03 17:03:01.
