data_PCOD9526625
_publ_section_title
;
Structure prediction by ZEFSAII (Michael W. Deem and Ramdas Pophale) SiO2 
 PCOD9526625
Probable space group: I B A M
;
_chemical_formula_sum "Si O2"
_cell_formula_units_Z 96
_cell_length_a 26.314072
_cell_length_b 10.199722
_cell_length_c 14.139517
_cell_angle_alpha 90.000000
_cell_angle_beta 90.000000
_cell_angle_gamma 90.000000
_cell_volume 3794.992903
_symmetry_space_group_name_H-M "I B A M"
_symmetry_group_IT_number 72
_symmetry_cell_setting 'orthorhombic'
loop_
_space_group_symop_operation_xyz
x,y,z
-x,-y,z
x,-y,1/2-z
-x,y,1/2-z
-x,-y,-z
x,y,-z
-x,y,1/2+z
x,-y,1/2+z
1/2+x,1/2+y,1/2+z
1/2-x,1/2-y,1/2+z
1/2+x,1/2-y,-z
1/2-x,1/2+y,-z
1/2-x,1/2-y,1/2-z
1/2+x,1/2+y,1/2-z
1/2-x,1/2+y,z
1/2+x,1/2-y,z
loop_
_atom_site_type_symbol
_atom_site_label
_atom_site_fract_x
_atom_site_fract_y
_atom_site_fract_z
Si Si1 0.954390 0.422672 0.853807
Si Si2 0.790260 0.586617 0.883580
Si Si3 0.871204 0.802960 0.886353
Si Si4 0.153303 0.651888 0.891880
Si Si5 0.325769 0.423320 0.115173
Si Si6 0.009739 0.147350 0.858900
O O1 0.950593 0.500000 0.750000
O O2 0.898008 0.430585 0.891287
O O3 0.000000 0.500000 0.900057
O O4 0.972219 0.271787 0.874840
O O5 0.834083 0.686964 0.851576
O O6 0.803914 0.440252 0.849730
O O7 0.732044 0.611022 0.858291
O O8 0.791606 0.587018 0.000000
O O9 0.931915 0.804306 0.870111
O O10 0.847861 0.939945 0.850366
O O11 0.866441 0.799205 0.000000
O O12 0.143158 0.795776 0.852398
O O13 0.169259 0.674655 0.000000
O O14 0.327905 0.436353 0.000000
O O15 0.000000 0.128724 0.750000
O O16 0.000000 0.000000 0.901050
#
# Coordination Sequence:
#
# PCOD9526625 Si02
#       6
#    16  16  16  16  16  16
#     4  11  22  39  57  77 107 147 190 228 284 334
#     4   9  17  30  53  86 120 150 181 220 274 340
#     4  10  20  34  56  88 121 150 187 234 279 330
#     4  10  20  33  55  85 111 143 184 229 276 327
#     4   9  17  32  54  86 122 149 177 221 281 340
#     4  11  23  39  58  81 108 152 200 235 282 339
#
# _framework density 25.296491
#
# number of rings (size 3 to 8) (size 9 to 14) (size 15 to 20)
#    0.000    2.000    1.667    3.000    0.000    5.333 
#    0.000    0.000    0.000    1.000    8.667    0.000 
#    0.000    0.000    0.000    0.000    0.000    0.333 
#
# Total GULP energy -267704.756443 kJ/mol
# GULP energy per Si atom -5577.182426 kJ/mol
# Density = 2.523891 g / cm^3
# Si number density = 25.296491 Si / 1000 Ang^3
#
#
#
# Elastic Constant Matrix: (Units=GPa)
#
#
# Indices 1 2 3 4 5 6 
#
# 1 117.4750 33.0158 -11.2994 0.0000 0.0000 0.0000
# 2 33.0158 130.7406 15.4956 0.0000 0.0000 0.0000
# 3 -11.2994 15.4956 77.1889 0.0000 0.0000 0.0000
# 4 0.0000 0.0000 0.0000 3.4832 0.0000 0.0000
# 5 0.0000 0.0000 0.0000 0.0000 -44.1089 0.0000
# 6 0.0000 0.0000 0.0000 0.0000 0.0000 55.3301
#
#
#
# Elastic Compliance Matrix: (Units=1/GPa)
#
#
# Indices 1 2 3 4 5 6 
#
# 1 0.009428 -0.002606 0.001903 0.000000 0.000000 0.000000
# 2 -0.002606 0.008556 -0.002099 0.000000 0.000000 0.000000
# 3 0.001903 -0.002099 0.013655 0.000000 0.000000 0.000000
# 4 0.000000 0.000000 0.000000 0.287089 0.000000 0.000000
# 5 0.000000 0.000000 0.000000 0.000000 -0.022671 0.000000
# 6 0.000000 0.000000 0.000000 0.000000 0.000000 0.018073
#
#
# Mechanical properties :
#
#
# Convention : Reuss Voigt Hill
#
# Bulk Modulus (GPa) = 38.41027 44.42538 41.41782
# Shear Modulus (GPa) = 15.22475 22.15372 18.68923
#
# Velocity S-wave (km/s) = 2.45593 2.96254 2.72105
# Velocity P-wave (km/s) = 4.82277 5.41315 5.12647
#
# Compressibility (1/GPa) = 0.02603471
#
# Stress axis : x y z
#
# Youngs Moduli (GPa) = 106.06633 116.88077 73.23186
#
# Poissons Ratio (x) = 0.30464 -0.13939
# Poissons Ratio (y) = 0.27646 0.15372
# Poissons Ratio (z) = -0.20189 0.24534
#
# Static dielectric constant tensor:
#      x y z
#    x 2.027030 0.000000 0.000000 
#    y 0.000000 2.149260 0.000000 
#    z 0.000000 0.000000 2.030920 
# 
# From -- ./inp_files/40675.got.cif
#   From: 2010.05.17/outbox.cif.g08.bks.cpg/sg72_21_cif.got.tgz:40675.got - 2010.06.03 17:03:01.
