data_PCOD9526787
_publ_section_title
;
Structure prediction by ZEFSAII (Michael W. Deem and Ramdas Pophale) SiO2 
 PCOD9526787
Probable space group: I B A M
;
_chemical_formula_sum "Si O2"
_cell_formula_units_Z 96
_cell_length_a 13.052749
_cell_length_b 21.924079
_cell_length_c 15.175347
_cell_angle_alpha 90.000000
_cell_angle_beta 90.000000
_cell_angle_gamma 90.000000
_cell_volume 4342.721467
_symmetry_space_group_name_H-M "I B A M"
_symmetry_group_IT_number 72
_symmetry_cell_setting 'orthorhombic'
loop_
_space_group_symop_operation_xyz
x,y,z
-x,-y,z
x,-y,1/2-z
-x,y,1/2-z
-x,-y,-z
x,y,-z
-x,y,1/2+z
x,-y,1/2+z
1/2+x,1/2+y,1/2+z
1/2-x,1/2-y,1/2+z
1/2+x,1/2-y,-z
1/2-x,1/2+y,-z
1/2-x,1/2-y,1/2-z
1/2+x,1/2+y,1/2-z
1/2-x,1/2+y,z
1/2+x,1/2-y,z
loop_
_atom_site_type_symbol
_atom_site_label
_atom_site_fract_x
_atom_site_fract_y
_atom_site_fract_z
Si Si1 0.053856 0.379172 0.653992
Si Si2 0.894756 0.855207 0.901003
Si Si3 0.943062 0.239630 0.157795
Si Si4 0.737770 0.570403 0.727128
Si Si5 0.238716 0.736099 0.597557
Si Si6 0.844451 0.389291 0.404499
O O1 0.067245 0.309191 0.621433
O O2 0.161585 0.413900 0.665997
O O3 0.000000 0.375440 0.750000
O O4 0.961636 0.411317 0.601761
O O5 0.859934 0.900769 0.823369
O O6 0.810275 0.801638 0.895743
O O7 0.998727 0.815553 0.890550
O O8 0.891959 0.882198 0.000000
O O9 0.824492 0.222641 0.168768
O O10 0.000000 0.243770 0.250000
O O11 0.722342 0.500000 0.750000
O O12 0.773252 0.594886 0.822684
O O13 0.287646 0.730046 0.500000
O O14 0.152192 0.684671 0.600487
O O15 0.801342 0.406458 0.500000
#
# Coordination Sequence:
#
# PCOD9526787 Si02
#       6
#    16  16  16  16  16  16
#     4   9  19  33  54  86 121 163 207 263 329 392
#     4  11  23  38  62  96 132 172 220 275 338 406
#     4  11  20  33  59  91 131 167 205 272 344 403
#     4  11  24  42  61  87 129 180 227 271 319 399
#     4  10  20  34  57  90 126 160 204 268 341 402
#     4  10  21  37  60  88 121 166 217 272 336 404
#
# _framework density 22.105955000000002
#
# number of rings (size 3 to 8) (size 9 to 14) (size 15 to 20)
#    0.000    1.667    3.333    1.500    0.000    6.333 
#    0.000    0.833    0.000    4.500    0.000    7.000 
#    0.000    0.000    0.000    0.000    0.000    0.000 
#
# Total GULP energy -267498.823769 kJ/mol
# GULP energy per Si atom -5572.892162 kJ/mol
# Density = 2.205564 g / cm^3
# Si number density = 22.105955 Si / 1000 Ang^3
#
#
#
# Elastic Constant Matrix: (Units=GPa)
#
#
# Indices 1 2 3 4 5 6 
#
# 1 76.1217 5.7810 4.4939 0.0000 0.0000 0.0000
# 2 5.7810 94.0859 27.8004 0.0001 0.0000 0.0000
# 3 4.4939 27.8004 103.6314 0.0003 0.0001 0.0001
# 4 0.0000 0.0001 0.0003 10.0188 0.0001 0.0001
# 5 0.0000 0.0000 0.0001 0.0001 22.9620 0.0000
# 6 0.0000 0.0000 0.0001 0.0001 0.0000 12.1941
#
#
#
# Elastic Compliance Matrix: (Units=1/GPa)
#
#
# Indices 1 2 3 4 5 6 
#
# 1 0.013213 -0.000698 -0.000386 0.000000 0.000000 0.000000
# 2 -0.000698 0.011580 -0.003076 0.000000 0.000000 0.000000
# 3 -0.000386 -0.003076 0.010492 0.000000 0.000000 0.000000
# 4 0.000000 0.000000 0.000000 0.099812 0.000000 -0.000001
# 5 0.000000 0.000000 0.000000 0.000000 0.043550 0.000000
# 6 0.000000 0.000000 0.000000 -0.000001 0.000000 0.082007
#
#
# Mechanical properties :
#
#
# Convention : Reuss Voigt Hill
#
# Bulk Modulus (GPa) = 37.08540 38.88772 37.98656
# Shear Modulus (GPa) = 17.98810 24.75258 21.37034
#
# Velocity S-wave (km/s) = 2.85568 3.34986 3.11259
# Velocity P-wave (km/s) = 5.26173 5.70892 5.48988
#
# Compressibility (1/GPa) = 0.02696479
#
# Stress axis : x y z
#
# Youngs Moduli (GPa) = 75.68512 86.35237 95.31459
#
# Poissons Ratio (x) = 0.06026 0.03677
# Poissons Ratio (y) = 0.05282 0.29322
# Poissons Ratio (z) = 0.02920 0.26565
#
# Static dielectric constant tensor:
#      x y z
#    x 1.851860 0.000000 0.000000 
#    y 0.000000 1.852270 0.000000 
#    z 0.000000 0.000000 1.934730 
# 
# From -- ./inp_files/21840.got.cif
#   From: 2010.05.17/outbox.cif.g08.bks.cpg/sg72_11_cif.got.tgz:21840.got - 2010.06.03 17:03:01.
