data_PCOD9526139
_publ_section_title
;
Structure prediction by ZEFSAII (Michael W. Deem and Ramdas Pophale) SiO2 
 PCOD9526139
Probable space group: I B A M
;
_chemical_formula_sum "Si O2"
_cell_formula_units_Z 80
_cell_length_a 11.975093
_cell_length_b 13.487652
_cell_length_c 25.733902
_cell_angle_alpha 90.000000
_cell_angle_beta 90.000000
_cell_angle_gamma 90.000000
_cell_volume 4156.434009
_symmetry_space_group_name_H-M "I B A M"
_symmetry_group_IT_number 72
_symmetry_cell_setting 'orthorhombic'
loop_
_space_group_symop_operation_xyz
x,y,z
-x,-y,z
x,-y,1/2-z
-x,y,1/2-z
-x,-y,-z
x,y,-z
-x,y,1/2+z
x,-y,1/2+z
1/2+x,1/2+y,1/2+z
1/2-x,1/2-y,1/2+z
1/2+x,1/2-y,-z
1/2-x,1/2+y,-z
1/2-x,1/2-y,1/2-z
1/2+x,1/2+y,1/2-z
1/2-x,1/2+y,z
1/2+x,1/2-y,z
loop_
_atom_site_type_symbol
_atom_site_label
_atom_site_fract_x
_atom_site_fract_y
_atom_site_fract_z
Si Si1 0.968974 0.385576 0.556482
Si Si2 0.860276 0.296618 0.866278
Si Si3 0.797518 0.885807 0.440545
Si Si4 0.443264 0.372193 0.194275
Si Si5 0.843310 0.950495 0.140538
O O1 0.002506 0.340212 0.500000
O O2 0.032227 0.344065 0.606315
O O3 0.000000 0.500000 0.554170
O O4 0.836509 0.382348 0.560342
O O5 0.829318 0.209533 0.906806
O O6 0.890485 0.235183 0.814749
O O7 0.762236 0.376900 0.857950
O O8 0.835884 0.881122 0.500000
O O9 0.837814 0.987205 0.412922
O O10 0.500000 0.381344 0.250000
O O11 0.542880 0.389897 0.151922
O O12 0.354081 0.459799 0.182818
#
# Coordination Sequence:
#
# PCOD9526139 Si02
#       5
#    16  16  16  16  16
#     4  10  19  34  56  84 122 159 188 232 287 341
#     4  11  21  36  61  89 116 153 200 244 289 352
#     4  10  21  35  56  87 122 160 197 233 285 351
#     4  10  23  43  62  85 116 151 197 252 305 348
#     4  10  20  38  61  83 114 156 192 238 292 348
#
# _framework density 19.24727
#
# number of rings (size 3 to 8) (size 9 to 14) (size 15 to 20)
#    0.000    1.800    2.000    3.000    0.000    1.600 
#    0.000   11.000    0.000    0.000    0.000    0.000 
#    0.000    0.000    0.000    0.000    0.000    0.000 
#
# Total GULP energy -222929.164532 kJ/mol
# GULP energy per Si atom -5573.229113 kJ/mol
# Density = 1.920346 g / cm^3
# Si number density = 19.247270 Si / 1000 Ang^3
#
#
#
# Elastic Constant Matrix: (Units=GPa)
#
#
# Indices 1 2 3 4 5 6 
#
# 1 54.7021 28.7798 34.4515 0.0000 0.0000 0.0000
# 2 28.7798 94.5510 50.9513 0.0000 0.0000 0.0000
# 3 34.4515 50.9513 97.2492 0.0000 0.0000 0.0000
# 4 0.0000 0.0000 0.0000 18.7443 0.0000 0.0000
# 5 0.0000 0.0000 0.0000 0.0000 27.5110 0.0000
# 6 0.0000 0.0000 0.0000 0.0000 0.0000 34.9401
#
#
#
# Elastic Compliance Matrix: (Units=1/GPa)
#
#
# Indices 1 2 3 4 5 6 
#
# 1 0.024509 -0.003876 -0.006652 0.000000 0.000000 0.000000
# 2 -0.003876 0.015350 -0.006669 0.000000 0.000000 0.000000
# 3 -0.006652 -0.006669 0.016134 0.000000 0.000000 0.000000
# 4 0.000000 0.000000 0.000000 0.053350 0.000000 0.000000
# 5 0.000000 0.000000 0.000000 0.000000 0.036349 0.000000
# 6 0.000000 0.000000 0.000000 0.000000 0.000000 0.028620
#
#
# Mechanical properties :
#
#
# Convention : Reuss Voigt Hill
#
# Bulk Modulus (GPa) = 46.29855 52.76307 49.53081
# Shear Modulus (GPa) = 23.15827 25.06039 24.10933
#
# Velocity S-wave (km/s) = 3.47248 3.61227 3.54306
# Velocity P-wave (km/s) = 6.33911 6.69857 6.52131
#
# Compressibility (1/GPa) = 0.02159895
#
# Stress axis : x y z
#
# Youngs Moduli (GPa) = 40.80059 65.14725 61.98224
#
# Poissons Ratio (x) = 0.25248 0.41232
# Poissons Ratio (y) = 0.15813 0.41337
# Poissons Ratio (z) = 0.27141 0.43448
#
# Static dielectric constant tensor:
#      x y z
#    x 1.632880 0.000000 0.000000 
#    y 0.000000 1.633400 0.000000 
#    z 0.000000 0.000000 1.725310 
# 
# From -- ./inp_files/43123.got.cif
#   From: 2010.05.17/outbox.cif.g08.bks.cpg/sg72_22_cif.got.tgz:43123.got - 2010.06.03 17:03:01.
