data_PCOD9526586
_publ_section_title
;
Structure prediction by ZEFSAII (Michael W. Deem and Ramdas Pophale) SiO2 
 PCOD9526586
Probable space group: I B A M
;
_chemical_formula_sum "Si O2"
_cell_formula_units_Z 116
_cell_length_a 27.444055
_cell_length_b 26.985108
_cell_length_c 9.166732
_cell_angle_alpha 90.000000
_cell_angle_beta 90.000000
_cell_angle_gamma 90.000000
_cell_volume 6788.705609
_symmetry_space_group_name_H-M "I B A M"
_symmetry_group_IT_number 72
_symmetry_cell_setting 'orthorhombic'
loop_
_space_group_symop_operation_xyz
x,y,z
-x,-y,z
x,-y,1/2-z
-x,y,1/2-z
-x,-y,-z
x,y,-z
-x,y,1/2+z
x,-y,1/2+z
1/2+x,1/2+y,1/2+z
1/2-x,1/2-y,1/2+z
1/2+x,1/2-y,-z
1/2-x,1/2+y,-z
1/2-x,1/2-y,1/2-z
1/2+x,1/2+y,1/2-z
1/2-x,1/2+y,z
1/2+x,1/2-y,z
loop_
_atom_site_type_symbol
_atom_site_label
_atom_site_fract_x
_atom_site_fract_y
_atom_site_fract_z
Si Si1 0.712549 0.949820 0.674009
Si Si2 0.920642 0.921677 0.166184
Si Si3 0.820412 0.351843 0.825788
Si Si4 0.000000 0.000000 0.750000
Si Si5 0.711712 0.313399 0.165566
Si Si6 0.051320 0.821215 0.175324
Si Si7 0.137156 0.252885 0.325237
Si Si8 0.687364 0.427199 0.831466
O O1 0.710368 0.952205 0.500000
O O2 0.683490 0.902437 0.736464
O O3 0.768896 0.943614 0.727418
O O4 0.694504 0.000000 0.750000
O O5 0.933096 0.875900 0.270672
O O6 0.867387 0.943274 0.205072
O O7 0.916573 0.902733 0.000000
O O8 0.962875 0.962758 0.169717
O O9 0.768016 0.325069 0.805124
O O10 0.859556 0.310412 0.779421
O O11 0.824571 0.362468 0.000000
O O12 0.684738 0.276211 0.271051
O O13 0.686582 0.367342 0.174332
O O14 0.707221 0.294821 0.000000
O O15 0.091140 0.780137 0.220816
O O16 0.000000 0.810143 0.250000
O O17 0.047344 0.821369 0.000000
O O18 0.137787 0.253544 0.500000
O O19 0.699241 0.441162 0.000000
#
# Coordination Sequence:
#
# PCOD9526586 Si02
#       8
#    16  16  16   4  16  16  16  16
#     4  11  22  36  54  77 104 139 177 212 253 303
#     4  11  23  40  56  72  98 129 170 228 285 328
#     4   9  19  35  51  74 108 138 169 212 257 308
#     4  12  26  36  56  82  94 124 182 236 292 324
#     4   9  16  28  49  74 102 133 164 202 256 315
#     4  11  23  38  57  78 102 135 176 219 269 325
#     4  10  20  33  52  77 104 135 171 213 262 315
#     4   9  19  35  52  72  99 134 172 216 269 318
#
# _framework density 17.087205000000001
#
# number of rings (size 3 to 8) (size 9 to 14) (size 15 to 20)
#    0.000    1.931    2.069    3.103    0.966    4.414 
#    0.000    0.000    0.000    0.000    0.000    0.000 
#    0.000    0.552    0.000    6.345    0.000    1.931 
#
# Total GULP energy -323570.456383 kJ/mol
# GULP energy per Si atom -5578.800972 kJ/mol
# Density = 1.704831 g / cm^3
# Si number density = 17.087205 Si / 1000 Ang^3
#
#
#
# Elastic Constant Matrix: (Units=GPa)
#
#
# Indices 1 2 3 4 5 6 
#
# 1 37.7298 43.7469 27.8548 0.0000 0.0000 0.0000
# 2 43.7469 124.6474 57.8969 0.0000 0.0000 0.0000
# 3 27.8548 57.8969 65.5384 0.0000 0.0000 0.0000
# 4 0.0000 0.0000 0.0000 13.2447 0.0000 0.0000
# 5 0.0000 0.0000 0.0000 0.0000 12.0028 0.0000
# 6 0.0000 0.0000 0.0000 0.0000 0.0000 22.9673
#
#
#
# Elastic Compliance Matrix: (Units=1/GPa)
#
#
# Indices 1 2 3 4 5 6 
#
# 1 0.047831 -0.012455 -0.009326 0.000000 0.000000 0.000000
# 2 -0.012455 0.016849 -0.009590 0.000000 0.000000 0.000000
# 3 -0.009326 -0.009590 0.027694 0.000000 0.000000 0.000000
# 4 0.000000 0.000000 0.000000 0.075502 0.000000 0.000000
# 5 0.000000 0.000000 0.000000 0.000000 0.083314 0.000000
# 6 0.000000 0.000000 0.000000 0.000000 0.000000 0.043540
#
#
# Mechanical properties :
#
#
# Convention : Reuss Voigt Hill
#
# Bulk Modulus (GPa) = 33.74903 54.10141 43.92522
# Shear Modulus (GPa) = 13.61104 16.20411 14.90758
#
# Velocity S-wave (km/s) = 2.82541 3.08282 2.95692
# Velocity P-wave (km/s) = 5.51705 6.66351 6.11720
#
# Compressibility (1/GPa) = 0.02963048
#
# Stress axis : x y z
#
# Youngs Moduli (GPa) = 20.90708 59.35208 36.10879
#
# Poissons Ratio (x) = 0.73924 0.33674
# Poissons Ratio (y) = 0.26040 0.34630
# Poissons Ratio (z) = 0.19497 0.56922
#
# Static dielectric constant tensor:
#      x y z
#    x 1.592220 0.000000 0.000000 
#    y 0.000000 1.615400 0.000000 
#    z 0.000000 0.000000 1.547700 
# 
# From -- ./inp_files/9402.got.cif
#   From: 2010.05.17/outbox.cif.g08.bks.cpg/sg72_5_cif.got.tgz:9402.got - 2010.06.03 17:03:01.
