data_PCOD9526048
_publ_section_title
;
Structure prediction by ZEFSAII (Michael W. Deem and Ramdas Pophale) SiO2 
 PCOD9526048
Probable space group: I B A M
;
_chemical_formula_sum "Si O2"
_cell_formula_units_Z 64
_cell_length_a 12.486451
_cell_length_b 11.536479
_cell_length_c 18.148458
_cell_angle_alpha 90.000000
_cell_angle_beta 90.000000
_cell_angle_gamma 90.000000
_cell_volume 2614.279563
_symmetry_space_group_name_H-M "I B A M"
_symmetry_group_IT_number 72
_symmetry_cell_setting 'orthorhombic'
loop_
_space_group_symop_operation_xyz
x,y,z
-x,-y,z
x,-y,1/2-z
-x,y,1/2-z
-x,-y,-z
x,y,-z
-x,y,1/2+z
x,-y,1/2+z
1/2+x,1/2+y,1/2+z
1/2-x,1/2-y,1/2+z
1/2+x,1/2-y,-z
1/2-x,1/2+y,-z
1/2-x,1/2-y,1/2-z
1/2+x,1/2+y,1/2-z
1/2-x,1/2+y,z
1/2+x,1/2-y,z
loop_
_atom_site_type_symbol
_atom_site_label
_atom_site_fract_x
_atom_site_fract_y
_atom_site_fract_z
Si Si1 0.102767 0.198175 0.704056
Si Si2 0.451201 0.342701 0.582913
Si Si3 0.745135 0.589747 0.331223
Si Si4 0.109140 0.427328 0.915923
O O1 0.171822 0.302697 0.671364
O O2 0.173218 0.119574 0.758916
O O3 0.000000 0.243708 0.750000
O O4 0.046885 0.128461 0.638425
O O5 0.484776 0.362972 0.500000
O O6 0.339854 0.401125 0.603285
O O7 0.422775 0.206219 0.592813
O O8 0.814684 0.476357 0.351372
O O9 0.000000 0.500000 0.912586
O O10 0.153002 0.441580 0.000000
#
# Coordination Sequence:
#
# PCOD9526048 Si02
#       4
#    16  16  16  16
#     4   9  19  35  54  83 122 164 207 258 314 388
#     4  10  20  34  58  91 125 168 215 269 326 381
#     4  10  19  35  57  84 128 168 207 261 324 386
#     4  10  19  33  57  92 125 160 214 267 316 381
#
# _framework density 24.480931000000002
#
# number of rings (size 3 to 8) (size 9 to 14) (size 15 to 20)
#    0.000    2.250    2.500    0.750    0.000    1.000 
#    0.000   15.000    0.000   10.500    0.000   15.750 
#    0.000    1.000    0.000    0.000    0.000    0.000 
#
# Total GULP energy -179039.690755 kJ/mol
# GULP energy per Si atom -5594.990336 kJ/mol
# Density = 2.442521 g / cm^3
# Si number density = 24.480931 Si / 1000 Ang^3
#
#
#
# Elastic Constant Matrix: (Units=GPa)
#
#
# Indices 1 2 3 4 5 6 
#
# 1 117.6814 26.6229 52.2469 0.0000 0.0000 0.0000
# 2 26.6229 107.1597 -12.8827 0.0000 0.0000 0.0000
# 3 52.2469 -12.8827 132.5388 0.0000 0.0000 0.0000
# 4 0.0000 0.0000 0.0000 18.9034 0.0000 0.0000
# 5 0.0000 0.0000 0.0000 0.0000 43.3935 0.0000
# 6 0.0000 0.0000 0.0000 0.0000 0.0000 27.7091
#
#
#
# Elastic Compliance Matrix: (Units=1/GPa)
#
#
# Indices 1 2 3 4 5 6 
#
# 1 0.011416 -0.003417 -0.004832 0.000000 0.000000 0.000000
# 2 -0.003417 0.010465 0.002364 0.000000 0.000000 0.000000
# 3 -0.004832 0.002364 0.009680 0.000000 0.000000 0.000000
# 4 0.000000 0.000000 0.000000 0.052900 0.000000 0.000000
# 5 0.000000 0.000000 0.000000 0.000000 0.023045 0.000000
# 6 0.000000 0.000000 0.000000 0.000000 0.000000 0.036089
#
#
# Mechanical properties :
#
#
# Convention : Reuss Voigt Hill
#
# Bulk Modulus (GPa) = 50.52998 54.37268 52.45133
# Shear Modulus (GPa) = 30.87134 37.42740 34.14937
#
# Velocity S-wave (km/s) = 3.55496 3.91428 3.73894
# Velocity P-wave (km/s) = 6.12664 6.53354 6.33336
#
# Compressibility (1/GPa) = 0.01979023
#
# Stress axis : x y z
#
# Youngs Moduli (GPa) = 87.59643 95.55612 103.30923
#
# Poissons Ratio (x) = 0.32653 0.49923
# Poissons Ratio (y) = 0.29933 -0.24425
# Poissons Ratio (z) = 0.42330 -0.22592
#
# Static dielectric constant tensor:
#      x y z
#    x 1.896260 0.000000 0.000000 
#    y 0.000000 1.971010 0.000000 
#    z 0.000000 0.000000 1.996040 
# 
# From -- ./inp_files/28780.got.cif
#   From: 2010.05.17/outbox.cif.g08.bks.cpg/sg72_15_cif.got.tgz:28780.got - 2010.06.03 17:03:01.
