data_PCOD9526309
_publ_section_title
;
Structure prediction by ZEFSAII (Michael W. Deem and Ramdas Pophale) SiO2 
 PCOD9526309
Probable space group: I B A M
;
_chemical_formula_sum "Si O2"
_cell_formula_units_Z 104
_cell_length_a 9.152799
_cell_length_b 21.737867
_cell_length_c 27.537993
_cell_angle_alpha 90.000000
_cell_angle_beta 90.000000
_cell_angle_gamma 90.000000
_cell_volume 5479.023178
_symmetry_space_group_name_H-M "I B A M"
_symmetry_group_IT_number 72
_symmetry_cell_setting 'orthorhombic'
loop_
_space_group_symop_operation_xyz
x,y,z
-x,-y,z
x,-y,1/2-z
-x,y,1/2-z
-x,-y,-z
x,y,-z
-x,y,1/2+z
x,-y,1/2+z
1/2+x,1/2+y,1/2+z
1/2-x,1/2-y,1/2+z
1/2+x,1/2-y,-z
1/2-x,1/2+y,-z
1/2-x,1/2-y,1/2-z
1/2+x,1/2+y,1/2-z
1/2-x,1/2+y,z
1/2+x,1/2-y,z
loop_
_atom_site_type_symbol
_atom_site_label
_atom_site_fract_x
_atom_site_fract_y
_atom_site_fract_z
Si Si1 0.059989 0.560858 0.616996
Si Si2 0.338946 0.822999 0.943086
Si Si3 0.496703 0.350126 0.304628
Si Si4 0.416861 0.737973 0.605868
Si Si5 0.500000 0.145868 0.750000
Si Si6 0.751399 0.445636 0.710521
Si Si7 0.172978 0.652084 0.837285
O O1 0.133316 0.611703 0.583003
O O2 0.170458 0.538437 0.659472
O O3 0.000000 0.500000 0.591363
O O4 0.923652 0.596619 0.641905
O O5 0.446412 0.773446 0.917509
O O6 0.174356 0.801626 0.932342
O O7 0.369478 0.826186 0.000000
O O8 0.500000 0.322391 0.250000
O O9 0.549310 0.305453 0.347820
O O10 0.602019 0.409466 0.300533
O O11 0.330044 0.366866 0.317548
O O12 0.314281 0.793968 0.623992
O O13 0.632274 0.102969 0.767654
O O14 0.570332 0.180619 0.705145
O O15 0.735901 0.500000 0.750000
#
# Coordination Sequence:
#
# PCOD9526309 Si02
#       7
#    16  16  16  16   8  16  16
#     4  10  22  41  63  89 126 169 211 274 317 383
#     4  11  23  43  71  96 121 164 217 277 344 388
#     4  12  24  37  56  94 131 173 212 252 308 386
#     4  11  23  42  62  94 132 161 209 277 327 387
#     4  10  19  36  52  82 112 168 215 250 286 362
#     4  11  21  37  56  84 127 174 217 249 304 370
#     4  10  22  38  58  86 129 169 210 257 313 372
#
# _framework density 18.981484999999999
#
# number of rings (size 3 to 8) (size 9 to 14) (size 15 to 20)
#    0.000    1.231    4.615    2.538    1.077    1.231 
#    0.000    0.000    0.000    0.000    0.000    1.077 
#    0.000    0.000    0.000    0.000    0.000    0.000 
#
# Total GULP energy -290162.884866 kJ/mol
# GULP energy per Si atom -5580.055478 kJ/mol
# Density = 1.893828 g / cm^3
# Si number density = 18.981485 Si / 1000 Ang^3
#
#
#
# Elastic Constant Matrix: (Units=GPa)
#
#
# Indices 1 2 3 4 5 6 
#
# 1 93.6173 37.4959 21.2312 0.0000 0.0000 0.0000
# 2 37.4959 102.9597 48.1508 0.0000 0.0000 0.0000
# 3 21.2312 48.1508 98.0330 0.0000 0.0000 0.0000
# 4 0.0000 0.0000 0.0000 14.0844 0.0000 0.0000
# 5 0.0000 0.0000 0.0000 0.0000 21.2413 0.0000
# 6 0.0000 0.0000 0.0000 0.0000 0.0000 -4.3635
#
#
#
# Elastic Compliance Matrix: (Units=1/GPa)
#
#
# Indices 1 2 3 4 5 6 
#
# 1 0.012534 -0.004278 -0.000613 0.000000 0.000000 0.000000
# 2 -0.004278 0.014069 -0.005984 0.000000 0.000000 0.000000
# 3 -0.000613 -0.005984 0.013273 0.000000 0.000000 0.000000
# 4 0.000000 0.000000 0.000000 0.071001 0.000000 0.000000
# 5 0.000000 0.000000 0.000000 0.000000 0.047078 0.000000
# 6 0.000000 0.000000 0.000000 0.000000 0.000000 -0.229175
#
#
# Mechanical properties :
#
#
# Convention : Reuss Voigt Hill
#
# Bulk Modulus (GPa) = 55.17046 56.48508 55.82777
# Shear Modulus (GPa) = -115.13037 18.70791 -48.21123
#
# Velocity S-wave (km/s) = -7.79652 3.14281 -5.04522
# Velocity P-wave (km/s) = 7.20549 6.55685 2.11268
#
# Compressibility (1/GPa) = 0.01812564
#
# Stress axis : x y z
#
# Youngs Moduli (GPa) = 79.78119 71.07910 75.34360
#
# Poissons Ratio (x) = 0.30407 0.04622
# Poissons Ratio (y) = 0.34129 0.45084
# Poissons Ratio (z) = 0.04894 0.42532
#
# Static dielectric constant tensor:
#      x y z
#    x 1.677130 0.000000 0.000000 
#    y 0.000000 1.665030 0.000000 
#    z 0.000000 0.000000 1.682570 
# 
# From -- ./inp_files/47399.got.cif
#   From: 2010.05.17/outbox.cif.g08.bks.cpg/sg72_24_cif.got.tgz:47399.got - 2010.06.03 17:03:01.
