data_PCOD9526642
_publ_section_title
;
Structure prediction by ZEFSAII (Michael W. Deem and Ramdas Pophale) SiO2 
 PCOD9526642
Probable space group: I B A M
;
_chemical_formula_sum "Si O2"
_cell_formula_units_Z 60
_cell_length_a 23.815816
_cell_length_b 5.564746
_cell_length_c 18.150587
_cell_angle_alpha 90.000000
_cell_angle_beta 90.000000
_cell_angle_gamma 90.000000
_cell_volume 2405.478542
_symmetry_space_group_name_H-M "I B A M"
_symmetry_group_IT_number 72
_symmetry_cell_setting 'orthorhombic'
loop_
_space_group_symop_operation_xyz
x,y,z
-x,-y,z
x,-y,1/2-z
-x,y,1/2-z
-x,-y,-z
x,y,-z
-x,y,1/2+z
x,-y,1/2+z
1/2+x,1/2+y,1/2+z
1/2-x,1/2-y,1/2+z
1/2+x,1/2-y,-z
1/2-x,1/2+y,-z
1/2-x,1/2-y,1/2-z
1/2+x,1/2+y,1/2-z
1/2-x,1/2+y,z
1/2+x,1/2-y,z
loop_
_atom_site_type_symbol
_atom_site_label
_atom_site_fract_x
_atom_site_fract_y
_atom_site_fract_z
Si Si1 0.335514 0.751228 0.758829
Si Si2 0.000000 0.000000 0.750000
Si Si3 0.426603 0.725788 0.124748
Si Si4 0.786609 0.710301 0.500000
Si Si5 0.392882 0.225102 0.895479
O O1 0.306384 0.500000 0.750000
O O2 0.364851 0.745518 0.837761
O O3 0.382373 0.757723 0.693053
O O4 0.305206 0.000000 0.750000
O O5 0.967912 0.175106 0.692766
O O6 0.423324 0.473134 0.082392
O O7 0.429498 0.987388 0.088470
O O8 0.750135 0.460054 0.500000
O O9 0.831225 0.711745 0.432196
#
# Coordination Sequence:
#
# PCOD9526642 Si02
#       5
#    16   4  16   8  16
#     4   8  14  29  50  79 109 157 180 221 312 364
#     4  12  20  34  64 112 124 158 232 218 294 394
#     4  10  20  33  60  94 129 165 192 254 296 387
#     4  12  26  44  70  91 106 163 238 272 290 384
#     4  10  20  39  57  86 127 159 202 252 340 338
#
# _framework density 24.943059999999999
#
# number of rings (size 3 to 8) (size 9 to 14) (size 15 to 20)
#    0.000    2.133    4.000    1.600    0.000    2.133 
#    0.000    0.000    0.000   48.000    0.000    0.000 
#    0.000    0.000    0.000    0.000    0.000    0.000 
#
# Total GULP energy -167133.592985 kJ/mol
# GULP energy per Si atom -5571.119766 kJ/mol
# Density = 2.488629 g / cm^3
# Si number density = 24.943060 Si / 1000 Ang^3
#
#
#
# Elastic Constant Matrix: (Units=GPa)
#
#
# Indices 1 2 3 4 5 6 
#
# 1 82.3002 54.3667 16.5979 0.0000 0.0000 0.0000
# 2 54.3667 342.9913 21.9894 0.0000 0.0000 0.0000
# 3 16.5979 21.9894 99.1155 0.0000 0.0000 0.0000
# 4 0.0000 0.0000 0.0000 1.5588 0.0000 0.0000
# 5 0.0000 0.0000 0.0000 0.0000 46.4895 0.0000
# 6 0.0000 0.0000 0.0000 0.0000 0.0000 39.3096
#
#
#
# Elastic Compliance Matrix: (Units=1/GPa)
#
#
# Indices 1 2 3 4 5 6 
#
# 1 0.013904 -0.002084 -0.001866 0.000000 0.000000 0.000000
# 2 -0.002084 0.003270 -0.000376 0.000000 0.000000 0.000000
# 3 -0.001866 -0.000376 0.010485 0.000000 0.000000 0.000000
# 4 0.000000 0.000000 0.000000 0.641531 0.000000 0.000000
# 5 0.000000 0.000000 0.000000 0.000000 0.021510 0.000000
# 6 0.000000 0.000000 0.000000 0.000000 0.000000 0.025439
#
#
# Mechanical properties :
#
#
# Convention : Reuss Voigt Hill
#
# Bulk Modulus (GPa) = 52.61548 78.92387 65.76968
# Shear Modulus (GPa) = 6.83875 46.23512 26.53694
#
# Velocity S-wave (km/s) = 1.65762 4.31005 3.26529
# Velocity P-wave (km/s) = 4.98032 7.51525 6.37505
#
# Compressibility (1/GPa) = 0.01900581
#
# Stress axis : x y z
#
# Youngs Moduli (GPa) = 71.92298 305.80803 95.37235
#
# Poissons Ratio (x) = 0.63737 0.17796
# Poissons Ratio (y) = 0.14990 0.03590
# Poissons Ratio (z) = 0.13420 0.11512
#
# Static dielectric constant tensor:
#      x y z
#    x 1.927240 0.000000 0.000000 
#    y 0.000000 2.161000 0.000000 
#    z 0.000000 0.000000 1.968730 
# 
# From -- ./inp_files/40969.got.cif
#   From: 2010.05.17/outbox.cif.g08.bks.cpg/sg72_21_cif.got.tgz:40969.got - 2010.06.03 17:03:01.
