data_PCOD9526474
_publ_section_title
;
Structure prediction by ZEFSAII (Michael W. Deem and Ramdas Pophale) SiO2 
 PCOD9526474
Probable space group: I B A M
;
_chemical_formula_sum "Si O2"
_cell_formula_units_Z 88
_cell_length_a 12.578162
_cell_length_b 23.192504
_cell_length_c 14.956460
_cell_angle_alpha 90.000000
_cell_angle_beta 90.000000
_cell_angle_gamma 90.000000
_cell_volume 4363.084639
_symmetry_space_group_name_H-M "I B A M"
_symmetry_group_IT_number 72
_symmetry_cell_setting 'orthorhombic'
loop_
_space_group_symop_operation_xyz
x,y,z
-x,-y,z
x,-y,1/2-z
-x,y,1/2-z
-x,-y,-z
x,y,-z
-x,y,1/2+z
x,-y,1/2+z
1/2+x,1/2+y,1/2+z
1/2-x,1/2-y,1/2+z
1/2+x,1/2-y,-z
1/2-x,1/2+y,-z
1/2-x,1/2-y,1/2-z
1/2+x,1/2+y,1/2-z
1/2-x,1/2+y,z
1/2+x,1/2-y,z
loop_
_atom_site_type_symbol
_atom_site_label
_atom_site_fract_x
_atom_site_fract_y
_atom_site_fract_z
Si Si1 0.631655 0.129378 0.646135
Si Si2 0.744105 0.812930 0.500000
Si Si3 0.105629 0.372795 0.851956
Si Si4 0.831320 0.495697 0.391838
Si Si5 0.791141 0.179043 0.500000
Si Si6 0.597188 0.467571 0.602639
Si Si7 0.964814 0.860391 0.500000
O O1 0.511820 0.147353 0.618292
O O2 0.634188 0.143999 0.751006
O O3 0.643163 0.060265 0.636309
O O4 0.723313 0.156997 0.585450
O O5 0.695409 0.848209 0.416872
O O6 0.704807 0.747881 0.500000
O O7 0.872307 0.813089 0.500000
O O8 0.099889 0.442451 0.856931
O O9 0.837729 0.493217 0.500000
O O10 0.712505 0.478828 0.359636
O O11 0.912304 0.156137 0.500000
O O12 0.500000 0.500000 0.647174
O O13 0.606574 0.492354 0.500000
O O14 0.563479 0.401985 0.584260
#
# Coordination Sequence:
#
# PCOD9526474 Si02
#       7
#    16   8  16  16   8  16   8
#     4  11  25  40  66  99 136 163 221 265 329 384
#     4  12  25  44  71  87 126 172 229 262 342 379
#     4  11  23  44  64  97 135 175 205 273 323 401
#     4  11  18  34  64 101 130 168 208 257 324 399
#     4  12  27  42  70  97 120 174 225 279 317 384
#     4   8  14  27  55  86 121 162 197 241 312 378
#     4  10  19  40  61  93 125 162 209 279 317 380
#
# _framework density 20.169217
#
# number of rings (size 3 to 8) (size 9 to 14) (size 15 to 20)
#    0.545    0.909    3.636    2.727    2.545    2.909 
#    0.000    0.909    0.000    1.091    0.000    0.000 
#    0.000    0.000    0.000    0.000    0.000    0.000 
#
# Total GULP energy -245412.913225 kJ/mol
# GULP energy per Si atom -5577.566210 kJ/mol
# Density = 2.012331 g / cm^3
# Si number density = 20.169217 Si / 1000 Ang^3
#
#
#
# Elastic Constant Matrix: (Units=GPa)
#
#
# Indices 1 2 3 4 5 6 
#
# 1 151.2251 23.0759 30.4755 0.0000 0.0000 0.0000
# 2 23.0759 77.0465 8.9810 0.0001 0.0000 0.0000
# 3 30.4755 8.9810 82.1531 0.0001 -0.0001 0.0000
# 4 0.0000 0.0001 0.0001 -11.2484 -0.0001 0.0000
# 5 0.0000 0.0000 -0.0001 -0.0001 -34.9275 0.0000
# 6 0.0000 0.0000 0.0000 0.0000 0.0000 23.6148
#
#
#
# Elastic Compliance Matrix: (Units=1/GPa)
#
#
# Indices 1 2 3 4 5 6 
#
# 1 0.007419 -0.001926 -0.002542 0.000000 0.000000 0.000000
# 2 -0.001926 0.013647 -0.000777 0.000000 0.000000 0.000000
# 3 -0.002542 -0.000777 0.013200 0.000000 0.000000 0.000000
# 4 0.000000 0.000000 0.000000 -0.088902 0.000000 0.000000
# 5 0.000000 0.000000 0.000000 0.000000 -0.028631 0.000000
# 6 0.000000 0.000000 0.000000 0.000000 0.000000 0.042346
#
#
# Mechanical properties :
#
#
# Convention : Reuss Voigt Hill
#
# Bulk Modulus (GPa) = 42.05916 48.38773 45.22344
# Shear Modulus (GPa) = -222.16251 12.01393 -105.07429
#
# Velocity S-wave (km/s) = -10.50659 2.44326 -7.22561
# Velocity P-wave (km/s) = 11.23771 5.65706 6.86600
#
# Compressibility (1/GPa) = 0.02377604
#
# Stress axis : x y z
#
# Youngs Moduli (GPa) = 134.79478 73.27852 75.75650
#
# Poissons Ratio (x) = 0.14111 0.19254
# Poissons Ratio (y) = 0.25957 0.05890
# Poissons Ratio (z) = 0.34258 0.05697
#
# Static dielectric constant tensor:
#      x y z
#    x 1.779640 0.000000 0.000000 
#    y 0.000000 1.689650 0.000000 
#    z 0.000000 0.000000 1.739980 
# 
# From -- ./inp_files/20362.got.cif
#   From: 2010.05.17/outbox.cif.g08.bks.cpg/sg72_11_cif.got.tgz:20362.got - 2010.06.03 17:03:01.
