data_PCOD9526533
_publ_section_title
;
Structure prediction by ZEFSAII (Michael W. Deem and Ramdas Pophale) SiO2 
 PCOD9526533
Probable space group: I B A M
;
_chemical_formula_sum "Si O2"
_cell_formula_units_Z 64
_cell_length_a 14.773906
_cell_length_b 12.158651
_cell_length_c 17.660483
_cell_angle_alpha 90.000000
_cell_angle_beta 90.000000
_cell_angle_gamma 90.000000
_cell_volume 3172.366106
_symmetry_space_group_name_H-M "I B A M"
_symmetry_group_IT_number 72
_symmetry_cell_setting 'orthorhombic'
loop_
_space_group_symop_operation_xyz
x,y,z
-x,-y,z
x,-y,1/2-z
-x,y,1/2-z
-x,-y,-z
x,y,-z
-x,y,1/2+z
x,-y,1/2+z
1/2+x,1/2+y,1/2+z
1/2-x,1/2-y,1/2+z
1/2+x,1/2-y,-z
1/2-x,1/2+y,-z
1/2-x,1/2-y,1/2-z
1/2+x,1/2+y,1/2-z
1/2-x,1/2+y,z
1/2+x,1/2-y,z
loop_
_atom_site_type_symbol
_atom_site_label
_atom_site_fract_x
_atom_site_fract_y
_atom_site_fract_z
Si Si1 0.215260 0.238411 0.587764
Si Si2 0.836671 0.431807 0.182769
Si Si3 0.089682 0.625817 0.588108
Si Si4 0.550163 0.267693 0.318231
O O1 0.189902 0.249982 0.500000
O O2 0.223589 0.358767 0.626654
O O3 0.309328 0.176325 0.593042
O O4 0.133222 0.181279 0.634446
O O5 0.791586 0.500000 0.250000
O O6 0.899246 0.512039 0.133420
O O7 0.899871 0.338061 0.220442
O O8 0.068177 0.606843 0.500000
O O9 0.019556 0.712818 0.623129
O O10 0.500000 0.328907 0.250000
#
# Coordination Sequence:
#
# PCOD9526533 Si02
#       4
#    16  16  16  16
#     4   9  21  34  47  77 108 131 172 213 248 305
#     4  10  20  32  51  77 107 131 167 211 256 304
#     4  11  20  32  53  75 101 142 171 207 262 297
#     4  10  20  32  51  77 107 131 167 211 256 304
#
# _framework density 20.174216000000001
#
# number of rings (size 3 to 8) (size 9 to 14) (size 15 to 20)
#    1.500    0.500    2.500    2.250    0.000    5.000 
#    0.000    0.000    0.000    1.500    0.000   10.500 
#    0.000    0.000    0.000    0.000    0.000    0.000 
#
# Total GULP energy -178154.864100 kJ/mol
# GULP energy per Si atom -5567.339503 kJ/mol
# Density = 2.012830 g / cm^3
# Si number density = 20.174216 Si / 1000 Ang^3
#
#
#
# Elastic Constant Matrix: (Units=GPa)
#
#
# Indices 1 2 3 4 5 6 
#
# 1 64.4569 6.0464 14.0812 0.0000 0.0000 0.0000
# 2 6.0464 11.2760 6.2456 0.0000 0.0000 0.0000
# 3 14.0812 6.2456 87.8469 0.0000 0.0000 0.0000
# 4 0.0000 0.0000 0.0000 20.7639 0.0000 0.0000
# 5 0.0000 0.0000 0.0000 0.0000 20.9935 0.0000
# 6 0.0000 0.0000 0.0000 0.0000 0.0000 16.6698
#
#
#
# Elastic Compliance Matrix: (Units=1/GPa)
#
#
# Indices 1 2 3 4 5 6 
#
# 1 0.016708 -0.007782 -0.002125 0.000000 0.000000 0.000000
# 2 -0.007782 0.095944 -0.005574 0.000000 0.000000 0.000000
# 3 -0.002125 -0.005574 0.012120 0.000000 0.000000 0.000000
# 4 0.000000 0.000000 0.000000 0.048160 0.000000 0.000000
# 5 0.000000 0.000000 0.000000 0.000000 0.047634 0.000000
# 6 0.000000 0.000000 0.000000 0.000000 0.000000 0.059989
#
#
# Mechanical properties :
#
#
# Convention : Reuss Voigt Hill
#
# Bulk Modulus (GPa) = 10.65977 24.03623 17.34800
# Shear Modulus (GPa) = 14.58625 20.83254 17.70940
#
# Velocity S-wave (km/s) = 2.69181 3.21695 2.96602
# Velocity P-wave (km/s) = 3.86736 5.07331 4.51082
#
# Compressibility (1/GPa) = 0.09381068
#
# Stress axis : x y z
#
# Youngs Moduli (GPa) = 59.84986 10.42274 82.50603
#
# Poissons Ratio (x) = 0.08111 0.17532
# Poissons Ratio (y) = 0.46577 0.45987
# Poissons Ratio (z) = 0.12718 0.05809
#
# Static dielectric constant tensor:
#      x y z
#    x 1.742100 0.000000 0.000000 
#    y 0.000000 1.708890 0.000000 
#    z 0.000000 0.000000 1.738640 
# 
# From -- ./inp_files/21376.got.cif
#   From: 2010.05.17/outbox.cif.g08.bks.cpg/sg72_11_cif.got.tgz:21376.got - 2010.06.03 17:03:01.
