data_PCOD9526993
_publ_section_title
;
Structure prediction by ZEFSAII (Michael W. Deem and Ramdas Pophale) SiO2 
 PCOD9526993
Probable space group: I B A M
;
_chemical_formula_sum "Si O2"
_cell_formula_units_Z 88
_cell_length_a 14.126735
_cell_length_b 15.442013
_cell_length_c 20.351693
_cell_angle_alpha 90.000000
_cell_angle_beta 90.000000
_cell_angle_gamma 90.000000
_cell_volume 4439.624659
_symmetry_space_group_name_H-M "I B A M"
_symmetry_group_IT_number 72
_symmetry_cell_setting 'orthorhombic'
loop_
_space_group_symop_operation_xyz
x,y,z
-x,-y,z
x,-y,1/2-z
-x,y,1/2-z
-x,-y,-z
x,y,-z
-x,y,1/2+z
x,-y,1/2+z
1/2+x,1/2+y,1/2+z
1/2-x,1/2-y,1/2+z
1/2+x,1/2-y,-z
1/2-x,1/2+y,-z
1/2-x,1/2-y,1/2-z
1/2+x,1/2+y,1/2-z
1/2-x,1/2+y,z
1/2+x,1/2-y,z
loop_
_atom_site_type_symbol
_atom_site_label
_atom_site_fract_x
_atom_site_fract_y
_atom_site_fract_z
Si Si1 0.488469 0.304145 0.426790
Si Si2 0.164245 0.774575 0.668646
Si Si3 0.500000 0.500000 0.895207
Si Si4 0.693628 0.480219 0.173373
Si Si5 0.100747 0.530808 0.826001
Si Si6 0.877055 0.263065 0.813768
O O1 0.513156 0.273351 0.500000
O O2 0.394074 0.258823 0.397545
O O3 0.478535 0.408651 0.429962
O O4 0.561539 0.284451 0.368371
O O5 0.181790 0.877158 0.668213
O O6 0.108070 0.752733 0.735784
O O7 0.268018 0.734205 0.674392
O O8 0.402788 0.481790 0.855686
O O9 0.695604 0.500000 0.250000
O O10 0.798337 0.503211 0.145644
O O11 0.099990 0.500000 0.750000
O O12 0.107187 0.634733 0.825689
O O13 0.000000 0.500000 0.854985
#
# Coordination Sequence:
#
# PCOD9526993 Si02
#       6
#    16  16   8  16  16  16
#     4  11  23  37  57  83 117 153 189 233 285 342
#     4   9  20  35  57  83 113 149 191 237 284 335
#     4  10  20  36  54  78 111 152 197 228 275 344
#     4   9  16  30  51  81 114 145 182 237 287 330
#     4   9  19  31  51  84 115 144 179 232 289 339
#     4  10  20  37  58  86 113 149 193 236 284 341
#
# _framework density 19.821494999999999
#
# number of rings (size 3 to 8) (size 9 to 14) (size 15 to 20)
#    0.000    2.364    0.000    2.182    5.091    5.091 
#    0.000    0.000    0.000    0.545    0.000    0.000 
#    0.000    0.000    0.000    0.000    0.000    0.000 
#
# Total GULP energy -244950.867740 kJ/mol
# GULP energy per Si atom -5567.065176 kJ/mol
# Density = 1.977638 g / cm^3
# Si number density = 19.821495 Si / 1000 Ang^3
#
#
#
# Elastic Constant Matrix: (Units=GPa)
#
#
# Indices 1 2 3 4 5 6 
#
# 1 143.4038 16.4658 38.9179 0.0000 0.0000 0.0000
# 2 16.4658 43.6693 18.0212 0.0000 0.0000 0.0000
# 3 38.9179 18.0212 86.8748 0.0000 0.0000 0.0000
# 4 0.0000 0.0000 0.0000 9.6275 0.0000 0.0000
# 5 0.0000 0.0000 0.0000 0.0000 15.5369 0.0000
# 6 0.0000 0.0000 0.0000 0.0000 0.0000 -104.2819
#
#
#
# Elastic Compliance Matrix: (Units=1/GPa)
#
#
# Indices 1 2 3 4 5 6 
#
# 1 0.008051 -0.001692 -0.003256 0.000000 0.000000 0.000000
# 2 -0.001692 0.025399 -0.004511 0.000000 0.000000 0.000000
# 3 -0.003256 -0.004511 0.013905 0.000000 0.000000 0.000000
# 4 0.000000 0.000000 0.000000 0.103870 0.000000 0.000000
# 5 0.000000 0.000000 0.000000 0.000000 0.064363 0.000000
# 6 0.000000 0.000000 0.000000 0.000000 0.000000 -0.009589
#
#
# Mechanical properties :
#
#
# Convention : Reuss Voigt Hill
#
# Bulk Modulus (GPa) = 35.16429 46.75084 40.95757
# Shear Modulus (GPa) = 21.33155 -2.45399 9.43878
#
# Velocity S-wave (km/s) = 3.28408 -1.11388 2.18454
# Velocity P-wave (km/s) = 5.67091 4.68858 5.20298
#
# Compressibility (1/GPa) = 0.02843794
#
# Stress axis : x y z
#
# Youngs Moduli (GPa) = 124.20554 39.37181 71.91666
#
# Poissons Ratio (x) = 0.06663 0.23414
# Poissons Ratio (y) = 0.21018 0.32439
# Poissons Ratio (z) = 0.40438 0.17759
#
# Static dielectric constant tensor:
#      x y z
#    x 1.824160 0.000000 0.000000 
#    y 0.000000 1.722960 0.000000 
#    z 0.000000 0.000000 1.662870 
# 
# From -- ./inp_files/30540.got.cif
#   From: 2010.05.17/outbox.cif.g08.bks.cpg/sg72_16_cif.got.tgz:30540.got - 2010.06.03 17:03:01.
