data_PCOD9526379
_publ_section_title
;
Structure prediction by ZEFSAII (Michael W. Deem and Ramdas Pophale) SiO2 
 PCOD9526379
Probable space group: I B A M
;
_chemical_formula_sum "Si O2"
_cell_formula_units_Z 88
_cell_length_a 18.068151
_cell_length_b 13.911059
_cell_length_c 15.683577
_cell_angle_alpha 90.000000
_cell_angle_beta 90.000000
_cell_angle_gamma 90.000000
_cell_volume 3942.021825
_symmetry_space_group_name_H-M "I B A M"
_symmetry_group_IT_number 72
_symmetry_cell_setting 'orthorhombic'
loop_
_space_group_symop_operation_xyz
x,y,z
-x,-y,z
x,-y,1/2-z
-x,y,1/2-z
-x,-y,-z
x,y,-z
-x,y,1/2+z
x,-y,1/2+z
1/2+x,1/2+y,1/2+z
1/2-x,1/2-y,1/2+z
1/2+x,1/2-y,-z
1/2-x,1/2+y,-z
1/2-x,1/2-y,1/2-z
1/2+x,1/2+y,1/2-z
1/2-x,1/2+y,z
1/2+x,1/2-y,z
loop_
_atom_site_type_symbol
_atom_site_label
_atom_site_fract_x
_atom_site_fract_y
_atom_site_fract_z
Si Si1 0.074235 0.060225 0.097188
Si Si2 0.823601 0.543147 0.500000
Si Si3 0.213326 0.746898 0.341553
Si Si4 0.223873 0.024814 0.847276
Si Si5 0.043555 0.672316 0.000000
Si Si6 0.453523 0.769819 0.835154
Si Si7 0.193257 0.766509 0.000000
O O1 0.140766 0.991446 0.129984
O O2 0.053922 0.154913 0.151050
O O3 0.093616 0.091105 0.000000
O O4 0.000000 0.000000 0.094421
O O5 0.788005 0.499603 0.414655
O O6 0.910316 0.571478 0.500000
O O7 0.793183 0.652019 0.500000
O O8 0.250000 0.750000 0.250000
O O9 0.207676 0.861131 0.357990
O O10 0.132631 0.699673 0.335163
O O11 0.266090 0.701170 0.413799
O O12 0.242913 0.000000 0.750000
O O13 0.995157 0.684824 0.915824
O O14 0.104099 0.761304 0.000000
O O15 0.500000 0.790590 0.750000
#
# Coordination Sequence:
#
# PCOD9526379 Si02
#       7
#    16   8  16  16   8  16   8
#     4  10  21  35  48  73 119 160 196 234 288 359
#     4   8  18  36  57  74 110 144 189 241 292 340
#     4  10  20  36  55  82 117 149 192 245 287 352
#     4  10  20  35  57  80 109 158 196 231 293 359
#     4  10  19  37  56  82 114 153 198 244 300 347
#     4  11  22  32  54  85 116 155 201 245 300 361
#     4   8  17  33  55  68 108 150 184 228 297 331
#
# _framework density 22.32357
#
# number of rings (size 3 to 8) (size 9 to 14) (size 15 to 20)
#    0.545    1.636    1.818    1.636    7.636    0.000 
#    0.000    0.909    0.000    0.000    0.000    3.818 
#    0.000    0.000    0.000    0.000    0.000    0.000 
#
# Total GULP energy -245215.493208 kJ/mol
# GULP energy per Si atom -5573.079391 kJ/mol
# Density = 2.227276 g / cm^3
# Si number density = 22.323570 Si / 1000 Ang^3
#
#
#
# Elastic Constant Matrix: (Units=GPa)
#
#
# Indices 1 2 3 4 5 6 
#
# 1 170.9060 3.7438 100.5335 0.0000 0.0000 0.0000
# 2 3.7438 39.4181 -12.8711 0.0000 0.0000 0.0000
# 3 100.5335 -12.8711 191.8184 0.0000 0.0000 0.0000
# 4 0.0000 0.0000 0.0000 14.9175 0.0000 0.0000
# 5 0.0000 0.0000 0.0000 0.0000 40.1940 0.0000
# 6 0.0000 0.0000 0.0000 0.0000 0.0000 18.4916
#
#
#
# Elastic Compliance Matrix: (Units=1/GPa)
#
#
# Indices 1 2 3 4 5 6 
#
# 1 0.008668 -0.002358 -0.004701 0.000000 0.000000 0.000000
# 2 -0.002358 0.026579 0.003020 0.000000 0.000000 0.000000
# 3 -0.004701 0.003020 0.007880 0.000000 0.000000 0.000000
# 4 0.000000 0.000000 0.000000 0.067035 0.000000 0.000000
# 5 0.000000 0.000000 0.000000 0.000000 0.024879 0.000000
# 6 0.000000 0.000000 0.000000 0.000000 0.000000 0.054079
#
#
# Mechanical properties :
#
#
# Convention : Reuss Voigt Hill
#
# Bulk Modulus (GPa) = 28.53338 64.99500 46.76419
# Shear Modulus (GPa) = 23.93676 35.43636 29.68656
#
# Velocity S-wave (km/s) = 3.27810 3.98854 3.65064
# Velocity P-wave (km/s) = 5.20935 7.09855 6.22602
#
# Compressibility (1/GPa) = 0.03504667
#
# Stress axis : x y z
#
# Youngs Moduli (GPa) = 115.36166 37.62368 126.90468
#
# Poissons Ratio (x) = 0.08873 0.59663
# Poissons Ratio (y) = 0.27207 -0.38319
# Poissons Ratio (z) = 0.54236 -0.11361
#
# Static dielectric constant tensor:
#      x y z
#    x 2.016450 0.000000 0.000000 
#    y 0.000000 2.108350 0.000000 
#    z 0.000000 0.000000 1.841410 
# 
# From -- ./inp_files/23240.got.cif
#   From: 2010.05.17/outbox.cif.g08.bks.cpg/sg72_12_cif.got.tgz:23240.got - 2010.06.03 17:03:01.
