data_PCOD9526952
_publ_section_title
;
Structure prediction by ZEFSAII (Michael W. Deem and Ramdas Pophale) SiO2 
 PCOD9526952
Probable space group: I B A M
;
_chemical_formula_sum "Si O2"
_cell_formula_units_Z 104
_cell_length_a 9.107994
_cell_length_b 27.840616
_cell_length_c 22.073366
_cell_angle_alpha 90.000000
_cell_angle_beta 90.000000
_cell_angle_gamma 90.000000
_cell_volume 5597.191172
_symmetry_space_group_name_H-M "I B A M"
_symmetry_group_IT_number 72
_symmetry_cell_setting 'orthorhombic'
loop_
_space_group_symop_operation_xyz
x,y,z
-x,-y,z
x,-y,1/2-z
-x,y,1/2-z
-x,-y,-z
x,y,-z
-x,y,1/2+z
x,-y,1/2+z
1/2+x,1/2+y,1/2+z
1/2-x,1/2-y,1/2+z
1/2+x,1/2-y,-z
1/2-x,1/2+y,-z
1/2-x,1/2-y,1/2-z
1/2+x,1/2+y,1/2-z
1/2-x,1/2+y,z
1/2+x,1/2-y,z
loop_
_atom_site_type_symbol
_atom_site_label
_atom_site_fract_x
_atom_site_fract_y
_atom_site_fract_z
Si Si1 0.142270 0.194756 0.166154
Si Si2 0.128685 0.462033 0.930419
Si Si3 0.868422 0.351271 0.569265
Si Si4 0.500000 0.616827 0.750000
Si Si5 0.017056 0.134266 0.430266
Si Si6 0.484994 0.795648 0.681361
Si Si7 0.413248 0.547957 0.647997
O O1 0.313337 0.206011 0.166015
O O2 0.105648 0.152174 0.213036
O O3 0.079704 0.173559 0.103704
O O4 0.054814 0.242666 0.183010
O O5 0.077781 0.406556 0.927520
O O6 0.259674 0.465853 0.882544
O O7 0.000000 0.500000 0.919610
O O8 0.183141 0.469040 0.000000
O O9 0.900004 0.333558 0.500000
O O10 0.690790 0.353142 0.575807
O O11 0.935039 0.323105 0.626083
O O12 0.406399 0.582803 0.705838
O O13 0.979721 0.132098 0.500000
O O14 0.001721 0.081836 0.400206
O O15 0.500000 0.816223 0.750000
O O16 0.500000 0.500000 0.662988
#
# Coordination Sequence:
#
# PCOD9526952 Si02
#       7
#    16  16  16   8  16  16  16
#     4  11  24  40  61  87 115 157 197 250 299 355
#     4   9  19  36  62  90 121 157 194 242 297 350
#     4   9  20  40  62  89 123 161 198 249 303 354
#     4  10  23  40  60  78 116 158 203 246 294 358
#     4   9  20  39  63  88 120 157 199 247 300 352
#     4  12  25  38  64  90 118 156 204 248 300 361
#     4  10  20  35  60  86 118 156 198 242 295 346
#
# _framework density 18.580749999999998
#
# number of rings (size 3 to 8) (size 9 to 14) (size 15 to 20)
#    0.000    2.000    0.769    3.000    6.462    4.923 
#    0.000    1.538    0.000    0.000    0.000    0.000 
#    0.000    0.000    0.000    0.000    0.000    0.000 
#
# Total GULP energy -290100.914091 kJ/mol
# GULP energy per Si atom -5578.863733 kJ/mol
# Density = 1.853846 g / cm^3
# Si number density = 18.580750 Si / 1000 Ang^3
#
#
#
# Elastic Constant Matrix: (Units=GPa)
#
#
# Indices 1 2 3 4 5 6 
#
# 1 59.9558 46.1714 29.4392 0.0000 0.0000 0.0000
# 2 46.1714 94.1370 60.5710 0.0000 0.0000 0.0000
# 3 29.4392 60.5710 122.8319 0.0000 0.0000 0.0000
# 4 0.0000 0.0000 0.0000 9.4887 0.0000 0.0000
# 5 0.0000 0.0000 0.0000 0.0000 17.8866 0.0000
# 6 0.0000 0.0000 0.0000 0.0000 0.0000 14.3176
#
#
#
# Elastic Compliance Matrix: (Units=1/GPa)
#
#
# Indices 1 2 3 4 5 6 
#
# 1 0.026803 -0.013201 0.000086 0.000000 0.000000 0.000000
# 2 -0.013201 0.022062 -0.007715 0.000000 0.000000 0.000000
# 3 0.000086 -0.007715 0.011925 0.000000 0.000000 0.000000
# 4 0.000000 0.000000 0.000000 0.105389 0.000000 0.000000
# 5 0.000000 0.000000 0.000000 0.000000 0.055908 0.000000
# 6 0.000000 0.000000 0.000000 0.000000 0.000000 0.069844
#
#
# Mechanical properties :
#
#
# Convention : Reuss Voigt Hill
#
# Bulk Modulus (GPa) = 52.27708 61.03198 56.65453
# Shear Modulus (GPa) = 14.70724 17.72144 16.21434
#
# Velocity S-wave (km/s) = 2.81647 3.09164 2.95726
# Velocity P-wave (km/s) = 6.22678 6.75740 6.49751
#
# Compressibility (1/GPa) = 0.01912884
#
# Stress axis : x y z
#
# Youngs Moduli (GPa) = 37.30922 45.32685 83.85637
#
# Poissons Ratio (x) = 0.59838 -0.00721
# Poissons Ratio (y) = 0.49253 0.64697
# Poissons Ratio (z) = -0.00321 0.34971
#
# Static dielectric constant tensor:
#      x y z
#    x 1.617220 0.000000 0.000000 
#    y 0.000000 1.632900 0.000000 
#    z 0.000000 0.000000 1.674900 
# 
# From -- ./inp_files/36136.got.cif
#   From: 2010.05.17/outbox.cif.g08.bks.cpg/sg72_19_cif.got.tgz:36136.got - 2010.06.03 17:03:01.
