data_PCOD9526300
_publ_section_title
;
Structure prediction by ZEFSAII (Michael W. Deem and Ramdas Pophale) SiO2 
 PCOD9526300
Probable space group: I B A M
;
_chemical_formula_sum "Si O2"
_cell_formula_units_Z 88
_cell_length_a 12.519279
_cell_length_b 16.209850
_cell_length_c 19.255242
_cell_angle_alpha 90.000000
_cell_angle_beta 90.000000
_cell_angle_gamma 90.000000
_cell_volume 3907.574757
_symmetry_space_group_name_H-M "I B A M"
_symmetry_group_IT_number 72
_symmetry_cell_setting 'orthorhombic'
loop_
_space_group_symop_operation_xyz
x,y,z
-x,-y,z
x,-y,1/2-z
-x,y,1/2-z
-x,-y,-z
x,y,-z
-x,y,1/2+z
x,-y,1/2+z
1/2+x,1/2+y,1/2+z
1/2-x,1/2-y,1/2+z
1/2+x,1/2-y,-z
1/2-x,1/2+y,-z
1/2-x,1/2-y,1/2-z
1/2+x,1/2+y,1/2-z
1/2-x,1/2+y,z
1/2+x,1/2-y,z
loop_
_atom_site_type_symbol
_atom_site_label
_atom_site_fract_x
_atom_site_fract_y
_atom_site_fract_z
Si Si1 0.380951 0.574399 0.927777
Si Si2 0.587063 0.594887 0.870150
Si Si3 0.227122 0.706368 0.416832
Si Si4 0.698830 0.131552 0.646147
Si Si5 0.484115 0.098645 0.417500
Si Si6 0.290141 0.500000 0.250000
O O1 0.460446 0.610175 0.869121
O O2 0.399657 0.477560 0.926061
O O3 0.255454 0.581283 0.915934
O O4 0.411410 0.614641 0.000000
O O5 0.659680 0.666521 0.898097
O O6 0.635486 0.552176 0.802124
O O7 0.223438 0.726709 0.500000
O O8 0.232036 0.784811 0.364549
O O9 0.131249 0.640913 0.402801
O O10 0.575459 0.142190 0.628559
O O11 0.721379 0.070696 0.710672
O O12 0.503065 0.111264 0.500000
O O13 0.500000 0.000000 0.404145
#
# Coordination Sequence:
#
# PCOD9526300 Si02
#       6
#    16  16  16  16  16   8
#     4  10  19  35  63  95 124 168 219 276 340 395
#     4  10  21  37  61  90 128 172 221 272 329 408
#     4  11  23  39  66 102 136 169 221 295 364 404
#     4  11  24  40  64  95 134 175 223 282 338 414
#     4  10  21  40  66  96 134 179 226 279 350 421
#     4  10  24  45  65  88 130 186 235 265 332 426
#
# _framework density 22.520363
#
# number of rings (size 3 to 8) (size 9 to 14) (size 15 to 20)
#    0.000    1.636    0.000    6.000    2.545    8.000 
#    0.000    4.091    4.000    0.000    0.000    0.000 
#    0.000    0.000    0.000    0.000    0.000    0.000 
#
# Total GULP energy -244937.509634 kJ/mol
# GULP energy per Si atom -5566.761583 kJ/mol
# Density = 2.246911 g / cm^3
# Si number density = 22.520363 Si / 1000 Ang^3
#
#
#
# Elastic Constant Matrix: (Units=GPa)
#
#
# Indices 1 2 3 4 5 6 
#
# 1 81.0654 31.7319 22.4520 0.0000 0.0000 0.0000
# 2 31.7319 111.5716 26.0095 0.0000 0.0000 0.0000
# 3 22.4520 26.0095 82.3762 0.0000 0.0000 0.0000
# 4 0.0000 0.0000 0.0000 -5.6275 0.0000 0.0000
# 5 0.0000 0.0000 0.0000 0.0000 371.7930 0.0000
# 6 0.0000 0.0000 0.0000 0.0000 0.0000 43.4688
#
#
#
# Elastic Compliance Matrix: (Units=1/GPa)
#
#
# Indices 1 2 3 4 5 6 
#
# 1 0.014478 -0.003452 -0.002856 0.000000 0.000000 0.000000
# 2 -0.003452 0.010498 -0.002374 0.000000 0.000000 0.000000
# 3 -0.002856 -0.002374 0.013667 0.000000 0.000000 0.000000
# 4 0.000000 0.000000 0.000000 -0.177700 0.000000 0.000000
# 5 0.000000 0.000000 0.000000 0.000000 0.002690 0.000000
# 6 0.000000 0.000000 0.000000 0.000000 0.000000 0.023005
#
#
# Mechanical properties :
#
#
# Convention : Reuss Voigt Hill
#
# Bulk Modulus (GPa) = 46.99314 48.37779 47.68547
# Shear Modulus (GPa) = -56.23942 94.91486 19.33772
#
# Velocity S-wave (km/s) = -5.00269 6.49906 2.93350
# Velocity P-wave (km/s) = 3.52944 8.82300 5.71789
#
# Compressibility (1/GPa) = 0.02127970
#
# Stress axis : x y z
#
# Youngs Moduli (GPa) = 69.07071 95.25657 73.16682
#
# Poissons Ratio (x) = 0.32881 0.20898
# Poissons Ratio (y) = 0.23842 0.17369
# Poissons Ratio (z) = 0.19728 0.22612
#
# Static dielectric constant tensor:
#      x y z
#    x 1.984840 0.000000 0.000000 
#    y 0.000000 2.026460 0.000000 
#    z 0.000000 0.000000 1.840430 
# 
# From -- ./inp_files/36895.got.cif
#   From: 2010.05.17/outbox.cif.g08.bks.cpg/sg72_19_cif.got.tgz:36895.got - 2010.06.03 17:03:01.
