data_PCOD9526531
_publ_section_title
;
Structure prediction by ZEFSAII (Michael W. Deem and Ramdas Pophale) SiO2 
 PCOD9526531
Probable space group: I B A M
;
_chemical_formula_sum "Si O2"
_cell_formula_units_Z 112
_cell_length_a 14.527239
_cell_length_b 30.112238
_cell_length_c 14.668208
_cell_angle_alpha 90.000000
_cell_angle_beta 90.000000
_cell_angle_gamma 90.000000
_cell_volume 6416.573534
_symmetry_space_group_name_H-M "I B A M"
_symmetry_group_IT_number 72
_symmetry_cell_setting 'orthorhombic'
loop_
_space_group_symop_operation_xyz
x,y,z
-x,-y,z
x,-y,1/2-z
-x,y,1/2-z
-x,-y,-z
x,y,-z
-x,y,1/2+z
x,-y,1/2+z
1/2+x,1/2+y,1/2+z
1/2-x,1/2-y,1/2+z
1/2+x,1/2-y,-z
1/2-x,1/2+y,-z
1/2-x,1/2-y,1/2-z
1/2+x,1/2+y,1/2-z
1/2-x,1/2+y,z
1/2+x,1/2-y,z
loop_
_atom_site_type_symbol
_atom_site_label
_atom_site_fract_x
_atom_site_fract_y
_atom_site_fract_z
Si Si1 0.155903 0.451578 0.250901
Si Si2 0.998077 0.431902 0.393168
Si Si3 0.225827 0.645022 0.761400
Si Si4 0.156660 0.193841 0.897696
Si Si5 0.558574 0.164282 0.602772
Si Si6 0.762792 0.214643 0.893083
Si Si7 0.975616 0.762204 0.355882
O O1 0.201656 0.500000 0.250000
O O2 0.091857 0.445587 0.341174
O O3 0.216754 0.407387 0.244764
O O4 0.084997 0.451041 0.165833
O O5 0.997600 0.443460 0.500000
O O6 0.993554 0.378218 0.384601
O O7 0.312491 0.657895 0.824365
O O8 0.137572 0.660460 0.821390
O O9 0.231297 0.674578 0.670937
O O10 0.207320 0.240130 0.871092
O O11 0.049020 0.204484 0.898340
O O12 0.186711 0.182184 0.000000
O O13 0.597360 0.160342 0.500000
O O14 0.511054 0.211816 0.610021
O O15 0.870621 0.224708 0.875538
O O16 0.748648 0.205402 0.000000
O O17 0.000000 0.762154 0.250000
#
# Coordination Sequence:
#
# PCOD9526531 Si02
#       7
#    16  16  16  16  16  16  16
#     4  10  22  36  53  76 105 140 183 235 280 325
#     4   9  19  33  53  78 108 144 184 224 268 321
#     4  11  21  37  53  74 107 145 184 222 273 323
#     4  11  22  35  55  80 109 147 185 219 266 323
#     4  10  20  32  50  79 113 149 183 222 259 311
#     4  11  23  38  53  79 114 145 184 229 265 318
#     4  12  22  34  54  78 115 152 186 218 263 320
#
# _framework density 17.454799000000001
#
# number of rings (size 3 to 8) (size 9 to 14) (size 15 to 20)
#    0.000    1.429    2.857    3.857    6.000    2.286 
#    0.000    0.000    0.000    0.000    0.000    2.000 
#    0.000    2.286    0.000    0.000    0.000    0.000 
#
# Total GULP energy -312876.387194 kJ/mol
# GULP energy per Si atom -5587.078343 kJ/mol
# Density = 1.741507 g / cm^3
# Si number density = 17.454799 Si / 1000 Ang^3
#
#
#
# Elastic Constant Matrix: (Units=GPa)
#
#
# Indices 1 2 3 4 5 6 
#
# 1 50.0354 16.1416 7.3870 0.0000 0.0000 0.0000
# 2 16.1416 116.8934 40.5859 -0.0001 0.0000 0.0000
# 3 7.3870 40.5859 103.1278 0.0000 -0.0001 0.0000
# 4 0.0000 -0.0001 0.0000 4.2843 0.0000 0.0000
# 5 0.0000 0.0000 -0.0001 0.0000 9.3041 0.0000
# 6 0.0000 0.0000 0.0000 0.0000 0.0000 14.9350
#
#
#
# Elastic Compliance Matrix: (Units=1/GPa)
#
#
# Indices 1 2 3 4 5 6 
#
# 1 0.020933 -0.002745 -0.000419 0.000000 0.000000 0.000000
# 2 -0.002745 0.010269 -0.003845 0.000000 0.000000 0.000000
# 3 -0.000419 -0.003845 0.011240 0.000000 0.000000 0.000000
# 4 0.000000 0.000000 0.000000 0.233409 0.000001 0.000000
# 5 0.000000 0.000000 0.000000 0.000001 0.107480 0.000000
# 6 0.000000 0.000000 0.000000 0.000000 0.000000 0.066957
#
#
# Mechanical properties :
#
#
# Convention : Reuss Voigt Hill
#
# Bulk Modulus (GPa) = 35.18137 44.25395 39.71766
# Shear Modulus (GPa) = 10.55341 19.43414 14.99378
#
# Velocity S-wave (km/s) = 2.46156 3.34038 2.93406
# Velocity P-wave (km/s) = 5.31775 6.34713 5.85511
#
# Compressibility (1/GPa) = 0.02842413
#
# Stress axis : x y z
#
# Youngs Moduli (GPa) = 47.77071 97.38285 88.96976
#
# Poissons Ratio (x) = 0.26733 0.03729
# Poissons Ratio (y) = 0.13114 0.34206
# Poissons Ratio (z) = 0.02002 0.37440
#
# Static dielectric constant tensor:
#      x y z
#    x 1.601910 0.000000 0.000000 
#    y 0.000000 1.599740 0.000000 
#    z 0.000000 0.000000 1.642080 
# 
# From -- ./inp_files/22257.got.cif
#   From: 2010.05.17/outbox.cif.g08.bks.cpg/sg72_12_cif.got.tgz:22257.got - 2010.06.03 17:03:01.
