data_PCOD9526064
_publ_section_title
;
Structure prediction by ZEFSAII (Michael W. Deem and Ramdas Pophale) SiO2 
 PCOD9526064
Probable space group: I B A M
;
_chemical_formula_sum "Si O2"
_cell_formula_units_Z 112
_cell_length_a 32.652106
_cell_length_b 11.541096
_cell_length_c 13.696198
_cell_angle_alpha 90.000000
_cell_angle_beta 90.000000
_cell_angle_gamma 90.000000
_cell_volume 5161.290182
_symmetry_space_group_name_H-M "I B A M"
_symmetry_group_IT_number 72
_symmetry_cell_setting 'orthorhombic'
loop_
_space_group_symop_operation_xyz
x,y,z
-x,-y,z
x,-y,1/2-z
-x,y,1/2-z
-x,-y,-z
x,y,-z
-x,y,1/2+z
x,-y,1/2+z
1/2+x,1/2+y,1/2+z
1/2-x,1/2-y,1/2+z
1/2+x,1/2-y,-z
1/2-x,1/2+y,-z
1/2-x,1/2-y,1/2-z
1/2+x,1/2+y,1/2-z
1/2-x,1/2+y,z
1/2+x,1/2-y,z
loop_
_atom_site_type_symbol
_atom_site_label
_atom_site_fract_x
_atom_site_fract_y
_atom_site_fract_z
Si Si1 0.096319 0.560907 0.114900
Si Si2 0.924211 0.066086 0.117476
Si Si3 0.671461 0.471791 0.616487
Si Si4 0.475692 0.209427 0.881448
Si Si5 0.205888 0.193710 0.766737
Si Si6 0.871070 0.324527 0.704716
Si Si7 0.558783 0.314938 0.882139
O O1 0.049145 0.592307 0.140386
O O2 0.121593 0.649326 0.181504
O O3 0.111631 0.435422 0.147008
O O4 0.101771 0.577814 0.000000
O O5 0.876801 0.043154 0.144462
O O6 0.947651 0.181328 0.150816
O O7 0.948931 0.949079 0.141097
O O8 0.923667 0.075879 0.000000
O O9 0.673656 0.478627 0.500000
O O10 0.695102 0.583114 0.662987
O O11 0.692090 0.358172 0.662412
O O12 0.522027 0.231233 0.848984
O O13 0.477834 0.214197 0.000000
O O14 0.250000 0.250000 0.750000
O O15 0.175927 0.293764 0.806374
O O16 0.898598 0.221015 0.664992
O O17 0.562705 0.305638 0.000000
#
# Coordination Sequence:
#
# PCOD9526064 Si02
#       7
#    16  16  16  16  16  16  16
#     4  10  23  41  61  87 124 171 220 269 319 380
#     4   9  16  32  60  91 127 169 213 262 323 387
#     4  10  22  42  69  98 130 171 210 260 336 404
#     4   9  18  33  55  90 133 173 216 269 320 373
#     4  11  25  44  66  97 132 162 211 278 337 399
#     4  11  23  41  65  88 120 169 219 268 330 393
#     4  10  19  33  59  94 131 172 219 268 323 385
#
# _framework density 21.700001
#
# number of rings (size 3 to 8) (size 9 to 14) (size 15 to 20)
#    0.000    2.000    1.429    1.714    0.000    8.000 
#    0.000    5.000    0.000    1.714    0.000    0.000 
#    0.000    0.000    0.000    0.000    0.000    0.000 
#
# Total GULP energy -312727.097213 kJ/mol
# GULP energy per Si atom -5584.412450 kJ/mol
# Density = 2.165061 g / cm^3
# Si number density = 21.700001 Si / 1000 Ang^3
#
#
#
# Elastic Constant Matrix: (Units=GPa)
#
#
# Indices 1 2 3 4 5 6 
#
# 1 143.1452 53.6118 17.4185 0.0000 0.0000 0.0000
# 2 53.6118 83.5684 21.2643 0.0000 0.0000 0.0000
# 3 17.4185 21.2643 104.5550 0.0000 0.0000 0.0000
# 4 0.0000 0.0000 0.0000 26.8942 0.0000 0.0000
# 5 0.0000 0.0000 0.0000 0.0000 25.2076 0.0000
# 6 0.0000 0.0000 0.0000 0.0000 0.0000 36.4450
#
#
#
# Elastic Compliance Matrix: (Units=1/GPa)
#
#
# Indices 1 2 3 4 5 6 
#
# 1 0.009207 -0.005818 -0.000351 0.000000 0.000000 0.000000
# 2 -0.005818 0.016295 -0.002345 0.000000 0.000000 0.000000
# 3 -0.000351 -0.002345 0.010100 0.000000 0.000000 0.000000
# 4 0.000000 0.000000 0.000000 0.037183 0.000000 0.000000
# 5 0.000000 0.000000 0.000000 0.000000 0.039671 0.000000
# 6 0.000000 0.000000 0.000000 0.000000 0.000000 0.027439
#
#
# Mechanical properties :
#
#
# Convention : Reuss Voigt Hill
#
# Bulk Modulus (GPa) = 53.83372 57.31753 55.57563
# Shear Modulus (GPa) = 30.65369 33.64098 32.14733
#
# Velocity S-wave (km/s) = 3.76255 3.94163 3.85313
# Velocity P-wave (km/s) = 6.61345 6.86922 6.74255
#
# Compressibility (1/GPa) = 0.01857572
#
# Stress axis : x y z
#
# Youngs Moduli (GPa) = 108.60761 61.36810 99.01302
#
# Poissons Ratio (x) = 0.35702 0.03473
# Poissons Ratio (y) = 0.63184 0.23217
# Poissons Ratio (z) = 0.03809 0.14390
#
# Static dielectric constant tensor:
#      x y z
#    x 1.761610 0.000000 0.000000 
#    y 0.000000 1.837300 0.000000 
#    z 0.000000 0.000000 1.847140 
# 
# From -- ./inp_files/26391.got.cif
#   From: 2010.05.17/outbox.cif.g08.bks.cpg/sg72_14_cif.got.tgz:26391.got - 2010.06.03 17:03:01.
