data_PCOD9526547
_publ_section_title
;
Structure prediction by ZEFSAII (Michael W. Deem and Ramdas Pophale) SiO2 
 PCOD9526547
Probable space group: I B A M
;
_chemical_formula_sum "Si O2"
_cell_formula_units_Z 112
_cell_length_a 15.033901
_cell_length_b 32.567151
_cell_length_c 14.114186
_cell_angle_alpha 90.000000
_cell_angle_beta 90.000000
_cell_angle_gamma 90.000000
_cell_volume 6910.465294
_symmetry_space_group_name_H-M "I B A M"
_symmetry_group_IT_number 72
_symmetry_cell_setting 'orthorhombic'
loop_
_space_group_symop_operation_xyz
x,y,z
-x,-y,z
x,-y,1/2-z
-x,y,1/2-z
-x,-y,-z
x,y,-z
-x,y,1/2+z
x,-y,1/2+z
1/2+x,1/2+y,1/2+z
1/2-x,1/2-y,1/2+z
1/2+x,1/2-y,-z
1/2-x,1/2+y,-z
1/2-x,1/2-y,1/2-z
1/2+x,1/2+y,1/2-z
1/2-x,1/2+y,z
1/2+x,1/2-y,z
loop_
_atom_site_type_symbol
_atom_site_label
_atom_site_fract_x
_atom_site_fract_y
_atom_site_fract_z
Si Si1 0.107422 0.070416 0.751793
Si Si2 0.107797 0.999508 0.105478
Si Si3 0.054928 0.208222 0.604757
Si Si4 0.810507 0.840857 0.733913
Si Si5 0.366661 0.189530 0.685904
Si Si6 0.154928 0.219466 0.888939
Si Si7 0.558880 0.193655 0.606359
O O1 0.131290 0.041441 0.662816
O O2 0.157154 0.113344 0.752158
O O3 0.000000 0.077067 0.750000
O O4 0.131382 0.041149 0.839925
O O5 0.142767 0.998806 0.000000
O O6 0.000000 0.000000 0.103845
O O7 0.079418 0.193177 0.500000
O O8 0.110761 0.183594 0.680771
O O9 0.072240 0.256928 0.609067
O O10 0.948577 0.205620 0.614818
O O11 0.721138 0.837402 0.671910
O O12 0.793848 0.815216 0.830621
O O13 0.338375 0.236918 0.664840
O O14 0.453494 0.184381 0.620144
O O15 0.397812 0.180723 0.794015
O O16 0.179643 0.223764 0.000000
O O17 0.586716 0.179961 0.500000
#
# Coordination Sequence:
#
# PCOD9526547 Si02
#       7
#    16  16  16  16  16  16  16
#     4   9  18  30  47  70  97 126 156 188 226 277
#     4   8  15  31  51  67  88 125 162 183 214 276
#     4   9  18  30  45  61  86 124 161 196 234 275
#     4  12  21  30  45  73  99 120 153 208 251 275
#     4  10  20  33  47  66  89 121 164 206 243 284
#     4  10  20  33  44  60  91 132 168 194 232 281
#     4   9  18  35  52  60  79 122 168 201 240 289
#
# _framework density 16.207303
#
# number of rings (size 3 to 8) (size 9 to 14) (size 15 to 20)
#    0.000    2.429    1.429    3.857    0.000    2.857 
#    0.000    2.857    0.000    0.000    0.000    0.000 
#    0.000    9.143    0.000   10.286    0.000    0.000 
#
# Total GULP energy -311955.394467 kJ/mol
# GULP energy per Si atom -5570.632044 kJ/mol
# Density = 1.617041 g / cm^3
# Si number density = 16.207303 Si / 1000 Ang^3
#
#
#
# Elastic Constant Matrix: (Units=GPa)
#
#
# Indices 1 2 3 4 5 6 
#
# 1 38.7782 32.8247 12.8529 0.0000 0.0000 0.0000
# 2 32.8247 62.0867 22.7995 0.0000 0.0000 0.0000
# 3 12.8529 22.7995 102.4853 0.0000 -0.0002 0.0000
# 4 0.0000 0.0000 0.0000 -2.3694 0.0000 0.0000
# 5 0.0000 0.0000 -0.0002 0.0000 4.5813 0.0000
# 6 0.0000 0.0000 0.0000 0.0000 0.0000 8.4871
#
#
#
# Elastic Compliance Matrix: (Units=1/GPa)
#
#
# Indices 1 2 3 4 5 6 
#
# 1 0.046691 -0.024540 -0.000396 0.000000 0.000000 0.000000
# 2 -0.024540 0.030437 -0.003694 0.000000 0.000000 0.000000
# 3 -0.000396 -0.003694 0.010629 0.000000 0.000001 0.000000
# 4 0.000000 0.000000 0.000000 -0.422050 0.000001 0.000001
# 5 0.000000 0.000000 0.000001 0.000001 0.218279 0.000000
# 6 0.000000 0.000000 0.000000 0.000001 0.000000 0.117825
#
#
# Mechanical properties :
#
#
# Convention : Reuss Voigt Hill
#
# Bulk Modulus (GPa) = 32.78947 37.81159 35.30053
# Shear Modulus (GPa) = 72.21590 11.13135 41.67362
#
# Velocity S-wave (km/s) = 6.68239 2.62355 5.07629
# Velocity P-wave (km/s) = 8.93389 5.70596 7.49574
#
# Compressibility (1/GPa) = 0.03049759
#
# Stress axis : x y z
#
# Youngs Moduli (GPa) = 21.41730 32.85494 94.08304
#
# Poissons Ratio (x) = 0.80625 0.03729
# Poissons Ratio (y) = 0.52557 0.34750
# Poissons Ratio (z) = 0.00849 0.12135
#
# Static dielectric constant tensor:
#      x y z
#    x 1.565270 0.000000 0.000000 
#    y 0.000000 1.497810 0.000000 
#    z 0.000000 0.000000 1.609500 
# 
# From -- ./inp_files/22446.got.cif
#   From: 2010.05.17/outbox.cif.g08.bks.cpg/sg72_12_cif.got.tgz:22446.got - 2010.06.03 17:03:01.
