data_PCOD9526354
_publ_section_title
;
Structure prediction by ZEFSAII (Michael W. Deem and Ramdas Pophale) SiO2 
 PCOD9526354
Probable space group: I B A M
;
_chemical_formula_sum "Si O2"
_cell_formula_units_Z 56
_cell_length_a 32.531618
_cell_length_b 4.937221
_cell_length_c 14.286445
_cell_angle_alpha 90.000000
_cell_angle_beta 90.000000
_cell_angle_gamma 90.000000
_cell_volume 2294.628615
_symmetry_space_group_name_H-M "I B A M"
_symmetry_group_IT_number 72
_symmetry_cell_setting 'orthorhombic'
loop_
_space_group_symop_operation_xyz
x,y,z
-x,-y,z
x,-y,1/2-z
-x,y,1/2-z
-x,-y,-z
x,y,-z
-x,y,1/2+z
x,-y,1/2+z
1/2+x,1/2+y,1/2+z
1/2-x,1/2-y,1/2+z
1/2+x,1/2-y,-z
1/2-x,1/2+y,-z
1/2-x,1/2-y,1/2-z
1/2+x,1/2+y,1/2-z
1/2-x,1/2+y,z
1/2+x,1/2-y,z
loop_
_atom_site_type_symbol
_atom_site_label
_atom_site_fract_x
_atom_site_fract_y
_atom_site_fract_z
Si Si1 0.676953 0.230096 0.189489
Si Si2 0.954530 0.931169 0.113085
Si Si3 0.776028 0.749188 0.000000
Si Si4 0.096849 0.427072 0.611961
O O1 0.670101 0.500000 0.250000
O O2 0.699430 0.311855 0.094185
O O3 0.636323 0.066192 0.156760
O O4 0.700774 0.000000 0.250000
O O5 0.941214 0.626528 0.130974
O O6 0.918737 0.135540 0.145526
O O7 0.955131 0.964555 0.000000
O O8 0.000000 0.000000 0.146411
O O9 0.764497 0.433439 0.000000
O O10 0.104249 0.416219 0.500000
#
# Coordination Sequence:
#
# PCOD9526354 Si02
#       4
#    16  16   8  16
#     4  12  26  45  72 104 140 184 232 285 348 421
#     4   9  17  29  54  91 128 173 228 279 333 396
#     4  12  28  50  76 106 141 178 226 284 355 430
#     4  10  19  36  60  89 132 178 224 278 337 398
#
# _framework density 24.404819
#
# number of rings (size 3 to 8) (size 9 to 14) (size 15 to 20)
#    0.000    1.429    1.429    4.286    0.000    6.857 
#    0.000    0.000    0.000   12.857    0.000    0.000 
#    0.000    0.000    0.000    0.000    0.000    0.000 
#
# Total GULP energy -156789.549577 kJ/mol
# GULP energy per Si atom -5599.626771 kJ/mol
# Density = 2.434927 g / cm^3
# Si number density = 24.404819 Si / 1000 Ang^3
#
#
#
# Elastic Constant Matrix: (Units=GPa)
#
#
# Indices 1 2 3 4 5 6 
#
# 1 41.9375 -6.7994 29.3757 0.0000 0.0000 0.0000
# 2 -6.7994 114.3883 33.3506 0.0000 0.0000 0.0000
# 3 29.3757 33.3506 138.1010 0.0000 0.0000 0.0000
# 4 0.0000 0.0000 0.0000 28.4499 0.0000 0.0000
# 5 0.0000 0.0000 0.0000 0.0000-1172.5717 0.0000
# 6 0.0000 0.0000 0.0000 0.0000 0.0000 14.6041
#
#
#
# Elastic Compliance Matrix: (Units=1/GPa)
#
#
# Indices 1 2 3 4 5 6 
#
# 1 0.029521 0.003857 -0.007211 0.000000 0.000000 0.000000
# 2 0.003857 0.009908 -0.003213 0.000000 0.000000 0.000000
# 3 -0.007211 -0.003213 0.009551 0.000000 0.000000 0.000000
# 4 0.000000 0.000000 0.000000 0.035150 0.000000 0.000000
# 5 0.000000 0.000000 0.000000 0.000000 -0.000853 0.000000
# 6 0.000000 0.000000 0.000000 0.000000 0.000000 0.068474
#
#
# Mechanical properties :
#
#
# Convention : Reuss Voigt Hill
#
# Bulk Modulus (GPa) = 27.89675 45.14228 36.51952
# Shear Modulus (GPa) = 28.27507 -210.00354 -90.86423
#
# Velocity S-wave (km/s) = 3.40749 -9.28638 -6.10843
# Velocity P-wave (km/s) = 5.19009 9.82064 5.89525
#
# Compressibility (1/GPa) = 0.03584647
#
# Stress axis : x y z
#
# Youngs Moduli (GPa) = 33.87366 100.92574 104.70185
#
# Poissons Ratio (x) = -0.38929 0.75501
# Poissons Ratio (y) = -0.13066 0.33643
# Poissons Ratio (z) = 0.24426 0.32430
#
# Static dielectric constant tensor:
#      x y z
#    x 1.915860 0.000000 0.000000 
#    y 0.000000 1.862840 0.000000 
#    z 0.000000 0.000000 2.036990 
# 
# From -- ./inp_files/26122.got.cif
#   From: 2010.05.17/outbox.cif.g08.bks.cpg/sg72_14_cif.got.tgz:26122.got - 2010.06.03 17:03:01.
