data_PCOD9526859
_publ_section_title
;
Structure prediction by ZEFSAII (Michael W. Deem and Ramdas Pophale) SiO2 
 PCOD9526859
Probable space group: I B A M
;
_chemical_formula_sum "Si O2"
_cell_formula_units_Z 116
_cell_length_a 26.569177
_cell_length_b 25.308235
_cell_length_c 9.333091
_cell_angle_alpha 90.000000
_cell_angle_beta 90.000000
_cell_angle_gamma 90.000000
_cell_volume 6275.747486
_symmetry_space_group_name_H-M "I B A M"
_symmetry_group_IT_number 72
_symmetry_cell_setting 'orthorhombic'
loop_
_space_group_symop_operation_xyz
x,y,z
-x,-y,z
x,-y,1/2-z
-x,y,1/2-z
-x,-y,-z
x,y,-z
-x,y,1/2+z
x,-y,1/2+z
1/2+x,1/2+y,1/2+z
1/2-x,1/2-y,1/2+z
1/2+x,1/2-y,-z
1/2-x,1/2+y,-z
1/2-x,1/2-y,1/2-z
1/2+x,1/2+y,1/2-z
1/2-x,1/2+y,z
1/2+x,1/2-y,z
loop_
_atom_site_type_symbol
_atom_site_label
_atom_site_fract_x
_atom_site_fract_y
_atom_site_fract_z
Si Si1 0.547469 0.307100 0.164105
Si Si2 0.091297 0.291986 0.332385
Si Si3 0.303471 0.745267 0.328475
Si Si4 0.652952 0.643584 0.332519
Si Si5 0.080547 0.411019 0.662855
Si Si6 0.823734 0.555259 0.168468
Si Si7 0.000000 0.500000 0.750000
Si Si8 0.787346 0.056459 0.171657
O O1 0.500000 0.327249 0.250000
O O2 0.565833 0.252361 0.235538
O O3 0.593265 0.348087 0.169054
O O4 0.534344 0.296680 0.000000
O O5 0.086052 0.277386 0.500000
O O6 0.152114 0.289141 0.303235
O O7 0.066167 0.349619 0.314229
O O8 0.296368 0.741446 0.500000
O O9 0.250000 0.750000 0.250000
O O10 0.326157 0.692400 0.259476
O O11 0.669391 0.645447 0.500000
O O12 0.672542 0.592232 0.252231
O O13 0.099979 0.414371 0.500000
O O14 0.126325 0.418531 0.771535
O O15 0.038593 0.457274 0.677940
O O16 0.821619 0.500000 0.250000
O O17 0.768952 0.581125 0.192230
O O18 0.828953 0.546516 0.000000
O O19 0.787374 0.000000 0.250000
O O20 0.795384 0.051784 0.000000
#
# Coordination Sequence:
#
# PCOD9526859 Si02
#       8
#    16  16  16  16  16  16   4  16
#     4  10  21  38  61  88 116 151 193 238 291 349
#     4   9  21  39  57  81 111 150 195 242 297 357
#     4  10  20  35  55  83 118 154 192 239 297 362
#     4  10  21  37  58  86 119 156 196 240 290 351
#     4  11  24  41  59  80 110 148 193 248 308 360
#     4  10  21  37  57  81 109 145 189 234 283 345
#     4  12  26  40  60  86 114 148 202 264 318 364
#     4  10  21  37  59  90 122 158 197 239 288 345
#
# _framework density 18.483854000000001
#
# number of rings (size 3 to 8) (size 9 to 14) (size 15 to 20)
#    0.000    1.931    0.690    2.276    2.897    4.966 
#    0.000    0.000    0.000    0.414    0.000    2.897 
#    0.000    0.000    0.000    0.000    0.000    0.000 
#
# Total GULP energy -323206.868677 kJ/mol
# GULP energy per Si atom -5572.532219 kJ/mol
# Density = 1.844178 g / cm^3
# Si number density = 18.483854 Si / 1000 Ang^3
#
#
#
# Elastic Constant Matrix: (Units=GPa)
#
#
# Indices 1 2 3 4 5 6 
#
# 1 84.3925 30.7977 58.0628 0.0000 0.0000 0.0000
# 2 30.7977 64.2231 35.1305 0.0000 0.0000 0.0000
# 3 58.0628 35.1305 118.5651 0.0000 0.0000 0.0000
# 4 0.0000 0.0000 0.0000 26.7572 0.0000 0.0000
# 5 0.0000 0.0000 0.0000 0.0000 27.2511 0.0000
# 6 0.0000 0.0000 0.0000 0.0000 0.0000 14.3423
#
#
#
# Elastic Compliance Matrix: (Units=1/GPa)
#
#
# Indices 1 2 3 4 5 6 
#
# 1 0.019039 -0.004809 -0.007899 0.000000 0.000000 0.000000
# 2 -0.004809 0.019797 -0.003511 0.000000 0.000000 0.000000
# 3 -0.007899 -0.003511 0.013342 0.000000 0.000000 0.000000
# 4 0.000000 0.000000 0.000000 0.037373 0.000000 0.000000
# 5 0.000000 0.000000 0.000000 0.000000 0.036696 0.000000
# 6 0.000000 0.000000 0.000000 0.000000 0.000000 0.069724
#
#
# Mechanical properties :
#
#
# Convention : Reuss Voigt Hill
#
# Bulk Modulus (GPa) = 50.65498 57.24030 53.94764
# Shear Modulus (GPa) = 21.27758 23.21608 22.24683
#
# Velocity S-wave (km/s) = 3.39653 3.54788 3.47303
# Velocity P-wave (km/s) = 6.54572 6.91507 6.73293
#
# Compressibility (1/GPa) = 0.01974140
#
# Stress axis : x y z
#
# Youngs Moduli (GPa) = 52.52450 50.51168 74.94898
#
# Poissons Ratio (x) = 0.24293 0.59199
# Poissons Ratio (y) = 0.25261 0.26313
# Poissons Ratio (z) = 0.41487 0.17733
#
# Static dielectric constant tensor:
#      x y z
#    x 1.685720 0.000000 0.000000 
#    y 0.000000 1.654830 0.000000 
#    z 0.000000 0.000000 1.617150 
# 
# From -- ./inp_files/7254.got.cif
#   From: 2010.05.17/outbox.cif.g08.bks.cpg/sg72_4_cif.got.tgz:7254.got - 2010.06.03 17:03:01.
