data_PCOD9526705
_publ_section_title
;
Structure prediction by ZEFSAII (Michael W. Deem and Ramdas Pophale) SiO2 
 PCOD9526705
Probable space group: I B A M
;
_chemical_formula_sum "Si O2"
_cell_formula_units_Z 112
_cell_length_a 13.915629
_cell_length_b 33.168808
_cell_length_c 14.644159
_cell_angle_alpha 90.000000
_cell_angle_beta 90.000000
_cell_angle_gamma 90.000000
_cell_volume 6759.228708
_symmetry_space_group_name_H-M "I B A M"
_symmetry_group_IT_number 72
_symmetry_cell_setting 'orthorhombic'
loop_
_space_group_symop_operation_xyz
x,y,z
-x,-y,z
x,-y,1/2-z
-x,y,1/2-z
-x,-y,-z
x,y,-z
-x,y,1/2+z
x,-y,1/2+z
1/2+x,1/2+y,1/2+z
1/2-x,1/2-y,1/2+z
1/2+x,1/2-y,-z
1/2-x,1/2+y,-z
1/2-x,1/2-y,1/2-z
1/2+x,1/2+y,1/2-z
1/2-x,1/2+y,z
1/2+x,1/2-y,z
loop_
_atom_site_type_symbol
_atom_site_label
_atom_site_fract_x
_atom_site_fract_y
_atom_site_fract_z
Si Si1 0.109216 0.911448 0.107217
Si Si2 0.112001 0.219012 0.250000
Si Si3 0.391143 0.500000 0.642007
Si Si4 0.271486 0.333346 0.610489
Si Si5 0.109215 0.911448 0.607217
Si Si6 0.728514 0.333346 0.389511
Si Si7 0.111441 0.684107 0.250000
O O1 0.150952 0.956541 0.117631
O O2 0.176877 0.875371 0.138276
O O3 0.000000 0.910616 0.146158
O O4 0.099349 0.904517 0.000000
O O5 0.164617 0.200860 0.160757
O O6 0.164617 0.200860 0.339243
O O7 0.118089 0.267203 0.250000
O O8 0.000000 0.207122 0.250000
O O9 0.500000 0.500000 0.602778
O O10 0.397791 0.500000 0.750000
O O11 0.349048 0.456541 0.617631
O O12 0.267590 0.329419 0.500000
O O13 0.323123 0.375371 0.638276
O O14 0.168836 0.330892 0.660521
O O15 0.099349 0.904517 0.500000
O O16 0.732410 0.329419 0.500000
O O17 0.831165 0.330891 0.339479
O O18 0.000000 0.672614 0.250000
#
# Coordination Sequence:
#
# PCOD9526705 Si02
#       7
#    16  16  16  16  16  16  16
#     4   9  17  29  45  69 102 134 161 192 234 288
#     4  10  21  35  52  75 106 134 160 201 250 304
#     4   9  17  25  39  67 101 136 163 184 224 286
#     4  10  20  34  54  77 100 132 171 208 247 294
#     4   9  17  29  45  69 102 134 161 192 234 288
#     4  10  20  34  54  77 100 132 171 208 247 294
#     4  10  23  39  52  71  97 130 169 215 265 300
#
# _framework density 16.569936999999999
#
# number of rings (size 3 to 8) (size 9 to 14) (size 15 to 20)
#    0.000    2.429    0.000    3.000    4.000    6.286 
#    0.000    2.857    0.000    0.000    0.000    2.000 
#    0.000    4.571    0.000    0.000    0.000    0.000 
#
# Total GULP energy -311848.228951 kJ/mol
# GULP energy per Si atom -5568.718374 kJ/mol
# Density = 1.653222 g / cm^3
# Si number density = 16.569937 Si / 1000 Ang^3
#
#
#
# Elastic Constant Matrix: (Units=GPa)
#
#
# Indices 1 2 3 4 5 6 
#
# 1 116.9010 48.8660 46.1940 -0.0003 0.0000 0.0000
# 2 48.8660 96.6474 24.1422 0.0000 0.0000 0.0000
# 3 46.1940 24.1422 119.8313 -0.0003 -0.0001 -0.0001
# 4 -0.0003 0.0000 -0.0003 24.2051 0.0000 0.0000
# 5 0.0000 0.0000 -0.0001 0.0000 13.8384 -0.0003
# 6 0.0000 0.0000 -0.0001 0.0000 -0.0003 22.5025
#
#
#
# Elastic Compliance Matrix: (Units=1/GPa)
#
#
# Indices 1 2 3 4 5 6 
#
# 1 0.012189 -0.005253 -0.003640 0.000000 0.000000 0.000000
# 2 -0.005253 0.013159 -0.000626 0.000000 0.000000 0.000000
# 3 -0.003640 -0.000626 0.009874 0.000000 0.000000 0.000000
# 4 0.000000 0.000000 0.000000 0.041314 0.000000 0.000000
# 5 0.000000 0.000000 0.000000 0.000000 0.072263 0.000001
# 6 0.000000 0.000000 0.000000 0.000000 0.000001 0.044440
#
#
# Mechanical properties :
#
#
# Convention : Reuss Voigt Hill
#
# Bulk Modulus (GPa) = 61.79251 63.53155 62.66203
# Shear Modulus (GPa) = 22.97033 26.38772 24.67902
#
# Velocity S-wave (km/s) = 3.72730 3.99495 3.86344
# Velocity P-wave (km/s) = 7.47640 7.72685 7.60266
#
# Compressibility (1/GPa) = 0.01618319
#
# Stress axis : x y z
#
# Youngs Moduli (GPa) = 82.04328 75.99095 101.27115
#
# Poissons Ratio (x) = 0.39921 0.36865
# Poissons Ratio (y) = 0.43101 0.06340
# Poissons Ratio (z) = 0.29866 0.04757
#
# Static dielectric constant tensor:
#      x y z
#    x 1.560360 0.000000 0.000000 
#    y 0.000000 1.599310 0.000000 
#    z 0.000000 0.000000 1.578680 
# 
# From -- ./inp_files/22444.got.cif
#   From: 2010.05.17/outbox.cif.g08.bks.cpg/sg72_12_cif.got.tgz:22444.got - 2010.06.03 17:03:01.
