data_PCOD9526033
_publ_section_title
;
Structure prediction by ZEFSAII (Michael W. Deem and Ramdas Pophale) SiO2 
 PCOD9526033
Probable space group: I B A M
;
_chemical_formula_sum "Si O2"
_cell_formula_units_Z 96
_cell_length_a 14.672234
_cell_length_b 19.452397
_cell_length_c 15.215430
_cell_angle_alpha 90.000000
_cell_angle_beta 90.000000
_cell_angle_gamma 90.000000
_cell_volume 4342.637712
_symmetry_space_group_name_H-M "I B A M"
_symmetry_group_IT_number 72
_symmetry_cell_setting 'orthorhombic'
loop_
_space_group_symop_operation_xyz
x,y,z
-x,-y,z
x,-y,1/2-z
-x,y,1/2-z
-x,-y,-z
x,y,-z
-x,y,1/2+z
x,-y,1/2+z
1/2+x,1/2+y,1/2+z
1/2-x,1/2-y,1/2+z
1/2+x,1/2-y,-z
1/2-x,1/2+y,-z
1/2-x,1/2-y,1/2-z
1/2+x,1/2+y,1/2-z
1/2-x,1/2+y,z
1/2+x,1/2-y,z
loop_
_atom_site_type_symbol
_atom_site_label
_atom_site_fract_x
_atom_site_fract_y
_atom_site_fract_z
Si Si1 0.355690 0.132444 0.399692
Si Si2 0.742774 0.871582 0.892371
Si Si3 0.815849 0.222429 0.140177
Si Si4 0.409171 0.627928 0.212510
Si Si5 0.603836 0.013316 0.606690
Si Si6 0.983080 0.747070 0.901035
O O1 0.386368 0.120032 0.500000
O O2 0.263872 0.176484 0.401325
O O3 0.436199 0.179381 0.359821
O O4 0.344208 0.056009 0.363294
O O5 0.733003 0.796359 0.847347
O O6 0.832965 0.906274 0.849665
O O7 0.656246 0.918041 0.866549
O O8 0.749042 0.865056 0.000000
O O9 0.856753 0.169488 0.211208
O O10 0.908294 0.249924 0.094923
O O11 0.500000 0.590444 0.250000
O O12 0.450887 0.687917 0.152461
O O13 0.603943 0.019210 0.500000
O O14 0.500000 0.000000 0.634409
O O15 0.946742 0.753144 0.000000
#
# Coordination Sequence:
#
# PCOD9526033 Si02
#       6
#    16  16  16  16  16  16
#     4  10  19  33  56  86 117 150 189 237 293 353
#     4  11  20  35  60  86 114 155 203 246 298 364
#     4  11  21  34  57  86 117 153 195 246 298 346
#     4  10  22  36  54  83 118 154 194 249 304 340
#     4   9  19  35  57  88 122 151 187 243 305 360
#     4  10  19  33  56  86 117 148 196 245 288 350
#
# _framework density 22.106380000000001
#
# number of rings (size 3 to 8) (size 9 to 14) (size 15 to 20)
#    0.000    1.833    1.667    3.500    0.000    2.667 
#    0.000    0.833    0.000    8.000    0.000   15.167 
#    0.000    0.000    0.000    0.000    0.000    0.167 
#
# Total GULP energy -267273.319378 kJ/mol
# GULP energy per Si atom -5568.194154 kJ/mol
# Density = 2.205607 g / cm^3
# Si number density = 22.106380 Si / 1000 Ang^3
#
#
#
# Elastic Constant Matrix: (Units=GPa)
#
#
# Indices 1 2 3 4 5 6 
#
# 1 123.8900 26.8823 15.2954 0.0000 0.0000 0.0000
# 2 26.8823 86.3771 -13.4698 0.0000 0.0000 0.0000
# 3 15.2954 -13.4698 22.5275 0.0001 0.0000 0.0000
# 4 0.0000 0.0000 0.0001 51.3738 0.0000 0.0000
# 5 0.0000 0.0000 0.0000 0.0000 28.0550 0.0000
# 6 0.0000 0.0000 0.0000 0.0000 0.0000 28.7285
#
#
#
# Elastic Compliance Matrix: (Units=1/GPa)
#
#
# Indices 1 2 3 4 5 6 
#
# 1 0.010316 -0.004745 -0.009842 0.000000 0.000000 0.000000
# 2 -0.004745 0.014950 0.012161 0.000000 0.000000 0.000000
# 3 -0.009842 0.012161 0.058344 0.000000 0.000000 0.000000
# 4 0.000000 0.000000 0.000000 0.019465 0.000000 0.000000
# 5 0.000000 0.000000 0.000000 0.000000 0.035644 0.000000
# 6 0.000000 0.000000 0.000000 0.000000 0.000000 0.034809
#
#
# Mechanical properties :
#
#
# Convention : Reuss Voigt Hill
#
# Bulk Modulus (GPa) = 12.69698 32.24562 22.47130
# Shear Modulus (GPa) = 24.43381 35.23723 29.83552
#
# Velocity S-wave (km/s) = 3.32819 3.99681 3.67772
# Velocity P-wave (km/s) = 4.53047 5.99312 5.31237
#
# Compressibility (1/GPa) = 0.07875886
#
# Stress axis : x y z
#
# Youngs Moduli (GPa) = 96.93248 66.88746 17.13967
#
# Poissons Ratio (x) = 0.31741 0.16869
# Poissons Ratio (y) = 0.45999 -0.20844
# Poissons Ratio (z) = 0.95401 -0.81344
#
# Static dielectric constant tensor:
#      x y z
#    x 1.877070 0.000000 0.000000 
#    y 0.000000 1.807050 0.000000 
#    z 0.000000 0.000000 1.889550 
# 
# From -- ./inp_files/21880.got.cif
#   From: 2010.05.17/outbox.cif.g08.bks.cpg/sg72_11_cif.got.tgz:21880.got - 2010.06.03 17:03:01.
