data_PCOD9526024
_publ_section_title
;
Structure prediction by ZEFSAII (Michael W. Deem and Ramdas Pophale) SiO2 
 PCOD9526024
Probable space group: I B A M
;
_chemical_formula_sum "Si O2"
_cell_formula_units_Z 88
_cell_length_a 25.687650
_cell_length_b 5.236359
_cell_length_c 28.510635
_cell_angle_alpha 90.000000
_cell_angle_beta 90.000000
_cell_angle_gamma 90.000000
_cell_volume 3834.958593
_symmetry_space_group_name_H-M "I B A M"
_symmetry_group_IT_number 72
_symmetry_cell_setting 'orthorhombic'
loop_
_space_group_symop_operation_xyz
x,y,z
-x,-y,z
x,-y,1/2-z
-x,y,1/2-z
-x,-y,-z
x,y,-z
-x,y,1/2+z
x,-y,1/2+z
1/2+x,1/2+y,1/2+z
1/2-x,1/2-y,1/2+z
1/2+x,1/2-y,-z
1/2-x,1/2+y,-z
1/2-x,1/2-y,1/2-z
1/2+x,1/2+y,1/2-z
1/2-x,1/2+y,z
1/2+x,1/2-y,z
loop_
_atom_site_type_symbol
_atom_site_label
_atom_site_fract_x
_atom_site_fract_y
_atom_site_fract_z
Si Si1 0.383624 0.079247 0.070993
Si Si2 0.441978 0.577842 0.184066
Si Si3 0.785902 0.500000 0.750000
Si Si4 0.057548 0.079199 0.070090
Si Si5 0.229687 0.626165 0.553927
Si Si6 0.881258 0.421320 0.815939
O O1 0.401981 0.358749 0.055621
O O2 0.379895 0.079663 0.127605
O O3 0.424723 0.861602 0.056384
O O4 0.327702 0.987078 0.054148
O O5 0.500000 0.500000 0.198527
O O6 0.442749 0.578733 0.127042
O O7 0.402302 0.355540 0.198888
O O8 0.421723 0.855879 0.198206
O O9 0.750000 0.250000 0.750000
O O10 0.825555 0.484936 0.793969
O O11 0.000000 0.000000 0.054803
O O12 0.246444 0.672664 0.500000
O O13 0.265543 0.405988 0.576412
#
# Coordination Sequence:
#
# PCOD9526024 Si02
#       6
#    16  16   8  16  16  16
#     4  10  19  33  56  79 103 136 173 212 249 303
#     4   9  17  33  56  81 108 133 163 211 263 306
#     4  12  26  42  55  70 103 144 176 218 264 296
#     4   9  17  30  52  81 109 138 169 203 250 305
#     4  10  21  36  54  77 104 133 169 218 270 307
#     4  10  21  36  54  79 104 135 178 209 248 312
#
# _framework density 22.946793
#
# number of rings (size 3 to 8) (size 9 to 14) (size 15 to 20)
#    0.000    2.182    0.000    3.273    0.000    5.818 
#    0.000    2.727    0.000    3.273    0.000    0.000 
#    0.000    0.000    0.000    0.000    0.000    0.000 
#
# Total GULP energy -246025.802191 kJ/mol
# GULP energy per Si atom -5591.495504 kJ/mol
# Density = 2.289457 g / cm^3
# Si number density = 22.946793 Si / 1000 Ang^3
#
#
#
# Elastic Constant Matrix: (Units=GPa)
#
#
# Indices 1 2 3 4 5 6 
#
# 1 89.5903 7.3211 -2.4972 0.0000 0.0000 0.0000
# 2 7.3211 112.7052 10.4152 0.0000 0.0000 0.0000
# 3 -2.4972 10.4152 81.4155 0.0000 0.0000 0.0000
# 4 0.0000 0.0000 0.0000 -35.2149 0.0000 0.0000
# 5 0.0000 0.0000 0.0000 0.0000 28.9993 0.0000
# 6 0.0000 0.0000 0.0000 0.0000 0.0000 50.7463
#
#
#
# Elastic Compliance Matrix: (Units=1/GPa)
#
#
# Indices 1 2 3 4 5 6 
#
# 1 0.011237 -0.000771 0.000443 0.000000 0.000000 0.000000
# 2 -0.000771 0.009032 -0.001179 0.000000 0.000000 0.000000
# 3 0.000443 -0.001179 0.012447 0.000000 0.000000 0.000000
# 4 0.000000 0.000000 0.000000 -0.028397 0.000000 0.000000
# 5 0.000000 0.000000 0.000000 0.000000 0.034484 0.000000
# 6 0.000000 0.000000 0.000000 0.000000 0.000000 0.019706
#
#
# Mechanical properties :
#
#
# Convention : Reuss Voigt Hill
#
# Bulk Modulus (GPa) = 33.66689 34.90992 34.28841
# Shear Modulus (GPa) = 70.00569 26.80427 48.40498
#
# Velocity S-wave (km/s) = 5.52938 3.42146 4.59785
# Velocity P-wave (km/s) = 7.44775 5.55473 6.56978
#
# Compressibility (1/GPa) = 0.02970278
#
# Stress axis : x y z
#
# Youngs Moduli (GPa) = 88.98953 110.72065 80.33994
#
# Poissons Ratio (x) = 0.08536 -0.03561
# Poissons Ratio (y) = 0.06860 0.09472
# Poissons Ratio (z) = -0.03945 0.13055
#
# Static dielectric constant tensor:
#      x y z
#    x 1.806270 0.000000 0.000000 
#    y 0.000000 1.836190 0.000000 
#    z 0.000000 0.000000 1.911180 
# 
# From -- ./inp_files/52353.got.cif
#   From: 2010.05.17/outbox.cif.g08.bks.cpg/sg72_27_cif.got.tgz:52353.got - 2010.06.03 17:03:01.
