data_PCOD9526981
_publ_section_title
;
Structure prediction by ZEFSAII (Michael W. Deem and Ramdas Pophale) SiO2 
 PCOD9526981
Probable space group: I B A M
;
_chemical_formula_sum "Si O2"
_cell_formula_units_Z 116
_cell_length_a 27.579161
_cell_length_b 27.999891
_cell_length_c 8.279600
_cell_angle_alpha 90.000000
_cell_angle_beta 90.000000
_cell_angle_gamma 90.000000
_cell_volume 6393.618910
_symmetry_space_group_name_H-M "I B A M"
_symmetry_group_IT_number 72
_symmetry_cell_setting 'orthorhombic'
loop_
_space_group_symop_operation_xyz
x,y,z
-x,-y,z
x,-y,1/2-z
-x,y,1/2-z
-x,-y,-z
x,y,-z
-x,y,1/2+z
x,-y,1/2+z
1/2+x,1/2+y,1/2+z
1/2-x,1/2-y,1/2+z
1/2+x,1/2-y,-z
1/2-x,1/2+y,-z
1/2-x,1/2-y,1/2-z
1/2+x,1/2+y,1/2-z
1/2-x,1/2+y,z
1/2+x,1/2-y,z
loop_
_atom_site_type_symbol
_atom_site_label
_atom_site_fract_x
_atom_site_fract_y
_atom_site_fract_z
Si Si1 0.000000 0.500000 0.250000
Si Si2 0.825665 0.289549 0.810946
Si Si3 0.843579 0.816101 0.806151
Si Si4 0.076882 0.418206 0.813403
Si Si5 0.682917 0.052917 0.194875
Si Si6 0.572535 0.816175 0.688329
Si Si7 0.252153 0.638844 0.306853
Si Si8 0.551048 0.289347 0.805399
O O1 0.038595 0.461212 0.182871
O O2 0.824389 0.234218 0.763583
O O3 0.869204 0.313148 0.707931
O O4 0.776617 0.316864 0.770413
O O5 0.837003 0.294372 0.000000
O O6 0.807887 0.857125 0.745206
O O7 0.900132 0.816971 0.755959
O O8 0.841543 0.813926 0.000000
O O9 0.128664 0.434133 0.742109
O O10 0.058453 0.367848 0.739893
O O11 0.086997 0.406246 0.000000
O O12 0.722476 0.091949 0.245691
O O13 0.695341 0.000000 0.250000
O O14 0.681139 0.053122 0.000000
O O15 0.558252 0.814528 0.500000
O O16 0.554946 0.765603 0.759811
O O17 0.249066 0.642490 0.500000
O O18 0.500000 0.309837 0.750000
O O19 0.551892 0.287263 0.000000
#
# Coordination Sequence:
#
# PCOD9526981 Si02
#       8
#     4  16  16  16  16  16  16  16
#     4  12  22  32  52  74  92 124 182 232 280 320
#     4  11  20  31  50  77 103 132 170 212 257 315
#     4  10  21  36  52  75 107 138 170 210 254 305
#     4  10  20  36  51  66  94 129 168 222 278 318
#     4  10  21  38  57  75  99 133 170 215 270 319
#     4   9  18  35  51  66  96 134 171 215 266 311
#     4  11  21  35  54  75 102 137 170 210 263 315
#     4   9  19  33  52  73 101 136 168 206 251 299
#
# _framework density 18.143089
#
# number of rings (size 3 to 8) (size 9 to 14) (size 15 to 20)
#    0.000    1.931    2.069    3.517    0.966    3.862 
#    0.000    1.379    0.000    0.000    0.000    0.000 
#    0.000    0.552    0.000    6.069    0.000    4.414 
#
# Total GULP energy -323299.495595 kJ/mol
# GULP energy per Si atom -5574.129234 kJ/mol
# Density = 1.810179 g / cm^3
# Si number density = 18.143089 Si / 1000 Ang^3
#
#
#
# Elastic Constant Matrix: (Units=GPa)
#
#
# Indices 1 2 3 4 5 6 
#
# 1 135.0654 55.0745 10.1722 0.0000 0.0000 0.0000
# 2 55.0745 58.8479 11.2601 0.0000 0.0000 0.0000
# 3 10.1722 11.2601 23.5651 0.0000 0.0000 0.0000
# 4 0.0000 0.0000 0.0000 16.8287 0.0000 0.0000
# 5 0.0000 0.0000 0.0000 0.0000 42.6647 0.0000
# 6 0.0000 0.0000 0.0000 0.0000 0.0000 14.6795
#
#
#
# Elastic Compliance Matrix: (Units=1/GPa)
#
#
# Indices 1 2 3 4 5 6 
#
# 1 0.011974 -0.011245 0.000205 0.000000 0.000000 0.000000
# 2 -0.011245 0.029264 -0.009129 0.000000 0.000000 0.000000
# 3 0.000205 -0.009129 0.046709 0.000000 0.000000 0.000000
# 4 0.000000 0.000000 0.000000 0.059422 0.000000 0.000000
# 5 0.000000 0.000000 0.000000 0.000000 0.023439 0.000000
# 6 0.000000 0.000000 0.000000 0.000000 0.000000 0.068122
#
#
# Mechanical properties :
#
#
# Convention : Reuss Voigt Hill
#
# Bulk Modulus (GPa) = 21.00490 41.16579 31.08534
# Shear Modulus (GPa) = 16.94120 24.23267 20.58694
#
# Velocity S-wave (km/s) = 3.05906 3.65861 3.37218
# Velocity P-wave (km/s) = 4.90710 6.37071 5.68619
#
# Compressibility (1/GPa) = 0.04760795
#
# Stress axis : x y z
#
# Youngs Moduli (GPa) = 83.51609 34.17196 21.40900
#
# Poissons Ratio (x) = 0.38427 -0.00438
# Poissons Ratio (y) = 0.93915 0.19544
# Poissons Ratio (z) = -0.01709 0.31195
#
# Static dielectric constant tensor:
#      x y z
#    x 1.667770 0.000000 0.000000 
#    y 0.000000 1.629630 0.000000 
#    z 0.000000 0.000000 1.649240 
# 
# From -- ./inp_files/9490.got.cif
#   From: 2010.05.17/outbox.cif.g08.bks.cpg/sg72_5_cif.got.tgz:9490.got - 2010.06.03 17:03:01.
