data_PCOD9526837
_publ_section_title
;
Structure prediction by ZEFSAII (Michael W. Deem and Ramdas Pophale) SiO2 
 PCOD9526837
Probable space group: I B A M
;
_chemical_formula_sum "Si O2"
_cell_formula_units_Z 116
_cell_length_a 29.369521
_cell_length_b 7.983663
_cell_length_c 23.954254
_cell_angle_alpha 90.000000
_cell_angle_beta 90.000000
_cell_angle_gamma 90.000000
_cell_volume 5616.706240
_symmetry_space_group_name_H-M "I B A M"
_symmetry_group_IT_number 72
_symmetry_cell_setting 'orthorhombic'
loop_
_space_group_symop_operation_xyz
x,y,z
-x,-y,z
x,-y,1/2-z
-x,y,1/2-z
-x,-y,-z
x,y,-z
-x,y,1/2+z
x,-y,1/2+z
1/2+x,1/2+y,1/2+z
1/2-x,1/2-y,1/2+z
1/2+x,1/2-y,-z
1/2-x,1/2+y,-z
1/2-x,1/2-y,1/2-z
1/2+x,1/2+y,1/2-z
1/2-x,1/2+y,z
1/2+x,1/2-y,z
loop_
_atom_site_type_symbol
_atom_site_label
_atom_site_fract_x
_atom_site_fract_y
_atom_site_fract_z
Si Si1 0.732384 0.206072 0.125229
Si Si2 0.057598 0.363653 0.895790
Si Si3 0.523112 0.333468 0.658302
Si Si4 0.311092 0.518055 0.565719
Si Si5 0.299306 0.903576 0.691916
Si Si6 0.900508 0.391457 0.806036
Si Si7 0.585219 0.502615 0.066000
Si Si8 0.000000 0.500000 0.500000
O O1 0.701629 0.349897 0.099092
O O2 0.758536 0.277658 0.179356
O O3 0.773524 0.152836 0.084314
O O4 0.704669 0.043366 0.143344
O O5 0.087411 0.489954 0.858801
O O6 0.082066 0.190773 0.914377
O O7 0.015433 0.299696 0.857625
O O8 0.037043 0.449276 0.950646
O O9 0.500000 0.500000 0.681648
O O10 0.561691 0.251770 0.695760
O O11 0.548534 0.392846 0.601213
O O12 0.307216 0.485765 0.500000
O O13 0.363506 0.566040 0.576453
O O14 0.349205 0.823484 0.689581
O O15 0.294902 0.000000 0.750000
O O16 0.902721 0.500000 0.750000
O O17 0.575114 0.513362 0.000000
#
# Coordination Sequence:
#
# PCOD9526837 Si02
#       8
#    16  16  16  16  16  16  16   4
#     4  10  20  36  58  82 115 146 188 240 284 346
#     4  11  22  37  58  85 114 153 195 238 290 343
#     4  10  22  37  57  84 112 149 193 239 287 341
#     4  10  20  35  54  81 114 154 189 231 286 350
#     4  10  21  37  61  86 112 148 190 238 290 338
#     4  11  23  41  61  84 117 156 197 241 285 346
#     4  10  21  35  56  84 118 151 192 242 297 344
#     4  12  20  36  60  84 116 148 198 242 288 340
#
# _framework density 20.652673
#
# number of rings (size 3 to 8) (size 9 to 14) (size 15 to 20)
#    0.000    1.655    2.069    2.483    0.966    1.931 
#    0.000    4.828    1.517   11.586    0.000    0.000 
#    0.000    0.000    0.000    0.000    0.000    0.000 
#
# Total GULP energy -323603.876209 kJ/mol
# GULP energy per Si atom -5579.377176 kJ/mol
# Density = 2.060567 g / cm^3
# Si number density = 20.652673 Si / 1000 Ang^3
#
#
#
# Elastic Constant Matrix: (Units=GPa)
#
#
# Indices 1 2 3 4 5 6 
#
# 1 83.2162 2.2843 14.2596 0.0000 0.0000 0.0000
# 2 2.2843 35.9138 -4.4557 0.0000 0.0000 0.0000
# 3 14.2596 -4.4557 62.9427 0.0000 0.0000 0.0000
# 4 0.0000 0.0000 0.0000 20.8486 0.0000 0.0000
# 5 0.0000 0.0000 0.0000 0.0000 13.3974 0.0000
# 6 0.0000 0.0000 0.0000 0.0000 0.0000 23.6199
#
#
#
# Elastic Compliance Matrix: (Units=1/GPa)
#
#
# Indices 1 2 3 4 5 6 
#
# 1 0.012550 -0.001161 -0.002925 0.000000 0.000000 0.000000
# 2 -0.001161 0.028199 0.002259 0.000000 0.000000 0.000000
# 3 -0.002925 0.002259 0.016710 0.000000 0.000000 0.000000
# 4 0.000000 0.000000 0.000000 0.047965 0.000000 0.000000
# 5 0.000000 0.000000 0.000000 0.000000 0.074641 0.000000
# 6 0.000000 0.000000 0.000000 0.000000 0.000000 0.042337
#
#
# Mechanical properties :
#
#
# Convention : Reuss Voigt Hill
#
# Bulk Modulus (GPa) = 18.58596 22.91657 20.75127
# Shear Modulus (GPa) = 20.49252 22.90549 21.69900
#
# Velocity S-wave (km/s) = 3.15341 3.33390 3.24491
# Velocity P-wave (km/s) = 4.71990 5.09314 4.91007
#
# Compressibility (1/GPa) = 0.05380406
#
# Stress axis : x y z
#
# Youngs Moduli (GPa) = 79.68090 35.46275 59.84386
#
# Poissons Ratio (x) = 0.04118 0.17507
# Poissons Ratio (y) = 0.09253 -0.13520
# Poissons Ratio (z) = 0.23310 -0.08012
#
# Static dielectric constant tensor:
#      x y z
#    x 1.727110 0.000000 0.000000 
#    y 0.000000 1.744850 0.000000 
#    z 0.000000 0.000000 1.708540 
# 
# From -- ./inp_files/45989.got.cif
#   From: 2010.05.17/outbox.cif.g08.bks.cpg/sg72_23_cif.got.tgz:45989.got - 2010.06.03 17:03:01.
