data_PCOD9526384
_publ_section_title
;
Structure prediction by ZEFSAII (Michael W. Deem and Ramdas Pophale) SiO2 
 PCOD9526384
Probable space group: I B A M
;
_chemical_formula_sum "Si O2"
_cell_formula_units_Z 64
_cell_length_a 12.208894
_cell_length_b 14.697020
_cell_length_c 18.488388
_cell_angle_alpha 90.000000
_cell_angle_beta 90.000000
_cell_angle_gamma 90.000000
_cell_volume 3317.452055
_symmetry_space_group_name_H-M "I B A M"
_symmetry_group_IT_number 72
_symmetry_cell_setting 'orthorhombic'
loop_
_space_group_symop_operation_xyz
x,y,z
-x,-y,z
x,-y,1/2-z
-x,y,1/2-z
-x,-y,-z
x,y,-z
-x,y,1/2+z
x,-y,1/2+z
1/2+x,1/2+y,1/2+z
1/2-x,1/2-y,1/2+z
1/2+x,1/2-y,-z
1/2-x,1/2+y,-z
1/2-x,1/2-y,1/2-z
1/2+x,1/2+y,1/2-z
1/2-x,1/2+y,z
1/2+x,1/2-y,z
loop_
_atom_site_type_symbol
_atom_site_label
_atom_site_fract_x
_atom_site_fract_y
_atom_site_fract_z
Si Si1 0.435499 0.409080 0.585956
Si Si2 0.482552 0.211610 0.914727
Si Si3 0.703745 0.099985 0.662270
Si Si4 0.608819 0.901180 0.697039
O O1 0.500000 0.500000 0.605326
O O2 0.410015 0.412362 0.500000
O O3 0.507977 0.319122 0.598097
O O4 0.323571 0.403958 0.629975
O O5 0.371791 0.166089 0.885312
O O6 0.578480 0.163784 0.868510
O O7 0.494221 0.194386 0.000000
O O8 0.700583 0.130243 0.746228
O O9 0.647396 0.998916 0.665947
O O10 0.500000 0.903005 0.750000
#
# Coordination Sequence:
#
# PCOD9526384 Si02
#       4
#    16  16  16  16
#     4  10  23  40  56  82 118 150 189 238 281 333
#     4  10  20  35  58  86 113 149 193 232 280 338
#     4  10  19  37  60  81 114 154 186 229 288 335
#     4   9  19  37  59  87 118 144 187 241 279 334
#
# _framework density 19.291916000000001
#
# number of rings (size 3 to 8) (size 9 to 14) (size 15 to 20)
#    0.000    2.250    0.000    6.000    0.000    6.000 
#    0.000   20.000    0.000    0.000    0.000    0.000 
#    0.000    0.000    0.000    0.000    0.000    0.000 
#
# Total GULP energy -178437.586439 kJ/mol
# GULP energy per Si atom -5576.174576 kJ/mol
# Density = 1.924801 g / cm^3
# Si number density = 19.291916 Si / 1000 Ang^3
#
#
#
# Elastic Constant Matrix: (Units=GPa)
#
#
# Indices 1 2 3 4 5 6 
#
# 1 115.1166 65.1296 70.3127 0.0000 0.0000 0.0000
# 2 65.1296 131.2776 91.0729 0.0000 0.0000 0.0000
# 3 70.3127 91.0729 116.8887 0.0000 0.0000 0.0000
# 4 0.0000 0.0000 0.0000 -2.1692 0.0000 0.0000
# 5 0.0000 0.0000 0.0000 0.0000 29.2328 0.0000
# 6 0.0000 0.0000 0.0000 0.0000 0.0000 11.2569
#
#
#
# Elastic Compliance Matrix: (Units=1/GPa)
#
#
# Indices 1 2 3 4 5 6 
#
# 1 0.014075 -0.002414 -0.006586 0.000000 0.000000 0.000000
# 2 -0.002414 0.016993 -0.011787 0.000000 0.000000 0.000000
# 3 -0.006586 -0.011787 0.021701 0.000000 0.000000 0.000000
# 4 0.000000 0.000000 0.000000 -0.461002 0.000000 0.000000
# 5 0.000000 0.000000 0.000000 0.000000 0.034208 0.000000
# 6 0.000000 0.000000 0.000000 0.000000 0.000000 0.088834
#
#
# Mechanical properties :
#
#
# Convention : Reuss Voigt Hill
#
# Bulk Modulus (GPa) = 89.33448 90.70147 90.01798
# Shear Modulus (GPa) = -20.84336 16.78196 -2.03070
#
# Velocity S-wave (km/s) = -3.29054 2.95260 -1.02708
# Velocity P-wave (km/s) = 5.65423 7.66428 6.73467
#
# Compressibility (1/GPa) = 0.01119389
#
# Stress axis : x y z
#
# Youngs Moduli (GPa) = 71.04642 58.84908 46.08126
#
# Poissons Ratio (x) = 0.14207 0.30348
# Poissons Ratio (y) = 0.17152 0.54318
# Poissons Ratio (z) = 0.46790 0.69368
#
# Static dielectric constant tensor:
#      x y z
#    x 1.683630 0.000000 0.000000 
#    y 0.000000 1.687960 0.000000 
#    z 0.000000 0.000000 1.681400 
# 
# From -- ./inp_files/36723.got.cif
#   From: 2010.05.17/outbox.cif.g08.bks.cpg/sg72_19_cif.got.tgz:36723.got - 2010.06.03 17:03:01.
