data_PCOD9526490
_publ_section_title
;
Structure prediction by ZEFSAII (Michael W. Deem and Ramdas Pophale) SiO2 
 PCOD9526490
Probable space group: I B A M
;
_chemical_formula_sum "Si O2"
_cell_formula_units_Z 116
_cell_length_a 22.518770
_cell_length_b 18.499891
_cell_length_c 15.346011
_cell_angle_alpha 90.000000
_cell_angle_beta 90.000000
_cell_angle_gamma 90.000000
_cell_volume 6393.068237
_symmetry_space_group_name_H-M "I B A M"
_symmetry_group_IT_number 72
_symmetry_cell_setting 'orthorhombic'
loop_
_space_group_symop_operation_xyz
x,y,z
-x,-y,z
x,-y,1/2-z
-x,y,1/2-z
-x,-y,-z
x,y,-z
-x,y,1/2+z
x,-y,1/2+z
1/2+x,1/2+y,1/2+z
1/2-x,1/2-y,1/2+z
1/2+x,1/2-y,-z
1/2-x,1/2+y,-z
1/2-x,1/2-y,1/2-z
1/2+x,1/2+y,1/2-z
1/2-x,1/2+y,z
1/2+x,1/2-y,z
loop_
_atom_site_type_symbol
_atom_site_label
_atom_site_fract_x
_atom_site_fract_y
_atom_site_fract_z
Si Si1 0.015186 0.894956 0.904498
Si Si2 0.888524 0.796247 0.658505
Si Si3 0.390730 0.326404 0.356742
Si Si4 0.302379 0.183300 0.158404
Si Si5 0.301992 0.210188 0.633588
Si Si6 0.217775 0.067708 0.105462
Si Si7 0.712499 0.402861 0.599316
Si Si8 0.000000 0.000000 0.250000
O O1 0.948017 0.865562 0.896192
O O2 0.058559 0.827260 0.897220
O O3 0.030422 0.946704 0.821449
O O4 0.024487 0.928490 0.000000
O O5 0.906993 0.802152 0.759068
O O6 0.864473 0.717983 0.629795
O O7 0.832349 0.850940 0.650426
O O8 0.361011 0.252850 0.395481
O O9 0.337383 0.385193 0.358870
O O10 0.303227 0.198473 0.261972
O O11 0.251015 0.232947 0.115762
O O12 0.279180 0.103869 0.137789
O O13 0.277373 0.134511 0.598925
O O14 0.213240 0.984354 0.132778
O O15 0.215913 0.070970 0.000000
O O16 0.690418 0.404606 0.500000
#
# Coordination Sequence:
#
# PCOD9526490 Si02
#       8
#    16  16  16  16  16  16  16   4
#     4  12  25  39  57  78 102 142 183 209 258 307
#     4  10  20  36  52  71 101 135 173 218 257 298
#     4  10  20  36  52  71 101 135 173 218 257 298
#     4   8  16  31  50  69  93 129 168 209 258 307
#     4   8  16  31  50  69  93 129 168 209 258 307
#     4  10  20  30  45  73 104 133 169 212 259 310
#     4  10  20  30  45  73 104 133 169 212 259 310
#     4  12  26  44  52  74 112 144 168 232 248 288
#
# _framework density 18.144653000000002
#
# number of rings (size 3 to 8) (size 9 to 14) (size 15 to 20)
#    0.000    2.207    1.379    3.517    1.931    8.276 
#    0.000    0.000    0.000    0.000    0.000    0.966 
#    0.000    7.724    0.000    0.000    0.000    0.000 
#
# Total GULP energy -322943.460851 kJ/mol
# GULP energy per Si atom -5567.990704 kJ/mol
# Density = 1.810335 g / cm^3
# Si number density = 18.144653 Si / 1000 Ang^3
#
#
#
# Elastic Constant Matrix: (Units=GPa)
#
#
# Indices 1 2 3 4 5 6 
#
# 1 53.6328 28.7732 4.3076 0.0000 0.0000 0.0000
# 2 28.7732 59.5781 -7.0201 0.0000 0.0000 0.0000
# 3 4.3076 -7.0201 70.4451 0.0000 0.0000 0.0000
# 4 0.0000 0.0000 0.0000 32.5326 0.0000 0.0000
# 5 0.0000 0.0000 0.0000 0.0000 869.3112 0.0000
# 6 0.0000 0.0000 0.0000 0.0000 0.0000 17.9028
#
#
#
# Elastic Compliance Matrix: (Units=1/GPa)
#
#
# Indices 1 2 3 4 5 6 
#
# 1 0.025716 -0.012755 -0.002844 0.000000 0.000000 0.000000
# 2 -0.012755 0.023310 0.003103 0.000000 0.000000 0.000000
# 3 -0.002844 0.003103 0.014679 0.000000 0.000000 0.000000
# 4 0.000000 0.000000 0.000000 0.030738 0.000000 0.000000
# 5 0.000000 0.000000 0.000000 0.000000 0.001150 0.000000
# 6 0.000000 0.000000 0.000000 0.000000 0.000000 0.055857
#
#
# Mechanical properties :
#
#
# Convention : Reuss Voigt Hill
#
# Bulk Modulus (GPa) = 25.83027 26.19746 26.01387
# Shear Modulus (GPa) = 26.40653 194.45566 110.43109
#
# Velocity S-wave (km/s) = 3.81902 10.36351 7.80984
# Velocity P-wave (km/s) = 5.80631 12.55677 9.78227
#
# Compressibility (1/GPa) = 0.03871426
#
# Stress axis : x y z
#
# Youngs Moduli (GPa) = 38.88557 42.89958 68.12668
#
# Poissons Ratio (x) = 0.54718 0.19372
# Poissons Ratio (y) = 0.49598 -0.21139
# Poissons Ratio (z) = 0.11057 -0.13311
#
# Static dielectric constant tensor:
#      x y z
#    x 1.639650 0.000000 0.000000 
#    y 0.000000 1.658990 0.000000 
#    z 0.000000 0.000000 1.706470 
# 
# From -- ./inp_files/25394.got.cif
#   From: 2010.05.17/outbox.cif.g08.bks.cpg/sg72_13_cif.got.tgz:25394.got - 2010.06.03 17:03:01.
