data_PCOD9526940
_publ_section_title
;
Structure prediction by ZEFSAII (Michael W. Deem and Ramdas Pophale) SiO2 
 PCOD9526940
Probable space group: I B A M
;
_chemical_formula_sum "Si O2"
_cell_formula_units_Z 56
_cell_length_a 5.148377
_cell_length_b 14.590293
_cell_length_c 33.688626
_cell_angle_alpha 90.000000
_cell_angle_beta 90.000000
_cell_angle_gamma 90.000000
_cell_volume 2530.565911
_symmetry_space_group_name_H-M "I B A M"
_symmetry_group_IT_number 72
_symmetry_cell_setting 'orthorhombic'
loop_
_space_group_symop_operation_xyz
x,y,z
-x,-y,z
x,-y,1/2-z
-x,y,1/2-z
-x,-y,-z
x,y,-z
-x,y,1/2+z
x,-y,1/2+z
1/2+x,1/2+y,1/2+z
1/2-x,1/2-y,1/2+z
1/2+x,1/2-y,-z
1/2-x,1/2+y,-z
1/2-x,1/2-y,1/2-z
1/2+x,1/2+y,1/2-z
1/2-x,1/2+y,z
1/2+x,1/2-y,z
loop_
_atom_site_type_symbol
_atom_site_label
_atom_site_fract_x
_atom_site_fract_y
_atom_site_fract_z
Si Si1 0.747183 0.562793 0.000000
Si Si2 0.916347 0.804964 0.569518
Si Si3 0.987674 0.388452 0.295088
Si Si4 0.506369 0.610847 0.344827
O O1 0.500000 0.500000 0.000000
O O2 0.707785 0.623395 0.039183
O O3 0.000000 0.500000 0.000000
O O4 0.218675 0.779963 0.563010
O O5 0.921698 0.842315 0.614258
O O6 0.710740 0.364450 0.312880
O O7 0.000000 0.500000 0.293208
O O8 0.000000 0.354061 0.250000
O O9 0.216687 0.362575 0.325753
O O10 0.500000 0.500000 0.350697
#
# Coordination Sequence:
#
# PCOD9526940 Si02
#       4
#     8  16  16  16
#     4  12  26  46  72  98 124 160 212 264 312 374
#     4  12  25  43  65  93 131 167 203 251 319 384
#     4   9  17  31  55  87 119 155 207 268 316 356
#     4  10  20  35  59  88 120 161 211 260 309 371
#
# _framework density 22.129438
#
# number of rings (size 3 to 8) (size 9 to 14) (size 15 to 20)
#    0.000    1.429    0.000    6.000    0.000    6.857 
#    0.000    0.000    0.000   17.143    0.000    0.000 
#    0.000    0.000    0.000    0.000    0.000    0.000 
#
# Total GULP energy -156506.381278 kJ/mol
# GULP energy per Si atom -5589.513617 kJ/mol
# Density = 2.207907 g / cm^3
# Si number density = 22.129438 Si / 1000 Ang^3
#
#
#
# Elastic Constant Matrix: (Units=GPa)
#
#
# Indices 1 2 3 4 5 6 
#
# 1 132.6955 16.0894 29.4174 0.0000 0.0000 0.0000
# 2 16.0894 52.7454 27.1085 0.0000 0.0000 0.0000
# 3 29.4174 27.1085 134.9352 0.0000 0.0000 0.0000
# 4 0.0000 0.0000 0.0000 -63.6488 0.0000 0.0000
# 5 0.0000 0.0000 0.0000 0.0000 -904.6881 0.0000
# 6 0.0000 0.0000 0.0000 0.0000 0.0000 28.9589
#
#
#
# Elastic Compliance Matrix: (Units=1/GPa)
#
#
# Indices 1 2 3 4 5 6 
#
# 1 0.008059 -0.001734 -0.001408 0.000000 0.000000 0.000000
# 2 -0.001734 0.021515 -0.003944 0.000000 0.000000 0.000000
# 3 -0.001408 -0.003944 0.008510 0.000000 0.000000 0.000000
# 4 0.000000 0.000000 0.000000 -0.015711 0.000000 0.000000
# 5 0.000000 0.000000 0.000000 0.000000 -0.001105 0.000000
# 6 0.000000 0.000000 0.000000 0.000000 0.000000 0.034532
#
#
# Mechanical properties :
#
#
# Convention : Reuss Voigt Hill
#
# Bulk Modulus (GPa) = 41.82330 51.73406 46.77868
# Shear Modulus (GPa) = 64.14907 -171.35820 -53.60457
#
# Velocity S-wave (km/s) = 5.38990 -8.80923 -4.92705
# Velocity P-wave (km/s) = 7.59442 8.94659 3.34412
#
# Compressibility (1/GPa) = 0.02391012
#
# Stress axis : x y z
#
# Youngs Moduli (GPa) = 124.09144 46.47872 117.50285
#
# Poissons Ratio (x) = 0.08061 0.16550
# Poissons Ratio (y) = 0.21521 0.46347
# Poissons Ratio (z) = 0.17477 0.18333
#
# Static dielectric constant tensor:
#      x y z
#    x 1.767460 0.000000 0.000000 
#    y 0.000000 1.886540 0.000000 
#    z 0.000000 0.000000 1.646170 
# 
# From -- ./inp_files/50076.got.cif
#   From: 2010.05.17/outbox.cif.g08.bks.cpg/sg72_26_cif.got.tgz:50076.got - 2010.06.03 17:03:01.
