data_PCOD9526465
_publ_section_title
;
Structure prediction by ZEFSAII (Michael W. Deem and Ramdas Pophale) SiO2 
 PCOD9526465
Probable space group: I B A M
;
_chemical_formula_sum "Si O2"
_cell_formula_units_Z 112
_cell_length_a 13.690406
_cell_length_b 26.177174
_cell_length_c 15.703352
_cell_angle_alpha 90.000000
_cell_angle_beta 90.000000
_cell_angle_gamma 90.000000
_cell_volume 5627.706675
_symmetry_space_group_name_H-M "I B A M"
_symmetry_group_IT_number 72
_symmetry_cell_setting 'orthorhombic'
loop_
_space_group_symop_operation_xyz
x,y,z
-x,-y,z
x,-y,1/2-z
-x,y,1/2-z
-x,-y,-z
x,y,-z
-x,y,1/2+z
x,-y,1/2+z
1/2+x,1/2+y,1/2+z
1/2-x,1/2-y,1/2+z
1/2+x,1/2-y,-z
1/2-x,1/2+y,-z
1/2-x,1/2-y,1/2-z
1/2+x,1/2+y,1/2-z
1/2-x,1/2+y,z
1/2+x,1/2-y,z
loop_
_atom_site_type_symbol
_atom_site_label
_atom_site_fract_x
_atom_site_fract_y
_atom_site_fract_z
Si Si1 0.827260 0.519387 0.000000
Si Si2 0.491522 0.424512 0.398766
Si Si3 0.928011 0.180209 0.321062
Si Si4 0.110109 0.285360 0.901538
Si Si5 0.669597 0.506908 0.848204
Si Si6 0.972569 0.577373 0.500000
Si Si7 0.762868 0.311396 0.740331
Si Si8 0.947623 0.644028 0.332433
O O1 0.755986 0.517673 0.083329
O O2 0.911067 0.563609 0.000000
O O3 0.898879 0.470385 0.000000
O O4 0.506188 0.428625 0.500000
O O5 0.475503 0.366590 0.370004
O O6 0.394543 0.457189 0.375496
O O7 0.586333 0.449077 0.353995
O O8 0.890671 0.224987 0.382596
O O9 0.836251 0.161809 0.265640
O O10 0.000000 0.202695 0.250000
O O11 0.198475 0.314785 0.855481
O O12 0.014029 0.307865 0.857905
O O13 0.109145 0.295473 0.000000
O O14 0.702812 0.500000 0.750000
O O15 0.948013 0.608508 0.414479
O O16 0.750000 0.250000 0.750000
O O17 0.844517 0.334329 0.802143
O O18 0.000000 0.619106 0.250000
#
# Coordination Sequence:
#
# PCOD9526465 Si02
#       8
#     8  16  16  16  16   8  16  16
#     4  11  26  47  68  98 132 163 228 288 329 397
#     4  11  21  40  63  96 133 170 223 271 330 406
#     4  11  22  38  58  94 133 168 214 268 322 396
#     4  10  19  39  62  90 128 173 213 262 324 380
#     4  11  22  43  69  93 132 176 211 275 348 399
#     4  11  26  46  68 100 128 168 226 286 329 394
#     4   9  20  38  59  88 127 167 212 265 313 386
#     4  10  21  42  68  92 129 173 212 266 330 394
#
# _framework density 19.901534999999999
#
# number of rings (size 3 to 8) (size 9 to 14) (size 15 to 20)
#    0.000    1.571    2.143    4.714    2.000    1.143 
#   12.857    2.857    0.000    0.000    0.000    0.000 
#    0.000    0.000    0.000    0.000    0.000    0.000 
#
# Total GULP energy -312478.214393 kJ/mol
# GULP energy per Si atom -5579.968114 kJ/mol
# Density = 1.985624 g / cm^3
# Si number density = 19.901535 Si / 1000 Ang^3
#
#
#
# Elastic Constant Matrix: (Units=GPa)
#
#
# Indices 1 2 3 4 5 6 
#
# 1 99.6871 -2.7599 46.9784 0.0000 0.0000 0.0000
# 2 -2.7599 55.5720 22.1708 0.0001 0.0000 0.0000
# 3 46.9784 22.1708 160.9859 0.0002 0.0000 0.0000
# 4 0.0000 0.0001 0.0002 7.6465 0.0000 0.0000
# 5 0.0000 0.0000 0.0000 0.0000 21.1888 0.0000
# 6 0.0000 0.0000 0.0000 0.0000 0.0000 14.3520
#
#
#
# Elastic Compliance Matrix: (Units=1/GPa)
#
#
# Indices 1 2 3 4 5 6 
#
# 1 0.011855 0.002083 -0.003746 0.000000 0.000000 0.000000
# 2 0.002083 0.019407 -0.003281 0.000000 0.000000 0.000000
# 3 -0.003746 -0.003281 0.007757 0.000000 0.000000 0.000000
# 4 0.000000 0.000000 0.000000 0.130779 0.000000 0.000000
# 5 0.000000 0.000000 0.000000 0.000000 0.047195 0.000000
# 6 0.000000 0.000000 0.000000 0.000000 0.000000 0.069677
#
#
# Mechanical properties :
#
#
# Convention : Reuss Voigt Hill
#
# Bulk Modulus (GPa) = 34.32760 49.89150 42.10955
# Shear Modulus (GPa) = 16.32568 25.29451 20.81009
#
# Velocity S-wave (km/s) = 2.86723 3.56895 3.23716
# Velocity P-wave (km/s) = 5.31484 6.48898 5.93104
#
# Compressibility (1/GPa) = 0.02913108
#
# Stress axis : x y z
#
# Youngs Moduli (GPa) = 84.35594 51.52789 128.91991
#
# Poissons Ratio (x) = -0.10735 0.48297
# Poissons Ratio (y) = -0.17574 0.42294
# Poissons Ratio (z) = 0.31602 0.16905
#
# Static dielectric constant tensor:
#      x y z
#    x 1.671040 0.000000 0.000000 
#    y 0.000000 1.706610 0.000000 
#    z 0.000000 0.000000 1.691490 
# 
# From -- ./inp_files/22355.got.cif
#   From: 2010.05.17/outbox.cif.g08.bks.cpg/sg72_12_cif.got.tgz:22355.got - 2010.06.03 17:03:01.
