data_PCOD9526650
_publ_section_title
;
Structure prediction by ZEFSAII (Michael W. Deem and Ramdas Pophale) SiO2 
 PCOD9526650
Probable space group: I B A M
;
_chemical_formula_sum "Si O2"
_cell_formula_units_Z 104
_cell_length_a 33.123800
_cell_length_b 21.102112
_cell_length_c 8.255522
_cell_angle_alpha 90.000000
_cell_angle_beta 90.000000
_cell_angle_gamma 90.000000
_cell_volume 5770.462413
_symmetry_space_group_name_H-M "I B A M"
_symmetry_group_IT_number 72
_symmetry_cell_setting 'orthorhombic'
loop_
_space_group_symop_operation_xyz
x,y,z
-x,-y,z
x,-y,1/2-z
-x,y,1/2-z
-x,-y,-z
x,y,-z
-x,y,1/2+z
x,-y,1/2+z
1/2+x,1/2+y,1/2+z
1/2-x,1/2-y,1/2+z
1/2+x,1/2-y,-z
1/2-x,1/2+y,-z
1/2-x,1/2-y,1/2-z
1/2+x,1/2+y,1/2-z
1/2-x,1/2+y,z
1/2+x,1/2-y,z
loop_
_atom_site_type_symbol
_atom_site_label
_atom_site_fract_x
_atom_site_fract_y
_atom_site_fract_z
Si Si1 0.285170 0.700841 0.806294
Si Si2 0.957131 0.267364 0.808597
Si Si3 0.334973 0.109979 0.319679
Si Si4 0.955898 0.409940 0.691727
Si Si5 0.250968 0.570268 0.693410
Si Si6 0.607912 0.000000 0.250000
Si Si7 0.371441 0.760113 0.195803
O O1 0.250000 0.750000 0.750000
O O2 0.277910 0.630261 0.740337
O O3 0.330191 0.723734 0.760916
O O4 0.283070 0.699635 0.000000
O O5 0.953745 0.334753 0.716499
O O6 0.913676 0.236310 0.770212
O O7 0.000000 0.238125 0.750000
O O8 0.960458 0.278457 0.000000
O O9 0.323979 0.133890 0.500000
O O10 0.293403 0.089585 0.237231
O O11 0.360935 0.167566 0.248985
O O12 0.361477 0.047299 0.336339
O O13 0.924299 0.447029 0.804418
O O14 0.000000 0.428752 0.750000
O O15 0.948691 0.576157 0.000000
O O16 0.262714 0.500000 0.750000
O O17 0.248028 0.566359 0.500000
O O18 0.376586 0.758971 0.000000
#
# Coordination Sequence:
#
# PCOD9526650 Si02
#       7
#    16  16  16  16  16   8  16
#     4  11  22  37  60  87 115 151 190 235 286 340
#     4  11  22  36  55  77 101 134 177 224 280 333
#     4  10  20  34  50  72 100 137 177 227 279 323
#     4  11  23  37  50  65  91 128 173 225 281 329
#     4  11  22  39  57  81 115 151 190 234 284 338
#     4  12  21  32  48  68  92 128 178 226 277 324
#     4  10  20  39  58  77 107 141 181 228 279 329
#
# _framework density 18.022818999999998
#
# number of rings (size 3 to 8) (size 9 to 14) (size 15 to 20)
#    0.000    1.231    3.846    4.385    0.000    4.308 
#    0.000    0.000    0.000    0.000    0.000    0.000 
#    0.000    0.615    0.000    6.462    0.000    2.769 
#
# Total GULP energy -289605.959774 kJ/mol
# GULP energy per Si atom -5569.345380 kJ/mol
# Density = 1.798180 g / cm^3
# Si number density = 18.022819 Si / 1000 Ang^3
#
#
#
# Elastic Constant Matrix: (Units=GPa)
#
#
# Indices 1 2 3 4 5 6 
#
# 1 143.1831 50.4500 31.1569 0.0000 0.0000 0.0000
# 2 50.4500 75.2718 19.9385 0.0000 0.0000 0.0000
# 3 31.1569 19.9385 62.9524 0.0000 0.0000 0.0000
# 4 0.0000 0.0000 0.0000 15.8883 0.0000 0.0000
# 5 0.0000 0.0000 0.0000 0.0000 -0.0850 0.0000
# 6 0.0000 0.0000 0.0000 0.0000 0.0000 27.9745
#
#
#
# Elastic Compliance Matrix: (Units=1/GPa)
#
#
# Indices 1 2 3 4 5 6 
#
# 1 0.009627 -0.005665 -0.002970 0.000000 0.000000 0.000000
# 2 -0.005665 0.017836 -0.002845 0.000000 0.000000 0.000000
# 3 -0.002970 -0.002845 0.018256 0.000000 0.000000 0.000000
# 4 0.000000 0.000000 0.000000 0.062939 0.000000 0.000000
# 5 0.000000 0.000000 0.000000 0.000000-11.764844 0.000000
# 6 0.000000 0.000000 0.000000 0.000000 0.000000 0.035747
#
#
# Mechanical properties :
#
#
# Convention : Reuss Voigt Hill
#
# Bulk Modulus (GPa) = 43.94160 53.83312 48.88736
# Shear Modulus (GPa) = -0.43141 20.74637 10.15748
#
# Velocity S-wave (km/s) = -0.48978 3.39649 2.37658
# Velocity P-wave (km/s) = 4.91062 6.73170 5.89194
#
# Compressibility (1/GPa) = 0.02275748
#
# Stress axis : x y z
#
# Youngs Moduli (GPa) = 103.87989 56.06667 54.77620
#
# Poissons Ratio (x) = 0.31763 0.16269
# Poissons Ratio (y) = 0.58851 0.15585
# Poissons Ratio (z) = 0.30853 0.15952
#
# Static dielectric constant tensor:
#      x y z
#    x 1.688290 0.000000 0.000000 
#    y 0.000000 1.615220 0.000000 
#    z 0.000000 0.000000 1.683150 
# 
# From -- ./inp_files/9173.got.cif
#   From: 2010.05.17/outbox.cif.g08.bks.cpg/sg72_5_cif.got.tgz:9173.got - 2010.06.03 17:03:01.
