data_PCOD9526184
_publ_section_title
;
Structure prediction by ZEFSAII (Michael W. Deem and Ramdas Pophale) SiO2 
 PCOD9526184
Probable space group: I B A M
;
_chemical_formula_sum "Si O2"
_cell_formula_units_Z 104
_cell_length_a 19.754289
_cell_length_b 17.038169
_cell_length_c 14.351435
_cell_angle_alpha 90.000000
_cell_angle_beta 90.000000
_cell_angle_gamma 90.000000
_cell_volume 4830.361710
_symmetry_space_group_name_H-M "I B A M"
_symmetry_group_IT_number 72
_symmetry_cell_setting 'orthorhombic'
loop_
_space_group_symop_operation_xyz
x,y,z
-x,-y,z
x,-y,1/2-z
-x,y,1/2-z
-x,-y,-z
x,y,-z
-x,y,1/2+z
x,-y,1/2+z
1/2+x,1/2+y,1/2+z
1/2-x,1/2-y,1/2+z
1/2+x,1/2-y,-z
1/2-x,1/2+y,-z
1/2-x,1/2-y,1/2-z
1/2+x,1/2+y,1/2-z
1/2-x,1/2+y,z
1/2+x,1/2-y,z
loop_
_atom_site_type_symbol
_atom_site_label
_atom_site_fract_x
_atom_site_fract_y
_atom_site_fract_z
Si Si1 0.828906 0.071568 0.304756
Si Si2 0.759093 0.675059 0.821556
Si Si3 0.354339 0.759241 0.597939
Si Si4 0.911875 0.362688 0.388350
Si Si5 0.569519 0.709643 0.715436
Si Si6 0.300714 0.934039 0.400686
Si Si7 0.096499 0.500000 0.250000
O O1 0.770724 0.102433 0.234353
O O2 0.879221 0.143628 0.322595
O O3 0.778929 0.049023 0.388154
O O4 0.863168 0.000000 0.250000
O O5 0.750000 0.750000 0.750000
O O6 0.704076 0.694218 0.899097
O O7 0.832668 0.655546 0.861419
O O8 0.393320 0.755298 0.500000
O O9 0.396767 0.747569 0.691694
O O10 0.313963 0.840928 0.598416
O O11 0.920157 0.376691 0.500000
O O12 0.944860 0.280134 0.356252
O O13 0.936733 0.432189 0.317050
O O14 0.500000 0.672201 0.750000
O O15 0.322377 0.968113 0.500000
O O16 0.353382 0.961256 0.324257
#
# Coordination Sequence:
#
# PCOD9526184 Si02
#       7
#    16  16  16  16  16  16   8
#     4  11  20  36  59  89 131 161 203 253 309 369
#     4  11  16  34  58  91 125 157 191 247 312 377
#     4  10  19  34  59  86 115 154 196 246 309 365
#     4  12  23  38  64  93 124 162 205 256 315 381
#     4  11  24  43  61  81 117 167 222 266 299 349
#     4  11  19  32  61  94 127 159 184 235 311 385
#     4  12  20  38  57  98 137 152 188 242 316 396
#
# _framework density 21.530479
#
# number of rings (size 3 to 8) (size 9 to 14) (size 15 to 20)
#    0.000    0.923    8.462    0.923    0.000    2.769 
#    0.000    3.462    0.000    0.923    0.000    6.462 
#    0.000    0.000    0.000    0.000    0.000    0.000 
#
# Total GULP energy -289729.887849 kJ/mol
# GULP energy per Si atom -5571.728612 kJ/mol
# Density = 2.148147 g / cm^3
# Si number density = 21.530479 Si / 1000 Ang^3
#
#
#
# Elastic Constant Matrix: (Units=GPa)
#
#
# Indices 1 2 3 4 5 6 
#
# 1 38.1406 -13.5364 -4.7865 0.0000 0.0000 0.0000
# 2 -13.5364 70.5603 20.1410 0.0000 0.0000 0.0000
# 3 -4.7865 20.1410 149.0567 0.0000 0.0000 0.0000
# 4 0.0000 0.0000 0.0000 -3.1906 0.0000 0.0000
# 5 0.0000 0.0000 0.0000 0.0000 7.6336 0.0000
# 6 0.0000 0.0000 0.0000 0.0000 0.0000 6.1818
#
#
#
# Elastic Compliance Matrix: (Units=1/GPa)
#
#
# Indices 1 2 3 4 5 6 
#
# 1 0.028139 0.005347 0.000181 0.000000 0.000000 0.000000
# 2 0.005347 0.015757 -0.001957 0.000000 0.000000 0.000000
# 3 0.000181 -0.001957 0.006979 0.000000 0.000000 0.000000
# 4 0.000000 0.000000 0.000000 -0.313422 0.000000 0.000000
# 5 0.000000 0.000000 0.000000 0.000000 0.130999 0.000000
# 6 0.000000 0.000000 0.000000 0.000000 0.000000 0.161765
#
#
# Mechanical properties :
#
#
# Convention : Reuss Voigt Hill
#
# Bulk Modulus (GPa) = 17.23677 29.04374 23.14025
# Shear Modulus (GPa) = 117.88208 19.18761 68.53485
#
# Velocity S-wave (km/s) = 7.40744 2.98851 5.64807
# Velocity P-wave (km/s) = 9.01018 5.04253 7.30104
#
# Compressibility (1/GPa) = 0.05801552
#
# Stress axis : x y z
#
# Youngs Moduli (GPa) = 35.53780 63.46505 143.28365
#
# Poissons Ratio (x) = -0.33932 -0.02596
# Poissons Ratio (y) = -0.19000 0.28046
# Poissons Ratio (z) = -0.00644 0.12423
#
# Static dielectric constant tensor:
#      x y z
#    x 1.785860 0.000000 0.000000 
#    y 0.000000 1.897920 0.000000 
#    z 0.000000 0.000000 1.872490 
# 
# From -- ./inp_files/24344.got.cif
#   From: 2010.05.17/outbox.cif.g08.bks.cpg/sg72_13_cif.got.tgz:24344.got - 2010.06.03 17:03:01.
