data_PCOD9526106
_publ_section_title
;
Structure prediction by ZEFSAII (Michael W. Deem and Ramdas Pophale) SiO2 
 PCOD9526106
Probable space group: I B A M
;
_chemical_formula_sum "Si O2"
_cell_formula_units_Z 96
_cell_length_a 17.517439
_cell_length_b 11.933505
_cell_length_c 22.307087
_cell_angle_alpha 90.000000
_cell_angle_beta 90.000000
_cell_angle_gamma 90.000000
_cell_volume 4663.172641
_symmetry_space_group_name_H-M "I B A M"
_symmetry_group_IT_number 72
_symmetry_cell_setting 'orthorhombic'
loop_
_space_group_symop_operation_xyz
x,y,z
-x,-y,z
x,-y,1/2-z
-x,y,1/2-z
-x,-y,-z
x,y,-z
-x,y,1/2+z
x,-y,1/2+z
1/2+x,1/2+y,1/2+z
1/2-x,1/2-y,1/2+z
1/2+x,1/2-y,-z
1/2-x,1/2+y,-z
1/2-x,1/2-y,1/2-z
1/2+x,1/2+y,1/2-z
1/2-x,1/2+y,z
1/2+x,1/2-y,z
loop_
_atom_site_type_symbol
_atom_site_label
_atom_site_fract_x
_atom_site_fract_y
_atom_site_fract_z
Si Si1 0.580382 0.251478 0.129457
Si Si2 0.159006 0.478456 0.870230
Si Si3 0.320621 0.568228 0.101106
Si Si4 0.536817 0.888089 0.184140
Si Si5 0.100816 0.547454 0.000000
Si Si6 0.986001 0.260013 0.500000
Si Si7 0.259026 0.213083 0.000000
Si Si8 0.130029 0.093055 0.500000
O O1 0.623307 0.365570 0.145397
O O2 0.496008 0.222684 0.154192
O O3 0.632331 0.145387 0.149358
O O4 0.564583 0.255008 0.058595
O O5 0.249066 0.499880 0.873050
O O6 0.123541 0.577653 0.828152
O O7 0.123626 0.488810 0.937682
O O8 0.283387 0.666026 0.058696
O O9 0.367448 0.485718 0.058053
O O10 0.500000 0.885836 0.250000
O O11 0.500000 0.000000 0.154134
O O12 0.020520 0.613537 0.000000
O O13 0.161068 0.649115 0.000000
O O14 0.055716 0.171522 0.500000
O O15 0.287846 0.340594 0.000000
#
# Coordination Sequence:
#
# PCOD9526106 Si02
#       8
#    16  16  16  16   8   8   8   8
#     4  11  21  32  53  81 106 139 187 220 268 339
#     4  10  19  34  54  78 111 144 175 227 274 325
#     4  10  20  32  49  76 111 147 180 213 271 331
#     4   9  19  36  57  80 104 134 180 241 287 319
#     4   9  16  27  48  76 104 132 170 203 264 319
#     4  11  20  31  51  81 112 144 183 223 269 332
#     4   8  16  29  45  67 104 147 171 197 248 323
#     4  10  20  33  48  73 121 154 177 222 269 322
#
# _framework density 20.586842000000001
#
# number of rings (size 3 to 8) (size 9 to 14) (size 15 to 20)
#    0.000    2.167    1.667    3.000    0.000    2.000 
#    0.000    0.833    0.000    0.000    0.000    1.167 
#    0.000    0.000    0.000    0.000    0.000    0.000 
#
# Total GULP energy -267374.554061 kJ/mol
# GULP energy per Si atom -5570.303210 kJ/mol
# Density = 2.053999 g / cm^3
# Si number density = 20.586842 Si / 1000 Ang^3
#
#
#
# Elastic Constant Matrix: (Units=GPa)
#
#
# Indices 1 2 3 4 5 6 
#
# 1 79.7274 33.9378 2.0511 0.0000 0.0000 0.0000
# 2 33.9378 90.4277 1.1949 0.0000 0.0000 0.0000
# 3 2.0511 1.1949 45.8502 0.0000 0.0000 0.0000
# 4 0.0000 0.0000 0.0000 -7.8932 0.0000 0.0000
# 5 0.0000 0.0000 0.0000 0.0000 1.1632 0.0000
# 6 0.0000 0.0000 0.0000 0.0000 0.0000 35.3609
#
#
#
# Elastic Compliance Matrix: (Units=1/GPa)
#
#
# Indices 1 2 3 4 5 6 
#
# 1 0.014940 -0.005600 -0.000522 0.000000 0.000000 0.000000
# 2 -0.005600 0.013162 -0.000092 0.000000 0.000000 0.000000
# 3 -0.000522 -0.000092 0.021836 0.000000 0.000000 0.000000
# 4 0.000000 0.000000 0.000000 -0.126691 0.000000 0.000000
# 5 0.000000 0.000000 0.000000 0.000000 0.859715 0.000000
# 6 0.000000 0.000000 0.000000 0.000000 0.000000 0.028280
#
#
# Mechanical properties :
#
#
# Convention : Reuss Voigt Hill
#
# Bulk Modulus (GPa) = 26.66136 32.26365 29.46250
# Shear Modulus (GPa) = 5.97962 17.64760 11.81361
#
# Velocity S-wave (km/s) = 1.70613 2.93102 2.39810
# Velocity P-wave (km/s) = 4.10609 5.21157 4.69151
#
# Compressibility (1/GPa) = 0.03750747
#
# Stress axis : x y z
#
# Youngs Moduli (GPa) = 66.93439 75.97905 45.79607
#
# Poissons Ratio (x) = 0.42549 0.02392
# Poissons Ratio (y) = 0.37484 0.00424
# Poissons Ratio (z) = 0.03497 0.00703
#
# Static dielectric constant tensor:
#      x y z
#    x 1.812540 0.000000 0.000000 
#    y 0.000000 1.790030 0.000000 
#    z 0.000000 0.000000 1.778910 
# 
# From -- ./inp_files/39766.got.cif
#   From: 2010.05.17/outbox.cif.g08.bks.cpg/sg72_20_cif.got.tgz:39766.got - 2010.06.03 17:03:01.
