data_PCOD9526928
_publ_section_title
;
Structure prediction by ZEFSAII (Michael W. Deem and Ramdas Pophale) SiO2 
 PCOD9526928
Probable space group: I B A M
;
_chemical_formula_sum "Si O2"
_cell_formula_units_Z 96
_cell_length_a 28.969388
_cell_length_b 20.692410
_cell_length_c 8.647331
_cell_angle_alpha 90.000000
_cell_angle_beta 90.000000
_cell_angle_gamma 90.000000
_cell_volume 5183.611904
_symmetry_space_group_name_H-M "I B A M"
_symmetry_group_IT_number 72
_symmetry_cell_setting 'orthorhombic'
loop_
_space_group_symop_operation_xyz
x,y,z
-x,-y,z
x,-y,1/2-z
-x,y,1/2-z
-x,-y,-z
x,y,-z
-x,y,1/2+z
x,-y,1/2+z
1/2+x,1/2+y,1/2+z
1/2-x,1/2-y,1/2+z
1/2+x,1/2-y,-z
1/2-x,1/2+y,-z
1/2-x,1/2-y,1/2-z
1/2+x,1/2+y,1/2-z
1/2-x,1/2+y,z
1/2+x,1/2-y,z
loop_
_atom_site_type_symbol
_atom_site_label
_atom_site_fract_x
_atom_site_fract_y
_atom_site_fract_z
Si Si1 0.787259 0.837704 0.683522
Si Si2 0.133720 0.072317 0.186265
Si Si3 0.409231 0.806492 0.679538
Si Si4 0.051458 0.172253 0.814419
Si Si5 0.812854 0.700991 0.178827
Si Si6 0.948730 0.564113 0.817926
O O1 0.795611 0.825136 0.500000
O O2 0.820819 0.894325 0.740169
O O3 0.798482 0.774847 0.786429
O O4 0.731904 0.844313 0.700239
O O5 0.089131 0.116957 0.225491
O O6 0.128103 0.000000 0.250000
O O7 0.138098 0.071459 0.000000
O O8 0.421748 0.810013 0.500000
O O9 0.429369 0.740014 0.748308
O O10 0.354536 0.809889 0.705408
O O11 0.427608 0.868444 0.768707
O O12 0.000000 0.159763 0.750000
O O13 0.049102 0.176608 0.000000
O O14 0.828299 0.695700 0.000000
O O15 0.924749 0.500000 0.750000
O O16 0.000000 0.565232 0.750000
O O17 0.950492 0.557832 0.000000
#
# Coordination Sequence:
#
# PCOD9526928 Si02
#       6
#    16  16  16  16  16  16
#     4  10  20  36  60  88 118 153 194 239 292 353
#     4  11  24  41  63  87 121 161 206 255 310 368
#     4  12  23  37  60  90 122 160 200 247 301 356
#     4  11  24  41  61  88 120 158 203 259 310 363
#     4  10  20  35  58  89 121 152 192 241 292 349
#     4  11  22  39  60  84 117 155 198 243 292 356
#
# _framework density 18.519905000000001
#
# number of rings (size 3 to 8) (size 9 to 14) (size 15 to 20)
#    0.000    1.167    1.667    6.000    0.000    4.333 
#    0.000    2.500    0.000    4.000    0.000    0.000 
#    0.000    0.000    0.000    0.000    0.000    0.000 
#
# Total GULP energy -268032.988928 kJ/mol
# GULP energy per Si atom -5584.020603 kJ/mol
# Density = 1.847775 g / cm^3
# Si number density = 18.519905 Si / 1000 Ang^3
#
#
#
# Elastic Constant Matrix: (Units=GPa)
#
#
# Indices 1 2 3 4 5 6 
#
# 1 80.5050 50.7058 25.6608 0.0000 0.0000 0.0000
# 2 50.7058 132.9603 41.8032 0.0000 0.0000 0.0000
# 3 25.6608 41.8032 103.2295 0.0000 0.0000 0.0000
# 4 0.0000 0.0000 0.0000 30.9134 0.0000 0.0000
# 5 0.0000 0.0000 0.0000 0.0000 26.3009 0.0000
# 6 0.0000 0.0000 0.0000 0.0000 0.0000 -8.9055
#
#
#
# Elastic Compliance Matrix: (Units=1/GPa)
#
#
# Indices 1 2 3 4 5 6 
#
# 1 0.016634 -0.005779 -0.001794 0.000000 0.000000 0.000000
# 2 -0.005779 0.010626 -0.002867 0.000000 0.000000 0.000000
# 3 -0.001794 -0.002867 0.011294 0.000000 0.000000 0.000000
# 4 0.000000 0.000000 0.000000 0.032348 0.000000 0.000000
# 5 0.000000 0.000000 0.000000 0.000000 0.038022 0.000000
# 6 0.000000 0.000000 0.000000 0.000000 0.000000 -0.112290
#
#
# Mechanical properties :
#
#
# Convention : Reuss Voigt Hill
#
# Bulk Modulus (GPa) = 56.58209 61.44828 59.01519
# Shear Modulus (GPa) = 213.62769 22.89675 118.26222
#
# Velocity S-wave (km/s) = 10.75178 3.51997 7.99972
# Velocity P-wave (km/s) = 13.59238 7.05492 10.82877
#
# Compressibility (1/GPa) = 0.01767344
#
# Stress axis : x y z
#
# Youngs Moduli (GPa) = 60.11934 94.10650 88.54221
#
# Poissons Ratio (x) = 0.54386 0.15889
# Poissons Ratio (y) = 0.34744 0.25381
# Poissons Ratio (z) = 0.10788 0.26976
#
# Static dielectric constant tensor:
#      x y z
#    x 1.665500 0.000000 0.000000 
#    y 0.000000 1.660700 0.000000 
#    z 0.000000 0.000000 1.625200 
# 
# From -- ./inp_files/5967.got.cif
#   From: 2010.05.17/outbox.cif.g08.bks.cpg/sg72_3_cif.got.tgz:5967.got - 2010.06.03 17:03:01.
