data_PCOD9526007
_publ_section_title
;
Structure prediction by ZEFSAII (Michael W. Deem and Ramdas Pophale) SiO2 
 PCOD9526007
Probable space group: I B A M
;
_chemical_formula_sum "Si O2"
_cell_formula_units_Z 96
_cell_length_a 8.906161
_cell_length_b 20.745170
_cell_length_c 22.542874
_cell_angle_alpha 90.000000
_cell_angle_beta 90.000000
_cell_angle_gamma 90.000000
_cell_volume 4165.017433
_symmetry_space_group_name_H-M "I B A M"
_symmetry_group_IT_number 72
_symmetry_cell_setting 'orthorhombic'
loop_
_space_group_symop_operation_xyz
x,y,z
-x,-y,z
x,-y,1/2-z
-x,y,1/2-z
-x,-y,-z
x,y,-z
-x,y,1/2+z
x,-y,1/2+z
1/2+x,1/2+y,1/2+z
1/2-x,1/2-y,1/2+z
1/2+x,1/2-y,-z
1/2-x,1/2+y,-z
1/2-x,1/2-y,1/2-z
1/2+x,1/2+y,1/2-z
1/2-x,1/2+y,z
1/2+x,1/2-y,z
loop_
_atom_site_type_symbol
_atom_site_label
_atom_site_fract_x
_atom_site_fract_y
_atom_site_fract_z
Si Si1 0.670429 0.694372 0.791478
Si Si2 0.573361 0.753521 0.364451
Si Si3 0.896371 0.059311 0.165501
Si Si4 0.927932 0.352549 0.935067
Si Si5 0.397432 0.627032 0.932731
Si Si6 0.343897 0.038369 0.566509
O O1 0.750000 0.750000 0.750000
O O2 0.502176 0.714240 0.810493
O O3 0.782674 0.705258 0.847151
O O4 0.658959 0.615310 0.787809
O O5 0.442964 0.802117 0.383254
O O6 0.603535 0.702762 0.416387
O O7 0.759744 0.033447 0.124294
O O8 0.999229 0.094095 0.115647
O O9 0.000000 0.000000 0.187277
O O10 0.776865 0.393982 0.927077
O O11 0.084191 0.390163 0.935542
O O12 0.909014 0.321951 0.000000
O O13 0.447583 0.616030 0.000000
O O14 0.277747 0.025419 0.500000
O O15 0.500000 0.000000 0.571656
#
# Coordination Sequence:
#
# PCOD9526007 Si02
#       6
#    16  16  16  16  16  16
#     4  11  24  42  68  96 124 168 231 297 355 407
#     4  11  20  39  61  92 125 168 219 278 342 399
#     4  11  23  40  64  96 135 179 224 280 349 419
#     4  10  19  33  54  87 131 174 216 260 316 396
#     4  10  21  35  58  93 138 180 219 268 329 412
#     4  10  20  34  57  91 135 185 223 259 321 412
#
# _framework density 23.049123000000002
#
# number of rings (size 3 to 8) (size 9 to 14) (size 15 to 20)
#    0.000    1.500    3.333    2.500    0.000    2.667 
#    0.000    0.000    0.000    8.000    0.000    1.167 
#    0.000    0.000    0.000    0.000    0.000    0.000 
#
# Total GULP energy -267324.806665 kJ/mol
# GULP energy per Si atom -5569.266806 kJ/mol
# Density = 2.299666 g / cm^3
# Si number density = 23.049123 Si / 1000 Ang^3
#
#
#
# Elastic Constant Matrix: (Units=GPa)
#
#
# Indices 1 2 3 4 5 6 
#
# 1 86.1116 16.5809 12.0773 0.0000 0.0000 0.0000
# 2 16.5809 109.5869 36.9808 0.0000 0.0000 0.0000
# 3 12.0773 36.9808 69.4519 0.0000 0.0000 0.0000
# 4 0.0000 0.0000 0.0000 31.6371 0.0000 0.0000
# 5 0.0000 0.0000 0.0000 0.0000 11.0463 0.0000
# 6 0.0000 0.0000 0.0000 0.0000 0.0000 42.2766
#
#
#
# Elastic Compliance Matrix: (Units=1/GPa)
#
#
# Indices 1 2 3 4 5 6 
#
# 1 0.012068 -0.001363 -0.001373 0.000000 0.000000 0.000000
# 2 -0.001363 0.011278 -0.005768 0.000000 0.000000 0.000000
# 3 -0.001373 -0.005768 0.017709 0.000000 0.000000 0.000000
# 4 0.000000 0.000000 0.000000 0.031608 0.000000 0.000000
# 5 0.000000 0.000000 0.000000 0.000000 0.090528 0.000000
# 6 0.000000 0.000000 0.000000 0.000000 0.000000 0.023654
#
#
# Mechanical properties :
#
#
# Convention : Reuss Voigt Hill
#
# Bulk Modulus (GPa) = 41.58563 44.04758 42.81661
# Shear Modulus (GPa) = 23.59965 30.29276 26.94621
#
# Velocity S-wave (km/s) = 3.20329 3.62922 3.42289
# Velocity P-wave (km/s) = 5.63585 6.05916 5.85133
#
# Compressibility (1/GPa) = 0.02404677
#
# Stress axis : x y z
#
# Youngs Moduli (GPa) = 82.86538 88.66951 56.46995
#
# Poissons Ratio (x) = 0.12082 0.07753
# Poissons Ratio (y) = 0.11291 0.32573
# Poissons Ratio (z) = 0.11377 0.51146
#
# Static dielectric constant tensor:
#      x y z
#    x 1.860430 0.000000 0.000000 
#    y 0.000000 2.004240 0.000000 
#    z 0.000000 0.000000 1.916090 
# 
# From -- ./inp_files/47305.got.cif
#   From: 2010.05.17/outbox.cif.g08.bks.cpg/sg72_24_cif.got.tgz:47305.got - 2010.06.03 17:03:01.
