data_PCOD9526580
_publ_section_title
;
Structure prediction by ZEFSAII (Michael W. Deem and Ramdas Pophale) SiO2 
 PCOD9526580
Probable space group: I B A M
;
_chemical_formula_sum "Si O2"
_cell_formula_units_Z 96
_cell_length_a 9.077617
_cell_length_b 19.773202
_cell_length_c 26.494722
_cell_angle_alpha 90.000000
_cell_angle_beta 90.000000
_cell_angle_gamma 90.000000
_cell_volume 4755.631830
_symmetry_space_group_name_H-M "I B A M"
_symmetry_group_IT_number 72
_symmetry_cell_setting 'orthorhombic'
loop_
_space_group_symop_operation_xyz
x,y,z
-x,-y,z
x,-y,1/2-z
-x,y,1/2-z
-x,-y,-z
x,y,-z
-x,y,1/2+z
x,-y,1/2+z
1/2+x,1/2+y,1/2+z
1/2-x,1/2-y,1/2+z
1/2+x,1/2-y,-z
1/2-x,1/2+y,-z
1/2-x,1/2-y,1/2-z
1/2+x,1/2+y,1/2-z
1/2-x,1/2+y,z
1/2+x,1/2-y,z
loop_
_atom_site_type_symbol
_atom_site_label
_atom_site_fract_x
_atom_site_fract_y
_atom_site_fract_z
Si Si1 0.459792 0.761300 0.622270
Si Si2 0.297354 0.681849 0.058361
Si Si3 0.892511 0.437906 0.555974
Si Si4 0.658687 0.531545 0.588945
Si Si5 0.676926 0.485393 0.694211
Si Si6 0.292343 0.153828 0.351755
O O1 0.577210 0.725751 0.585366
O O2 0.353379 0.808408 0.589093
O O3 0.562587 0.801692 0.662392
O O4 0.346665 0.704244 0.642492
O O5 0.341994 0.604393 0.064936
O O6 0.280259 0.700418 0.000000
O O7 0.939290 0.414272 0.500000
O O8 0.742144 0.479249 0.553985
O O9 0.853731 0.379742 0.595905
O O10 0.000000 0.500000 0.572257
O O11 0.500000 0.500000 0.595554
O O12 0.726678 0.530438 0.645943
O O13 0.500000 0.500000 0.697473
O O14 0.736716 0.500000 0.750000
O O15 0.729995 0.409694 0.679736
#
# Coordination Sequence:
#
# PCOD9526580 Si02
#       6
#    16  16  16  16  16  16
#     4  10  22  36  53  79 119 158 192 230 274 334
#     4  11  21  34  53  78 112 156 200 233 273 332
#     4  10  20  33  51  78 114 152 191 238 284 323
#     4  10  20  33  53  80 106 137 180 237 292 332
#     4   9  18  36  64  88 108 138 186 244 300 348
#     4  10  21  37  58  86 117 155 194 234 285 344
#
# _framework density 20.186591
#
# number of rings (size 3 to 8) (size 9 to 14) (size 15 to 20)
#    0.000    2.000    0.000    5.000    0.000    8.000 
#    0.000    0.000    0.000   36.000    0.000    3.500 
#    0.000    0.000    0.000    0.000    0.000    0.000 
#
# Total GULP energy -267253.037721 kJ/mol
# GULP energy per Si atom -5567.771619 kJ/mol
# Density = 2.014065 g / cm^3
# Si number density = 20.186591 Si / 1000 Ang^3
#
#
#
# Elastic Constant Matrix: (Units=GPa)
#
#
# Indices 1 2 3 4 5 6 
#
# 1 114.0090 39.9819 23.8259 0.0000 0.0000 0.0000
# 2 39.9819 90.1427 8.8121 0.0000 0.0000 0.0000
# 3 23.8259 8.8121 73.6827 0.0000 0.0000 0.0000
# 4 0.0000 0.0000 0.0000 6.3213 0.0000 0.0000
# 5 0.0000 0.0000 0.0000 0.0000 5.6784 0.0000
# 6 0.0000 0.0000 0.0000 0.0000 0.0000 44.2205
#
#
#
# Elastic Compliance Matrix: (Units=1/GPa)
#
#
# Indices 1 2 3 4 5 6 
#
# 1 0.011010 -0.004589 -0.003011 0.000000 0.000000 0.000000
# 2 -0.004589 0.013137 -0.000087 0.000000 0.000000 0.000000
# 3 -0.003011 -0.000087 0.014556 0.000000 0.000000 0.000000
# 4 0.000000 0.000000 0.000000 0.158194 0.000000 0.000000
# 5 0.000000 0.000000 0.000000 0.000000 0.176107 0.000000
# 6 0.000000 0.000000 0.000000 0.000000 0.000000 0.022614
#
#
# Mechanical properties :
#
#
# Convention : Reuss Voigt Hill
#
# Bulk Modulus (GPa) = 42.86683 47.00826 44.93755
# Shear Modulus (GPa) = 11.93976 24.92501 18.43238
#
# Velocity S-wave (km/s) = 2.43465 3.51769 3.02503
# Velocity P-wave (km/s) = 5.40229 6.31160 5.87457
#
# Compressibility (1/GPa) = 0.02332806
#
# Stress axis : x y z
#
# Youngs Moduli (GPa) = 90.82781 76.11832 68.70078
#
# Poissons Ratio (x) = 0.34930 0.20688
# Poissons Ratio (y) = 0.41680 0.00600
# Poissons Ratio (z) = 0.27351 0.00665
#
# Static dielectric constant tensor:
#      x y z
#    x 1.727980 0.000000 0.000000 
#    y 0.000000 1.732690 0.000000 
#    z 0.000000 0.000000 1.762530 
# 
# From -- ./inp_files/47309.got.cif
#   From: 2010.05.17/outbox.cif.g08.bks.cpg/sg72_24_cif.got.tgz:47309.got - 2010.06.03 17:03:01.
