data_PCOD9526190
_publ_section_title
;
Structure prediction by ZEFSAII (Michael W. Deem and Ramdas Pophale) SiO2 
 PCOD9526190
Probable space group: I B A M
;
_chemical_formula_sum "Si O2"
_cell_formula_units_Z 88
_cell_length_a 18.051960
_cell_length_b 9.264572
_cell_length_c 20.811841
_cell_angle_alpha 90.000000
_cell_angle_beta 90.000000
_cell_angle_gamma 90.000000
_cell_volume 3480.648942
_symmetry_space_group_name_H-M "I B A M"
_symmetry_group_IT_number 72
_symmetry_cell_setting 'orthorhombic'
loop_
_space_group_symop_operation_xyz
x,y,z
-x,-y,z
x,-y,1/2-z
-x,y,1/2-z
-x,-y,-z
x,y,-z
-x,y,1/2+z
x,-y,1/2+z
1/2+x,1/2+y,1/2+z
1/2-x,1/2-y,1/2+z
1/2+x,1/2-y,-z
1/2-x,1/2+y,-z
1/2-x,1/2-y,1/2-z
1/2+x,1/2+y,1/2-z
1/2-x,1/2+y,z
1/2+x,1/2-y,z
loop_
_atom_site_type_symbol
_atom_site_label
_atom_site_fract_x
_atom_site_fract_y
_atom_site_fract_z
Si Si1 0.435342 0.358832 0.500000
Si Si2 0.166757 0.610201 0.500000
Si Si3 0.601410 0.044174 0.137853
Si Si4 0.162547 0.131882 0.500000
Si Si5 0.751652 0.424194 0.187233
Si Si6 0.489920 0.254482 0.867042
Si Si7 0.161865 0.152023 0.640750
O O1 0.356080 0.277426 0.500000
O O2 0.593911 0.478748 0.500000
O O3 0.480894 0.312167 0.563982
O O4 0.128052 0.559598 0.564827
O O5 0.252843 0.577164 0.500000
O O6 0.672020 0.009731 0.179567
O O7 0.565666 0.193517 0.164081
O O8 0.551875 0.900539 0.134894
O O9 0.157398 0.213589 0.567812
O O10 0.715854 0.500000 0.250000
O O11 0.780695 0.260893 0.177129
O O12 0.695122 0.490765 0.135201
O O13 0.424505 0.352770 0.838115
#
# Coordination Sequence:
#
# PCOD9526190 Si02
#       7
#     8   8  16   8  16  16  16
#     4  10  22  36  59  91 141 182 208 273 339 415
#     4  10  19  34  59  93 125 166 220 278 332 402
#     4   9  18  37  64  91 125 173 228 275 324 407
#     4  12  25  36  62  99 139 169 219 272 348 406
#     4  11  24  44  68  97 130 175 229 286 330 387
#     4   9  19  37  59  91 130 177 219 265 342 406
#     4  11  25  41  67  96 134 174 222 279 335 408
#
# _framework density 25.282641000000002
#
# number of rings (size 3 to 8) (size 9 to 14) (size 15 to 20)
#    0.000    1.818    1.818    1.636    2.545    5.818 
#    0.000    7.273    0.000    2.182    0.000    0.000 
#    0.000    0.000    0.000    0.000    0.000    0.000 
#
# Total GULP energy -244954.442577 kJ/mol
# GULP energy per Si atom -5567.146422 kJ/mol
# Density = 2.522510 g / cm^3
# Si number density = 25.282641 Si / 1000 Ang^3
#
#
#
# Elastic Constant Matrix: (Units=GPa)
#
#
# Indices 1 2 3 4 5 6 
#
# 1 95.9922 44.6142 -26.0224 0.0000 0.0000 0.0000
# 2 44.6142 77.5740 -9.0333 0.0000 0.0000 0.0000
# 3 -26.0224 -9.0333 40.2902 0.0000 0.0000 0.0000
# 4 0.0000 0.0000 0.0000 16.7192 0.0000 0.0000
# 5 0.0000 0.0000 0.0000 0.0000 19.0743 0.0000
# 6 0.0000 0.0000 0.0000 0.0000 0.0000 40.1056
#
#
#
# Elastic Compliance Matrix: (Units=1/GPa)
#
#
# Indices 1 2 3 4 5 6 
#
# 1 0.016869 -0.008659 0.008954 0.000000 0.000000 0.000000
# 2 -0.008659 0.017681 -0.001628 0.000000 0.000000 0.000000
# 3 0.008954 -0.001628 0.030238 0.000000 0.000000 0.000000
# 4 0.000000 0.000000 0.000000 0.059811 0.000000 0.000000
# 5 0.000000 0.000000 0.000000 0.000000 0.052427 0.000000
# 6 0.000000 0.000000 0.000000 0.000000 0.000000 0.024934
#
#
# Mechanical properties :
#
#
# Convention : Reuss Voigt Hill
#
# Bulk Modulus (GPa) = 16.09750 25.88592 20.99171
# Shear Modulus (GPa) = 22.18914 28.79967 25.49441
#
# Velocity S-wave (km/s) = 2.96572 3.37873 3.17894
# Velocity P-wave (km/s) = 4.25537 5.04796 4.66852
#
# Compressibility (1/GPa) = 0.06212145
#
# Stress axis : x y z
#
# Youngs Moduli (GPa) = 59.27901 56.55676 33.07098
#
# Poissons Ratio (x) = 0.48974 -0.29612
# Poissons Ratio (y) = 0.51331 0.05385
# Poissons Ratio (z) = -0.53079 0.09210
#
# Static dielectric constant tensor:
#      x y z
#    x 2.172750 0.000000 0.000000 
#    y 0.000000 2.061910 0.000000 
#    z 0.000000 0.000000 1.986220 
# 
# From -- ./inp_files/36933.got.cif
#   From: 2010.05.17/outbox.cif.g08.bks.cpg/sg72_19_cif.got.tgz:36933.got - 2010.06.03 17:03:01.
