data_PCOD9526491
_publ_section_title
;
Structure prediction by ZEFSAII (Michael W. Deem and Ramdas Pophale) SiO2 
 PCOD9526491
Probable space group: I B A M
;
_chemical_formula_sum "Si O2"
_cell_formula_units_Z 88
_cell_length_a 7.516932
_cell_length_b 33.044612
_cell_length_c 14.758239
_cell_angle_alpha 90.000000
_cell_angle_beta 90.000000
_cell_angle_gamma 90.000000
_cell_volume 3665.859514
_symmetry_space_group_name_H-M "I B A M"
_symmetry_group_IT_number 72
_symmetry_cell_setting 'orthorhombic'
loop_
_space_group_symop_operation_xyz
x,y,z
-x,-y,z
x,-y,1/2-z
-x,y,1/2-z
-x,-y,-z
x,y,-z
-x,y,1/2+z
x,-y,1/2+z
1/2+x,1/2+y,1/2+z
1/2-x,1/2-y,1/2+z
1/2+x,1/2-y,-z
1/2-x,1/2+y,-z
1/2-x,1/2-y,1/2-z
1/2+x,1/2+y,1/2-z
1/2-x,1/2+y,z
1/2+x,1/2-y,z
loop_
_atom_site_type_symbol
_atom_site_label
_atom_site_fract_x
_atom_site_fract_y
_atom_site_fract_z
Si Si1 0.516074 0.188583 0.896217
Si Si2 0.290882 0.561029 0.500000
Si Si3 0.294214 0.543500 0.789711
Si Si4 0.588402 0.272986 0.395584
Si Si5 0.500000 0.331004 0.250000
Si Si6 0.297134 0.529220 0.000000
Si Si7 0.683924 0.886519 0.323923
O O1 0.408424 0.227046 0.859386
O O2 0.717086 0.206873 0.896153
O O3 0.528685 0.145379 0.847994
O O4 0.460824 0.181243 0.000000
O O5 0.207283 0.516022 0.500000
O O6 0.491640 0.542895 0.500000
O O7 0.245449 0.589397 0.585233
O O8 0.244545 0.500000 0.750000
O O9 0.500000 0.549136 0.750000
O O10 0.262026 0.544223 0.897515
O O11 0.176969 0.578225 0.748114
O O12 0.525768 0.271364 0.500000
O O13 0.466225 0.301351 0.334428
O O14 0.340978 0.358785 0.216714
#
# Coordination Sequence:
#
# PCOD9526491 Si02
#       7
#    16   8  16  16   8   8  16
#     4   9  18  32  53  72  98 131 170 212 252 298
#     4  11  16  26  42  58  86 124 168 198 234 290
#     4  11  18  27  39  60  88 124 166 196 242 295
#     4   9  19  34  49  71  95 128 170 213 258 301
#     4  10  20  30  47  68  94 130 165 208 252 294
#     4  11  18  26  40  56  88 126 164 200 236 296
#     4  11  18  28  43  66  89 124 169 202 239 299
#
# _framework density 24.005282000000001
#
# number of rings (size 3 to 8) (size 9 to 14) (size 15 to 20)
#    0.000    1.818    5.455    1.091    1.273    2.909 
#    1.636    0.000    0.000    0.000    2.364    0.000 
#    0.000    0.000    0.000   13.909    2.182  155.273 
#
# Total GULP energy -245419.559847 kJ/mol
# GULP energy per Si atom -5577.717269 kJ/mol
# Density = 2.395065 g / cm^3
# Si number density = 24.005282 Si / 1000 Ang^3
#
#
#
# Elastic Constant Matrix: (Units=GPa)
#
#
# Indices 1 2 3 4 5 6 
#
# 1 44.0360 53.6317 44.4993 0.0000 0.0000 0.0000
# 2 53.6317 188.0618 63.1397 0.0001 0.0000 0.0000
# 3 44.4993 63.1397 155.3142 0.0000 0.0001 0.0000
# 4 0.0000 0.0001 0.0000 63.9404 0.0001 -0.0001
# 5 0.0000 0.0000 0.0001 0.0001 -3.6155 0.0000
# 6 0.0000 0.0000 0.0000 -0.0001 0.0000 28.7333
#
#
#
# Elastic Compliance Matrix: (Units=1/GPa)
#
#
# Indices 1 2 3 4 5 6 
#
# 1 0.042539 -0.009310 -0.008403 0.000000 0.000000 0.000000
# 2 -0.009310 0.008195 -0.000664 0.000000 0.000000 0.000000
# 3 -0.008403 -0.000664 0.009116 0.000000 0.000000 0.000000
# 4 0.000000 0.000000 0.000000 0.015640 0.000000 0.000000
# 5 0.000000 0.000000 0.000000 0.000000 -0.276587 0.000000
# 6 0.000000 0.000000 0.000000 0.000000 0.000000 0.034803
#
#
# Mechanical properties :
#
#
# Convention : Reuss Voigt Hill
#
# Bulk Modulus (GPa) = 43.29793 78.88372 61.09082
# Shear Modulus (GPa) = -41.03716 32.88772 -4.07472
#
# Velocity S-wave (km/s) = -4.13910 3.70539 -1.30427
# Velocity P-wave (km/s) = 2.18332 7.15814 4.82037
#
# Compressibility (1/GPa) = 0.02309579
#
# Stress axis : x y z
#
# Youngs Moduli (GPa) = 23.50786 122.01865 109.69495
#
# Poissons Ratio (x) = 1.13600 0.92178
# Poissons Ratio (y) = 0.21886 0.07287
# Poissons Ratio (z) = 0.19754 0.08105
#
# Static dielectric constant tensor:
#      x y z
#    x -1.224550 0.000000 0.000010 
#    y 0.000000 1.757760 0.000000 
#    z 0.000010 0.000000 1.677570 
# 
# From -- ./inp_files/20624.got.cif
#   From: 2010.05.17/outbox.cif.g08.bks.cpg/sg72_11_cif.got.tgz:20624.got - 2010.06.03 17:03:01.
