data_PCOD9526968
_publ_section_title
;
Structure prediction by ZEFSAII (Michael W. Deem and Ramdas Pophale) SiO2 
 PCOD9526968
Probable space group: I B A M
;
_chemical_formula_sum "Si O2"
_cell_formula_units_Z 68
_cell_length_a 15.314914
_cell_length_b 6.959989
_cell_length_c 28.303408
_cell_angle_alpha 90.000000
_cell_angle_beta 90.000000
_cell_angle_gamma 90.000000
_cell_volume 3016.906478
_symmetry_space_group_name_H-M "I B A M"
_symmetry_group_IT_number 72
_symmetry_cell_setting 'orthorhombic'
loop_
_space_group_symop_operation_xyz
x,y,z
-x,-y,z
x,-y,1/2-z
-x,y,1/2-z
-x,-y,-z
x,y,-z
-x,y,1/2+z
x,-y,1/2+z
1/2+x,1/2+y,1/2+z
1/2-x,1/2-y,1/2+z
1/2+x,1/2-y,-z
1/2-x,1/2+y,-z
1/2-x,1/2-y,1/2-z
1/2+x,1/2+y,1/2-z
1/2-x,1/2+y,z
1/2+x,1/2-y,z
loop_
_atom_site_type_symbol
_atom_site_label
_atom_site_fract_x
_atom_site_fract_y
_atom_site_fract_z
Si Si1 0.000000 0.000000 0.750000
Si Si2 0.123573 0.817289 0.898045
Si Si3 0.816227 0.619206 0.101037
Si Si4 0.468003 0.777628 0.830497
Si Si5 0.369083 0.842482 0.000000
Si Si6 0.068970 0.215483 0.500000
O O1 0.049386 0.850158 0.715693
O O2 0.142878 0.590860 0.902711
O O3 0.216736 0.900122 0.882910
O O4 0.096022 0.881691 0.950642
O O5 0.046547 0.820032 0.860212
O O6 0.882748 0.721743 0.136409
O O7 0.818514 0.705623 0.048130
O O8 0.500000 0.000000 0.820811
O O9 0.465314 0.751278 0.000000
O O10 0.387573 0.072081 0.000000
#
# Coordination Sequence:
#
# PCOD9526968 Si02
#       6
#     4  16  16  16   8   8
#     4  12  26  44  76  88 120 154 218 284 320 372
#     4  10  20  35  61  90 128 165 207 250 305 377
#     4  10  20  35  61  90 128 165 207 250 305 377
#     4  10  23  44  67  92 122 167 205 260 329 377
#     4   9  15  30  55  88 125 174 206 237 300 372
#     4   9  15  30  55  88 125 174 206 237 300 372
#
# _framework density 22.539643000000002
#
# number of rings (size 3 to 8) (size 9 to 14) (size 15 to 20)
#    0.000    2.118    2.353    1.059    3.294    0.000 
#    0.000    1.176    0.000    2.824    0.000    0.000 
#    0.000    0.000    0.000    0.000    0.000    0.000 
#
# Total GULP energy -190034.031882 kJ/mol
# GULP energy per Si atom -5589.236232 kJ/mol
# Density = 2.248834 g / cm^3
# Si number density = 22.539643 Si / 1000 Ang^3
#
#
#
# Elastic Constant Matrix: (Units=GPa)
#
#
# Indices 1 2 3 4 5 6 
#
# 1 117.7447 33.2564 48.2391 0.0000 0.0000 0.0000
# 2 33.2564 92.6776 54.3145 0.0000 0.0000 0.0000
# 3 48.2391 54.3145 121.9322 0.0000 0.0000 0.0000
# 4 0.0000 0.0000 0.0000 25.7183 0.0000 0.0000
# 5 0.0000 0.0000 0.0000 0.0000 1.8320 0.0000
# 6 0.0000 0.0000 0.0000 0.0000 0.0000 56.3990
#
#
#
# Elastic Compliance Matrix: (Units=1/GPa)
#
#
# Indices 1 2 3 4 5 6 
#
# 1 0.010348 -0.001778 -0.003302 0.000000 0.000000 0.000000
# 2 -0.001778 0.014908 -0.005937 0.000000 0.000000 0.000000
# 3 -0.003302 -0.005937 0.012152 0.000000 0.000000 0.000000
# 4 0.000000 0.000000 0.000000 0.038883 0.000000 0.000000
# 5 0.000000 0.000000 0.000000 0.000000 0.545859 0.000000
# 6 0.000000 0.000000 0.000000 0.000000 0.000000 0.017731
#
#
# Mechanical properties :
#
#
# Convention : Reuss Voigt Hill
#
# Bulk Modulus (GPa) = 65.04640 67.10826 66.07733
# Shear Modulus (GPa) = 7.49582 29.89283 18.69432
#
# Velocity S-wave (km/s) = 1.82561 3.64570 2.88305
# Velocity P-wave (km/s) = 5.77625 6.89634 6.36100
#
# Compressibility (1/GPa) = 0.01537364
#
# Stress axis : x y z
#
# Youngs Moduli (GPa) = 96.63796 67.07958 82.28969
#
# Poissons Ratio (x) = 0.11928 0.27170
# Poissons Ratio (y) = 0.17184 0.48856
# Poissons Ratio (z) = 0.31907 0.39826
#
# Static dielectric constant tensor:
#      x y z
#    x 1.878810 0.000000 0.000000 
#    y 0.000000 1.973140 0.000000 
#    z 0.000000 0.000000 1.833550 
# 
# From -- ./inp_files/44724.got.cif
#   From: 2010.05.17/outbox.cif.g08.bks.cpg/sg72_23_cif.got.tgz:44724.got - 2010.06.03 17:03:01.
