data_PCOD9526076
_publ_section_title
;
Structure prediction by ZEFSAII (Michael W. Deem and Ramdas Pophale) SiO2 
 PCOD9526076
Probable space group: I B A M
;
_chemical_formula_sum "Si O2"
_cell_formula_units_Z 80
_cell_length_a 19.486397
_cell_length_b 26.959191
_cell_length_c 8.547436
_cell_angle_alpha 90.000000
_cell_angle_beta 90.000000
_cell_angle_gamma 90.000000
_cell_volume 4490.288648
_symmetry_space_group_name_H-M "I B A M"
_symmetry_group_IT_number 72
_symmetry_cell_setting 'orthorhombic'
loop_
_space_group_symop_operation_xyz
x,y,z
-x,-y,z
x,-y,1/2-z
-x,y,1/2-z
-x,-y,-z
x,y,-z
-x,y,1/2+z
x,-y,1/2+z
1/2+x,1/2+y,1/2+z
1/2-x,1/2-y,1/2+z
1/2+x,1/2-y,-z
1/2-x,1/2+y,-z
1/2-x,1/2-y,1/2-z
1/2+x,1/2+y,1/2-z
1/2-x,1/2+y,z
1/2+x,1/2-y,z
loop_
_atom_site_type_symbol
_atom_site_label
_atom_site_fract_x
_atom_site_fract_y
_atom_site_fract_z
Si Si1 0.422792 0.553445 0.688346
Si Si2 0.668661 0.142886 0.812416
Si Si3 0.828361 0.856011 0.309944
Si Si4 0.422811 0.946462 0.313520
Si Si5 0.171902 0.252595 0.687923
O O1 0.398515 0.500000 0.750000
O O2 0.500000 0.560593 0.750000
O O3 0.423990 0.552380 0.500000
O O4 0.374412 0.598250 0.742968
O O5 0.748708 0.139128 0.760963
O O6 0.625053 0.098047 0.743589
O O7 0.641891 0.196875 0.757556
O O8 0.666906 0.140960 0.000000
O O9 0.827713 0.856854 0.500000
O O10 0.856821 0.801514 0.265328
O O11 0.500000 0.939053 0.250000
O O12 0.424794 0.948145 0.500000
O O13 0.398760 0.000000 0.250000
O O14 0.171909 0.256019 0.500000
O O15 0.250000 0.250000 0.750000
#
# Coordination Sequence:
#
# PCOD9526076 Si02
#       5
#    16  16  16  16  16
#     4  10  19  34  51  71  97 131 167 206 252 301
#     4  10  19  34  54  79 106 135 170 213 257 306
#     4   8  17  32  52  74 102 134 170 213 256 299
#     4  11  22  38  57  78 104 138 173 211 256 308
#     4   9  16  30  50  74 102 136 171 211 260 310
#
# _framework density 17.816227000000001
#
# number of rings (size 3 to 8) (size 9 to 14) (size 15 to 20)
#    0.000    2.400    0.000    6.000    0.000    0.800 
#    0.000   15.000    0.000    2.400    0.000    0.000 
#    0.000    0.000    0.000    0.000    0.000    0.000 
#
# Total GULP energy -223007.703656 kJ/mol
# GULP energy per Si atom -5575.192591 kJ/mol
# Density = 1.777568 g / cm^3
# Si number density = 17.816227 Si / 1000 Ang^3
#
#
#
# Elastic Constant Matrix: (Units=GPa)
#
#
# Indices 1 2 3 4 5 6 
#
# 1 49.2478 83.5339 24.8348 0.0000 0.0000 0.0000
# 2 83.5339 224.8575 56.7567 0.0000 0.0000 0.0000
# 3 24.8348 56.7567 91.9065 0.0000 0.0000 0.0000
# 4 0.0000 0.0000 0.0000 32.3198 0.0000 0.0000
# 5 0.0000 0.0000 0.0000 0.0000 20.1242 0.0000
# 6 0.0000 0.0000 0.0000 0.0000 0.0000 88.9495
#
#
#
# Elastic Compliance Matrix: (Units=1/GPa)
#
#
# Indices 1 2 3 4 5 6 
#
# 1 0.055451 -0.019923 -0.002680 0.000000 0.000000 0.000000
# 2 -0.019923 0.012427 -0.002291 0.000000 0.000000 0.000000
# 3 -0.002680 -0.002291 0.013019 0.000000 0.000000 0.000000
# 4 0.000000 0.000000 0.000000 0.030941 0.000000 0.000000
# 5 0.000000 0.000000 0.000000 0.000000 0.049691 0.000000
# 6 0.000000 0.000000 0.000000 0.000000 0.000000 0.011242
#
#
# Mechanical properties :
#
#
# Convention : Reuss Voigt Hill
#
# Bulk Modulus (GPa) = 32.14506 77.36251 54.75378
# Shear Modulus (GPa) = 21.46574 41.67113 31.56843
#
# Velocity S-wave (km/s) = 3.47485 4.84151 4.21395
# Velocity P-wave (km/s) = 5.84647 8.64699 7.38077
#
# Compressibility (1/GPa) = 0.03110898
#
# Stress axis : x y z
#
# Youngs Moduli (GPa) = 18.03401 80.47078 76.80849
#
# Poissons Ratio (x) = 1.60324 0.20586
# Poissons Ratio (y) = 0.35930 0.17594
# Poissons Ratio (z) = 0.04833 0.18432
#
# Static dielectric constant tensor:
#      x y z
#    x 1.577720 0.000000 0.000000 
#    y 0.000000 1.634760 0.000000 
#    z 0.000000 0.000000 1.604830 
# 
# From -- ./inp_files/4816.got.cif
#   From: 2010.05.17/outbox.cif.g08.bks.cpg/sg72_3_cif.got.tgz:4816.got - 2010.06.03 17:03:01.
