data_PCOD9526557
_publ_section_title
;
Structure prediction by ZEFSAII (Michael W. Deem and Ramdas Pophale) SiO2 
 PCOD9526557
Probable space group: I B A M
;
_chemical_formula_sum "Si O2"
_cell_formula_units_Z 80
_cell_length_a 9.329209
_cell_length_b 21.085092
_cell_length_c 17.805361
_cell_angle_alpha 90.000000
_cell_angle_beta 90.000000
_cell_angle_gamma 90.000000
_cell_volume 3502.443242
_symmetry_space_group_name_H-M "I B A M"
_symmetry_group_IT_number 72
_symmetry_cell_setting 'orthorhombic'
loop_
_space_group_symop_operation_xyz
x,y,z
-x,-y,z
x,-y,1/2-z
-x,y,1/2-z
-x,-y,-z
x,y,-z
-x,y,1/2+z
x,-y,1/2+z
1/2+x,1/2+y,1/2+z
1/2-x,1/2-y,1/2+z
1/2+x,1/2-y,-z
1/2-x,1/2+y,-z
1/2-x,1/2-y,1/2-z
1/2+x,1/2+y,1/2-z
1/2-x,1/2+y,z
1/2+x,1/2-y,z
loop_
_atom_site_type_symbol
_atom_site_label
_atom_site_fract_x
_atom_site_fract_y
_atom_site_fract_z
Si Si1 0.825649 0.231314 0.084400
Si Si2 0.071168 0.569836 0.675285
Si Si3 0.664522 0.399360 0.232726
Si Si4 0.088717 0.761924 0.316841
Si Si5 0.667730 0.115149 0.416208
O O1 0.696085 0.216369 0.139928
O O2 0.817262 0.308430 0.083277
O O3 0.976290 0.213159 0.121011
O O4 0.809938 0.207715 0.000000
O O5 0.236573 0.574089 0.699641
O O6 0.000000 0.500000 0.670497
O O7 0.000000 0.598799 0.750000
O O8 0.998669 0.602750 0.604165
O O9 0.500000 0.417814 0.250000
O O10 0.660515 0.322479 0.223453
O O11 0.734876 0.414995 0.150686
O O12 0.000000 0.730792 0.250000
O O13 0.702620 0.091914 0.500000
#
# Coordination Sequence:
#
# PCOD9526557 Si02
#       5
#    16  16  16  16  16
#     4  10  20  33  49  74 111 150 187 229 281 335
#     4   9  18  35  57  80 106 143 192 236 288 355
#     4   9  19  36  57  82 113 147 186 242 299 343
#     4  10  20  33  52  79 109 149 196 236 275 336
#     4   9  19  35  54  77 110 151 191 233 280 340
#
# _framework density 22.841197000000001
#
# number of rings (size 3 to 8) (size 9 to 14) (size 15 to 20)
#    0.000    2.600    0.000    1.200    0.000    8.400 
#    0.000    9.000    0.000    2.400    0.000    0.000 
#    0.000    0.000    0.000    0.000    0.000    0.000 
#
# Total GULP energy -223028.078551 kJ/mol
# GULP energy per Si atom -5575.701964 kJ/mol
# Density = 2.278921 g / cm^3
# Si number density = 22.841197 Si / 1000 Ang^3
#
#
#
# Elastic Constant Matrix: (Units=GPa)
#
#
# Indices 1 2 3 4 5 6 
#
# 1 166.4121 17.1358 74.6388 0.0000 0.0000 0.0000
# 2 17.1358 69.4262 16.5576 0.0000 0.0000 0.0000
# 3 74.6388 16.5576 169.0698 0.0000 0.0000 0.0000
# 4 0.0000 0.0000 0.0000 8.7540 0.0000 0.0000
# 5 0.0000 0.0000 0.0000 0.0000 30.9932 0.0000
# 6 0.0000 0.0000 0.0000 0.0000 0.0000 16.7770
#
#
#
# Elastic Compliance Matrix: (Units=1/GPa)
#
#
# Indices 1 2 3 4 5 6 
#
# 1 0.007574 -0.001098 -0.003236 0.000000 0.000000 0.000000
# 2 -0.001098 0.014907 -0.000975 0.000000 0.000000 0.000000
# 3 -0.003236 -0.000975 0.007439 0.000000 0.000000 0.000000
# 4 0.000000 0.000000 0.000000 0.114233 0.000000 0.000000
# 5 0.000000 0.000000 0.000000 0.000000 0.032265 0.000000
# 6 0.000000 0.000000 0.000000 0.000000 0.000000 0.059605
#
#
# Mechanical properties :
#
#
# Convention : Reuss Voigt Hill
#
# Bulk Modulus (GPa) = 51.80858 69.06363 60.43610
# Shear Modulus (GPa) = 19.75698 31.07657 25.41677
#
# Velocity S-wave (km/s) = 2.94423 3.69256 3.33942
# Velocity P-wave (km/s) = 5.85571 6.96291 6.43317
#
# Compressibility (1/GPa) = 0.01930182
#
# Stress axis : x y z
#
# Youngs Moduli (GPa) = 132.03756 67.08121 134.42967
#
# Poissons Ratio (x) = 0.07363 0.43502
# Poissons Ratio (y) = 0.14492 0.13112
# Poissons Ratio (z) = 0.42728 0.06543
#
# Static dielectric constant tensor:
#      x y z
#    x 1.985250 0.000000 0.000000 
#    y 0.000000 1.917890 0.000000 
#    z 0.000000 0.000000 1.881030 
# 
# From -- ./inp_files/28321.got.cif
#   From: 2010.05.17/outbox.cif.g08.bks.cpg/sg72_15_cif.got.tgz:28321.got - 2010.06.03 17:03:01.
