data_PCOD9526072
_publ_section_title
;
Structure prediction by ZEFSAII (Michael W. Deem and Ramdas Pophale) SiO2 
 PCOD9526072
Probable space group: I B A M
;
_chemical_formula_sum "Si O2"
_cell_formula_units_Z 96
_cell_length_a 26.555796
_cell_length_b 29.754321
_cell_length_c 8.914502
_cell_angle_alpha 90.000000
_cell_angle_beta 90.000000
_cell_angle_gamma 90.000000
_cell_volume 7043.790890
_symmetry_space_group_name_H-M "I B A M"
_symmetry_group_IT_number 72
_symmetry_cell_setting 'orthorhombic'
loop_
_space_group_symop_operation_xyz
x,y,z
-x,-y,z
x,-y,1/2-z
-x,y,1/2-z
-x,-y,-z
x,y,-z
-x,y,1/2+z
x,-y,1/2+z
1/2+x,1/2+y,1/2+z
1/2-x,1/2-y,1/2+z
1/2+x,1/2-y,-z
1/2-x,1/2+y,-z
1/2-x,1/2-y,1/2-z
1/2+x,1/2+y,1/2-z
1/2-x,1/2+y,z
1/2+x,1/2-y,z
loop_
_atom_site_type_symbol
_atom_site_label
_atom_site_fract_x
_atom_site_fract_y
_atom_site_fract_z
Si Si1 0.405796 0.047764 0.679869
Si Si2 0.552692 0.138466 0.321295
Si Si3 0.748639 0.142676 0.820433
Si Si4 0.203066 0.223187 0.820956
Si Si5 0.142270 0.306799 0.821303
Si Si6 0.713723 0.047046 0.820489
O O1 0.412401 0.047733 0.500000
O O2 0.434091 0.089515 0.753371
O O3 0.345895 0.053380 0.712484
O O4 0.421347 0.000000 0.750000
O O5 0.500000 0.153290 0.250000
O O6 0.549365 0.135840 0.500000
O O7 0.597164 0.171750 0.270514
O O8 0.790916 0.173269 0.743186
O O9 0.693794 0.165294 0.791801
O O10 0.743866 0.091152 0.769881
O O11 0.755826 0.144079 0.000000
O O12 0.250000 0.250000 0.750000
O O13 0.155198 0.254759 0.786392
O O14 0.208549 0.222691 0.000000
O O15 0.132186 0.311143 0.000000
O O16 0.729896 0.000000 0.750000
O O17 0.717823 0.044355 0.000000
#
# Coordination Sequence:
#
# PCOD9526072 Si02
#       6
#    16  16  16  16  16  16
#     4  10  19  34  49  62  80 101 133 173 216 256
#     4  12  24  35  48  63  78 103 136 171 215 259
#     4   9  16  28  44  62  85 109 132 165 204 240
#     4   9  17  27  42  63  84 105 129 161 200 241
#     4   9  17  32  46  59  83 106 128 168 210 245
#     4   9  17  28  42  60  83 110 136 168 206 243
#
# _framework density 13.629025
#
# number of rings (size 3 to 8) (size 9 to 14) (size 15 to 20)
#    0.000    2.333    1.667    3.500    0.000    5.000 
#    0.000    1.667    0.000    0.000    0.000    0.000 
#    0.000    0.000    0.000    0.000    0.000    0.833 
#
# Total GULP energy -267551.501071 kJ/mol
# GULP energy per Si atom -5573.989606 kJ/mol
# Density = 1.359800 g / cm^3
# Si number density = 13.629025 Si / 1000 Ang^3
#
#
#
# Elastic Constant Matrix: (Units=GPa)
#
#
# Indices 1 2 3 4 5 6 
#
# 1 41.6190 39.8536 33.8864 0.0000 0.0000 0.0000
# 2 39.8536 94.6915 41.4422 0.0000 0.0000 0.0000
# 3 33.8864 41.4422 58.0120 0.0000 0.0000 0.0000
# 4 0.0000 0.0000 0.0000 26.3919 0.0000 0.0000
# 5 0.0000 0.0000 0.0000 0.0000 16.1269 0.0000
# 6 0.0000 0.0000 0.0000 0.0000 0.0000 12.1389
#
#
#
# Elastic Compliance Matrix: (Units=1/GPa)
#
#
# Indices 1 2 3 4 5 6 
#
# 1 0.055359 -0.013308 -0.022830 0.000000 0.000000 0.000000
# 2 -0.013308 0.018563 -0.005488 0.000000 0.000000 0.000000
# 3 -0.022830 -0.005488 0.034494 0.000000 0.000000 0.000000
# 4 0.000000 0.000000 0.000000 0.037890 0.000000 0.000000
# 5 0.000000 0.000000 0.000000 0.000000 0.062008 0.000000
# 6 0.000000 0.000000 0.000000 0.000000 0.000000 0.082379
#
#
# Mechanical properties :
#
#
# Convention : Reuss Voigt Hill
#
# Bulk Modulus (GPa) = 39.73757 47.18744 43.46250
# Shear Modulus (GPa) = 13.07760 16.20757 14.64259
#
# Velocity S-wave (km/s) = 3.10101 3.45221 3.28131
# Velocity P-wave (km/s) = 6.48394 7.11254 6.80550
#
# Compressibility (1/GPa) = 0.02516510
#
# Stress axis : x y z
#
# Youngs Moduli (GPa) = 18.06391 53.86981 28.99081
#
# Poissons Ratio (x) = 0.71689 0.66186
# Poissons Ratio (y) = 0.24039 0.15909
# Poissons Ratio (z) = 0.41240 0.29562
#
# Static dielectric constant tensor:
#      x y z
#    x 1.427530 0.000000 0.000000 
#    y 0.000000 1.474490 0.000000 
#    z 0.000000 0.000000 1.452210 
# 
# From -- ./inp_files/8468.got.cif
#   From: 2010.05.17/outbox.cif.g08.bks.cpg/sg72_5_cif.got.tgz:8468.got - 2010.06.03 17:03:01.
