data_PCOD9526721
_publ_section_title
;
Structure prediction by ZEFSAII (Michael W. Deem and Ramdas Pophale) SiO2 
 PCOD9526721
Probable space group: I B A M
;
_chemical_formula_sum "Si O2"
_cell_formula_units_Z 112
_cell_length_a 22.387462
_cell_length_b 13.107644
_cell_length_c 17.780186
_cell_angle_alpha 90.000000
_cell_angle_beta 90.000000
_cell_angle_gamma 90.000000
_cell_volume 5217.540142
_symmetry_space_group_name_H-M "I B A M"
_symmetry_group_IT_number 72
_symmetry_cell_setting 'orthorhombic'
loop_
_space_group_symop_operation_xyz
x,y,z
-x,-y,z
x,-y,1/2-z
-x,y,1/2-z
-x,-y,-z
x,y,-z
-x,y,1/2+z
x,-y,1/2+z
1/2+x,1/2+y,1/2+z
1/2-x,1/2-y,1/2+z
1/2+x,1/2-y,-z
1/2-x,1/2+y,-z
1/2-x,1/2-y,1/2-z
1/2+x,1/2+y,1/2-z
1/2-x,1/2+y,z
1/2+x,1/2-y,z
loop_
_atom_site_type_symbol
_atom_site_label
_atom_site_fract_x
_atom_site_fract_y
_atom_site_fract_z
Si Si1 0.157392 0.180984 0.090467
Si Si2 0.254724 0.590543 0.710955
Si Si3 0.097997 0.771240 0.087728
Si Si4 0.929997 0.002599 0.908166
Si Si5 0.211090 0.695562 0.840515
Si Si6 0.838662 0.585609 0.089372
Si Si7 0.555658 0.065761 0.592005
O O1 0.224034 0.172574 0.124566
O O2 0.139334 0.298852 0.106799
O O3 0.110976 0.093581 0.116153
O O4 0.162323 0.172399 0.000000
O O5 0.290090 0.500000 0.750000
O O6 0.203292 0.615449 0.773140
O O7 0.289182 0.694961 0.700982
O O8 0.223625 0.568794 0.632046
O O9 0.095185 0.886685 0.117044
O O10 0.161709 0.714998 0.096995
O O11 0.055404 0.682527 0.119926
O O12 0.083643 0.781989 0.000000
O O13 0.928562 0.998652 0.000000
O O14 0.000000 0.000000 0.886388
O O15 0.885824 0.499695 0.111254
O O16 0.829236 0.580353 0.000000
O O17 0.553826 0.069881 0.500000
O O18 0.500000 0.000000 0.617904
#
# Coordination Sequence:
#
# PCOD9526721 Si02
#       7
#    16  16  16  16  16  16  16
#     4   9  18  33  55  84 117 152 196 242 286 341
#     4  10  21  36  55  79 111 153 187 230 286 348
#     4  10  20  34  54  84 119 151 193 245 292 346
#     4   9  19  33  53  83 120 160 198 248 300 344
#     4  10  21  35  55  83 111 151 194 233 294 349
#     4   9  18  34  57  83 109 143 189 240 289 341
#     4   9  18  31  52  83 113 145 184 235 291 337
#
# _framework density 21.466055000000001
#
# number of rings (size 3 to 8) (size 9 to 14) (size 15 to 20)
#    0.000    2.571    0.000    1.286    4.000    0.571 
#    0.000    0.714    0.000    4.714    0.000    9.000 
#    0.000    0.000    0.000    0.000    0.000    0.143 
#
# Total GULP energy -311949.499126 kJ/mol
# GULP energy per Si atom -5570.526770 kJ/mol
# Density = 2.141720 g / cm^3
# Si number density = 21.466055 Si / 1000 Ang^3
#
#
#
# Elastic Constant Matrix: (Units=GPa)
#
#
# Indices 1 2 3 4 5 6 
#
# 1 54.8143 39.2821 3.4829 0.0000 0.0000 0.0000
# 2 39.2821 159.3773 22.3199 0.0000 0.0000 0.0000
# 3 3.4829 22.3199 14.9711 0.0000 0.0000 0.0000
# 4 0.0000 0.0000 0.0000 25.0093 0.0000 0.0000
# 5 0.0000 0.0000 0.0000 0.0000 2.1344 0.0000
# 6 0.0000 0.0000 0.0000 0.0000 0.0000 31.4803
#
#
#
# Elastic Compliance Matrix: (Units=1/GPa)
#
#
# Indices 1 2 3 4 5 6 
#
# 1 0.022327 -0.006036 0.003804 0.000000 0.000000 0.000000
# 2 -0.006036 0.009562 -0.012851 0.000000 0.000000 0.000000
# 3 0.003804 -0.012851 0.085070 0.000000 0.000000 0.000000
# 4 0.000000 0.000000 0.000000 0.039985 0.000000 0.000000
# 5 0.000000 0.000000 0.000000 0.000000 0.468525 0.000000
# 6 0.000000 0.000000 0.000000 0.000000 0.000000 0.031766
#
#
# Mechanical properties :
#
#
# Convention : Reuss Voigt Hill
#
# Bulk Modulus (GPa) = 11.52156 39.92582 25.72369
# Shear Modulus (GPa) = 6.98001 22.66330 14.82166
#
# Velocity S-wave (km/s) = 1.80519 3.25279 2.63053
# Velocity P-wave (km/s) = 3.11832 5.72254 4.60822
#
# Compressibility (1/GPa) = 0.08679378
#
# Stress axis : x y z
#
# Youngs Moduli (GPa) = 44.78846 104.58240 11.75501
#
# Poissons Ratio (x) = 0.63124 -0.04472
# Poissons Ratio (y) = 0.27034 0.15107
# Poissons Ratio (z) = -0.17040 1.34402
#
# Static dielectric constant tensor:
#      x y z
#    x 1.820010 0.000000 0.000000 
#    y 0.000000 1.867740 0.000000 
#    z 0.000000 0.000000 1.789430 
# 
# From -- ./inp_files/40342.got.cif
#   From: 2010.05.17/outbox.cif.g08.bks.cpg/sg72_21_cif.got.tgz:40342.got - 2010.06.03 17:03:01.
