data_PCOD9526893
_publ_section_title
;
Structure prediction by ZEFSAII (Michael W. Deem and Ramdas Pophale) SiO2 
 PCOD9526893
Probable space group: I B A M
;
_chemical_formula_sum "Si O2"
_cell_formula_units_Z 116
_cell_length_a 22.846325
_cell_length_b 32.561194
_cell_length_c 8.552178
_cell_angle_alpha 90.000000
_cell_angle_beta 90.000000
_cell_angle_gamma 90.000000
_cell_volume 6361.996177
_symmetry_space_group_name_H-M "I B A M"
_symmetry_group_IT_number 72
_symmetry_cell_setting 'orthorhombic'
loop_
_space_group_symop_operation_xyz
x,y,z
-x,-y,z
x,-y,1/2-z
-x,y,1/2-z
-x,-y,-z
x,y,-z
-x,y,1/2+z
x,-y,1/2+z
1/2+x,1/2+y,1/2+z
1/2-x,1/2-y,1/2+z
1/2+x,1/2-y,-z
1/2-x,1/2+y,-z
1/2-x,1/2-y,1/2-z
1/2+x,1/2+y,1/2-z
1/2-x,1/2+y,z
1/2+x,1/2-y,z
loop_
_atom_site_type_symbol
_atom_site_label
_atom_site_fract_x
_atom_site_fract_y
_atom_site_fract_z
Si Si1 0.000000 0.000000 0.250000
Si Si2 0.728075 0.544952 0.313789
Si Si3 0.168458 0.218999 0.688606
Si Si4 0.298969 0.805666 0.811283
Si Si5 0.329188 0.896626 0.189234
Si Si6 0.065134 0.454864 0.812204
Si Si7 0.400033 0.567562 0.688732
Si Si8 0.564449 0.659784 0.188860
O O1 0.051014 0.035646 0.257102
O O2 0.744340 0.500000 0.250000
O O3 0.728747 0.544105 0.500000
O O4 0.773706 0.578294 0.251183
O O5 0.663113 0.555689 0.254683
O O6 0.167979 0.219359 0.500000
O O7 0.230775 0.199200 0.737445
O O8 0.168232 0.265597 0.748117
O O9 0.113880 0.191800 0.742630
O O10 0.324773 0.849283 0.759531
O O11 0.300405 0.804516 0.000000
O O12 0.387758 0.920799 0.237390
O O13 0.327025 0.897063 0.000000
O O14 0.082362 0.500000 0.750000
O O15 0.000000 0.446191 0.750000
O O16 0.063472 0.456480 0.000000
O O17 0.397788 0.565785 0.500000
O O18 0.417478 0.613668 0.736978
O O19 0.500000 0.669467 0.250000
O O20 0.563487 0.660334 0.000000
#
# Coordination Sequence:
#
# PCOD9526893 Si02
#       8
#     4  16  16  16  16  16  16  16
#     4  12  22  36  64  82 110 156 200 240 286 332
#     4  12  25  38  56  82 114 151 192 236 282 332
#     4   9  18  34  56  80 108 140 179 223 273 327
#     4   9  18  35  59  82 108 140 176 221 275 333
#     4  10  21  38  59  84 114 147 183 228 285 337
#     4  10  20  35  57  82 110 146 184 220 264 323
#     4  11  23  39  58  81 114 152 196 243 287 333
#     4  10  21  37  56  80 110 147 185 230 280 330
#
# _framework density 18.233270000000001
#
# number of rings (size 3 to 8) (size 9 to 14) (size 15 to 20)
#    0.000    1.793    1.379    3.517    0.000    6.621 
#    0.000    3.448    0.000    3.310    0.000    0.000 
#    0.000    0.000    0.000    0.000    0.000    0.000 
#
# Total GULP energy -323460.297420 kJ/mol
# GULP energy per Si atom -5576.901680 kJ/mol
# Density = 1.819177 g / cm^3
# Si number density = 18.233270 Si / 1000 Ang^3
#
#
#
# Elastic Constant Matrix: (Units=GPa)
#
#
# Indices 1 2 3 4 5 6 
#
# 1 112.2522 113.8297 22.7959 0.0000 0.0000 0.0000
# 2 113.8297 201.0768 32.5498 0.0000 0.0000 0.0000
# 3 22.7959 32.5498 23.7743 0.0000 0.0000 0.0000
# 4 0.0000 0.0000 0.0000 22.9137 0.0000 0.0000
# 5 0.0000 0.0000 0.0000 0.0000 13.0374 0.0000
# 6 0.0000 0.0000 0.0000 0.0000 0.0000 -128.8016
#
#
#
# Elastic Compliance Matrix: (Units=1/GPa)
#
#
# Indices 1 2 3 4 5 6 
#
# 1 0.021376 -0.011284 -0.005047 0.000000 0.000000 0.000000
# 2 -0.011284 0.012346 -0.006083 0.000000 0.000000 0.000000
# 3 -0.005047 -0.006083 0.055231 0.000000 0.000000 0.000000
# 4 0.000000 0.000000 0.000000 0.043642 0.000000 0.000000
# 5 0.000000 0.000000 0.000000 0.000000 0.076702 0.000000
# 6 0.000000 0.000000 0.000000 0.000000 0.000000 -0.007764
#
#
# Mechanical properties :
#
#
# Convention : Reuss Voigt Hill
#
# Bulk Modulus (GPa) = 22.66371 75.05048 48.85709
# Shear Modulus (GPa) = 19.15196 -7.37491 5.88853
#
# Velocity S-wave (km/s) = 3.24448 -2.01334 1.79904
# Velocity P-wave (km/s) = 5.14708 5.98715 5.58293
#
# Compressibility (1/GPa) = 0.04412341
#
# Stress axis : x y z
#
# Youngs Moduli (GPa) = 46.78143 80.99907 18.10587
#
# Poissons Ratio (x) = 0.91399 0.09139
# Poissons Ratio (y) = 0.52788 0.11014
# Poissons Ratio (z) = 0.23612 0.49274
#
# Static dielectric constant tensor:
#      x y z
#    x 1.609970 0.000000 0.000000 
#    y 0.000000 1.608450 0.000000 
#    z 0.000000 0.000000 1.635440 
# 
# From -- ./inp_files/7540.got.cif
#   From: 2010.05.17/outbox.cif.g08.bks.cpg/sg72_4_cif.got.tgz:7540.got - 2010.06.03 17:03:01.
