data_PCOD9526320
_publ_section_title
;
Structure prediction by ZEFSAII (Michael W. Deem and Ramdas Pophale) SiO2 
 PCOD9526320
Probable space group: I B A M
;
_chemical_formula_sum "Si O2"
_cell_formula_units_Z 88
_cell_length_a 13.706453
_cell_length_b 12.351205
_cell_length_c 24.237406
_cell_angle_alpha 90.000000
_cell_angle_beta 90.000000
_cell_angle_gamma 90.000000
_cell_volume 4103.179809
_symmetry_space_group_name_H-M "I B A M"
_symmetry_group_IT_number 72
_symmetry_cell_setting 'orthorhombic'
loop_
_space_group_symop_operation_xyz
x,y,z
-x,-y,z
x,-y,1/2-z
-x,y,1/2-z
-x,-y,-z
x,y,-z
-x,y,1/2+z
x,-y,1/2+z
1/2+x,1/2+y,1/2+z
1/2-x,1/2-y,1/2+z
1/2+x,1/2-y,-z
1/2-x,1/2+y,-z
1/2-x,1/2-y,1/2-z
1/2+x,1/2+y,1/2-z
1/2-x,1/2+y,z
1/2+x,1/2-y,z
loop_
_atom_site_type_symbol
_atom_site_label
_atom_site_fract_x
_atom_site_fract_y
_atom_site_fract_z
Si Si1 0.725797 0.360807 0.918732
Si Si2 0.105245 0.969530 0.873312
Si Si3 0.184219 0.532963 0.500000
Si Si4 0.115933 0.370384 0.756765
Si Si5 0.222213 0.218260 0.670456
Si Si6 0.577049 0.754984 0.500000
Si Si7 0.111832 0.119713 0.500000
O O1 0.676184 0.428671 0.870709
O O2 0.793035 0.448386 0.950510
O O3 0.783282 0.264517 0.891429
O O4 0.635623 0.305466 0.950853
O O5 0.149904 0.881302 0.833634
O O6 0.096476 0.939926 0.940012
O O7 0.000000 0.000000 0.854214
O O8 0.092574 0.614458 0.500000
O O9 0.270933 0.623504 0.500000
O O10 0.126768 0.500000 0.750000
O O11 0.177890 0.308137 0.710357
O O12 0.170653 0.325120 0.811815
O O13 0.000000 0.346664 0.750000
O O14 0.464033 0.718633 0.500000
#
# Coordination Sequence:
#
# PCOD9526320 Si02
#       7
#    16  16   8  16  16   8   8
#     4  10  20  35  59  88 127 162 213 258 317 374
#     4  11  21  36  62  97 128 171 218 266 314 383
#     4   9  21  34  57  89 127 171 213 265 307 371
#     4  10  24  47  68  88 124 167 203 267 349 402
#     4  11  24  41  67  96 124 161 216 273 323 402
#     4  11  19  34  56  85 125 179 210 251 314 377
#     4  10  19  36  55  89 135 173 208 257 318 361
#
# _framework density 21.446781999999999
#
# number of rings (size 3 to 8) (size 9 to 14) (size 15 to 20)
#    0.000    1.636    1.818    4.091    2.545    0.727 
#    0.000    1.818    0.000    7.636    0.000    0.000 
#    0.000    1.455    0.000    0.000    0.000    0.000 
#
# Total GULP energy -245009.701837 kJ/mol
# GULP energy per Si atom -5568.402314 kJ/mol
# Density = 2.139797 g / cm^3
# Si number density = 21.446782 Si / 1000 Ang^3
#
#
#
# Elastic Constant Matrix: (Units=GPa)
#
#
# Indices 1 2 3 4 5 6 
#
# 1 99.1379 44.7098 14.0144 0.0000 0.0000 0.0000
# 2 44.7098 98.0428 23.5149 0.0000 0.0000 0.0000
# 3 14.0144 23.5149 36.3763 0.0000 0.0000 0.0000
# 4 0.0000 0.0000 0.0000 28.8810 0.0000 0.0000
# 5 0.0000 0.0000 0.0000 0.0000 9.5410 0.0000
# 6 0.0000 0.0000 0.0000 0.0000 0.0000 36.0960
#
#
#
# Elastic Compliance Matrix: (Units=1/GPa)
#
#
# Indices 1 2 3 4 5 6 
#
# 1 0.012756 -0.005489 -0.001366 0.000000 0.000000 0.000000
# 2 -0.005489 0.014433 -0.007215 0.000000 0.000000 0.000000
# 3 -0.001366 -0.007215 0.032681 0.000000 0.000000 0.000000
# 4 0.000000 0.000000 0.000000 0.034625 0.000000 0.000000
# 5 0.000000 0.000000 0.000000 0.000000 0.104810 0.000000
# 6 0.000000 0.000000 0.000000 0.000000 0.000000 0.027704
#
#
# Mechanical properties :
#
#
# Convention : Reuss Voigt Hill
#
# Bulk Modulus (GPa) = 31.51698 44.22615 37.87156
# Shear Modulus (GPa) = 18.81633 24.99146 21.90389
#
# Velocity S-wave (km/s) = 2.96522 3.41732 3.19927
# Velocity P-wave (km/s) = 5.14303 6.01971 5.59855
#
# Compressibility (1/GPa) = 0.03172893
#
# Stress axis : x y z
#
# Youngs Moduli (GPa) = 78.39678 69.28350 30.59882
#
# Poissons Ratio (x) = 0.38032 0.04179
# Poissons Ratio (y) = 0.43034 0.22079
# Poissons Ratio (z) = 0.10707 0.49991
#
# Static dielectric constant tensor:
#      x y z
#    x 1.753770 0.000000 0.000000 
#    y 0.000000 1.848200 0.000000 
#    z 0.000000 0.000000 1.860270 
# 
# From -- ./inp_files/44180.got.cif
#   From: 2010.05.17/outbox.cif.g08.bks.cpg/sg72_23_cif.got.tgz:44180.got - 2010.06.03 17:03:01.
