data_PCOD9526023
_publ_section_title
;
Structure prediction by ZEFSAII (Michael W. Deem and Ramdas Pophale) SiO2 
 PCOD9526023
Probable space group: I B A M
;
_chemical_formula_sum "Si O2"
_cell_formula_units_Z 116
_cell_length_a 23.116600
_cell_length_b 9.184081
_cell_length_c 27.157456
_cell_angle_alpha 90.000000
_cell_angle_beta 90.000000
_cell_angle_gamma 90.000000
_cell_volume 5765.656278
_symmetry_space_group_name_H-M "I B A M"
_symmetry_group_IT_number 72
_symmetry_cell_setting 'orthorhombic'
loop_
_space_group_symop_operation_xyz
x,y,z
-x,-y,z
x,-y,1/2-z
-x,y,1/2-z
-x,-y,-z
x,y,-z
-x,y,1/2+z
x,-y,1/2+z
1/2+x,1/2+y,1/2+z
1/2-x,1/2-y,1/2+z
1/2+x,1/2-y,-z
1/2-x,1/2+y,-z
1/2-x,1/2-y,1/2-z
1/2+x,1/2+y,1/2-z
1/2-x,1/2+y,z
1/2+x,1/2-y,z
loop_
_atom_site_type_symbol
_atom_site_label
_atom_site_fract_x
_atom_site_fract_y
_atom_site_fract_z
Si Si1 0.385528 0.494429 0.659343
Si Si2 0.206405 0.245988 0.821812
Si Si3 0.661889 0.777074 0.211312
Si Si4 0.545162 0.870844 0.912080
Si Si5 0.000000 0.500000 0.250000
Si Si6 0.563455 0.566987 0.946456
Si Si7 0.461596 0.229247 0.671303
Si Si8 0.863672 0.473808 0.640829
O O1 0.326847 0.398346 0.661007
O O2 0.373486 0.635453 0.693295
O O3 0.400071 0.532976 0.602669
O O4 0.438884 0.392860 0.679232
O O5 0.273803 0.227654 0.812211
O O6 0.174275 0.279834 0.769457
O O7 0.195621 0.385349 0.856727
O O8 0.634067 0.921145 0.188367
O O9 0.551325 0.738354 0.948125
O O10 0.518265 0.797770 0.861879
O O11 0.500000 0.000000 0.924705
O O12 0.609867 0.928548 0.902000
O O13 0.966681 0.617408 0.216364
O O14 0.500000 0.500000 0.939174
O O15 0.586483 0.517268 0.000000
O O16 0.409356 0.157777 0.641030
#
# Coordination Sequence:
#
# PCOD9526023 Si02
#       8
#    16  16  16  16   4  16  16  16
#     4  11  22  38  58  89 118 156 199 254 304 352
#     4  10  23  36  55  88 121 159 208 239 289 355
#     4  11  21  37  56  85 124 159 201 250 288 351
#     4  10  19  38  58  83 115 153 196 240 292 365
#     4  12  20  36  56  82 122 180 198 228 288 364
#     4  11  23  41  65  89 118 151 195 258 319 368
#     4  10  22  33  54  82 121 155 205 230 283 366
#     4  10  19  33  56  74 111 163 189 237 285 347
#
# _framework density 20.119133000000001
#
# number of rings (size 3 to 8) (size 9 to 14) (size 15 to 20)
#    0.000    1.517    4.828    1.655    3.862    2.483 
#    2.483    0.000    0.000    1.655    0.000    0.000 
#    0.000    0.000    0.000    0.000    0.000    0.000 
#
# Total GULP energy -323188.311170 kJ/mol
# GULP energy per Si atom -5572.212262 kJ/mol
# Density = 2.007334 g / cm^3
# Si number density = 20.119133 Si / 1000 Ang^3
#
#
#
# Elastic Constant Matrix: (Units=GPa)
#
#
# Indices 1 2 3 4 5 6 
#
# 1 63.0276 30.8646 24.1588 0.0000 0.0000 0.0000
# 2 30.8646 112.3246 23.0189 0.0000 0.0000 0.0000
# 3 24.1588 23.0189 58.7280 0.0000 0.0000 0.0000
# 4 0.0000 0.0000 0.0000 110.5637 0.0000 0.0000
# 5 0.0000 0.0000 0.0000 0.0000 130.5384 0.0000
# 6 0.0000 0.0000 0.0000 0.0000 0.0000 25.4426
#
#
#
# Elastic Compliance Matrix: (Units=1/GPa)
#
#
# Indices 1 2 3 4 5 6 
#
# 1 0.020552 -0.004257 -0.006786 0.000000 0.000000 0.000000
# 2 -0.004257 0.010562 -0.002389 0.000000 0.000000 0.000000
# 3 -0.006786 -0.002389 0.020755 0.000000 0.000000 0.000000
# 4 0.000000 0.000000 0.000000 0.009045 0.000000 0.000000
# 5 0.000000 0.000000 0.000000 0.000000 0.007661 0.000000
# 6 0.000000 0.000000 0.000000 0.000000 0.000000 0.039304
#
#
# Mechanical properties :
#
#
# Convention : Reuss Voigt Hill
#
# Bulk Modulus (GPa) = 39.98963 43.35166 41.67064
# Shear Modulus (GPa) = 34.94641 63.71146 49.32894
#
# Velocity S-wave (km/s) = 4.17222 5.63346 4.95698
# Velocity P-wave (km/s) = 6.56731 7.99429 7.31568
#
# Compressibility (1/GPa) = 0.02500648
#
# Stress axis : x y z
#
# Youngs Moduli (GPa) = 48.65814 94.67976 48.18005
#
# Poissons Ratio (x) = 0.40301 0.32694
# Poissons Ratio (y) = 0.20711 0.11509
# Poissons Ratio (z) = 0.33019 0.22617
#
# Static dielectric constant tensor:
#      x y z
#    x 1.766870 0.000000 0.000000 
#    y 0.000000 1.782820 0.000000 
#    z 0.000000 0.000000 1.712320 
# 
# From -- ./inp_files/52438.got.cif
#   From: 2010.05.17/outbox.cif.g08.bks.cpg/sg72_27_cif.got.tgz:52438.got - 2010.06.03 17:03:01.
