data_PCOD9526035
_publ_section_title
;
Structure prediction by ZEFSAII (Michael W. Deem and Ramdas Pophale) SiO2 
 PCOD9526035
Probable space group: I B A M
;
_chemical_formula_sum "Si O2"
_cell_formula_units_Z 88
_cell_length_a 13.541493
_cell_length_b 22.473026
_cell_length_c 13.869119
_cell_angle_alpha 90.000000
_cell_angle_beta 90.000000
_cell_angle_gamma 90.000000
_cell_volume 4220.627053
_symmetry_space_group_name_H-M "I B A M"
_symmetry_group_IT_number 72
_symmetry_cell_setting 'orthorhombic'
loop_
_space_group_symop_operation_xyz
x,y,z
-x,-y,z
x,-y,1/2-z
-x,y,1/2-z
-x,-y,-z
x,y,-z
-x,y,1/2+z
x,-y,1/2+z
1/2+x,1/2+y,1/2+z
1/2-x,1/2-y,1/2+z
1/2+x,1/2-y,-z
1/2-x,1/2+y,-z
1/2-x,1/2-y,1/2-z
1/2+x,1/2+y,1/2-z
1/2-x,1/2+y,z
1/2+x,1/2-y,z
loop_
_atom_site_type_symbol
_atom_site_label
_atom_site_fract_x
_atom_site_fract_y
_atom_site_fract_z
Si Si1 0.696664 0.649376 0.206117
Si Si2 0.000000 0.202825 0.750000
Si Si3 0.707168 0.034584 0.885235
Si Si4 0.487898 0.089383 0.610453
Si Si5 0.628434 0.785441 0.610515
Si Si6 0.790528 0.398245 0.885736
O O1 0.582225 0.663896 0.195966
O O2 0.727477 0.585548 0.162421
O O3 0.765004 0.698879 0.155314
O O4 0.726883 0.644353 0.318607
O O5 0.936919 0.243012 0.676819
O O6 0.592907 0.042615 0.851935
O O7 0.740721 0.967079 0.871320
O O8 0.705667 0.045966 0.000000
O O9 0.510570 0.071077 0.500000
O O10 0.428559 0.151184 0.609577
O O11 0.595764 0.102873 0.651425
O O12 0.636875 0.764867 0.500000
O O13 0.786022 0.384117 0.000000
#
# Coordination Sequence:
#
# PCOD9526035 Si02
#       6
#    16   8  16  16  16  16
#     4  11  23  40  59  85 117 151 197 249 298 353
#     4  12  26  42  61  84 115 158 206 246 298 358
#     4   9  18  34  57  86 119 157 198 243 300 358
#     4   8  15  30  55  86 116 144 179 230 295 360
#     4  10  22  41  64  89 116 149 194 249 307 362
#     4  10  19  33  56  87 124 160 195 240 297 362
#
# _framework density 20.849982000000001
#
# number of rings (size 3 to 8) (size 9 to 14) (size 15 to 20)
#    0.000    2.182    0.000    4.364    0.000    6.545 
#    0.000    7.273    0.000    2.182    0.000    0.000 
#    0.000    0.000    0.000    0.000    0.000    0.000 
#
# Total GULP energy -245837.653310 kJ/mol
# GULP energy per Si atom -5587.219393 kJ/mol
# Density = 2.080253 g / cm^3
# Si number density = 20.849982 Si / 1000 Ang^3
#
#
#
# Elastic Constant Matrix: (Units=GPa)
#
#
# Indices 1 2 3 4 5 6 
#
# 1 121.8792 33.7610 27.1323 0.0000 0.0000 0.0000
# 2 33.7610 40.6324 20.3684 0.0001 0.0001 0.0001
# 3 27.1323 20.3684 100.2728 0.0003 0.0001 0.0002
# 4 0.0000 0.0001 0.0003 17.7291 0.0002 0.0002
# 5 0.0000 0.0001 0.0001 0.0002 8.5236 0.0001
# 6 0.0000 0.0001 0.0002 0.0002 0.0001 13.6530
#
#
#
# Elastic Compliance Matrix: (Units=1/GPa)
#
#
# Indices 1 2 3 4 5 6 
#
# 1 0.010791 -0.008353 -0.001223 0.000000 0.000000 0.000000
# 2 -0.008353 0.033867 -0.004619 0.000000 0.000000 0.000000
# 3 -0.001223 -0.004619 0.011242 0.000000 0.000000 0.000000
# 4 0.000000 0.000000 0.000000 0.056404 -0.000001 -0.000001
# 5 0.000000 0.000000 0.000000 -0.000001 0.117321 -0.000001
# 6 0.000000 0.000000 0.000000 -0.000001 -0.000001 0.073244
#
#
# Mechanical properties :
#
#
# Convention : Reuss Voigt Hill
#
# Bulk Modulus (GPa) = 36.35136 47.25641 41.80388
# Shear Modulus (GPa) = 14.68732 20.08265 17.38498
#
# Velocity S-wave (km/s) = 2.65699 3.10691 2.89071
# Velocity P-wave (km/s) = 5.18511 5.96529 5.58883
#
# Compressibility (1/GPa) = 0.02750929
#
# Stress axis : x y z
#
# Youngs Moduli (GPa) = 92.67036 29.52745 88.95179
#
# Poissons Ratio (x) = 0.24664 0.10880
# Poissons Ratio (y) = 0.77407 0.41088
# Poissons Ratio (z) = 0.11335 0.13639
#
# Static dielectric constant tensor:
#      x y z
#    x 1.712740 0.000000 0.000000 
#    y 0.000000 1.764160 0.000000 
#    z 0.000000 0.000000 1.818870 
# 
# From -- ./inp_files/20289.got.cif
#   From: 2010.05.17/outbox.cif.g08.bks.cpg/sg72_11_cif.got.tgz:20289.got - 2010.06.03 17:03:01.
