data_PCOD9526895
_publ_section_title
;
Structure prediction by ZEFSAII (Michael W. Deem and Ramdas Pophale) SiO2 
 PCOD9526895
Probable space group: I B A M
;
_chemical_formula_sum "Si O2"
_cell_formula_units_Z 112
_cell_length_a 28.556597
_cell_length_b 13.781511
_cell_length_c 15.093382
_cell_angle_alpha 90.000000
_cell_angle_beta 90.000000
_cell_angle_gamma 90.000000
_cell_volume 5940.046607
_symmetry_space_group_name_H-M "I B A M"
_symmetry_group_IT_number 72
_symmetry_cell_setting 'orthorhombic'
loop_
_space_group_symop_operation_xyz
x,y,z
-x,-y,z
x,-y,1/2-z
-x,y,1/2-z
-x,-y,-z
x,y,-z
-x,y,1/2+z
x,-y,1/2+z
1/2+x,1/2+y,1/2+z
1/2-x,1/2-y,1/2+z
1/2+x,1/2-y,-z
1/2-x,1/2+y,-z
1/2-x,1/2-y,1/2-z
1/2+x,1/2+y,1/2-z
1/2-x,1/2+y,z
1/2+x,1/2-y,z
loop_
_atom_site_type_symbol
_atom_site_label
_atom_site_fract_x
_atom_site_fract_y
_atom_site_fract_z
Si Si1 0.270041 0.896242 0.796681
Si Si2 0.611988 0.131809 0.600814
Si Si3 0.131268 0.581530 0.607230
Si Si4 0.607911 0.388580 0.257198
Si Si5 0.932756 0.765553 0.104652
Si Si6 0.043103 0.207501 0.606507
Si Si7 0.191492 0.237315 0.334463
O O1 0.317947 0.899009 0.851984
O O2 0.229203 0.846641 0.856037
O O3 0.280776 0.820294 0.718292
O O4 0.259440 0.000000 0.750000
O O5 0.597898 0.113884 0.500000
O O6 0.570981 0.197218 0.639264
O O7 0.658698 0.198148 0.601510
O O8 0.618492 0.026257 0.641143
O O9 0.135064 0.579481 0.500000
O O10 0.093042 0.664175 0.629292
O O11 0.621383 0.500000 0.250000
O O12 0.588576 0.349184 0.164828
O O13 0.567843 0.374265 0.333244
O O14 0.652528 0.322013 0.279613
O O15 0.988493 0.772155 0.119066
O O16 0.924361 0.780051 0.000000
O O17 0.051238 0.191806 0.500000
#
# Coordination Sequence:
#
# PCOD9526895 Si02
#       7
#    16  16  16  16  16  16  16
#     4  11  20  35  57  81 107 142 185 226 278 332
#     4   9  18  35  57  82 111 148 182 221 276 335
#     4  10  20  35  57  82 113 146 182 227 280 334
#     4  11  22  38  58  81 110 148 193 236 281 338
#     4  10  21  37  56  83 116 147 185 236 283 334
#     4   9  20  37  57  83 115 148 186 230 282 335
#     4  10  21  35  56  79 109 143 180 231 274 332
#
# _framework density 18.855070999999999
#
# number of rings (size 3 to 8) (size 9 to 14) (size 15 to 20)
#    0.000    2.000    2.857    0.857    0.000    2.857 
#    0.000    4.286    0.000    4.286    0.000    0.000 
#    0.000    0.000    0.000    0.000    0.000    0.000 
#
# Total GULP energy -311792.647355 kJ/mol
# GULP energy per Si atom -5567.725846 kJ/mol
# Density = 1.881216 g / cm^3
# Si number density = 18.855071 Si / 1000 Ang^3
#
#
#
# Elastic Constant Matrix: (Units=GPa)
#
#
# Indices 1 2 3 4 5 6 
#
# 1 49.7345 15.0854 0.5260 0.0000 0.0000 0.0000
# 2 15.0854 112.8946 19.0428 0.0000 0.0000 0.0000
# 3 0.5260 19.0428 24.0861 0.0000 0.0000 0.0000
# 4 0.0000 0.0000 0.0000 23.5889 0.0000 0.0000
# 5 0.0000 0.0000 0.0000 0.0000 23.7741 0.0000
# 6 0.0000 0.0000 0.0000 0.0000 0.0000 17.8520
#
#
#
# Elastic Compliance Matrix: (Units=1/GPa)
#
#
# Indices 1 2 3 4 5 6 
#
# 1 0.021042 -0.003155 0.002035 0.000000 0.000000 0.000000
# 2 -0.003155 0.010694 -0.008386 0.000000 0.000000 0.000000
# 3 0.002035 -0.008386 0.048103 0.000000 0.000000 0.000000
# 4 0.000000 0.000000 0.000000 0.042393 0.000000 0.000000
# 5 0.000000 0.000000 0.000000 0.000000 0.042063 0.000000
# 6 0.000000 0.000000 0.000000 0.000000 0.000000 0.056016
#
#
# Mechanical properties :
#
#
# Convention : Reuss Voigt Hill
#
# Bulk Modulus (GPa) = 16.43998 28.44707 22.44353
# Shear Modulus (GPa) = 19.26051 23.18041 21.22046
#
# Velocity S-wave (km/s) = 3.19956 3.51008 3.35841
# Velocity P-wave (km/s) = 4.73156 5.61672 5.19303
#
# Compressibility (1/GPa) = 0.06082732
#
# Stress axis : x y z
#
# Youngs Moduli (GPa) = 47.52357 93.51123 20.78863
#
# Poissons Ratio (x) = 0.29502 -0.04230
# Poissons Ratio (y) = 0.14994 0.17433
# Poissons Ratio (z) = -0.09670 0.78417
#
# Static dielectric constant tensor:
#      x y z
#    x 1.662370 0.000000 0.000000 
#    y 0.000000 1.682810 0.000000 
#    z 0.000000 0.000000 1.677370 
# 
# From -- ./inp_files/25971.got.cif
#   From: 2010.05.17/outbox.cif.g08.bks.cpg/sg72_13_cif.got.tgz:25971.got - 2010.06.03 17:03:01.
