data_PCOD9526270
_publ_section_title
;
Structure prediction by ZEFSAII (Michael W. Deem and Ramdas Pophale) SiO2 
 PCOD9526270
Probable space group: I B A M
;
_chemical_formula_sum "Si O2"
_cell_formula_units_Z 96
_cell_length_a 11.802045
_cell_length_b 13.642463
_cell_length_c 29.578692
_cell_angle_alpha 90.000000
_cell_angle_beta 90.000000
_cell_angle_gamma 90.000000
_cell_volume 4762.434503
_symmetry_space_group_name_H-M "I B A M"
_symmetry_group_IT_number 72
_symmetry_cell_setting 'orthorhombic'
loop_
_space_group_symop_operation_xyz
x,y,z
-x,-y,z
x,-y,1/2-z
-x,y,1/2-z
-x,-y,-z
x,y,-z
-x,y,1/2+z
x,-y,1/2+z
1/2+x,1/2+y,1/2+z
1/2-x,1/2-y,1/2+z
1/2+x,1/2-y,-z
1/2-x,1/2+y,-z
1/2-x,1/2-y,1/2-z
1/2+x,1/2+y,1/2-z
1/2-x,1/2+y,z
1/2+x,1/2-y,z
loop_
_atom_site_type_symbol
_atom_site_label
_atom_site_fract_x
_atom_site_fract_y
_atom_site_fract_z
Si Si1 0.690589 0.999682 0.300297
Si Si2 0.247961 0.929544 0.605933
Si Si3 0.491092 0.165073 0.700261
Si Si4 0.895283 0.577308 0.051409
Si Si5 0.953833 0.276161 0.893869
Si Si6 0.970905 0.886158 0.051490
O O1 0.765708 0.029481 0.343131
O O2 0.589489 0.081271 0.299648
O O3 0.742390 0.000000 0.250000
O O4 0.625174 0.896152 0.306767
O O5 0.346293 0.847634 0.605912
O O6 0.140145 0.882619 0.582458
O O7 0.294858 0.019383 0.575788
O O8 0.500000 0.210713 0.750000
O O9 0.512023 0.235946 0.658339
O O10 0.000000 0.500000 0.049743
O O11 0.944515 0.665998 0.080733
O O12 0.866610 0.604685 0.000000
O O13 0.936534 0.178599 0.922555
O O14 0.954278 0.851239 0.000000
O O15 0.000000 0.000000 0.049567
#
# Coordination Sequence:
#
# PCOD9526270 Si02
#       6
#    16  16  16  16  16  16
#     4   8  13  25  52  88 118 144 175 222 281 339
#     4  10  19  35  59  84 115 148 184 233 287 338
#     4   8  13  25  52  88 118 141 175 229 284 326
#     4   9  16  27  50  84 112 134 175 234 282 324
#     4  10  19  35  59  83 111 144 192 240 276 330
#     4  11  26  43  56  75 111 155 193 232 287 348
#
# _framework density 20.157758000000001
#
# number of rings (size 3 to 8) (size 9 to 14) (size 15 to 20)
#    0.000    2.667    1.667    2.000    0.000    3.333 
#    0.000    1.667    3.667    3.000    0.000    0.000 
#    0.000    0.000    0.000    0.000    0.000    0.000 
#
# Total GULP energy -267690.335076 kJ/mol
# GULP energy per Si atom -5576.881981 kJ/mol
# Density = 2.011188 g / cm^3
# Si number density = 20.157758 Si / 1000 Ang^3
#
#
#
# Elastic Constant Matrix: (Units=GPa)
#
#
# Indices 1 2 3 4 5 6 
#
# 1 27.8851 2.2447 29.8427 0.0000 0.0000 0.0000
# 2 2.2447 55.6613 39.6239 0.0000 0.0000 0.0000
# 3 29.8427 39.6239 204.3383 0.0000 0.0000 0.0000
# 4 0.0000 0.0000 0.0000 21.2836 0.0000 0.0000
# 5 0.0000 0.0000 0.0000 0.0000 12.3354 0.0000
# 6 0.0000 0.0000 0.0000 0.0000 0.0000 12.5562
#
#
#
# Elastic Compliance Matrix: (Units=1/GPa)
#
#
# Indices 1 2 3 4 5 6 
#
# 1 0.042983 0.003173 -0.006893 0.000000 0.000000 0.000000
# 2 0.003173 0.021077 -0.004551 0.000000 0.000000 0.000000
# 3 -0.006893 -0.004551 0.006783 0.000000 0.000000 0.000000
# 4 0.000000 0.000000 0.000000 0.046985 0.000000 0.000000
# 5 0.000000 0.000000 0.000000 0.000000 0.081067 0.000000
# 6 0.000000 0.000000 0.000000 0.000000 0.000000 0.079642
#
#
# Mechanical properties :
#
#
# Convention : Reuss Voigt Hill
#
# Bulk Modulus (GPa) = 18.41523 47.92302 33.16913
# Shear Modulus (GPa) = 15.96537 23.64661 19.80599
#
# Velocity S-wave (km/s) = 2.81734 3.42874 3.13796
# Velocity P-wave (km/s) = 4.44281 6.28495 5.44239
#
# Compressibility (1/GPa) = 0.05430287
#
# Stress axis : x y z
#
# Youngs Moduli (GPa) = 23.26519 47.44436 147.42896
#
# Poissons Ratio (x) = -0.15056 1.01620
# Poissons Ratio (y) = -0.07383 0.67089
# Poissons Ratio (z) = 0.16036 0.21590
#
# Static dielectric constant tensor:
#      x y z
#    x 1.708280 0.000000 0.000000 
#    y 0.000000 1.749380 0.000000 
#    z 0.000000 0.000000 1.733760 
# 
# From -- ./inp_files/48127.got.cif
#   From: 2010.05.17/outbox.cif.g08.bks.cpg/sg72_25_cif.got.tgz:48127.got - 2010.06.03 17:03:01.
