data_PCOD9526499
_publ_section_title
;
Structure prediction by ZEFSAII (Michael W. Deem and Ramdas Pophale) SiO2 
 PCOD9526499
Probable space group: I B A M
;
_chemical_formula_sum "Si O2"
_cell_formula_units_Z 104
_cell_length_a 22.398145
_cell_length_b 8.627659
_cell_length_c 30.998312
_cell_angle_alpha 90.000000
_cell_angle_beta 90.000000
_cell_angle_gamma 90.000000
_cell_volume 5990.224081
_symmetry_space_group_name_H-M "I B A M"
_symmetry_group_IT_number 72
_symmetry_cell_setting 'orthorhombic'
loop_
_space_group_symop_operation_xyz
x,y,z
-x,-y,z
x,-y,1/2-z
-x,y,1/2-z
-x,-y,-z
x,y,-z
-x,y,1/2+z
x,-y,1/2+z
1/2+x,1/2+y,1/2+z
1/2-x,1/2-y,1/2+z
1/2+x,1/2-y,-z
1/2-x,1/2+y,-z
1/2-x,1/2-y,1/2-z
1/2+x,1/2+y,1/2-z
1/2-x,1/2+y,z
1/2+x,1/2-y,z
loop_
_atom_site_type_symbol
_atom_site_label
_atom_site_fract_x
_atom_site_fract_y
_atom_site_fract_z
Si Si1 0.072590 0.166474 0.451762
Si Si2 0.667060 0.769802 0.709776
Si Si3 0.256679 0.500000 0.750000
Si Si4 0.434489 0.675803 0.266974
Si Si5 0.571567 0.302261 0.952914
Si Si6 0.941052 0.707939 0.359661
Si Si7 0.581574 0.847058 0.634809
O O1 0.094388 0.216989 0.500000
O O2 0.087129 0.241615 0.405481
O O3 0.000847 0.193664 0.453307
O O4 0.086895 0.983802 0.447636
O O5 0.702521 0.614369 0.721985
O O6 0.714598 0.904681 0.717526
O O7 0.614725 0.782656 0.745065
O O8 0.631410 0.771602 0.665099
O O9 0.427261 0.500000 0.250000
O O10 0.500000 0.724947 0.250000
O O11 0.425576 0.689270 0.318133
O O12 0.594231 0.193556 0.914903
O O13 0.591734 0.248880 0.000000
O O14 0.922838 0.528749 0.354187
O O15 0.013726 0.715912 0.359756
#
# Coordination Sequence:
#
# PCOD9526499 Si02
#       7
#    16  16   8  16  16  16  16
#     4   8  15  27  45  67 103 146 180 205 238 308
#     4  11  21  40  53  77  99 140 182 223 266 310
#     4  10  24  38  58  68 100 136 186 230 260 304
#     4  11  22  33  53  80 107 142 173 218 269 324
#     4   8  15  27  45  71 101 139 176 209 252 310
#     4  10  20  31  46  77 110 143 174 206 265 319
#     4  10  20  32  50  74 108 140 171 219 263 317
#
# _framework density 17.361619999999998
#
# number of rings (size 3 to 8) (size 9 to 14) (size 15 to 20)
#    0.000    2.308    2.308    1.846    2.154    1.846 
#    0.000    3.077    0.000    0.000    0.000    1.077 
#    0.000    4.923    0.000    0.308    0.000    0.000 
#
# Total GULP energy -289500.771240 kJ/mol
# GULP energy per Si atom -5567.322524 kJ/mol
# Density = 1.732210 g / cm^3
# Si number density = 17.361620 Si / 1000 Ang^3
#
#
#
# Elastic Constant Matrix: (Units=GPa)
#
#
# Indices 1 2 3 4 5 6 
#
# 1 63.4377 24.1972 26.0210 0.0000 0.0000 0.0000
# 2 24.1972 48.2943 48.0187 0.0000 0.0000 0.0000
# 3 26.0210 48.0187 153.5947 0.0000 0.0000 0.0000
# 4 0.0000 0.0000 0.0000 19.2351 0.0000 0.0000
# 5 0.0000 0.0000 0.0000 0.0000 9.3583 0.0000
# 6 0.0000 0.0000 0.0000 0.0000 0.0000 -2.3421
#
#
#
# Elastic Compliance Matrix: (Units=1/GPa)
#
#
# Indices 1 2 3 4 5 6 
#
# 1 0.019502 -0.009412 -0.000361 0.000000 0.000000 0.000000
# 2 -0.009412 0.034588 -0.009219 0.000000 0.000000 0.000000
# 3 -0.000361 -0.009219 0.009454 0.000000 0.000000 0.000000
# 4 0.000000 0.000000 0.000000 0.051988 0.000000 0.000000
# 5 0.000000 0.000000 0.000000 0.000000 0.106858 0.000000
# 6 0.000000 0.000000 0.000000 0.000000 0.000000 -0.426968
#
#
# Mechanical properties :
#
#
# Convention : Reuss Voigt Hill
#
# Bulk Modulus (GPa) = 39.12389 51.31119 45.21754
# Shear Modulus (GPa) = -31.63066 16.38957 -7.62054
#
# Velocity S-wave (km/s) = -4.27297 3.07581 -2.09734
# Velocity P-wave (km/s) = 1.32693 6.49867 4.49844
#
# Compressibility (1/GPa) = 0.02555983
#
# Stress axis : x y z
#
# Youngs Moduli (GPa) = 51.27766 28.91148 105.77498
#
# Poissons Ratio (x) = 0.27211 0.03823
# Poissons Ratio (y) = 0.48261 0.97514
# Poissons Ratio (z) = 0.01853 0.26653
#
# Static dielectric constant tensor:
#      x y z
#    x 1.573220 0.000000 0.000000 
#    y 0.000000 1.617340 0.000000 
#    z 0.000000 0.000000 1.638040 
# 
# From -- ./inp_files/52399.got.cif
#   From: 2010.05.17/outbox.cif.g08.bks.cpg/sg72_27_cif.got.tgz:52399.got - 2010.06.03 17:03:01.
