data_PCOD9526649
_publ_section_title
;
Structure prediction by ZEFSAII (Michael W. Deem and Ramdas Pophale) SiO2 
 PCOD9526649
Probable space group: I B A M
;
_chemical_formula_sum "Si O2"
_cell_formula_units_Z 64
_cell_length_a 12.901815
_cell_length_b 18.168691
_cell_length_c 11.559300
_cell_angle_alpha 90.000000
_cell_angle_beta 90.000000
_cell_angle_gamma 90.000000
_cell_volume 2709.604995
_symmetry_space_group_name_H-M "I B A M"
_symmetry_group_IT_number 72
_symmetry_cell_setting 'orthorhombic'
loop_
_space_group_symop_operation_xyz
x,y,z
-x,-y,z
x,-y,1/2-z
-x,y,1/2-z
-x,-y,-z
x,y,-z
-x,y,1/2+z
x,-y,1/2+z
1/2+x,1/2+y,1/2+z
1/2-x,1/2-y,1/2+z
1/2+x,1/2-y,-z
1/2-x,1/2+y,-z
1/2-x,1/2-y,1/2-z
1/2+x,1/2+y,1/2-z
1/2-x,1/2+y,z
1/2+x,1/2-y,z
loop_
_atom_site_type_symbol
_atom_site_label
_atom_site_fract_x
_atom_site_fract_y
_atom_site_fract_z
Si Si1 0.983493 0.830718 0.500000
Si Si2 0.197584 0.669816 0.248307
Si Si3 0.846829 0.962969 0.000000
Si Si4 0.110559 0.086747 0.690150
Si Si5 0.178813 0.658994 0.000000
Si Si6 0.850372 0.707968 0.000000
O O1 0.063092 0.900496 0.500000
O O2 0.046325 0.756837 0.500000
O O3 0.911184 0.842796 0.609088
O O4 0.250000 0.750000 0.250000
O O5 0.291844 0.611621 0.235656
O O6 0.154449 0.662869 0.379460
O O7 0.130678 0.663159 0.130018
O O8 0.862542 0.017955 0.891236
O O9 0.740502 0.918546 0.000000
O O10 0.000000 0.077098 0.750000
O O11 0.260566 0.728159 0.000000
#
# Coordination Sequence:
#
# PCOD9526649 Si02
#       6
#     8  16   8  16   8   8
#     4  10  21  32  47  74 102 134 176 218 247 294
#     4  10  20  34  50  68  95 139 180 214 254 292
#     4  10  21  32  43  70 108 141 173 201 237 297
#     4  11  20  30  47  71 101 142 176 205 246 299
#     4   9  19  31  46  69  96 131 173 213 243 285
#     4   9  17  35  52  65  91 134 176 214 259 298
#
# _framework density 23.619679000000001
#
# number of rings (size 3 to 8) (size 9 to 14) (size 15 to 20)
#    0.000    2.000    0.000    7.500    0.000    8.000 
#    0.000    0.000    0.000    1.500    0.000    0.000 
#    0.000    0.000    0.000  688.500    0.000    0.000 
#
# Total GULP energy -178680.517031 kJ/mol
# GULP energy per Si atom -5583.766157 kJ/mol
# Density = 2.356592 g / cm^3
# Si number density = 23.619679 Si / 1000 Ang^3
#
#
#
# Elastic Constant Matrix: (Units=GPa)
#
#
# Indices 1 2 3 4 5 6 
#
# 1 35.4820 43.4394 22.7507 0.0000 0.0000 0.0000
# 2 43.4394 105.5108 42.6103 0.0000 0.0000 0.0000
# 3 22.7507 42.6103 219.4438 0.0000 0.0000 0.0000
# 4 0.0000 0.0000 0.0000 15.0134 0.0000 0.0000
# 5 0.0000 0.0000 0.0000 0.0000 24.2912 0.0000
# 6 0.0000 0.0000 0.0000 0.0000 0.0000 38.5425
#
#
#
# Elastic Compliance Matrix: (Units=1/GPa)
#
#
# Indices 1 2 3 4 5 6 
#
# 1 0.057262 -0.022979 -0.001475 0.000000 0.000000 0.000000
# 2 -0.022979 0.019506 -0.001405 0.000000 0.000000 0.000000
# 3 -0.001475 -0.001405 0.004983 0.000000 0.000000 0.000000
# 4 0.000000 0.000000 0.000000 0.066607 0.000000 0.000000
# 5 0.000000 0.000000 0.000000 0.000000 0.041167 0.000000
# 6 0.000000 0.000000 0.000000 0.000000 0.000000 0.025945
#
#
# Mechanical properties :
#
#
# Convention : Reuss Voigt Hill
#
# Bulk Modulus (GPa) = 33.29785 64.22637 48.76211
# Shear Modulus (GPa) = 18.03758 32.34518 25.19138
#
# Velocity S-wave (km/s) = 2.76645 3.70458 3.26934
# Velocity P-wave (km/s) = 4.93279 6.74903 5.91109
#
# Compressibility (1/GPa) = 0.03003197
#
# Stress axis : x y z
#
# Youngs Moduli (GPa) = 17.46369 51.26638 200.69458
#
# Poissons Ratio (x) = 1.17807 0.29593
# Poissons Ratio (y) = 0.40131 0.28201
# Poissons Ratio (z) = 0.02575 0.07204
#
# Static dielectric constant tensor:
#      x y z
#    x 1.856330 0.000000 0.000000 
#    y 0.000000 1.868030 0.000000 
#    z 0.000000 0.000000 2.107140 
# 
# From -- ./inp_files/12425.got.cif
#   From: 2010.05.17/outbox.cif.g08.bks.cpg/sg72_7_cif.got.tgz:12425.got - 2010.06.03 17:03:01.
