data_PCOD9526445
_publ_section_title
;
Structure prediction by ZEFSAII (Michael W. Deem and Ramdas Pophale) SiO2 
 PCOD9526445
Probable space group: I B A M
;
_chemical_formula_sum "Si O2"
_cell_formula_units_Z 96
_cell_length_a 15.085991
_cell_length_b 19.397648
_cell_length_c 15.512721
_cell_angle_alpha 90.000000
_cell_angle_beta 90.000000
_cell_angle_gamma 90.000000
_cell_volume 4539.530100
_symmetry_space_group_name_H-M "I B A M"
_symmetry_group_IT_number 72
_symmetry_cell_setting 'orthorhombic'
loop_
_space_group_symop_operation_xyz
x,y,z
-x,-y,z
x,-y,1/2-z
-x,y,1/2-z
-x,-y,-z
x,y,-z
-x,y,1/2+z
x,-y,1/2+z
1/2+x,1/2+y,1/2+z
1/2-x,1/2-y,1/2+z
1/2+x,1/2-y,-z
1/2-x,1/2+y,-z
1/2-x,1/2-y,1/2-z
1/2+x,1/2+y,1/2-z
1/2-x,1/2+y,z
1/2+x,1/2-y,z
loop_
_atom_site_type_symbol
_atom_site_label
_atom_site_fract_x
_atom_site_fract_y
_atom_site_fract_z
Si Si1 0.837321 0.590104 0.095587
Si Si2 0.295083 0.046529 0.163668
Si Si3 0.697260 0.301069 0.348220
Si Si4 0.184432 0.819512 0.647000
Si Si5 0.507534 0.717768 0.146123
Si Si6 0.532324 0.121300 0.396704
O O1 0.799477 0.513658 0.093816
O O2 0.770746 0.639789 0.144990
O O3 0.938079 0.587492 0.128341
O O4 0.843799 0.620225 0.000000
O O5 0.218379 0.102372 0.149035
O O6 0.386377 0.089210 0.155744
O O7 0.288083 0.000000 0.250000
O O8 0.740590 0.232370 0.389080
O O9 0.679973 0.293650 0.246246
O O10 0.599530 0.316976 0.384551
O O11 0.086297 0.808729 0.609926
O O12 0.500000 0.709717 0.250000
O O13 0.520189 0.798136 0.123934
O O14 0.547097 0.111165 0.500000
#
# Coordination Sequence:
#
# PCOD9526445 Si02
#       6
#    16  16  16  16  16  16
#     4  11  24  41  59  88 132 171 201 258 331 389
#     4  12  24  40  64  91 129 170 216 262 316 389
#     4  10  19  38  62  89 121 156 211 259 306 378
#     4  10  20  38  62  95 119 154 213 264 306 365
#     4  10  21  37  67  93 123 159 210 265 311 369
#     4  11  24  40  59  95 133 162 203 264 328 386
#
# _framework density 21.147563000000002
#
# number of rings (size 3 to 8) (size 9 to 14) (size 15 to 20)
#    0.000    1.333    5.000    1.000    2.333    2.667 
#    0.000    2.500    0.000    1.000    0.000    0.000 
#    0.000    0.000    0.000    0.000    0.000    0.000 
#
# Total GULP energy -267803.944457 kJ/mol
# GULP energy per Si atom -5579.248843 kJ/mol
# Density = 2.109943 g / cm^3
# Si number density = 21.147563 Si / 1000 Ang^3
#
#
#
# Elastic Constant Matrix: (Units=GPa)
#
#
# Indices 1 2 3 4 5 6 
#
# 1 156.0749 59.4117 7.6503 0.0000 0.0000 0.0000
# 2 59.4117 84.0893 -18.2689 0.0000 0.0000 0.0000
# 3 7.6503 -18.2689 33.6814 0.0000 0.0000 0.0000
# 4 0.0000 0.0000 0.0000 8.4745 0.0000 0.0000
# 5 0.0000 0.0000 0.0000 0.0000 -2.2787 0.0000
# 6 0.0000 0.0000 0.0000 0.0000 0.0000 36.3085
#
#
#
# Elastic Compliance Matrix: (Units=1/GPa)
#
#
# Indices 1 2 3 4 5 6 
#
# 1 0.010013 -0.008579 -0.006928 0.000000 0.000000 0.000000
# 2 -0.008579 0.020832 0.013248 0.000000 0.000000 0.000000
# 3 -0.006928 0.013248 0.038449 0.000000 -0.000001 0.000000
# 4 0.000000 0.000000 0.000000 0.118002 -0.000001 0.000000
# 5 0.000000 0.000000 -0.000001 -0.000001 -0.438851 0.000000
# 6 0.000000 0.000000 0.000000 0.000000 0.000000 0.027542
#
#
# Mechanical properties :
#
#
# Convention : Reuss Voigt Hill
#
# Bulk Modulus (GPa) = 15.43790 41.27021 28.35405
# Shear Modulus (GPa) = -25.26469 23.50435 -0.88017
#
# Velocity S-wave (km/s) = -3.46017 3.33745 -0.64584
# Velocity P-wave (km/s) = 2.94071 5.86593 3.58897
#
# Compressibility (1/GPa) = 0.06477566
#
# Stress axis : x y z
#
# Youngs Moduli (GPa) = 99.87481 48.00351 26.00831
#
# Poissons Ratio (x) = 0.41183 0.18018
# Poissons Ratio (y) = 0.85685 -0.34456
# Poissons Ratio (z) = 0.69190 -0.63595
#
# Static dielectric constant tensor:
#      x y z
#    x 1.819740 0.000000 0.000000 
#    y 0.000000 1.727360 0.000000 
#    z 0.000000 0.000000 1.870690 
# 
# From -- ./inp_files/21774.got.cif
#   From: 2010.05.17/outbox.cif.g08.bks.cpg/sg72_11_cif.got.tgz:21774.got - 2010.06.03 17:03:01.
