data_PCOD9526936
_publ_section_title
;
Structure prediction by ZEFSAII (Michael W. Deem and Ramdas Pophale) SiO2 
 PCOD9526936
Probable space group: I B A M
;
_chemical_formula_sum "Si O2"
_cell_formula_units_Z 88
_cell_length_a 27.915793
_cell_length_b 8.169856
_cell_length_c 17.937955
_cell_angle_alpha 90.000000
_cell_angle_beta 90.000000
_cell_angle_gamma 90.000000
_cell_volume 4091.073681
_symmetry_space_group_name_H-M "I B A M"
_symmetry_group_IT_number 72
_symmetry_cell_setting 'orthorhombic'
loop_
_space_group_symop_operation_xyz
x,y,z
-x,-y,z
x,-y,1/2-z
-x,y,1/2-z
-x,-y,-z
x,y,-z
-x,y,1/2+z
x,-y,1/2+z
1/2+x,1/2+y,1/2+z
1/2-x,1/2-y,1/2+z
1/2+x,1/2-y,-z
1/2-x,1/2+y,-z
1/2-x,1/2-y,1/2-z
1/2+x,1/2+y,1/2-z
1/2-x,1/2+y,z
1/2+x,1/2-y,z
loop_
_atom_site_type_symbol
_atom_site_label
_atom_site_fract_x
_atom_site_fract_y
_atom_site_fract_z
Si Si1 0.677379 0.233563 0.087735
Si Si2 0.464929 0.640551 0.412711
Si Si3 0.605429 0.935269 0.670632
Si Si4 0.135077 0.248844 0.410474
Si Si5 0.000000 0.500000 0.369152
Si Si6 0.271427 0.581011 0.588212
O O1 0.631089 0.226299 0.140358
O O2 0.706434 0.402080 0.093560
O O3 0.717490 0.103725 0.115469
O O4 0.664266 0.212420 0.000000
O O5 0.500000 0.500000 0.380694
O O6 0.459598 0.600819 0.500000
O O7 0.410817 0.646657 0.381030
O O8 0.484459 0.828362 0.408436
O O9 0.622745 0.000000 0.750000
O O10 0.622189 0.066542 0.609068
O O11 0.548043 0.939821 0.672043
O O12 0.136811 0.228766 0.500000
O O13 0.186723 0.196568 0.380410
O O14 0.266373 0.620938 0.500000
#
# Coordination Sequence:
#
# PCOD9526936 Si02
#       6
#    16  16  16  16   8  16
#     4  10  20  35  59  86 113 147 188 231 284 344
#     4   9  18  31  54  88 119 145 186 244 293 340
#     4  11  23  39  57  80 112 152 196 240 287 338
#     4   9  18  35  57  82 114 147 183 231 287 338
#     4  10  22  38  58  76 115 160 201 236 295 346
#     4   9  18  34  59  89 116 146 184 230 281 347
#
# _framework density 21.510247
#
# number of rings (size 3 to 8) (size 9 to 14) (size 15 to 20)
#    0.000    2.364    0.000    2.182    2.545    5.091 
#    0.000    4.545    0.000    1.091    0.000    0.000 
#    0.000    0.000    0.000    0.000    0.000    0.000 
#
# Total GULP energy -244995.909360 kJ/mol
# GULP energy per Si atom -5568.088849 kJ/mol
# Density = 2.146129 g / cm^3
# Si number density = 21.510247 Si / 1000 Ang^3
#
#
#
# Elastic Constant Matrix: (Units=GPa)
#
#
# Indices 1 2 3 4 5 6 
#
# 1 114.0637 11.5618 10.2256 0.0000 0.0000 0.0000
# 2 11.5618 46.4164 -10.2944 0.0000 0.0000 0.0000
# 3 10.2256 -10.2944 13.4175 0.0000 0.0000 0.0000
# 4 0.0000 0.0000 0.0000 -8.1415 0.0000 0.0000
# 5 0.0000 0.0000 0.0000 0.0000 8.2351 0.0000
# 6 0.0000 0.0000 0.0000 0.0000 0.0000 34.9335
#
#
#
# Elastic Compliance Matrix: (Units=1/GPa)
#
#
# Indices 1 2 3 4 5 6 
#
# 1 0.010363 -0.005222 -0.011904 0.000000 0.000000 0.000000
# 2 -0.005222 0.028593 0.025917 0.000000 0.000000 0.000000
# 3 -0.011904 0.025917 0.103486 0.000000 0.000000 0.000000
# 4 0.000000 0.000000 0.000000 -0.122828 0.000000 0.000000
# 5 0.000000 0.000000 0.000000 0.000000 0.121431 0.000000
# 6 0.000000 0.000000 0.000000 0.000000 0.000000 0.028626
#
#
# Mechanical properties :
#
#
# Convention : Reuss Voigt Hill
#
# Bulk Modulus (GPa) = 6.24908 21.87596 14.06252
# Shear Modulus (GPa) = 24.33914 17.83242 21.08578
#
# Velocity S-wave (km/s) = 3.36745 2.88239 3.13432
# Velocity P-wave (km/s) = 4.24630 4.61191 4.43287
#
# Compressibility (1/GPa) = 0.16002364
#
# Stress axis : x y z
#
# Youngs Moduli (GPa) = 96.49256 34.97405 9.66316
#
# Poissons Ratio (x) = 0.18262 0.11503
# Poissons Ratio (y) = 0.50385 -0.25044
# Poissons Ratio (z) = 1.14867 -0.90641
#
# Static dielectric constant tensor:
#      x y z
#    x 1.854850 0.000000 0.000000 
#    y 0.000000 1.873720 0.000000 
#    z 0.000000 0.000000 1.746080 
# 
# From -- ./inp_files/40158.got.cif
#   From: 2010.05.17/outbox.cif.g08.bks.cpg/sg72_21_cif.got.tgz:40158.got - 2010.06.03 17:03:01.
