data_PCOD9526127
_publ_section_title
;
Structure prediction by ZEFSAII (Michael W. Deem and Ramdas Pophale) SiO2 
 PCOD9526127
Probable space group: I B A M
;
_chemical_formula_sum "Si O2"
_cell_formula_units_Z 64
_cell_length_a 25.988995
_cell_length_b 5.207926
_cell_length_c 25.099402
_cell_angle_alpha 90.000000
_cell_angle_beta 90.000000
_cell_angle_gamma 90.000000
_cell_volume 3397.173007
_symmetry_space_group_name_H-M "I B A M"
_symmetry_group_IT_number 72
_symmetry_cell_setting 'orthorhombic'
loop_
_space_group_symop_operation_xyz
x,y,z
-x,-y,z
x,-y,1/2-z
-x,y,1/2-z
-x,-y,-z
x,y,-z
-x,y,1/2+z
x,-y,1/2+z
1/2+x,1/2+y,1/2+z
1/2-x,1/2-y,1/2+z
1/2+x,1/2-y,-z
1/2-x,1/2+y,-z
1/2-x,1/2-y,1/2-z
1/2+x,1/2+y,1/2-z
1/2-x,1/2+y,z
1/2+x,1/2-y,z
loop_
_atom_site_type_symbol
_atom_site_label
_atom_site_fract_x
_atom_site_fract_y
_atom_site_fract_z
Si Si1 0.720643 0.424678 0.435156
Si Si2 0.441820 0.752789 0.274015
Si Si3 0.445007 0.875083 0.398304
Si Si4 0.891097 0.122563 0.437372
O O1 0.719914 0.420556 0.500000
O O2 0.738686 0.142855 0.418375
O O3 0.663925 0.512997 0.418629
O O4 0.416919 0.500000 0.250000
O O5 0.500000 0.751539 0.250000
O O6 0.445754 0.781912 0.336997
O O7 0.414921 0.000000 0.250000
O O8 0.429995 0.617418 0.429926
O O9 0.500000 0.000000 0.412337
O O10 0.406869 0.115393 0.407829
O O11 0.887763 0.187266 0.500000
#
# Coordination Sequence:
#
# PCOD9526127 Si02
#       4
#    16  16  16  16
#     4   9  17  33  56  76 100 140 186 237 282 303
#     4  10  19  34  56  76  96 136 180 246 281 298
#     4  12  23  36  55  79 114 158 187 222 270 327
#     4  11  24  37  52  81 119 153 192 223 256 336
#
# _framework density 18.839193999999999
#
# number of rings (size 3 to 8) (size 9 to 14) (size 15 to 20)
#    0.000    1.500    2.500    4.500    3.500    7.000 
#    0.000    0.000    0.000    0.000    0.000    0.000 
#    0.000   70.000    0.000    0.000    0.000    0.000 
#
# Total GULP energy -178471.003373 kJ/mol
# GULP energy per Si atom -5577.218855 kJ/mol
# Density = 1.879632 g / cm^3
# Si number density = 18.839194 Si / 1000 Ang^3
#
#
#
# Elastic Constant Matrix: (Units=GPa)
#
#
# Indices 1 2 3 4 5 6 
#
# 1 35.9959 -4.8857 9.1791 0.0000 0.0000 0.0000
# 2 -4.8857 118.7291 5.2536 0.0000 0.0000 0.0000
# 3 9.1791 5.2536 43.0125 0.0000 0.0000 0.0000
# 4 0.0000 0.0000 0.0000 35.3397 0.0000 0.0000
# 5 0.0000 0.0000 0.0000 0.0000 -11.1192 0.0000
# 6 0.0000 0.0000 0.0000 0.0000 0.0000 22.1619
#
#
#
# Elastic Compliance Matrix: (Units=1/GPa)
#
#
# Indices 1 2 3 4 5 6 
#
# 1 0.029646 0.001508 -0.006511 0.000000 0.000000 0.000000
# 2 0.001508 0.008545 -0.001366 0.000000 0.000000 0.000000
# 3 -0.006511 -0.001366 0.024805 0.000000 0.000000 0.000000
# 4 0.000000 0.000000 0.000000 0.028297 0.000000 0.000000
# 5 0.000000 0.000000 0.000000 0.000000 -0.089935 0.000000
# 6 0.000000 0.000000 0.000000 0.000000 0.000000 0.045122
#
#
# Mechanical properties :
#
#
# Convention : Reuss Voigt Hill
#
# Bulk Modulus (GPa) = 19.89668 24.09238 21.99453
# Shear Modulus (GPa) = 65.81478 21.82251 43.81864
#
# Velocity S-wave (km/s) = 5.91700 3.40716 4.82802
# Velocity P-wave (km/s) = 7.56739 5.31926 6.54064
#
# Compressibility (1/GPa) = 0.05025965
#
# Stress axis : x y z
#
# Youngs Moduli (GPa) = 33.73142 117.02733 40.31393
#
# Poissons Ratio (x) = -0.17648 0.26248
# Poissons Ratio (y) = -0.05087 0.05505
# Poissons Ratio (z) = 0.21962 0.15980
#
# Static dielectric constant tensor:
#      x y z
#    x 1.670580 0.000000 0.000000 
#    y 0.000000 1.668070 0.000000 
#    z 0.000000 0.000000 1.653890 
# 
# From -- ./inp_files/34693.got.cif
#   From: 2010.05.17/outbox.cif.g08.bks.cpg/sg72_18_cif.got.tgz:34693.got - 2010.06.03 17:03:01.
