data_PCOD9526030
_publ_section_title
;
Structure prediction by ZEFSAII (Michael W. Deem and Ramdas Pophale) SiO2 
 PCOD9526030
Probable space group: I B A M
;
_chemical_formula_sum "Si O2"
_cell_formula_units_Z 96
_cell_length_a 9.614770
_cell_length_b 24.318376
_cell_length_c 21.131600
_cell_angle_alpha 90.000000
_cell_angle_beta 90.000000
_cell_angle_gamma 90.000000
_cell_volume 4940.897564
_symmetry_space_group_name_H-M "I B A M"
_symmetry_group_IT_number 72
_symmetry_cell_setting 'orthorhombic'
loop_
_space_group_symop_operation_xyz
x,y,z
-x,-y,z
x,-y,1/2-z
-x,y,1/2-z
-x,-y,-z
x,y,-z
-x,y,1/2+z
x,-y,1/2+z
1/2+x,1/2+y,1/2+z
1/2-x,1/2-y,1/2+z
1/2+x,1/2-y,-z
1/2-x,1/2+y,-z
1/2-x,1/2-y,1/2-z
1/2+x,1/2+y,1/2-z
1/2-x,1/2+y,z
1/2+x,1/2-y,z
loop_
_atom_site_type_symbol
_atom_site_label
_atom_site_fract_x
_atom_site_fract_y
_atom_site_fract_z
Si Si1 0.333832 0.064619 0.261473
Si Si2 0.466915 0.662252 0.571131
Si Si3 0.074895 0.450831 0.429826
Si Si4 0.948740 0.292296 0.076550
Si Si5 0.830533 0.374422 0.394818
Si Si6 0.768990 0.874035 0.858900
O O1 0.500000 0.067479 0.250000
O O2 0.310988 0.091640 0.330160
O O3 0.259858 0.106325 0.212177
O O4 0.292998 0.000000 0.250000
O O5 0.526997 0.656591 0.500000
O O6 0.442383 0.726863 0.583064
O O7 0.318644 0.632564 0.574276
O O8 0.574665 0.638719 0.621766
O O9 0.114409 0.469077 0.500000
O O10 0.207552 0.425868 0.397326
O O11 0.000000 0.500000 0.393023
O O12 0.951364 0.406836 0.431818
O O13 0.826529 0.323759 0.114706
O O14 0.093287 0.314957 0.106439
O O15 0.940358 0.303303 0.000000
#
# Coordination Sequence:
#
# PCOD9526030 Si02
#       6
#    16  16  16  16  16  16
#     4  11  22  41  66  86 111 154 207 253 291 343
#     4  11  23  39  59  89 127 160 189 239 306 357
#     4  10  19  33  56  83 109 145 197 250 293 343
#     4  10  20  37  62  89 119 159 203 242 286 350
#     4  11  21  37  60  87 117 155 201 242 290 349
#     4  11  21  37  60  87 117 155 201 242 290 349
#
# _framework density 19.429667999999999
#
# number of rings (size 3 to 8) (size 9 to 14) (size 15 to 20)
#    0.000    1.333    3.333    6.000    0.000    3.333 
#    0.000    9.167    0.000    6.000    0.000    0.000 
#    0.000    0.000    0.000    0.000    0.000    0.000 
#
# Total GULP energy -267539.639240 kJ/mol
# GULP energy per Si atom -5573.742484 kJ/mol
# Density = 1.938545 g / cm^3
# Si number density = 19.429668 Si / 1000 Ang^3
#
#
#
# Elastic Constant Matrix: (Units=GPa)
#
#
# Indices 1 2 3 4 5 6 
#
# 1 76.0007 8.0098 2.9530 0.0000 0.0000 0.0000
# 2 8.0098 76.0764 27.1499 0.0000 0.0000 0.0000
# 3 2.9530 27.1499 97.1155 0.0000 0.0000 0.0000
# 4 0.0000 0.0000 0.0000 24.6632 0.0000 0.0000
# 5 0.0000 0.0000 0.0000 0.0000 25.2845 0.0000
# 6 0.0000 0.0000 0.0000 0.0000 0.0000 2.0688
#
#
#
# Elastic Compliance Matrix: (Units=1/GPa)
#
#
# Indices 1 2 3 4 5 6 
#
# 1 0.013305 -0.001396 -0.000014 0.000000 0.000000 0.000000
# 2 -0.001396 0.014748 -0.004081 0.000000 0.000000 0.000000
# 3 -0.000014 -0.004081 0.011438 0.000000 0.000000 0.000000
# 4 0.000000 0.000000 0.000000 0.040546 0.000000 0.000000
# 5 0.000000 0.000000 0.000000 0.000000 0.039550 0.000000
# 6 0.000000 0.000000 0.000000 0.000000 0.000000 0.483366
#
#
# Mechanical properties :
#
#
# Convention : Reuss Voigt Hill
#
# Bulk Modulus (GPa) = 35.07516 36.15759 35.61637
# Shear Modulus (GPa) = 8.02004 24.47530 16.24767
#
# Velocity S-wave (km/s) = 2.03389 3.55306 2.89490
# Velocity P-wave (km/s) = 4.85872 5.95669 5.43550
#
# Compressibility (1/GPa) = 0.02851021
#
# Stress axis : x y z
#
# Youngs Moduli (GPa) = 75.15726 67.80639 87.42624
#
# Poissons Ratio (x) = 0.09464 0.00126
# Poissons Ratio (y) = 0.10490 0.35674
# Poissons Ratio (z) = 0.00108 0.27669
#
# Static dielectric constant tensor:
#      x y z
#    x 1.648440 0.000000 0.000000 
#    y 0.000000 1.773440 0.000000 
#    z 0.000000 0.000000 1.702670 
# 
# From -- ./inp_files/36021.got.cif
#   From: 2010.05.17/outbox.cif.g08.bks.cpg/sg72_19_cif.got.tgz:36021.got - 2010.06.03 17:03:01.
