data_PCOD9526809
_publ_section_title
;
Structure prediction by ZEFSAII (Michael W. Deem and Ramdas Pophale) SiO2 
 PCOD9526809
Probable space group: I B A M
;
_chemical_formula_sum "Si O2"
_cell_formula_units_Z 88
_cell_length_a 14.276058
_cell_length_b 18.785223
_cell_length_c 18.519350
_cell_angle_alpha 90.000000
_cell_angle_beta 90.000000
_cell_angle_gamma 90.000000
_cell_volume 4966.499525
_symmetry_space_group_name_H-M "I B A M"
_symmetry_group_IT_number 72
_symmetry_cell_setting 'orthorhombic'
loop_
_space_group_symop_operation_xyz
x,y,z
-x,-y,z
x,-y,1/2-z
-x,y,1/2-z
-x,-y,-z
x,y,-z
-x,y,1/2+z
x,-y,1/2+z
1/2+x,1/2+y,1/2+z
1/2-x,1/2-y,1/2+z
1/2+x,1/2-y,-z
1/2-x,1/2+y,-z
1/2-x,1/2-y,1/2-z
1/2+x,1/2+y,1/2-z
1/2-x,1/2+y,z
1/2+x,1/2-y,z
loop_
_atom_site_type_symbol
_atom_site_label
_atom_site_fract_x
_atom_site_fract_y
_atom_site_fract_z
Si Si1 0.088639 0.133046 0.085435
Si Si2 0.374739 0.646143 0.414000
Si Si3 0.327978 0.499268 0.663508
Si Si4 0.373926 0.065042 0.130065
Si Si5 0.000000 0.500000 0.250000
Si Si6 0.000000 0.500000 0.500000
Si Si7 0.720178 0.208284 0.413016
O O1 0.172522 0.187347 0.104046
O O2 0.984796 0.163011 0.096023
O O3 0.104341 0.061389 0.130832
O O4 0.098530 0.115507 0.000000
O O5 0.359995 0.633118 0.500000
O O6 0.351756 0.575549 0.369836
O O7 0.311719 0.713107 0.391289
O O8 0.332840 0.500000 0.750000
O O9 0.223974 0.476986 0.638092
O O10 0.432897 0.036073 0.062902
O O11 0.345437 0.147138 0.119817
O O12 0.434828 0.049059 0.200449
O O13 0.710218 0.204568 0.500000
#
# Coordination Sequence:
#
# PCOD9526809 Si02
#       7
#    16  16  16  16   4   4  16
#     4   9  19  37  59  81 112 151 187 241 294 334
#     4  10  21  37  58  88 112 149 197 245 290 345
#     4  11  22  37  57  81 117 151 194 241 284 346
#     4  10  20  38  57  87 115 154 189 244 282 346
#     4  10  20  38  56  82 122 150 194 222 292 346
#     4  10  20  34  64  86 106 154 206 222 286 348
#     4   9  18  37  58  83 117 145 186 244 299 337
#
# _framework density 17.718717000000002
#
# number of rings (size 3 to 8) (size 9 to 14) (size 15 to 20)
#    0.000    2.182    1.818    1.091    2.545    2.909 
#    6.545    5.455    0.000    0.000    0.000    0.000 
#    0.000    0.000    0.000    0.000    0.000    0.000 
#
# Total GULP energy -244976.748528 kJ/mol
# GULP energy per Si atom -5567.653376 kJ/mol
# Density = 1.767839 g / cm^3
# Si number density = 17.718717 Si / 1000 Ang^3
#
#
#
# Elastic Constant Matrix: (Units=GPa)
#
#
# Indices 1 2 3 4 5 6 
#
# 1 60.9231 60.9479 30.8006 0.0000 0.0000 0.0000
# 2 60.9479 131.3992 49.5242 0.0000 0.0000 0.0000
# 3 30.8006 49.5242 74.7865 0.0000 0.0000 0.0000
# 4 0.0000 0.0000 0.0000 9.0104 0.0000 0.0000
# 5 0.0000 0.0000 0.0000 0.0000 -11.9155 0.0000
# 6 0.0000 0.0000 0.0000 0.0000 0.0000 20.8511
#
#
#
# Elastic Compliance Matrix: (Units=1/GPa)
#
#
# Indices 1 2 3 4 5 6 
#
# 1 0.031685 -0.013031 -0.004420 0.000000 0.000000 0.000000
# 2 -0.013031 0.015501 -0.004898 0.000000 0.000000 0.000000
# 3 -0.004420 -0.004898 0.018435 0.000000 0.000000 0.000000
# 4 0.000000 0.000000 0.000000 0.110983 0.000000 0.000000
# 5 0.000000 0.000000 0.000000 0.000000 -0.083924 0.000000
# 6 0.000000 0.000000 0.000000 0.000000 0.000000 0.047959
#
#
# Mechanical properties :
#
#
# Convention : Reuss Voigt Hill
#
# Bulk Modulus (GPa) = 47.79444 61.07266 54.43355
# Shear Modulus (GPa) = 25.99968 11.97827 18.98898
#
# Velocity S-wave (km/s) = 3.83477 2.60287 3.27722
# Velocity P-wave (km/s) = 6.82933 6.60121 6.71624
#
# Compressibility (1/GPa) = 0.02092294
#
# Stress axis : x y z
#
# Youngs Moduli (GPa) = 31.56087 64.51401 54.24360
#
# Poissons Ratio (x) = 0.84066 0.23977
# Poissons Ratio (y) = 0.41126 0.26568
# Poissons Ratio (z) = 0.13951 0.31599
#
# Static dielectric constant tensor:
#      x y z
#    x 1.610650 0.000000 0.000000 
#    y 0.000000 1.577900 0.000000 
#    z 0.000000 0.000000 1.587110 
# 
# From -- ./inp_files/30577.got.cif
#   From: 2010.05.17/outbox.cif.g08.bks.cpg/sg72_16_cif.got.tgz:30577.got - 2010.06.03 17:03:01.
