data_PCOD9526678
_publ_section_title
;
Structure prediction by ZEFSAII (Michael W. Deem and Ramdas Pophale) SiO2 
 PCOD9526678
Probable space group: I B A M
;
_chemical_formula_sum "Si O2"
_cell_formula_units_Z 128
_cell_length_a 12.980522
_cell_length_b 25.822346
_cell_length_c 19.960162
_cell_angle_alpha 90.000000
_cell_angle_beta 90.000000
_cell_angle_gamma 90.000000
_cell_volume 6690.397406
_symmetry_space_group_name_H-M "I B A M"
_symmetry_group_IT_number 72
_symmetry_cell_setting 'orthorhombic'
loop_
_space_group_symop_operation_xyz
x,y,z
-x,-y,z
x,-y,1/2-z
-x,y,1/2-z
-x,-y,-z
x,y,-z
-x,y,1/2+z
x,-y,1/2+z
1/2+x,1/2+y,1/2+z
1/2-x,1/2-y,1/2+z
1/2+x,1/2-y,-z
1/2-x,1/2+y,-z
1/2-x,1/2-y,1/2-z
1/2+x,1/2+y,1/2-z
1/2-x,1/2+y,z
1/2+x,1/2-y,z
loop_
_atom_site_type_symbol
_atom_site_label
_atom_site_fract_x
_atom_site_fract_y
_atom_site_fract_z
Si Si1 0.492076 0.910321 0.581020
Si Si2 0.465275 0.823846 0.182330
Si Si3 0.024331 0.793320 0.175329
Si Si4 0.212413 0.427618 0.078498
Si Si5 0.247096 0.687423 0.372949
Si Si6 0.330108 0.701950 0.921254
Si Si7 0.883133 0.006612 0.417949
Si Si8 0.734083 0.095738 0.419039
O O1 0.494517 0.907407 0.500000
O O2 0.507543 0.854604 0.615364
O O3 0.596170 0.939739 0.603272
O O4 0.377231 0.926459 0.601619
O O5 0.500000 0.852032 0.250000
O O6 0.522386 0.769139 0.179932
O O7 0.342274 0.815190 0.183473
O O8 0.136672 0.810475 0.152290
O O9 0.000000 0.813238 0.250000
O O10 0.933037 0.804990 0.122901
O O11 0.232716 0.366404 0.087297
O O12 0.306380 0.461226 0.106049
O O13 0.209772 0.439782 0.000000
O O14 0.218418 0.741069 0.410337
O O15 0.252717 0.655596 0.901021
O O16 0.354485 0.696128 0.000000
O O17 0.886463 0.005801 0.500000
O O18 0.828663 0.060041 0.397087
O O19 0.000000 0.000000 0.394742
O O20 0.733459 0.093915 0.500000
#
# Coordination Sequence:
#
# PCOD9526678 Si02
#       8
#    16  16  16  16  16  16  16  16
#     4   9  17  31  51  77 107 131 169 219 272 325
#     4   9  19  33  51  74 103 141 178 217 266 321
#     4  10  22  35  50  74 107 148 188 225 268 331
#     4   9  18  31  50  76 106 142 176 219 274 324
#     4  10  20  34  52  76 107 141 182 226 273 331
#     4  10  21  34  52  81 111 142 184 228 279 331
#     4   9  18  31  48  73 108 144 180 221 267 322
#     4   9  18  31  49  76 108 142 177 222 275 322
#
# _framework density 19.131898
#
# number of rings (size 3 to 8) (size 9 to 14) (size 15 to 20)
#    0.000    2.625    0.000    1.125    1.750   10.000 
#    0.000    2.500    0.000    0.000    0.000   12.250 
#    0.000    0.000    0.000    0.000    0.000    0.000 
#
# Total GULP energy -356297.262620 kJ/mol
# GULP energy per Si atom -5567.144728 kJ/mol
# Density = 1.908835 g / cm^3
# Si number density = 19.131898 Si / 1000 Ang^3
#
#
#
# Elastic Constant Matrix: (Units=GPa)
#
#
# Indices 1 2 3 4 5 6 
#
# 1 143.9413 27.7682 27.5271 0.0000 0.0000 0.0000
# 2 27.7682 68.5649 -3.0527 0.0000 0.0000 0.0000
# 3 27.5271 -3.0527 37.4373 0.0000 0.0000 0.0000
# 4 0.0000 0.0000 0.0000 2.4487 0.0000 0.0000
# 5 0.0000 0.0000 0.0000 0.0000 12.7409 0.0000
# 6 0.0000 0.0000 0.0000 0.0000 0.0000 27.6315
#
#
#
# Elastic Compliance Matrix: (Units=1/GPa)
#
#
# Indices 1 2 3 4 5 6 
#
# 1 0.009048 -0.003975 -0.006977 0.000000 0.000000 0.000000
# 2 -0.003975 0.016384 0.004259 0.000000 0.000000 0.000000
# 3 -0.006977 0.004259 0.032189 0.000000 0.000000 0.000000
# 4 0.000000 0.000000 0.000000 0.408377 0.000000 0.000000
# 5 0.000000 0.000000 0.000000 0.000000 0.078488 0.000000
# 6 0.000000 0.000000 0.000000 0.000000 0.000000 0.036191
#
#
# Mechanical properties :
#
#
# Convention : Reuss Voigt Hill
#
# Bulk Modulus (GPa) = 22.60681 39.38096 30.99389
# Shear Modulus (GPa) = 8.21275 21.74428 14.97852
#
# Velocity S-wave (km/s) = 2.07413 3.37493 2.80108
# Velocity P-wave (km/s) = 4.19261 5.98460 5.16689
#
# Compressibility (1/GPa) = 0.04423445
#
# Stress axis : x y z
#
# Youngs Moduli (GPa) = 110.51567 61.03418 31.06651
#
# Poissons Ratio (x) = 0.24262 0.21676
# Poissons Ratio (y) = 0.43932 -0.13231
# Poissons Ratio (z) = 0.77111 -0.25994
#
# Static dielectric constant tensor:
#      x y z
#    x 1.699870 0.000000 0.000000 
#    y 0.000000 1.693660 0.000000 
#    z 0.000000 0.000000 1.659590 
# 
# From -- ./inp_files/43760.got.cif
#   From: 2010.05.17/outbox.cif.g08.bks.cpg/sg72_22_cif.got.tgz:43760.got - 2010.06.03 17:03:01.
