data_PCOD9526375
_publ_section_title
;
Structure prediction by ZEFSAII (Michael W. Deem and Ramdas Pophale) SiO2 
 PCOD9526375
Probable space group: I B A M
;
_chemical_formula_sum "Si O2"
_cell_formula_units_Z 56
_cell_length_a 31.091518
_cell_length_b 7.314419
_cell_length_c 10.824626
_cell_angle_alpha 90.000000
_cell_angle_beta 90.000000
_cell_angle_gamma 90.000000
_cell_volume 2461.697368
_symmetry_space_group_name_H-M "I B A M"
_symmetry_group_IT_number 72
_symmetry_cell_setting 'orthorhombic'
loop_
_space_group_symop_operation_xyz
x,y,z
-x,-y,z
x,-y,1/2-z
-x,y,1/2-z
-x,-y,-z
x,y,-z
-x,y,1/2+z
x,-y,1/2+z
1/2+x,1/2+y,1/2+z
1/2-x,1/2-y,1/2+z
1/2+x,1/2-y,-z
1/2-x,1/2+y,-z
1/2-x,1/2-y,1/2-z
1/2+x,1/2+y,1/2-z
1/2-x,1/2+y,z
1/2+x,1/2-y,z
loop_
_atom_site_type_symbol
_atom_site_label
_atom_site_fract_x
_atom_site_fract_y
_atom_site_fract_z
Si Si1 0.000000 0.000000 0.500000
Si Si2 0.500000 0.000000 0.750000
Si Si3 0.346404 0.777366 0.753788
Si Si4 0.934282 0.782743 0.135006
Si Si5 0.702382 0.201321 0.000000
Si Si6 0.196131 0.733169 0.000000
O O1 0.962976 0.040958 0.394492
O O2 0.530937 0.871841 0.669538
O O3 0.395184 0.712472 0.771920
O O4 0.326476 0.706288 0.626403
O O5 0.347529 0.000000 0.750000
O O6 0.318066 0.724083 0.873221
O O7 0.914900 0.730148 0.000000
O O8 0.692868 0.986041 0.000000
O O9 0.753617 0.221498 0.000000
#
# Coordination Sequence:
#
# PCOD9526375 Si02
#       6
#     4   4  16  16   8   8
#     4   8  22  40  64  86 138 174 210 264 362 398
#     4  12  22  34  76  94 124 160 244 276 322 400
#     4  10  19  36  66  94 124 168 225 276 324 393
#     4  10  21  41  64  96 125 171 220 280 331 405
#     4  10  19  38  61  89 130 169 209 267 337 401
#     4  10  22  34  65  95 121 167 215 274 330 399
#
# _framework density 22.748532999999998
#
# number of rings (size 3 to 8) (size 9 to 14) (size 15 to 20)
#    0.857    1.143    2.857    1.286    0.000    0.571 
#    2.571    0.000   18.857    0.857    0.000    0.000 
#    0.000    0.000    0.000    0.000    0.000    0.000 
#
# Total GULP energy -155886.630159 kJ/mol
# GULP energy per Si atom -5567.379649 kJ/mol
# Density = 2.269676 g / cm^3
# Si number density = 22.748533 Si / 1000 Ang^3
#
#
#
# Elastic Constant Matrix: (Units=GPa)
#
#
# Indices 1 2 3 4 5 6 
#
# 1 222.4570 25.7638 116.2978 0.0000 0.0000 0.0000
# 2 25.7638 54.2127 27.0408 0.0000 0.0000 0.0000
# 3 116.2978 27.0408 187.9232 0.0000 0.0000 0.0000
# 4 0.0000 0.0000 0.0000 -24.4929 0.0000 0.0000
# 5 0.0000 0.0000 0.0000 0.0000 80.6158 0.0000
# 6 0.0000 0.0000 0.0000 0.0000 0.0000 33.7298
#
#
#
# Elastic Compliance Matrix: (Units=1/GPa)
#
#
# Indices 1 2 3 4 5 6 
#
# 1 0.006718 -0.001205 -0.003984 0.000000 0.000000 0.000000
# 2 -0.001205 0.020088 -0.002145 0.000000 0.000000 0.000000
# 3 -0.003984 -0.002145 0.008095 0.000000 0.000000 0.000000
# 4 0.000000 0.000000 0.000000 -0.040828 0.000000 0.000000
# 5 0.000000 0.000000 0.000000 0.000000 0.012405 0.000000
# 6 0.000000 0.000000 0.000000 0.000000 0.000000 0.029647
#
#
# Mechanical properties :
#
#
# Convention : Reuss Voigt Hill
#
# Bulk Modulus (GPa) = 49.42237 89.19975 69.31106
# Shear Modulus (GPa) = 86.90052 37.66989 62.28520
#
# Velocity S-wave (km/s) = 6.18736 4.07372 5.23826
# Velocity P-wave (km/s) = 8.53330 7.83730 8.19270
#
# Compressibility (1/GPa) = 0.02023375
#
# Stress axis : x y z
#
# Youngs Moduli (GPa) = 148.86490 49.77995 123.52854
#
# Poissons Ratio (x) = 0.06000 0.49211
# Poissons Ratio (y) = 0.17943 0.26493
# Poissons Ratio (z) = 0.59304 0.10676
#
# Static dielectric constant tensor:
#      x y z
#    x 1.766020 0.000000 0.000000 
#    y 0.000000 1.887590 0.000000 
#    z 0.000000 0.000000 1.892420 
# 
# From -- ./inp_files/16577.got.cif
#   From: 2010.05.17/outbox.cif.g08.bks.cpg/sg72_9_cif.got.tgz:16577.got - 2010.06.03 17:03:01.
