data_PCOD9526416
_publ_section_title
;
Structure prediction by ZEFSAII (Michael W. Deem and Ramdas Pophale) SiO2 
 PCOD9526416
Probable space group: I B A M
;
_chemical_formula_sum "Si O2"
_cell_formula_units_Z 52
_cell_length_a 22.942317
_cell_length_b 6.858559
_cell_length_c 13.304523
_cell_angle_alpha 90.000000
_cell_angle_beta 90.000000
_cell_angle_gamma 90.000000
_cell_volume 2093.483122
_symmetry_space_group_name_H-M "I B A M"
_symmetry_group_IT_number 72
_symmetry_cell_setting 'orthorhombic'
loop_
_space_group_symop_operation_xyz
x,y,z
-x,-y,z
x,-y,1/2-z
-x,y,1/2-z
-x,-y,-z
x,y,-z
-x,y,1/2+z
x,-y,1/2+z
1/2+x,1/2+y,1/2+z
1/2-x,1/2-y,1/2+z
1/2+x,1/2-y,-z
1/2-x,1/2+y,-z
1/2-x,1/2-y,1/2-z
1/2+x,1/2+y,1/2-z
1/2-x,1/2+y,z
1/2+x,1/2-y,z
loop_
_atom_site_type_symbol
_atom_site_label
_atom_site_fract_x
_atom_site_fract_y
_atom_site_fract_z
Si Si1 0.047568 0.834450 0.616149
Si Si2 0.803320 0.353202 0.112642
Si Si3 0.000000 0.500000 0.750000
Si Si4 0.827389 0.790469 0.167712
O O1 0.039309 0.785376 0.500000
O O2 0.037614 0.643636 0.682173
O O3 0.113927 0.896235 0.634650
O O4 0.000000 0.000000 0.640300
O O5 0.829344 0.569664 0.124594
O O6 0.822549 0.233955 0.211529
O O7 0.733315 0.374243 0.126220
O O8 0.816059 0.279789 0.000000
#
# Coordination Sequence:
#
# PCOD9526416 Si02
#       4
#    16  16   4  16
#     4  11  25  48  74 103 146 198 249 308 375 442
#     4  10  19  37  65 102 142 184 229 295 368 433
#     4  12  24  48  72 104 136 188 256 312 358 440
#     4  10  22  40  64 102 141 181 237 294 359 446
#
# _framework density 24.838985000000001
#
# number of rings (size 3 to 8) (size 9 to 14) (size 15 to 20)
#    0.000    1.538    0.000    5.538    0.000    0.000 
#   27.692    1.538    0.000    2.769    0.000    0.000 
#    0.000    0.000    0.000    0.000    0.000    0.000 
#
# Total GULP energy -145778.508000 kJ/mol
# GULP energy per Si atom -5606.865692 kJ/mol
# Density = 2.478245 g / cm^3
# Si number density = 24.838985 Si / 1000 Ang^3
#
#
#
# Elastic Constant Matrix: (Units=GPa)
#
#
# Indices 1 2 3 4 5 6 
#
# 1 154.9756 45.2618 31.5156 0.0000 0.0000 0.0000
# 2 45.2618 80.5894 42.0925 0.0000 0.0000 0.0000
# 3 31.5156 42.0925 224.3324 0.0000 0.0000 0.0000
# 4 0.0000 0.0000 0.0000 11.7579 0.0000 0.0000
# 5 0.0000 0.0000 0.0000 0.0000 35.5317 0.0000
# 6 0.0000 0.0000 0.0000 0.0000 0.0000 25.3800
#
#
#
# Elastic Compliance Matrix: (Units=1/GPa)
#
#
# Indices 1 2 3 4 5 6 
#
# 1 0.007737 -0.004188 -0.000301 0.000000 0.000000 0.000000
# 2 -0.004188 0.016024 -0.002418 0.000000 0.000000 0.000000
# 3 -0.000301 -0.002418 0.004954 0.000000 0.000000 0.000000
# 4 0.000000 0.000000 0.000000 0.085049 0.000000 0.000000
# 5 0.000000 0.000000 0.000000 0.000000 0.028144 0.000000
# 6 0.000000 0.000000 0.000000 0.000000 0.000000 0.039401
#
#
# Mechanical properties :
#
#
# Convention : Reuss Voigt Hill
#
# Bulk Modulus (GPa) = 67.11570 77.51523 72.31547
# Shear Modulus (GPa) = 24.98871 37.26908 31.12890
#
# Velocity S-wave (km/s) = 3.17524 3.87774 3.54394
# Velocity P-wave (km/s) = 6.36567 7.16407 6.77664
#
# Compressibility (1/GPa) = 0.01489964
#
# Stress axis : x y z
#
# Youngs Moduli (GPa) = 129.24849 62.40700 201.86851
#
# Poissons Ratio (x) = 0.26137 0.06079
# Poissons Ratio (y) = 0.54131 0.48817
# Poissons Ratio (z) = 0.03892 0.15092
#
# Static dielectric constant tensor:
#      x y z
#    x 1.953440 0.000000 0.000000 
#    y 0.000000 2.025600 0.000000 
#    z 0.000000 0.000000 1.941360 
# 
# From -- ./inp_files/23730.got.cif
#   From: 2010.05.17/outbox.cif.g08.bks.cpg/sg72_12_cif.got.tgz:23730.got - 2010.06.03 17:03:01.
