data_PCOD9526927
_publ_section_title
;
Structure prediction by ZEFSAII (Michael W. Deem and Ramdas Pophale) SiO2 
 PCOD9526927
Probable space group: I B A M
;
_chemical_formula_sum "Si O2"
_cell_formula_units_Z 64
_cell_length_a 11.211788
_cell_length_b 12.581434
_cell_length_c 18.198278
_cell_angle_alpha 90.000000
_cell_angle_beta 90.000000
_cell_angle_gamma 90.000000
_cell_volume 2567.055842
_symmetry_space_group_name_H-M "I B A M"
_symmetry_group_IT_number 72
_symmetry_cell_setting 'orthorhombic'
loop_
_space_group_symop_operation_xyz
x,y,z
-x,-y,z
x,-y,1/2-z
-x,y,1/2-z
-x,-y,-z
x,y,-z
-x,y,1/2+z
x,-y,1/2+z
1/2+x,1/2+y,1/2+z
1/2-x,1/2-y,1/2+z
1/2+x,1/2-y,-z
1/2-x,1/2+y,-z
1/2-x,1/2-y,1/2-z
1/2+x,1/2+y,1/2-z
1/2-x,1/2+y,z
1/2+x,1/2-y,z
loop_
_atom_site_type_symbol
_atom_site_label
_atom_site_fract_x
_atom_site_fract_y
_atom_site_fract_z
Si Si1 0.583743 0.813716 0.822146
Si Si2 0.793684 0.968015 0.171911
Si Si3 0.113936 0.388271 0.916300
Si Si4 0.969505 0.842028 0.082661
O O1 0.500000 0.814770 0.750000
O O2 0.711645 0.864066 0.809902
O O3 0.519401 0.890365 0.882189
O O4 0.570248 0.699299 0.860918
O O5 0.845807 0.000000 0.250000
O O6 0.705758 0.054987 0.137135
O O7 0.892740 0.937491 0.113366
O O8 0.122859 0.259114 0.918252
O O9 0.123027 0.426756 0.000000
O O10 0.014489 0.855970 0.000000
#
# Coordination Sequence:
#
# PCOD9526927 Si02
#       4
#    16  16  16  16
#     4  10  20  35  58  88 123 155 205 267 315 366
#     4  12  21  34  64  92 123 166 212 267 316 371
#     4   9  20  35  56  87 122 157 201 255 315 370
#     4   9  22  38  55  91 131 162 202 259 326 381
#
# _framework density 24.931284999999999
#
# number of rings (size 3 to 8) (size 9 to 14) (size 15 to 20)
#    1.500    0.500    2.500    1.500    0.000    9.000 
#    0.000    0.000    0.000    5.250    0.000   10.500 
#    0.000    0.000    0.000    0.000    0.000    0.000 
#
# Total GULP energy -178813.226212 kJ/mol
# GULP energy per Si atom -5587.913319 kJ/mol
# Density = 2.487454 g / cm^3
# Si number density = 24.931285 Si / 1000 Ang^3
#
#
#
# Elastic Constant Matrix: (Units=GPa)
#
#
# Indices 1 2 3 4 5 6 
#
# 1 66.3730 24.6515 16.8923 0.0000 0.0000 0.0000
# 2 24.6515 38.1270 6.1108 0.0000 0.0000 0.0000
# 3 16.8923 6.1108 156.9467 0.0000 0.0000 0.0000
# 4 0.0000 0.0000 0.0000 39.7340 0.0000 0.0000
# 5 0.0000 0.0000 0.0000 0.0000 19.1957 0.0000
# 6 0.0000 0.0000 0.0000 0.0000 0.0000 39.4594
#
#
#
# Elastic Compliance Matrix: (Units=1/GPa)
#
#
# Indices 1 2 3 4 5 6 
#
# 1 0.020259 -0.012829 -0.001681 0.000000 0.000000 0.000000
# 2 -0.012829 0.034517 0.000037 0.000000 0.000000 0.000000
# 3 -0.001681 0.000037 0.006551 0.000000 0.000000 0.000000
# 4 0.000000 0.000000 0.000000 0.025167 0.000000 0.000000
# 5 0.000000 0.000000 0.000000 0.000000 0.052095 0.000000
# 6 0.000000 0.000000 0.000000 0.000000 0.000000 0.025343
#
#
# Mechanical properties :
#
#
# Convention : Reuss Voigt Hill
#
# Bulk Modulus (GPa) = 30.88282 39.63957 35.26119
# Shear Modulus (GPa) = 24.54918 33.93062 29.23990
#
# Velocity S-wave (km/s) = 3.14136 3.69313 3.42836
# Velocity P-wave (km/s) = 5.05683 5.84120 5.46311
#
# Compressibility (1/GPa) = 0.03238046
#
# Stress axis : x y z
#
# Youngs Moduli (GPa) = 49.36047 28.97103 152.64664
#
# Poissons Ratio (x) = 0.37168 0.25660
# Poissons Ratio (y) = 0.63326 -0.00563
# Poissons Ratio (z) = 0.08297 -0.00107
#
# Static dielectric constant tensor:
#      x y z
#    x 1.941380 0.000000 0.000000 
#    y 0.000000 2.107410 0.000000 
#    z 0.000000 0.000000 1.882990 
# 
# From -- ./inp_files/28797.got.cif
#   From: 2010.05.17/outbox.cif.g08.bks.cpg/sg72_15_cif.got.tgz:28797.got - 2010.06.03 17:03:01.
