data_PCOD9526973
_publ_section_title
;
Structure prediction by ZEFSAII (Michael W. Deem and Ramdas Pophale) SiO2 
 PCOD9526973
Probable space group: I B A M
;
_chemical_formula_sum "Si O2"
_cell_formula_units_Z 96
_cell_length_a 19.620727
_cell_length_b 13.194622
_cell_length_c 16.183151
_cell_angle_alpha 90.000000
_cell_angle_beta 90.000000
_cell_angle_gamma 90.000000
_cell_volume 4189.624828
_symmetry_space_group_name_H-M "I B A M"
_symmetry_group_IT_number 72
_symmetry_cell_setting 'orthorhombic'
loop_
_space_group_symop_operation_xyz
x,y,z
-x,-y,z
x,-y,1/2-z
-x,y,1/2-z
-x,-y,-z
x,y,-z
-x,y,1/2+z
x,-y,1/2+z
1/2+x,1/2+y,1/2+z
1/2-x,1/2-y,1/2+z
1/2+x,1/2-y,-z
1/2-x,1/2+y,-z
1/2-x,1/2-y,1/2-z
1/2+x,1/2+y,1/2-z
1/2-x,1/2+y,z
1/2+x,1/2-y,z
loop_
_atom_site_type_symbol
_atom_site_label
_atom_site_fract_x
_atom_site_fract_y
_atom_site_fract_z
Si Si1 0.685046 0.083632 0.696600
Si Si2 0.372693 0.215845 0.334770
Si Si3 0.880150 0.891429 0.706845
Si Si4 0.481905 0.272910 0.906023
Si Si5 0.932553 0.452294 0.093354
Si Si6 0.771947 0.781303 0.403532
O O1 0.631660 0.134809 0.760554
O O2 0.639360 0.023826 0.631888
O O3 0.718696 0.176591 0.648418
O O4 0.725976 0.000000 0.750000
O O5 0.363569 0.319109 0.283612
O O6 0.443606 0.231889 0.380999
O O7 0.307853 0.196134 0.392339
O O8 0.948073 0.850391 0.658963
O O9 0.820220 0.865605 0.639967
O O10 0.888132 0.000000 0.750000
O O11 0.437999 0.169500 0.906097
O O12 0.482785 0.313426 0.000000
O O13 0.000000 0.500000 0.133987
O O14 0.931934 0.490605 0.000000
O O15 0.789642 0.769661 0.500000
#
# Coordination Sequence:
#
# PCOD9526973 Si02
#       6
#    16  16  16  16  16  16
#     4  11  22  38  65  98 136 177 226 272 346 422
#     4  11  24  40  66 100 139 181 239 299 358 428
#     4  11  24  44  72 100 134 190 257 305 362 426
#     4  11  22  41  66  99 141 184 229 293 359 424
#     4  10  20  35  61  98 138 175 217 267 337 418
#     4  11  24  47  71  97 138 189 234 296 368 436
#
# _framework density 22.913744999999999
#
# number of rings (size 3 to 8) (size 9 to 14) (size 15 to 20)
#    0.000    1.167    3.333    5.000    0.000    5.667 
#    0.000    8.333    0.000    0.000    0.000    0.000 
#    0.000    0.000    0.000    0.000    0.000    0.000 
#
# Total GULP energy -268032.548593 kJ/mol
# GULP energy per Si atom -5584.011429 kJ/mol
# Density = 2.286159 g / cm^3
# Si number density = 22.913745 Si / 1000 Ang^3
#
#
#
# Elastic Constant Matrix: (Units=GPa)
#
#
# Indices 1 2 3 4 5 6 
#
# 1 129.0378 21.6360 48.7828 0.0000 0.0000 0.0000
# 2 21.6360 105.2198 51.1202 0.0000 0.0000 0.0000
# 3 48.7828 51.1202 122.0114 0.0000 0.0000 0.0000
# 4 0.0000 0.0000 0.0000 31.1244 0.0000 0.0000
# 5 0.0000 0.0000 0.0000 0.0000 27.6547 0.0000
# 6 0.0000 0.0000 0.0000 0.0000 0.0000 16.3841
#
#
#
# Elastic Compliance Matrix: (Units=1/GPa)
#
#
# Indices 1 2 3 4 5 6 
#
# 1 0.009131 -0.000130 -0.003596 0.000000 0.000000 0.000000
# 2 -0.000130 0.011935 -0.004948 0.000000 0.000000 0.000000
# 3 -0.003596 -0.004948 0.011707 0.000000 0.000000 0.000000
# 4 0.000000 0.000000 0.000000 0.032129 0.000000 0.000000
# 5 0.000000 0.000000 0.000000 0.000000 0.036160 0.000000
# 6 0.000000 0.000000 0.000000 0.000000 0.000000 0.061035
#
#
# Mechanical properties :
#
#
# Convention : Reuss Voigt Hill
#
# Bulk Modulus (GPa) = 64.83761 66.59412 65.71586
# Shear Modulus (GPa) = 27.08737 30.68130 28.88433
#
# Velocity S-wave (km/s) = 3.44196 3.66319 3.55430
# Velocity P-wave (km/s) = 6.64484 6.85697 6.75174
#
# Compressibility (1/GPa) = 0.01542315
#
# Stress axis : x y z
#
# Youngs Moduli (GPa) = 109.51628 83.78839 85.41891
#
# Poissons Ratio (x) = 0.01093 0.30718
# Poissons Ratio (y) = 0.01428 0.42268
# Poissons Ratio (z) = 0.39384 0.41461
#
# Static dielectric constant tensor:
#      x y z
#    x 1.934110 0.000000 0.000000 
#    y 0.000000 1.907100 0.000000 
#    z 0.000000 0.000000 1.875600 
# 
# From -- ./inp_files/24134.got.cif
#   From: 2010.05.17/outbox.cif.g08.bks.cpg/sg72_13_cif.got.tgz:24134.got - 2010.06.03 17:03:01.
