data_PCOD9526999
_publ_section_title
;
Structure prediction by ZEFSAII (Michael W. Deem and Ramdas Pophale) SiO2 
 PCOD9526999
Probable space group: I B A M
;
_chemical_formula_sum "Si O2"
_cell_formula_units_Z 88
_cell_length_a 30.388831
_cell_length_b 16.548259
_cell_length_c 9.576905
_cell_angle_alpha 90.000000
_cell_angle_beta 90.000000
_cell_angle_gamma 90.000000
_cell_volume 4816.055497
_symmetry_space_group_name_H-M "I B A M"
_symmetry_group_IT_number 72
_symmetry_cell_setting 'orthorhombic'
loop_
_space_group_symop_operation_xyz
x,y,z
-x,-y,z
x,-y,1/2-z
-x,y,1/2-z
-x,-y,-z
x,y,-z
-x,y,1/2+z
x,-y,1/2+z
1/2+x,1/2+y,1/2+z
1/2-x,1/2-y,1/2+z
1/2+x,1/2-y,-z
1/2-x,1/2+y,-z
1/2-x,1/2-y,1/2-z
1/2+x,1/2+y,1/2-z
1/2-x,1/2+y,z
1/2+x,1/2-y,z
loop_
_atom_site_type_symbol
_atom_site_label
_atom_site_fract_x
_atom_site_fract_y
_atom_site_fract_z
Si Si1 0.247274 0.334363 0.666256
Si Si2 0.456277 0.357979 0.661226
Si Si3 0.393937 0.500000 0.750000
Si Si4 0.176336 0.121708 0.652535
Si Si5 0.395639 0.242024 0.837278
Si Si6 0.846461 0.581904 0.666184
O O1 0.250604 0.321251 0.500000
O O2 0.250000 0.250000 0.750000
O O3 0.288231 0.385621 0.725688
O O4 0.201621 0.379940 0.695572
O O5 0.500000 0.373981 0.750000
O O6 0.466257 0.340867 0.500000
O O7 0.424818 0.436391 0.670994
O O8 0.430135 0.284880 0.735847
O O9 0.361114 0.446180 0.841835
O O10 0.198077 0.121681 0.500000
O O11 0.149270 0.205110 0.669411
O O12 0.382353 0.150987 0.800774
O O13 0.410147 0.246150 0.000000
O O14 0.852791 0.500000 0.750000
O O15 0.848412 0.567142 0.500000
#
# Coordination Sequence:
#
# PCOD9526999 Si02
#       6
#    16  16   8  16  16  16
#     4  11  22  37  55  79 111 151 199 247 293 343
#     4  11  23  39  62  91 119 153 195 238 290 355
#     4  10  23  38  56  86 122 160 202 240 285 346
#     4  10  20  36  55  77 112 156 197 243 292 337
#     4   9  19  39  60  80 112 150 188 236 293 348
#     4  10  22  39  57  83 115 152 196 245 298 350
#
# _framework density 18.272214999999999
#
# number of rings (size 3 to 8) (size 9 to 14) (size 15 to 20)
#    0.000    1.818    1.818    1.909    1.273    8.727 
#    0.000    0.000    0.000    0.545    0.000    3.818 
#    0.000    0.000    0.000    0.000    0.000    0.000 
#
# Total GULP energy -245656.786558 kJ/mol
# GULP energy per Si atom -5583.108785 kJ/mol
# Density = 1.823063 g / cm^3
# Si number density = 18.272215 Si / 1000 Ang^3
#
#
#
# Elastic Constant Matrix: (Units=GPa)
#
#
# Indices 1 2 3 4 5 6 
#
# 1 75.7267 39.9889 44.0332 0.0000 0.0000 0.0000
# 2 39.9889 134.1705 52.1175 0.0000 0.0000 0.0000
# 3 44.0332 52.1175 100.6337 0.0000 0.0000 0.0000
# 4 0.0000 0.0000 0.0000 15.0514 0.0000 0.0000
# 5 0.0000 0.0000 0.0000 0.0000 26.3935 0.0000
# 6 0.0000 0.0000 0.0000 0.0000 0.0000 17.5775
#
#
#
# Elastic Compliance Matrix: (Units=1/GPa)
#
#
# Indices 1 2 3 4 5 6 
#
# 1 0.018620 -0.002985 -0.006601 0.000000 0.000000 0.000000
# 2 -0.002985 0.009809 -0.003774 0.000000 0.000000 0.000000
# 3 -0.006601 -0.003774 0.014780 0.000000 0.000000 0.000000
# 4 0.000000 0.000000 0.000000 0.066439 0.000000 0.000000
# 5 0.000000 0.000000 0.000000 0.000000 0.037888 0.000000
# 6 0.000000 0.000000 0.000000 0.000000 0.000000 0.056891
#
#
# Mechanical properties :
#
#
# Convention : Reuss Voigt Hill
#
# Bulk Modulus (GPa) = 60.64945 64.75668 62.70307
# Shear Modulus (GPa) = 21.12877 23.43057 22.27967
#
# Velocity S-wave (km/s) = 3.40418 3.58481 3.49566
# Velocity P-wave (km/s) = 6.97965 7.25613 7.11923
#
# Compressibility (1/GPa) = 0.01648820
#
# Stress axis : x y z
#
# Youngs Moduli (GPa) = 53.70437 101.94885 67.65969
#
# Poissons Ratio (x) = 0.30437 0.44665
# Poissons Ratio (y) = 0.16033 0.25532
# Poissons Ratio (z) = 0.35452 0.38472
#
# Static dielectric constant tensor:
#      x y z
#    x 1.625230 0.000000 0.000000 
#    y 0.000000 1.649230 0.000000 
#    z 0.000000 0.000000 1.622960 
# 
# From -- ./inp_files/9067.got.cif
#   From: 2010.05.17/outbox.cif.g08.bks.cpg/sg72_5_cif.got.tgz:9067.got - 2010.06.03 17:03:01.
