data_PCOD9526733
_publ_section_title
;
Structure prediction by ZEFSAII (Michael W. Deem and Ramdas Pophale) SiO2 
 PCOD9526733
Probable space group: I B A M
;
_chemical_formula_sum "Si O2"
_cell_formula_units_Z 96
_cell_length_a 23.603013
_cell_length_b 24.733777
_cell_length_c 8.689892
_cell_angle_alpha 90.000000
_cell_angle_beta 90.000000
_cell_angle_gamma 90.000000
_cell_volume 5073.086477
_symmetry_space_group_name_H-M "I B A M"
_symmetry_group_IT_number 72
_symmetry_cell_setting 'orthorhombic'
loop_
_space_group_symop_operation_xyz
x,y,z
-x,-y,z
x,-y,1/2-z
-x,y,1/2-z
-x,-y,-z
x,y,-z
-x,y,1/2+z
x,-y,1/2+z
1/2+x,1/2+y,1/2+z
1/2-x,1/2-y,1/2+z
1/2+x,1/2-y,-z
1/2-x,1/2+y,-z
1/2-x,1/2-y,1/2-z
1/2+x,1/2+y,1/2-z
1/2-x,1/2+y,z
1/2+x,1/2-y,z
loop_
_atom_site_type_symbol
_atom_site_label
_atom_site_fract_x
_atom_site_fract_y
_atom_site_fract_z
Si Si1 0.133305 0.341604 0.685513
Si Si2 0.765936 0.837558 0.816323
Si Si3 0.438489 0.616919 0.684466
Si Si4 0.673461 0.557748 0.184377
Si Si5 0.436564 0.941789 0.815965
Si Si6 0.629324 0.722542 0.814325
O O1 0.128428 0.347788 0.500000
O O2 0.199859 0.336644 0.724687
O O3 0.102842 0.392221 0.763370
O O4 0.109646 0.282437 0.730689
O O5 0.789858 0.894597 0.757134
O O6 0.807907 0.792913 0.744467
O O7 0.770269 0.833539 0.000000
O O8 0.500000 0.606733 0.750000
O O9 0.441878 0.618825 0.500000
O O10 0.391589 0.572270 0.725591
O O11 0.412531 0.674627 0.737313
O O12 0.689629 0.500000 0.250000
O O13 0.678796 0.559300 0.000000
O O14 0.500000 0.933202 0.750000
O O15 0.416824 0.000000 0.750000
O O16 0.438980 0.944832 0.000000
O O17 0.632098 0.721218 0.000000
#
# Coordination Sequence:
#
# PCOD9526733 Si02
#       6
#    16  16  16  16  16  16
#     4  10  21  37  58  85 114 145 184 225 267 322
#     4  10  20  34  55  82 112 146 183 225 272 323
#     4   9  19  34  52  75 104 140 178 220 268 315
#     4  10  21  37  55  76 105 141 181 226 276 326
#     4  11  23  41  63  84 111 145 181 225 276 328
#     4   9  19  36  55  78 113 149 181 224 273 319
#
# _framework density 18.923392
#
# number of rings (size 3 to 8) (size 9 to 14) (size 15 to 20)
#    0.000    2.167    0.000    4.500    0.000    7.000 
#    0.000    3.333    0.000    0.000    0.000    0.000 
#    0.000    0.000    0.000    0.000    0.000    0.000 
#
# Total GULP energy -267943.584682 kJ/mol
# GULP energy per Si atom -5582.158014 kJ/mol
# Density = 1.888032 g / cm^3
# Si number density = 18.923392 Si / 1000 Ang^3
#
#
#
# Elastic Constant Matrix: (Units=GPa)
#
#
# Indices 1 2 3 4 5 6 
#
# 1 17.1359 3.7085 4.3651 0.0000 0.0000 0.0000
# 2 3.7085 113.7884 16.4314 0.0000 0.0000 0.0000
# 3 4.3651 16.4314 30.2428 0.0000 0.0000 0.0000
# 4 0.0000 0.0000 0.0000 19.2483 0.0000 0.0000
# 5 0.0000 0.0000 0.0000 0.0000 30.0643 0.0000
# 6 0.0000 0.0000 0.0000 0.0000 0.0000 15.7192
#
#
#
# Elastic Compliance Matrix: (Units=1/GPa)
#
#
# Indices 1 2 3 4 5 6 
#
# 1 0.060647 -0.000773 -0.008334 0.000000 0.000000 0.000000
# 2 -0.000773 0.009546 -0.005075 0.000000 0.000000 0.000000
# 3 -0.008334 -0.005075 0.037026 0.000000 0.000000 0.000000
# 4 0.000000 0.000000 0.000000 0.051953 0.000000 0.000000
# 5 0.000000 0.000000 0.000000 0.000000 0.033262 0.000000
# 6 0.000000 0.000000 0.000000 0.000000 0.000000 0.063616
#
#
# Mechanical properties :
#
#
# Convention : Reuss Voigt Hill
#
# Bulk Modulus (GPa) = 12.68137 23.35300 18.01719
# Shear Modulus (GPa) = 16.09276 22.11719 19.10497
#
# Velocity S-wave (km/s) = 2.91935 3.42244 3.18086
# Velocity P-wave (km/s) = 4.25200 5.29009 4.79920
#
# Compressibility (1/GPa) = 0.07885582
#
# Stress axis : x y z
#
# Youngs Moduli (GPa) = 16.48885 104.75271 27.00811
#
# Poissons Ratio (x) = 0.08099 0.22507
# Poissons Ratio (y) = 0.01275 0.13707
# Poissons Ratio (z) = 0.13741 0.53162
#
# Static dielectric constant tensor:
#      x y z
#    x 1.646260 0.000000 0.000000 
#    y 0.000000 1.645960 0.000000 
#    z 0.000000 0.000000 1.636140 
# 
# From -- ./inp_files/6962.got.cif
#   From: 2010.05.17/outbox.cif.g08.bks.cpg/sg72_4_cif.got.tgz:6962.got - 2010.06.03 17:03:01.
