data_PCOD9526377
_publ_section_title
;
Structure prediction by ZEFSAII (Michael W. Deem and Ramdas Pophale) SiO2 
 PCOD9526377
Probable space group: I B A M
;
_chemical_formula_sum "Si O2"
_cell_formula_units_Z 64
_cell_length_a 8.875808
_cell_length_b 16.391782
_cell_length_c 18.515575
_cell_angle_alpha 90.000000
_cell_angle_beta 90.000000
_cell_angle_gamma 90.000000
_cell_volume 2693.836743
_symmetry_space_group_name_H-M "I B A M"
_symmetry_group_IT_number 72
_symmetry_cell_setting 'orthorhombic'
loop_
_space_group_symop_operation_xyz
x,y,z
-x,-y,z
x,-y,1/2-z
-x,y,1/2-z
-x,-y,-z
x,y,-z
-x,y,1/2+z
x,-y,1/2+z
1/2+x,1/2+y,1/2+z
1/2-x,1/2-y,1/2+z
1/2+x,1/2-y,-z
1/2-x,1/2+y,-z
1/2-x,1/2-y,1/2-z
1/2+x,1/2+y,1/2-z
1/2-x,1/2+y,z
1/2+x,1/2-y,z
loop_
_atom_site_type_symbol
_atom_site_label
_atom_site_fract_x
_atom_site_fract_y
_atom_site_fract_z
Si Si1 0.000000 0.363367 0.750000
Si Si2 0.885490 0.208224 0.000000
Si Si3 0.750782 0.044727 0.346102
Si Si4 0.250892 0.848689 0.850897
Si Si5 0.500000 0.628486 0.750000
Si Si6 0.776153 0.130952 0.500000
O O1 0.885130 0.416930 0.799206
O O2 0.900524 0.318643 0.688927
O O3 0.793696 0.178497 0.070039
O O4 0.861866 0.305130 0.000000
O O5 0.057867 0.175204 0.000000
O O6 0.899019 0.074990 0.304243
O O7 0.760812 0.078880 0.427102
O O8 0.740726 0.947310 0.349134
O O9 0.115472 0.822791 0.798969
#
# Coordination Sequence:
#
# PCOD9526377 Si02
#       6
#     8   8  16  16   8   8
#     4  10  23  40  69 110 137 162 207 274 341 388
#     4  12  29  47  64  92 134 181 224 269 323 387
#     4  11  21  41  71 101 131 167 216 271 328 388
#     4  11  21  41  71 101 131 167 216 271 328 388
#     4  10  19  36  69 102 127 156 213 284 325 374
#     4  12  29  47  64  92 134 181 224 269 323 387
#
# _framework density 23.757936000000001
#
# number of rings (size 3 to 8) (size 9 to 14) (size 15 to 20)
#    0.000    1.000    2.500    6.750    3.500    1.000 
#    0.000   10.000    0.000    0.000    0.000    0.000 
#    0.000    0.000    0.000    0.000    0.000    0.000 
#
# Total GULP energy -179244.973479 kJ/mol
# GULP energy per Si atom -5601.405421 kJ/mol
# Density = 2.370386 g / cm^3
# Si number density = 23.757936 Si / 1000 Ang^3
#
#
#
# Elastic Constant Matrix: (Units=GPa)
#
#
# Indices 1 2 3 4 5 6 
#
# 1 142.2931 32.8014 51.6117 0.0000 0.0000 0.0000
# 2 32.8014 66.6043 44.1632 0.0000 0.0000 0.0000
# 3 51.6117 44.1632 222.4168 0.0000 0.0000 0.0000
# 4 0.0000 0.0000 0.0000 27.1405 0.0000 0.0000
# 5 0.0000 0.0000 0.0000 0.0000 24.1250 0.0000
# 6 0.0000 0.0000 0.0000 0.0000 0.0000 26.1504
#
#
#
# Elastic Compliance Matrix: (Units=1/GPa)
#
#
# Indices 1 2 3 4 5 6 
#
# 1 0.008229 -0.003209 -0.001272 0.000000 0.000000 0.000000
# 2 -0.003209 0.018542 -0.002937 0.000000 0.000000 0.000000
# 3 -0.001272 -0.002937 0.005374 0.000000 0.000000 0.000000
# 4 0.000000 0.000000 0.000000 0.036845 0.000000 0.000000
# 5 0.000000 0.000000 0.000000 0.000000 0.041451 0.000000
# 6 0.000000 0.000000 0.000000 0.000000 0.000000 0.038240
#
#
# Mechanical properties :
#
#
# Convention : Reuss Voigt Hill
#
# Bulk Modulus (GPa) = 57.77472 76.49629 67.13550
# Shear Modulus (GPa) = 29.53549 35.66573 32.60061
#
# Velocity S-wave (km/s) = 3.52971 3.87875 3.70834
# Velocity P-wave (km/s) = 6.40177 7.23379 6.83046
#
# Compressibility (1/GPa) = 0.01730861
#
# Stress axis : x y z
#
# Youngs Moduli (GPa) = 121.52174 53.93205 186.06405
#
# Poissons Ratio (x) = 0.17307 0.23674
# Poissons Ratio (y) = 0.38996 0.54648
# Poissons Ratio (z) = 0.15462 0.15840
#
# Static dielectric constant tensor:
#      x y z
#    x 1.914150 0.000000 0.000000 
#    y 0.000000 1.905890 0.000000 
#    z 0.000000 0.000000 1.859350 
# 
# From -- ./inp_files/35451.got.cif
#   From: 2010.05.17/outbox.cif.g08.bks.cpg/sg72_18_cif.got.tgz:35451.got - 2010.06.03 17:03:01.
