data_PCOD9526391
_publ_section_title
;
Structure prediction by ZEFSAII (Michael W. Deem and Ramdas Pophale) SiO2 
 PCOD9526391
Probable space group: I B A M
;
_chemical_formula_sum "Si O2"
_cell_formula_units_Z 48
_cell_length_a 14.802963
_cell_length_b 4.827221
_cell_length_c 29.885295
_cell_angle_alpha 90.000000
_cell_angle_beta 90.000000
_cell_angle_gamma 90.000000
_cell_volume 2135.518721
_symmetry_space_group_name_H-M "I B A M"
_symmetry_group_IT_number 72
_symmetry_cell_setting 'orthorhombic'
loop_
_space_group_symop_operation_xyz
x,y,z
-x,-y,z
x,-y,1/2-z
-x,y,1/2-z
-x,-y,-z
x,y,-z
-x,y,1/2+z
x,-y,1/2+z
1/2+x,1/2+y,1/2+z
1/2-x,1/2-y,1/2+z
1/2+x,1/2-y,-z
1/2-x,1/2+y,-z
1/2-x,1/2-y,1/2-z
1/2+x,1/2+y,1/2-z
1/2-x,1/2+y,z
1/2+x,1/2-y,z
loop_
_atom_site_type_symbol
_atom_site_label
_atom_site_fract_x
_atom_site_fract_y
_atom_site_fract_z
Si Si1 0.440817 0.755842 0.671523
Si Si2 0.313251 0.510264 0.403757
Si Si3 0.320050 0.000000 0.250000
Si Si4 0.812852 0.854871 0.500000
O O1 0.500000 0.500000 0.690884
O O2 0.376740 0.605914 0.635941
O O3 0.384572 0.923365 0.708668
O O4 0.500000 0.000000 0.649388
O O5 0.277579 0.198410 0.400861
O O6 0.356184 0.570186 0.452554
O O7 0.250000 0.750000 0.250000
O O8 0.779591 0.539360 0.500000
#
# Coordination Sequence:
#
# PCOD9526391 Si02
#       4
#    16  16   8   8
#     4  12  25  41  61  91 126 157 193 254 321 370
#     4  10  19  37  61  88 119 161 208 247 290 358
#     4  12  25  44  67  88 112 158 212 254 299 372
#     4   8  16  30  56  86 116 154 204 252 286 334
#
# _framework density 22.476974999999999
#
# number of rings (size 3 to 8) (size 9 to 14) (size 15 to 20)
#    0.000    1.333    0.000    6.500    0.000    1.333 
#    0.000    1.667    0.000    0.000    0.000    0.000 
#    0.000    0.000    0.000    0.000    0.000    0.000 
#
# Total GULP energy -134089.566529 kJ/mol
# GULP energy per Si atom -5587.065272 kJ/mol
# Density = 2.242582 g / cm^3
# Si number density = 22.476975 Si / 1000 Ang^3
#
#
#
# Elastic Constant Matrix: (Units=GPa)
#
#
# Indices 1 2 3 4 5 6 
#
# 1 54.5637 20.9932 38.1597 0.0000 0.0000 0.0000
# 2 20.9932 121.6419 -0.5410 0.0000 0.0000 0.0000
# 3 38.1597 -0.5410 128.8520 0.0000 0.0000 0.0000
# 4 0.0000 0.0000 0.0000 27.0980 0.0000 0.0000
# 5 0.0000 0.0000 0.0000 0.0000 -107.8884 0.0000
# 6 0.0000 0.0000 0.0000 0.0000 0.0000 36.9542
#
#
#
# Elastic Compliance Matrix: (Units=1/GPa)
#
#
# Indices 1 2 3 4 5 6 
#
# 1 0.025263 -0.004393 -0.007500 0.000000 0.000000 0.000000
# 2 -0.004393 0.008985 0.001339 0.000000 0.000000 0.000000
# 3 -0.007500 0.001339 0.009988 0.000000 0.000000 0.000000
# 4 0.000000 0.000000 0.000000 0.036903 0.000000 0.000000
# 5 0.000000 0.000000 0.000000 0.000000 -0.009269 0.000000
# 6 0.000000 0.000000 0.000000 0.000000 0.000000 0.027061
#
#
# Mechanical properties :
#
#
# Convention : Reuss Voigt Hill
#
# Bulk Modulus (GPa) = 43.24076 46.92019 45.08047
# Shear Modulus (GPa) = 39.13957 7.66246 23.40102
#
# Velocity S-wave (km/s) = 4.17744 1.84836 3.23012
# Velocity P-wave (km/s) = 6.52285 5.04731 5.83193
#
# Compressibility (1/GPa) = 0.02312633
#
# Stress axis : x y z
#
# Youngs Moduli (GPa) = 39.58402 111.29660 100.12406
#
# Poissons Ratio (x) = 0.48895 0.75093
# Poissons Ratio (y) = 0.17390 -0.13405
# Poissons Ratio (z) = 0.29688 -0.14900
#
# Static dielectric constant tensor:
#      x y z
#    x 1.785290 0.000000 0.000000 
#    y 0.000000 1.790170 0.000000 
#    z 0.000000 0.000000 1.882500 
# 
# From -- ./inp_files/46363.got.cif
#   From: 2010.05.17/outbox.cif.g08.bks.cpg/sg72_24_cif.got.tgz:46363.got - 2010.06.03 17:03:01.
