data_PCOD9526338
_publ_section_title
;
Structure prediction by ZEFSAII (Michael W. Deem and Ramdas Pophale) SiO2 
 PCOD9526338
Probable space group: I B A M
;
_chemical_formula_sum "Si O2"
_cell_formula_units_Z 80
_cell_length_a 13.236513
_cell_length_b 13.149617
_cell_length_c 22.291091
_cell_angle_alpha 90.000000
_cell_angle_beta 90.000000
_cell_angle_gamma 90.000000
_cell_volume 3879.877546
_symmetry_space_group_name_H-M "I B A M"
_symmetry_group_IT_number 72
_symmetry_cell_setting 'orthorhombic'
loop_
_space_group_symop_operation_xyz
x,y,z
-x,-y,z
x,-y,1/2-z
-x,y,1/2-z
-x,-y,-z
x,y,-z
-x,y,1/2+z
x,-y,1/2+z
1/2+x,1/2+y,1/2+z
1/2-x,1/2-y,1/2+z
1/2+x,1/2-y,-z
1/2-x,1/2+y,-z
1/2-x,1/2-y,1/2-z
1/2+x,1/2+y,1/2-z
1/2-x,1/2+y,z
1/2+x,1/2-y,z
loop_
_atom_site_type_symbol
_atom_site_label
_atom_site_fract_x
_atom_site_fract_y
_atom_site_fract_z
Si Si1 0.551042 0.829082 0.500000
Si Si2 0.056878 0.632298 0.368753
Si Si3 0.262379 0.719588 0.000000
Si Si4 0.571484 0.643107 0.000000
Si Si5 0.641644 0.943009 0.186519
Si Si6 0.000000 0.000000 0.601106
Si Si7 0.169080 0.154046 0.870483
O O1 0.515160 0.870612 0.563127
O O2 0.672202 0.825019 0.500000
O O3 0.531582 0.707551 0.500000
O O4 0.130248 0.536778 0.359768
O O5 0.117916 0.736218 0.359733
O O6 0.961905 0.619510 0.324305
O O7 0.150674 0.765883 0.000000
O O8 0.285106 0.660067 0.061679
O O9 0.567251 0.572568 0.941981
O O10 0.739049 0.875679 0.172762
O O11 0.644845 0.000000 0.250000
O O12 0.079431 0.928484 0.634645
#
# Coordination Sequence:
#
# PCOD9526338 Si02
#       7
#     8  16   8   8  16   8  16
#     4  10  19  36  59 106 126 173 214 250 344 417
#     4  10  22  43  66  97 139 168 215 282 334 404
#     4  10  20  35  61  99 134 175 206 253 355 413
#     4  11  19  35  60  88 147 169 203 257 324 418
#     4  11  26  46  68  94 128 181 238 272 328 392
#     4  11  22  38  59 100 136 174 207 273 332 392
#     4  11  24  40  67 101 132 175 221 277 339 405
#
# _framework density 20.619208
#
# number of rings (size 3 to 8) (size 9 to 14) (size 15 to 20)
#    0.000    1.400    4.000    3.000    5.600    3.200 
#    0.000    2.500    0.000    0.000    0.000    0.000 
#    0.000    0.000    0.000    0.000    0.000    0.000 
#
# Total GULP energy -223160.149623 kJ/mol
# GULP energy per Si atom -5579.003741 kJ/mol
# Density = 2.057228 g / cm^3
# Si number density = 20.619208 Si / 1000 Ang^3
#
#
#
# Elastic Constant Matrix: (Units=GPa)
#
#
# Indices 1 2 3 4 5 6 
#
# 1 106.1295 45.9921 37.2155 0.0000 0.0000 0.0000
# 2 45.9921 115.1619 32.8543 0.0000 0.0000 0.0000
# 3 37.2155 32.8543 99.1647 0.0000 0.0000 0.0000
# 4 0.0000 0.0000 0.0000 29.9322 0.0000 0.0000
# 5 0.0000 0.0000 0.0000 0.0000 21.4725 0.0000
# 6 0.0000 0.0000 0.0000 0.0000 0.0000 44.5820
#
#
#
# Elastic Compliance Matrix: (Units=1/GPa)
#
#
# Indices 1 2 3 4 5 6 
#
# 1 0.012301 -0.003971 -0.003301 0.000000 0.000000 0.000000
# 2 -0.003971 0.010872 -0.002112 0.000000 0.000000 0.000000
# 3 -0.003301 -0.002112 0.012023 0.000000 0.000000 0.000000
# 4 0.000000 0.000000 0.000000 0.033409 0.000000 0.000000
# 5 0.000000 0.000000 0.000000 0.000000 0.046571 0.000000
# 6 0.000000 0.000000 0.000000 0.000000 0.000000 0.022431
#
#
# Mechanical properties :
#
#
# Convention : Reuss Voigt Hill
#
# Bulk Modulus (GPa) = 60.87012 61.39778 61.13395
# Shear Modulus (GPa) = 30.89313 32.82362 31.85838
#
# Velocity S-wave (km/s) = 3.87495 3.99418 3.93502
# Velocity P-wave (km/s) = 7.04311 7.14933 7.09642
#
# Compressibility (1/GPa) = 0.01642842
#
# Stress axis : x y z
#
# Youngs Moduli (GPa) = 81.29625 91.98194 83.17670
#
# Poissons Ratio (x) = 0.36525 0.27454
# Poissons Ratio (y) = 0.32282 0.17564
# Poissons Ratio (z) = 0.26834 0.19424
#
# Static dielectric constant tensor:
#      x y z
#    x 1.739470 0.000000 0.000000 
#    y 0.000000 1.725630 0.000000 
#    z 0.000000 0.000000 1.772340 
# 
# From -- ./inp_files/44122.got.cif
#   From: 2010.05.17/outbox.cif.g08.bks.cpg/sg72_23_cif.got.tgz:44122.got - 2010.06.03 17:03:01.
