data_PCOD9526345
_publ_section_title
;
Structure prediction by ZEFSAII (Michael W. Deem and Ramdas Pophale) SiO2 
 PCOD9526345
Probable space group: I B A M
;
_chemical_formula_sum "Si O2"
_cell_formula_units_Z 96
_cell_length_a 15.959873
_cell_length_b 21.066643
_cell_length_c 14.044681
_cell_angle_alpha 90.000000
_cell_angle_beta 90.000000
_cell_angle_gamma 90.000000
_cell_volume 4722.115944
_symmetry_space_group_name_H-M "I B A M"
_symmetry_group_IT_number 72
_symmetry_cell_setting 'orthorhombic'
loop_
_space_group_symop_operation_xyz
x,y,z
-x,-y,z
x,-y,1/2-z
-x,y,1/2-z
-x,-y,-z
x,y,-z
-x,y,1/2+z
x,-y,1/2+z
1/2+x,1/2+y,1/2+z
1/2-x,1/2-y,1/2+z
1/2+x,1/2-y,-z
1/2-x,1/2+y,-z
1/2-x,1/2-y,1/2-z
1/2+x,1/2+y,1/2-z
1/2-x,1/2+y,z
1/2+x,1/2-y,z
loop_
_atom_site_type_symbol
_atom_site_label
_atom_site_fract_x
_atom_site_fract_y
_atom_site_fract_z
Si Si1 0.095911 0.977152 0.109368
Si Si2 0.297471 0.717007 0.884854
Si Si3 0.172420 0.909793 0.729217
Si Si4 0.931786 0.677485 0.113428
Si Si5 0.864762 0.426716 0.254585
Si Si6 0.615566 0.815990 0.113060
O O1 0.110100 0.919116 0.181927
O O2 0.150342 0.034650 0.153695
O O3 0.118176 0.963385 0.000000
O O4 0.000000 0.000000 0.112631
O O5 0.328882 0.655921 0.827058
O O6 0.355164 0.776610 0.860588
O O7 0.198558 0.723749 0.860792
O O8 0.304434 0.706898 0.000000
O O9 0.265070 0.921063 0.771713
O O10 0.916542 0.611631 0.166785
O O11 0.022475 0.706696 0.139479
O O12 0.930212 0.668494 0.000000
O O13 0.888121 0.500000 0.250000
O O14 0.876378 0.385713 0.158746
O O15 0.617653 0.821112 0.000000
#
# Coordination Sequence:
#
# PCOD9526345 Si02
#       6
#    16  16  16  16  16  16
#     4  10  20  36  57  85 122 158 200 256 307 357
#     4   9  19  38  63  87 118 159 201 250 310 371
#     4  10  19  36  59  87 116 159 201 247 299 369
#     4  10  22  40  61  89 123 157 203 258 309 366
#     4  11  22  38  58  87 117 158 202 249 299 359
#     4   9  20  38  60  86 119 158 199 250 310 363
#
# _framework density 20.329868999999999
#
# number of rings (size 3 to 8) (size 9 to 14) (size 15 to 20)
#    0.000    2.167    1.667    2.000    0.000    6.000 
#    0.000    8.333    0.000    7.000    0.000    0.000 
#    0.000    0.000    0.000    0.000    0.000    0.000 
#
# Total GULP energy -267893.374829 kJ/mol
# GULP energy per Si atom -5581.111976 kJ/mol
# Density = 2.028360 g / cm^3
# Si number density = 20.329869 Si / 1000 Ang^3
#
#
#
# Elastic Constant Matrix: (Units=GPa)
#
#
# Indices 1 2 3 4 5 6 
#
# 1 135.6464 52.1529 37.4131 0.0000 0.0000 0.0000
# 2 52.1529 88.8253 19.2665 0.0000 0.0000 0.0000
# 3 37.4131 19.2665 98.0254 0.0000 0.0000 0.0000
# 4 0.0000 0.0000 0.0000 15.8610 0.0000 0.0000
# 5 0.0000 0.0000 0.0000 0.0000 27.5064 0.0000
# 6 0.0000 0.0000 0.0000 0.0000 0.0000 25.9237
#
#
#
# Elastic Compliance Matrix: (Units=1/GPa)
#
#
# Indices 1 2 3 4 5 6 
#
# 1 0.010228 -0.005389 -0.002845 0.000000 0.000000 0.000000
# 2 -0.005389 0.014598 -0.000813 0.000000 0.000000 0.000000
# 3 -0.002845 -0.000813 0.011447 0.000000 0.000000 0.000000
# 4 0.000000 0.000000 0.000000 0.063048 0.000000 0.000000
# 5 0.000000 0.000000 0.000000 0.000000 0.036355 0.000000
# 6 0.000000 0.000000 0.000000 0.000000 0.000000 0.038575
#
#
# Mechanical properties :
#
#
# Convention : Reuss Voigt Hill
#
# Bulk Modulus (GPa) = 55.00021 60.01801 57.50911
# Shear Modulus (GPa) = 25.20120 28.10255 26.65188
#
# Velocity S-wave (km/s) = 3.52464 3.72200 3.62466
# Velocity P-wave (km/s) = 6.60883 6.93233 6.77252
#
# Compressibility (1/GPa) = 0.01818175
#
# Stress axis : x y z
#
# Youngs Moduli (GPa) = 97.76605 68.50194 87.35985
#
# Poissons Ratio (x) = 0.36912 0.24852
# Poissons Ratio (y) = 0.52681 0.07099
# Poissons Ratio (z) = 0.27812 0.05566
#
# Static dielectric constant tensor:
#      x y z
#    x 1.772710 0.000000 0.000000 
#    y 0.000000 1.687190 0.000000 
#    z 0.000000 0.000000 1.733300 
# 
# From -- ./inp_files/21787.got.cif
#   From: 2010.05.17/outbox.cif.g08.bks.cpg/sg72_11_cif.got.tgz:21787.got - 2010.06.03 17:03:01.
