data_PCOD9526620
_publ_section_title
;
Structure prediction by ZEFSAII (Michael W. Deem and Ramdas Pophale) SiO2 
 PCOD9526620
Probable space group: I B A M
;
_chemical_formula_sum "Si O2"
_cell_formula_units_Z 112
_cell_length_a 15.169368
_cell_length_b 16.542947
_cell_length_c 22.713370
_cell_angle_alpha 90.000000
_cell_angle_beta 90.000000
_cell_angle_gamma 90.000000
_cell_volume 5699.830503
_symmetry_space_group_name_H-M "I B A M"
_symmetry_group_IT_number 72
_symmetry_cell_setting 'orthorhombic'
loop_
_space_group_symop_operation_xyz
x,y,z
-x,-y,z
x,-y,1/2-z
-x,y,1/2-z
-x,-y,-z
x,y,-z
-x,y,1/2+z
x,-y,1/2+z
1/2+x,1/2+y,1/2+z
1/2-x,1/2-y,1/2+z
1/2+x,1/2-y,-z
1/2-x,1/2+y,-z
1/2-x,1/2-y,1/2-z
1/2+x,1/2+y,1/2-z
1/2-x,1/2+y,z
1/2+x,1/2-y,z
loop_
_atom_site_type_symbol
_atom_site_label
_atom_site_fract_x
_atom_site_fract_y
_atom_site_fract_z
Si Si1 0.596622 0.687461 0.763089
Si Si2 0.766300 0.945094 0.692690
Si Si3 0.696477 0.712326 0.935852
Si Si4 0.653592 0.205370 0.154806
Si Si5 0.086693 0.447857 0.565045
Si Si6 0.951771 0.294466 0.871570
Si Si7 0.223187 0.020800 0.564737
O O1 0.500000 0.651921 0.750000
O O2 0.657672 0.619023 0.790485
O O3 0.641741 0.731210 0.707808
O O4 0.575399 0.759080 0.808883
O O5 0.685267 0.884009 0.676204
O O6 0.797243 0.996134 0.634384
O O7 0.748507 0.000000 0.750000
O O8 0.769869 0.737115 0.888440
O O9 0.598445 0.736289 0.917027
O O10 0.703727 0.615784 0.938083
O O11 0.717466 0.746467 0.000000
O O12 0.557381 0.200573 0.124510
O O13 0.079298 0.408325 0.500000
O O14 0.089701 0.381113 0.615034
O O15 0.173088 0.501932 0.563811
O O16 0.000000 0.500000 0.573314
O O17 0.189756 0.987271 0.500000
#
# Coordination Sequence:
#
# PCOD9526620 Si02
#       7
#    16  16  16  16  16  16  16
#     4  10  22  40  61  86 123 168 212 265 323 379
#     4  11  22  37  64  93 122 167 215 260 320 386
#     4  10  20  36  61  87 119 165 217 255 308 388
#     4  10  22  39  59  89 131 165 201 271 322 375
#     4  10  20  33  54  87 127 166 206 260 325 386
#     4  11  21  37  61  87 126 169 213 256 328 392
#     4   9  19  36  55  82 121 159 199 255 312 369
#
# _framework density 19.649706999999999
#
# number of rings (size 3 to 8) (size 9 to 14) (size 15 to 20)
#    0.000    1.857    2.857    2.571    2.000    2.571 
#    0.000    0.000    0.000    0.000    0.000    1.000 
#    0.000    0.429    0.000    0.000    0.000    0.000 
#
# Total GULP energy -311825.288163 kJ/mol
# GULP energy per Si atom -5568.308717 kJ/mol
# Density = 1.960498 g / cm^3
# Si number density = 19.649707 Si / 1000 Ang^3
#
#
#
# Elastic Constant Matrix: (Units=GPa)
#
#
# Indices 1 2 3 4 5 6 
#
# 1 104.1034 43.5975 43.3849 0.0000 0.0000 0.0000
# 2 43.5975 44.7466 18.6199 0.0000 0.0000 0.0000
# 3 43.3849 18.6199 128.3746 0.0000 0.0000 0.0000
# 4 0.0000 0.0000 0.0000 -2.5985 0.0000 0.0000
# 5 0.0000 0.0000 0.0000 0.0000 -5.5389 0.0000
# 6 0.0000 0.0000 0.0000 0.0000 0.0000 19.4651
#
#
#
# Elastic Compliance Matrix: (Units=1/GPa)
#
#
# Indices 1 2 3 4 5 6 
#
# 1 0.017748 -0.015747 -0.003714 0.000000 0.000000 0.000000
# 2 -0.015747 0.037755 -0.000154 0.000000 0.000000 0.000000
# 3 -0.003714 -0.000154 0.009067 0.000000 0.000000 0.000000
# 4 0.000000 0.000000 0.000000 -0.384837 0.000000 0.000000
# 5 0.000000 0.000000 0.000000 0.000000 -0.180540 0.000000
# 6 0.000000 0.000000 0.000000 0.000000 0.000000 0.051374
#
#
# Mechanical properties :
#
#
# Convention : Reuss Voigt Hill
#
# Bulk Modulus (GPa) = 39.46393 54.26989 46.86691
# Shear Modulus (GPa) = -12.44540 13.70703 0.63081
#
# Velocity S-wave (km/s) = -2.51940 2.64402 0.56721
# Velocity P-wave (km/s) = 3.41528 6.08274 4.93274
#
# Compressibility (1/GPa) = 0.02533959
#
# Stress axis : x y z
#
# Youngs Moduli (GPa) = 56.34303 26.48658 110.28639
#
# Poissons Ratio (x) = 0.41709 0.40962
# Poissons Ratio (y) = 0.88724 0.01702
# Poissons Ratio (z) = 0.20927 0.00409
#
# Static dielectric constant tensor:
#      x y z
#    x 1.697330 0.000000 0.000000 
#    y 0.000000 1.681380 0.000000 
#    z 0.000000 0.000000 1.799970 
# 
# From -- ./inp_files/44336.got.cif
#   From: 2010.05.17/outbox.cif.g08.bks.cpg/sg72_23_cif.got.tgz:44336.got - 2010.06.03 17:03:01.
