data_PCOD9526752
_publ_section_title
;
Structure prediction by ZEFSAII (Michael W. Deem and Ramdas Pophale) SiO2 
 PCOD9526752
Probable space group: I B A M
;
_chemical_formula_sum "Si O2"
_cell_formula_units_Z 80
_cell_length_a 12.121578
_cell_length_b 17.076750
_cell_length_c 18.304827
_cell_angle_alpha 90.000000
_cell_angle_beta 90.000000
_cell_angle_gamma 90.000000
_cell_volume 3789.047150
_symmetry_space_group_name_H-M "I B A M"
_symmetry_group_IT_number 72
_symmetry_cell_setting 'orthorhombic'
loop_
_space_group_symop_operation_xyz
x,y,z
-x,-y,z
x,-y,1/2-z
-x,y,1/2-z
-x,-y,-z
x,y,-z
-x,y,1/2+z
x,-y,1/2+z
1/2+x,1/2+y,1/2+z
1/2-x,1/2-y,1/2+z
1/2+x,1/2-y,-z
1/2-x,1/2+y,-z
1/2-x,1/2-y,1/2-z
1/2+x,1/2+y,1/2-z
1/2-x,1/2+y,z
1/2+x,1/2-y,z
loop_
_atom_site_type_symbol
_atom_site_label
_atom_site_fract_x
_atom_site_fract_y
_atom_site_fract_z
Si Si1 0.582198 0.432372 0.084042
Si Si2 0.039403 0.192202 0.668206
Si Si3 0.260180 0.416296 0.210549
Si Si4 0.333974 0.995138 0.584398
Si Si5 0.584152 0.136916 0.682432
O O1 0.500000 0.500000 0.113656
O O2 0.555907 0.352648 0.125276
O O3 0.708368 0.459919 0.085357
O O4 0.549687 0.420521 0.000000
O O5 0.141908 0.133124 0.675325
O O6 0.068326 0.279580 0.643725
O O7 0.000000 0.204529 0.750000
O O8 0.290495 0.500000 0.250000
O O9 0.177568 0.435887 0.143700
O O10 0.200276 0.367362 0.273876
O O11 0.359798 0.013861 0.500000
O O12 0.412084 0.930623 0.621635
O O13 0.500000 0.122723 0.750000
#
# Coordination Sequence:
#
# PCOD9526752 Si02
#       5
#    16  16  16  16  16
#     4  10  20  35  58  90 122 147 184 245 304 353
#     4  11  21  33  58  88 118 155 197 237 297 357
#     4  10  20  34  56  83 115 151 197 249 293 339
#     4  10  21  39  63  89 115 152 199 246 296 351
#     4  10  23  40  55  80 121 163 195 244 291 339
#
# _framework density 21.113488
#
# number of rings (size 3 to 8) (size 9 to 14) (size 15 to 20)
#    0.000    1.800    2.000    3.000    0.000    6.000 
#    0.000    2.000    0.000    1.200    0.000    0.000 
#    0.000    0.000    0.000    0.000    0.000    0.000 
#
# Total GULP energy -223261.661682 kJ/mol
# GULP energy per Si atom -5581.541542 kJ/mol
# Density = 2.106543 g / cm^3
# Si number density = 21.113488 Si / 1000 Ang^3
#
#
#
# Elastic Constant Matrix: (Units=GPa)
#
#
# Indices 1 2 3 4 5 6 
#
# 1 53.2580 8.8233 -8.2602 0.0000 0.0000 0.0000
# 2 8.8233 63.4485 13.9981 0.0000 0.0000 0.0000
# 3 -8.2602 13.9981 95.8945 0.0000 0.0000 0.0000
# 4 0.0000 0.0000 0.0000 -13.6803 0.0000 0.0000
# 5 0.0000 0.0000 0.0000 0.0000 29.5384 0.0000
# 6 0.0000 0.0000 0.0000 0.0000 0.0000 8.1246
#
#
#
# Elastic Compliance Matrix: (Units=1/GPa)
#
#
# Indices 1 2 3 4 5 6 
#
# 1 0.019643 -0.003208 0.002160 0.000000 0.000000 0.000000
# 2 -0.003208 0.016809 -0.002730 0.000000 0.000000 0.000000
# 3 0.002160 -0.002730 0.011013 0.000000 0.000000 0.000000
# 4 0.000000 0.000000 0.000000 -0.073098 0.000000 0.000000
# 5 0.000000 0.000000 0.000000 0.000000 0.033854 0.000000
# 6 0.000000 0.000000 0.000000 0.000000 0.000000 0.123083
#
#
# Mechanical properties :
#
#
# Convention : Reuss Voigt Hill
#
# Bulk Modulus (GPa) = 25.05686 26.85813 25.95750
# Shear Modulus (GPa) = 32.85941 17.99920 25.42930
#
# Velocity S-wave (km/s) = 3.94931 2.92292 3.47423
# Velocity P-wave (km/s) = 5.71747 4.91322 5.33054
#
# Compressibility (1/GPa) = 0.03990923
#
# Stress axis : x y z
#
# Youngs Moduli (GPa) = 50.90842 59.49105 90.80395
#
# Poissons Ratio (x) = 0.19086 -0.19617
# Poissons Ratio (y) = 0.16333 0.24790
# Poissons Ratio (z) = -0.10998 0.16241
#
# Static dielectric constant tensor:
#      x y z
#    x 1.842970 0.000000 0.000000 
#    y 0.000000 1.796640 0.000000 
#    z 0.000000 0.000000 1.758930 
# 
# From -- ./inp_files/30451.got.cif
#   From: 2010.05.17/outbox.cif.g08.bks.cpg/sg72_16_cif.got.tgz:30451.got - 2010.06.03 17:03:01.
