data_PCOD9526861
_publ_section_title
;
Structure prediction by ZEFSAII (Michael W. Deem and Ramdas Pophale) SiO2 
 PCOD9526861
Probable space group: I B A M
;
_chemical_formula_sum "Si O2"
_cell_formula_units_Z 80
_cell_length_a 9.687608
_cell_length_b 20.139294
_cell_length_c 22.490238
_cell_angle_alpha 90.000000
_cell_angle_beta 90.000000
_cell_angle_gamma 90.000000
_cell_volume 4387.881096
_symmetry_space_group_name_H-M "I B A M"
_symmetry_group_IT_number 72
_symmetry_cell_setting 'orthorhombic'
loop_
_space_group_symop_operation_xyz
x,y,z
-x,-y,z
x,-y,1/2-z
-x,y,1/2-z
-x,-y,-z
x,y,-z
-x,y,1/2+z
x,-y,1/2+z
1/2+x,1/2+y,1/2+z
1/2-x,1/2-y,1/2+z
1/2+x,1/2-y,-z
1/2-x,1/2+y,-z
1/2-x,1/2-y,1/2-z
1/2+x,1/2+y,1/2-z
1/2-x,1/2+y,z
1/2+x,1/2-y,z
loop_
_atom_site_type_symbol
_atom_site_label
_atom_site_fract_x
_atom_site_fract_y
_atom_site_fract_z
Si Si1 0.082726 0.848819 0.369402
Si Si2 0.868825 0.280045 0.291671
Si Si3 0.261381 0.388896 0.873362
Si Si4 0.336437 0.482353 0.317089
Si Si5 0.573308 0.308438 0.000000
Si Si6 0.755457 0.326562 0.500000
O O1 0.102902 0.777092 0.340410
O O2 0.169634 0.905444 0.335390
O O3 0.114985 0.845630 0.439403
O O4 0.921086 0.866906 0.363952
O O5 0.750000 0.250000 0.250000
O O6 0.824099 0.346187 0.325979
O O7 0.000000 0.290837 0.250000
O O8 0.258022 0.467127 0.860385
O O9 0.222718 0.368527 0.940091
O O10 0.500000 0.500000 0.320707
O O11 0.293644 0.500000 0.250000
O O12 0.645712 0.237038 0.000000
O O13 0.406030 0.303798 0.000000
#
# Coordination Sequence:
#
# PCOD9526861 Si02
#       6
#    16  16  16  16   8   8
#     4  10  20  35  56  84 114 149 191 238 283 343
#     4  12  22  33  56  85 114 146 195 238 284 338
#     4  10  20  36  55  85 114 149 190 237 287 335
#     4   9  18  32  54  81 117 148 183 233 289 338
#     4  10  20  35  55  85 113 145 190 238 286 334
#     4  10  20  35  57  83 115 145 190 238 282 338
#
# _framework density 18.232033999999999
#
# number of rings (size 3 to 8) (size 9 to 14) (size 15 to 20)
#    0.000    1.800    4.000    1.200    2.800    0.800 
#    0.000    4.000    0.000    5.400    0.000    1.400 
#    0.000    0.000    0.000    0.000    0.000    0.000 
#
# Total GULP energy -223196.231397 kJ/mol
# GULP energy per Si atom -5579.905785 kJ/mol
# Density = 1.819054 g / cm^3
# Si number density = 18.232034 Si / 1000 Ang^3
#
#
#
# Elastic Constant Matrix: (Units=GPa)
#
#
# Indices 1 2 3 4 5 6 
#
# 1 34.4195 14.7519 40.4632 0.0000 0.0000 0.0000
# 2 14.7519 96.4152 43.7052 0.0000 0.0000 0.0000
# 3 40.4632 43.7052 131.3190 0.0000 0.0000 0.0000
# 4 0.0000 0.0000 0.0000 25.8910 0.0000 0.0000
# 5 0.0000 0.0000 0.0000 0.0000 20.9651 0.0000
# 6 0.0000 0.0000 0.0000 0.0000 0.0000 22.8801
#
#
#
# Elastic Compliance Matrix: (Units=1/GPa)
#
#
# Indices 1 2 3 4 5 6 
#
# 1 0.045597 -0.000716 -0.013811 0.000000 0.000000 0.000000
# 2 -0.000716 0.012226 -0.003848 0.000000 0.000000 0.000000
# 3 -0.013811 -0.003848 0.013152 0.000000 0.000000 0.000000
# 4 0.000000 0.000000 0.000000 0.038623 0.000000 0.000000
# 5 0.000000 0.000000 0.000000 0.000000 0.047698 0.000000
# 6 0.000000 0.000000 0.000000 0.000000 0.000000 0.043706
#
#
# Mechanical properties :
#
#
# Convention : Reuss Voigt Hill
#
# Bulk Modulus (GPa) = 29.22024 51.11048 40.16536
# Shear Modulus (GPa) = 20.06738 24.82947 22.44842
#
# Velocity S-wave (km/s) = 3.32123 3.69434 3.51274
# Velocity P-wave (km/s) = 5.54699 6.80380 6.20729
#
# Compressibility (1/GPa) = 0.03422286
#
# Stress axis : x y z
#
# Youngs Moduli (GPa) = 21.93147 81.79409 76.03653
#
# Poissons Ratio (x) = 0.05854 1.05017
# Poissons Ratio (y) = 0.01570 0.29262
# Poissons Ratio (z) = 0.30291 0.31478
#
# Static dielectric constant tensor:
#      x y z
#    x 1.613990 0.000000 0.000000 
#    y 0.000000 1.618560 0.000000 
#    z 0.000000 0.000000 1.629800 
# 
# From -- ./inp_files/29224.got.cif
#   From: 2010.05.17/outbox.cif.g08.bks.cpg/sg72_15_cif.got.tgz:29224.got - 2010.06.03 17:03:01.
