data_PCOD9526408
_publ_section_title
;
Structure prediction by ZEFSAII (Michael W. Deem and Ramdas Pophale) SiO2 
 PCOD9526408
Probable space group: I B A M
;
_chemical_formula_sum "Si O2"
_cell_formula_units_Z 120
_cell_length_a 24.100752
_cell_length_b 10.757615
_cell_length_c 19.888627
_cell_angle_alpha 90.000000
_cell_angle_beta 90.000000
_cell_angle_gamma 90.000000
_cell_volume 5156.456924
_symmetry_space_group_name_H-M "I B A M"
_symmetry_group_IT_number 72
_symmetry_cell_setting 'orthorhombic'
loop_
_space_group_symop_operation_xyz
x,y,z
-x,-y,z
x,-y,1/2-z
-x,y,1/2-z
-x,-y,-z
x,y,-z
-x,y,1/2+z
x,-y,1/2+z
1/2+x,1/2+y,1/2+z
1/2-x,1/2-y,1/2+z
1/2+x,1/2-y,-z
1/2-x,1/2+y,-z
1/2-x,1/2-y,1/2-z
1/2+x,1/2+y,1/2-z
1/2-x,1/2+y,z
1/2+x,1/2-y,z
loop_
_atom_site_type_symbol
_atom_site_label
_atom_site_fract_x
_atom_site_fract_y
_atom_site_fract_z
Si Si1 0.290067 0.320165 0.802207
Si Si2 0.273237 0.823188 0.925336
Si Si3 0.944021 0.640268 0.922980
Si Si4 0.437077 0.763797 0.422827
Si Si5 0.904115 0.073221 0.813874
Si Si6 0.855234 0.464349 0.875620
Si Si7 0.128868 0.122550 0.075574
Si Si8 0.709803 0.000000 0.250000
O O1 0.250000 0.250000 0.750000
O O2 0.276815 0.282100 0.877458
O O3 0.352919 0.345404 0.784378
O O4 0.254741 0.447205 0.801601
O O5 0.318188 0.712569 0.917994
O O6 0.309165 0.949717 0.912440
O O7 0.251677 0.831188 0.000000
O O8 0.907319 0.560698 0.871860
O O9 0.922761 0.782472 0.919650
O O10 0.009611 0.646664 0.914400
O O11 0.931261 0.596918 0.000000
O O12 0.439174 0.715960 0.500000
O O13 0.439218 0.660951 0.363662
O O14 0.382317 0.846972 0.411995
O O15 0.929313 0.000000 0.750000
O O16 0.875974 0.976483 0.865716
O O17 0.831329 0.429855 0.801608
O O18 0.129742 0.067973 0.000000
#
# Coordination Sequence:
#
# PCOD9526408 Si02
#       8
#    16  16  16  16  16  16  16   8
#     4  11  22  39  61  81 114 158 209 251 309 380
#     4   9  19  35  61  90 118 153 199 257 316 371
#     4   9  19  38  66  92 122 164 203 250 320 385
#     4  11  23  39  63  96 127 163 215 271 322 378
#     4  12  25  41  60  83 122 167 213 259 314 376
#     4  10  19  37  63  94 130 162 203 259 322 385
#     4   9  19  39  62  87 120 161 205 251 305 377
#     4  10  22  38  57  88 118 165 206 250 310 388
#
# _framework density 23.271794
#
# number of rings (size 3 to 8) (size 9 to 14) (size 15 to 20)
#    0.000    1.867    0.667    4.400    0.000    4.800 
#    0.000    6.000    0.000    0.000    0.000    0.000 
#    0.000    0.000    0.000    0.000    0.000    0.000 
#
# Total GULP energy -334518.768477 kJ/mol
# GULP energy per Si atom -5575.312808 kJ/mol
# Density = 2.321883 g / cm^3
# Si number density = 23.271794 Si / 1000 Ang^3
#
#
#
# Elastic Constant Matrix: (Units=GPa)
#
#
# Indices 1 2 3 4 5 6 
#
# 1 80.9204 -4.0954 16.9047 0.0000 0.0000 0.0000
# 2 -4.0954 41.3962 19.1959 0.0000 0.0000 0.0000
# 3 16.9047 19.1959 101.9697 0.0000 0.0000 0.0000
# 4 0.0000 0.0000 0.0000 29.0350 0.0000 0.0000
# 5 0.0000 0.0000 0.0000 0.0000 21.4338 0.0000
# 6 0.0000 0.0000 0.0000 0.0000 0.0000 15.2781
#
#
#
# Elastic Compliance Matrix: (Units=1/GPa)
#
#
# Indices 1 2 3 4 5 6 
#
# 1 0.013035 0.002511 -0.002634 0.000000 0.000000 0.000000
# 2 0.002511 0.026951 -0.005490 0.000000 0.000000 0.000000
# 3 -0.002634 -0.005490 0.011277 0.000000 0.000000 0.000000
# 4 0.000000 0.000000 0.000000 0.034441 0.000000 0.000000
# 5 0.000000 0.000000 0.000000 0.000000 0.046655 0.000000
# 6 0.000000 0.000000 0.000000 0.000000 0.000000 0.065453
#
#
# Mechanical properties :
#
#
# Convention : Reuss Voigt Hill
#
# Bulk Modulus (GPa) = 24.97646 32.03295 28.50471
# Shear Modulus (GPa) = 22.48369 25.96813 24.22591
#
# Velocity S-wave (km/s) = 3.11164 3.34408 3.22995
# Velocity P-wave (km/s) = 4.86473 5.35771 5.11716
#
# Compressibility (1/GPa) = 0.04003770
#
# Stress axis : x y z
#
# Youngs Moduli (GPa) = 76.71605 37.10456 88.67682
#
# Poissons Ratio (x) = -0.09316 0.23354
# Poissons Ratio (y) = -0.19262 0.48682
# Poissons Ratio (z) = 0.20204 0.20370
#
# Static dielectric constant tensor:
#      x y z
#    x 1.842940 0.000000 0.000000 
#    y 0.000000 1.992960 0.000000 
#    z 0.000000 0.000000 1.743760 
# 
# From -- ./inp_files/40403.got.cif
#   From: 2010.05.17/outbox.cif.g08.bks.cpg/sg72_21_cif.got.tgz:40403.got - 2010.06.03 17:03:01.
