data_PCOD9526120
_publ_section_title
;
Structure prediction by ZEFSAII (Michael W. Deem and Ramdas Pophale) SiO2 
 PCOD9526120
Probable space group: I B A M
;
_chemical_formula_sum "Si O2"
_cell_formula_units_Z 100
_cell_length_a 21.918333
_cell_length_b 27.336795
_cell_length_c 7.817597
_cell_angle_alpha 90.000000
_cell_angle_beta 90.000000
_cell_angle_gamma 90.000000
_cell_volume 4684.124130
_symmetry_space_group_name_H-M "I B A M"
_symmetry_group_IT_number 72
_symmetry_cell_setting 'orthorhombic'
loop_
_space_group_symop_operation_xyz
x,y,z
-x,-y,z
x,-y,1/2-z
-x,y,1/2-z
-x,-y,-z
x,y,-z
-x,y,1/2+z
x,-y,1/2+z
1/2+x,1/2+y,1/2+z
1/2-x,1/2-y,1/2+z
1/2+x,1/2-y,-z
1/2-x,1/2+y,-z
1/2-x,1/2-y,1/2-z
1/2+x,1/2+y,1/2-z
1/2-x,1/2+y,z
1/2+x,1/2-y,z
loop_
_atom_site_type_symbol
_atom_site_label
_atom_site_fract_x
_atom_site_fract_y
_atom_site_fract_z
Si Si1 0.931065 0.691529 0.794395
Si Si2 0.820382 0.761254 0.793680
Si Si3 0.775611 0.444881 0.795415
Si Si4 0.070417 0.053845 0.797857
Si Si5 0.000000 0.500000 0.250000
Si Si6 0.331017 0.372109 0.709783
Si Si7 0.588077 0.079430 0.201996
O O1 0.873843 0.724380 0.731176
O O2 0.923482 0.634953 0.739130
O O3 0.000000 0.708429 0.750000
O O4 0.927121 0.691042 0.000000
O O5 0.750000 0.750000 0.750000
O O6 0.832058 0.816445 0.732032
O O7 0.824390 0.760657 0.000000
O O8 0.755875 0.500000 0.750000
O O9 0.727970 0.403483 0.738909
O O10 0.841256 0.433732 0.716972
O O11 0.780918 0.442090 0.000000
O O12 0.111196 0.097194 0.726663
O O13 0.000000 0.057522 0.750000
O O14 0.093425 0.000000 0.750000
O O15 0.074146 0.056815 0.000000
O O16 0.049407 0.540445 0.189978
O O17 0.331113 0.371101 0.500000
O O18 0.570640 0.074387 0.000000
#
# Coordination Sequence:
#
# PCOD9526120 Si02
#       7
#    16  16  16  16   4  16  16
#     4  10  22  39  60  86 116 149 189 239 286 337
#     4  10  21  40  62  84 112 148 192 239 288 337
#     4  11  22  36  56  82 113 149 188 229 278 332
#     4  10  19  34  55  81 114 148 184 225 276 335
#     4  12  22  36  60  78 118 148 184 212 272 320
#     4   9  20  37  57  81 111 148 186 229 280 336
#     4  11  23  38  56  84 116 149 189 228 273 328
#
# _framework density 21.348708999999999
#
# number of rings (size 3 to 8) (size 9 to 14) (size 15 to 20)
#    0.000    1.760    1.600    3.120    0.000    2.560 
#    0.000    4.800    0.000    0.000    0.000    0.000 
#    0.000    0.000    0.000    0.000    0.000    0.000 
#
# Total GULP energy -279059.417029 kJ/mol
# GULP energy per Si atom -5581.188341 kJ/mol
# Density = 2.130012 g / cm^3
# Si number density = 21.348709 Si / 1000 Ang^3
#
#
#
# Elastic Constant Matrix: (Units=GPa)
#
#
# Indices 1 2 3 4 5 6 
#
# 1 153.0358 115.4343 9.8147 0.0000 0.0000 0.0000
# 2 115.4343 208.7680 16.0115 0.0000 0.0000 0.0000
# 3 9.8147 16.0115 46.9592 0.0000 0.0000 0.0000
# 4 0.0000 0.0000 0.0000 8.8531 0.0000 0.0000
# 5 0.0000 0.0000 0.0000 0.0000 20.9423 0.0000
# 6 0.0000 0.0000 0.0000 0.0000 0.0000 -17.1286
#
#
#
# Elastic Compliance Matrix: (Units=1/GPa)
#
#
# Indices 1 2 3 4 5 6 
#
# 1 0.011212 -0.006182 -0.000236 0.000000 0.000000 0.000000
# 2 -0.006182 0.008327 -0.001547 0.000000 0.000000 0.000000
# 3 -0.000236 -0.001547 0.021872 0.000000 0.000000 0.000000
# 4 0.000000 0.000000 0.000000 0.112954 0.000000 0.000000
# 5 0.000000 0.000000 0.000000 0.000000 0.047750 0.000000
# 6 0.000000 0.000000 0.000000 0.000000 0.000000 -0.058382
#
#
# Mechanical properties :
#
#
# Convention : Reuss Voigt Hill
#
# Bulk Modulus (GPa) = 39.24341 76.80934 58.02637
# Shear Modulus (GPa) = 29.73422 20.36685 25.05053
#
# Velocity S-wave (km/s) = 3.73606 3.09205 3.42921
# Velocity P-wave (km/s) = 6.08546 6.98601 6.55123
#
# Compressibility (1/GPa) = 0.02548199
#
# Stress axis : x y z
#
# Youngs Moduli (GPa) = 89.18831 120.09683 45.72081
#
# Poissons Ratio (x) = 0.74238 0.01078
# Poissons Ratio (y) = 0.55132 0.07074
# Poissons Ratio (z) = 0.02102 0.18580
#
# Static dielectric constant tensor:
#      x y z
#    x 1.818100 0.000000 0.000000 
#    y 0.000000 1.984340 0.000000 
#    z 0.000000 0.000000 1.936030 
# 
# From -- ./inp_files/6191.got.cif
#   From: 2010.05.17/outbox.cif.g08.bks.cpg/sg72_4_cif.got.tgz:6191.got - 2010.06.03 17:03:01.
