data_PCOD9526111
_publ_section_title
;
Structure prediction by ZEFSAII (Michael W. Deem and Ramdas Pophale) SiO2 
 PCOD9526111
Probable space group: I B A M
;
_chemical_formula_sum "Si O2"
_cell_formula_units_Z 96
_cell_length_a 7.354304
_cell_length_b 25.790199
_cell_length_c 24.227524
_cell_angle_alpha 90.000000
_cell_angle_beta 90.000000
_cell_angle_gamma 90.000000
_cell_volume 4595.209369
_symmetry_space_group_name_H-M "I B A M"
_symmetry_group_IT_number 72
_symmetry_cell_setting 'orthorhombic'
loop_
_space_group_symop_operation_xyz
x,y,z
-x,-y,z
x,-y,1/2-z
-x,y,1/2-z
-x,-y,-z
x,y,-z
-x,y,1/2+z
x,-y,1/2+z
1/2+x,1/2+y,1/2+z
1/2-x,1/2-y,1/2+z
1/2+x,1/2-y,-z
1/2-x,1/2+y,-z
1/2-x,1/2-y,1/2-z
1/2+x,1/2+y,1/2-z
1/2-x,1/2+y,z
1/2+x,1/2-y,z
loop_
_atom_site_type_symbol
_atom_site_label
_atom_site_fract_x
_atom_site_fract_y
_atom_site_fract_z
Si Si1 0.299309 0.819925 0.937542
Si Si2 0.369749 0.703937 0.063222
Si Si3 0.774677 0.090706 0.862671
Si Si4 0.283840 0.992834 0.562544
Si Si5 0.698800 0.608547 0.370399
Si Si6 0.778033 0.060169 0.254983
O O1 0.367741 0.763756 0.918616
O O2 0.337920 0.868623 0.898832
O O3 0.079680 0.813693 0.939693
O O4 0.362876 0.829920 0.000000
O O5 0.262599 0.664659 0.103023
O O6 0.297641 0.702780 0.000000
O O7 0.783990 0.035619 0.893970
O O8 0.705939 0.086300 0.800574
O O9 0.982190 0.109320 0.859921
O O10 0.216066 0.001436 0.500000
O O11 0.500000 0.000000 0.561600
O O12 0.237788 0.935901 0.584574
O O13 0.775250 0.588157 0.311892
O O14 0.000000 0.060496 0.250000
O O15 0.724147 0.000000 0.250000
#
# Coordination Sequence:
#
# PCOD9526111 Si02
#       6
#    16  16  16  16  16  16
#     4   9  18  32  51  74  99 131 169 209 254 300
#     4   9  18  32  51  74  99 131 169 209 254 300
#     4  10  19  34  55  76 100 133 175 211 246 302
#     4  11  23  34  47  74 108 135 162 207 264 307
#     4  10  19  34  55  76 100 133 175 211 246 302
#     4   9  16  30  53  78 100 130 170 212 253 290
#
# _framework density 20.891321999999999
#
# number of rings (size 3 to 8) (size 9 to 14) (size 15 to 20)
#    0.000    2.333    1.667    1.500    0.000    4.000 
#    0.000    5.833    0.000    0.000    0.000    0.000 
#    0.000    0.000    0.000    0.000    0.000    0.000 
#
# Total GULP energy -268029.511857 kJ/mol
# GULP energy per Si atom -5583.948164 kJ/mol
# Density = 2.084377 g / cm^3
# Si number density = 20.891322 Si / 1000 Ang^3
#
#
#
# Elastic Constant Matrix: (Units=GPa)
#
#
# Indices 1 2 3 4 5 6 
#
# 1 44.2625 -23.1414 -14.2566 0.0000 0.0000 0.0000
# 2 -23.1414 104.4778 42.7363 -0.0001 0.0000 0.0000
# 3 -14.2566 42.7363 108.3922 0.0000 0.0000 0.0000
# 4 0.0000 -0.0001 0.0000-1137.5222 0.0001 0.0000
# 5 0.0000 0.0000 0.0000 0.0001 16.6680 0.0000
# 6 0.0000 0.0000 0.0000 0.0000 0.0000 19.6373
#
#
#
# Elastic Compliance Matrix: (Units=1/GPa)
#
#
# Indices 1 2 3 4 5 6 
#
# 1 0.025717 0.005142 0.001355 0.000000 0.000000 0.000000
# 2 0.005142 0.012440 -0.004228 0.000000 0.000000 0.000000
# 3 0.001355 -0.004228 0.011071 0.000000 0.000000 0.000000
# 4 0.000000 0.000000 0.000000 -0.000879 0.000000 0.000000
# 5 0.000000 0.000000 0.000000 0.000000 0.059995 0.000000
# 6 0.000000 0.000000 0.000000 0.000000 0.000000 0.050923
#
#
# Mechanical properties :
#
#
# Convention : Reuss Voigt Hill
#
# Bulk Modulus (GPa) = 18.59916 29.75655 24.17786
# Shear Modulus (GPa) = 28.95987 -203.45709 -87.24861
#
# Velocity S-wave (km/s) = 3.72723 -9.87926 -6.46945
# Velocity P-wave (km/s) = 5.23881 10.76376 6.64881
#
# Compressibility (1/GPa) = 0.05376588
#
# Stress axis : x y z
#
# Youngs Moduli (GPa) = 38.88430 80.38609 90.32464
#
# Poissons Ratio (x) = -0.41334 -0.12241
# Poissons Ratio (y) = -0.19994 0.38193
# Poissons Ratio (z) = -0.05270 0.33991
#
# Static dielectric constant tensor:
#      x y z
#    x 1.809070 0.000000 0.000000 
#    y 0.000000 1.726410 0.000000 
#    z 0.000000 0.000000 1.751630 
# 
# From -- ./inp_files/36036.got.cif
#   From: 2010.05.17/outbox.cif.g08.bks.cpg/sg72_19_cif.got.tgz:36036.got - 2010.06.03 17:03:01.
