data_PCOD9526175
_publ_section_title
;
Structure prediction by ZEFSAII (Michael W. Deem and Ramdas Pophale) SiO2 
 PCOD9526175
Probable space group: I B A M
;
_chemical_formula_sum "Si O2"
_cell_formula_units_Z 88
_cell_length_a 9.999566
_cell_length_b 21.198827
_cell_length_c 20.455250
_cell_angle_alpha 90.000000
_cell_angle_beta 90.000000
_cell_angle_gamma 90.000000
_cell_volume 4336.084866
_symmetry_space_group_name_H-M "I B A M"
_symmetry_group_IT_number 72
_symmetry_cell_setting 'orthorhombic'
loop_
_space_group_symop_operation_xyz
x,y,z
-x,-y,z
x,-y,1/2-z
-x,y,1/2-z
-x,-y,-z
x,y,-z
-x,y,1/2+z
x,-y,1/2+z
1/2+x,1/2+y,1/2+z
1/2-x,1/2-y,1/2+z
1/2+x,1/2-y,-z
1/2-x,1/2+y,-z
1/2-x,1/2-y,1/2-z
1/2+x,1/2+y,1/2-z
1/2-x,1/2+y,z
1/2+x,1/2-y,z
loop_
_atom_site_type_symbol
_atom_site_label
_atom_site_fract_x
_atom_site_fract_y
_atom_site_fract_z
Si Si1 0.479005 0.689129 0.360045
Si Si2 0.000000 0.702519 0.250000
Si Si3 0.010012 0.694994 0.073076
Si Si4 0.157176 0.483283 0.925836
Si Si5 0.300658 0.865154 0.162860
Si Si6 0.227835 0.120941 0.078481
O O1 0.485197 0.747236 0.308671
O O2 0.454673 0.731427 0.424312
O O3 0.355613 0.648099 0.336431
O O4 0.608669 0.648013 0.377056
O O5 0.122822 0.656923 0.271164
O O6 0.135430 0.655671 0.100047
O O7 0.872351 0.679740 0.109278
O O8 0.993981 0.672069 0.000000
O O9 0.177230 0.434028 0.867354
O O10 0.243499 0.546586 0.915533
O O11 0.000000 0.500000 0.926584
O O12 0.189620 0.459472 0.000000
O O13 0.206142 0.133951 0.000000
#
# Coordination Sequence:
#
# PCOD9526175 Si02
#       6
#    16   8  16  16  16  16
#     4  11  23  38  60  88 125 160 205 264 321 372
#     4  10  24  44  63  83 124 172 214 264 314 370
#     4  10  19  34  58  88 123 160 199 249 312 386
#     4  10  20  39  65  92 126 162 201 253 315 386
#     4  11  22  38  64  89 115 162 217 257 308 370
#     4  10  21  37  61  94 132 168 200 253 326 391
#
# _framework density 20.294805
#
# number of rings (size 3 to 8) (size 9 to 14) (size 15 to 20)
#    0.000    1.636    1.818    3.818    0.000    6.545 
#    0.000    2.273    0.000    1.091    0.000    0.000 
#    0.000    0.000    0.000    0.000    0.000    0.000 
#
# Total GULP energy -245114.302937 kJ/mol
# GULP energy per Si atom -5570.779612 kJ/mol
# Density = 2.024861 g / cm^3
# Si number density = 20.294805 Si / 1000 Ang^3
#
#
#
# Elastic Constant Matrix: (Units=GPa)
#
#
# Indices 1 2 3 4 5 6 
#
# 1 50.0804 19.4730 22.4176 0.0000 0.0000 0.0000
# 2 19.4730 100.1802 33.0323 0.0000 0.0000 0.0000
# 3 22.4176 33.0323 69.5637 0.0000 0.0000 0.0000
# 4 0.0000 0.0000 0.0000 35.0130 0.0000 0.0000
# 5 0.0000 0.0000 0.0000 0.0000 20.9518 0.0000
# 6 0.0000 0.0000 0.0000 0.0000 0.0000 2.7986
#
#
#
# Elastic Compliance Matrix: (Units=1/GPa)
#
#
# Indices 1 2 3 4 5 6 
#
# 1 0.023847 -0.002492 -0.006502 0.000000 0.000000 0.000000
# 2 -0.002492 0.012095 -0.004941 0.000000 0.000000 0.000000
# 3 -0.006502 -0.004941 0.018817 0.000000 0.000000 0.000000
# 4 0.000000 0.000000 0.000000 0.028561 0.000000 0.000000
# 5 0.000000 0.000000 0.000000 0.000000 0.047729 0.000000
# 6 0.000000 0.000000 0.000000 0.000000 0.000000 0.357320
#
#
# Mechanical properties :
#
#
# Convention : Reuss Voigt Hill
#
# Bulk Modulus (GPa) = 37.18690 41.07445 39.13068
# Shear Modulus (GPa) = 9.52017 21.41278 15.46647
#
# Velocity S-wave (km/s) = 2.16821 3.25173 2.76359
# Velocity P-wave (km/s) = 4.96299 5.86355 5.43197
#
# Compressibility (1/GPa) = 0.02689119
#
# Stress axis : x y z
#
# Youngs Moduli (GPa) = 41.93379 82.67633 53.14447
#
# Poissons Ratio (x) = 0.20599 0.34554
# Poissons Ratio (y) = 0.10448 0.26256
# Poissons Ratio (z) = 0.27265 0.40847
#
# Static dielectric constant tensor:
#      x y z
#    x 1.697140 0.000000 0.000000 
#    y 0.000000 1.743770 0.000000 
#    z 0.000000 0.000000 1.928820 
# 
# From -- ./inp_files/42288.got.cif
#   From: 2010.05.17/outbox.cif.g08.bks.cpg/sg72_22_cif.got.tgz:42288.got - 2010.06.03 17:03:01.
