data_PCOD9526727
_publ_section_title
;
Structure prediction by ZEFSAII (Michael W. Deem and Ramdas Pophale) SiO2 
 PCOD9526727
Probable space group: I B A M
;
_chemical_formula_sum "Si O2"
_cell_formula_units_Z 96
_cell_length_a 23.025693
_cell_length_b 24.713661
_cell_length_c 8.531768
_cell_angle_alpha 90.000000
_cell_angle_beta 90.000000
_cell_angle_gamma 90.000000
_cell_volume 4854.995508
_symmetry_space_group_name_H-M "I B A M"
_symmetry_group_IT_number 72
_symmetry_cell_setting 'orthorhombic'
loop_
_space_group_symop_operation_xyz
x,y,z
-x,-y,z
x,-y,1/2-z
-x,y,1/2-z
-x,-y,-z
x,y,-z
-x,y,1/2+z
x,-y,1/2+z
1/2+x,1/2+y,1/2+z
1/2-x,1/2-y,1/2+z
1/2+x,1/2-y,-z
1/2-x,1/2+y,-z
1/2-x,1/2-y,1/2-z
1/2+x,1/2+y,1/2-z
1/2-x,1/2+y,z
1/2+x,1/2-y,z
loop_
_atom_site_type_symbol
_atom_site_label
_atom_site_fract_x
_atom_site_fract_y
_atom_site_fract_z
Si Si1 0.938354 0.112312 0.186649
Si Si2 0.736871 0.665718 0.312257
Si Si3 0.381370 0.719906 0.812277
Si Si4 0.181468 0.941563 0.187254
Si Si5 0.368361 0.167487 0.810727
Si Si6 0.565908 0.941717 0.811415
O O1 0.921900 0.170816 0.257245
O O2 0.885473 0.072436 0.227627
O O3 0.000000 0.093700 0.250000
O O4 0.940498 0.117294 0.000000
O O5 0.738271 0.671633 0.500000
O O6 0.684064 0.703655 0.253758
O O7 0.718514 0.605239 0.267642
O O8 0.801966 0.673572 0.251948
O O9 0.399425 0.778128 0.747259
O O10 0.380635 0.721379 0.000000
O O11 0.197463 0.000000 0.250000
O O12 0.187900 0.938514 0.000000
O O13 0.396999 0.110740 0.760815
O O14 0.368013 0.167373 0.000000
O O15 0.500000 0.935726 0.750000
O O16 0.587897 0.000000 0.750000
O O17 0.565101 0.943462 0.000000
#
# Coordination Sequence:
#
# PCOD9526727 Si02
#       6
#    16  16  16  16  16  16
#     4  10  21  37  56  78 107 143 182 225 272 320
#     4   9  19  36  55  78 110 144 179 221 268 316
#     4  10  20  34  55  81 110 144 179 219 266 317
#     4  10  21  36  55  79 108 143 181 224 272 321
#     4  10  21  36  56  82 110 141 178 220 265 317
#     4  10  21  38  58  78 104 137 171 214 264 312
#
# _framework density 19.773448999999999
#
# number of rings (size 3 to 8) (size 9 to 14) (size 15 to 20)
#    0.000    2.167    0.000    3.000    0.000    6.333 
#    0.000    5.000    0.000    0.000    0.000    0.000 
#    0.000    0.000    0.000    0.000    0.000    0.000 
#
# Total GULP energy -267989.477138 kJ/mol
# GULP energy per Si atom -5583.114107 kJ/mol
# Density = 1.972844 g / cm^3
# Si number density = 19.773449 Si / 1000 Ang^3
#
#
#
# Elastic Constant Matrix: (Units=GPa)
#
#
# Indices 1 2 3 4 5 6 
#
# 1 12.5797 -11.5543 -2.7862 0.0000 0.0000 0.0000
# 2 -11.5543 109.6776 -0.3386 0.0000 0.0000 0.0000
# 3 -2.7862 -0.3386 10.1775 0.0000 0.0000 0.0000
# 4 0.0000 0.0000 0.0000 25.1750 0.0000 0.0000
# 5 0.0000 0.0000 0.0000 0.0000 15.5144 0.0000
# 6 0.0000 0.0000 0.0000 0.0000 0.0000 1.5526
#
#
#
# Elastic Compliance Matrix: (Units=1/GPa)
#
#
# Indices 1 2 3 4 5 6 
#
# 1 0.094518 0.010038 0.026210 0.000000 0.000000 0.000000
# 2 0.010038 0.010185 0.003087 0.000000 0.000000 0.000000
# 3 0.026210 0.003087 0.105534 0.000000 0.000000 0.000000
# 4 0.000000 0.000000 0.000000 0.039722 0.000000 0.000000
# 5 0.000000 0.000000 0.000000 0.000000 0.064456 0.000000
# 6 0.000000 0.000000 0.000000 0.000000 0.000000 0.644078
#
#
# Mechanical properties :
#
#
# Convention : Reuss Voigt Hill
#
# Bulk Modulus (GPa) = 3.46133 11.45295 7.45714
# Shear Modulus (GPa) = 5.12229 18.25599 11.68914
#
# Velocity S-wave (km/s) = 1.61125 3.04181 2.43400
# Velocity P-wave (km/s) = 2.28381 4.25928 3.41740
#
# Compressibility (1/GPa) = 0.28890645
#
# Stress axis : x y z
#
# Youngs Moduli (GPa) = 10.57996 98.18691 9.47562
#
# Poissons Ratio (x) = -0.98562 -0.24835
# Poissons Ratio (y) = -0.10620 -0.02925
# Poissons Ratio (z) = -0.27730 -0.30310
#
# Static dielectric constant tensor:
#      x y z
#    x 1.716330 0.000000 0.000000 
#    y 0.000000 1.629700 0.000000 
#    z 0.000000 0.000000 1.667000 
# 
# From -- ./inp_files/6950.got.cif
#   From: 2010.05.17/outbox.cif.g08.bks.cpg/sg72_4_cif.got.tgz:6950.got - 2010.06.03 17:03:01.
