data_PCOD9526601
_publ_section_title
;
Structure prediction by ZEFSAII (Michael W. Deem and Ramdas Pophale) SiO2 
 PCOD9526601
Probable space group: I B A M
;
_chemical_formula_sum "Si O2"
_cell_formula_units_Z 116
_cell_length_a 22.206906
_cell_length_b 33.368370
_cell_length_c 8.931652
_cell_angle_alpha 90.000000
_cell_angle_beta 90.000000
_cell_angle_gamma 90.000000
_cell_volume 6618.427871
_symmetry_space_group_name_H-M "I B A M"
_symmetry_group_IT_number 72
_symmetry_cell_setting 'orthorhombic'
loop_
_space_group_symop_operation_xyz
x,y,z
-x,-y,z
x,-y,1/2-z
-x,y,1/2-z
-x,-y,-z
x,y,-z
-x,y,1/2+z
x,-y,1/2+z
1/2+x,1/2+y,1/2+z
1/2-x,1/2-y,1/2+z
1/2+x,1/2-y,-z
1/2-x,1/2+y,-z
1/2-x,1/2-y,1/2-z
1/2+x,1/2+y,1/2-z
1/2-x,1/2+y,z
1/2+x,1/2-y,z
loop_
_atom_site_type_symbol
_atom_site_label
_atom_site_fract_x
_atom_site_fract_y
_atom_site_fract_z
Si Si1 0.712172 0.897552 0.819694
Si Si2 0.169278 0.227617 0.819816
Si Si3 0.787196 0.689261 0.177282
Si Si4 0.063332 0.168406 0.178260
Si Si5 0.379510 0.961463 0.330883
Si Si6 0.566004 0.574805 0.318837
Si Si7 0.000000 0.500000 0.750000
Si Si8 0.188603 0.042960 0.681011
O O1 0.707272 0.852390 0.762551
O O2 0.650343 0.920877 0.775343
O O3 0.766714 0.922589 0.744853
O O4 0.720363 0.897219 0.000000
O O5 0.164904 0.275185 0.790151
O O6 0.224992 0.209378 0.729897
O O7 0.112857 0.200583 0.776792
O O8 0.179800 0.223296 0.000000
O O9 0.786933 0.681794 0.000000
O O10 0.077850 0.122073 0.214666
O O11 0.000000 0.178226 0.250000
O O12 0.057996 0.170014 0.000000
O O13 0.360555 0.964542 0.500000
O O14 0.352935 0.000000 0.250000
O O15 0.451463 0.969804 0.324657
O O16 0.500000 0.565056 0.250000
O O17 0.565730 0.569178 0.500000
O O18 0.620977 0.551606 0.241690
O O19 0.190027 0.042373 0.500000
O O20 0.206764 0.000000 0.750000
#
# Coordination Sequence:
#
# PCOD9526601 Si02
#       8
#    16  16  16  16  16  16   4  16
#     4  11  22  37  55  80 112 145 180 224 276 326
#     4   9  18  34  54  77 108 141 176 220 269 322
#     4  10  20  33  53  81 107 140 180 219 268 323
#     4   9  18  32  53  78 105 138 175 218 266 313
#     4   9  19  33  55  80 105 136 174 217 263 316
#     4  10  20  36  57  82 111 146 187 231 276 327
#     4   8  18  36  58  84 106 132 180 220 262 316
#     4  12  25  40  57  81 110 144 184 228 278 331
#
# _framework density 17.526820000000001
#
# number of rings (size 3 to 8) (size 9 to 14) (size 15 to 20)
#    0.414    1.655    0.000    3.931    0.000    5.241 
#    0.000    1.379    1.517    0.000    0.000    0.000 
#    0.000    0.000    0.000    0.000    0.000    0.000 
#
# Total GULP energy -323015.737971 kJ/mol
# GULP energy per Si atom -5569.236862 kJ/mol
# Density = 1.748693 g / cm^3
# Si number density = 17.526820 Si / 1000 Ang^3
#
#
#
# Elastic Constant Matrix: (Units=GPa)
#
#
# Indices 1 2 3 4 5 6 
#
# 1 68.9189 38.1060 27.8044 0.0000 0.0000 0.0000
# 2 38.1060 101.0292 41.6028 0.0000 0.0000 0.0000
# 3 27.8044 41.6028 69.8465 0.0000 -0.0001 0.0000
# 4 0.0000 0.0000 0.0000 26.8356 0.0000 0.0000
# 5 0.0000 0.0000 -0.0001 0.0000 -36.5118 0.0000
# 6 0.0000 0.0000 0.0000 0.0000 0.0000 36.6562
#
#
#
# Elastic Compliance Matrix: (Units=1/GPa)
#
#
# Indices 1 2 3 4 5 6 
#
# 1 0.019319 -0.005459 -0.004439 0.000000 0.000000 0.000000
# 2 -0.005459 0.014657 -0.006557 0.000000 0.000000 0.000000
# 3 -0.004439 -0.006557 0.019990 0.000000 0.000000 0.000000
# 4 0.000000 0.000000 0.000000 0.037264 0.000000 0.000000
# 5 0.000000 0.000000 0.000000 0.000000 -0.027388 0.000000
# 6 0.000000 0.000000 0.000000 0.000000 0.000000 0.027281
#
#
# Mechanical properties :
#
#
# Convention : Reuss Voigt Hill
#
# Bulk Modulus (GPa) = 47.49260 50.53565 49.01412
# Shear Modulus (GPa) = 38.15313 14.21477 26.18395
#
# Velocity S-wave (km/s) = 4.67073 2.85095 3.86934
# Velocity P-wave (km/s) = 7.49957 6.30342 6.92736
#
# Compressibility (1/GPa) = 0.02105591
#
# Stress axis : x y z
#
# Youngs Moduli (GPa) = 51.76296 68.22557 50.02515
#
# Poissons Ratio (x) = 0.37242 0.22206
# Poissons Ratio (y) = 0.28256 0.32803
# Poissons Ratio (z) = 0.22978 0.44738
#
# Static dielectric constant tensor:
#      x y z
#    x 1.597700 0.000000 0.000000 
#    y 0.000000 1.631760 0.000000 
#    z 0.000000 0.000000 1.596430 
# 
# From -- ./inp_files/7362.got.cif
#   From: 2010.05.17/outbox.cif.g08.bks.cpg/sg72_4_cif.got.tgz:7362.got - 2010.06.03 17:03:01.
