data_PCOD9526298
_publ_section_title
;
Structure prediction by ZEFSAII (Michael W. Deem and Ramdas Pophale) SiO2 
 PCOD9526298
Probable space group: I B A M
;
_chemical_formula_sum "Si O2"
_cell_formula_units_Z 80
_cell_length_a 7.322339
_cell_length_b 27.090124
_cell_length_c 17.891310
_cell_angle_alpha 90.000000
_cell_angle_beta 90.000000
_cell_angle_gamma 90.000000
_cell_volume 3548.975204
_symmetry_space_group_name_H-M "I B A M"
_symmetry_group_IT_number 72
_symmetry_cell_setting 'orthorhombic'
loop_
_space_group_symop_operation_xyz
x,y,z
-x,-y,z
x,-y,1/2-z
-x,y,1/2-z
-x,-y,-z
x,y,-z
-x,y,1/2+z
x,-y,1/2+z
1/2+x,1/2+y,1/2+z
1/2-x,1/2-y,1/2+z
1/2+x,1/2-y,-z
1/2-x,1/2+y,-z
1/2-x,1/2-y,1/2-z
1/2+x,1/2+y,1/2-z
1/2-x,1/2+y,z
1/2+x,1/2-y,z
loop_
_atom_site_type_symbol
_atom_site_label
_atom_site_fract_x
_atom_site_fract_y
_atom_site_fract_z
Si Si1 0.290935 0.984580 0.589130
Si Si2 0.934164 0.334154 0.582747
Si Si3 0.224303 0.877981 0.347359
Si Si4 0.290560 0.305195 0.776571
Si Si5 0.135203 0.087770 0.586108
O O1 0.259947 0.975326 0.500000
O O2 0.263782 0.935388 0.637047
O O3 0.500000 0.000000 0.596713
O O4 0.166187 0.031607 0.611009
O O5 0.912939 0.312755 0.500000
O O6 0.814850 0.305946 0.644304
O O7 0.833282 0.387209 0.584403
O O8 0.146048 0.344547 0.599882
O O9 0.277193 0.854428 0.267812
O O10 0.008261 0.878952 0.368067
O O11 0.500000 0.308287 0.750000
O O12 0.250000 0.250000 0.750000
O O13 0.070739 0.087570 0.500000
#
# Coordination Sequence:
#
# PCOD9526298 Si02
#       5
#    16  16  16  16  16
#     4  10  19  35  63 103 151 196 234 285 351 422
#     4  11  23  44  72 105 140 183 237 291 350 430
#     4  12  22  40  72 101 140 187 242 284 359 419
#     4  12  27  52  76 101 141 185 233 308 379 430
#     4  10  20  36  64 102 145 188 232 280 344 419
#
# _framework density 22.541719000000001
#
# number of rings (size 3 to 8) (size 9 to 14) (size 15 to 20)
#    0.000    1.000    4.000    4.200    0.000    1.600 
#    0.000    7.000    0.000    0.000    0.000    0.000 
#    0.000    0.000    0.000    0.000    0.000    0.000 
#
# Total GULP energy -222841.704517 kJ/mol
# GULP energy per Si atom -5571.042613 kJ/mol
# Density = 2.249041 g / cm^3
# Si number density = 22.541719 Si / 1000 Ang^3
#
#
#
# Elastic Constant Matrix: (Units=GPa)
#
#
# Indices 1 2 3 4 5 6 
#
# 1 101.2064 7.8643 28.6408 0.0000 0.0000 0.0000
# 2 7.8643 92.7176 55.7450 0.0000 0.0000 0.0000
# 3 28.6408 55.7450 133.0412 -0.0001 0.0000 0.0000
# 4 0.0000 0.0000 -0.0001 19.8213 0.0000 0.0000
# 5 0.0000 0.0000 0.0000 0.0000 25.1504 0.0000
# 6 0.0000 0.0000 0.0000 0.0000 0.0000 14.3354
#
#
#
# Elastic Compliance Matrix: (Units=1/GPa)
#
#
# Indices 1 2 3 4 5 6 
#
# 1 0.010549 0.000629 -0.002535 0.000000 0.000000 0.000000
# 2 0.000629 0.014455 -0.006192 0.000000 0.000000 0.000000
# 3 -0.002535 -0.006192 0.010657 0.000000 0.000000 0.000000
# 4 0.000000 0.000000 0.000000 0.050451 0.000000 0.000000
# 5 0.000000 0.000000 0.000000 0.000000 0.039761 0.000000
# 6 0.000000 0.000000 0.000000 0.000000 0.000000 0.069757
#
#
# Mechanical properties :
#
#
# Convention : Reuss Voigt Hill
#
# Bulk Modulus (GPa) = 51.37279 56.82947 54.10113
# Shear Modulus (GPa) = 22.90286 27.50911 25.20599
#
# Velocity S-wave (km/s) = 3.19097 3.49716 3.34757
# Velocity P-wave (km/s) = 6.03456 6.44766 6.24453
#
# Compressibility (1/GPa) = 0.01946556
#
# Stress axis : x y z
#
# Youngs Moduli (GPa) = 94.79398 69.18013 93.83802
#
# Poissons Ratio (x) = -0.04352 0.23784
# Poissons Ratio (y) = -0.05964 0.58106
# Poissons Ratio (z) = 0.24027 0.42837
#
# Static dielectric constant tensor:
#      x y z
#    x 1.976710 0.000000 0.000000 
#    y 0.000000 1.819700 0.000000 
#    z 0.000000 0.000000 1.871810 
# 
# From -- ./inp_files/28093.got.cif
#   From: 2010.05.17/outbox.cif.g08.bks.cpg/sg72_15_cif.got.tgz:28093.got - 2010.06.03 17:03:01.
