data_PCOD9526860
_publ_section_title
;
Structure prediction by ZEFSAII (Michael W. Deem and Ramdas Pophale) SiO2 
 PCOD9526860
Probable space group: I B A M
;
_chemical_formula_sum "Si O2"
_cell_formula_units_Z 80
_cell_length_a 8.920106
_cell_length_b 27.380652
_cell_length_c 15.202543
_cell_angle_alpha 90.000000
_cell_angle_beta 90.000000
_cell_angle_gamma 90.000000
_cell_volume 3713.043535
_symmetry_space_group_name_H-M "I B A M"
_symmetry_group_IT_number 72
_symmetry_cell_setting 'orthorhombic'
loop_
_space_group_symop_operation_xyz
x,y,z
-x,-y,z
x,-y,1/2-z
-x,y,1/2-z
-x,-y,-z
x,y,-z
-x,y,1/2+z
x,-y,1/2+z
1/2+x,1/2+y,1/2+z
1/2-x,1/2-y,1/2+z
1/2+x,1/2-y,-z
1/2-x,1/2+y,-z
1/2-x,1/2-y,1/2-z
1/2+x,1/2+y,1/2-z
1/2-x,1/2+y,z
1/2+x,1/2-y,z
loop_
_atom_site_type_symbol
_atom_site_label
_atom_site_fract_x
_atom_site_fract_y
_atom_site_fract_z
Si Si1 0.660019 0.413997 0.774592
Si Si2 0.530480 0.773189 0.104342
Si Si3 0.894376 0.546314 0.402366
Si Si4 0.402722 0.869030 0.161057
Si Si5 0.350467 0.681782 0.107257
O O1 0.500000 0.435137 0.750000
O O2 0.772334 0.449455 0.826148
O O3 0.745647 0.392103 0.689516
O O4 0.635432 0.368860 0.842104
O O5 0.405828 0.814510 0.124058
O O6 0.476939 0.720505 0.135842
O O7 0.690388 0.794187 0.133766
O O8 0.542279 0.768654 0.000000
O O9 0.826467 0.543439 0.500000
O O10 0.000000 0.500000 0.388341
O O11 0.000657 0.594129 0.398227
O O12 0.500000 0.866782 0.250000
O O13 0.351849 0.675638 0.000000
#
# Coordination Sequence:
#
# PCOD9526860 Si02
#       5
#    16  16  16  16  16
#     4  11  24  39  59  96 135 162 200 261 328 378
#     4  10  20  35  55  83 121 171 222 264 306 360
#     4  10  21  43  73  94 116 161 214 260 312 380
#     4  10  20  36  58  88 122 163 210 258 314 377
#     4  10  21  37  57  83 126 178 221 261 306 364
#
# _framework density 21.545667999999999
#
# number of rings (size 3 to 8) (size 9 to 14) (size 15 to 20)
#    0.000    1.800    4.000    1.200    2.800    5.200 
#    0.000    5.000    0.000    2.400    0.000    0.000 
#    0.000    0.000    0.000    0.000    0.000    0.000 
#
# Total GULP energy -223537.341380 kJ/mol
# GULP energy per Si atom -5588.433535 kJ/mol
# Density = 2.149663 g / cm^3
# Si number density = 21.545668 Si / 1000 Ang^3
#
#
#
# Elastic Constant Matrix: (Units=GPa)
#
#
# Indices 1 2 3 4 5 6 
#
# 1 72.0351 -4.0798 25.3567 0.0000 0.0000 0.0000
# 2 -4.0798 57.1707 16.0419 0.0000 0.0000 0.0000
# 3 25.3567 16.0419 43.8447 0.0001 -0.0001 0.0000
# 4 0.0000 0.0000 0.0001 56.3689 0.0000 0.0000
# 5 0.0000 0.0000 -0.0001 0.0000 17.5974 0.0000
# 6 0.0000 0.0000 0.0000 0.0000 0.0000 14.1940
#
#
#
# Elastic Compliance Matrix: (Units=1/GPa)
#
#
# Indices 1 2 3 4 5 6 
#
# 1 0.018555 0.004831 -0.012499 0.000000 0.000000 0.000000
# 2 0.004831 0.020751 -0.010386 0.000000 0.000000 0.000000
# 3 -0.012499 -0.010386 0.033836 0.000000 0.000000 0.000000
# 4 0.000000 0.000000 0.000000 0.017740 0.000000 0.000000
# 5 0.000000 0.000000 0.000000 0.000000 0.056827 0.000000
# 6 0.000000 0.000000 0.000000 0.000000 0.000000 0.070452
#
#
# Mechanical properties :
#
#
# Convention : Reuss Voigt Hill
#
# Bulk Modulus (GPa) = 27.00173 27.52090 27.26132
# Shear Modulus (GPa) = 18.75369 26.68083 22.71726
#
# Velocity S-wave (km/s) = 2.95348 3.52282 3.25064
# Velocity P-wave (km/s) = 4.91836 5.41738 5.17389
#
# Compressibility (1/GPa) = 0.03703466
#
# Stress axis : x y z
#
# Youngs Moduli (GPa) = 53.89270 48.19147 29.55400
#
# Poissons Ratio (x) = -0.23282 0.36939
# Poissons Ratio (y) = -0.26037 0.30696
# Poissons Ratio (z) = 0.67359 0.50053
#
# Static dielectric constant tensor:
#      x y z
#    x 1.809830 0.000000 0.000000 
#    y 0.000000 1.800260 0.000000 
#    z 0.000000 0.000000 1.782140 
# 
# From -- ./inp_files/28156.got.cif
#   From: 2010.05.17/outbox.cif.g08.bks.cpg/sg72_15_cif.got.tgz:28156.got - 2010.06.03 17:03:01.
