data_PCOD9526129
_publ_section_title
;
Structure prediction by ZEFSAII (Michael W. Deem and Ramdas Pophale) SiO2 
 PCOD9526129
Probable space group: I B A M
;
_chemical_formula_sum "Si O2"
_cell_formula_units_Z 112
_cell_length_a 10.342287
_cell_length_b 28.501365
_cell_length_c 17.079757
_cell_angle_alpha 90.000000
_cell_angle_beta 90.000000
_cell_angle_gamma 90.000000
_cell_volume 5034.587959
_symmetry_space_group_name_H-M "I B A M"
_symmetry_group_IT_number 72
_symmetry_cell_setting 'orthorhombic'
loop_
_space_group_symop_operation_xyz
x,y,z
-x,-y,z
x,-y,1/2-z
-x,y,1/2-z
-x,-y,-z
x,y,-z
-x,y,1/2+z
x,-y,1/2+z
1/2+x,1/2+y,1/2+z
1/2-x,1/2-y,1/2+z
1/2+x,1/2-y,-z
1/2-x,1/2+y,-z
1/2-x,1/2-y,1/2-z
1/2+x,1/2+y,1/2-z
1/2-x,1/2+y,z
1/2+x,1/2-y,z
loop_
_atom_site_type_symbol
_atom_site_label
_atom_site_fract_x
_atom_site_fract_y
_atom_site_fract_z
Si Si1 0.021383 0.888050 0.408112
Si Si2 0.752075 0.341493 0.584395
Si Si3 0.829575 0.957063 0.190610
Si Si4 0.645522 0.981636 0.586454
Si Si5 0.637361 0.102392 0.208214
Si Si6 0.113792 0.241186 0.348716
Si Si7 0.355242 0.296134 0.673012
O O1 0.061017 0.891835 0.500000
O O2 0.053123 0.933531 0.356152
O O3 0.093097 0.844294 0.364827
O O4 0.869304 0.877128 0.407802
O O5 0.816725 0.348093 0.500000
O O6 0.837461 0.350169 0.660715
O O7 0.681609 0.291642 0.587961
O O8 0.733377 0.979465 0.127144
O O9 0.750754 0.915445 0.234408
O O10 0.856773 0.000000 0.250000
O O11 0.694700 0.970650 0.500000
O O12 0.500000 0.000000 0.581782
O O13 0.638171 0.936764 0.641035
O O14 0.500000 0.102800 0.250000
O O15 0.204783 0.286528 0.344724
O O16 0.131883 0.212346 0.266475
O O17 0.959661 0.242282 0.360200
#
# Coordination Sequence:
#
# PCOD9526129 Si02
#       7
#    16  16  16  16  16  16  16
#     4  10  21  40  63  88 123 165 210 261 319 379
#     4  10  22  40  61  85 122 165 203 253 317 375
#     4  10  21  36  61  87 119 153 206 259 313 370
#     4  10  19  34  56  80 114 152 191 243 312 375
#     4  11  21  37  57  82 113 154 199 250 300 377
#     4   9  18  36  59  89 125 165 211 251 309 371
#     4   9  18  35  61  90 125 168 208 258 308 371
#
# _framework density 22.246110999999999
#
# number of rings (size 3 to 8) (size 9 to 14) (size 15 to 20)
#    0.000    2.143    1.429    1.714    0.000    2.286 
#    7.714    5.000    0.000    7.714    0.000    0.000 
#    0.000    0.000    0.000    0.000    0.000    0.000 
#
# Total GULP energy -312645.038614 kJ/mol
# GULP energy per Si atom -5582.947118 kJ/mol
# Density = 2.219548 g / cm^3
# Si number density = 22.246111 Si / 1000 Ang^3
#
#
#
# Elastic Constant Matrix: (Units=GPa)
#
#
# Indices 1 2 3 4 5 6 
#
# 1 50.3117 11.1637 26.4569 0.0000 -0.0001 0.0000
# 2 11.1637 43.5787 24.0544 0.0000 0.0001 0.0000
# 3 26.4569 24.0544 118.3625 0.0004 0.0007 0.0000
# 4 0.0000 0.0000 0.0004 25.9194 0.0004 0.0000
# 5 -0.0001 0.0001 0.0007 0.0004 -114.6867 -0.0001
# 6 0.0000 0.0000 0.0000 0.0000 -0.0001 33.7992
#
#
#
# Elastic Compliance Matrix: (Units=1/GPa)
#
#
# Indices 1 2 3 4 5 6 
#
# 1 0.022971 -0.003436 -0.004436 0.000000 0.000000 0.000000
# 2 -0.003436 0.026360 -0.004589 0.000000 0.000000 0.000000
# 3 -0.004436 -0.004589 0.010373 0.000000 0.000000 0.000000
# 4 0.000000 0.000000 0.000000 0.038581 0.000000 0.000000
# 5 0.000000 0.000000 0.000000 0.000000 -0.008719 0.000000
# 6 0.000000 0.000000 0.000000 0.000000 0.000000 0.029586
#
#
# Mechanical properties :
#
#
# Convention : Reuss Voigt Hill
#
# Bulk Modulus (GPa) = 28.75068 37.28921 33.01994
# Shear Modulus (GPa) = 32.11938 -0.95506 15.58216
#
# Velocity S-wave (km/s) = 3.80389 -0.65593 2.64946
# Velocity P-wave (km/s) = 5.67844 4.02801 4.92288
#
# Compressibility (1/GPa) = 0.03478179
#
# Stress axis : x y z
#
# Youngs Moduli (GPa) = 43.53241 37.93598 96.40512
#
# Poissons Ratio (x) = 0.13034 0.42769
# Poissons Ratio (y) = 0.14957 0.44241
# Poissons Ratio (z) = 0.19313 0.17409
#
# Static dielectric constant tensor:
#      x y z
#    x 1.825390 0.000000 0.000000 
#    y 0.000000 1.849970 0.000000 
#    z 0.000000 0.000000 1.840220 
# 
# From -- ./inp_files/20666.got.cif
#   From: 2010.05.17/outbox.cif.g08.bks.cpg/sg72_11_cif.got.tgz:20666.got - 2010.06.03 17:03:01.
