data_PCOD9526775
_publ_section_title
;
Structure prediction by ZEFSAII (Michael W. Deem and Ramdas Pophale) SiO2 
 PCOD9526775
Probable space group: I B A M
;
_chemical_formula_sum "Si O2"
_cell_formula_units_Z 64
_cell_length_a 9.655025
_cell_length_b 13.126966
_cell_length_c 24.228872
_cell_angle_alpha 90.000000
_cell_angle_beta 90.000000
_cell_angle_gamma 90.000000
_cell_volume 3070.795946
_symmetry_space_group_name_H-M "I B A M"
_symmetry_group_IT_number 72
_symmetry_cell_setting 'orthorhombic'
loop_
_space_group_symop_operation_xyz
x,y,z
-x,-y,z
x,-y,1/2-z
-x,y,1/2-z
-x,-y,-z
x,y,-z
-x,y,1/2+z
x,-y,1/2+z
1/2+x,1/2+y,1/2+z
1/2-x,1/2-y,1/2+z
1/2+x,1/2-y,-z
1/2-x,1/2+y,-z
1/2-x,1/2-y,1/2-z
1/2+x,1/2+y,1/2-z
1/2-x,1/2+y,z
1/2+x,1/2-y,z
loop_
_atom_site_type_symbol
_atom_site_label
_atom_site_fract_x
_atom_site_fract_y
_atom_site_fract_z
Si Si1 0.348278 0.715650 0.616151
Si Si2 0.076421 0.599666 0.192487
Si Si3 0.375285 0.640512 0.936261
Si Si4 0.341460 0.494213 0.834702
O O1 0.418233 0.802974 0.653702
O O2 0.467289 0.672209 0.576493
O O3 0.224560 0.767426 0.582657
O O4 0.301002 0.622916 0.655565
O O5 0.234492 0.561647 0.199844
O O6 0.000000 0.500000 0.167390
O O7 0.000000 0.620526 0.250000
O O8 0.340521 0.548060 0.895068
O O9 0.355376 0.615419 0.000000
O O10 0.500000 0.500000 0.815036
#
# Coordination Sequence:
#
# PCOD9526775 Si02
#       4
#    16  16  16  16
#     4  10  20  37  60  85 117 152 190 235 283 337
#     4  10  21  40  61  83 113 149 189 237 287 334
#     4  10  20  34  57  87 118 154 192 232 281 337
#     4   9  20  38  57  82 116 152 191 237 282 336
#
# _framework density 20.8415
#
# number of rings (size 3 to 8) (size 9 to 14) (size 15 to 20)
#    0.000    2.250    0.000    2.250    0.000    5.500 
#    0.000   33.750    0.000    9.750    0.000    0.000 
#    0.000    0.000    0.000    0.000    0.000    0.000 
#
# Total GULP energy -178792.984767 kJ/mol
# GULP energy per Si atom -5587.280774 kJ/mol
# Density = 2.079406 g / cm^3
# Si number density = 20.841500 Si / 1000 Ang^3
#
#
#
# Elastic Constant Matrix: (Units=GPa)
#
#
# Indices 1 2 3 4 5 6 
#
# 1 89.1084 0.9793 23.1443 0.0000 0.0000 0.0000
# 2 0.9793 79.6972 14.0912 0.0000 0.0000 0.0000
# 3 23.1443 14.0912 102.1672 0.0000 0.0000 0.0000
# 4 0.0000 0.0000 0.0000 17.2335 0.0000 0.0000
# 5 0.0000 0.0000 0.0000 0.0000 17.9443 0.0000
# 6 0.0000 0.0000 0.0000 0.0000 0.0000 24.1266
#
#
#
# Elastic Compliance Matrix: (Units=1/GPa)
#
#
# Indices 1 2 3 4 5 6 
#
# 1 0.011933 0.000340 -0.002750 0.000000 0.000000 0.000000
# 2 0.000340 0.012871 -0.001852 0.000000 0.000000 0.000000
# 3 -0.002750 -0.001852 0.010666 0.000000 0.000000 0.000000
# 4 0.000000 0.000000 0.000000 0.058026 0.000000 0.000000
# 5 0.000000 0.000000 0.000000 0.000000 0.055728 0.000000
# 6 0.000000 0.000000 0.000000 0.000000 0.000000 0.041448
#
#
# Mechanical properties :
#
#
# Convention : Reuss Voigt Hill
#
# Bulk Modulus (GPa) = 37.11284 38.60027 37.85656
# Shear Modulus (GPa) = 24.01777 27.37807 25.69792
#
# Velocity S-wave (km/s) = 3.39839 3.62834 3.51524
# Velocity P-wave (km/s) = 5.76581 6.00951 5.88892
#
# Compressibility (1/GPa) = 0.02694485
#
# Stress axis : x y z
#
# Youngs Moduli (GPa) = 83.80248 77.69530 93.75320
#
# Poissons Ratio (x) = -0.02639 0.25782
# Poissons Ratio (y) = -0.02846 0.17364
# Poissons Ratio (z) = 0.23046 0.14390
#
# Static dielectric constant tensor:
#      x y z
#    x 1.788260 0.000000 0.000000 
#    y 0.000000 1.738900 0.000000 
#    z 0.000000 0.000000 1.744160 
# 
# From -- ./inp_files/41906.got.cif
#   From: 2010.05.17/outbox.cif.g08.bks.cpg/sg72_21_cif.got.tgz:41906.got - 2010.06.03 17:03:01.
