data_PCOD9526229
_publ_section_title
;
Structure prediction by ZEFSAII (Michael W. Deem and Ramdas Pophale) SiO2 
 PCOD9526229
Probable space group: I B A M
;
_chemical_formula_sum "Si O2"
_cell_formula_units_Z 88
_cell_length_a 9.105758
_cell_length_b 30.017620
_cell_length_c 14.721744
_cell_angle_alpha 90.000000
_cell_angle_beta 90.000000
_cell_angle_gamma 90.000000
_cell_volume 4023.941154
_symmetry_space_group_name_H-M "I B A M"
_symmetry_group_IT_number 72
_symmetry_cell_setting 'orthorhombic'
loop_
_space_group_symop_operation_xyz
x,y,z
-x,-y,z
x,-y,1/2-z
-x,y,1/2-z
-x,-y,-z
x,y,-z
-x,y,1/2+z
x,-y,1/2+z
1/2+x,1/2+y,1/2+z
1/2-x,1/2-y,1/2+z
1/2+x,1/2-y,-z
1/2-x,1/2+y,-z
1/2-x,1/2-y,1/2-z
1/2+x,1/2+y,1/2-z
1/2-x,1/2+y,z
1/2+x,1/2-y,z
loop_
_atom_site_type_symbol
_atom_site_label
_atom_site_fract_x
_atom_site_fract_y
_atom_site_fract_z
Si Si1 0.283398 0.472449 0.890934
Si Si2 0.724868 0.148063 0.601459
Si Si3 0.500000 0.259850 0.250000
Si Si4 0.902621 0.063667 0.610672
Si Si5 0.931674 0.395387 0.650927
Si Si6 0.727286 0.809587 0.705883
O O1 0.433331 0.448340 0.858703
O O2 0.295150 0.523525 0.857982
O O3 0.145153 0.441654 0.871729
O O4 0.293957 0.474945 0.000000
O O5 0.760504 0.164933 0.500000
O O6 0.843987 0.111822 0.635068
O O7 0.571251 0.121240 0.594734
O O8 0.712620 0.181781 0.684979
O O9 0.396059 0.227934 0.310476
O O10 0.389163 0.290429 0.192368
O O11 0.902577 0.063458 0.500000
O O12 0.813881 0.354977 0.654842
O O13 0.000000 0.399102 0.750000
#
# Coordination Sequence:
#
# PCOD9526229 Si02
#       6
#    16  16   8  16  16  16
#     4   9  17  33  55  79 108 147 187 222 259 313
#     4  10  19  35  55  81 115 142 175 225 267 315
#     4  10  20  40  64  72 104 138 176 216 274 342
#     4   8  17  32  53  80 110 144 182 218 265 317
#     4  10  20  35  51  82 110 142 186 219 265 322
#     4  10  21  38  59  82 101 142 178 217 273 335
#
# _framework density 21.869105999999999
#
# number of rings (size 3 to 8) (size 9 to 14) (size 15 to 20)
#    0.000    2.545    2.727    1.636    2.545    0.727 
#    0.000   10.000    0.000    8.727    0.000    0.000 
#    0.000    0.000    0.000    0.000    0.000    0.000 
#
# Total GULP energy -245500.392402 kJ/mol
# GULP energy per Si atom -5579.554373 kJ/mol
# Density = 2.181933 g / cm^3
# Si number density = 21.869106 Si / 1000 Ang^3
#
#
#
# Elastic Constant Matrix: (Units=GPa)
#
#
# Indices 1 2 3 4 5 6 
#
# 1 62.5351 17.6136 -5.8115 0.0000 0.0000 0.0000
# 2 17.6136 38.3079 -0.9991 0.0000 0.0000 0.0000
# 3 -5.8115 -0.9991 45.6963 -0.0002 0.0000 0.0000
# 4 0.0000 0.0000 -0.0002 5.6277 0.0000 0.0000
# 5 0.0000 0.0000 0.0000 0.0000 5.3374 0.0000
# 6 0.0000 0.0000 0.0000 0.0000 0.0000 44.5053
#
#
#
# Elastic Compliance Matrix: (Units=1/GPa)
#
#
# Indices 1 2 3 4 5 6 
#
# 1 0.018584 -0.008488 0.002178 0.000000 0.000000 0.000000
# 2 -0.008488 0.029996 -0.000424 0.000000 0.000000 0.000000
# 3 0.002178 -0.000424 0.022151 0.000001 0.000000 0.000000
# 4 0.000000 0.000000 0.000001 0.177693 0.000000 0.000000
# 5 0.000000 0.000000 0.000000 0.000000 0.187355 0.000000
# 6 0.000000 0.000000 0.000000 0.000000 0.000000 0.022469
#
#
# Mechanical properties :
#
#
# Convention : Reuss Voigt Hill
#
# Bulk Modulus (GPa) = 17.46302 18.68281 18.07292
# Shear Modulus (GPa) = 10.18736 20.14316 15.16526
#
# Velocity S-wave (km/s) = 2.16066 3.03822 2.63621
# Velocity P-wave (km/s) = 3.77189 4.56829 4.18906
#
# Compressibility (1/GPa) = 0.05726387
#
# Stress axis : x y z
#
# Youngs Moduli (GPa) = 53.80928 33.33783 45.14399
#
# Poissons Ratio (x) = 0.28297 -0.09832
# Poissons Ratio (y) = 0.45673 0.01913
# Poissons Ratio (z) = -0.11719 0.01412
#
# Static dielectric constant tensor:
#      x y z
#    x 1.829060 0.000000 0.000000 
#    y 0.000000 1.811130 0.000000 
#    z 0.000000 0.000000 1.843400 
# 
# From -- ./inp_files/28355.got.cif
#   From: 2010.05.17/outbox.cif.g08.bks.cpg/sg72_15_cif.got.tgz:28355.got - 2010.06.03 17:03:01.
