data_PCOD9526957
_publ_section_title
;
Structure prediction by ZEFSAII (Michael W. Deem and Ramdas Pophale) SiO2 
 PCOD9526957
Probable space group: I B A M
;
_chemical_formula_sum "Si O2"
_cell_formula_units_Z 112
_cell_length_a 15.093580
_cell_length_b 13.783498
_cell_length_c 26.581659
_cell_angle_alpha 90.000000
_cell_angle_beta 90.000000
_cell_angle_gamma 90.000000
_cell_volume 5530.110267
_symmetry_space_group_name_H-M "I B A M"
_symmetry_group_IT_number 72
_symmetry_cell_setting 'orthorhombic'
loop_
_space_group_symop_operation_xyz
x,y,z
-x,-y,z
x,-y,1/2-z
-x,y,1/2-z
-x,-y,-z
x,y,-z
-x,y,1/2+z
x,-y,1/2+z
1/2+x,1/2+y,1/2+z
1/2-x,1/2-y,1/2+z
1/2+x,1/2-y,-z
1/2-x,1/2+y,-z
1/2-x,1/2-y,1/2-z
1/2+x,1/2+y,1/2-z
1/2-x,1/2+y,z
1/2+x,1/2-y,z
loop_
_atom_site_type_symbol
_atom_site_label
_atom_site_fract_x
_atom_site_fract_y
_atom_site_fract_z
Si Si1 0.843501 0.350938 0.652940
Si Si2 0.646328 0.477177 0.000000
Si Si3 0.844879 0.057167 0.386068
Si Si4 0.358385 0.350366 0.844335
Si Si5 0.018273 0.766279 0.396346
Si Si6 0.528646 0.659350 0.000000
Si Si7 0.698573 0.949934 0.801740
Si Si8 0.105616 0.263504 0.744434
O O1 0.741783 0.337699 0.636140
O O2 0.918149 0.323810 0.613282
O O3 0.853983 0.460305 0.672987
O O4 0.857214 0.278434 0.699794
O O5 0.687669 0.456405 0.944473
O O6 0.612685 0.588270 0.000000
O O7 0.557589 0.410841 0.000000
O O8 0.918358 0.140524 0.387121
O O9 0.769947 0.078200 0.344321
O O10 0.885021 0.955112 0.366123
O O11 0.433160 0.275138 0.861088
O O12 0.358405 0.331436 0.784416
O O13 0.978720 0.775639 0.451320
O O14 0.640965 0.858277 0.785193
O O15 0.734394 0.000000 0.750000
O O16 0.000000 0.260774 0.750000
#
# Coordination Sequence:
#
# PCOD9526957 Si02
#       8
#    16   8  16  16  16   8  16  16
#     4  10  22  38  57  83 119 151 199 246 292 351
#     4   9  16  32  57  85 114 158 197 231 283 371
#     4  10  20  35  60  88 123 156 190 245 309 360
#     4  11  21  35  56  86 118 152 193 242 298 355
#     4  11  20  37  58  86 117 155 191 241 304 357
#     4   9  18  32  57  85 115 150 193 237 283 361
#     4   9  21  39  59  85 116 158 203 255 292 347
#     4  11  21  39  60  83 113 160 205 241 289 354
#
# _framework density 20.252762000000001
#
# number of rings (size 3 to 8) (size 9 to 14) (size 15 to 20)
#    0.000    1.857    2.857    1.714    0.000    4.857 
#    0.000    3.571    0.000    1.714    0.000    1.000 
#    0.000    0.000    0.000    0.000    0.000    0.000 
#
# Total GULP energy -312312.539615 kJ/mol
# GULP energy per Si atom -5577.009636 kJ/mol
# Density = 2.020667 g / cm^3
# Si number density = 20.252762 Si / 1000 Ang^3
#
#
#
# Elastic Constant Matrix: (Units=GPa)
#
#
# Indices 1 2 3 4 5 6 
#
# 1 65.5021 21.2932 12.5710 0.0000 0.0000 0.0000
# 2 21.2932 63.0356 32.1128 0.0000 0.0000 0.0000
# 3 12.5710 32.1128 81.3618 0.0000 0.0000 0.0000
# 4 0.0000 0.0000 0.0000 22.5973 0.0000 0.0000
# 5 0.0000 0.0000 0.0000 0.0000 16.7902 0.0000
# 6 0.0000 0.0000 0.0000 0.0000 0.0000 19.4979
#
#
#
# Elastic Compliance Matrix: (Units=1/GPa)
#
#
# Indices 1 2 3 4 5 6 
#
# 1 0.017163 -0.005566 -0.000455 0.000000 0.000000 0.000000
# 2 -0.005566 0.021662 -0.007690 0.000000 0.000000 0.000000
# 3 -0.000455 -0.007690 0.015396 0.000000 0.000000 0.000000
# 4 0.000000 0.000000 0.000000 0.044253 0.000000 0.000000
# 5 0.000000 0.000000 0.000000 0.000000 0.059559 0.000000
# 6 0.000000 0.000000 0.000000 0.000000 0.000000 0.051288
#
#
# Mechanical properties :
#
#
# Convention : Reuss Voigt Hill
#
# Bulk Modulus (GPa) = 37.31367 37.98374 37.64871
# Shear Modulus (GPa) = 20.35209 21.37190 20.86200
#
# Velocity S-wave (km/s) = 3.17346 3.25200 3.21297
# Velocity P-wave (km/s) = 5.64728 5.73552 5.69157
#
# Compressibility (1/GPa) = 0.02679983
#
# Stress axis : x y z
#
# Youngs Moduli (GPa) = 58.26365 46.16461 64.95129
#
# Poissons Ratio (x) = 0.25695 0.02956
# Poissons Ratio (y) = 0.32429 0.49946
# Poissons Ratio (z) = 0.02651 0.35499
#
# Static dielectric constant tensor:
#      x y z
#    x 1.716170 0.000000 0.000000 
#    y 0.000000 1.747020 0.000000 
#    z 0.000000 0.000000 1.817220 
# 
# From -- ./inp_files/48758.got.cif
#   From: 2010.05.17/outbox.cif.g08.bks.cpg/sg72_25_cif.got.tgz:48758.got - 2010.06.03 17:03:01.
