data_PCOD9526420
_publ_section_title
;
Structure prediction by ZEFSAII (Michael W. Deem and Ramdas Pophale) SiO2 
 PCOD9526420
Probable space group: I B A M
;
_chemical_formula_sum "Si O2"
_cell_formula_units_Z 68
_cell_length_a 9.619322
_cell_length_b 18.464854
_cell_length_c 18.521999
_cell_angle_alpha 90.000000
_cell_angle_beta 90.000000
_cell_angle_gamma 90.000000
_cell_volume 3289.865910
_symmetry_space_group_name_H-M "I B A M"
_symmetry_group_IT_number 72
_symmetry_cell_setting 'orthorhombic'
loop_
_space_group_symop_operation_xyz
x,y,z
-x,-y,z
x,-y,1/2-z
-x,y,1/2-z
-x,-y,-z
x,y,-z
-x,y,1/2+z
x,-y,1/2+z
1/2+x,1/2+y,1/2+z
1/2-x,1/2-y,1/2+z
1/2+x,1/2-y,-z
1/2-x,1/2+y,-z
1/2-x,1/2-y,1/2-z
1/2+x,1/2+y,1/2-z
1/2-x,1/2+y,z
1/2+x,1/2-y,z
loop_
_atom_site_type_symbol
_atom_site_label
_atom_site_fract_x
_atom_site_fract_y
_atom_site_fract_z
Si Si1 0.774387 0.816193 0.913915
Si Si2 0.505850 0.777768 0.669058
Si Si3 0.663512 0.515391 0.583194
Si Si4 0.089044 0.436070 0.144097
Si Si5 0.500000 0.000000 0.500000
O O1 0.643330 0.790924 0.867045
O O2 0.904743 0.771336 0.884398
O O3 0.804465 0.901254 0.901250
O O4 0.754936 0.805520 0.000000
O O5 0.500000 0.746328 0.750000
O O6 0.576916 0.856982 0.675817
O O7 0.500000 0.500000 0.585365
O O8 0.716592 0.503112 0.500000
O O9 0.753856 0.463496 0.633350
O O10 0.000000 0.500000 0.179676
O O11 0.019727 0.438327 0.064089
#
# Coordination Sequence:
#
# PCOD9526420 Si02
#       5
#    16  16  16  16   4
#     4  11  25  44  70 101 131 180 237 281 328 415
#     4  12  27  45  67  96 145 180 221 280 361 414
#     4  10  20  37  62  98 132 163 221 293 337 374
#     4  10  19  37  67  89 125 171 223 280 330 389
#     4   8  16  32  60  96 124 152 230 294 310 372
#
# _framework density 20.669533999999999
#
# number of rings (size 3 to 8) (size 9 to 14) (size 15 to 20)
#    0.706    0.706    3.529    1.412    9.882    0.471 
#    0.000    0.000    0.000    0.000    0.000    0.000 
#    0.000    0.000    0.000    0.000    0.000    0.000 
#
# Total GULP energy -189411.559278 kJ/mol
# GULP energy per Si atom -5570.928214 kJ/mol
# Density = 2.062249 g / cm^3
# Si number density = 20.669534 Si / 1000 Ang^3
#
#
#
# Elastic Constant Matrix: (Units=GPa)
#
#
# Indices 1 2 3 4 5 6 
#
# 1 94.6338 23.1609 25.7907 0.0000 0.0000 0.0000
# 2 23.1609 27.3009 1.5887 0.0000 0.0000 0.0000
# 3 25.7907 1.5887 112.7741 0.0000 0.0000 0.0000
# 4 0.0000 0.0000 0.0000 96.0725 0.0000 0.0000
# 5 0.0000 0.0000 0.0000 0.0000-1303.0263 0.0000
# 6 0.0000 0.0000 0.0000 0.0000 0.0000 39.7119
#
#
#
# Elastic Compliance Matrix: (Units=1/GPa)
#
#
# Indices 1 2 3 4 5 6 
#
# 1 0.014351 -0.011993 -0.003113 0.000000 0.000000 0.000000
# 2 -0.011993 0.046682 0.002085 0.000000 0.000000 0.000000
# 3 -0.003113 0.002085 0.009550 0.000000 0.000000 0.000000
# 4 0.000000 0.000000 0.000000 0.010409 0.000000 0.000000
# 5 0.000000 0.000000 0.000000 0.000000 -0.000767 0.000000
# 6 0.000000 0.000000 0.000000 0.000000 0.000000 0.025181
#
#
# Mechanical properties :
#
#
# Convention : Reuss Voigt Hill
#
# Bulk Modulus (GPa) = 22.45157 37.30994 29.88076
# Shear Modulus (GPa) = 34.17766 -221.17047 -93.49641
#
# Velocity S-wave (km/s) = 4.07077 -10.35545 -6.73291
# Velocity P-wave (km/s) = 5.74288 11.17545 6.77901
#
# Compressibility (1/GPa) = 0.04454031
#
# Stress axis : x y z
#
# Youngs Moduli (GPa) = 69.68296 21.42150 104.71402
#
# Poissons Ratio (x) = 0.25692 0.32597
# Poissons Ratio (y) = 0.83573 -0.21835
# Poissons Ratio (z) = 0.21692 -0.04467
#
# Static dielectric constant tensor:
#      x y z
#    x 0.842720 0.000000 0.000000 
#    y 0.000000 1.732580 0.000000 
#    z 0.000000 0.000000 17.144570 
# 
# From -- ./inp_files/27805.got.cif
#   From: 2010.05.17/outbox.cif.g08.bks.cpg/sg72_14_cif.got.tgz:27805.got - 2010.06.03 17:03:01.
