data_PCOD9526275
_publ_section_title
;
Structure prediction by ZEFSAII (Michael W. Deem and Ramdas Pophale) SiO2 
 PCOD9526275
Probable space group: I B A M
;
_chemical_formula_sum "Si O2"
_cell_formula_units_Z 72
_cell_length_a 9.076003
_cell_length_b 24.321222
_cell_length_c 14.819331
_cell_angle_alpha 90.000000
_cell_angle_beta 90.000000
_cell_angle_gamma 90.000000
_cell_volume 3271.211476
_symmetry_space_group_name_H-M "I B A M"
_symmetry_group_IT_number 72
_symmetry_cell_setting 'orthorhombic'
loop_
_space_group_symop_operation_xyz
x,y,z
-x,-y,z
x,-y,1/2-z
-x,y,1/2-z
-x,-y,-z
x,y,-z
-x,y,1/2+z
x,-y,1/2+z
1/2+x,1/2+y,1/2+z
1/2-x,1/2-y,1/2+z
1/2+x,1/2-y,-z
1/2-x,1/2+y,-z
1/2-x,1/2-y,1/2-z
1/2+x,1/2+y,1/2-z
1/2-x,1/2+y,z
1/2+x,1/2-y,z
loop_
_atom_site_type_symbol
_atom_site_label
_atom_site_fract_x
_atom_site_fract_y
_atom_site_fract_z
Si Si1 0.745057 0.500000 0.750000
Si Si2 0.057226 0.903858 0.842054
Si Si3 0.746812 0.196441 0.893858
Si Si4 0.729139 0.080854 0.602570
Si Si5 0.584752 0.196039 0.610586
O O1 0.645352 0.457508 0.691785
O O2 0.825863 0.462937 0.824007
O O3 0.163662 0.860107 0.887046
O O4 0.000000 0.876160 0.750000
O O5 0.908163 0.919292 0.894310
O O6 0.582571 0.191720 0.855705
O O7 0.837319 0.248347 0.857046
O O8 0.728423 0.208230 0.000000
O O9 0.680734 0.069769 0.500000
O O10 0.675762 0.141208 0.631434
O O11 0.581289 0.197745 0.500000
#
# Coordination Sequence:
#
# PCOD9526275 Si02
#       5
#     8  16  16  16  16
#     4  10  23  40  57  86 119 150 203 250 279 342
#     4  10  20  36  55  82 117 151 195 242 285 342
#     4  10  19  35  59  86 116 149 190 239 292 351
#     4  10  19  36  61  85 116 156 194 239 292 342
#     4   9  19  35  58  88 116 146 188 236 290 354
#
# _framework density 22.010195
#
# number of rings (size 3 to 8) (size 9 to 14) (size 15 to 20)
#    0.000    2.222    0.000    5.000    0.000    6.222 
#    0.000   16.667    0.000    4.000    0.000    0.000 
#    0.000    0.000    0.000    0.000    0.000    0.000 
#
# Total GULP energy -201025.212135 kJ/mol
# GULP energy per Si atom -5584.033670 kJ/mol
# Density = 2.196010 g / cm^3
# Si number density = 22.010195 Si / 1000 Ang^3
#
#
#
# Elastic Constant Matrix: (Units=GPa)
#
#
# Indices 1 2 3 4 5 6 
#
# 1 53.1485 39.3647 5.7317 0.0000 0.0000 0.0000
# 2 39.3647 151.3765 27.8099 0.0000 0.0000 0.0000
# 3 5.7317 27.8099 53.2930 -0.0001 0.0000 0.0000
# 4 0.0000 0.0000 -0.0001 27.8299 0.0000 0.0000
# 5 0.0000 0.0000 0.0000 0.0000 15.1063 0.0000
# 6 0.0000 0.0000 0.0000 0.0000 0.0000 14.3695
#
#
#
# Elastic Compliance Matrix: (Units=1/GPa)
#
#
# Indices 1 2 3 4 5 6 
#
# 1 0.023329 -0.006200 0.000726 0.000000 0.000000 0.000000
# 2 -0.006200 0.008954 -0.004006 0.000000 0.000000 0.000000
# 3 0.000726 -0.004006 0.020776 0.000000 0.000000 0.000000
# 4 0.000000 0.000000 0.000000 0.035933 0.000000 0.000000
# 5 0.000000 0.000000 0.000000 0.000000 0.066198 0.000000
# 6 0.000000 0.000000 0.000000 0.000000 0.000000 0.069592
#
#
# Mechanical properties :
#
#
# Convention : Reuss Voigt Hill
#
# Bulk Modulus (GPa) = 29.32494 44.84783 37.08639
# Shear Modulus (GPa) = 19.59957 23.78858 21.69407
#
# Velocity S-wave (km/s) = 2.98732 3.29112 3.14289
# Velocity P-wave (km/s) = 5.02504 5.90441 5.48239
#
# Compressibility (1/GPa) = 0.03410067
#
# Stress axis : x y z
#
# Youngs Moduli (GPa) = 42.86520 111.67897 48.13148
#
# Poissons Ratio (x) = 0.69241 -0.03496
# Poissons Ratio (y) = 0.26576 0.19280
# Poissons Ratio (z) = -0.03113 0.44736
#
# Static dielectric constant tensor:
#      x y z
#    x 1.809570 0.000000 0.000000 
#    y 0.000000 1.760610 0.000000 
#    z 0.000000 0.000000 1.865870 
# 
# From -- ./inp_files/18886.got.cif
#   From: 2010.05.17/outbox.cif.g08.bks.cpg/sg72_10_cif.got.tgz:18886.got - 2010.06.03 17:03:01.
