data_PCOD9526099
_publ_section_title
;
Structure prediction by ZEFSAII (Michael W. Deem and Ramdas Pophale) SiO2 
 PCOD9526099
Probable space group: I B A M
;
_chemical_formula_sum "Si O2"
_cell_formula_units_Z 72
_cell_length_a 24.999800
_cell_length_b 5.193079
_cell_length_c 30.888872
_cell_angle_alpha 90.000000
_cell_angle_beta 90.000000
_cell_angle_gamma 90.000000
_cell_volume 4010.176731
_symmetry_space_group_name_H-M "I B A M"
_symmetry_group_IT_number 72
_symmetry_cell_setting 'orthorhombic'
loop_
_space_group_symop_operation_xyz
x,y,z
-x,-y,z
x,-y,1/2-z
-x,y,1/2-z
-x,-y,-z
x,y,-z
-x,y,1/2+z
x,-y,1/2+z
1/2+x,1/2+y,1/2+z
1/2-x,1/2-y,1/2+z
1/2+x,1/2-y,-z
1/2-x,1/2+y,-z
1/2-x,1/2-y,1/2-z
1/2+x,1/2+y,1/2-z
1/2-x,1/2+y,z
1/2+x,1/2-y,z
loop_
_atom_site_type_symbol
_atom_site_label
_atom_site_fract_x
_atom_site_fract_y
_atom_site_fract_z
Si Si1 0.942379 0.873194 0.370744
Si Si2 0.715803 0.999959 0.948420
Si Si3 0.439472 0.747283 0.730333
Si Si4 0.537459 0.250366 0.000000
Si Si5 0.898516 0.356673 0.586781
O O1 0.942521 0.781467 0.320910
O O2 0.929122 0.615352 0.397503
O O3 0.903315 0.113880 0.380673
O O4 0.000000 0.000000 0.380712
O O5 0.759822 0.219739 0.939418
O O6 0.662050 0.061996 0.922776
O O7 0.703733 0.012660 0.000000
O O8 0.411545 0.500000 0.750000
O O9 0.500000 0.748380 0.750000
O O10 0.413584 0.000000 0.750000
O O11 0.500000 0.500000 0.000000
O O12 0.574266 0.240781 0.042465
O O13 0.500000 0.000000 0.000000
#
# Coordination Sequence:
#
# PCOD9526099 Si02
#       5
#    16  16  16   8  16
#     4  12  23  36  56  86 123 163 191 233 282 341
#     4  10  21  40  64  82 106 148 202 266 310 330
#     4  10  19  34  54  76 111 155 191 232 275 326
#     4  12  24  40  50  74 120 170 194 220 261 334
#     4  12  24  38  57  85 118 153 212 237 281 358
#
# _framework density 17.954321
#
# number of rings (size 3 to 8) (size 9 to 14) (size 15 to 20)
#    0.000    0.889    3.333    6.667    3.111    0.000 
#    0.000    0.000    0.000    0.000    0.000    0.000 
#    0.000   62.222    0.000    0.000    0.000    0.000 
#
# Total GULP energy -201026.823432 kJ/mol
# GULP energy per Si atom -5584.078429 kJ/mol
# Density = 1.791346 g / cm^3
# Si number density = 17.954321 Si / 1000 Ang^3
#
#
#
# Elastic Constant Matrix: (Units=GPa)
#
#
# Indices 1 2 3 4 5 6 
#
# 1 41.4715 4.4664 30.5917 0.0000 0.0000 0.0000
# 2 4.4664 139.9203 36.5025 0.0000 0.0000 0.0000
# 3 30.5917 36.5025 96.6652 0.0000 0.0000 0.0000
# 4 0.0000 0.0000 0.0000 34.9120 0.0000 0.0000
# 5 0.0000 0.0000 0.0000 0.0000 7.9264 0.0000
# 6 0.0000 0.0000 0.0000 0.0000 0.0000 17.1145
#
#
#
# Elastic Compliance Matrix: (Units=1/GPa)
#
#
# Indices 1 2 3 4 5 6 
#
# 1 0.031855 0.001789 -0.010757 0.000000 0.000000 0.000000
# 2 0.001789 0.008028 -0.003598 0.000000 0.000000 0.000000
# 3 -0.010757 -0.003598 0.015108 0.000000 0.000000 0.000000
# 4 0.000000 0.000000 0.000000 0.028643 0.000000 0.000000
# 5 0.000000 0.000000 0.000000 0.000000 0.126160 0.000000
# 6 0.000000 0.000000 0.000000 0.000000 0.000000 0.058430
#
#
# Mechanical properties :
#
#
# Convention : Reuss Voigt Hill
#
# Bulk Modulus (GPa) = 33.48903 46.79757 40.14330
# Shear Modulus (GPa) = 16.48481 25.75702 21.12091
#
# Velocity S-wave (km/s) = 3.03339 3.79170 3.43355
# Velocity P-wave (km/s) = 5.56430 6.72984 6.17463
#
# Compressibility (1/GPa) = 0.02986052
#
# Stress axis : x y z
#
# Youngs Moduli (GPa) = 31.39205 124.55701 66.19042
#
# Poissons Ratio (x) = -0.22289 0.71201
# Poissons Ratio (y) = -0.05617 0.23815
# Poissons Ratio (z) = 0.33768 0.44816
#
# Static dielectric constant tensor:
#      x y z
#    x 1.580270 0.000000 0.000000 
#    y 0.000000 1.633280 0.000000 
#    z 0.000000 0.000000 1.635060 
# 
# From -- ./inp_files/49590.got.cif
#   From: 2010.05.17/outbox.cif.g08.bks.cpg/sg72_25_cif.got.tgz:49590.got - 2010.06.03 17:03:01.
