data_PCOD9526055
_publ_section_title
;
Structure prediction by ZEFSAII (Michael W. Deem and Ramdas Pophale) SiO2 
 PCOD9526055
Probable space group: I B A M
;
_chemical_formula_sum "Si O2"
_cell_formula_units_Z 48
_cell_length_a 12.369552
_cell_length_b 11.502234
_cell_length_c 14.274149
_cell_angle_alpha 90.000000
_cell_angle_beta 90.000000
_cell_angle_gamma 90.000000
_cell_volume 2030.889971
_symmetry_space_group_name_H-M "I B A M"
_symmetry_group_IT_number 72
_symmetry_cell_setting 'orthorhombic'
loop_
_space_group_symop_operation_xyz
x,y,z
-x,-y,z
x,-y,1/2-z
-x,y,1/2-z
-x,-y,-z
x,y,-z
-x,y,1/2+z
x,-y,1/2+z
1/2+x,1/2+y,1/2+z
1/2-x,1/2-y,1/2+z
1/2+x,1/2-y,-z
1/2-x,1/2+y,-z
1/2-x,1/2-y,1/2-z
1/2+x,1/2+y,1/2-z
1/2-x,1/2+y,z
1/2+x,1/2-y,z
loop_
_atom_site_type_symbol
_atom_site_label
_atom_site_fract_x
_atom_site_fract_y
_atom_site_fract_z
Si Si1 0.635298 0.808974 0.220188
Si Si2 0.600920 0.432543 0.348597
Si Si3 0.654695 0.040977 0.895527
O O1 0.750000 0.750000 0.250000
O O2 0.573648 0.700297 0.175027
O O3 0.602700 0.875565 0.316249
O O4 0.646315 0.910268 0.143705
O O5 0.500000 0.500000 0.393036
O O6 0.619046 0.500000 0.250000
O O7 0.716366 0.435051 0.397674
O O8 0.611646 0.057026 0.000000
#
# Coordination Sequence:
#
# PCOD9526055 Si02
#       3
#    16  16  16
#     4   9  17  35  53  85 115 151 196 235 287 343
#     4  10  19  35  57  84 118 149 192 242 291 342
#     4  10  19  33  58  86 116 156 197 239 286 346
#
# _framework density 23.634958000000001
#
# number of rings (size 3 to 8) (size 9 to 14) (size 15 to 20)
#    0.000    2.333    6.667    0.000    0.000    6.000 
#    0.000    0.000    0.000   17.000    8.667    9.333 
#    0.000    0.000    0.000    0.000    0.000    0.000 
#
# Total GULP energy -134055.542390 kJ/mol
# GULP energy per Si atom -5585.647600 kJ/mol
# Density = 2.358116 g / cm^3
# Si number density = 23.634958 Si / 1000 Ang^3
#
#
#
# Elastic Constant Matrix: (Units=GPa)
#
#
# Indices 1 2 3 4 5 6 
#
# 1 106.1686 30.0154 -1.0768 0.0000 0.0000 0.0000
# 2 30.0154 233.1812 62.8120 0.0000 0.0000 0.0000
# 3 -1.0768 62.8120 167.3074 0.0000 0.0000 0.0000
# 4 0.0000 0.0000 0.0000 1.7604 0.0000 0.0000
# 5 0.0000 0.0000 0.0000 0.0000 9.6934 0.0000
# 6 0.0000 0.0000 0.0000 0.0000 0.0000 42.5165
#
#
#
# Elastic Compliance Matrix: (Units=1/GPa)
#
#
# Indices 1 2 3 4 5 6 
#
# 1 0.009828 -0.001426 0.000599 0.000000 0.000000 0.000000
# 2 -0.001426 0.004978 -0.001878 0.000000 0.000000 0.000000
# 3 0.000599 -0.001878 0.006686 0.000000 0.000000 0.000000
# 4 0.000000 0.000000 0.000000 0.568063 0.000000 0.000000
# 5 0.000000 0.000000 0.000000 0.000000 0.103163 0.000000
# 6 0.000000 0.000000 0.000000 0.000000 0.000000 0.023520
#
#
# Mechanical properties :
#
#
# Convention : Reuss Voigt Hill
#
# Bulk Modulus (GPa) = 62.18567 76.68427 69.43497
# Shear Modulus (GPa) = 6.87749 38.45450 22.66599
#
# Velocity S-wave (km/s) = 1.70769 4.03801 3.10014
# Velocity P-wave (km/s) = 5.50057 7.36589 6.50049
#
# Compressibility (1/GPa) = 0.01608088
#
# Stress axis : x y z
#
# Youngs Moduli (GPa) = 101.74685 200.88330 149.56722
#
# Poissons Ratio (x) = 0.28654 -0.08956
# Poissons Ratio (y) = 0.14513 0.28090
# Poissons Ratio (z) = -0.06092 0.37727
#
# Static dielectric constant tensor:
#      x y z
#    x 2.075040 0.000000 0.000000 
#    y 0.000000 1.841050 0.000000 
#    z 0.000000 0.000000 1.882300 
# 
# From -- ./inp_files/19268.got.cif
#   From: 2010.05.17/outbox.cif.g08.bks.cpg/sg72_10_cif.got.tgz:19268.got - 2010.06.03 17:03:01.
