data_PCOD9526216
_publ_section_title
;
Structure prediction by ZEFSAII (Michael W. Deem and Ramdas Pophale) SiO2 
 PCOD9526216
Probable space group: I B A M
;
_chemical_formula_sum "Si O2"
_cell_formula_units_Z 80
_cell_length_a 8.617006
_cell_length_b 13.626595
_cell_length_c 25.836687
_cell_angle_alpha 90.000000
_cell_angle_beta 90.000000
_cell_angle_gamma 90.000000
_cell_volume 3033.755437
_symmetry_space_group_name_H-M "I B A M"
_symmetry_group_IT_number 72
_symmetry_cell_setting 'orthorhombic'
loop_
_space_group_symop_operation_xyz
x,y,z
-x,-y,z
x,-y,1/2-z
-x,y,1/2-z
-x,-y,-z
x,y,-z
-x,y,1/2+z
x,-y,1/2+z
1/2+x,1/2+y,1/2+z
1/2-x,1/2-y,1/2+z
1/2+x,1/2-y,-z
1/2-x,1/2+y,-z
1/2-x,1/2-y,1/2-z
1/2+x,1/2+y,1/2-z
1/2-x,1/2+y,z
1/2+x,1/2-y,z
loop_
_atom_site_type_symbol
_atom_site_label
_atom_site_fract_x
_atom_site_fract_y
_atom_site_fract_z
Si Si1 0.382887 0.171185 0.794619
Si Si2 0.836285 0.904575 0.398922
Si Si3 0.655301 0.377610 0.941276
Si Si4 0.005755 0.615469 0.905208
Si Si5 0.342943 0.610153 0.283263
O O1 0.500000 0.197597 0.750000
O O2 0.461214 0.127088 0.844354
O O3 0.309647 0.277742 0.804784
O O4 0.274168 0.097277 0.764170
O O5 0.673340 0.851356 0.413531
O O6 0.834570 0.941335 0.338881
O O7 0.002105 0.849857 0.407285
O O8 0.838373 0.004043 0.432752
O O9 0.832922 0.345415 0.929545
O O10 0.617473 0.352393 0.000000
O O11 0.000000 0.500000 0.918707
O O12 0.500000 0.601366 0.250000
#
# Coordination Sequence:
#
# PCOD9526216 Si02
#       5
#    16  16  16  16  16
#     4  10  19  35  53  82 118 155 188 225 277 345
#     4  10  19  36  57  85 109 149 195 235 282 346
#     4  10  22  39  59  83 113 147 193 246 299 346
#     4  10  21  36  57  88 114 148 195 240 291 343
#     4  10  20  33  55  80 116 158 191 223 277 345
#
# _framework density 26.369956999999999
#
# number of rings (size 3 to 8) (size 9 to 14) (size 15 to 20)
#    0.000    2.000    2.000    2.400    0.000    4.800 
#    0.000    8.000    0.000    2.400    0.000    0.000 
#    0.000    0.000    0.000    0.000    0.000    0.000 
#
# Total GULP energy -223164.580159 kJ/mol
# GULP energy per Si atom -5579.114504 kJ/mol
# Density = 2.630994 g / cm^3
# Si number density = 26.369957 Si / 1000 Ang^3
#
#
#
# Elastic Constant Matrix: (Units=GPa)
#
#
# Indices 1 2 3 4 5 6 
#
# 1 225.6689 29.6448 43.3790 0.0000 0.0000 0.0000
# 2 29.6448 67.3169 -9.7417 0.0000 0.0000 0.0000
# 3 43.3790 -9.7417 110.4797 0.0000 0.0000 0.0000
# 4 0.0000 0.0000 0.0000 57.2455 0.0000 0.0000
# 5 0.0000 0.0000 0.0000 0.0000 29.7134 0.0000
# 6 0.0000 0.0000 0.0000 0.0000 0.0000 31.2593
#
#
#
# Elastic Compliance Matrix: (Units=1/GPa)
#
#
# Indices 1 2 3 4 5 6 
#
# 1 0.005214 -0.002626 -0.002279 0.000000 0.000000 0.000000
# 2 -0.002626 0.016370 0.002475 0.000000 0.000000 0.000000
# 3 -0.002279 0.002475 0.010164 0.000000 0.000000 0.000000
# 4 0.000000 0.000000 0.000000 0.017469 0.000000 0.000000
# 5 0.000000 0.000000 0.000000 0.000000 0.033655 0.000000
# 6 0.000000 0.000000 0.000000 0.000000 0.000000 0.031990
#
#
# Mechanical properties :
#
#
# Convention : Reuss Voigt Hill
#
# Bulk Modulus (GPa) = 37.19202 58.89218 48.04210
# Shear Modulus (GPa) = 38.85437 46.32255 42.58846
#
# Velocity S-wave (km/s) = 3.84270 4.19578 4.02311
# Velocity P-wave (km/s) = 5.81575 6.77158 6.31178
#
# Compressibility (1/GPa) = 0.02688749
#
# Stress axis : x y z
#
# Youngs Moduli (GPa) = 191.78040 61.08864 98.38242
#
# Poissons Ratio (x) = 0.16042 0.22420
# Poissons Ratio (y) = 0.50362 -0.24345
# Poissons Ratio (z) = 0.43705 -0.15116
#
# Static dielectric constant tensor:
#      x y z
#    x 2.209380 0.000000 0.000000 
#    y 0.000000 2.358220 0.000000 
#    z 0.000000 0.000000 1.943860 
# 
# From -- ./inp_files/47169.got.cif
#   From: 2010.05.17/outbox.cif.g08.bks.cpg/sg72_24_cif.got.tgz:47169.got - 2010.06.03 17:03:01.
