data_PCOD9526731
_publ_section_title
;
Structure prediction by ZEFSAII (Michael W. Deem and Ramdas Pophale) SiO2 
 PCOD9526731
Probable space group: I B A M
;
_chemical_formula_sum "Si O2"
_cell_formula_units_Z 64
_cell_length_a 14.581764
_cell_length_b 21.145146
_cell_length_c 10.282479
_cell_angle_alpha 90.000000
_cell_angle_beta 90.000000
_cell_angle_gamma 90.000000
_cell_volume 3170.433034
_symmetry_space_group_name_H-M "I B A M"
_symmetry_group_IT_number 72
_symmetry_cell_setting 'orthorhombic'
loop_
_space_group_symop_operation_xyz
x,y,z
-x,-y,z
x,-y,1/2-z
-x,y,1/2-z
-x,-y,-z
x,y,-z
-x,y,1/2+z
x,-y,1/2+z
1/2+x,1/2+y,1/2+z
1/2-x,1/2-y,1/2+z
1/2+x,1/2-y,-z
1/2-x,1/2+y,-z
1/2-x,1/2-y,1/2-z
1/2+x,1/2+y,1/2-z
1/2-x,1/2+y,z
1/2+x,1/2-y,z
loop_
_atom_site_type_symbol
_atom_site_label
_atom_site_fract_x
_atom_site_fract_y
_atom_site_fract_z
Si Si1 0.778188 0.055148 0.846773
Si Si2 0.068915 0.419567 0.863848
Si Si3 0.269356 0.666797 0.142708
Si Si4 0.602319 0.220682 0.781746
O O1 0.667652 0.048200 0.855117
O O2 0.790527 0.119795 0.763071
O O3 0.813990 0.000000 0.750000
O O4 0.809648 0.056439 0.000000
O O5 0.088983 0.344431 0.858965
O O6 0.000000 0.433424 0.750000
O O7 0.022958 0.433616 0.000000
O O8 0.340538 0.724493 0.149775
O O9 0.168330 0.697022 0.164403
O O10 0.273322 0.635660 0.000000
O O11 0.500000 0.243173 0.750000
#
# Coordination Sequence:
#
# PCOD9526731 Si02
#       4
#    16  16  16  16
#     4  10  21  36  52  71  99 136 178 222 269 318
#     4   9  18  31  48  73 104 136 171 211 257 315
#     4  10  20  34  55  82 110 142 182 223 264 314
#     4   9  19  33  53  81 114 146 175 213 263 319
#
# _framework density 20.186516999999998
#
# number of rings (size 3 to 8) (size 9 to 14) (size 15 to 20)
#    0.000    2.500    0.000    1.500    0.000   17.500 
#    0.000    2.500    0.000    0.750    0.000    3.500 
#    0.000    0.000    0.000    0.000    0.000    0.000 
#
# Total GULP energy -178235.735534 kJ/mol
# GULP energy per Si atom -5569.866735 kJ/mol
# Density = 2.014057 g / cm^3
# Si number density = 20.186517 Si / 1000 Ang^3
#
#
#
# Elastic Constant Matrix: (Units=GPa)
#
#
# Indices 1 2 3 4 5 6 
#
# 1 70.3924 24.7234 23.8526 0.0000 0.0000 0.0000
# 2 24.7234 86.6009 56.9647 0.0000 0.0000 0.0000
# 3 23.8526 56.9647 190.1696 0.0000 0.0000 0.0000
# 4 0.0000 0.0000 0.0000 16.5848 0.0000 0.0000
# 5 0.0000 0.0000 0.0000 0.0000 15.4104 0.0000
# 6 0.0000 0.0000 0.0000 0.0000 0.0000 14.8610
#
#
#
# Elastic Compliance Matrix: (Units=1/GPa)
#
#
# Indices 1 2 3 4 5 6 
#
# 1 0.015884 -0.004015 -0.000790 0.000000 0.000000 0.000000
# 2 -0.004015 0.015396 -0.004108 0.000000 0.000000 0.000000
# 3 -0.000790 -0.004108 0.006588 0.000000 0.000000 0.000000
# 4 0.000000 0.000000 0.000000 0.060296 0.000000 0.000000
# 5 0.000000 0.000000 0.000000 0.000000 0.064891 0.000000
# 6 0.000000 0.000000 0.000000 0.000000 0.000000 0.067290
#
#
# Mechanical properties :
#
#
# Convention : Reuss Voigt Hill
#
# Bulk Modulus (GPa) = 49.89559 62.02715 55.96137
# Shear Modulus (GPa) = 19.61926 25.47939 22.54933
#
# Velocity S-wave (km/s) = 3.12091 3.55660 3.34585
# Velocity P-wave (km/s) = 6.14473 6.90359 6.53519
#
# Compressibility (1/GPa) = 0.02004185
#
# Stress axis : x y z
#
# Youngs Moduli (GPa) = 62.95690 64.95272 151.78944
#
# Poissons Ratio (x) = 0.26081 0.11984
# Poissons Ratio (y) = 0.25279 0.62357
# Poissons Ratio (z) = 0.04971 0.26683
#
# Static dielectric constant tensor:
#      x y z
#    x 1.681500 0.000000 0.000000 
#    y 0.000000 1.735530 0.000000 
#    z 0.000000 0.000000 1.777790 
# 
# From -- ./inp_files/3435.got.cif
#   From: 2010.05.17/outbox.cif.g08.bks.cpg/sg72_2_cif.got.tgz:3435.got - 2010.06.03 17:03:01.
