data_PCOD9526946
_publ_section_title
;
Structure prediction by ZEFSAII (Michael W. Deem and Ramdas Pophale) SiO2 
 PCOD9526946
Probable space group: I B A M
;
_chemical_formula_sum "Si O2"
_cell_formula_units_Z 56
_cell_length_a 6.673158
_cell_length_b 19.812347
_cell_length_c 14.626968
_cell_angle_alpha 90.000000
_cell_angle_beta 90.000000
_cell_angle_gamma 90.000000
_cell_volume 1933.844924
_symmetry_space_group_name_H-M "I B A M"
_symmetry_group_IT_number 72
_symmetry_cell_setting 'orthorhombic'
loop_
_space_group_symop_operation_xyz
x,y,z
-x,-y,z
x,-y,1/2-z
-x,y,1/2-z
-x,-y,-z
x,y,-z
-x,y,1/2+z
x,-y,1/2+z
1/2+x,1/2+y,1/2+z
1/2-x,1/2-y,1/2+z
1/2+x,1/2-y,-z
1/2-x,1/2+y,-z
1/2-x,1/2-y,1/2-z
1/2+x,1/2+y,1/2-z
1/2-x,1/2+y,z
1/2+x,1/2-y,z
loop_
_atom_site_type_symbol
_atom_site_label
_atom_site_fract_x
_atom_site_fract_y
_atom_site_fract_z
Si Si1 0.648126 0.868927 0.899465
Si Si2 0.500000 0.767684 0.750000
Si Si3 0.726804 0.487161 0.358833
Si Si4 0.875662 0.837104 0.394868
O O1 0.525603 0.823112 0.831128
O O2 0.885133 0.852528 0.888301
O O3 0.641636 0.950149 0.892939
O O4 0.589770 0.848029 0.000000
O O5 0.644798 0.712714 0.807129
O O6 0.500000 0.500000 0.391727
O O7 0.732851 0.500000 0.250000
O O8 0.739617 0.408272 0.382310
O O9 0.842948 0.812220 0.500000
#
# Coordination Sequence:
#
# PCOD9526946 Si02
#       4
#    16   8  16  16
#     4  10  21  37  59  88 125 170 216 266 325 390
#     4  12  22  36  58  94 134 166 210 270 340 394
#     4   9  17  34  61  91 120 158 210 264 319 381
#     4  10  20  35  59  91 126 166 214 267 322 389
#
# _framework density 28.957854000000001
#
# number of rings (size 3 to 8) (size 9 to 14) (size 15 to 20)
#    0.000    2.000    0.000    6.000    0.000    3.429 
#    0.000    0.714    0.000    6.857    0.000    0.000 
#    0.000    0.000    0.000    0.000    0.000    0.000 
#
# Total GULP energy -156497.854607 kJ/mol
# GULP energy per Si atom -5589.209093 kJ/mol
# Density = 2.889194 g / cm^3
# Si number density = 28.957854 Si / 1000 Ang^3
#
#
#
# Elastic Constant Matrix: (Units=GPa)
#
#
# Indices 1 2 3 4 5 6 
#
# 1 155.5964 104.0714 44.7991 0.0000 0.0000 0.0000
# 2 104.0714 275.3468 145.1474 0.0000 0.0000 0.0000
# 3 44.7991 145.1474 307.4330 0.0001 0.0000 0.0000
# 4 0.0000 0.0000 0.0001 65.6717 0.0000 0.0000
# 5 0.0000 0.0000 0.0000 0.0000 30.5803 0.0000
# 6 0.0000 0.0000 0.0000 0.0000 0.0000 128.6959
#
#
#
# Elastic Compliance Matrix: (Units=1/GPa)
#
#
# Indices 1 2 3 4 5 6 
#
# 1 0.008634 -0.003462 0.000376 0.000000 0.000000 0.000000
# 2 -0.003462 0.006223 -0.002434 0.000000 0.000000 0.000000
# 3 0.000376 -0.002434 0.004347 0.000000 0.000000 0.000000
# 4 0.000000 0.000000 0.000000 0.015227 0.000000 0.000000
# 5 0.000000 0.000000 0.000000 0.000000 0.032701 0.000000
# 6 0.000000 0.000000 0.000000 0.000000 0.000000 0.007770
#
#
# Mechanical properties :
#
#
# Convention : Reuss Voigt Hill
#
# Bulk Modulus (GPa) = 122.46333 147.37913 134.92123
# Shear Modulus (GPa) = 56.39389 74.61348 65.50368
#
# Velocity S-wave (km/s) = 4.41778 5.08155 4.76125
# Velocity P-wave (km/s) = 8.27069 9.24307 8.77037
#
# Compressibility (1/GPa) = 0.00816571
#
# Stress axis : x y z
#
# Youngs Moduli (GPa) = 115.82274 160.69357 230.04872
#
# Poissons Ratio (x) = 0.55626 -0.08654
# Poissons Ratio (y) = 0.40093 0.55985
# Poissons Ratio (z) = -0.04357 0.39107
#
# Static dielectric constant tensor:
#      x y z
#    x -20.415720 0.000000 0.000000 
#    y 0.000000 2.181060 0.000000 
#    z 0.000000 0.000000 2.127770 
# 
# From -- ./inp_files/18401.got.cif
#   From: 2010.05.17/outbox.cif.g08.bks.cpg/sg72_10_cif.got.tgz:18401.got - 2010.06.03 17:03:01.
