data_PCOD9526524
_publ_section_title
;
Structure prediction by ZEFSAII (Michael W. Deem and Ramdas Pophale) SiO2 
 PCOD9526524
Probable space group: I B A M
;
_chemical_formula_sum "Si O2"
_cell_formula_units_Z 116
_cell_length_a 26.523997
_cell_length_b 29.980299
_cell_length_c 8.826008
_cell_angle_alpha 90.000000
_cell_angle_beta 90.000000
_cell_angle_gamma 90.000000
_cell_volume 7018.418267
_symmetry_space_group_name_H-M "I B A M"
_symmetry_group_IT_number 72
_symmetry_cell_setting 'orthorhombic'
loop_
_space_group_symop_operation_xyz
x,y,z
-x,-y,z
x,-y,1/2-z
-x,y,1/2-z
-x,-y,-z
x,y,-z
-x,y,1/2+z
x,-y,1/2+z
1/2+x,1/2+y,1/2+z
1/2-x,1/2-y,1/2+z
1/2+x,1/2-y,-z
1/2-x,1/2+y,-z
1/2-x,1/2-y,1/2-z
1/2+x,1/2+y,1/2-z
1/2-x,1/2+y,z
1/2+x,1/2-y,z
loop_
_atom_site_type_symbol
_atom_site_label
_atom_site_fract_x
_atom_site_fract_y
_atom_site_fract_z
Si Si1 0.444674 0.950687 0.316698
Si Si2 0.341338 0.388304 0.319128
Si Si3 0.694106 0.295203 0.817122
Si Si4 0.305767 0.196553 0.317608
Si Si5 0.598053 0.542985 0.166256
Si Si6 0.149308 0.601324 0.316553
Si Si7 0.000000 0.000000 0.750000
Si Si8 0.245689 0.450437 0.316460
O O1 0.500000 0.939294 0.250000
O O2 0.445989 0.952274 0.500000
O O3 0.402033 0.916954 0.257077
O O4 0.432568 0.000000 0.250000
O O5 0.342174 0.388189 0.500000
O O6 0.337465 0.337711 0.264463
O O7 0.389883 0.413516 0.258918
O O8 0.292560 0.418001 0.274770
O O9 0.674607 0.246015 0.774234
O O10 0.750174 0.303864 0.754456
O O11 0.696897 0.296205 0.000000
O O12 0.300651 0.195353 0.500000
O O13 0.337628 0.152866 0.275429
O O14 0.621179 0.500000 0.250000
O O15 0.539027 0.531054 0.161613
O O16 0.619452 0.546805 0.000000
O O17 0.146928 0.597699 0.500000
O O18 0.195280 0.571515 0.252660
O O19 0.252100 0.500000 0.250000
O O20 0.242341 0.452203 0.500000
#
# Coordination Sequence:
#
# PCOD9526524 Si02
#       8
#    16  16  16  16  16  16   4  16
#     4  11  22  38  58  80 106 136 172 217 261 309
#     4  10  20  32  49  73 104 136 170 209 256 305
#     4   9  17  32  50  73 104 137 172 212 255 303
#     4   9  18  31  51  75 102 136 174 212 252 301
#     4  10  20  33  52  73  99 129 167 211 255 305
#     4  11  21  34  52  77 105 138 175 214 256 308
#     4   8  22  36  54  76  98 132 170 220 256 304
#     4  11  22  34  46  68 102 142 174 208 250 304
#
# _framework density 16.527940999999998
#
# number of rings (size 3 to 8) (size 9 to 14) (size 15 to 20)
#    0.414    1.517    1.379    3.931    0.000    3.310 
#    0.000    0.000    0.000    0.000    1.793    0.000 
#    0.000    0.000    0.000    0.000    0.000    0.000 
#
# Total GULP energy -323141.686573 kJ/mol
# GULP energy per Si atom -5571.408389 kJ/mol
# Density = 1.649032 g / cm^3
# Si number density = 16.527941 Si / 1000 Ang^3
#
#
#
# Elastic Constant Matrix: (Units=GPa)
#
#
# Indices 1 2 3 4 5 6 
#
# 1 76.6877 55.6818 25.6988 0.0000 0.0000 0.0000
# 2 55.6818 146.1636 35.6901 0.0000 0.0000 0.0000
# 3 25.6988 35.6901 52.9175 0.0000 0.0000 0.0000
# 4 0.0000 0.0000 0.0000 14.2687 0.0000 0.0000
# 5 0.0000 0.0000 0.0000 0.0000 18.4753 0.0000
# 6 0.0000 0.0000 0.0000 0.0000 0.0000 22.9227
#
#
#
# Elastic Compliance Matrix: (Units=1/GPa)
#
#
# Indices 1 2 3 4 5 6 
#
# 1 0.019171 -0.006022 -0.005249 0.000000 0.000000 0.000000
# 2 -0.006022 0.010082 -0.003875 0.000000 0.000000 0.000000
# 3 -0.005249 -0.003875 0.024060 0.000000 0.000000 0.000000
# 4 0.000000 0.000000 0.000000 0.070084 0.000000 0.000000
# 5 0.000000 0.000000 0.000000 0.000000 0.054126 0.000000
# 6 0.000000 0.000000 0.000000 0.000000 0.000000 0.043625
#
#
# Mechanical properties :
#
#
# Convention : Reuss Voigt Hill
#
# Bulk Modulus (GPa) = 43.43816 56.65669 50.04742
# Shear Modulus (GPa) = 19.29655 21.71321 20.50488
#
# Velocity S-wave (km/s) = 3.42059 3.62847 3.52606
# Velocity P-wave (km/s) = 6.47606 7.20473 6.85009
#
# Compressibility (1/GPa) = 0.02302123
#
# Stress axis : x y z
#
# Youngs Moduli (GPa) = 52.16186 99.18752 41.56250
#
# Poissons Ratio (x) = 0.59727 0.21816
# Poissons Ratio (y) = 0.31410 0.16107
# Poissons Ratio (z) = 0.27379 0.38439
#
# Static dielectric constant tensor:
#      x y z
#    x 1.543250 0.000000 0.000000 
#    y 0.000000 1.575880 0.000000 
#    z 0.000000 0.000000 1.562140 
# 
# From -- ./inp_files/8697.got.cif
#   From: 2010.05.17/outbox.cif.g08.bks.cpg/sg72_5_cif.got.tgz:8697.got - 2010.06.03 17:03:01.
