data_PCOD9526314
_publ_section_title
;
Structure prediction by ZEFSAII (Michael W. Deem and Ramdas Pophale) SiO2 
 PCOD9526314
Probable space group: I B A M
;
_chemical_formula_sum "Si O2"
_cell_formula_units_Z 128
_cell_length_a 22.101795
_cell_length_b 18.846034
_cell_length_c 18.459196
_cell_angle_alpha 90.000000
_cell_angle_beta 90.000000
_cell_angle_gamma 90.000000
_cell_volume 7688.830692
_symmetry_space_group_name_H-M "I B A M"
_symmetry_group_IT_number 72
_symmetry_cell_setting 'orthorhombic'
loop_
_space_group_symop_operation_xyz
x,y,z
-x,-y,z
x,-y,1/2-z
-x,y,1/2-z
-x,-y,-z
x,y,-z
-x,y,1/2+z
x,-y,1/2+z
1/2+x,1/2+y,1/2+z
1/2-x,1/2-y,1/2+z
1/2+x,1/2-y,-z
1/2-x,1/2+y,-z
1/2-x,1/2-y,1/2-z
1/2+x,1/2+y,1/2-z
1/2-x,1/2+y,z
1/2+x,1/2-y,z
loop_
_atom_site_type_symbol
_atom_site_label
_atom_site_fract_x
_atom_site_fract_y
_atom_site_fract_z
Si Si1 0.070012 0.390521 0.333225
Si Si2 0.704781 0.379086 0.915592
Si Si3 0.930105 0.360938 0.328122
Si Si4 0.165908 0.301128 0.582499
Si Si5 0.372978 0.019670 0.585866
Si Si6 0.838363 0.760558 0.185473
Si Si7 0.743781 0.513835 0.164695
Si Si8 0.786258 0.824321 0.668411
O O1 0.081445 0.401998 0.247884
O O2 0.116876 0.332795 0.363289
O O3 0.082662 0.461298 0.378821
O O4 0.001746 0.362678 0.340342
O O5 0.773430 0.348413 0.910165
O O6 0.665226 0.317703 0.878730
O O7 0.703764 0.451517 0.870305
O O8 0.691178 0.389960 0.000000
O O9 0.897988 0.403415 0.392346
O O10 0.899550 0.284556 0.316846
O O11 0.144651 0.306108 0.500000
O O12 0.184804 0.221903 0.604285
O O13 0.368582 0.009638 0.500000
O O14 0.307712 0.011290 0.623025
O O15 0.822937 0.802392 0.259347
O O16 0.782562 0.704598 0.178048
O O17 0.753122 0.500000 0.250000
O O18 0.716185 0.592149 0.156389
#
# Coordination Sequence:
#
# PCOD9526314 Si02
#       8
#    16  16  16  16  16  16  16  16
#     4  11  22  38  57  79 106 152 193 234 274 328
#     4  10  21  35  54  80 114 147 178 223 285 339
#     4  11  23  38  58  77 108 147 199 238 270 328
#     4  10  20  35  55  78 110 146 181 226 276 333
#     4  12  25  36  50  78 118 153 192 233 270 327
#     4  10  19  36  54  80 107 143 183 237 281 326
#     4  12  21  34  57  83 109 150 186 227 280 343
#     4  10  20  33  56  79 106 141 186 229 280 337
#
# _framework density 16.647525000000002
#
# number of rings (size 3 to 8) (size 9 to 14) (size 15 to 20)
#    0.000    1.250    5.000    2.250    0.000    4.000 
#    0.000    0.000    0.000    0.000    0.000    0.875 
#    0.000    2.000    0.000    0.000    0.000    0.000 
#
# Total GULP energy -357396.616576 kJ/mol
# GULP energy per Si atom -5584.322134 kJ/mol
# Density = 1.660963 g / cm^3
# Si number density = 16.647525 Si / 1000 Ang^3
#
#
#
# Elastic Constant Matrix: (Units=GPa)
#
#
# Indices 1 2 3 4 5 6 
#
# 1 39.4353 24.2645 15.6764 0.0000 0.0000 0.0000
# 2 24.2645 115.5054 41.5783 0.0000 0.0000 0.0000
# 3 15.6764 41.5783 98.5145 0.0000 0.0000 0.0000
# 4 0.0000 0.0000 0.0000 16.8375 0.0000 0.0000
# 5 0.0000 0.0000 0.0000 0.0000 12.5871 0.0000
# 6 0.0000 0.0000 0.0000 0.0000 0.0000 21.8648
#
#
#
# Elastic Compliance Matrix: (Units=1/GPa)
#
#
# Indices 1 2 3 4 5 6 
#
# 1 0.029620 -0.005336 -0.002461 0.000000 0.000000 0.000000
# 2 -0.005336 0.011170 -0.003865 0.000000 0.000000 0.000000
# 3 -0.002461 -0.003865 0.012174 0.000000 0.000000 0.000000
# 4 0.000000 0.000000 0.000000 0.059391 0.000000 0.000000
# 5 0.000000 0.000000 0.000000 0.000000 0.079446 0.000000
# 6 0.000000 0.000000 0.000000 0.000000 0.000000 0.045736
#
#
# Mechanical properties :
#
#
# Convention : Reuss Voigt Hill
#
# Bulk Modulus (GPa) = 33.74023 46.27707 40.00865
# Shear Modulus (GPa) = 18.46781 21.72028 20.09405
#
# Velocity S-wave (km/s) = 3.33429 3.61600 3.47800
# Velocity P-wave (km/s) = 5.92746 6.72997 6.34142
#
# Compressibility (1/GPa) = 0.02963821
#
# Stress axis : x y z
#
# Youngs Moduli (GPa) = 33.76123 89.52586 82.14422
#
# Poissons Ratio (x) = 0.47774 0.20217
# Poissons Ratio (y) = 0.18016 0.31750
# Poissons Ratio (z) = 0.08309 0.34603
#
# Static dielectric constant tensor:
#      x y z
#    x 1.540100 0.000000 0.000000 
#    y 0.000000 1.564970 0.000000 
#    z 0.000000 0.000000 1.572640 
# 
# From -- ./inp_files/33549.got.cif
#   From: 2010.05.17/outbox.cif.g08.bks.cpg/sg72_17_cif.got.tgz:33549.got - 2010.06.03 17:03:01.
