data_PCOD9526558
_publ_section_title
;
Structure prediction by ZEFSAII (Michael W. Deem and Ramdas Pophale) SiO2 
 PCOD9526558
Probable space group: I B A M
;
_chemical_formula_sum "Si O2"
_cell_formula_units_Z 112
_cell_length_a 29.783860
_cell_length_b 13.642223
_cell_length_c 13.513140
_cell_angle_alpha 90.000000
_cell_angle_beta 90.000000
_cell_angle_gamma 90.000000
_cell_volume 5490.632828
_symmetry_space_group_name_H-M "I B A M"
_symmetry_group_IT_number 72
_symmetry_cell_setting 'orthorhombic'
loop_
_space_group_symop_operation_xyz
x,y,z
-x,-y,z
x,-y,1/2-z
-x,y,1/2-z
-x,-y,-z
x,y,-z
-x,y,1/2+z
x,-y,1/2+z
1/2+x,1/2+y,1/2+z
1/2-x,1/2-y,1/2+z
1/2+x,1/2-y,-z
1/2-x,1/2+y,-z
1/2-x,1/2-y,1/2-z
1/2+x,1/2+y,1/2-z
1/2-x,1/2+y,z
1/2+x,1/2-y,z
loop_
_atom_site_type_symbol
_atom_site_label
_atom_site_fract_x
_atom_site_fract_y
_atom_site_fract_z
Si Si1 0.703918 0.655701 0.118295
Si Si2 0.168744 0.639776 0.813432
Si Si3 0.959888 0.930100 0.881717
Si Si4 0.199406 0.567662 0.615011
Si Si5 0.070411 0.301512 0.314743
Si Si6 0.471869 0.202781 0.614236
Si Si7 0.893594 0.092125 0.119763
O O1 0.696594 0.762053 0.165523
O O2 0.749962 0.600876 0.141812
O O3 0.658857 0.596543 0.144003
O O4 0.703642 0.669843 0.000000
O O5 0.168572 0.621406 0.695564
O O6 0.191804 0.547240 0.865418
O O7 0.117331 0.651277 0.848828
O O8 0.968487 0.818175 0.858064
O O9 0.914829 0.987339 0.854701
O O10 0.960514 0.929851 0.000000
O O11 0.000000 0.000000 0.850002
O O12 0.191006 0.590992 0.500000
O O13 0.058818 0.337871 0.202967
O O14 0.081327 0.184738 0.329818
O O15 0.024383 0.323928 0.373078
O O16 0.458146 0.186857 0.500000
O O17 0.898911 0.106465 0.000000
#
# Coordination Sequence:
#
# PCOD9526558 Si02
#       7
#    16  16  16  16  16  16  16
#     4   9  18  34  58  87 119 153 189 228 278 338
#     4  10  21  38  60  86 118 149 188 238 283 343
#     4   9  15  26  45  70 107 150 184 222 266 314
#     4  10  21  38  61  88 114 148 190 237 292 344
#     4  10  20  33  52  78 105 147 188 221 280 339
#     4  10  20  33  49  75 111 147 189 235 280 337
#     4   9  16  29  49  76 111 149 188 224 260 322
#
# _framework density 20.398378000000001
#
# number of rings (size 3 to 8) (size 9 to 14) (size 15 to 20)
#    0.000    2.429    1.429    1.286    0.000    2.857 
#    0.000    7.143    0.000   10.286    0.000    8.000 
#    0.000    0.000    0.000    0.000    0.000    0.000 
#
# Total GULP energy -312230.586329 kJ/mol
# GULP energy per Si atom -5575.546184 kJ/mol
# Density = 2.035195 g / cm^3
# Si number density = 20.398378 Si / 1000 Ang^3
#
#
#
# Elastic Constant Matrix: (Units=GPa)
#
#
# Indices 1 2 3 4 5 6 
#
# 1 92.1627 42.6843 11.1121 0.0000 0.0000 0.0000
# 2 42.6843 59.8330 -2.6474 0.0000 0.0000 0.0000
# 3 11.1121 -2.6474 73.7064 0.0000 0.0000 0.0000
# 4 0.0000 0.0000 0.0000 16.3803 0.0000 0.0000
# 5 0.0000 0.0000 0.0000 0.0000 14.5651 0.0000
# 6 0.0000 0.0000 0.0000 0.0000 0.0000 10.2675
#
#
#
# Elastic Compliance Matrix: (Units=1/GPa)
#
#
# Indices 1 2 3 4 5 6 
#
# 1 0.016831 -0.012138 -0.002973 0.000000 0.000000 0.000000
# 2 -0.012138 0.025494 0.002746 0.000000 0.000000 0.000000
# 3 -0.002973 0.002746 0.014114 0.000000 0.000000 0.000000
# 4 0.000000 0.000000 0.000000 0.061049 0.000000 0.000000
# 5 0.000000 0.000000 0.000000 0.000000 0.068657 0.000000
# 6 0.000000 0.000000 0.000000 0.000000 0.000000 0.097395
#
#
# Mechanical properties :
#
#
# Convention : Reuss Voigt Hill
#
# Bulk Modulus (GPa) = 31.53898 36.44445 33.99171
# Shear Modulus (GPa) = 15.68181 19.87946 17.78064
#
# Velocity S-wave (km/s) = 2.77569 3.12518 2.95561
# Velocity P-wave (km/s) = 5.07619 5.56125 5.32425
#
# Compressibility (1/GPa) = 0.03170680
#
# Stress axis : x y z
#
# Youngs Moduli (GPa) = 59.41535 39.22477 70.85043
#
# Poissons Ratio (x) = 0.47613 0.21067
# Poissons Ratio (y) = 0.72121 -0.19453
# Poissons Ratio (z) = 0.17667 -0.10770
#
# Static dielectric constant tensor:
#      x y z
#    x 1.765080 0.000000 0.000000 
#    y 0.000000 1.686670 0.000000 
#    z 0.000000 0.000000 1.764140 
# 
# From -- ./inp_files/26518.got.cif
#   From: 2010.05.17/outbox.cif.g08.bks.cpg/sg72_14_cif.got.tgz:26518.got - 2010.06.03 17:03:01.
