data_PCOD9526853
_publ_section_title
;
Structure prediction by ZEFSAII (Michael W. Deem and Ramdas Pophale) SiO2 
 PCOD9526853
Probable space group: I B A M
;
_chemical_formula_sum "Si O2"
_cell_formula_units_Z 84
_cell_length_a 8.617544
_cell_length_b 19.622135
_cell_length_c 20.505999
_cell_angle_alpha 90.000000
_cell_angle_beta 90.000000
_cell_angle_gamma 90.000000
_cell_volume 3467.453939
_symmetry_space_group_name_H-M "I B A M"
_symmetry_group_IT_number 72
_symmetry_cell_setting 'orthorhombic'
loop_
_space_group_symop_operation_xyz
x,y,z
-x,-y,z
x,-y,1/2-z
-x,y,1/2-z
-x,-y,-z
x,y,-z
-x,y,1/2+z
x,-y,1/2+z
1/2+x,1/2+y,1/2+z
1/2-x,1/2-y,1/2+z
1/2+x,1/2-y,-z
1/2-x,1/2+y,-z
1/2-x,1/2-y,1/2-z
1/2+x,1/2+y,1/2-z
1/2-x,1/2+y,z
1/2+x,1/2-y,z
loop_
_atom_site_type_symbol
_atom_site_label
_atom_site_fract_x
_atom_site_fract_y
_atom_site_fract_z
Si Si1 0.000000 0.500000 0.750000
Si Si2 0.781665 0.778388 0.000000
Si Si3 0.000000 0.149185 0.750000
Si Si4 0.709848 0.378270 0.359228
Si Si5 0.927675 0.408932 0.859361
Si Si6 0.288899 0.281062 0.642973
Si Si7 0.572729 0.090798 0.500000
Si Si8 0.707945 0.619516 0.000000
O O1 0.106253 0.545683 0.797142
O O2 0.863408 0.788495 0.070070
O O3 0.640983 0.832491 0.000000
O O4 0.720874 0.701588 0.000000
O O5 0.895263 0.104302 0.798107
O O6 0.898928 0.196790 0.701753
O O7 0.730066 0.295932 0.353614
O O8 0.640685 0.399445 0.429608
O O9 0.886402 0.403340 0.357387
O O10 0.852348 0.334722 0.853988
O O11 0.877990 0.438567 0.930020
O O12 0.387232 0.094929 0.500000
#
# Coordination Sequence:
#
# PCOD9526853 Si02
#       8
#     4   8   8  16  16  16   8   8
#     4  12  24  36  56  78 112 156 192 232 272 322
#     4   8  16  30  51  75 105 141 178 222 277 332
#     4  12  22  27  44  77 112 144 172 206 264 328
#     4  10  20  35  55  81 111 144 182 229 280 334
#     4  10  21  39  59  82 113 148 189 229 276 328
#     4  10  20  35  55  81 111 144 182 229 280 334
#     4   8  16  33  56  80 104 140 188 233 268 318
#     4   8  16  30  51  75 105 141 178 222 277 332
#
# _framework density 24.225268
#
# number of rings (size 3 to 8) (size 9 to 14) (size 15 to 20)
#    0.000    2.286    0.000    2.857    0.000    7.238 
#    0.000    0.000    0.000    9.143    0.000    0.000 
#    0.000   36.571    0.000    0.000    0.000    0.000 
#
# Total GULP energy -234668.328719 kJ/mol
# GULP energy per Si atom -5587.341160 kJ/mol
# Density = 2.417013 g / cm^3
# Si number density = 24.225268 Si / 1000 Ang^3
#
#
#
# Elastic Constant Matrix: (Units=GPa)
#
#
# Indices 1 2 3 4 5 6 
#
# 1 51.8548 -9.3463 50.9267 0.0000 0.0000 0.0000
# 2 -9.3463 54.6425 12.4035 0.0000 0.0000 0.0000
# 3 50.9267 12.4035 259.8299 0.0000 0.0000 0.0000
# 4 0.0000 0.0000 0.0000 2.1189 0.0000 0.0000
# 5 0.0000 0.0000 0.0000 0.0000 26.0872 0.0000
# 6 0.0000 0.0000 0.0000 0.0000 0.0000 7.0165
#
#
#
# Elastic Compliance Matrix: (Units=1/GPa)
#
#
# Indices 1 2 3 4 5 6 
#
# 1 0.025441 0.005543 -0.005251 0.000000 0.000000 0.000000
# 2 0.005543 0.019709 -0.002027 0.000000 0.000000 0.000000
# 3 -0.005251 -0.002027 0.004975 0.000000 0.000000 0.000000
# 4 0.000000 0.000000 0.000000 0.471937 0.000000 0.000000
# 5 0.000000 0.000000 0.000000 0.000000 0.038333 0.000000
# 6 0.000000 0.000000 0.000000 0.000000 0.000000 0.142520
#
#
# Mechanical properties :
#
#
# Convention : Reuss Voigt Hill
#
# Bulk Modulus (GPa) = 21.43408 52.69944 37.06676
# Shear Modulus (GPa) = 6.92582 27.86743 17.39663
#
# Velocity S-wave (km/s) = 1.69267 3.39535 2.68268
# Velocity P-wave (km/s) = 3.56191 6.09692 4.99297
#
# Compressibility (1/GPa) = 0.04665468
#
# Stress axis : x y z
#
# Youngs Moduli (GPa) = 39.30696 50.73788 201.01909
#
# Poissons Ratio (x) = -0.28126 1.05556
# Poissons Ratio (y) = -0.21790 0.40754
# Poissons Ratio (z) = 0.20640 0.10286
#
# Static dielectric constant tensor:
#      x y z
#    x 1.940890 0.000000 0.000000 
#    y 0.000000 1.913330 0.000000 
#    z 0.000000 0.000000 2.024450 
# 
# From -- ./inp_files/35813.got.cif
#   From: 2010.05.17/outbox.cif.g08.bks.cpg/sg72_18_cif.got.tgz:35813.got - 2010.06.03 17:03:01.
