data_PCOD9526425
_publ_section_title
;
Structure prediction by ZEFSAII (Michael W. Deem and Ramdas Pophale) SiO2 
 PCOD9526425
Probable space group: I B A M
;
_chemical_formula_sum "Si O2"
_cell_formula_units_Z 112
_cell_length_a 14.627091
_cell_length_b 14.668466
_cell_length_c 29.377304
_cell_angle_alpha 90.000000
_cell_angle_beta 90.000000
_cell_angle_gamma 90.000000
_cell_volume 6303.105833
_symmetry_space_group_name_H-M "I B A M"
_symmetry_group_IT_number 72
_symmetry_cell_setting 'orthorhombic'
loop_
_space_group_symop_operation_xyz
x,y,z
-x,-y,z
x,-y,1/2-z
-x,y,1/2-z
-x,-y,-z
x,y,-z
-x,y,1/2+z
x,-y,1/2+z
1/2+x,1/2+y,1/2+z
1/2-x,1/2-y,1/2+z
1/2+x,1/2-y,-z
1/2-x,1/2+y,-z
1/2-x,1/2-y,1/2-z
1/2+x,1/2+y,1/2-z
1/2-x,1/2+y,z
1/2+x,1/2-y,z
loop_
_atom_site_type_symbol
_atom_site_label
_atom_site_fract_x
_atom_site_fract_y
_atom_site_fract_z
Si Si1 0.883113 0.253832 0.135758
Si Si2 0.775856 0.377612 0.673773
Si Si3 0.060022 0.139847 0.449088
Si Si4 0.770266 0.576247 0.361646
Si Si5 0.544494 0.773172 0.293582
Si Si6 0.643112 0.560512 0.448021
Si Si7 0.800124 0.845351 0.234694
O O1 0.794254 0.195393 0.151687
O O2 0.857231 0.359438 0.131186
O O3 0.914356 0.211349 0.088713
O O4 0.964786 0.246740 0.171997
O O5 0.786569 0.469000 0.644725
O O6 0.874377 0.331584 0.683290
O O7 0.727666 0.404675 0.721844
O O8 0.077329 0.173703 0.500000
O O9 0.953706 0.112376 0.445414
O O10 0.117168 0.046322 0.443053
O O11 0.705331 0.589037 0.405571
O O12 0.731353 0.614245 0.313406
O O13 0.500000 0.823253 0.250000
O O14 0.595930 0.685033 0.272667
O O15 0.679220 0.573967 0.500000
O O16 0.750000 0.750000 0.250000
#
# Coordination Sequence:
#
# PCOD9526425 Si02
#       7
#    16  16  16  16  16  16  16
#     4  12  22  38  62  87 122 161 199 253 299 362
#     4  11  23  40  58  88 121 156 206 248 294 364
#     4   9  19  37  61  90 120 151 199 258 310 359
#     4  12  22  37  63  86 121 164 198 244 306 360
#     4  11  21  38  63  82 121 162 201 249 298 355
#     4   9  19  37  62  91 118 150 203 259 304 360
#     4  10  19  38  56  83 119 155 198 247 289 350
#
# _framework density 17.769017999999999
#
# number of rings (size 3 to 8) (size 9 to 14) (size 15 to 20)
#    0.000    1.429    5.714    3.000    0.000    1.143 
#    0.000    2.143    0.000    0.857    0.000    2.000 
#    0.000    0.000    0.000    0.000    0.000    0.000 
#
# Total GULP energy -312117.306481 kJ/mol
# GULP energy per Si atom -5573.523330 kJ/mol
# Density = 1.772857 g / cm^3
# Si number density = 17.769018 Si / 1000 Ang^3
#
#
#
# Elastic Constant Matrix: (Units=GPa)
#
#
# Indices 1 2 3 4 5 6 
#
# 1 87.8632 34.5623 42.7939 0.0000 0.0000 0.0000
# 2 34.5623 71.3126 33.5608 0.0000 0.0000 0.0000
# 3 42.7939 33.5608 125.9165 0.0000 0.0000 0.0000
# 4 0.0000 0.0000 0.0000 22.8191 0.0000 0.0000
# 5 0.0000 0.0000 0.0000 0.0000 33.9520 0.0000
# 6 0.0000 0.0000 0.0000 0.0000 0.0000 15.3165
#
#
#
# Elastic Compliance Matrix: (Units=1/GPa)
#
#
# Indices 1 2 3 4 5 6 
#
# 1 0.015451 -0.005737 -0.003722 0.000000 0.000000 0.000000
# 2 -0.005737 0.018164 -0.002892 0.000000 0.000000 0.000000
# 3 -0.003722 -0.002892 0.009977 0.000000 0.000000 0.000000
# 4 0.000000 0.000000 0.000000 0.043823 0.000000 0.000000
# 5 0.000000 0.000000 0.000000 0.000000 0.029453 0.000000
# 6 0.000000 0.000000 0.000000 0.000000 0.000000 0.065289
#
#
# Mechanical properties :
#
#
# Convention : Reuss Voigt Hill
#
# Bulk Modulus (GPa) = 52.93407 56.32514 54.62960
# Shear Modulus (GPa) = 23.45706 26.02922 24.74314
#
# Velocity S-wave (km/s) = 3.63727 3.83151 3.73565
# Velocity P-wave (km/s) = 6.89162 7.16528 7.02978
#
# Compressibility (1/GPa) = 0.01889142
#
# Stress axis : x y z
#
# Youngs Moduli (GPa) = 64.72159 55.05413 100.22596
#
# Poissons Ratio (x) = 0.31583 0.37305
# Poissons Ratio (y) = 0.37129 0.28981
# Poissons Ratio (z) = 0.24090 0.15919
#
# Static dielectric constant tensor:
#      x y z
#    x 1.609940 0.000000 0.000000 
#    y 0.000000 1.633880 0.000000 
#    z 0.000000 0.000000 1.634040 
# 
# From -- ./inp_files/51857.got.cif
#   From: 2010.05.17/outbox.cif.g08.bks.cpg/sg72_26_cif.got.tgz:51857.got - 2010.06.03 17:03:01.
