data_PCOD9526659
_publ_section_title
;
Structure prediction by ZEFSAII (Michael W. Deem and Ramdas Pophale) SiO2 
 PCOD9526659
Probable space group: I B A M
;
_chemical_formula_sum "Si O2"
_cell_formula_units_Z 96
_cell_length_a 10.283176
_cell_length_b 30.281259
_cell_length_c 14.178155
_cell_angle_alpha 90.000000
_cell_angle_beta 90.000000
_cell_angle_gamma 90.000000
_cell_volume 4414.900464
_symmetry_space_group_name_H-M "I B A M"
_symmetry_group_IT_number 72
_symmetry_cell_setting 'orthorhombic'
loop_
_space_group_symop_operation_xyz
x,y,z
-x,-y,z
x,-y,1/2-z
-x,y,1/2-z
-x,-y,-z
x,y,-z
-x,y,1/2+z
x,-y,1/2+z
1/2+x,1/2+y,1/2+z
1/2-x,1/2-y,1/2+z
1/2+x,1/2-y,-z
1/2-x,1/2+y,-z
1/2-x,1/2-y,1/2-z
1/2+x,1/2+y,1/2-z
1/2-x,1/2+y,z
1/2+x,1/2-y,z
loop_
_atom_site_type_symbol
_atom_site_label
_atom_site_fract_x
_atom_site_fract_y
_atom_site_fract_z
Si Si1 0.927399 0.710021 0.384708
Si Si2 0.773866 0.284001 0.384859
Si Si3 0.137603 0.516779 0.856282
Si Si4 0.394939 0.466948 0.105678
Si Si5 0.948824 0.611339 0.386279
Si Si6 0.748374 0.884012 0.384417
O O1 0.925459 0.710210 0.500000
O O2 0.075403 0.721276 0.356672
O O3 0.902118 0.659544 0.354231
O O4 0.821215 0.745236 0.352818
O O5 0.773731 0.283471 0.500000
O O6 0.727344 0.333224 0.357878
O O7 0.140955 0.500000 0.750000
O O8 0.262067 0.494639 0.901636
O O9 0.000000 0.500000 0.896893
O O10 0.135518 0.569473 0.858631
O O11 0.500000 0.500000 0.149093
O O12 0.350202 0.420599 0.150816
O O13 0.444612 0.456372 0.000000
O O14 0.951095 0.612396 0.500000
O O15 0.099423 0.605064 0.355857
O O16 0.749984 0.886406 0.500000
#
# Coordination Sequence:
#
# PCOD9526659 Si02
#       6
#    16  16  16  16  16  16
#     4   8  14  24  40  64  95 128 159 195 246 300
#     4   8  13  23  38  61  93 126 156 193 243 294
#     4  11  22  34  51  74  99 128 174 214 252 302
#     4  10  20  34  51  74 102 132 168 207 255 311
#     4   9  16  29  50  72  97 132 168 208 256 298
#     4   8  14  26  45  66  96 133 162 196 251 303
#
# _framework density 21.744544000000001
#
# number of rings (size 3 to 8) (size 9 to 14) (size 15 to 20)
#    0.000    3.000    1.667    2.500    0.000    1.000 
#    3.000    0.000    0.000    0.000    0.000    1.167 
#    0.000    0.000    0.000    0.000    0.000    0.000 
#
# Total GULP energy -268005.126519 kJ/mol
# GULP energy per Si atom -5583.440136 kJ/mol
# Density = 2.169505 g / cm^3
# Si number density = 21.744544 Si / 1000 Ang^3
#
#
#
# Elastic Constant Matrix: (Units=GPa)
#
#
# Indices 1 2 3 4 5 6 
#
# 1 89.9548 79.9313 4.5750 -0.0001 0.0000 0.0000
# 2 79.9313 200.3332 6.7432 -0.0001 0.0000 0.0000
# 3 4.5750 6.7432 59.9647 -0.0003 0.0001 0.0001
# 4 -0.0001 -0.0001 -0.0003 3.9523 0.0000 0.0000
# 5 0.0000 0.0000 0.0001 0.0000 10.1059 0.0000
# 6 0.0000 0.0000 0.0001 0.0000 0.0000 45.3813
#
#
#
# Elastic Compliance Matrix: (Units=1/GPa)
#
#
# Indices 1 2 3 4 5 6 
#
# 1 0.017240 -0.006860 -0.000544 0.000000 0.000000 0.000000
# 2 -0.006860 0.007741 -0.000347 0.000000 0.000000 0.000000
# 3 -0.000544 -0.000347 0.016757 0.000001 0.000000 0.000000
# 4 0.000000 0.000000 0.000001 0.253014 -0.000001 0.000000
# 5 0.000000 0.000000 0.000000 -0.000001 0.098952 0.000000
# 6 0.000000 0.000000 0.000000 0.000000 0.000000 0.022035
#
#
# Mechanical properties :
#
#
# Convention : Reuss Voigt Hill
#
# Bulk Modulus (GPa) = 38.11666 59.19462 48.65564
# Shear Modulus (GPa) = 11.36396 29.15480 20.25938
#
# Velocity S-wave (km/s) = 2.28855 3.66565 3.05569
# Velocity P-wave (km/s) = 4.95486 6.72293 5.90544
#
# Compressibility (1/GPa) = 0.02623525
#
# Stress axis : x y z
#
# Youngs Moduli (GPa) = 58.00341 129.18844 59.67661
#
# Poissons Ratio (x) = 0.88629 0.03246
# Poissons Ratio (y) = 0.39793 0.02071
# Poissons Ratio (z) = 0.03155 0.04483
#
# Static dielectric constant tensor:
#      x y z
#    x 1.763020 0.000000 0.000000 
#    y 0.000000 1.784970 0.000000 
#    z 0.000000 0.000000 1.874010 
# 
# From -- ./inp_files/29599.got.cif
#   From: 2010.05.17/outbox.cif.g08.bks.cpg/sg72_15_cif.got.tgz:29599.got - 2010.06.03 17:03:01.
