data_PCOD9526352
_publ_section_title
;
Structure prediction by ZEFSAII (Michael W. Deem and Ramdas Pophale) SiO2 
 PCOD9526352
Probable space group: I B A M
;
_chemical_formula_sum "Si O2"
_cell_formula_units_Z 80
_cell_length_a 7.461007
_cell_length_b 16.990770
_cell_length_c 26.381609
_cell_angle_alpha 90.000000
_cell_angle_beta 90.000000
_cell_angle_gamma 90.000000
_cell_volume 3344.350508
_symmetry_space_group_name_H-M "I B A M"
_symmetry_group_IT_number 72
_symmetry_cell_setting 'orthorhombic'
loop_
_space_group_symop_operation_xyz
x,y,z
-x,-y,z
x,-y,1/2-z
-x,y,1/2-z
-x,-y,-z
x,y,-z
-x,y,1/2+z
x,-y,1/2+z
1/2+x,1/2+y,1/2+z
1/2-x,1/2-y,1/2+z
1/2+x,1/2-y,-z
1/2-x,1/2+y,-z
1/2-x,1/2-y,1/2-z
1/2+x,1/2+y,1/2-z
1/2-x,1/2+y,z
1/2+x,1/2-y,z
loop_
_atom_site_type_symbol
_atom_site_label
_atom_site_fract_x
_atom_site_fract_y
_atom_site_fract_z
Si Si1 0.228091 0.866711 0.054824
Si Si2 0.518045 0.710314 0.304049
Si Si3 0.753989 0.425435 0.665339
Si Si4 0.575208 0.796868 0.091350
Si Si5 0.817279 0.599762 0.330782
O O1 0.207336 0.918259 0.105337
O O2 0.436148 0.843169 0.057509
O O3 0.141003 0.780863 0.063938
O O4 0.176958 0.899073 0.000000
O O5 0.500000 0.751721 0.250000
O O6 0.366627 0.642423 0.310035
O O7 0.509060 0.761788 0.355547
O O8 0.707803 0.665637 0.301286
O O9 0.727093 0.516012 0.679969
O O10 0.967963 0.411768 0.674945
O O11 0.707555 0.864576 0.112165
#
# Coordination Sequence:
#
# PCOD9526352 Si02
#       5
#    16  16  16  16  16
#     4  10  19  36  60  87 116 153 198 243 302 362
#     4  11  23  39  64  87 119 163 204 242 302 359
#     4   9  22  39  61  86 120 160 192 252 302 347
#     4  10  20  38  58  88 118 156 194 254 297 346
#     4  10  20  41  59  83 126 151 197 249 297 349
#
# _framework density 23.920938
#
# number of rings (size 3 to 8) (size 9 to 14) (size 15 to 20)
#    0.000    2.000    2.000    1.200    0.000    3.200 
#    0.000   11.000    0.000    2.400    0.000    0.000 
#    0.000    0.000    0.000    0.000    0.000    0.000 
#
# Total GULP energy -223085.678014 kJ/mol
# GULP energy per Si atom -5577.141950 kJ/mol
# Density = 2.386649 g / cm^3
# Si number density = 23.920938 Si / 1000 Ang^3
#
#
#
# Elastic Constant Matrix: (Units=GPa)
#
#
# Indices 1 2 3 4 5 6 
#
# 1 52.2813 3.6810 11.9687 0.0000 0.0000 0.0000
# 2 3.6810 73.9949 -8.3815 0.0000 0.0000 0.0000
# 3 11.9687 -8.3815 134.6643 0.0000 0.0000 0.0000
# 4 0.0000 0.0000 0.0000 2.9872 0.0000 0.0000
# 5 0.0000 0.0000 0.0000 0.0000 15.4009 0.0000
# 6 0.0000 0.0000 0.0000 0.0000 0.0000 31.8200
#
#
#
# Elastic Compliance Matrix: (Units=1/GPa)
#
#
# Indices 1 2 3 4 5 6 
#
# 1 0.019627 -0.001182 -0.001818 0.000000 0.000000 0.000000
# 2 -0.001182 0.013682 0.000957 0.000000 0.000000 0.000000
# 3 -0.001818 0.000957 0.007647 0.000000 0.000000 0.000000
# 4 0.000000 0.000000 0.000000 0.334757 0.000000 0.000000
# 5 0.000000 0.000000 0.000000 0.000000 0.064931 0.000000
# 6 0.000000 0.000000 0.000000 0.000000 0.000000 0.031427
#
#
# Mechanical properties :
#
#
# Convention : Reuss Voigt Hill
#
# Bulk Modulus (GPa) = 27.12372 30.60852 28.86612
# Shear Modulus (GPa) = 10.23652 26.95311 18.59482
#
# Velocity S-wave (km/s) = 2.07089 3.36036 2.79112
# Velocity P-wave (km/s) = 4.13300 5.28011 4.74137
#
# Compressibility (1/GPa) = 0.03686809
#
# Stress axis : x y z
#
# Youngs Moduli (GPa) = 50.95090 73.09077 130.77035
#
# Poissons Ratio (x) = 0.08641 0.23774
# Poissons Ratio (y) = 0.06024 -0.12510
# Poissons Ratio (z) = 0.09263 -0.06992
#
# Static dielectric constant tensor:
#      x y z
#    x 2.042670 0.000000 0.000000 
#    y 0.000000 1.933720 0.000000 
#    z 0.000000 0.000000 1.922760 
# 
# From -- ./inp_files/47141.got.cif
#   From: 2010.05.17/outbox.cif.g08.bks.cpg/sg72_24_cif.got.tgz:47141.got - 2010.06.03 17:03:01.
