data_PCOD9526291
_publ_section_title
;
Structure prediction by ZEFSAII (Michael W. Deem and Ramdas Pophale) SiO2 
 PCOD9526291
Probable space group: I B A M
;
_chemical_formula_sum "Si O2"
_cell_formula_units_Z 96
_cell_length_a 31.877148
_cell_length_b 7.820124
_cell_length_c 15.054636
_cell_angle_alpha 90.000000
_cell_angle_beta 90.000000
_cell_angle_gamma 90.000000
_cell_volume 3752.868592
_symmetry_space_group_name_H-M "I B A M"
_symmetry_group_IT_number 72
_symmetry_cell_setting 'orthorhombic'
loop_
_space_group_symop_operation_xyz
x,y,z
-x,-y,z
x,-y,1/2-z
-x,y,1/2-z
-x,-y,-z
x,y,-z
-x,y,1/2+z
x,-y,1/2+z
1/2+x,1/2+y,1/2+z
1/2-x,1/2-y,1/2+z
1/2+x,1/2-y,-z
1/2-x,1/2+y,-z
1/2-x,1/2-y,1/2-z
1/2+x,1/2+y,1/2-z
1/2-x,1/2+y,z
1/2+x,1/2-y,z
loop_
_atom_site_type_symbol
_atom_site_label
_atom_site_fract_x
_atom_site_fract_y
_atom_site_fract_z
Si Si1 0.310404 0.365877 0.895439
Si Si2 0.484169 0.192962 0.893351
Si Si3 0.069964 0.150683 0.900037
Si Si4 0.635172 0.074166 0.152293
Si Si5 0.224698 0.516658 0.398538
Si Si6 0.102143 0.775756 0.136181
O O1 0.271392 0.475043 0.860166
O O2 0.352251 0.351243 0.836952
O O3 0.290419 0.177348 0.896387
O O4 0.322005 0.409715 0.000000
O O5 0.522624 0.316740 0.868948
O O6 0.443409 0.211581 0.831174
O O7 0.500000 0.000000 0.886198
O O8 0.473382 0.218744 0.000000
O O9 0.105069 0.264503 0.853214
O O10 0.083612 0.954643 0.902148
O O11 0.069823 0.220274 0.000000
O O12 0.683868 0.116765 0.135752
O O13 0.632198 0.000000 0.250000
O O14 0.618788 0.908165 0.096408
O O15 0.230358 0.574058 0.500000
#
# Coordination Sequence:
#
# PCOD9526291 Si02
#       6
#    16  16  16  16  16  16
#     4   9  18  32  57  89 122 158 201 264 323 373
#     4  10  19  35  61  96 134 165 202 262 333 393
#     4  11  23  38  68  99 125 169 216 267 329 386
#     4  11  25  44  63  89 134 177 221 262 321 390
#     4   9  19  36  59  89 123 161 213 268 322 377
#     4  11  22  39  62  94 130 165 212 267 321 385
#
# _framework density 25.580431999999998
#
# number of rings (size 3 to 8) (size 9 to 14) (size 15 to 20)
#    0.000    1.833    1.667    2.500    2.333    4.667 
#    0.000    5.000    0.000    2.000    0.000    0.000 
#    0.000    0.000    0.000    0.000    0.000    0.000 
#
# Total GULP energy -267331.287241 kJ/mol
# GULP energy per Si atom -5569.401818 kJ/mol
# Density = 2.552221 g / cm^3
# Si number density = 25.580432 Si / 1000 Ang^3
#
#
#
# Elastic Constant Matrix: (Units=GPa)
#
#
# Indices 1 2 3 4 5 6 
#
# 1 226.5686 67.8312 27.0450 0.0000 0.0000 0.0000
# 2 67.8312 102.3974 6.3876 0.0000 0.0000 0.0000
# 3 27.0450 6.3876 68.0188 0.0000 0.0000 0.0000
# 4 0.0000 0.0000 0.0000 8.4963 0.0000 0.0000
# 5 0.0000 0.0000 0.0000 0.0000 24.0122 0.0000
# 6 0.0000 0.0000 0.0000 0.0000 0.0000 58.6733
#
#
#
# Elastic Compliance Matrix: (Units=1/GPa)
#
#
# Indices 1 2 3 4 5 6 
#
# 1 0.005749 -0.003687 -0.001940 0.000000 0.000000 0.000000
# 2 -0.003687 0.012188 0.000322 0.000000 0.000000 0.000000
# 3 -0.001940 0.000322 0.015443 0.000000 0.000000 0.000000
# 4 0.000000 0.000000 0.000000 0.117698 0.000000 0.000000
# 5 0.000000 0.000000 0.000000 0.000000 0.041645 0.000000
# 6 0.000000 0.000000 0.000000 0.000000 0.000000 0.017044
#
#
# Mechanical properties :
#
#
# Convention : Reuss Voigt Hill
#
# Bulk Modulus (GPa) = 43.91851 66.61249 55.26550
# Shear Modulus (GPa) = 21.93286 37.95110 29.94198
#
# Velocity S-wave (km/s) = 2.93133 3.85593 3.42497
# Velocity P-wave (km/s) = 5.35378 6.77652 6.10673
#
# Compressibility (1/GPa) = 0.02276944
#
# Stress axis : x y z
#
# Youngs Moduli (GPa) = 173.93834 82.04471 64.75488
#
# Poissons Ratio (x) = 0.30253 0.12560
# Poissons Ratio (y) = 0.64138 -0.02082
# Poissons Ratio (z) = 0.33738 -0.02638
#
# Static dielectric constant tensor:
#      x y z
#    x 2.066690 0.000000 0.000000 
#    y 0.000000 2.010620 0.000000 
#    z 0.000000 0.000000 2.203270 
# 
# From -- ./inp_files/40693.got.cif
#   From: 2010.05.17/outbox.cif.g08.bks.cpg/sg72_21_cif.got.tgz:40693.got - 2010.06.03 17:03:01.
