data_PCOD9526312
_publ_section_title
;
Structure prediction by ZEFSAII (Michael W. Deem and Ramdas Pophale) SiO2 
 PCOD9526312
Probable space group: I B A M
;
_chemical_formula_sum "Si O2"
_cell_formula_units_Z 128
_cell_length_a 18.433464
_cell_length_b 21.015100
_cell_length_c 18.596244
_cell_angle_alpha 90.000000
_cell_angle_beta 90.000000
_cell_angle_gamma 90.000000
_cell_volume 7203.833258
_symmetry_space_group_name_H-M "I B A M"
_symmetry_group_IT_number 72
_symmetry_cell_setting 'orthorhombic'
loop_
_space_group_symop_operation_xyz
x,y,z
-x,-y,z
x,-y,1/2-z
-x,y,1/2-z
-x,-y,-z
x,y,-z
-x,y,1/2+z
x,-y,1/2+z
1/2+x,1/2+y,1/2+z
1/2-x,1/2-y,1/2+z
1/2+x,1/2-y,-z
1/2-x,1/2+y,-z
1/2-x,1/2-y,1/2-z
1/2+x,1/2+y,1/2-z
1/2-x,1/2+y,z
1/2+x,1/2-y,z
loop_
_atom_site_type_symbol
_atom_site_label
_atom_site_fract_x
_atom_site_fract_y
_atom_site_fract_z
Si Si1 0.156678 0.685037 0.215974
Si Si2 0.648999 0.350727 0.921447
Si Si3 0.698280 0.449610 0.313275
Si Si4 0.669628 0.319636 0.236147
Si Si5 0.681425 0.112284 0.421574
Si Si6 0.835631 0.461085 0.414583
Si Si7 0.079652 0.433698 0.214884
Si Si8 0.582447 0.486917 0.082074
O O1 0.242816 0.684549 0.231425
O O2 0.136276 0.758621 0.224168
O O3 0.146053 0.656772 0.137144
O O4 0.119525 0.631775 0.265007
O O5 0.640886 0.315767 0.845780
O O6 0.731827 0.376735 0.919574
O O7 0.597721 0.411884 0.919000
O O8 0.639779 0.318515 0.000000
O O9 0.717924 0.500000 0.250000
O O10 0.662856 0.387480 0.275711
O O11 0.767787 0.436601 0.365300
O O12 0.638618 0.481596 0.364058
O O13 0.654480 0.129662 0.500000
O O14 0.669155 0.037719 0.410256
O O15 0.832370 0.444045 0.500000
O O16 0.907996 0.441605 0.370654
O O17 0.110066 0.500000 0.250000
O O18 0.000000 0.429212 0.250000
O O19 0.500000 0.500000 0.102527
O O20 0.594417 0.510253 0.000000
#
# Coordination Sequence:
#
# PCOD9526312 Si02
#       8
#    16  16  16  16  16  16  16  16
#     4  10  19  36  54  79 116 143 183 236 287 346
#     4   9  16  31  50  76 108 148 191 228 281 341
#     4  12  19  33  57  86 115 146 192 247 285 329
#     4  10  20  32  56  84 108 147 190 238 285 339
#     4   9  16  29  54  81 107 141 183 230 286 344
#     4  11  20  34  59  90 114 143 190 243 293 341
#     4  11  22  38  60  85 111 149 190 236 300 353
#     4  10  20  33  50  77 115 153 186 233 291 336
#
# _framework density 17.768319000000002
#
# number of rings (size 3 to 8) (size 9 to 14) (size 15 to 20)
#    0.000    1.750    5.000    1.500    0.000    0.250 
#    0.000    5.000    0.000    0.000    0.000    0.000 
#    0.000    0.000    0.000    0.000    0.000    0.000 
#
# Total GULP energy -356280.307562 kJ/mol
# GULP energy per Si atom -5566.879806 kJ/mol
# Density = 1.772788 g / cm^3
# Si number density = 17.768319 Si / 1000 Ang^3
#
#
#
# Elastic Constant Matrix: (Units=GPa)
#
#
# Indices 1 2 3 4 5 6 
#
# 1 45.2911 2.1970 38.1730 0.0000 0.0000 0.0000
# 2 2.1970 74.9182 28.7399 0.0000 0.0000 0.0000
# 3 38.1730 28.7399 115.1514 0.0000 0.0000 0.0000
# 4 0.0000 0.0000 0.0000 19.6117 0.0000 0.0000
# 5 0.0000 0.0000 0.0000 0.0000 17.5629 0.0000
# 6 0.0000 0.0000 0.0000 0.0000 0.0000 7.8799
#
#
#
# Elastic Compliance Matrix: (Units=1/GPa)
#
#
# Indices 1 2 3 4 5 6 
#
# 1 0.031404 0.003398 -0.011259 0.000000 0.000000 0.000000
# 2 0.003398 0.015129 -0.004902 0.000000 0.000000 0.000000
# 3 -0.011259 -0.004902 0.013640 0.000000 0.000000 0.000000
# 4 0.000000 0.000000 0.000000 0.050990 0.000000 0.000000
# 5 0.000000 0.000000 0.000000 0.000000 0.056938 0.000000
# 6 0.000000 0.000000 0.000000 0.000000 0.000000 0.126905
#
#
# Mechanical properties :
#
#
# Convention : Reuss Voigt Hill
#
# Bulk Modulus (GPa) = 28.86265 41.50894 35.18580
# Shear Modulus (GPa) = 15.05663 20.09431 17.57547
#
# Velocity S-wave (km/s) = 2.91415 3.36654 3.14848
# Velocity P-wave (km/s) = 5.25378 6.20672 5.75002
#
# Compressibility (1/GPa) = 0.03464686
#
# Stress axis : x y z
#
# Youngs Moduli (GPa) = 31.84340 66.09875 73.31379
#
# Poissons Ratio (x) = -0.22461 0.82540
# Poissons Ratio (y) = -0.10820 0.35941
# Poissons Ratio (z) = 0.35851 0.32404
#
# Static dielectric constant tensor:
#      x y z
#    x 1.618450 0.000000 0.000000 
#    y 0.000000 1.614070 0.000000 
#    z 0.000000 0.000000 1.661930 
# 
# From -- ./inp_files/32939.got.cif
#   From: 2010.05.17/outbox.cif.g08.bks.cpg/sg72_17_cif.got.tgz:32939.got - 2010.06.03 17:03:01.
