data_PCOD9526103
_publ_section_title
;
Structure prediction by ZEFSAII (Michael W. Deem and Ramdas Pophale) SiO2 
 PCOD9526103
Probable space group: I B A M
;
_chemical_formula_sum "Si O2"
_cell_formula_units_Z 96
_cell_length_a 9.667167
_cell_length_b 29.674136
_cell_length_c 14.503105
_cell_angle_alpha 90.000000
_cell_angle_beta 90.000000
_cell_angle_gamma 90.000000
_cell_volume 4160.430726
_symmetry_space_group_name_H-M "I B A M"
_symmetry_group_IT_number 72
_symmetry_cell_setting 'orthorhombic'
loop_
_space_group_symop_operation_xyz
x,y,z
-x,-y,z
x,-y,1/2-z
-x,y,1/2-z
-x,-y,-z
x,y,-z
-x,y,1/2+z
x,-y,1/2+z
1/2+x,1/2+y,1/2+z
1/2-x,1/2-y,1/2+z
1/2+x,1/2-y,-z
1/2-x,1/2+y,-z
1/2-x,1/2-y,1/2-z
1/2+x,1/2+y,1/2-z
1/2-x,1/2+y,z
1/2+x,1/2-y,z
loop_
_atom_site_type_symbol
_atom_site_label
_atom_site_fract_x
_atom_site_fract_y
_atom_site_fract_z
Si Si1 0.710347 0.781027 0.112754
Si Si2 0.522652 0.302696 0.612534
Si Si3 0.914977 0.459466 0.896132
Si Si4 0.150938 0.011712 0.357271
Si Si5 0.011907 0.638206 0.887229
Si Si6 0.796492 0.883199 0.389040
O O1 0.637782 0.734227 0.138931
O O2 0.868285 0.789287 0.143170
O O3 0.607383 0.820806 0.143774
O O4 0.713915 0.781417 0.000000
O O5 0.517895 0.302899 0.500000
O O6 0.577855 0.351550 0.643146
O O7 0.762243 0.478561 0.900878
O O8 0.000000 0.500000 0.850638
O O9 0.926080 0.409868 0.856057
O O10 0.974583 0.454518 0.000000
O O11 0.188747 0.064179 0.366474
O O12 0.152798 0.000000 0.250000
O O13 0.000000 0.000000 0.393828
O O14 0.851371 0.637182 0.859257
O O15 0.015090 0.640551 0.000000
O O16 0.795971 0.881037 0.500000
#
# Coordination Sequence:
#
# PCOD9526103 Si02
#       6
#    16  16  16  16  16  16
#     4   9  16  27  43  73 113 148 177 218 274 331
#     4   9  17  27  45  73 109 147 181 220 274 328
#     4  10  19  35  57  82 108 140 184 232 280 331
#     4  11  25  40  53  75 111 147 190 229 284 336
#     4   9  17  29  48  75 109 141 175 221 275 326
#     4  10  19  34  54  78 107 145 188 234 278 325
#
# _framework density 23.074534
#
# number of rings (size 3 to 8) (size 9 to 14) (size 15 to 20)
#    0.000    2.333    1.667    1.500    2.333    5.667 
#    0.000    0.000    0.000    0.000    0.000    1.167 
#    0.000    0.000    0.000    0.000    0.000    0.000 
#
# Total GULP energy -268231.705458 kJ/mol
# GULP energy per Si atom -5588.160530 kJ/mol
# Density = 2.302202 g / cm^3
# Si number density = 23.074534 Si / 1000 Ang^3
#
#
#
# Elastic Constant Matrix: (Units=GPa)
#
#
# Indices 1 2 3 4 5 6 
#
# 1 154.3721 36.3420 10.3825 0.0000 0.0000 0.0000
# 2 36.3420 100.2368 16.1817 -0.0001 0.0000 0.0000
# 3 10.3825 16.1817 68.4454 -0.0005 0.0000 0.0000
# 4 0.0000 -0.0001 -0.0005 26.6620 0.0000 0.0000
# 5 0.0000 0.0000 0.0000 0.0000 0.1684 0.0000
# 6 0.0000 0.0000 0.0000 0.0000 0.0000 44.8229
#
#
#
# Elastic Compliance Matrix: (Units=1/GPa)
#
#
# Indices 1 2 3 4 5 6 
#
# 1 0.007098 -0.002495 -0.000487 0.000000 0.000001 0.000000
# 2 -0.002495 0.011249 -0.002281 0.000000 0.000001 0.000000
# 3 -0.000487 -0.002281 0.015223 0.000000 0.000003 0.000000
# 4 0.000000 0.000000 0.000000 0.037507 0.000002 0.000000
# 5 0.000001 0.000001 0.000003 0.000002 5.936823 0.000000
# 6 0.000000 0.000000 0.000000 0.000000 0.000000 0.022310
#
#
# Mechanical properties :
#
#
# Convention : Reuss Voigt Hill
#
# Bulk Modulus (GPa) = 43.39357 49.87406 46.63381
# Shear Modulus (GPa) = 0.82666 31.67388 16.25027
#
# Velocity S-wave (km/s) = 0.59920 3.70898 2.65665
# Velocity P-wave (km/s) = 4.39606 6.32482 5.44650
#
# Compressibility (1/GPa) = 0.02304489
#
# Stress axis : x y z
#
# Youngs Moduli (GPa) = 140.88612 88.89558 65.68875
#
# Poissons Ratio (x) = 0.22178 0.03198
# Poissons Ratio (y) = 0.35149 0.14984
# Poissons Ratio (z) = 0.06859 0.20278
#
# Static dielectric constant tensor:
#      x y z
#    x 1.924470 0.000000 0.000000 
#    y 0.000000 1.856530 0.000000 
#    z 0.000000 0.000000 1.894500 
# 
# From -- ./inp_files/36041.got.cif
#   From: 2010.05.17/outbox.cif.g08.bks.cpg/sg72_19_cif.got.tgz:36041.got - 2010.06.03 17:03:01.
