data_PCOD9526147
_publ_section_title
;
Structure prediction by ZEFSAII (Michael W. Deem and Ramdas Pophale) SiO2 
 PCOD9526147
Probable space group: I B A M
;
_chemical_formula_sum "Si O2"
_cell_formula_units_Z 96
_cell_length_a 8.726800
_cell_length_b 14.499836
_cell_length_c 30.353982
_cell_angle_alpha 90.000000
_cell_angle_beta 90.000000
_cell_angle_gamma 90.000000
_cell_volume 3840.906944
_symmetry_space_group_name_H-M "I B A M"
_symmetry_group_IT_number 72
_symmetry_cell_setting 'orthorhombic'
loop_
_space_group_symop_operation_xyz
x,y,z
-x,-y,z
x,-y,1/2-z
-x,y,1/2-z
-x,-y,-z
x,y,-z
-x,y,1/2+z
x,-y,1/2+z
1/2+x,1/2+y,1/2+z
1/2-x,1/2-y,1/2+z
1/2+x,1/2-y,-z
1/2-x,1/2+y,-z
1/2-x,1/2-y,1/2-z
1/2+x,1/2+y,1/2-z
1/2-x,1/2+y,z
1/2+x,1/2-y,z
loop_
_atom_site_type_symbol
_atom_site_label
_atom_site_fract_x
_atom_site_fract_y
_atom_site_fract_z
Si Si1 0.510877 0.665364 0.623353
Si Si2 0.411293 0.113453 0.047565
Si Si3 0.717903 0.958922 0.137167
Si Si4 0.280781 0.207127 0.572041
Si Si5 0.882075 0.088792 0.799376
Si Si6 0.847399 0.393383 0.230715
O O1 0.618024 0.576838 0.621467
O O2 0.617183 0.750410 0.611149
O O3 0.368444 0.656357 0.590378
O O4 0.459000 0.669302 0.673252
O O5 0.377452 0.057038 0.092549
O O6 0.588318 0.148456 0.048020
O O7 0.297700 0.202946 0.049736
O O8 0.379090 0.068496 0.000000
O O9 0.658275 0.895674 0.177939
O O10 0.752242 0.051407 0.165336
O O11 0.809009 0.131605 0.755626
O O12 0.000000 0.000000 0.794571
O O13 0.849460 0.500000 0.250000
O O14 0.000000 0.349681 0.250000
#
# Coordination Sequence:
#
# PCOD9526147 Si02
#       6
#    16  16  16  16  16  16
#     4   9  18  33  55  80 105 145 178 234 276 321
#     4  10  19  34  57  80 108 146 187 236 278 327
#     4   9  19  33  54  84 114 139 180 225 286 331
#     4   9  19  34  54  80 106 141 197 231 271 322
#     4   9  18  33  57  83 113 145 182 224 282 336
#     4   9  18  31  51  84 111 146 186 226 263 328
#
# _framework density 24.994095000000002
#
# number of rings (size 3 to 8) (size 9 to 14) (size 15 to 20)
#    0.000    2.833    0.000    0.500    2.333    7.667 
#    0.000    0.833    0.000   36.500    0.000    0.000 
#    0.000    0.000    0.000    0.000    0.000    0.000 
#
# Total GULP energy -267386.358855 kJ/mol
# GULP energy per Si atom -5570.549143 kJ/mol
# Density = 2.493721 g / cm^3
# Si number density = 24.994095 Si / 1000 Ang^3
#
#
#
# Elastic Constant Matrix: (Units=GPa)
#
#
# Indices 1 2 3 4 5 6 
#
# 1 150.5862 20.0836 76.2078 0.0000 0.0000 0.0000
# 2 20.0836 41.5249 42.5979 0.0000 0.0000 0.0000
# 3 76.2078 42.5979 226.2810 0.0000 0.0000 0.0000
# 4 0.0000 0.0000 0.0000 4.9446 0.0000 0.0000
# 5 0.0000 0.0000 0.0000 0.0000 -7.8937 0.0000
# 6 0.0000 0.0000 0.0000 0.0000 0.0000 25.6920
#
#
#
# Elastic Compliance Matrix: (Units=1/GPa)
#
#
# Indices 1 2 3 4 5 6 
#
# 1 0.008069 -0.001382 -0.002457 0.000000 0.000000 0.000000
# 2 -0.001382 0.030082 -0.005198 0.000000 0.000000 0.000000
# 3 -0.002457 -0.005198 0.006225 0.000000 0.000000 0.000000
# 4 0.000000 0.000000 0.000000 0.202241 0.000000 0.000000
# 5 0.000000 0.000000 0.000000 0.000000 -0.126683 0.000000
# 6 0.000000 0.000000 0.000000 0.000000 0.000000 0.038923
#
#
# Mechanical properties :
#
#
# Convention : Reuss Voigt Hill
#
# Bulk Modulus (GPa) = 38.01868 77.35229 57.68548
# Shear Modulus (GPa) = 26.92555 23.18210 25.05383
#
# Velocity S-wave (km/s) = 3.28575 3.04880 3.16949
# Velocity P-wave (km/s) = 5.44417 6.58855 6.04351
#
# Compressibility (1/GPa) = 0.02630286
#
# Stress axis : x y z
#
# Youngs Moduli (GPa) = 123.93820 33.24225 160.63397
#
# Poissons Ratio (x) = 0.04593 0.39472
# Poissons Ratio (y) = 0.17123 0.83493
# Poissons Ratio (z) = 0.30455 0.17278
#
# Static dielectric constant tensor:
#      x y z
#    x 2.183740 0.000000 0.000000 
#    y 0.000000 2.130260 0.000000 
#    z 0.000000 0.000000 2.036210 
# 
# From -- ./inp_files/47318.got.cif
#   From: 2010.05.17/outbox.cif.g08.bks.cpg/sg72_24_cif.got.tgz:47318.got - 2010.06.03 17:03:01.
