data_PCOD9526187
_publ_section_title
;
Structure prediction by ZEFSAII (Michael W. Deem and Ramdas Pophale) SiO2 
 PCOD9526187
Probable space group: I B A M
;
_chemical_formula_sum "Si O2"
_cell_formula_units_Z 116
_cell_length_a 11.279178
_cell_length_b 31.634865
_cell_length_c 17.735682
_cell_angle_alpha 90.000000
_cell_angle_beta 90.000000
_cell_angle_gamma 90.000000
_cell_volume 6328.362221
_symmetry_space_group_name_H-M "I B A M"
_symmetry_group_IT_number 72
_symmetry_cell_setting 'orthorhombic'
loop_
_space_group_symop_operation_xyz
x,y,z
-x,-y,z
x,-y,1/2-z
-x,y,1/2-z
-x,-y,-z
x,y,-z
-x,y,1/2+z
x,-y,1/2+z
1/2+x,1/2+y,1/2+z
1/2-x,1/2-y,1/2+z
1/2+x,1/2-y,-z
1/2-x,1/2+y,-z
1/2-x,1/2-y,1/2-z
1/2+x,1/2+y,1/2-z
1/2-x,1/2+y,z
1/2+x,1/2-y,z
loop_
_atom_site_type_symbol
_atom_site_label
_atom_site_fract_x
_atom_site_fract_y
_atom_site_fract_z
Si Si1 0.802701 0.950309 0.341744
Si Si2 0.921135 0.181686 0.410430
Si Si3 0.253977 0.961866 0.590364
Si Si4 0.518031 0.588608 0.588969
Si Si5 0.713440 0.810038 0.204796
Si Si6 0.000000 0.000000 0.750000
Si Si7 0.597494 0.276609 0.312120
Si Si8 0.133496 0.593253 0.219565
O O1 0.910375 0.970764 0.295272
O O2 0.717546 0.926223 0.284626
O O3 0.880919 0.920595 0.394915
O O4 0.740198 0.989072 0.385147
O O5 0.900112 0.181902 0.500000
O O6 0.944777 0.134092 0.380370
O O7 0.807162 0.196397 0.363405
O O8 0.038237 0.208211 0.389193
O O9 0.272998 0.957214 0.500000
O O10 0.119551 0.945640 0.609500
O O11 0.338917 0.933583 0.643362
O O12 0.529480 0.591368 0.500000
O O13 0.617369 0.773472 0.192438
O O14 0.782652 0.799000 0.282830
O O15 0.665409 0.857598 0.205951
O O16 0.500000 0.288981 0.250000
O O17 0.000000 0.589324 0.250000
#
# Coordination Sequence:
#
# PCOD9526187 Si02
#       8
#    16  16  16  16  16   4  16  16
#     4  12  21  37  57  88 118 154 203 258 305 352
#     4  10  20  34  56  88 119 150 189 241 304 365
#     4  11  22  39  60  85 117 155 195 247 312 366
#     4  10  19  34  59  89 120 148 189 247 314 367
#     4  10  20  37  59  82 114 154 197 241 293 357
#     4  12  20  32  56  88 116 140 194 262 308 344
#     4   9  19  36  58  85 111 144 188 245 301 352
#     4  12  25  40  59  84 117 163 208 246 286 359
#
# _framework density 18.330176999999999
#
# number of rings (size 3 to 8) (size 9 to 14) (size 15 to 20)
#    0.000    1.379    4.138    1.655    0.000    2.759 
#    0.000    2.069    0.000    0.828    0.000    0.000 
#    0.000    0.000    0.000    0.000    0.000    0.000 
#
# Total GULP energy -323318.843706 kJ/mol
# GULP energy per Si atom -5574.462823 kJ/mol
# Density = 1.828846 g / cm^3
# Si number density = 18.330177 Si / 1000 Ang^3
#
#
#
# Elastic Constant Matrix: (Units=GPa)
#
#
# Indices 1 2 3 4 5 6 
#
# 1 61.7142 10.8173 28.5110 0.0000 0.0000 0.0000
# 2 10.8173 43.0558 23.9340 0.0000 0.0000 0.0000
# 3 28.5110 23.9340 78.1687 0.0002 -0.0001 0.0000
# 4 0.0000 0.0000 0.0002 19.2875 0.0000 0.0000
# 5 0.0000 0.0000 -0.0001 0.0000 13.8189 0.0000
# 6 0.0000 0.0000 0.0000 0.0000 0.0000 31.0088
#
#
#
# Elastic Compliance Matrix: (Units=1/GPa)
#
#
# Indices 1 2 3 4 5 6 
#
# 1 0.019534 -0.001141 -0.006775 0.000000 0.000000 0.000000
# 2 -0.001141 0.028056 -0.008174 0.000000 0.000000 0.000000
# 3 -0.006775 -0.008174 0.017767 0.000000 0.000000 0.000000
# 4 0.000000 0.000000 0.000000 0.051847 0.000000 0.000000
# 5 0.000000 0.000000 0.000000 0.000000 0.072365 0.000000
# 6 0.000000 0.000000 0.000000 0.000000 0.000000 0.032249
#
#
# Mechanical properties :
#
#
# Convention : Reuss Voigt Hill
#
# Bulk Modulus (GPa) = 30.14277 34.38482 32.26380
# Shear Modulus (GPa) = 18.86380 20.80144 19.83262
#
# Velocity S-wave (km/s) = 3.21146 3.37236 3.29289
# Velocity P-wave (km/s) = 5.49830 5.82779 5.66544
#
# Compressibility (1/GPa) = 0.03317545
#
# Stress axis : x y z
#
# Youngs Moduli (GPa) = 51.19319 35.64263 56.28475
#
# Poissons Ratio (x) = 0.04068 0.38134
# Poissons Ratio (y) = 0.05843 0.46008
# Poissons Ratio (z) = 0.34685 0.29135
#
# Static dielectric constant tensor:
#      x y z
#    x 1.617080 0.000000 0.000000 
#    y 0.000000 1.722470 0.000000 
#    z 0.000000 0.000000 1.713970 
# 
# From -- ./inp_files/29791.got.cif
#   From: 2010.05.17/outbox.cif.g08.bks.cpg/sg72_15_cif.got.tgz:29791.got - 2010.06.03 17:03:01.
