data_PCOD9526602
_publ_section_title
;
Structure prediction by ZEFSAII (Michael W. Deem and Ramdas Pophale) SiO2 
 PCOD9526602
Probable space group: I B A M
;
_chemical_formula_sum "Si O2"
_cell_formula_units_Z 72
_cell_length_a 14.015625
_cell_length_b 12.567111
_cell_length_c 19.830305
_cell_angle_alpha 90.000000
_cell_angle_beta 90.000000
_cell_angle_gamma 90.000000
_cell_volume 3492.828918
_symmetry_space_group_name_H-M "I B A M"
_symmetry_group_IT_number 72
_symmetry_cell_setting 'orthorhombic'
loop_
_space_group_symop_operation_xyz
x,y,z
-x,-y,z
x,-y,1/2-z
-x,y,1/2-z
-x,-y,-z
x,y,-z
-x,y,1/2+z
x,-y,1/2+z
1/2+x,1/2+y,1/2+z
1/2-x,1/2-y,1/2+z
1/2+x,1/2-y,-z
1/2-x,1/2+y,-z
1/2-x,1/2-y,1/2-z
1/2+x,1/2+y,1/2-z
1/2-x,1/2+y,z
1/2+x,1/2-y,z
loop_
_atom_site_type_symbol
_atom_site_label
_atom_site_fract_x
_atom_site_fract_y
_atom_site_fract_z
Si Si1 0.000000 0.500000 0.129133
Si Si2 0.104516 0.305897 0.808204
Si Si3 0.577269 0.292157 0.340059
Si Si4 0.677657 0.115248 0.576178
Si Si5 0.777954 0.957286 0.325595
O O1 0.960900 0.591257 0.177553
O O2 0.914886 0.460287 0.082790
O O3 0.106398 0.263129 0.731910
O O4 0.206122 0.354047 0.830947
O O5 0.037583 0.219223 0.846394
O O6 0.634883 0.225419 0.395852
O O7 0.617702 0.410368 0.337608
O O8 0.711976 0.124405 0.500000
O O9 0.750587 0.053880 0.625181
O O10 0.765744 0.000000 0.250000
#
# Coordination Sequence:
#
# PCOD9526602 Si02
#       5
#     8  16  16  16  16
#     4   8  17  31  54  82 110 140 190 242 296 328
#     4   9  18  32  55  83 110 142 181 241 285 333
#     4  10  20  33  56  83 112 144 189 234 291 339
#     4  10  20  33  53  81 115 149 190 236 286 341
#     4  11  21  35  58  84 113 150 189 238 287 339
#
# _framework density 20.613662999999999
#
# number of rings (size 3 to 8) (size 9 to 14) (size 15 to 20)
#    0.000    2.222    2.222    1.000    3.111    1.778 
#    0.000    2.222    0.000    0.000    0.000    1.556 
#    0.000    0.000    0.000    0.000    0.000    0.000 
#
# Total GULP energy -200524.675422 kJ/mol
# GULP energy per Si atom -5570.129873 kJ/mol
# Density = 2.056675 g / cm^3
# Si number density = 20.613663 Si / 1000 Ang^3
#
#
#
# Elastic Constant Matrix: (Units=GPa)
#
#
# Indices 1 2 3 4 5 6 
#
# 1 65.4942 28.1850 8.1013 0.0000 0.0000 0.0000
# 2 28.1850 30.2431 23.3209 0.0000 0.0000 0.0000
# 3 8.1013 23.3209 124.0845 0.0000 0.0000 0.0000
# 4 0.0000 0.0000 0.0000 -5.2237 0.0000 0.0000
# 5 0.0000 0.0000 0.0000 0.0000 4.2510 0.0000
# 6 0.0000 0.0000 0.0000 0.0000 0.0000 4.7632
#
#
#
# Elastic Compliance Matrix: (Units=1/GPa)
#
#
# Indices 1 2 3 4 5 6 
#
# 1 0.026684 -0.027512 0.003429 0.000000 0.000000 0.000000
# 2 -0.027512 0.067035 -0.010803 0.000000 0.000000 0.000000
# 3 0.003429 -0.010803 0.009865 0.000000 0.000000 0.000000
# 4 0.000000 0.000000 0.000000 -0.191436 0.000000 0.000000
# 5 0.000000 0.000000 0.000000 0.000000 0.235238 0.000000
# 6 0.000000 0.000000 0.000000 0.000000 0.000000 0.209941
#
#
# Mechanical properties :
#
#
# Convention : Reuss Voigt Hill
#
# Bulk Modulus (GPa) = 29.57480 37.67070 33.62275
# Shear Modulus (GPa) = 11.40587 11.43908 11.42248
#
# Velocity S-wave (km/s) = 2.35482 2.35825 2.35653
# Velocity P-wave (km/s) = 4.66604 5.07241 4.87346
#
# Compressibility (1/GPa) = 0.03381257
#
# Stress axis : x y z
#
# Youngs Moduli (GPa) = 37.47558 14.91756 101.36368
#
# Poissons Ratio (x) = 0.41041 -0.34753
# Poissons Ratio (y) = 1.03103 1.09499
# Poissons Ratio (z) = -0.12849 0.16115
#
# Static dielectric constant tensor:
#      x y z
#    x 1.844370 0.000000 0.000000 
#    y 0.000000 1.763910 0.000000 
#    z 0.000000 0.000000 1.718820 
# 
# From -- ./inp_files/31238.got.cif
#   From: 2010.05.17/outbox.cif.g08.bks.cpg/sg72_16_cif.got.tgz:31238.got - 2010.06.03 17:03:01.
