data_PCOD9526537
_publ_section_title
;
Structure prediction by ZEFSAII (Michael W. Deem and Ramdas Pophale) SiO2 
 PCOD9526537
Probable space group: I B A M
;
_chemical_formula_sum "Si O2"
_cell_formula_units_Z 96
_cell_length_a 11.498427
_cell_length_b 29.452918
_cell_length_c 13.527608
_cell_angle_alpha 90.000000
_cell_angle_beta 90.000000
_cell_angle_gamma 90.000000
_cell_volume 4581.289859
_symmetry_space_group_name_H-M "I B A M"
_symmetry_group_IT_number 72
_symmetry_cell_setting 'orthorhombic'
loop_
_space_group_symop_operation_xyz
x,y,z
-x,-y,z
x,-y,1/2-z
-x,y,1/2-z
-x,-y,-z
x,y,-z
-x,y,1/2+z
x,-y,1/2+z
1/2+x,1/2+y,1/2+z
1/2-x,1/2-y,1/2+z
1/2+x,1/2-y,-z
1/2-x,1/2+y,-z
1/2-x,1/2-y,1/2-z
1/2+x,1/2+y,1/2-z
1/2-x,1/2+y,z
1/2+x,1/2-y,z
loop_
_atom_site_type_symbol
_atom_site_label
_atom_site_fract_x
_atom_site_fract_y
_atom_site_fract_z
Si Si1 0.890994 0.330347 0.113026
Si Si2 0.620946 0.472619 0.000000
Si Si3 0.124789 0.923664 0.709078
Si Si4 0.424941 0.268360 0.114870
Si Si5 0.127719 0.478246 0.500000
Si Si6 0.620479 0.073095 0.704544
Si Si7 0.351373 0.315956 0.696092
O O1 0.960483 0.284228 0.132887
O O2 0.896323 0.372991 0.185791
O O3 0.760364 0.312330 0.127531
O O4 0.912648 0.344928 0.000000
O O5 0.500000 0.500000 0.000000
O O6 0.624182 0.440950 0.096629
O O7 0.742855 0.501482 0.000000
O O8 0.252815 0.937323 0.753451
O O9 0.128112 0.869194 0.716598
O O10 0.000000 0.940043 0.750000
O O11 0.340830 0.288295 0.200546
O O12 0.539476 0.297444 0.136053
O O13 0.387014 0.272367 0.000000
O O14 0.129253 0.448307 0.402606
O O15 0.000000 0.500000 0.500000
O O16 0.500000 0.055875 0.750000
#
# Coordination Sequence:
#
# PCOD9526537 Si02
#       7
#    16   8  16  16   8  16  16
#     4  10  20  36  58  80 118 164 207 260 307 367
#     4  10  24  42  68  99 122 160 200 255 314 376
#     4  10  21  40  64  90 123 165 201 251 309 373
#     4  10  20  32  51  82 117 155 208 258 306 353
#     4  10  22  44  70  91 126 164 206 247 316 384
#     4  10  22  39  64  93 122 164 211 252 310 373
#     4  10  20  34  56  82 113 163 212 248 310 368
#
# _framework density 20.954796999999999
#
# number of rings (size 3 to 8) (size 9 to 14) (size 15 to 20)
#    0.000    2.000    2.500    1.000    7.000    2.000 
#    0.000    3.333    5.500    0.000    0.000    0.000 
#    0.000    0.000    0.000    0.000    0.000    0.000 
#
# Total GULP energy -267276.541875 kJ/mol
# GULP energy per Si atom -5568.261289 kJ/mol
# Density = 2.090710 g / cm^3
# Si number density = 20.954797 Si / 1000 Ang^3
#
#
#
# Elastic Constant Matrix: (Units=GPa)
#
#
# Indices 1 2 3 4 5 6 
#
# 1 159.6384 19.9684 32.0658 0.0001 0.0000 0.0001
# 2 19.9684 56.4506 9.2413 0.0001 0.0000 0.0000
# 3 32.0658 9.2413 87.4972 0.0000 -0.0002 0.0002
# 4 0.0001 0.0001 0.0000 51.7515 -0.0001 -0.0001
# 5 0.0000 0.0000 -0.0002 -0.0001 25.6929 -0.0003
# 6 0.0001 0.0000 0.0002 -0.0001 -0.0003 16.9514
#
#
#
# Elastic Compliance Matrix: (Units=1/GPa)
#
#
# Indices 1 2 3 4 5 6 
#
# 1 0.006996 -0.002091 -0.002343 0.000000 0.000000 0.000000
# 2 -0.002091 0.018651 -0.001204 0.000000 0.000000 0.000000
# 3 -0.002343 -0.001204 0.012415 0.000000 0.000000 0.000000
# 4 0.000000 0.000000 0.000000 0.019323 0.000000 0.000000
# 5 0.000000 0.000000 0.000000 0.000000 0.038921 0.000001
# 6 0.000000 0.000000 0.000000 0.000000 0.000001 0.058992
#
#
# Mechanical properties :
#
#
# Convention : Reuss Voigt Hill
#
# Bulk Modulus (GPa) = 37.33202 47.34860 42.34031
# Shear Modulus (GPa) = 28.48937 35.03320 31.76128
#
# Velocity S-wave (km/s) = 3.69123 4.09326 3.89743
# Velocity P-wave (km/s) = 6.00175 6.70703 6.36417
#
# Compressibility (1/GPa) = 0.02678666
#
# Stress axis : x y z
#
# Youngs Moduli (GPa) = 142.93055 53.61534 80.54928
#
# Poissons Ratio (x) = 0.11212 0.18874
# Poissons Ratio (y) = 0.29891 0.09694
# Poissons Ratio (z) = 0.33491 0.06453
#
# Static dielectric constant tensor:
#      x y z
#    x 1.742600 0.000000 0.000000 
#    y 0.000000 1.793290 0.000000 
#    z 0.000000 0.000000 1.743340 
# 
# From -- ./inp_files/20643.got.cif
#   From: 2010.05.17/outbox.cif.g08.bks.cpg/sg72_11_cif.got.tgz:20643.got - 2010.06.03 17:03:01.
