data_PCOD9526851
_publ_section_title
;
Structure prediction by ZEFSAII (Michael W. Deem and Ramdas Pophale) SiO2 
 PCOD9526851
Probable space group: I B A M
;
_chemical_formula_sum "Si O2"
_cell_formula_units_Z 96
_cell_length_a 14.509973
_cell_length_b 21.076024
_cell_length_c 18.113557
_cell_angle_alpha 90.000000
_cell_angle_beta 90.000000
_cell_angle_gamma 90.000000
_cell_volume 5539.352860
_symmetry_space_group_name_H-M "I B A M"
_symmetry_group_IT_number 72
_symmetry_cell_setting 'orthorhombic'
loop_
_space_group_symop_operation_xyz
x,y,z
-x,-y,z
x,-y,1/2-z
-x,y,1/2-z
-x,-y,-z
x,y,-z
-x,y,1/2+z
x,-y,1/2+z
1/2+x,1/2+y,1/2+z
1/2-x,1/2-y,1/2+z
1/2+x,1/2-y,-z
1/2-x,1/2+y,-z
1/2-x,1/2-y,1/2-z
1/2+x,1/2+y,1/2-z
1/2-x,1/2+y,z
1/2+x,1/2-y,z
loop_
_atom_site_type_symbol
_atom_site_label
_atom_site_fract_x
_atom_site_fract_y
_atom_site_fract_z
Si Si1 0.944835 0.300817 0.413204
Si Si2 0.431145 0.054366 0.412435
Si Si3 0.269152 0.198513 0.312021
Si Si4 0.454069 0.435955 0.830963
Si Si5 0.736557 0.943729 0.694670
Si Si6 0.087993 0.811302 0.912650
O O1 0.917791 0.295851 0.500000
O O2 0.969935 0.374606 0.399864
O O3 0.859739 0.286379 0.359571
O O4 0.026633 0.251319 0.400563
O O5 0.420607 0.045920 0.500000
O O6 0.331456 0.050845 0.374777
O O7 0.500000 0.000000 0.384404
O O8 0.250000 0.250000 0.250000
O O9 0.278641 0.128142 0.276990
O O10 0.183141 0.194546 0.368154
O O11 0.500000 0.500000 0.861617
O O12 0.500000 0.425521 0.750000
O O13 0.344933 0.448608 0.822973
O O14 0.463467 0.373277 0.880274
O O15 0.712521 0.000000 0.750000
O O16 0.104268 0.818745 0.000000
#
# Coordination Sequence:
#
# PCOD9526851 Si02
#       6
#    16  16  16  16  16  16
#     4   9  19  36  56  80 112 145 182 231 282 329
#     4   9  19  37  58  79 107 147 187 228 279 332
#     4  10  22  35  56  81 108 149 188 230 278 340
#     4  10  20  36  59  81 112 150 180 232 284 337
#     4  10  20  35  55  80 111 142 180 229 282 325
#     4  10  22  37  57  82 112 147 187 235 282 338
#
# _framework density 17.330542999999999
#
# number of rings (size 3 to 8) (size 9 to 14) (size 15 to 20)
#    0.000    2.333    1.667    0.500    4.667    6.000 
#    0.000    3.333    0.000    5.000    0.000    0.000 
#    0.000    0.000    0.000    0.000    0.000    0.000 
#
# Total GULP energy -267604.509318 kJ/mol
# GULP energy per Si atom -5575.093944 kJ/mol
# Density = 1.729110 g / cm^3
# Si number density = 17.330543 Si / 1000 Ang^3
#
#
#
# Elastic Constant Matrix: (Units=GPa)
#
#
# Indices 1 2 3 4 5 6 
#
# 1 60.1135 42.6516 32.3944 0.0000 0.0000 0.0000
# 2 42.6516 122.6429 70.1404 0.0000 0.0000 0.0000
# 3 32.3944 70.1404 64.2297 0.0000 0.0000 0.0000
# 4 0.0000 0.0000 0.0000 33.1700 0.0000 0.0000
# 5 0.0000 0.0000 0.0000 0.0000 11.6434 0.0000
# 6 0.0000 0.0000 0.0000 0.0000 0.0000 28.4405
#
#
#
# Elastic Compliance Matrix: (Units=1/GPa)
#
#
# Indices 1 2 3 4 5 6 
#
# 1 0.023460 -0.003707 -0.007784 0.000000 0.000000 0.000000
# 2 -0.003707 0.022302 -0.022485 0.000000 0.000000 0.000000
# 3 -0.007784 -0.022485 0.044049 0.000000 0.000000 0.000000
# 4 0.000000 0.000000 0.000000 0.030148 0.000000 0.000000
# 5 0.000000 0.000000 0.000000 0.000000 0.085885 0.000000
# 6 0.000000 0.000000 0.000000 0.000000 0.000000 0.035161
#
#
# Mechanical properties :
#
#
# Convention : Reuss Voigt Hill
#
# Bulk Modulus (GPa) = 45.74671 59.70654 52.72662
# Shear Modulus (GPa) = 15.81055 21.43742 18.62398
#
# Velocity S-wave (km/s) = 3.02370 3.52088 3.28172
# Velocity P-wave (km/s) = 6.21645 7.14529 6.69699
#
# Compressibility (1/GPa) = 0.02185950
#
# Stress axis : x y z
#
# Youngs Moduli (GPa) = 42.62556 44.83845 22.70186
#
# Poissons Ratio (x) = 0.16621 0.17671
# Poissons Ratio (y) = 0.15801 0.51045
# Poissons Ratio (z) = 0.33180 1.00819
#
# Static dielectric constant tensor:
#      x y z
#    x 1.562350 0.000000 0.000000 
#    y 0.000000 1.606100 0.000000 
#    z 0.000000 0.000000 1.572460 
# 
# From -- ./inp_files/24123.got.cif
#   From: 2010.05.17/outbox.cif.g08.bks.cpg/sg72_13_cif.got.tgz:24123.got - 2010.06.03 17:03:01.
