data_PCOD9526597
_publ_section_title
;
Structure prediction by ZEFSAII (Michael W. Deem and Ramdas Pophale) SiO2 
 PCOD9526597
Probable space group: I B A M
;
_chemical_formula_sum "Si O2"
_cell_formula_units_Z 116
_cell_length_a 23.899035
_cell_length_b 28.738653
_cell_length_c 7.840235
_cell_angle_alpha 90.000000
_cell_angle_beta 90.000000
_cell_angle_gamma 90.000000
_cell_volume 5384.877824
_symmetry_space_group_name_H-M "I B A M"
_symmetry_group_IT_number 72
_symmetry_cell_setting 'orthorhombic'
loop_
_space_group_symop_operation_xyz
x,y,z
-x,-y,z
x,-y,1/2-z
-x,y,1/2-z
-x,-y,-z
x,y,-z
-x,y,1/2+z
x,-y,1/2+z
1/2+x,1/2+y,1/2+z
1/2-x,1/2-y,1/2+z
1/2+x,1/2-y,-z
1/2-x,1/2+y,-z
1/2-x,1/2-y,1/2-z
1/2+x,1/2+y,1/2-z
1/2-x,1/2+y,z
1/2+x,1/2-y,z
loop_
_atom_site_type_symbol
_atom_site_label
_atom_site_fract_x
_atom_site_fract_y
_atom_site_fract_z
Si Si1 0.907758 0.072942 0.290860
Si Si2 0.746515 0.196248 0.197736
Si Si3 0.180041 0.386627 0.698331
Si Si4 0.437538 0.868571 0.300692
Si Si5 0.870127 0.826919 0.793697
Si Si6 0.500000 0.500000 0.250000
Si Si7 0.937800 0.738919 0.796433
Si Si8 0.780504 0.947989 0.795481
O O1 0.915028 0.066998 0.500000
O O2 0.907783 0.128105 0.249918
O O3 0.844503 0.059358 0.238894
O O4 0.952865 0.039510 0.200845
O O5 0.750000 0.250000 0.250000
O O6 0.699520 0.166996 0.294680
O O7 0.806478 0.172010 0.230609
O O8 0.732128 0.194161 0.000000
O O9 0.176852 0.400849 0.500000
O O10 0.118393 0.391148 0.777737
O O11 0.231845 0.414953 0.775875
O O12 0.500000 0.882882 0.250000
O O13 0.434386 0.876927 0.500000
O O14 0.432224 0.813109 0.272117
O O15 0.895690 0.778218 0.732837
O O16 0.867239 0.826703 0.000000
O O17 0.000000 0.755063 0.750000
O O18 0.932198 0.735913 0.000000
O O19 0.764318 0.000000 0.750000
O O20 0.783425 0.940793 0.000000
#
# Coordination Sequence:
#
# PCOD9526597 Si02
#       8
#    16  16  16  16  16   4  16  16
#     4  10  21  38  58  79 111 152 193 247 307 355
#     4  12  24  36  56  86 118 154 196 245 297 357
#     4  10  21  39  61  84 115 155 194 236 293 354
#     4  10  20  35  58  84 114 150 188 229 279 339
#     4  10  21  39  56  75 111 156 196 244 302 351
#     4  12  22  36  60  90 116 148 208 256 318 376
#     4  10  20  33  53  77 109 151 193 236 285 342
#     4  10  20  39  63  86 116 151 191 242 298 353
#
# _framework density 21.541808
#
# number of rings (size 3 to 8) (size 9 to 14) (size 15 to 20)
#    0.000    1.655    2.069    3.931    0.966    4.966 
#    0.000    1.379    0.000    0.414    0.000    2.897 
#    0.000    0.000    0.000    0.000    0.000    0.000 
#
# Total GULP energy -323449.229629 kJ/mol
# GULP energy per Si atom -5576.710856 kJ/mol
# Density = 2.149278 g / cm^3
# Si number density = 21.541808 Si / 1000 Ang^3
#
#
#
# Elastic Constant Matrix: (Units=GPa)
#
#
# Indices 1 2 3 4 5 6 
#
# 1 184.0229 41.7799 9.2585 0.0000 0.0000 0.0000
# 2 41.7799 63.2706 -1.9736 0.0000 0.0000 0.0000
# 3 9.2585 -1.9736 35.9462 0.0000 0.0000 0.0000
# 4 0.0000 0.0000 0.0000 7.9327 0.0000 0.0000
# 5 0.0000 0.0000 0.0000 0.0000 -2.6352 0.0000
# 6 0.0000 0.0000 0.0000 0.0000 0.0000 46.1543
#
#
#
# Elastic Compliance Matrix: (Units=1/GPa)
#
#
# Indices 1 2 3 4 5 6 
#
# 1 0.006522 -0.004367 -0.001920 0.000000 0.000000 0.000000
# 2 -0.004367 0.018756 0.002154 0.000000 0.000000 0.000000
# 3 -0.001920 0.002154 0.028432 0.000000 0.000000 0.000000
# 4 0.000000 0.000000 0.000000 0.126061 0.000000 0.000000
# 5 0.000000 0.000000 0.000000 0.000000 -0.379485 0.000000
# 6 0.000000 0.000000 0.000000 0.000000 0.000000 0.021666
#
#
# Mechanical properties :
#
#
# Convention : Reuss Voigt Hill
#
# Bulk Modulus (GPa) = 22.00398 42.37438 32.18918
# Shear Modulus (GPa) = -32.33415 25.90203 -3.21606
#
# Velocity S-wave (km/s) = -3.87847 3.47134 -1.22319
# Velocity P-wave (km/s) = 3.13369 5.98167 3.60280
#
# Compressibility (1/GPa) = 0.04544632
#
# Stress axis : x y z
#
# Youngs Moduli (GPa) = 153.32546 53.31688 35.17158
#
# Poissons Ratio (x) = 0.23282 0.06752
# Poissons Ratio (y) = 0.66952 -0.07578
# Poissons Ratio (z) = 0.29432 -0.11487
#
# Static dielectric constant tensor:
#      x y z
#    x 1.835510 0.000000 0.000000 
#    y 0.000000 1.779810 0.000000 
#    z 0.000000 0.000000 2.388070 
# 
# From -- ./inp_files/7565.got.cif
#   From: 2010.05.17/outbox.cif.g08.bks.cpg/sg72_4_cif.got.tgz:7565.got - 2010.06.03 17:03:01.
