data_PCOD9526520
_publ_section_title
;
Structure prediction by ZEFSAII (Michael W. Deem and Ramdas Pophale) SiO2 
 PCOD9526520
Probable space group: I B A M
;
_chemical_formula_sum "Si O2"
_cell_formula_units_Z 112
_cell_length_a 13.285595
_cell_length_b 29.367333
_cell_length_c 18.042797
_cell_angle_alpha 90.000000
_cell_angle_beta 90.000000
_cell_angle_gamma 90.000000
_cell_volume 7039.622649
_symmetry_space_group_name_H-M "I B A M"
_symmetry_group_IT_number 72
_symmetry_cell_setting 'orthorhombic'
loop_
_space_group_symop_operation_xyz
x,y,z
-x,-y,z
x,-y,1/2-z
-x,y,1/2-z
-x,-y,-z
x,y,-z
-x,y,1/2+z
x,-y,1/2+z
1/2+x,1/2+y,1/2+z
1/2-x,1/2-y,1/2+z
1/2+x,1/2-y,-z
1/2-x,1/2+y,-z
1/2-x,1/2-y,1/2-z
1/2+x,1/2+y,1/2-z
1/2-x,1/2+y,z
1/2+x,1/2-y,z
loop_
_atom_site_type_symbol
_atom_site_label
_atom_site_fract_x
_atom_site_fract_y
_atom_site_fract_z
Si Si1 0.315936 0.186553 0.833082
Si Si2 0.447259 0.722756 0.327986
Si Si3 0.878724 0.506359 0.335094
Si Si4 0.644951 0.256398 0.087700
Si Si5 0.744933 0.829511 0.334793
Si Si6 0.349244 0.085809 0.587327
Si Si7 0.588421 0.900308 0.088438
O O1 0.392038 0.228520 0.820215
O O2 0.224167 0.207159 0.880342
O O3 0.277181 0.171254 0.752719
O O4 0.368690 0.145605 0.876279
O O5 0.500000 0.711401 0.250000
O O6 0.533793 0.728315 0.388737
O O7 0.359345 0.687117 0.346729
O O8 0.845979 0.500000 0.250000
O O9 0.834566 0.465432 0.383700
O O10 0.863225 0.556017 0.370354
O O11 0.000000 0.500000 0.336066
O O12 0.674100 0.208755 0.126919
O O13 0.654591 0.251617 0.000000
O O14 0.717524 0.877823 0.369297
O O15 0.330541 0.088751 0.500000
O O16 0.467562 0.097619 0.600094
O O17 0.605925 0.902605 0.000000
#
# Coordination Sequence:
#
# PCOD9526520 Si02
#       7
#    16  16  16  16  16  16  16
#     4  11  21  33  53  73 100 136 174 211 252 310
#     4  11  20  37  53  72 101 140 175 214 262 304
#     4   9  17  31  49  71 101 137 173 207 254 311
#     4  11  22  35  51  74 103 132 171 217 258 305
#     4  11  21  34  54  73 101 137 175 214 256 311
#     4  10  20  32  48  75 107 136 170 212 255 308
#     4  10  20  32  49  74 107 140 171 210 262 310
#
# _framework density 15.909943999999999
#
# number of rings (size 3 to 8) (size 9 to 14) (size 15 to 20)
#    0.000    1.571    2.857    3.857    0.000    7.429 
#    0.000    0.000    0.000    0.000    0.000    1.000 
#    0.000    3.429    0.000    0.000    0.000    0.000 
#
# Total GULP energy -312640.436506 kJ/mol
# GULP energy per Si atom -5582.864938 kJ/mol
# Density = 1.587373 g / cm^3
# Si number density = 15.909944 Si / 1000 Ang^3
#
#
#
# Elastic Constant Matrix: (Units=GPa)
#
#
# Indices 1 2 3 4 5 6 
#
# 1 60.7552 20.8258 22.2874 0.0000 0.0000 0.0000
# 2 20.8258 78.5089 11.9928 0.0000 0.0000 0.0000
# 3 22.2874 11.9928 72.4856 -0.0001 0.0000 0.0000
# 4 0.0000 0.0000 -0.0001 24.6097 0.0000 0.0000
# 5 0.0000 0.0000 0.0000 0.0000 14.7736 0.0000
# 6 0.0000 0.0000 0.0000 0.0000 0.0000 18.6305
#
#
#
# Elastic Compliance Matrix: (Units=1/GPa)
#
#
# Indices 1 2 3 4 5 6 
#
# 1 0.019974 -0.004473 -0.005401 0.000000 0.000000 0.000000
# 2 -0.004473 0.014070 -0.000952 0.000000 0.000000 0.000000
# 3 -0.005401 -0.000952 0.015614 0.000000 0.000000 0.000000
# 4 0.000000 0.000000 0.000000 0.040634 0.000000 0.000000
# 5 0.000000 0.000000 0.000000 0.000000 0.067688 0.000000
# 6 0.000000 0.000000 0.000000 0.000000 0.000000 0.053675
#
#
# Mechanical properties :
#
#
# Convention : Reuss Voigt Hill
#
# Bulk Modulus (GPa) = 35.70963 35.77352 35.74157
# Shear Modulus (GPa) = 20.60621 22.04567 21.32594
#
# Velocity S-wave (km/s) = 3.60276 3.72648 3.66514
# Velocity P-wave (km/s) = 6.30873 6.40697 6.35804
#
# Compressibility (1/GPa) = 0.02800365
#
# Stress axis : x y z
#
# Youngs Moduli (GPa) = 50.06411 71.07546 64.04420
#
# Poissons Ratio (x) = 0.31795 0.34593
# Poissons Ratio (y) = 0.22396 0.06099
# Poissons Ratio (z) = 0.27042 0.06769
#
# Static dielectric constant tensor:
#      x y z
#    x 1.516910 0.000000 0.000000 
#    y 0.000000 1.523060 0.000000 
#    z 0.000000 0.000000 1.529970 
# 
# From -- ./inp_files/20673.got.cif
#   From: 2010.05.17/outbox.cif.g08.bks.cpg/sg72_11_cif.got.tgz:20673.got - 2010.06.03 17:03:01.
