data_PCOD9526204
_publ_section_title
;
Structure prediction by ZEFSAII (Michael W. Deem and Ramdas Pophale) SiO2 
 PCOD9526204
Probable space group: I B A M
;
_chemical_formula_sum "Si O2"
_cell_formula_units_Z 64
_cell_length_a 5.219675
_cell_length_b 34.888971
_cell_length_c 16.456822
_cell_angle_alpha 90.000000
_cell_angle_beta 90.000000
_cell_angle_gamma 90.000000
_cell_volume 2996.936874
_symmetry_space_group_name_H-M "I B A M"
_symmetry_group_IT_number 72
_symmetry_cell_setting 'orthorhombic'
loop_
_space_group_symop_operation_xyz
x,y,z
-x,-y,z
x,-y,1/2-z
-x,y,1/2-z
-x,-y,-z
x,y,-z
-x,y,1/2+z
x,-y,1/2+z
1/2+x,1/2+y,1/2+z
1/2-x,1/2-y,1/2+z
1/2+x,1/2-y,-z
1/2-x,1/2+y,-z
1/2-x,1/2-y,1/2-z
1/2+x,1/2+y,1/2-z
1/2-x,1/2+y,z
1/2+x,1/2-y,z
loop_
_atom_site_type_symbol
_atom_site_label
_atom_site_fract_x
_atom_site_fract_y
_atom_site_fract_z
Si Si1 0.971916 0.271069 0.151812
Si Si2 0.745068 0.517188 0.157219
Si Si3 0.375774 0.392917 0.837491
Si Si4 0.125868 0.355252 0.406099
O O1 0.760515 0.239530 0.125513
O O2 0.860240 0.311018 0.120135
O O3 0.000000 0.272484 0.250000
O O4 0.500000 0.500000 0.114151
O O5 0.746801 0.500000 0.250000
O O6 0.703807 0.562415 0.158846
O O7 0.000000 0.500000 0.119450
O O8 0.500000 0.385403 0.750000
O O9 0.607583 0.378150 0.894272
O O10 0.110161 0.371624 0.853859
O O11 0.051216 0.357973 0.500000
#
# Coordination Sequence:
#
# PCOD9526204 Si02
#       4
#    16  16  16  16
#     4  10  21  40  67  96 128 168 224 283 326 377
#     4  10  19  34  61  99 123 151 210 293 323 371
#     4  12  23  41  70  99 128 173 228 283 331 385
#     4  12  27  43  63  98 145 181 217 268 339 414
#
# _framework density 21.355139999999999
#
# number of rings (size 3 to 8) (size 9 to 14) (size 15 to 20)
#    0.000    1.000    2.500    6.000    3.500    3.000 
#    0.000    0.000    0.000   15.000    0.000    0.000 
#    0.000    0.000    0.000    0.000    0.000    0.000 
#
# Total GULP energy -178600.770556 kJ/mol
# GULP energy per Si atom -5581.274080 kJ/mol
# Density = 2.130653 g / cm^3
# Si number density = 21.355140 Si / 1000 Ang^3
#
#
#
# Elastic Constant Matrix: (Units=GPa)
#
#
# Indices 1 2 3 4 5 6 
#
# 1 167.8508 46.7403 8.3572 0.0000 0.0000 0.0000
# 2 46.7403 119.9804 16.8435 0.0000 0.0000 0.0000
# 3 8.3572 16.8435 29.0724 0.0000 0.0000 0.0000
# 4 0.0000 0.0000 0.0000 -59.3556 0.0000 0.0000
# 5 0.0000 0.0000 0.0000 0.0000 24.4007 0.0000
# 6 0.0000 0.0000 0.0000 0.0000 0.0000 48.2111
#
#
#
# Elastic Compliance Matrix: (Units=1/GPa)
#
#
# Indices 1 2 3 4 5 6 
#
# 1 0.006688 -0.002542 -0.000450 0.000000 0.000000 0.000000
# 2 -0.002542 0.010039 -0.005085 0.000000 0.000000 0.000000
# 3 -0.000450 -0.005085 0.037472 0.000000 0.000000 0.000000
# 4 0.000000 0.000000 0.000000 -0.016848 0.000000 0.000000
# 5 0.000000 0.000000 0.000000 0.000000 0.040982 0.000000
# 6 0.000000 0.000000 0.000000 0.000000 0.000000 0.020742
#
#
# Mechanical properties :
#
#
# Convention : Reuss Voigt Hill
#
# Bulk Modulus (GPa) = 26.28486 51.19839 38.74163
# Shear Modulus (GPa) = 39.08922 18.98209 29.03565
#
# Velocity S-wave (km/s) = 4.28300 2.98464 3.69135
# Velocity P-wave (km/s) = 6.06580 5.99201 6.02902
#
# Compressibility (1/GPa) = 0.03804471
#
# Stress axis : x y z
#
# Youngs Moduli (GPa) = 149.52160 99.61143 26.68631
#
# Poissons Ratio (x) = 0.25324 0.01200
# Poissons Ratio (y) = 0.38013 0.13571
# Poissons Ratio (z) = 0.06723 0.50657
#
# Static dielectric constant tensor:
#      x y z
#    x 1.778830 0.000000 0.000000 
#    y 0.000000 1.941050 0.000000 
#    z 0.000000 0.000000 1.782870 
# 
# From -- ./inp_files/27030.got.cif
#   From: 2010.05.17/outbox.cif.g08.bks.cpg/sg72_14_cif.got.tgz:27030.got - 2010.06.03 17:03:01.
