data_PCOD9526671
_publ_section_title
;
Structure prediction by ZEFSAII (Michael W. Deem and Ramdas Pophale) SiO2 
 PCOD9526671
Probable space group: I B A M
;
_chemical_formula_sum "Si O2"
_cell_formula_units_Z 96
_cell_length_a 24.308346
_cell_length_b 9.333065
_cell_length_c 21.024640
_cell_angle_alpha 90.000000
_cell_angle_beta 90.000000
_cell_angle_gamma 90.000000
_cell_volume 4769.888949
_symmetry_space_group_name_H-M "I B A M"
_symmetry_group_IT_number 72
_symmetry_cell_setting 'orthorhombic'
loop_
_space_group_symop_operation_xyz
x,y,z
-x,-y,z
x,-y,1/2-z
-x,y,1/2-z
-x,-y,-z
x,y,-z
-x,y,1/2+z
x,-y,1/2+z
1/2+x,1/2+y,1/2+z
1/2-x,1/2-y,1/2+z
1/2+x,1/2-y,-z
1/2-x,1/2+y,-z
1/2-x,1/2-y,1/2-z
1/2+x,1/2+y,1/2-z
1/2-x,1/2+y,z
1/2+x,1/2-y,z
loop_
_atom_site_type_symbol
_atom_site_label
_atom_site_fract_x
_atom_site_fract_y
_atom_site_fract_z
Si Si1 0.642127 0.891086 0.569865
Si Si2 0.706151 0.175165 0.294839
Si Si3 0.097538 0.619714 0.707348
Si Si4 0.867937 0.945697 0.068545
Si Si5 0.061208 0.062028 0.813423
Si Si6 0.239524 0.930358 0.122501
O O1 0.628691 0.956651 0.500000
O O2 0.616127 0.941308 0.637664
O O3 0.625236 0.725261 0.566677
O O4 0.707750 0.892789 0.580195
O O5 0.750000 0.250000 0.250000
O O6 0.650841 0.157974 0.252616
O O7 0.706528 0.290482 0.352563
O O8 0.733434 0.029839 0.322249
O O9 0.068087 0.500000 0.750000
O O10 0.064890 0.766231 0.694002
O O11 0.906009 0.993092 0.125953
O O12 0.805090 0.977449 0.085241
O O13 0.882316 0.007721 0.000000
O O14 0.088832 0.000000 0.750000
O O15 0.000000 0.000000 0.816578
#
# Coordination Sequence:
#
# PCOD9526671 Si02
#       6
#    16  16  16  16  16  16
#     4  10  20  34  51  80 124 165 199 239 289 355
#     4  12  20  31  53  84 120 164 210 245 286 355
#     4  11  20  37  60  90 119 158 206 249 307 369
#     4  10  21  37  58  87 120 164 205 245 300 360
#     4  10  22  42  64  87 117 151 204 267 319 360
#     4  12  20  34  52  82 125 166 206 242 284 356
#
# _framework density 20.126253999999999
#
# number of rings (size 3 to 8) (size 9 to 14) (size 15 to 20)
#    0.000    1.167    5.000    3.000    0.000    0.333 
#    0.000    1.667    0.000    0.000    0.000    0.000 
#    0.000   24.000    0.000    0.000    0.000    0.000 
#
# Total GULP energy -267496.139602 kJ/mol
# GULP energy per Si atom -5572.836242 kJ/mol
# Density = 2.008045 g / cm^3
# Si number density = 20.126254 Si / 1000 Ang^3
#
#
#
# Elastic Constant Matrix: (Units=GPa)
#
#
# Indices 1 2 3 4 5 6 
#
# 1 64.1790 21.8956 42.3560 0.0000 0.0000 0.0000
# 2 21.8956 65.8086 27.7159 0.0000 0.0000 0.0000
# 3 42.3560 27.7159 174.7479 0.0000 0.0000 0.0000
# 4 0.0000 0.0000 0.0000 22.5949 0.0000 0.0000
# 5 0.0000 0.0000 0.0000 0.0000 210.0293 0.0000
# 6 0.0000 0.0000 0.0000 0.0000 0.0000 24.0704
#
#
#
# Elastic Compliance Matrix: (Units=1/GPa)
#
#
# Indices 1 2 3 4 5 6 
#
# 1 0.019936 -0.004927 -0.004051 0.000000 0.000000 0.000000
# 2 -0.004927 0.017501 -0.001582 0.000000 0.000000 0.000000
# 3 -0.004051 -0.001582 0.006955 0.000000 0.000000 0.000000
# 4 0.000000 0.000000 0.000000 0.044258 0.000000 0.000000
# 5 0.000000 0.000000 0.000000 0.000000 0.004761 0.000000
# 6 0.000000 0.000000 0.000000 0.000000 0.000000 0.041545
#
#
# Mechanical properties :
#
#
# Convention : Reuss Voigt Hill
#
# Bulk Modulus (GPa) = 42.96728 54.29673 48.63201
# Shear Modulus (GPa) = 30.51912 65.52343 48.02128
#
# Velocity S-wave (km/s) = 3.89830 5.71199 4.88997
# Velocity P-wave (km/s) = 6.45427 8.39876 7.48988
#
# Compressibility (1/GPa) = 0.02327352
#
# Stress axis : x y z
#
# Youngs Moduli (GPa) = 50.16151 57.13979 143.77791
#
# Poissons Ratio (x) = 0.28152 0.58239
# Poissons Ratio (y) = 0.24714 0.22739
# Poissons Ratio (z) = 0.20319 0.09037
#
# Static dielectric constant tensor:
#      x y z
#    x 1.697980 0.000000 0.000000 
#    y 0.000000 1.787360 0.000000 
#    z 0.000000 0.000000 1.821110 
# 
# From -- ./inp_files/40668.got.cif
#   From: 2010.05.17/outbox.cif.g08.bks.cpg/sg72_21_cif.got.tgz:40668.got - 2010.06.03 17:03:01.
