data_PCOD9526916
_publ_section_title
;
Structure prediction by ZEFSAII (Michael W. Deem and Ramdas Pophale) SiO2 
 PCOD9526916
Probable space group: I B A M
;
_chemical_formula_sum "Si O2"
_cell_formula_units_Z 112
_cell_length_a 28.642715
_cell_length_b 13.458209
_cell_length_c 14.571639
_cell_angle_alpha 90.000000
_cell_angle_beta 90.000000
_cell_angle_gamma 90.000000
_cell_volume 5617.070226
_symmetry_space_group_name_H-M "I B A M"
_symmetry_group_IT_number 72
_symmetry_cell_setting 'orthorhombic'
loop_
_space_group_symop_operation_xyz
x,y,z
-x,-y,z
x,-y,1/2-z
-x,y,1/2-z
-x,-y,-z
x,y,-z
-x,y,1/2+z
x,-y,1/2+z
1/2+x,1/2+y,1/2+z
1/2-x,1/2-y,1/2+z
1/2+x,1/2-y,-z
1/2-x,1/2+y,-z
1/2-x,1/2-y,1/2-z
1/2+x,1/2+y,1/2-z
1/2-x,1/2+y,z
1/2+x,1/2-y,z
loop_
_atom_site_type_symbol
_atom_site_label
_atom_site_fract_x
_atom_site_fract_y
_atom_site_fract_z
Si Si1 0.612012 0.714796 0.889155
Si Si2 0.069775 0.764104 0.388812
Si Si3 0.784660 0.309196 0.683256
Si Si4 0.801210 0.919258 0.610279
Si Si5 0.160802 0.126733 0.892543
Si Si6 0.482262 0.392541 0.888633
Si Si7 0.384217 0.116611 0.745998
O O1 0.660515 0.662573 0.859506
O O2 0.569601 0.641177 0.863430
O O3 0.605432 0.818702 0.837082
O O4 0.612192 0.726964 0.000000
O O5 0.071893 0.751902 0.500000
O O6 0.109337 0.844281 0.359193
O O7 0.085341 0.666012 0.335412
O O8 0.019771 0.808390 0.363133
O O9 0.750000 0.250000 0.750000
O O10 0.750770 0.387960 0.635725
O O11 0.806872 0.222859 0.620400
O O12 0.829337 0.363181 0.726475
O O13 0.803890 0.920203 0.500000
O O14 0.816078 0.027545 0.646217
O O15 0.154704 0.108066 0.000000
O O16 0.500000 0.500000 0.856479
O O17 0.482551 0.397048 0.000000
O O18 0.392993 0.000000 0.750000
#
# Coordination Sequence:
#
# PCOD9526916 Si02
#       7
#    16  16  16  16  16  16  16
#     4  10  21  39  60  89 123 153 193 242 294 353
#     4   9  19  39  62  88 122 154 191 241 294 355
#     4  11  22  36  54  79 112 146 193 242 286 344
#     4  10  20  35  58  84 114 151 188 235 295 354
#     4   9  19  35  55  81 112 146 185 230 288 351
#     4   9  17  34  65  97 125 156 190 237 299 358
#     4  11  25  42  59  84 115 157 207 248 293 344
#
# _framework density 19.939219999999999
#
# number of rings (size 3 to 8) (size 9 to 14) (size 15 to 20)
#    0.000    2.143    1.429    1.286    2.000    5.143 
#    0.000    4.286    0.000    2.571    0.000    0.000 
#    0.000    0.000    0.000    0.000    0.000    0.000 
#
# Total GULP energy -312640.918277 kJ/mol
# GULP energy per Si atom -5582.873541 kJ/mol
# Density = 1.989384 g / cm^3
# Si number density = 19.939220 Si / 1000 Ang^3
#
#
#
# Elastic Constant Matrix: (Units=GPa)
#
#
# Indices 1 2 3 4 5 6 
#
# 1 102.1549 29.7625 22.0199 0.0000 0.0000 0.0000
# 2 29.7625 128.7687 31.9879 0.0000 0.0000 0.0000
# 3 22.0199 31.9879 54.3044 0.0000 0.0000 0.0000
# 4 0.0000 0.0000 0.0000 -0.3476 0.0000 0.0000
# 5 0.0000 0.0000 0.0000 0.0000 21.7489 0.0000
# 6 0.0000 0.0000 0.0000 0.0000 0.0000 19.3290
#
#
#
# Elastic Compliance Matrix: (Units=1/GPa)
#
#
# Indices 1 2 3 4 5 6 
#
# 1 0.011030 -0.001685 -0.003480 0.000000 0.000000 0.000000
# 2 -0.001685 0.009354 -0.004827 0.000000 0.000000 0.000000
# 3 -0.003480 -0.004827 0.022669 0.000000 0.000000 0.000000
# 4 0.000000 0.000000 0.000000 -2.876535 0.000000 0.000000
# 5 0.000000 0.000000 0.000000 0.000000 0.045979 0.000000
# 6 0.000000 0.000000 0.000000 0.000000 0.000000 0.051736
#
#
# Mechanical properties :
#
#
# Convention : Reuss Voigt Hill
#
# Bulk Modulus (GPa) = 43.34692 50.30763 46.82727
# Shear Modulus (GPa) = -1.84632 21.57656 9.86512
#
# Velocity S-wave (km/s) = -0.96332 3.29312 2.22673
# Velocity P-wave (km/s) = 4.53315 6.30435 5.49064
#
# Compressibility (1/GPa) = 0.02306969
#
# Stress axis : x y z
#
# Youngs Moduli (GPa) = 90.66106 106.90179 44.11277
#
# Poissons Ratio (x) = 0.18012 0.15352
# Poissons Ratio (y) = 0.15275 0.21293
# Poissons Ratio (z) = 0.31551 0.51601
#
# Static dielectric constant tensor:
#      x y z
#    x 1.685880 0.000000 0.000000 
#    y 0.000000 1.700460 0.000000 
#    z 0.000000 0.000000 1.754290 
# 
# From -- ./inp_files/26361.got.cif
#   From: 2010.05.17/outbox.cif.g08.bks.cpg/sg72_14_cif.got.tgz:26361.got - 2010.06.03 17:03:01.
