data_PCOD9526826
_publ_section_title
;
Structure prediction by ZEFSAII (Michael W. Deem and Ramdas Pophale) SiO2 
 PCOD9526826
Probable space group: I B A M
;
_chemical_formula_sum "Si O2"
_cell_formula_units_Z 96
_cell_length_a 20.449286
_cell_length_b 14.343956
_cell_length_c 17.336490
_cell_angle_alpha 90.000000
_cell_angle_beta 90.000000
_cell_angle_gamma 90.000000
_cell_volume 5085.202674
_symmetry_space_group_name_H-M "I B A M"
_symmetry_group_IT_number 72
_symmetry_cell_setting 'orthorhombic'
loop_
_space_group_symop_operation_xyz
x,y,z
-x,-y,z
x,-y,1/2-z
-x,y,1/2-z
-x,-y,-z
x,y,-z
-x,y,1/2+z
x,-y,1/2+z
1/2+x,1/2+y,1/2+z
1/2-x,1/2-y,1/2+z
1/2+x,1/2-y,-z
1/2-x,1/2+y,-z
1/2-x,1/2-y,1/2-z
1/2+x,1/2+y,1/2-z
1/2-x,1/2+y,z
1/2+x,1/2-y,z
loop_
_atom_site_type_symbol
_atom_site_label
_atom_site_fract_x
_atom_site_fract_y
_atom_site_fract_z
Si Si1 0.764389 0.516986 0.592088
Si Si2 0.506110 0.107452 0.590621
Si Si3 0.144208 0.852522 0.587572
Si Si4 0.434971 0.245530 0.700205
Si Si5 0.745840 0.306960 0.589819
Si Si6 0.857378 0.329723 0.841106
O O1 0.783166 0.525604 0.500000
O O2 0.691267 0.558670 0.597571
O O3 0.764981 0.409783 0.616526
O O4 0.811081 0.581298 0.643799
O O5 0.493318 0.110489 0.500000
O O6 0.455325 0.170557 0.636113
O O7 0.577740 0.147983 0.609433
O O8 0.500000 0.000000 0.616564
O O9 0.117183 0.853827 0.500000
O O10 0.092700 0.834530 0.654832
O O11 0.193704 0.764317 0.593473
O O12 0.500000 0.266245 0.750000
O O13 0.382955 0.196391 0.756591
O O14 0.727771 0.316506 0.500000
O O15 0.685191 0.258388 0.631403
#
# Coordination Sequence:
#
# PCOD9526826 Si02
#       6
#    16  16  16  16  16  16
#     4   9  18  33  56  84 108 141 185 227 270 321
#     4  10  21  36  57  80 104 146 189 221 266 321
#     4   9  18  35  56  78 106 140 183 227 266 322
#     4  10  22  36  51  75 112 145 177 222 276 325
#     4   9  18  33  56  82 107 142 179 221 272 321
#     4  10  20  35  53  81 118 141 171 225 279 328
#
# _framework density 18.878302999999999
#
# number of rings (size 3 to 8) (size 9 to 14) (size 15 to 20)
#    0.000    2.500    0.000    3.000    2.333    5.667 
#    0.000    2.500    0.000    7.000    0.000   15.167 
#    0.000    0.000    0.000    0.000    0.000    0.000 
#
# Total GULP energy -267838.315026 kJ/mol
# GULP energy per Si atom -5579.964896 kJ/mol
# Density = 1.883534 g / cm^3
# Si number density = 18.878303 Si / 1000 Ang^3
#
#
#
# Elastic Constant Matrix: (Units=GPa)
#
#
# Indices 1 2 3 4 5 6 
#
# 1 47.6240 1.6026 27.0994 0.0000 0.0000 0.0000
# 2 1.6026 50.3996 -1.7406 0.0000 0.0000 0.0000
# 3 27.0994 -1.7406 46.5690 0.0000 0.0000 0.0000
# 4 0.0000 0.0000 0.0000 -121.4781 0.0000 0.0000
# 5 0.0000 0.0000 0.0000 0.0000 24.0929 0.0000
# 6 0.0000 0.0000 0.0000 0.0000 0.0000 9.4314
#
#
#
# Elastic Compliance Matrix: (Units=1/GPa)
#
#
# Indices 1 2 3 4 5 6 
#
# 1 0.031527 -0.001638 -0.018408 0.000000 0.000000 0.000000
# 2 -0.001638 0.019952 0.001699 0.000000 0.000000 0.000000
# 3 -0.018408 0.001699 0.032249 0.000000 0.000000 0.000000
# 4 0.000000 0.000000 0.000000 -0.008232 0.000000 0.000000
# 5 0.000000 0.000000 0.000000 0.000000 0.041506 0.000000
# 6 0.000000 0.000000 0.000000 0.000000 0.000000 0.106028
#
#
# Mechanical properties :
#
#
# Convention : Reuss Voigt Hill
#
# Bulk Modulus (GPa) = 21.26085 22.05726 21.65905
# Shear Modulus (GPa) = 18.15524 -9.74866 4.20329
#
# Velocity S-wave (km/s) = 3.10449 -2.27490 1.49377
# Velocity P-wave (km/s) = 4.91294 2.19296 3.80434
#
# Compressibility (1/GPa) = 0.04703481
#
# Stress axis : x y z
#
# Youngs Moduli (GPa) = 31.71843 50.11976 31.00891
#
# Poissons Ratio (x) = 0.08211 0.57080
# Poissons Ratio (y) = 0.05196 -0.05269
# Poissons Ratio (z) = 0.58386 -0.08516
#
# Static dielectric constant tensor:
#      x y z
#    x 1.661180 0.000000 0.000000 
#    y 0.000000 1.645940 0.000000 
#    z 0.000000 0.000000 1.669540 
# 
# From -- ./inp_files/24130.got.cif
#   From: 2010.05.17/outbox.cif.g08.bks.cpg/sg72_13_cif.got.tgz:24130.got - 2010.06.03 17:03:01.
