data_PCOD9526494
_publ_section_title
;
Structure prediction by ZEFSAII (Michael W. Deem and Ramdas Pophale) SiO2 
 PCOD9526494
Probable space group: I B A M
;
_chemical_formula_sum "Si O2"
_cell_formula_units_Z 96
_cell_length_a 22.006363
_cell_length_b 14.620416
_cell_length_c 13.730644
_cell_angle_alpha 90.000000
_cell_angle_beta 90.000000
_cell_angle_gamma 90.000000
_cell_volume 4417.727357
_symmetry_space_group_name_H-M "I B A M"
_symmetry_group_IT_number 72
_symmetry_cell_setting 'orthorhombic'
loop_
_space_group_symop_operation_xyz
x,y,z
-x,-y,z
x,-y,1/2-z
-x,y,1/2-z
-x,-y,-z
x,y,-z
-x,y,1/2+z
x,-y,1/2+z
1/2+x,1/2+y,1/2+z
1/2-x,1/2-y,1/2+z
1/2+x,1/2-y,-z
1/2-x,1/2+y,-z
1/2-x,1/2-y,1/2-z
1/2+x,1/2+y,1/2-z
1/2-x,1/2+y,z
1/2+x,1/2-y,z
loop_
_atom_site_type_symbol
_atom_site_label
_atom_site_fract_x
_atom_site_fract_y
_atom_site_fract_z
Si Si1 0.957646 0.087013 0.392234
Si Si2 0.295278 0.957711 0.891647
Si Si3 0.655972 0.529162 0.139481
Si Si4 0.891382 0.801787 0.737411
Si Si5 0.788970 0.751475 0.884334
Si Si6 0.657703 0.152628 0.616518
O O1 0.976748 0.121820 0.500000
O O2 0.945576 0.160786 0.306789
O O3 0.892429 0.039035 0.403430
O O4 0.000000 0.000000 0.364898
O O5 0.223194 0.975633 0.900571
O O6 0.295883 0.854656 0.852548
O O7 0.326506 0.048854 0.850624
O O8 0.321741 0.949532 0.000000
O O9 0.663363 0.500000 0.250000
O O10 0.624505 0.628247 0.149422
O O11 0.834662 0.801727 0.812484
O O12 0.891632 0.703779 0.683899
O O13 0.720854 0.789764 0.874043
O O14 0.804021 0.760138 0.000000
O O15 0.643216 0.152768 0.500000
#
# Coordination Sequence:
#
# PCOD9526494 Si02
#       6
#    16  16  16  16  16  16
#     4  10  22  40  60  81 108 144 190 242 299 358
#     4  10  20  32  48  74 114 163 206 240 283 349
#     4  10  20  30  50  75 104 147 191 239 284 342
#     4  11  21  33  53  78 108 150 196 245 297 349
#     4  10  20  33  49  75 114 160 209 246 284 347
#     4  10  20  32  48  75 113 156 202 245 286 344
#
# _framework density 21.730630000000001
#
# number of rings (size 3 to 8) (size 9 to 14) (size 15 to 20)
#    0.000    1.833    1.667    3.500    2.333    5.000 
#    0.000    0.000    0.000    0.500    0.000    0.000 
#    0.000   10.667    0.000   39.333    0.000    0.333 
#
# Total GULP energy -267624.629357 kJ/mol
# GULP energy per Si atom -5575.513112 kJ/mol
# Density = 2.168117 g / cm^3
# Si number density = 21.730630 Si / 1000 Ang^3
#
#
#
# Elastic Constant Matrix: (Units=GPa)
#
#
# Indices 1 2 3 4 5 6 
#
# 1 42.3941 20.0403 30.3302 0.0000 0.0000 0.0000
# 2 20.0403 141.1619 33.9917 0.0000 0.0000 0.0000
# 3 30.3302 33.9917 119.9701 0.0000 0.0000 0.0000
# 4 0.0000 0.0000 0.0000 18.5264 0.0000 0.0000
# 5 0.0000 0.0000 0.0000 0.0000 27.9830 0.0000
# 6 0.0000 0.0000 0.0000 0.0000 0.0000 28.9281
#
#
#
# Elastic Compliance Matrix: (Units=1/GPa)
#
#
# Indices 1 2 3 4 5 6 
#
# 1 0.029647 -0.002580 -0.006764 0.000000 0.000000 0.000000
# 2 -0.002580 0.007827 -0.001565 0.000000 0.000000 0.000000
# 3 -0.006764 -0.001565 0.010489 0.000000 0.000000 0.000000
# 4 0.000000 0.000000 0.000000 0.053977 0.000000 0.000000
# 5 0.000000 0.000000 0.000000 0.000000 0.035736 0.000000
# 6 0.000000 0.000000 0.000000 0.000000 0.000000 0.034568
#
#
# Mechanical properties :
#
#
# Convention : Reuss Voigt Hill
#
# Bulk Modulus (GPa) = 38.24969 52.47228 45.36099
# Shear Modulus (GPa) = 24.65734 29.69842 27.17788
#
# Velocity S-wave (km/s) = 3.37216 3.70085 3.54032
# Velocity P-wave (km/s) = 5.72729 6.51620 6.13444
#
# Compressibility (1/GPa) = 0.02614400
#
# Stress axis : x y z
#
# Youngs Moduli (GPa) = 33.72997 127.75770 95.33743
#
# Poissons Ratio (x) = 0.32963 0.64488
# Poissons Ratio (y) = 0.08703 0.14925
# Poissons Ratio (z) = 0.22816 0.20000
#
# Static dielectric constant tensor:
#      x y z
#    x 1.784350 0.000000 0.000000 
#    y 0.000000 1.878880 0.000000 
#    z 0.000000 0.000000 1.864670 
# 
# From -- ./inp_files/24146.got.cif
#   From: 2010.05.17/outbox.cif.g08.bks.cpg/sg72_13_cif.got.tgz:24146.got - 2010.06.03 17:03:01.
