data_PCOD9526505
_publ_section_title
;
Structure prediction by ZEFSAII (Michael W. Deem and Ramdas Pophale) SiO2 
 PCOD9526505
Probable space group: I B A M
;
_chemical_formula_sum "Si O2"
_cell_formula_units_Z 88
_cell_length_a 13.527208
_cell_length_b 16.659003
_cell_length_c 15.186696
_cell_angle_alpha 90.000000
_cell_angle_beta 90.000000
_cell_angle_gamma 90.000000
_cell_volume 3422.318886
_symmetry_space_group_name_H-M "I B A M"
_symmetry_group_IT_number 72
_symmetry_cell_setting 'orthorhombic'
loop_
_space_group_symop_operation_xyz
x,y,z
-x,-y,z
x,-y,1/2-z
-x,y,1/2-z
-x,-y,-z
x,y,-z
-x,y,1/2+z
x,-y,1/2+z
1/2+x,1/2+y,1/2+z
1/2-x,1/2-y,1/2+z
1/2+x,1/2-y,-z
1/2-x,1/2+y,-z
1/2-x,1/2-y,1/2-z
1/2+x,1/2+y,1/2-z
1/2-x,1/2+y,z
1/2+x,1/2-y,z
loop_
_atom_site_type_symbol
_atom_site_label
_atom_site_fract_x
_atom_site_fract_y
_atom_site_fract_z
Si Si1 0.482780 0.693161 0.354116
Si Si2 0.584987 0.802350 0.500000
Si Si3 0.257051 0.197424 0.000000
Si Si4 0.426134 0.079093 0.000000
Si Si5 0.677513 0.023980 0.149109
Si Si6 0.275000 0.327730 0.191112
Si Si7 0.650730 0.585951 0.359438
O O1 0.500000 0.712273 0.250000
O O2 0.538741 0.755765 0.415522
O O3 0.366008 0.694930 0.371539
O O4 0.535655 0.606584 0.371996
O O5 0.701967 0.782425 0.500000
O O6 0.538697 0.890885 0.500000
O O7 0.208414 0.151616 0.916956
O O8 0.366673 0.163177 0.000000
O O9 0.391600 0.028700 0.914599
O O10 0.685230 0.120612 0.151147
O O11 0.654174 0.000000 0.250000
O O12 0.789284 0.994792 0.121869
O O13 0.250000 0.250000 0.250000
O O14 0.324908 0.390575 0.259481
#
# Coordination Sequence:
#
# PCOD9526505 Si02
#       7
#    16   8   8   8  16  16  16
#     4   9  19  34  53  87 125 156 210 270 323 385
#     4  10  20  33  61  92 122 167 223 266 327 396
#     4   8  16  32  53  83 124 158 204 276 316 368
#     4  10  20  35  62  92 131 177 225 265 338 398
#     4   9  19  34  54  82 126 171 203 263 324 391
#     4  10  20  31  51  83 122 158 209 254 324 394
#     4   8  16  33  51  75 114 160 200 249 325 375
#
# _framework density 25.713559
#
# number of rings (size 3 to 8) (size 9 to 14) (size 15 to 20)
#    0.000    2.909    0.000    0.000    7.636    1.455 
#    0.000    4.545    0.000    6.545    0.000   26.727 
#    0.000    0.000    0.000    2.909    0.000    0.000 
#
# Total GULP energy -245545.949901 kJ/mol
# GULP energy per Si atom -5580.589770 kJ/mol
# Density = 2.565503 g / cm^3
# Si number density = 25.713559 Si / 1000 Ang^3
#
#
#
# Elastic Constant Matrix: (Units=GPa)
#
#
# Indices 1 2 3 4 5 6 
#
# 1 141.3282 55.7978 19.7233 0.0000 0.0000 0.0000
# 2 55.7978 146.9239 41.1080 0.0000 0.0000 0.0000
# 3 19.7233 41.1080 115.6668 0.0000 0.0000 0.0000
# 4 0.0000 0.0000 0.0000 47.2007 0.0000 0.0000
# 5 0.0000 0.0000 0.0000 0.0000 25.2143 0.0000
# 6 0.0000 0.0000 0.0000 0.0000 0.0000 51.4784
#
#
#
# Elastic Compliance Matrix: (Units=1/GPa)
#
#
# Indices 1 2 3 4 5 6 
#
# 1 0.008335 -0.003073 -0.000329 0.000000 0.000000 0.000000
# 2 -0.003073 0.008691 -0.002565 0.000000 0.000000 0.000000
# 3 -0.000329 -0.002565 0.009613 0.000000 0.000000 0.000000
# 4 0.000000 0.000000 0.000000 0.021186 0.000000 0.000000
# 5 0.000000 0.000000 0.000000 0.000000 0.039660 0.000000
# 6 0.000000 0.000000 0.000000 0.000000 0.000000 0.019426
#
#
# Mechanical properties :
#
#
# Convention : Reuss Voigt Hill
#
# Bulk Modulus (GPa) = 68.00413 70.79746 69.40080
# Shear Modulus (GPa) = 40.40506 43.93133 42.16819
#
# Velocity S-wave (km/s) = 3.96833 4.13787 4.05399
# Velocity P-wave (km/s) = 6.89210 7.10086 6.99726
#
# Compressibility (1/GPa) = 0.01470499
#
# Stress axis : x y z
#
# Youngs Moduli (GPa) = 119.97538 115.06133 104.02445
#
# Poissons Ratio (x) = 0.35363 0.03422
# Poissons Ratio (y) = 0.36873 0.26679
# Poissons Ratio (z) = 0.03947 0.29510
#
# Static dielectric constant tensor:
#      x y z
#    x 2.089430 0.000000 0.000000 
#    y 0.000000 2.081710 0.000000 
#    z 0.000000 0.000000 2.170400 
# 
# From -- ./inp_files/30569.got.cif
#   From: 2010.05.17/outbox.cif.g08.bks.cpg/sg72_16_cif.got.tgz:30569.got - 2010.06.03 17:03:01.
