data_PCOD9526115
_publ_section_title
;
Structure prediction by ZEFSAII (Michael W. Deem and Ramdas Pophale) SiO2 
 PCOD9526115
Probable space group: I B A M
;
_chemical_formula_sum "Si O2"
_cell_formula_units_Z 116
_cell_length_a 22.348101
_cell_length_b 32.218664
_cell_length_c 8.843682
_cell_angle_alpha 90.000000
_cell_angle_beta 90.000000
_cell_angle_gamma 90.000000
_cell_volume 6367.680597
_symmetry_space_group_name_H-M "I B A M"
_symmetry_group_IT_number 72
_symmetry_cell_setting 'orthorhombic'
loop_
_space_group_symop_operation_xyz
x,y,z
-x,-y,z
x,-y,1/2-z
-x,y,1/2-z
-x,-y,-z
x,y,-z
-x,y,1/2+z
x,-y,1/2+z
1/2+x,1/2+y,1/2+z
1/2-x,1/2-y,1/2+z
1/2+x,1/2-y,-z
1/2-x,1/2+y,-z
1/2-x,1/2-y,1/2-z
1/2+x,1/2+y,1/2-z
1/2-x,1/2+y,z
1/2+x,1/2-y,z
loop_
_atom_site_type_symbol
_atom_site_label
_atom_site_fract_x
_atom_site_fract_y
_atom_site_fract_z
Si Si1 0.277729 0.043480 0.181719
Si Si2 0.500000 0.000000 0.750000
Si Si3 0.403294 0.932805 0.172100
Si Si4 0.695513 0.697148 0.317628
Si Si5 0.172752 0.895050 0.683625
Si Si6 0.062623 0.654513 0.818258
Si Si7 0.832040 0.282706 0.181725
Si Si8 0.564843 0.454908 0.182663
O O1 0.344222 0.051430 0.242866
O O2 0.232840 0.080320 0.227839
O O3 0.255854 0.000000 0.250000
O O4 0.279011 0.040963 0.000000
O O5 0.545721 0.031767 0.830183
O O6 0.425935 0.891662 0.255972
O O7 0.387787 0.922411 0.000000
O O8 0.691959 0.698828 0.500000
O O9 0.672572 0.652428 0.264300
O O10 0.765757 0.701253 0.275541
O O11 0.662024 0.736952 0.250872
O O12 0.173536 0.893939 0.500000
O O13 0.115057 0.921711 0.727295
O O14 0.116828 0.684889 0.773106
O O15 0.000000 0.669481 0.750000
O O16 0.059514 0.652956 0.000000
O O17 0.833456 0.279606 0.000000
O O18 0.580605 0.500000 0.250000
O O19 0.500000 0.444013 0.250000
O O20 0.561781 0.457485 0.000000
#
# Coordination Sequence:
#
# PCOD9526115 Si02
#       8
#    16   4  16  16  16  16  16  16
#     4  11  22  37  56  80 114 150 189 235 283 331
#     4  12  26  40  60  78 114 152 192 236 274 320
#     4  12  25  40  59  82 111 151 198 237 280 329
#     4   9  17  34  59  82 105 139 180 220 269 329
#     4   9  19  35  56  82 112 147 182 226 283 335
#     4  11  23  39  59  82 112 146 185 230 277 329
#     4   9  19  36  57  82 110 140 174 221 277 327
#     4  10  19  34  55  79 109 145 186 223 267 326
#
# _framework density 18.216995000000001
#
# number of rings (size 3 to 8) (size 9 to 14) (size 15 to 20)
#    0.000    1.793    1.379    3.517    0.000    4.414 
#    0.000    8.276    0.000    3.310    0.000    0.000 
#    0.000    0.000    0.000    0.000    0.000    0.000 
#
# Total GULP energy -323773.655357 kJ/mol
# GULP energy per Si atom -5582.304403 kJ/mol
# Density = 1.817553 g / cm^3
# Si number density = 18.216995 Si / 1000 Ang^3
#
#
#
# Elastic Constant Matrix: (Units=GPa)
#
#
# Indices 1 2 3 4 5 6 
#
# 1 92.6547 82.4922 29.4038 0.0000 0.0000 0.0000
# 2 82.4922 151.4886 36.1126 0.0000 0.0000 0.0000
# 3 29.4038 36.1126 56.5585 0.0000 0.0000 0.0000
# 4 0.0000 0.0000 0.0000 12.8883 0.0000 0.0000
# 5 0.0000 0.0000 0.0000 0.0000 15.8144 0.0000
# 6 0.0000 0.0000 0.0000 0.0000 0.0000 25.2674
#
#
#
# Elastic Compliance Matrix: (Units=1/GPa)
#
#
# Indices 1 2 3 4 5 6 
#
# 1 0.021855 -0.010843 -0.004439 0.000000 0.000000 0.000000
# 2 -0.010843 0.013166 -0.002769 0.000000 0.000000 0.000000
# 3 -0.004439 -0.002769 0.021757 0.000000 0.000000 0.000000
# 4 0.000000 0.000000 0.000000 0.077590 0.000000 0.000000
# 5 0.000000 0.000000 0.000000 0.000000 0.063234 0.000000
# 6 0.000000 0.000000 0.000000 0.000000 0.000000 0.039577
#
#
# Mechanical properties :
#
#
# Convention : Reuss Voigt Hill
#
# Bulk Modulus (GPa) = 48.36672 66.30210 57.33441
# Shear Modulus (GPa) = 17.84622 20.97357 19.40990
#
# Velocity S-wave (km/s) = 3.13333 3.39679 3.26772
# Velocity P-wave (km/s) = 6.30066 7.20132 6.76599
#
# Compressibility (1/GPa) = 0.02067537
#
# Stress axis : x y z
#
# Youngs Moduli (GPa) = 45.75602 75.95476 45.96289
#
# Poissons Ratio (x) = 0.82357 0.20402
# Poissons Ratio (y) = 0.49613 0.12728
# Poissons Ratio (z) = 0.20311 0.21034
#
# Static dielectric constant tensor:
#      x y z
#    x 1.618210 0.000000 0.000000 
#    y 0.000000 1.615840 0.000000 
#    z 0.000000 0.000000 1.621500 
# 
# From -- ./inp_files/7330.got.cif
#   From: 2010.05.17/outbox.cif.g08.bks.cpg/sg72_4_cif.got.tgz:7330.got - 2010.06.03 17:03:01.
