data_PCOD9526124
_publ_section_title
;
Structure prediction by ZEFSAII (Michael W. Deem and Ramdas Pophale) SiO2 
 PCOD9526124
Probable space group: I B A M
;
_chemical_formula_sum "Si O2"
_cell_formula_units_Z 108
_cell_length_a 12.481468
_cell_length_b 20.685032
_cell_length_c 24.188496
_cell_angle_alpha 90.000000
_cell_angle_beta 90.000000
_cell_angle_gamma 90.000000
_cell_volume 6244.975375
_symmetry_space_group_name_H-M "I B A M"
_symmetry_group_IT_number 72
_symmetry_cell_setting 'orthorhombic'
loop_
_space_group_symop_operation_xyz
x,y,z
-x,-y,z
x,-y,1/2-z
-x,y,1/2-z
-x,-y,-z
x,y,-z
-x,y,1/2+z
x,-y,1/2+z
1/2+x,1/2+y,1/2+z
1/2-x,1/2-y,1/2+z
1/2+x,1/2-y,-z
1/2-x,1/2+y,-z
1/2-x,1/2-y,1/2-z
1/2+x,1/2+y,1/2-z
1/2-x,1/2+y,z
1/2+x,1/2-y,z
loop_
_atom_site_type_symbol
_atom_site_label
_atom_site_fract_x
_atom_site_fract_y
_atom_site_fract_z
Si Si1 0.091109 0.263214 0.796258
Si Si2 0.759618 0.322890 0.151199
Si Si3 0.000000 0.000000 0.382637
Si Si4 0.403972 0.408200 0.205403
Si Si5 0.415000 0.628215 0.063747
Si Si6 0.172587 0.395868 0.248286
Si Si7 0.428702 0.284776 0.874068
Si Si8 0.000000 0.500000 0.250000
O O1 0.180949 0.208447 0.802214
O O2 0.145785 0.330565 0.784256
O O3 0.000000 0.253418 0.750000
O O4 0.026095 0.259871 0.852894
O O5 0.681289 0.352306 0.105203
O O6 0.829699 0.374400 0.186587
O O7 0.828841 0.264185 0.125061
O O8 0.947158 0.055561 0.419442
O O9 0.079324 0.037134 0.340879
O O10 0.500000 0.409981 0.250000
O O11 0.291935 0.418027 0.235298
O O12 0.407332 0.340155 0.172251
O O13 0.518548 0.674341 0.076201
O O14 0.384544 0.633338 0.000000
O O15 0.086691 0.448208 0.227569
#
# Coordination Sequence:
#
# PCOD9526124 Si02
#       8
#    16  16   8  16  16  16  16   4
#     4  11  18  32  53  82 116 149 181 210 266 334
#     4  11  21  34  59  82 109 151 186 225 275 346
#     4  10  22  40  56  78 104 148 190 238 290 328
#     4  11  22  33  56  85 116 149 186 227 268 337
#     4  10  23  39  58  81 104 139 193 253 295 323
#     4  12  22  35  51  80 125 155 184 212 263 339
#     4  10  19  34  55  84 111 143 183 223 282 337
#     4  12  28  32  46  80 126 164 176 208 260 324
#
# _framework density 17.293903
#
# number of rings (size 3 to 8) (size 9 to 14) (size 15 to 20)
#    0.000    1.185    3.704    4.889    4.148    0.593 
#    0.000    0.000    0.000    0.000    0.000    0.519 
#    0.000    0.000    0.000    0.000    0.000    0.000 
#
# Total GULP energy -300896.554418 kJ/mol
# GULP energy per Si atom -5572.158415 kJ/mol
# Density = 1.725454 g / cm^3
# Si number density = 17.293903 Si / 1000 Ang^3
#
#
#
# Elastic Constant Matrix: (Units=GPa)
#
#
# Indices 1 2 3 4 5 6 
#
# 1 86.1373 37.1505 11.4560 0.0000 0.0000 0.0000
# 2 37.1505 81.9524 39.8681 0.0000 0.0000 0.0000
# 3 11.4560 39.8681 64.5462 0.0000 0.0000 0.0000
# 4 0.0000 0.0000 0.0000 10.8495 0.0000 0.0000
# 5 0.0000 0.0000 0.0000 0.0000 14.7024 0.0000
# 6 0.0000 0.0000 0.0000 0.0000 0.0000 26.0035
#
#
#
# Elastic Compliance Matrix: (Units=1/GPa)
#
#
# Indices 1 2 3 4 5 6 
#
# 1 0.014636 -0.007678 0.002145 0.000000 0.000000 0.000000
# 2 -0.007678 0.021472 -0.011900 0.000000 0.000000 0.000000
# 3 0.002145 -0.011900 0.022462 0.000000 0.000000 0.000000
# 4 0.000000 0.000000 0.000000 0.092170 0.000000 0.000000
# 5 0.000000 0.000000 0.000000 0.000000 0.068016 0.000000
# 6 0.000000 0.000000 0.000000 0.000000 0.000000 0.038456
#
#
# Mechanical properties :
#
#
# Convention : Reuss Voigt Hill
#
# Bulk Modulus (GPa) = 42.18727 45.50946 43.84837
# Shear Modulus (GPa) = 16.66784 19.92184 18.29484
#
# Velocity S-wave (km/s) = 3.10788 3.39773 3.25603
# Velocity P-wave (km/s) = 6.10948 6.46260 6.28852
#
# Compressibility (1/GPa) = 0.02370383
#
# Stress axis : x y z
#
# Youngs Moduli (GPa) = 68.32664 46.57291 44.51935
#
# Poissons Ratio (x) = 0.35759 -0.09549
# Poissons Ratio (y) = 0.52461 0.52977
# Poissons Ratio (z) = -0.14655 0.55420
#
# Static dielectric constant tensor:
#      x y z
#    x 1.616850 0.000000 0.000000 
#    y 0.000000 1.637150 0.000000 
#    z 0.000000 0.000000 1.582700 
# 
# From -- ./inp_files/43566.got.cif
#   From: 2010.05.17/outbox.cif.g08.bks.cpg/sg72_22_cif.got.tgz:43566.got - 2010.06.03 17:03:01.
