data_PCOD9526343
_publ_section_title
;
Structure prediction by ZEFSAII (Michael W. Deem and Ramdas Pophale) SiO2 
 PCOD9526343
Probable space group: I B A M
;
_chemical_formula_sum "Si O2"
_cell_formula_units_Z 80
_cell_length_a 15.226537
_cell_length_b 12.889442
_cell_length_c 18.588079
_cell_angle_alpha 90.000000
_cell_angle_beta 90.000000
_cell_angle_gamma 90.000000
_cell_volume 3648.125485
_symmetry_space_group_name_H-M "I B A M"
_symmetry_group_IT_number 72
_symmetry_cell_setting 'orthorhombic'
loop_
_space_group_symop_operation_xyz
x,y,z
-x,-y,z
x,-y,1/2-z
-x,y,1/2-z
-x,-y,-z
x,y,-z
-x,y,1/2+z
x,-y,1/2+z
1/2+x,1/2+y,1/2+z
1/2-x,1/2-y,1/2+z
1/2+x,1/2-y,-z
1/2-x,1/2+y,-z
1/2-x,1/2-y,1/2-z
1/2+x,1/2+y,1/2-z
1/2-x,1/2+y,z
1/2+x,1/2-y,z
loop_
_atom_site_type_symbol
_atom_site_label
_atom_site_fract_x
_atom_site_fract_y
_atom_site_fract_z
Si Si1 0.752508 0.157091 0.081258
Si Si2 0.593493 0.509443 0.873907
Si Si3 0.130700 0.146813 0.237891
Si Si4 0.318018 0.166126 0.808719
Si Si5 0.895058 0.498426 0.082724
O O1 0.824275 0.062889 0.087563
O O2 0.779940 0.247737 0.135441
O O3 0.657345 0.106063 0.093979
O O4 0.755632 0.197404 0.000000
O O5 0.500000 0.500000 0.912388
O O6 0.586066 0.581875 0.801885
O O7 0.608614 0.395824 0.840461
O O8 0.236140 0.126431 0.238197
O O9 0.119208 0.266926 0.256832
O O10 0.361116 0.078700 0.856218
O O11 0.000000 0.500000 0.086841
O O12 0.872476 0.466132 0.000000
#
# Coordination Sequence:
#
# PCOD9526343 Si02
#       5
#    16  16  16  16  16
#     4  10  21  38  60  85 117 155 200 251 299 356
#     4  10  19  36  59  83 118 151 190 242 299 359
#     4   9  18  33  57  83 114 153 190 235 294 349
#     4  10  19  36  61  84 117 157 197 243 298 360
#     4  10  21  40  61  85 121 163 203 249 305 360
#
# _framework density 21.929069999999999
#
# number of rings (size 3 to 8) (size 9 to 14) (size 15 to 20)
#    0.000    2.200    2.000    1.800    0.000    0.400 
#   10.800    0.000    0.000   10.800    0.000    0.000 
#    0.000    0.000    0.000    0.000    0.000    0.000 
#
# Total GULP energy -223052.002226 kJ/mol
# GULP energy per Si atom -5576.300056 kJ/mol
# Density = 2.187916 g / cm^3
# Si number density = 21.929070 Si / 1000 Ang^3
#
#
#
# Elastic Constant Matrix: (Units=GPa)
#
#
# Indices 1 2 3 4 5 6 
#
# 1 86.1231 1.8639 0.5672 0.0000 0.0000 0.0000
# 2 1.8639 45.6091 14.5261 0.0000 0.0000 0.0000
# 3 0.5672 14.5261 61.9900 0.0000 0.0000 0.0000
# 4 0.0000 0.0000 0.0000 34.4840 0.0000 0.0000
# 5 0.0000 0.0000 0.0000 0.0000 15.2286 0.0000
# 6 0.0000 0.0000 0.0000 0.0000 0.0000 -37.0723
#
#
#
# Elastic Compliance Matrix: (Units=1/GPa)
#
#
# Indices 1 2 3 4 5 6 
#
# 1 0.011622 -0.000477 0.000005 0.000000 0.000000 0.000000
# 2 -0.000477 0.023713 -0.005552 0.000000 0.000000 0.000000
# 3 0.000005 -0.005552 0.017433 0.000000 0.000000 0.000000
# 4 0.000000 0.000000 0.000000 0.028999 0.000000 0.000000
# 5 0.000000 0.000000 0.000000 0.000000 0.065666 0.000000
# 6 0.000000 0.000000 0.000000 0.000000 0.000000 -0.026974
#
#
# Mechanical properties :
#
#
# Convention : Reuss Voigt Hill
#
# Bulk Modulus (GPa) = 24.55782 25.29296 24.92539
# Shear Modulus (GPa) = 34.22812 14.31240 24.27026
#
# Velocity S-wave (km/s) = 3.95505 2.55751 3.33041
# Velocity P-wave (km/s) = 5.66389 4.50335 5.11663
#
# Compressibility (1/GPa) = 0.04072023
#
# Stress axis : x y z
#
# Youngs Moduli (GPa) = 86.04690 42.17042 57.36359
#
# Poissons Ratio (x) = 0.02010 -0.00031
# Poissons Ratio (y) = 0.04101 0.31850
# Poissons Ratio (z) = -0.00046 0.23415
#
# Static dielectric constant tensor:
#      x y z
#    x 1.856310 0.000000 0.000000 
#    y 0.000000 1.842230 0.000000 
#    z 0.000000 0.000000 1.817670 
# 
# From -- ./inp_files/37843.got.cif
#   From: 2010.05.17/outbox.cif.g08.bks.cpg/sg72_19_cif.got.tgz:37843.got - 2010.06.03 17:03:01.
