data_PCOD9526267
_publ_section_title
;
Structure prediction by ZEFSAII (Michael W. Deem and Ramdas Pophale) SiO2 
 PCOD9526267
Probable space group: I B A M
;
_chemical_formula_sum "Si O2"
_cell_formula_units_Z 72
_cell_length_a 26.564590
_cell_length_b 13.313461
_cell_length_c 9.202535
_cell_angle_alpha 90.000000
_cell_angle_beta 90.000000
_cell_angle_gamma 90.000000
_cell_volume 3254.629568
_symmetry_space_group_name_H-M "I B A M"
_symmetry_group_IT_number 72
_symmetry_cell_setting 'orthorhombic'
loop_
_space_group_symop_operation_xyz
x,y,z
-x,-y,z
x,-y,1/2-z
-x,y,1/2-z
-x,-y,-z
x,y,-z
-x,y,1/2+z
x,-y,1/2+z
1/2+x,1/2+y,1/2+z
1/2-x,1/2-y,1/2+z
1/2+x,1/2-y,-z
1/2-x,1/2+y,-z
1/2-x,1/2-y,1/2-z
1/2+x,1/2+y,1/2-z
1/2-x,1/2+y,z
1/2+x,1/2-y,z
loop_
_atom_site_type_symbol
_atom_site_label
_atom_site_fract_x
_atom_site_fract_y
_atom_site_fract_z
Si Si1 0.271758 0.500000 0.750000
Si Si2 0.573894 0.898076 0.669712
Si Si3 0.449284 0.685682 0.325189
Si Si4 0.689075 0.840925 0.666080
Si Si5 0.146507 0.862927 0.662635
O O1 0.233017 0.409540 0.775147
O O2 0.313451 0.549035 0.854058
O O3 0.557499 0.893468 0.500000
O O4 0.558013 0.798927 0.759374
O O5 0.635040 0.895966 0.669229
O O6 0.557804 0.000000 0.750000
O O7 0.500000 0.646486 0.250000
O O8 0.451892 0.687079 0.500000
O O9 0.401263 0.623945 0.266102
O O10 0.703273 0.821173 0.500000
O O11 0.676968 0.731943 0.730559
O O12 0.127707 0.834403 0.500000
#
# Coordination Sequence:
#
# PCOD9526267 Si02
#       5
#     8  16  16  16  16
#     4  12  20  36  63  94 125 172 212 256 308 366
#     4  10  19  35  58  91 130 165 208 255 308 373
#     4  11  23  42  66  89 118 159 206 260 324 378
#     4   9  19  35  55  86 129 171 208 253 307 363
#     4  10  23  41  61  91 130 166 209 262 311 371
#
# _framework density 22.122333000000001
#
# number of rings (size 3 to 8) (size 9 to 14) (size 15 to 20)
#    0.000    1.778    1.111    5.333    0.000    2.222 
#    0.000    6.111    0.000    2.667    0.000    0.000 
#    0.000    0.000    0.000    0.000    0.000    0.000 
#
# Total GULP energy -200623.945718 kJ/mol
# GULP energy per Si atom -5572.887381 kJ/mol
# Density = 2.207198 g / cm^3
# Si number density = 22.122333 Si / 1000 Ang^3
#
#
#
# Elastic Constant Matrix: (Units=GPa)
#
#
# Indices 1 2 3 4 5 6 
#
# 1 164.6861 30.1419 66.2972 0.0000 0.0000 0.0000
# 2 30.1419 34.3599 23.3070 0.0000 0.0000 0.0000
# 3 66.2972 23.3070 149.5668 0.0000 0.0000 0.0000
# 4 0.0000 0.0000 0.0000 5.2294 0.0000 0.0000
# 5 0.0000 0.0000 0.0000 0.0000 -29.3794 0.0000
# 6 0.0000 0.0000 0.0000 0.0000 0.0000 2.3358
#
#
#
# Elastic Compliance Matrix: (Units=1/GPa)
#
#
# Indices 1 2 3 4 5 6 
#
# 1 0.008161 -0.005262 -0.002798 0.000000 0.000000 0.000000
# 2 -0.005262 0.035936 -0.003268 0.000000 0.000000 0.000000
# 3 -0.002798 -0.003268 0.008435 0.000000 0.000000 0.000000
# 4 0.000000 0.000000 0.000000 0.191228 0.000000 0.000000
# 5 0.000000 0.000000 0.000000 0.000000 -0.034037 0.000000
# 6 0.000000 0.000000 0.000000 0.000000 0.000000 0.428111
#
#
# Mechanical properties :
#
#
# Convention : Reuss Voigt Hill
#
# Bulk Modulus (GPa) = 33.46881 65.34503 49.40692
# Shear Modulus (GPa) = 7.45770 10.89493 9.17631
#
# Velocity S-wave (km/s) = 1.83805 2.22161 2.03887
# Velocity P-wave (km/s) = 4.43468 6.01522 5.28438
#
# Compressibility (1/GPa) = 0.02987857
#
# Stress axis : x y z
#
# Youngs Moduli (GPa) = 122.52667 27.82724 118.54967
#
# Poissons Ratio (x) = 0.14642 0.33167
# Poissons Ratio (y) = 0.64472 0.38737
# Poissons Ratio (z) = 0.34280 0.09093
#
# Static dielectric constant tensor:
#      x y z
#    x 1.850320 0.000000 0.000000 
#    y 0.000000 1.939510 0.000000 
#    z 0.000000 0.000000 1.923980 
# 
# From -- ./inp_files/3699.got.cif
#   From: 2010.05.17/outbox.cif.g08.bks.cpg/sg72_2_cif.got.tgz:3699.got - 2010.06.03 17:03:01.
