data_PCOD9526838
_publ_section_title
;
Structure prediction by ZEFSAII (Michael W. Deem and Ramdas Pophale) SiO2 
 PCOD9526838
Probable space group: I B A M
;
_chemical_formula_sum "Si O2"
_cell_formula_units_Z 88
_cell_length_a 19.271813
_cell_length_b 8.923674
_cell_length_c 19.575941
_cell_angle_alpha 90.000000
_cell_angle_beta 90.000000
_cell_angle_gamma 90.000000
_cell_volume 3366.579826
_symmetry_space_group_name_H-M "I B A M"
_symmetry_group_IT_number 72
_symmetry_cell_setting 'orthorhombic'
loop_
_space_group_symop_operation_xyz
x,y,z
-x,-y,z
x,-y,1/2-z
-x,y,1/2-z
-x,-y,-z
x,y,-z
-x,y,1/2+z
x,-y,1/2+z
1/2+x,1/2+y,1/2+z
1/2-x,1/2-y,1/2+z
1/2+x,1/2-y,-z
1/2-x,1/2+y,-z
1/2-x,1/2-y,1/2-z
1/2+x,1/2+y,1/2-z
1/2-x,1/2+y,z
1/2+x,1/2-y,z
loop_
_atom_site_type_symbol
_atom_site_label
_atom_site_fract_x
_atom_site_fract_y
_atom_site_fract_z
Si Si1 0.172320 0.032443 0.421794
Si Si2 0.763737 0.425044 0.000000
Si Si3 0.526364 0.306929 0.574035
Si Si4 0.119502 0.540088 0.882409
Si Si5 0.940014 0.746253 0.804325
Si Si6 0.819210 0.209930 0.212076
O O1 0.206215 0.088368 0.500000
O O2 0.204444 0.873111 0.437749
O O3 0.094483 0.087867 0.427381
O O4 0.195854 0.098706 0.350680
O O5 0.821214 0.461929 0.060464
O O6 0.491814 0.315996 0.500000
O O7 0.557227 0.140632 0.586034
O O8 0.478178 0.340445 0.637479
O O9 0.092981 0.390336 0.846809
O O10 0.149228 0.642049 0.821814
O O11 0.879613 0.834007 0.765070
O O12 0.000000 0.701069 0.750000
O O13 0.750000 0.250000 0.250000
#
# Coordination Sequence:
#
# PCOD9526838 Si02
#       6
#    16   8  16  16  16  16
#     4   8  18  35  54  71 113 159 200 231 290 355
#     4  10  20  36  55  86 110 168 203 251 283 356
#     4  10  20  35  54  82 122 163 192 241 302 378
#     4  11  22  32  56  86 121 157 203 242 303 367
#     4  12  23  35  58  89 127 157 191 249 316 372
#     4  11  23  38  54  80 122 161 196 246 305 372
#
# _framework density 26.139289999999999
#
# number of rings (size 3 to 8) (size 9 to 14) (size 15 to 20)
#    0.545    1.091    4.545    2.182    5.091    0.727 
#    0.000    0.000    0.000    0.000    0.000    2.545 
#    0.000    0.000    0.000    0.000    0.000    0.000 
#
# Total GULP energy -245224.763984 kJ/mol
# GULP energy per Si atom -5573.290091 kJ/mol
# Density = 2.607980 g / cm^3
# Si number density = 26.139290 Si / 1000 Ang^3
#
#
#
# Elastic Constant Matrix: (Units=GPa)
#
#
# Indices 1 2 3 4 5 6 
#
# 1 119.0344 27.9204 90.8026 0.0000 0.0000 0.0000
# 2 27.9204 84.1078 31.3735 0.0000 0.0000 0.0000
# 3 90.8026 31.3735 206.0864 0.0000 0.0000 0.0000
# 4 0.0000 0.0000 0.0000 11.7665 0.0000 0.0000
# 5 0.0000 0.0000 0.0000 0.0000 76.8112 0.0000
# 6 0.0000 0.0000 0.0000 0.0000 0.0000 20.4484
#
#
#
# Elastic Compliance Matrix: (Units=1/GPa)
#
#
# Indices 1 2 3 4 5 6 
#
# 1 0.013068 -0.002322 -0.005404 0.000000 0.000000 0.000000
# 2 -0.002322 0.013018 -0.000959 0.000000 0.000000 0.000000
# 3 -0.005404 -0.000959 0.007379 0.000000 0.000000 0.000000
# 4 0.000000 0.000000 0.000000 0.084987 0.000000 0.000000
# 5 0.000000 0.000000 0.000000 0.000000 0.013019 0.000000
# 6 0.000000 0.000000 0.000000 0.000000 0.000000 0.048903
#
#
# Mechanical properties :
#
#
# Convention : Reuss Voigt Hill
#
# Bulk Modulus (GPa) = 62.13019 78.82462 70.47741
# Shear Modulus (GPa) = 24.61715 39.08072 31.84893
#
# Velocity S-wave (km/s) = 3.07215 3.87084 3.49439
# Velocity P-wave (km/s) = 6.03363 7.08512 6.58041
#
# Compressibility (1/GPa) = 0.01609524
#
# Stress axis : x y z
#
# Youngs Moduli (GPa) = 76.52135 76.81693 135.51099
#
# Poissons Ratio (x) = 0.17838 0.73236
# Poissons Ratio (y) = 0.17770 0.12990
# Poissons Ratio (z) = 0.41355 0.07364
#
# Static dielectric constant tensor:
#      x y z
#    x 2.053820 0.000000 0.000000 
#    y 0.000000 2.088680 0.000000 
#    z 0.000000 0.000000 2.084980 
# 
# From -- ./inp_files/39003.got.cif
#   From: 2010.05.17/outbox.cif.g08.bks.cpg/sg72_20_cif.got.tgz:39003.got - 2010.06.03 17:03:01.
