data_PCOD9526912
_publ_section_title
;
Structure prediction by ZEFSAII (Michael W. Deem and Ramdas Pophale) SiO2 
 PCOD9526912
Probable space group: I B A M
;
_chemical_formula_sum "Si O2"
_cell_formula_units_Z 112
_cell_length_a 28.712878
_cell_length_b 10.925974
_cell_length_c 14.078895
_cell_angle_alpha 90.000000
_cell_angle_beta 90.000000
_cell_angle_gamma 90.000000
_cell_volume 4416.776855
_symmetry_space_group_name_H-M "I B A M"
_symmetry_group_IT_number 72
_symmetry_cell_setting 'orthorhombic'
loop_
_space_group_symop_operation_xyz
x,y,z
-x,-y,z
x,-y,1/2-z
-x,y,1/2-z
-x,-y,-z
x,y,-z
-x,y,1/2+z
x,-y,1/2+z
1/2+x,1/2+y,1/2+z
1/2-x,1/2-y,1/2+z
1/2+x,1/2-y,-z
1/2-x,1/2+y,-z
1/2-x,1/2-y,1/2-z
1/2+x,1/2+y,1/2-z
1/2-x,1/2+y,z
1/2+x,1/2-y,z
loop_
_atom_site_type_symbol
_atom_site_label
_atom_site_fract_x
_atom_site_fract_y
_atom_site_fract_z
Si Si1 0.448618 0.259644 0.109077
Si Si2 0.865370 0.130501 0.390095
Si Si3 0.855978 0.870693 0.614665
Si Si4 0.202284 0.355973 0.322988
Si Si5 0.552194 0.773291 0.610336
Si Si6 0.611678 0.017206 0.361311
Si Si7 0.281700 0.193267 0.607738
O O1 0.410823 0.360451 0.138122
O O2 0.499826 0.231881 0.149168
O O3 0.418685 0.134932 0.113312
O O4 0.456452 0.290497 0.000000
O O5 0.875435 0.098269 0.500000
O O6 0.913352 0.174434 0.343966
O O7 0.832771 0.248468 0.393101
O O8 0.841039 0.006814 0.357365
O O9 0.848934 0.846521 0.500000
O O10 0.828985 0.768715 0.674388
O O11 0.166535 0.449039 0.378685
O O12 0.247021 0.309684 0.380298
O O13 0.218855 0.375068 0.212010
O O14 0.548407 0.743361 0.500000
O O15 0.580513 0.901324 0.609298
O O16 0.613859 0.000000 0.250000
O O17 0.272326 0.141269 0.500000
#
# Coordination Sequence:
#
# PCOD9526912 Si02
#       7
#    16  16  16  16  16  16  16
#     4   9  19  35  58  87 120 166 216 259 314 375
#     4   9  19  36  57  87 123 163 209 259 319 375
#     4   9  18  36  61  89 125 166 211 264 313 374
#     4  10  22  40  63  92 118 161 211 257 318 384
#     4  10  20  35  57  87 127 169 210 261 316 379
#     4  11  22  37  56  84 122 157 207 258 312 376
#     4  10  21  41  63  89 122 156 205 262 319 381
#
# _framework density 25.357859000000001
#
# number of rings (size 3 to 8) (size 9 to 14) (size 15 to 20)
#    0.000    2.286    0.000    2.143    0.000    5.143 
#    7.714    3.571    0.000    0.000    0.000    4.000 
#    0.000    2.286    0.000    0.000    0.000    0.000 
#
# Total GULP energy -311861.898674 kJ/mol
# GULP energy per Si atom -5568.962476 kJ/mol
# Density = 2.530014 g / cm^3
# Si number density = 25.357859 Si / 1000 Ang^3
#
#
#
# Elastic Constant Matrix: (Units=GPa)
#
#
# Indices 1 2 3 4 5 6 
#
# 1 139.1970 -17.4184 -1.0939 0.0000 0.0000 0.0000
# 2 -17.4184 31.1339 -19.5840 0.0000 0.0000 0.0000
# 3 -1.0939 -19.5840 152.5494 0.0000 0.0000 0.0000
# 4 0.0000 0.0000 0.0000 59.7931 0.0000 0.0000
# 5 0.0000 0.0000 0.0000 0.0000 48.4199 0.0000
# 6 0.0000 0.0000 0.0000 0.0000 0.0000 40.0575
#
#
#
# Elastic Compliance Matrix: (Units=1/GPa)
#
#
# Indices 1 2 3 4 5 6 
#
# 1 0.007787 0.004778 0.000669 0.000000 0.000000 0.000000
# 2 0.004778 0.037872 0.004896 0.000000 0.000000 0.000000
# 3 0.000669 0.004896 0.007189 0.000000 0.000000 0.000000
# 4 0.000000 0.000000 0.000000 0.016724 0.000000 0.000000
# 5 0.000000 0.000000 0.000000 0.000000 0.020653 0.000000
# 6 0.000000 0.000000 0.000000 0.000000 0.000000 0.024964
#
#
# Mechanical properties :
#
#
# Convention : Reuss Voigt Hill
#
# Bulk Modulus (GPa) = 13.59921 27.40975 20.50448
# Shear Modulus (GPa) = 42.01177 53.71919 47.86548
#
# Velocity S-wave (km/s) = 4.07474 4.60765 4.34936
# Velocity P-wave (km/s) = 5.24524 6.25619 5.77289
#
# Compressibility (1/GPa) = 0.07353370
#
# Stress axis : x y z
#
# Youngs Moduli (GPa) = 128.41648 26.40472 139.10884
#
# Poissons Ratio (x) = -0.12615 -0.09309
# Poissons Ratio (y) = -0.61352 -0.68110
# Poissons Ratio (z) = -0.08593 -0.12928
#
# Static dielectric constant tensor:
#      x y z
#    x 2.078950 0.000000 0.000000 
#    y 0.000000 1.972930 0.000000 
#    z 0.000000 0.000000 2.041890 
# 
# From -- ./inp_files/26343.got.cif
#   From: 2010.05.17/outbox.cif.g08.bks.cpg/sg72_14_cif.got.tgz:26343.got - 2010.06.03 17:03:01.
