data_PCOD9526848
_publ_section_title
;
Structure prediction by ZEFSAII (Michael W. Deem and Ramdas Pophale) SiO2 
 PCOD9526848
Probable space group: I B A M
;
_chemical_formula_sum "Si O2"
_cell_formula_units_Z 116
_cell_length_a 25.637956
_cell_length_b 28.616893
_cell_length_c 8.884521
_cell_angle_alpha 90.000000
_cell_angle_beta 90.000000
_cell_angle_gamma 90.000000
_cell_volume 6518.383316
_symmetry_space_group_name_H-M "I B A M"
_symmetry_group_IT_number 72
_symmetry_cell_setting 'orthorhombic'
loop_
_space_group_symop_operation_xyz
x,y,z
-x,-y,z
x,-y,1/2-z
-x,y,1/2-z
-x,-y,-z
x,y,-z
-x,y,1/2+z
x,-y,1/2+z
1/2+x,1/2+y,1/2+z
1/2-x,1/2-y,1/2+z
1/2+x,1/2-y,-z
1/2-x,1/2+y,-z
1/2-x,1/2-y,1/2-z
1/2+x,1/2+y,1/2-z
1/2-x,1/2+y,z
1/2+x,1/2-y,z
loop_
_atom_site_type_symbol
_atom_site_label
_atom_site_fract_x
_atom_site_fract_y
_atom_site_fract_z
Si Si1 0.174145 0.623500 0.320492
Si Si2 0.373910 0.547019 0.326184
Si Si3 0.800723 0.724435 0.321963
Si Si4 0.719076 0.602233 0.678171
Si Si5 0.852115 0.192737 0.677013
Si Si6 0.943977 0.137535 0.175473
Si Si7 0.894868 0.546989 0.327927
Si Si8 0.000000 0.500000 0.750000
O O1 0.171113 0.626851 0.500000
O O2 0.182147 0.675191 0.249878
O O3 0.227311 0.598001 0.267977
O O4 0.125734 0.592820 0.257954
O O5 0.392735 0.500000 0.250000
O O6 0.359691 0.539512 0.500000
O O7 0.323793 0.566109 0.236841
O O8 0.417969 0.586456 0.320112
O O9 0.792596 0.718461 0.500000
O O10 0.750000 0.750000 0.250000
O O11 0.844030 0.762635 0.281233
O O12 0.727904 0.597472 0.500000
O O13 0.693011 0.653608 0.703861
O O14 0.850607 0.204684 0.500000
O O15 0.905717 0.169096 0.725318
O O16 0.000000 0.137261 0.250000
O O17 0.945136 0.152205 0.000000
O O18 0.872303 0.500000 0.250000
O O19 0.878030 0.550475 0.500000
O O20 0.957390 0.535035 0.325715
#
# Coordination Sequence:
#
# PCOD9526848 Si02
#       8
#    16  16  16  16  16  16  16   4
#     4  12  24  37  58  90 125 158 200 247 293 349
#     4  10  21  36  54  78 110 147 190 237 294 351
#     4  12  23  37  59  88 123 161 199 241 292 352
#     4  10  20  35  55  79 113 152 191 234 288 350
#     4  10  20  36  59  84 113 151 194 237 292 354
#     4  10  21  37  58  82 109 145 192 243 293 350
#     4  10  21  39  64  92 121 155 198 245 299 360
#     4   8  22  40  74  92 122 156 206 244 312 364
#
# _framework density 17.795822999999999
#
# number of rings (size 3 to 8) (size 9 to 14) (size 15 to 20)
#    0.414    1.103    1.379    4.759    0.000    3.586 
#    0.000    4.138    1.517    0.000    0.000    0.000 
#    0.000    0.000    0.000    0.000    0.000    0.000 
#
# Total GULP energy -323414.843728 kJ/mol
# GULP energy per Si atom -5576.117995 kJ/mol
# Density = 1.775532 g / cm^3
# Si number density = 17.795823 Si / 1000 Ang^3
#
#
#
# Elastic Constant Matrix: (Units=GPa)
#
#
# Indices 1 2 3 4 5 6 
#
# 1 82.2389 31.9524 35.5555 0.0000 0.0000 0.0000
# 2 31.9524 83.9818 49.6653 0.0000 0.0000 0.0000
# 3 35.5555 49.6653 138.1978 0.0000 0.0000 0.0000
# 4 0.0000 0.0000 0.0000 31.4847 0.0000 0.0000
# 5 0.0000 0.0000 0.0000 0.0000 28.6605 0.0000
# 6 0.0000 0.0000 0.0000 0.0000 0.0000 14.3713
#
#
#
# Elastic Compliance Matrix: (Units=1/GPa)
#
#
# Indices 1 2 3 4 5 6 
#
# 1 0.014808 -0.004293 -0.002267 0.000000 0.000000 0.000000
# 2 -0.004293 0.016366 -0.004777 0.000000 0.000000 0.000000
# 3 -0.002267 -0.004777 0.009536 0.000000 0.000000 0.000000
# 4 0.000000 0.000000 0.000000 0.031761 0.000000 0.000000
# 5 0.000000 0.000000 0.000000 0.000000 0.034891 0.000000
# 6 0.000000 0.000000 0.000000 0.000000 0.000000 0.069583
#
#
# Mechanical properties :
#
#
# Convention : Reuss Voigt Hill
#
# Bulk Modulus (GPa) = 55.44656 59.86278 57.65467
# Shear Modulus (GPa) = 24.31535 27.38633 25.85084
#
# Velocity S-wave (km/s) = 3.70043 3.92716 3.81548
# Velocity P-wave (km/s) = 7.03436 7.36717 7.20269
#
# Compressibility (1/GPa) = 0.01803538
#
# Stress axis : x y z
#
# Youngs Moduli (GPa) = 67.53175 61.10302 104.86658
#
# Poissons Ratio (x) = 0.26234 0.23771
# Poissons Ratio (y) = 0.28994 0.50094
# Poissons Ratio (z) = 0.15308 0.29188
#
# Static dielectric constant tensor:
#      x y z
#    x 1.621250 0.000000 0.000000 
#    y 0.000000 1.623130 0.000000 
#    z 0.000000 0.000000 1.603590 
# 
# From -- ./inp_files/8602.got.cif
#   From: 2010.05.17/outbox.cif.g08.bks.cpg/sg72_5_cif.got.tgz:8602.got - 2010.06.03 17:03:01.
