data_PCOD9526178
_publ_section_title
;
Structure prediction by ZEFSAII (Michael W. Deem and Ramdas Pophale) SiO2 
 PCOD9526178
Probable space group: I B A M
;
_chemical_formula_sum "Si O2"
_cell_formula_units_Z 116
_cell_length_a 24.554177
_cell_length_b 26.385783
_cell_length_c 8.020433
_cell_angle_alpha 90.000000
_cell_angle_beta 90.000000
_cell_angle_gamma 90.000000
_cell_volume 5196.287645
_symmetry_space_group_name_H-M "I B A M"
_symmetry_group_IT_number 72
_symmetry_cell_setting 'orthorhombic'
loop_
_space_group_symop_operation_xyz
x,y,z
-x,-y,z
x,-y,1/2-z
-x,y,1/2-z
-x,-y,-z
x,y,-z
-x,y,1/2+z
x,-y,1/2+z
1/2+x,1/2+y,1/2+z
1/2-x,1/2-y,1/2+z
1/2+x,1/2-y,-z
1/2-x,1/2+y,-z
1/2-x,1/2-y,1/2-z
1/2+x,1/2+y,1/2-z
1/2-x,1/2+y,z
1/2+x,1/2-y,z
loop_
_atom_site_type_symbol
_atom_site_label
_atom_site_fract_x
_atom_site_fract_y
_atom_site_fract_z
Si Si1 0.560623 0.878328 0.801643
Si Si2 0.398313 0.433853 0.807756
Si Si3 0.667007 0.941746 0.698484
Si Si4 0.557563 0.339877 0.809524
Si Si5 0.200968 0.785521 0.800689
Si Si6 0.785204 0.901488 0.295232
Si Si7 0.411616 0.765672 0.702011
Si Si8 0.500000 0.500000 0.750000
O O1 0.500000 0.895858 0.750000
O O2 0.612637 0.911927 0.752703
O O3 0.571128 0.820934 0.737564
O O4 0.560358 0.875700 0.000000
O O5 0.402946 0.372678 0.804466
O O6 0.336056 0.438134 0.743986
O O7 0.450250 0.458431 0.710773
O O8 0.404149 0.451133 0.000000
O O9 0.669082 0.938252 0.500000
O O10 0.725270 0.919873 0.760403
O O11 0.662460 0.000000 0.750000
O O12 0.500000 0.359029 0.750000
O O13 0.556187 0.280468 0.780981
O O14 0.569760 0.351332 0.000000
O O15 0.250000 0.750000 0.750000
O O16 0.207136 0.843100 0.735932
O O17 0.148578 0.752844 0.749338
O O18 0.198816 0.790001 0.000000
O O19 0.786528 0.902136 0.500000
O O20 0.416465 0.764188 0.500000
#
# Coordination Sequence:
#
# PCOD9526178 Si02
#       8
#    16  16  16  16  16  16  16   4
#     4  11  24  43  69 102 137 176 219 270 333 407
#     4  11  23  43  64  89 130 172 223 282 340 396
#     4  11  24  44  70  99 132 174 222 278 340 405
#     4  12  24  38  60  89 123 165 215 266 324 390
#     4  10  19  34  58  89 126 171 213 259 320 383
#     4   9  20  40  65  90 129 178 217 269 337 396
#     4  10  21  39  63  92 132 174 214 263 325 391
#     4  12  26  36  72 102 126 176 236 292 344 380
#
# _framework density 22.323630000000001
#
# number of rings (size 3 to 8) (size 9 to 14) (size 15 to 20)
#    0.000    1.379    2.069    3.517    0.966    3.586 
#    0.000    3.448    0.000    0.000    0.000    0.000 
#    0.000    0.000    0.000    0.000    0.000    0.000 
#
# Total GULP energy -323117.336200 kJ/mol
# GULP energy per Si atom -5570.988555 kJ/mol
# Density = 2.227282 g / cm^3
# Si number density = 22.323630 Si / 1000 Ang^3
#
#
#
# Elastic Constant Matrix: (Units=GPa)
#
#
# Indices 1 2 3 4 5 6 
#
# 1 193.9367 70.8649 33.6439 0.0000 0.0000 0.0000
# 2 70.8649 112.8687 9.4429 0.0000 0.0000 0.0000
# 3 33.6439 9.4429 26.1547 0.0000 0.0000 0.0000
# 4 0.0000 0.0000 0.0000 15.5094 0.0000 0.0000
# 5 0.0000 0.0000 0.0000 0.0000 6.8875 0.0000
# 6 0.0000 0.0000 0.0000 0.0000 0.0000 49.9823
#
#
#
# Elastic Compliance Matrix: (Units=1/GPa)
#
#
# Indices 1 2 3 4 5 6 
#
# 1 0.008392 -0.004502 -0.009170 0.000000 0.000000 0.000000
# 2 -0.004502 0.011551 0.001621 0.000000 0.000000 0.000000
# 3 -0.009170 0.001621 0.049444 0.000000 0.000000 0.000000
# 4 0.000000 0.000000 0.000000 0.064477 0.000000 0.000000
# 5 0.000000 0.000000 0.000000 0.000000 0.145190 0.000000
# 6 0.000000 0.000000 0.000000 0.000000 0.000000 0.020007
#
#
# Mechanical properties :
#
#
# Convention : Reuss Voigt Hill
#
# Bulk Modulus (GPa) = 22.08220 62.31815 42.20018
# Shear Modulus (GPa) = 14.78161 29.07641 21.92901
#
# Velocity S-wave (km/s) = 2.57602 3.61292 3.13760
# Velocity P-wave (km/s) = 4.33142 6.73652 5.66312
#
# Compressibility (1/GPa) = 0.04528534
#
# Stress axis : x y z
#
# Youngs Moduli (GPa) = 119.16051 86.57453 20.22473
#
# Poissons Ratio (x) = 0.38974 0.18546
# Poissons Ratio (y) = 0.53644 -0.03278
# Poissons Ratio (z) = 1.09267 -0.14030
#
# Static dielectric constant tensor:
#      x y z
#    x 2.470060 0.000000 0.000000 
#    y 0.000000 1.817400 0.000000 
#    z 0.000000 0.000000 1.776940 
# 
# From -- ./inp_files/7336.got.cif
#   From: 2010.05.17/outbox.cif.g08.bks.cpg/sg72_4_cif.got.tgz:7336.got - 2010.06.03 17:03:01.
