data_PCOD9526195
_publ_section_title
;
Structure prediction by ZEFSAII (Michael W. Deem and Ramdas Pophale) SiO2 
 PCOD9526195
Probable space group: I B A M
;
_chemical_formula_sum "Si O2"
_cell_formula_units_Z 68
_cell_length_a 17.492075
_cell_length_b 9.941753
_cell_length_c 19.560635
_cell_angle_alpha 90.000000
_cell_angle_beta 90.000000
_cell_angle_gamma 90.000000
_cell_volume 3401.631379
_symmetry_space_group_name_H-M "I B A M"
_symmetry_group_IT_number 72
_symmetry_cell_setting 'orthorhombic'
loop_
_space_group_symop_operation_xyz
x,y,z
-x,-y,z
x,-y,1/2-z
-x,y,1/2-z
-x,-y,-z
x,y,-z
-x,y,1/2+z
x,-y,1/2+z
1/2+x,1/2+y,1/2+z
1/2-x,1/2-y,1/2+z
1/2+x,1/2-y,-z
1/2-x,1/2+y,-z
1/2-x,1/2-y,1/2-z
1/2+x,1/2+y,1/2-z
1/2-x,1/2+y,z
1/2+x,1/2-y,z
loop_
_atom_site_type_symbol
_atom_site_label
_atom_site_fract_x
_atom_site_fract_y
_atom_site_fract_z
Si Si1 0.426001 0.826749 0.634895
Si Si2 0.876830 0.043934 0.083437
Si Si3 0.197679 0.531322 0.581814
Si Si4 0.500000 0.000000 0.250000
Si Si5 0.915744 0.750346 0.919087
O O1 0.404426 0.670589 0.627091
O O2 0.447261 0.900339 0.705308
O O3 0.507012 0.831133 0.594968
O O4 0.354936 0.907612 0.604001
O O5 0.786806 0.022883 0.097594
O O6 0.917937 0.904899 0.103599
O O7 0.887284 0.068778 0.000000
O O8 0.194010 0.536274 0.500000
O O9 0.155655 0.665535 0.609215
O O10 0.905082 0.761060 0.000000
#
# Coordination Sequence:
#
# PCOD9526195 Si02
#       5
#    16  16  16   4  16
#     4  12  22  41  61  81 124 164 213 254 289 341
#     4  10  21  36  62 100 131 149 183 253 333 386
#     4  10  19  35  63  96 127 157 188 245 328 386
#     4  12  28  44  60  80 112 176 240 254 260 336
#     4  10  19  34  60  94 124 154 194 248 323 381
#
# _framework density 19.990407999999999
#
# number of rings (size 3 to 8) (size 9 to 14) (size 15 to 20)
#    0.000    1.412    2.353    4.235    0.000    7.529 
#    0.000    3.529    0.000    0.000    0.000    0.000 
#    0.000    0.000    0.000    0.000    0.000    0.000 
#
# Total GULP energy -189623.391258 kJ/mol
# GULP energy per Si atom -5577.158566 kJ/mol
# Density = 1.994491 g / cm^3
# Si number density = 19.990408 Si / 1000 Ang^3
#
#
#
# Elastic Constant Matrix: (Units=GPa)
#
#
# Indices 1 2 3 4 5 6 
#
# 1 91.0137 36.7919 17.4795 0.0000 0.0000 0.0000
# 2 36.7919 150.0309 34.9699 0.0000 0.0000 0.0000
# 3 17.4795 34.9699 14.7528 0.0000 0.0000 0.0000
# 4 0.0000 0.0000 0.0000 28.5138 0.0000 0.0000
# 5 0.0000 0.0000 0.0000 0.0000 2.5911 0.0000
# 6 0.0000 0.0000 0.0000 0.0000 0.0000 30.7444
#
#
#
# Elastic Compliance Matrix: (Units=1/GPa)
#
#
# Indices 1 2 3 4 5 6 
#
# 1 0.014289 0.000988 -0.019272 0.000000 0.000000 0.000000
# 2 0.000988 0.014963 -0.036638 0.000000 0.000000 0.000000
# 3 -0.019272 -0.036638 0.177463 0.000000 0.000000 0.000000
# 4 0.000000 0.000000 0.000000 0.035071 0.000000 0.000000
# 5 0.000000 0.000000 0.000000 0.000000 0.385931 0.000000
# 6 0.000000 0.000000 0.000000 0.000000 0.000000 0.032526
#
#
# Mechanical properties :
#
#
# Convention : Reuss Voigt Hill
#
# Bulk Modulus (GPa) = 10.32297 48.25332 29.28814
# Shear Modulus (GPa) = 6.23149 23.47361 14.85255
#
# Velocity S-wave (km/s) = 1.76749 3.43044 2.72873
# Velocity P-wave (km/s) = 3.05623 6.31516 4.96093
#
# Compressibility (1/GPa) = 0.09687131
#
# Stress axis : x y z
#
# Youngs Moduli (GPa) = 69.98281 66.83257 5.63499
#
# Poissons Ratio (x) = -0.06602 0.10860
# Poissons Ratio (y) = -0.06913 0.20645
# Poissons Ratio (z) = 1.34868 2.44860
#
# Static dielectric constant tensor:
#      x y z
#    x 1.742810 0.000000 0.000000 
#    y 0.000000 1.609810 0.000000 
#    z 0.000000 0.000000 1.690120 
# 
# From -- ./inp_files/27748.got.cif
#   From: 2010.05.17/outbox.cif.g08.bks.cpg/sg72_14_cif.got.tgz:27748.got - 2010.06.03 17:03:01.
