data_PCOD9526810
_publ_section_title
;
Structure prediction by ZEFSAII (Michael W. Deem and Ramdas Pophale) SiO2 
 PCOD9526810
Probable space group: I B A M
;
_chemical_formula_sum "Si O2"
_cell_formula_units_Z 60
_cell_length_a 26.819603
_cell_length_b 11.229415
_cell_length_c 9.997859
_cell_angle_alpha 90.000000
_cell_angle_beta 90.000000
_cell_angle_gamma 90.000000
_cell_volume 3011.039721
_symmetry_space_group_name_H-M "I B A M"
_symmetry_group_IT_number 72
_symmetry_cell_setting 'orthorhombic'
loop_
_space_group_symop_operation_xyz
x,y,z
-x,-y,z
x,-y,1/2-z
-x,y,1/2-z
-x,-y,-z
x,y,-z
-x,y,1/2+z
x,-y,1/2+z
1/2+x,1/2+y,1/2+z
1/2-x,1/2-y,1/2+z
1/2+x,1/2-y,-z
1/2-x,1/2+y,-z
1/2-x,1/2-y,1/2-z
1/2+x,1/2+y,1/2-z
1/2-x,1/2+y,z
1/2+x,1/2-y,z
loop_
_atom_site_type_symbol
_atom_site_label
_atom_site_fract_x
_atom_site_fract_y
_atom_site_fract_z
Si Si1 0.838191 0.603642 0.500000
Si Si2 0.145911 0.677030 0.500000
Si Si3 0.000000 0.831939 0.750000
Si Si4 0.780369 0.882114 0.000000
Si Si5 0.606834 0.741220 0.781090
Si Si6 0.000000 0.000000 0.000000
Si Si7 0.336595 0.500000 0.250000
O O1 0.848145 0.463588 0.500000
O O2 0.778856 0.620135 0.500000
O O3 0.863286 0.668426 0.374178
O O4 0.198406 0.747706 0.500000
O O5 0.117520 0.721271 0.369662
O O6 0.952113 0.761153 0.696497
O O7 0.017784 0.908416 0.621353
O O8 0.802787 0.948093 0.130417
O O9 0.628813 0.608051 0.802196
#
# Coordination Sequence:
#
# PCOD9526810 Si02
#       7
#     8   8   8   8  16   4   8
#     4  12  26  42  66  93 131 176 227 266 322 400
#     4  10  25  44  62  92 131 172 224 272 321 398
#     4  11  22  40  65  98 138 172 219 269 334 386
#     4  10  25  40  68  94 133 171 215 283 338 383
#     4  11  24  42  66  98 132 174 218 272 331 393
#     4  10  20  34  68  98 128 172 204 274 340 376
#     4  10  22  41  66 100 130 161 218 274 344 400
#
# _framework density 19.926672
#
# number of rings (size 3 to 8) (size 9 to 14) (size 15 to 20)
#    0.000    1.333    0.000    4.800    7.467    6.400 
#    0.000    4.000    0.000    0.000    0.000    0.000 
#    0.000    0.000    0.000    0.000    0.000    0.000 
#
# Total GULP energy -167168.865774 kJ/mol
# GULP energy per Si atom -5572.295526 kJ/mol
# Density = 1.988132 g / cm^3
# Si number density = 19.926672 Si / 1000 Ang^3
#
#
#
# Elastic Constant Matrix: (Units=GPa)
#
#
# Indices 1 2 3 4 5 6 
#
# 1 147.1522 53.8558 14.7157 0.0000 0.0000 0.0000
# 2 53.8558 151.8708 27.7479 0.0000 0.0000 0.0000
# 3 14.7157 27.7479 120.8600 0.0000 0.0000 0.0000
# 4 0.0000 0.0000 0.0000 29.9767 0.0000 0.0000
# 5 0.0000 0.0000 0.0000 0.0000 -10.1526 0.0000
# 6 0.0000 0.0000 0.0000 0.0000 0.0000 -18.1412
#
#
#
# Elastic Compliance Matrix: (Units=1/GPa)
#
#
# Indices 1 2 3 4 5 6 
#
# 1 0.007822 -0.002714 -0.000329 0.000000 0.000000 0.000000
# 2 -0.002714 0.007814 -0.001464 0.000000 0.000000 0.000000
# 3 -0.000329 -0.001464 0.008650 0.000000 0.000000 0.000000
# 4 0.000000 0.000000 0.000000 0.033359 0.000000 0.000000
# 5 0.000000 0.000000 0.000000 0.000000 -0.098497 0.000000
# 6 0.000000 0.000000 0.000000 0.000000 0.000000 -0.055123
#
#
# Mechanical properties :
#
#
# Convention : Reuss Voigt Hill
#
# Bulk Modulus (GPa) = 65.47485 68.05796 66.76641
# Shear Modulus (GPa) = -61.07174 21.90750 -19.58212
#
# Velocity S-wave (km/s) = -5.54209 3.31933 -3.13822
# Velocity P-wave (km/s) = 2.83263 6.99421 4.52190
#
# Compressibility (1/GPa) = 0.01527304
#
# Stress axis : x y z
#
# Youngs Moduli (GPa) = 127.84875 127.97174 115.60459
#
# Poissons Ratio (x) = 0.34726 0.03808
# Poissons Ratio (y) = 0.34692 0.16920
# Poissons Ratio (z) = 0.04211 0.18731
#
# Static dielectric constant tensor:
#      x y z
#    x 1.729820 0.000000 0.000000 
#    y 0.000000 1.702010 0.000000 
#    z 0.000000 0.000000 1.641910 
# 
# From -- ./inp_files/7729.got.cif
#   From: 2010.05.17/outbox.cif.g08.bks.cpg/sg72_4_cif.got.tgz:7729.got - 2010.06.03 17:03:01.
