data_PCOD9526098
_publ_section_title
;
Structure prediction by ZEFSAII (Michael W. Deem and Ramdas Pophale) SiO2 
 PCOD9526098
Probable space group: I B A M
;
_chemical_formula_sum "Si O2"
_cell_formula_units_Z 120
_cell_length_a 24.255359
_cell_length_b 11.607799
_cell_length_c 24.657755
_cell_angle_alpha 90.000000
_cell_angle_beta 90.000000
_cell_angle_gamma 90.000000
_cell_volume 6942.423763
_symmetry_space_group_name_H-M "I B A M"
_symmetry_group_IT_number 72
_symmetry_cell_setting 'orthorhombic'
loop_
_space_group_symop_operation_xyz
x,y,z
-x,-y,z
x,-y,1/2-z
-x,y,1/2-z
-x,-y,-z
x,y,-z
-x,y,1/2+z
x,-y,1/2+z
1/2+x,1/2+y,1/2+z
1/2-x,1/2-y,1/2+z
1/2+x,1/2-y,-z
1/2-x,1/2+y,-z
1/2-x,1/2-y,1/2-z
1/2+x,1/2+y,1/2-z
1/2-x,1/2+y,z
1/2+x,1/2-y,z
loop_
_atom_site_type_symbol
_atom_site_label
_atom_site_fract_x
_atom_site_fract_y
_atom_site_fract_z
Si Si1 0.500000 0.234002 0.560727
Si Si2 0.900418 0.637125 0.868214
Si Si3 0.121501 1.000000 0.935478
Si Si4 0.684258 0.741034 0.437627
Si Si5 0.500000 0.500000 0.418699
Si Si6 0.815742 0.241034 0.937627
Si Si7 0.935970 0.360070 0.250000
Si Si8 0.099582 0.637125 0.131786
O O1 0.500000 0.185643 0.500000
O O2 0.447259 0.193412 0.594370
O O3 0.500000 0.371964 0.556816
O O4 0.552741 0.193412 0.594370
O O5 0.843418 0.674028 0.894904
O O6 0.908028 0.676890 0.806110
O O7 0.907752 0.500000 0.869390
O O8 0.158584 0.113951 0.927494
O O9 0.065320 1.000000 0.899606
O O10 0.158584 0.886049 0.927494
O O11 0.104572 1.000000 0.000000
O O12 0.668823 0.771333 0.500000
O O13 0.750000 0.750000 0.433954
O O14 0.843418 0.325972 0.894904
O O15 0.831177 0.271333 0.000000
O O16 0.935594 0.500000 0.250000
O O17 0.908028 0.323110 0.193890
O O18 0.000000 0.323986 0.250000
#
# Coordination Sequence:
#
# PCOD9526098 Si02
#       8
#    16  16  16  16   8  16  16  16
#     4  12  22  33  53  84 116 145 178 225 286 343
#     4  11  22  36  57  83 111 145 186 235 282 332
#     4  10  19  34  54  76 111 155 188 216 267 344
#     4  10  22  37  55  82 115 151 187 228 281 338
#     4  12  21  34  54  81 116 151 186 218 269 352
#     4  10  22  37  55  82 115 151 187 228 281 338
#     4   9  18  36  57  78 108 148 188 222 279 346
#     4  11  22  36  57  83 111 145 186 235 282 332
#
# _framework density 17.285031
#
# number of rings (size 3 to 8) (size 9 to 14) (size 15 to 20)
#    0.000    1.467    4.000    2.400    1.867    2.667 
#    0.000    0.667    0.000    4.000    0.000    0.000 
#    0.000    0.000    0.000    0.000    0.000    0.000 
#
# Total GULP energy -334268.409311 kJ/mol
# GULP energy per Si atom -5571.140155 kJ/mol
# Density = 1.724569 g / cm^3
# Si number density = 17.285031 Si / 1000 Ang^3
#
#
#
# Elastic Constant Matrix: (Units=GPa)
#
#
# Indices 1 2 3 4 5 6 
#
# 1 98.7707 22.5183 52.2377 0.0000 0.0000 0.0000
# 2 22.5183 68.7805 33.8818 0.0000 0.0000 0.0000
# 3 52.2377 33.8818 138.5789 0.0000 0.0000 0.0000
# 4 0.0000 0.0000 0.0000 3.3728 0.0000 0.0000
# 5 0.0000 0.0000 0.0000 0.0000 12.9861 0.0000
# 6 0.0000 0.0000 0.0000 0.0000 0.0000 23.5549
#
#
#
# Elastic Compliance Matrix: (Units=1/GPa)
#
#
# Indices 1 2 3 4 5 6 
#
# 1 0.012902 -0.002079 -0.004355 0.000000 0.000000 0.000000
# 2 -0.002079 0.016865 -0.003340 0.000000 0.000000 0.000000
# 3 -0.004355 -0.003340 0.009674 0.000000 0.000000 0.000000
# 4 0.000000 0.000000 0.000000 0.296491 0.000000 0.000000
# 5 0.000000 0.000000 0.000000 0.000000 0.077005 0.000000
# 6 0.000000 0.000000 0.000000 0.000000 0.000000 0.042454
#
#
# Mechanical properties :
#
#
# Convention : Reuss Voigt Hill
#
# Bulk Modulus (GPa) = 50.26705 58.15618 54.21162
# Shear Modulus (GPa) = 10.38273 21.14891 15.76582
#
# Velocity S-wave (km/s) = 2.45353 3.50171 3.02339
# Velocity P-wave (km/s) = 6.09679 7.07585 6.60449
#
# Compressibility (1/GPa) = 0.01989375
#
# Stress axis : x y z
#
# Youngs Moduli (GPa) = 77.50938 59.29537 103.36613
#
# Poissons Ratio (x) = 0.12325 0.45017
# Poissons Ratio (y) = 0.16111 0.34522
# Poissons Ratio (z) = 0.33756 0.19804
#
# Static dielectric constant tensor:
#      x y z
#    x 1.615230 0.000000 0.000000 
#    y 0.000000 1.585320 0.000000 
#    z 0.000000 0.000000 1.586290 
# 
# From -- ./inp_files/45823.got.cif
#   From: 2010.05.17/outbox.cif.g08.bks.cpg/sg72_23_cif.got.tgz:45823.got - 2010.06.03 17:03:01.
