data_PCOD9526978
_publ_section_title
;
Structure prediction by ZEFSAII (Michael W. Deem and Ramdas Pophale) SiO2 
 PCOD9526978
Probable space group: I B A M
;
_chemical_formula_sum "Si O2"
_cell_formula_units_Z 60
_cell_length_a 9.797682
_cell_length_b 15.897617
_cell_length_c 18.610980
_cell_angle_alpha 90.000000
_cell_angle_beta 90.000000
_cell_angle_gamma 90.000000
_cell_volume 2898.842447
_symmetry_space_group_name_H-M "I B A M"
_symmetry_group_IT_number 72
_symmetry_cell_setting 'orthorhombic'
loop_
_space_group_symop_operation_xyz
x,y,z
-x,-y,z
x,-y,1/2-z
-x,y,1/2-z
-x,-y,-z
x,y,-z
-x,y,1/2+z
x,-y,1/2+z
1/2+x,1/2+y,1/2+z
1/2-x,1/2-y,1/2+z
1/2+x,1/2-y,-z
1/2-x,1/2+y,-z
1/2-x,1/2-y,1/2-z
1/2+x,1/2+y,1/2-z
1/2-x,1/2+y,z
1/2+x,1/2-y,z
loop_
_atom_site_type_symbol
_atom_site_label
_atom_site_fract_x
_atom_site_fract_y
_atom_site_fract_z
Si Si1 0.000000 0.000000 0.750000
Si Si2 0.897701 0.144000 0.344895
Si Si3 0.453038 0.137991 0.000000
Si Si4 0.653445 0.432059 0.000000
Si Si5 0.647970 0.742703 0.122797
Si Si6 0.758510 0.884114 0.500000
O O1 0.905082 0.940194 0.798362
O O2 0.899362 0.113755 0.428439
O O3 0.764615 0.202763 0.338547
O O4 0.036790 0.194794 0.330156
O O5 0.316459 0.083901 0.000000
O O6 0.437818 0.196346 0.070194
O O7 0.598430 0.094314 0.000000
O O8 0.353898 0.466722 0.000000
O O9 0.715182 0.673962 0.069568
#
# Coordination Sequence:
#
# PCOD9526978 Si02
#       6
#     4  16   8   8  16   8
#     4  12  28  42  64  86 124 156 220 250 312 350
#     4  11  23  43  62  95 120 165 198 259 297 375
#     4   9  17  31  53  98 124 156 188 253 296 368
#     4  10  21  35  62  93 131 152 199 248 316 340
#     4  10  20  35  63  85 126 158 207 238 311 355
#     4  11  17  30  57  97 127 161 190 253 295 368
#
# _framework density 20.697917
#
# number of rings (size 3 to 8) (size 9 to 14) (size 15 to 20)
#    0.000    1.600    2.667    4.400    0.000    2.667 
#    0.000    0.000    0.000    1.600    0.000    0.000 
#    0.000    0.000    0.000    0.000    0.000    0.000 
#
# Total GULP energy -167658.934292 kJ/mol
# GULP energy per Si atom -5588.631143 kJ/mol
# Density = 2.065081 g / cm^3
# Si number density = 20.697917 Si / 1000 Ang^3
#
#
#
# Elastic Constant Matrix: (Units=GPa)
#
#
# Indices 1 2 3 4 5 6 
#
# 1 133.9975 54.8786 35.7115 0.0000 0.0000 0.0000
# 2 54.8786 127.8134 41.8171 0.0000 0.0000 0.0000
# 3 35.7115 41.8171 80.5621 0.0000 0.0000 0.0000
# 4 0.0000 0.0000 0.0000 32.5546 0.0000 0.0000
# 5 0.0000 0.0000 0.0000 0.0000 7.1711 0.0000
# 6 0.0000 0.0000 0.0000 0.0000 0.0000 47.0610
#
#
#
# Elastic Compliance Matrix: (Units=1/GPa)
#
#
# Indices 1 2 3 4 5 6 
#
# 1 0.009459 -0.003240 -0.002511 0.000000 0.000000 0.000000
# 2 -0.003240 0.010534 -0.004032 0.000000 0.000000 0.000000
# 3 -0.002511 -0.004032 0.015619 0.000000 0.000000 0.000000
# 4 0.000000 0.000000 0.000000 0.030718 0.000000 0.000000
# 5 0.000000 0.000000 0.000000 0.000000 0.139448 0.000000
# 6 0.000000 0.000000 0.000000 0.000000 0.000000 0.021249
#
#
# Mechanical properties :
#
#
# Convention : Reuss Voigt Hill
#
# Bulk Modulus (GPa) = 62.32038 67.46528 64.89283
# Shear Modulus (GPa) = 19.84596 31.35506 25.60051
#
# Velocity S-wave (km/s) = 3.09987 3.89638 3.52072
# Velocity P-wave (km/s) = 6.55646 7.27381 6.92443
#
# Compressibility (1/GPa) = 0.01604612
#
# Stress axis : x y z
#
# Youngs Moduli (GPa) = 105.72018 94.93069 64.02558
#
# Poissons Ratio (x) = 0.30755 0.16079
# Poissons Ratio (y) = 0.34250 0.25814
# Poissons Ratio (z) = 0.26550 0.38274
#
# Static dielectric constant tensor:
#      x y z
#    x 1.735960 0.000000 0.000000 
#    y 0.000000 1.772420 0.000000 
#    z 0.000000 0.000000 1.735650 
# 
# From -- ./inp_files/27563.got.cif
#   From: 2010.05.17/outbox.cif.g08.bks.cpg/sg72_14_cif.got.tgz:27563.got - 2010.06.03 17:03:01.
