data_PCOD9526933
_publ_section_title
;
Structure prediction by ZEFSAII (Michael W. Deem and Ramdas Pophale) SiO2 
 PCOD9526933
Probable space group: I B A M
;
_chemical_formula_sum "Si O2"
_cell_formula_units_Z 64
_cell_length_a 10.419152
_cell_length_b 16.324577
_cell_length_c 17.850776
_cell_angle_alpha 90.000000
_cell_angle_beta 90.000000
_cell_angle_gamma 90.000000
_cell_volume 3036.207235
_symmetry_space_group_name_H-M "I B A M"
_symmetry_group_IT_number 72
_symmetry_cell_setting 'orthorhombic'
loop_
_space_group_symop_operation_xyz
x,y,z
-x,-y,z
x,-y,1/2-z
-x,y,1/2-z
-x,-y,-z
x,y,-z
-x,y,1/2+z
x,-y,1/2+z
1/2+x,1/2+y,1/2+z
1/2-x,1/2-y,1/2+z
1/2+x,1/2-y,-z
1/2-x,1/2+y,-z
1/2-x,1/2-y,1/2-z
1/2+x,1/2+y,1/2-z
1/2-x,1/2+y,z
1/2+x,1/2-y,z
loop_
_atom_site_type_symbol
_atom_site_label
_atom_site_fract_x
_atom_site_fract_y
_atom_site_fract_z
Si Si1 0.491805 0.223467 0.336776
Si Si2 0.652411 0.508511 0.915914
Si Si3 0.760366 0.166248 0.363710
Si Si4 0.185631 0.585511 0.289635
O O1 0.500000 0.253472 0.250000
O O2 0.628190 0.215113 0.377158
O O3 0.385353 0.278915 0.375738
O O4 0.433120 0.132202 0.326881
O O5 0.500000 0.500000 0.904518
O O6 0.719126 0.419615 0.905513
O O7 0.710532 0.566436 0.852799
O O8 0.675369 0.538533 0.000000
O O9 0.744030 0.142243 0.275666
O O10 0.151688 0.500000 0.250000
#
# Coordination Sequence:
#
# PCOD9526933 Si02
#       4
#    16  16  16  16
#     4  10  20  35  58  93 121 149 186 245 291 343
#     4  10  23  40  58  83 118 155 198 243 291 344
#     4  10  22  36  61  90 119 150 195 235 291 348
#     4   9  19  35  59  87 118 151 196 242 291 339
#
# _framework density 21.07893
#
# number of rings (size 3 to 8) (size 9 to 14) (size 15 to 20)
#    0.000    2.250    0.000    3.000    7.000   15.000 
#    0.000    5.000    0.000    0.000    0.000    0.000 
#    0.000    0.000    0.000    0.000    0.000    0.000 
#
# Total GULP energy -178751.068148 kJ/mol
# GULP energy per Si atom -5585.970880 kJ/mol
# Density = 2.103095 g / cm^3
# Si number density = 21.078930 Si / 1000 Ang^3
#
#
#
# Elastic Constant Matrix: (Units=GPa)
#
#
# Indices 1 2 3 4 5 6 
#
# 1 111.8120 20.6946 23.3899 0.0000 0.0000 0.0000
# 2 20.6946 51.2323 -5.8084 0.0000 0.0000 0.0000
# 3 23.3899 -5.8084 53.7862 0.0000 0.0000 0.0000
# 4 0.0000 0.0000 0.0000 3.0405 0.0000 0.0000
# 5 0.0000 0.0000 0.0000 0.0000 7.7158 0.0000
# 6 0.0000 0.0000 0.0000 0.0000 0.0000 37.9509
#
#
#
# Elastic Compliance Matrix: (Units=1/GPa)
#
#
# Indices 1 2 3 4 5 6 
#
# 1 0.010991 -0.005043 -0.005324 0.000000 0.000000 0.000000
# 2 -0.005043 0.022075 0.004577 0.000000 0.000000 0.000000
# 3 -0.005324 0.004577 0.021402 0.000000 0.000000 0.000000
# 4 0.000000 0.000000 0.000000 0.328896 0.000000 0.000000
# 5 0.000000 0.000000 0.000000 0.000000 0.129604 0.000000
# 6 0.000000 0.000000 0.000000 0.000000 0.000000 0.026350
#
#
# Mechanical properties :
#
#
# Convention : Reuss Voigt Hill
#
# Bulk Modulus (GPa) = 23.31720 32.59809 27.95764
# Shear Modulus (GPa) = 8.84652 21.64507 15.24579
#
# Velocity S-wave (km/s) = 2.05085 3.20794 2.69229
# Velocity P-wave (km/s) = 4.08581 5.40551 4.79131
#
# Compressibility (1/GPa) = 0.04288681
#
# Stress axis : x y z
#
# Youngs Moduli (GPa) = 90.98551 45.30017 46.72520
#
# Poissons Ratio (x) = 0.22846 0.24877
# Poissons Ratio (y) = 0.45886 -0.21386
# Poissons Ratio (z) = 0.48442 -0.20734
#
# Static dielectric constant tensor:
#      x y z
#    x 1.783990 0.000000 0.000000 
#    y 0.000000 1.772010 0.000000 
#    z 0.000000 0.000000 1.729210 
# 
# From -- ./inp_files/19733.got.cif
#   From: 2010.05.17/outbox.cif.g08.bks.cpg/sg72_10_cif.got.tgz:19733.got - 2010.06.03 17:03:01.
