data_PCOD9526539
_publ_section_title
;
Structure prediction by ZEFSAII (Michael W. Deem and Ramdas Pophale) SiO2 
 PCOD9526539
Probable space group: I B A M
;
_chemical_formula_sum "Si O2"
_cell_formula_units_Z 104
_cell_length_a 28.203974
_cell_length_b 20.732289
_cell_length_c 9.478720
_cell_angle_alpha 90.000000
_cell_angle_beta 90.000000
_cell_angle_gamma 90.000000
_cell_volume 5542.519812
_symmetry_space_group_name_H-M "I B A M"
_symmetry_group_IT_number 72
_symmetry_cell_setting 'orthorhombic'
loop_
_space_group_symop_operation_xyz
x,y,z
-x,-y,z
x,-y,1/2-z
-x,y,1/2-z
-x,-y,-z
x,y,-z
-x,y,1/2+z
x,-y,1/2+z
1/2+x,1/2+y,1/2+z
1/2-x,1/2-y,1/2+z
1/2+x,1/2-y,-z
1/2-x,1/2+y,-z
1/2-x,1/2-y,1/2-z
1/2+x,1/2+y,1/2-z
1/2-x,1/2+y,z
1/2+x,1/2-y,z
loop_
_atom_site_type_symbol
_atom_site_label
_atom_site_fract_x
_atom_site_fract_y
_atom_site_fract_z
Si Si1 0.670762 0.500000 0.250000
Si Si2 0.451877 0.697698 0.165853
Si Si3 0.867314 0.702507 0.163288
Si Si4 0.607554 0.388827 0.350384
Si Si5 0.304321 0.709864 0.340443
Si Si6 0.747993 0.395822 0.835960
Si Si7 0.841021 0.439061 0.666312
O O1 0.634997 0.455936 0.338725
O O2 0.705502 0.448854 0.173517
O O3 0.500000 0.708528 0.250000
O O4 0.414777 0.756528 0.189956
O O5 0.426364 0.633229 0.224870
O O6 0.460280 0.692888 0.000000
O O7 0.826341 0.727498 0.267087
O O8 0.871876 0.625891 0.178099
O O9 0.853236 0.715733 0.000000
O O10 0.581465 0.384625 0.500000
O O11 0.650018 0.336955 0.351550
O O12 0.285716 0.719178 0.500000
O O13 0.270127 0.670122 0.236852
O O14 0.791115 0.422696 0.742259
O O15 0.760650 0.387181 0.000000
O O16 0.861280 0.500000 0.750000
O O17 0.833553 0.452939 0.500000
#
# Coordination Sequence:
#
# PCOD9526539 Si02
#       7
#     8  16  16  16  16  16  16
#     4  10  20  32  53  78 110 150 201 232 264 312
#     4  10  20  37  61  86 109 135 172 221 278 338
#     4   9  20  38  58  80 108 141 177 221 275 331
#     4   9  18  32  51  78 110 144 182 226 272 319
#     4   9  18  32  52  78 107 140 184 232 274 319
#     4  11  21  33  52  76 108 150 193 233 272 315
#     4  11  23  38  55  78 109 144 184 226 270 325
#
# _framework density 18.764029000000001
#
# number of rings (size 3 to 8) (size 9 to 14) (size 15 to 20)
#    0.000    2.154    0.769    2.308    0.000    8.000 
#    0.000    0.385    0.000    2.308    0.000    3.231 
#    0.000    0.000    0.000    0.000    0.000    0.000 
#
# Total GULP energy -290080.813145 kJ/mol
# GULP energy per Si atom -5578.477176 kJ/mol
# Density = 1.872132 g / cm^3
# Si number density = 18.764029 Si / 1000 Ang^3
#
#
#
# Elastic Constant Matrix: (Units=GPa)
#
#
# Indices 1 2 3 4 5 6 
#
# 1 67.7348 22.7698 47.0922 0.0000 0.0000 0.0000
# 2 22.7698 70.4989 31.0247 0.0000 0.0000 0.0000
# 3 47.0922 31.0247 127.4647 0.0000 0.0000 0.0000
# 4 0.0000 0.0000 0.0000 16.7623 0.0000 0.0000
# 5 0.0000 0.0000 0.0000 0.0000 21.3877 0.0000
# 6 0.0000 0.0000 0.0000 0.0000 0.0000 18.8977
#
#
#
# Elastic Compliance Matrix: (Units=1/GPa)
#
#
# Indices 1 2 3 4 5 6 
#
# 1 0.020702 -0.003719 -0.006743 0.000000 0.000000 0.000000
# 2 -0.003719 0.016554 -0.002655 0.000000 0.000000 0.000000
# 3 -0.006743 -0.002655 0.010983 0.000000 0.000000 0.000000
# 4 0.000000 0.000000 0.000000 0.059658 0.000000 0.000000
# 5 0.000000 0.000000 0.000000 0.000000 0.046756 0.000000
# 6 0.000000 0.000000 0.000000 0.000000 0.000000 0.052916
#
#
# Mechanical properties :
#
#
# Convention : Reuss Voigt Hill
#
# Bulk Modulus (GPa) = 45.44574 51.94132 48.69353
# Shear Modulus (GPa) = 20.73498 22.39698 21.56598
#
# Velocity S-wave (km/s) = 3.32782 3.45862 3.39385
# Velocity P-wave (km/s) = 6.24804 6.60990 6.43152
#
# Compressibility (1/GPa) = 0.02200426
#
# Stress axis : x y z
#
# Youngs Moduli (GPa) = 48.30518 60.40741 91.05053
#
# Poissons Ratio (x) = 0.22464 0.61397
# Poissons Ratio (y) = 0.17964 0.24177
# Poissons Ratio (z) = 0.32573 0.16040
#
# Static dielectric constant tensor:
#      x y z
#    x 1.624210 0.000000 0.000000 
#    y 0.000000 1.680950 0.000000 
#    z 0.000000 0.000000 1.671050 
# 
# From -- ./inp_files/6145.got.cif
#   From: 2010.05.17/outbox.cif.g08.bks.cpg/sg72_4_cif.got.tgz:6145.got - 2010.06.03 17:03:01.
