data_PCOD9526994
_publ_section_title
;
Structure prediction by ZEFSAII (Michael W. Deem and Ramdas Pophale) SiO2 
 PCOD9526994
Probable space group: I B A M
;
_chemical_formula_sum "Si O2"
_cell_formula_units_Z 96
_cell_length_a 23.411604
_cell_length_b 26.382675
_cell_length_c 8.640354
_cell_angle_alpha 90.000000
_cell_angle_beta 90.000000
_cell_angle_gamma 90.000000
_cell_volume 5336.807442
_symmetry_space_group_name_H-M "I B A M"
_symmetry_group_IT_number 72
_symmetry_cell_setting 'orthorhombic'
loop_
_space_group_symop_operation_xyz
x,y,z
-x,-y,z
x,-y,1/2-z
-x,y,1/2-z
-x,-y,-z
x,y,-z
-x,y,1/2+z
x,-y,1/2+z
1/2+x,1/2+y,1/2+z
1/2-x,1/2-y,1/2+z
1/2+x,1/2-y,-z
1/2-x,1/2+y,-z
1/2-x,1/2-y,1/2-z
1/2+x,1/2+y,1/2-z
1/2-x,1/2+y,z
1/2+x,1/2-y,z
loop_
_atom_site_type_symbol
_atom_site_label
_atom_site_fract_x
_atom_site_fract_y
_atom_site_fract_z
Si Si1 0.063809 0.754704 0.687852
Si Si2 0.372001 0.152127 0.318927
Si Si3 0.676501 0.944684 0.184324
Si Si4 0.195548 0.055142 0.316212
Si Si5 0.637821 0.648105 0.323509
Si Si6 0.262539 0.196332 0.823487
O O1 0.065593 0.754596 0.500000
O O2 0.090232 0.700118 0.737352
O O3 0.099766 0.804769 0.737103
O O4 0.000000 0.758777 0.750000
O O5 0.383612 0.144614 0.500000
O O6 0.369329 0.097842 0.235137
O O7 0.307749 0.170972 0.289033
O O8 0.741011 0.933415 0.246576
O O9 0.661569 0.000000 0.250000
O O10 0.680137 0.945752 0.000000
O O11 0.201854 0.053080 0.500000
O O12 0.147770 0.096573 0.270752
O O13 0.180028 0.000000 0.250000
O O14 0.619044 0.636647 0.500000
O O15 0.702119 0.669123 0.330767
O O16 0.250000 0.250000 0.750000
O O17 0.285429 0.198665 0.000000
#
# Coordination Sequence:
#
# PCOD9526994 Si02
#       6
#    16  16  16  16  16  16
#     4  10  23  41  59  80 109 144 185 232 279 327
#     4  11  21  36  55  80 113 147 183 226 276 327
#     4  11  21  34  52  80 115 152 186 222 270 327
#     4  11  21  33  52  80 114 152 186 222 269 327
#     4  10  20  36  54  78 113 148 182 226 275 326
#     4  11  20  31  50  78 113 146 180 219 273 335
#
# _framework density 17.988282999999999
#
# number of rings (size 3 to 8) (size 9 to 14) (size 15 to 20)
#    0.000    1.333    3.333    5.000    0.000    2.667 
#    0.000    0.000    0.000    1.000    0.000    7.000 
#    0.000    0.000    0.000    0.000    0.000    0.000 
#
# Total GULP energy -267587.260702 kJ/mol
# GULP energy per Si atom -5574.734598 kJ/mol
# Density = 1.794734 g / cm^3
# Si number density = 17.988283 Si / 1000 Ang^3
#
#
#
# Elastic Constant Matrix: (Units=GPa)
#
#
# Indices 1 2 3 4 5 6 
#
# 1 63.5542 40.4741 16.9271 0.0000 0.0000 0.0000
# 2 40.4741 150.8719 51.6731 0.0000 0.0000 0.0000
# 3 16.9271 51.6731 91.6441 0.0000 0.0000 0.0000
# 4 0.0000 0.0000 0.0000 24.1911 0.0000 0.0000
# 5 0.0000 0.0000 0.0000 0.0000 22.1019 0.0000
# 6 0.0000 0.0000 0.0000 0.0000 0.0000 -866.5398
#
#
#
# Elastic Compliance Matrix: (Units=1/GPa)
#
#
# Indices 1 2 3 4 5 6 
#
# 1 0.019023 -0.004833 -0.000788 0.000000 0.000000 0.000000
# 2 -0.004833 0.009442 -0.004431 0.000000 0.000000 0.000000
# 3 -0.000788 -0.004431 0.013556 0.000000 0.000000 0.000000
# 4 0.000000 0.000000 0.000000 0.041338 0.000000 0.000000
# 5 0.000000 0.000000 0.000000 0.000000 0.045245 0.000000
# 6 0.000000 0.000000 0.000000 0.000000 0.000000 -0.001154
#
#
# Mechanical properties :
#
#
# Convention : Reuss Voigt Hill
#
# Bulk Modulus (GPa) = 45.63050 58.24653 51.93852
# Shear Modulus (GPa) = 32.28714 -150.91631 -59.31458
#
# Velocity S-wave (km/s) = 4.24122 -9.16947 -5.74853
# Velocity P-wave (km/s) = 7.02893 8.92496 3.88903
#
# Compressibility (1/GPa) = 0.02191517
#
# Stress axis : x y z
#
# Youngs Moduli (GPa) = 52.56924 105.90489 73.76796
#
# Poissons Ratio (x) = 0.51185 0.05816
# Poissons Ratio (y) = 0.25407 0.32689
# Poissons Ratio (z) = 0.04145 0.46930
#
# Static dielectric constant tensor:
#      x y z
#    x 1.585830 0.000000 0.000000 
#    y 0.000000 1.712250 0.000000 
#    z 0.000000 0.000000 0.872530 
# 
# From -- ./inp_files/5991.got.cif
#   From: 2010.05.17/outbox.cif.g08.bks.cpg/sg72_3_cif.got.tgz:5991.got - 2010.06.03 17:03:01.
