data_PCOD9526943
_publ_section_title
;
Structure prediction by ZEFSAII (Michael W. Deem and Ramdas Pophale) SiO2 
 PCOD9526943
Probable space group: I B A M
;
_chemical_formula_sum "Si O2"
_cell_formula_units_Z 80
_cell_length_a 24.530397
_cell_length_b 11.388356
_cell_length_c 14.221267
_cell_angle_alpha 90.000000
_cell_angle_beta 90.000000
_cell_angle_gamma 90.000000
_cell_volume 3972.865861
_symmetry_space_group_name_H-M "I B A M"
_symmetry_group_IT_number 72
_symmetry_cell_setting 'orthorhombic'
loop_
_space_group_symop_operation_xyz
x,y,z
-x,-y,z
x,-y,1/2-z
-x,y,1/2-z
-x,-y,-z
x,y,-z
-x,y,1/2+z
x,-y,1/2+z
1/2+x,1/2+y,1/2+z
1/2-x,1/2-y,1/2+z
1/2+x,1/2-y,-z
1/2-x,1/2+y,-z
1/2-x,1/2-y,1/2-z
1/2+x,1/2+y,1/2-z
1/2-x,1/2+y,z
1/2+x,1/2-y,z
loop_
_atom_site_type_symbol
_atom_site_label
_atom_site_fract_x
_atom_site_fract_y
_atom_site_fract_z
Si Si1 0.673383 0.638057 0.267896
Si Si2 0.721022 0.195513 0.386572
Si Si3 0.907189 0.729500 0.891909
Si Si4 0.015504 0.371664 0.358271
Si Si5 0.872794 0.468843 0.111554
O O1 0.673581 0.500000 0.250000
O O2 0.690433 0.701649 0.170609
O O3 0.719393 0.678577 0.343246
O O4 0.617524 0.680790 0.317116
O O5 0.721388 0.211401 0.500000
O O6 0.685738 0.079579 0.360913
O O7 0.888198 0.599264 0.855201
O O8 0.973051 0.722463 0.896962
O O9 0.887759 0.747492 0.000000
O O10 0.080310 0.372693 0.367483
O O11 0.000000 0.500000 0.399030
O O12 0.000000 0.374407 0.250000
O O13 0.872352 0.480062 0.000000
#
# Coordination Sequence:
#
# PCOD9526943 Si02
#       5
#    16  16  16  16  16
#     4  11  25  40  58  85 119 163 208 253 299 369
#     4  10  23  40  60  84 114 157 203 254 310 363
#     4  10  20  35  59  89 123 157 199 250 311 374
#     4   9  16  28  51  87 121 152 185 238 299 359
#     4   9  18  33  57  87 118 149 191 247 307 362
#
# _framework density 20.136599
#
# number of rings (size 3 to 8) (size 9 to 14) (size 15 to 20)
#    0.000    2.200    0.000    2.400    5.600    5.600 
#    0.000    0.000    0.000    5.400    0.000    8.400 
#    0.000    0.000    0.000    0.000    0.000    0.000 
#
# Total GULP energy -222985.065852 kJ/mol
# GULP energy per Si atom -5574.626646 kJ/mol
# Density = 2.009077 g / cm^3
# Si number density = 20.136599 Si / 1000 Ang^3
#
#
#
# Elastic Constant Matrix: (Units=GPa)
#
#
# Indices 1 2 3 4 5 6 
#
# 1 44.1709 -4.6887 14.7193 0.0000 0.0000 0.0000
# 2 -4.6887 76.1098 37.8297 0.0000 0.0000 0.0000
# 3 14.7193 37.8297 117.3300 0.0000 0.0000 0.0000
# 4 0.0000 0.0000 0.0000 18.3003 0.0000 0.0000
# 5 0.0000 0.0000 0.0000 0.0000 20.5096 0.0000
# 6 0.0000 0.0000 0.0000 0.0000 0.0000 21.2144
#
#
#
# Elastic Compliance Matrix: (Units=1/GPa)
#
#
# Indices 1 2 3 4 5 6 
#
# 1 0.024431 0.003606 -0.004228 0.000000 0.000000 0.000000
# 2 0.003606 0.016179 -0.005669 0.000000 0.000000 0.000000
# 3 -0.004228 -0.005669 0.010881 0.000000 0.000000 0.000000
# 4 0.000000 0.000000 0.000000 0.054644 0.000000 0.000000
# 5 0.000000 0.000000 0.000000 0.000000 0.048758 0.000000
# 6 0.000000 0.000000 0.000000 0.000000 0.000000 0.047138
#
#
# Mechanical properties :
#
#
# Convention : Reuss Voigt Hill
#
# Bulk Modulus (GPa) = 25.69997 37.03681 31.36839
# Shear Modulus (GPa) = 21.97024 24.65488 23.31256
#
# Velocity S-wave (km/s) = 3.30670 3.50291 3.40622
# Velocity P-wave (km/s) = 5.23159 5.89858 5.57507
#
# Compressibility (1/GPa) = 0.03891056
#
# Stress axis : x y z
#
# Youngs Moduli (GPa) = 40.93169 61.80967 91.90260
#
# Poissons Ratio (x) = -0.22291 0.38854
# Poissons Ratio (y) = -0.14762 0.52098
# Poissons Ratio (z) = 0.17305 0.35039
#
# Static dielectric constant tensor:
#      x y z
#    x 1.765920 0.000000 0.000000 
#    y 0.000000 1.696070 0.000000 
#    z 0.000000 0.000000 1.746910 
# 
# From -- ./inp_files/24879.got.cif
#   From: 2010.05.17/outbox.cif.g08.bks.cpg/sg72_13_cif.got.tgz:24879.got - 2010.06.03 17:03:01.
