data_PCOD9526176
_publ_section_title
;
Structure prediction by ZEFSAII (Michael W. Deem and Ramdas Pophale) SiO2 
 PCOD9526176
Probable space group: I B A M
;
_chemical_formula_sum "Si O2"
_cell_formula_units_Z 116
_cell_length_a 28.369655
_cell_length_b 22.969508
_cell_length_c 9.221138
_cell_angle_alpha 90.000000
_cell_angle_beta 90.000000
_cell_angle_gamma 90.000000
_cell_volume 6008.834864
_symmetry_space_group_name_H-M "I B A M"
_symmetry_group_IT_number 72
_symmetry_cell_setting 'orthorhombic'
loop_
_space_group_symop_operation_xyz
x,y,z
-x,-y,z
x,-y,1/2-z
-x,y,1/2-z
-x,-y,-z
x,y,-z
-x,y,1/2+z
x,-y,1/2+z
1/2+x,1/2+y,1/2+z
1/2-x,1/2-y,1/2+z
1/2+x,1/2-y,-z
1/2-x,1/2+y,-z
1/2-x,1/2-y,1/2-z
1/2+x,1/2+y,1/2-z
1/2-x,1/2+y,z
1/2+x,1/2-y,z
loop_
_atom_site_type_symbol
_atom_site_label
_atom_site_fract_x
_atom_site_fract_y
_atom_site_fract_z
Si Si1 0.415523 0.586922 0.832167
Si Si2 0.050220 0.330257 0.330060
Si Si3 0.289366 0.940799 0.675783
Si Si4 0.186123 0.096955 0.174830
Si Si5 0.145034 0.653759 0.326375
Si Si6 0.201934 0.230058 0.173119
Si Si7 0.000000 0.000000 0.750000
Si Si8 0.451603 0.306609 0.165569
O O1 0.363168 0.565759 0.787530
O O2 0.460994 0.544633 0.817839
O O3 0.420256 0.645377 0.740417
O O4 0.413308 0.603363 0.000000
O O5 0.048068 0.347821 0.500000
O O6 0.093430 0.356986 0.240809
O O7 0.061332 0.260945 0.328388
O O8 0.000000 0.339013 0.250000
O O9 0.292654 0.942412 0.500000
O O10 0.234843 0.931796 0.722712
O O11 0.318769 0.887483 0.741454
O O12 0.306757 0.000000 0.750000
O O13 0.187395 0.165062 0.220966
O O14 0.188483 0.096980 0.000000
O O15 0.145566 0.643530 0.500000
O O16 0.162716 0.720265 0.302258
O O17 0.250000 0.250000 0.250000
O O18 0.210338 0.227711 0.000000
O O19 0.500000 0.310968 0.250000
O O20 0.458476 0.323495 0.000000
#
# Coordination Sequence:
#
# PCOD9526176 Si02
#       8
#    16  16  16  16  16  16   4  16
#     4  11  23  40  58  77 110 151 201 261 319 373
#     4  10  21  37  60  92 127 161 198 242 296 360
#     4  11  23  41  63  86 120 161 208 254 303 365
#     4   9  20  38  60  84 115 159 199 250 318 376
#     4  11  22  37  62  94 127 164 204 250 308 371
#     4  10  19  34  58  89 122 156 197 247 311 378
#     4  12  26  36  60  86 110 152 218 276 330 372
#     4  10  20  35  56  82 113 150 193 241 296 360
#
# _framework density 19.304908000000001
#
# number of rings (size 3 to 8) (size 9 to 14) (size 15 to 20)
#    0.000    1.655    2.069    2.690    0.966    3.862 
#    0.000    2.069    0.000    0.414    0.000    2.897 
#    0.000    0.000    0.000    0.000    0.000    0.000 
#
# Total GULP energy -323283.553534 kJ/mol
# GULP energy per Si atom -5573.854371 kJ/mol
# Density = 1.926097 g / cm^3
# Si number density = 19.304908 Si / 1000 Ang^3
#
#
#
# Elastic Constant Matrix: (Units=GPa)
#
#
# Indices 1 2 3 4 5 6 
#
# 1 134.9336 21.5823 56.7068 0.0000 0.0000 0.0000
# 2 21.5823 66.5303 24.1208 0.0000 0.0000 0.0000
# 3 56.7068 24.1208 87.4113 0.0000 0.0000 0.0000
# 4 0.0000 0.0000 0.0000 79.3723 0.0000 0.0000
# 5 0.0000 0.0000 0.0000 0.0000 20.8819 0.0000
# 6 0.0000 0.0000 0.0000 0.0000 0.0000 7.0026
#
#
#
# Elastic Compliance Matrix: (Units=1/GPa)
#
#
# Indices 1 2 3 4 5 6 
#
# 1 0.010250 -0.001016 -0.006369 0.000000 0.000000 0.000000
# 2 -0.001016 0.016802 -0.003977 0.000000 0.000000 0.000000
# 3 -0.006369 -0.003977 0.016670 0.000000 0.000000 0.000000
# 4 0.000000 0.000000 0.000000 0.012599 0.000000 0.000000
# 5 0.000000 0.000000 0.000000 0.000000 0.047888 0.000000
# 6 0.000000 0.000000 0.000000 0.000000 0.000000 0.142803
#
#
# Mechanical properties :
#
#
# Convention : Reuss Voigt Hill
#
# Bulk Modulus (GPa) = 47.62616 54.85500 51.24058
# Shear Modulus (GPa) = 18.06765 33.88239 25.97502
#
# Velocity S-wave (km/s) = 3.06258 4.19396 3.67210
# Velocity P-wave (km/s) = 6.10163 7.20619 6.67679
#
# Compressibility (1/GPa) = 0.02099686
#
# Stress axis : x y z
#
# Youngs Moduli (GPa) = 97.55778 59.51542 59.98872
#
# Poissons Ratio (x) = 0.06046 0.38209
# Poissons Ratio (y) = 0.09911 0.23860
# Poissons Ratio (z) = 0.62139 0.23672
#
# Static dielectric constant tensor:
#      x y z
#    x 1.686070 0.000000 0.000000 
#    y 0.000000 1.743880 0.000000 
#    z 0.000000 0.000000 1.648890 
# 
# From -- ./inp_files/7257.got.cif
#   From: 2010.05.17/outbox.cif.g08.bks.cpg/sg72_4_cif.got.tgz:7257.got - 2010.06.03 17:03:01.
