data_PCOD9526887
_publ_section_title
;
Structure prediction by ZEFSAII (Michael W. Deem and Ramdas Pophale) SiO2 
 PCOD9526887
Probable space group: I B A M
;
_chemical_formula_sum "Si O2"
_cell_formula_units_Z 112
_cell_length_a 30.827645
_cell_length_b 10.846073
_cell_length_c 13.963133
_cell_angle_alpha 90.000000
_cell_angle_beta 90.000000
_cell_angle_gamma 90.000000
_cell_volume 4668.697624
_symmetry_space_group_name_H-M "I B A M"
_symmetry_group_IT_number 72
_symmetry_cell_setting 'orthorhombic'
loop_
_space_group_symop_operation_xyz
x,y,z
-x,-y,z
x,-y,1/2-z
-x,y,1/2-z
-x,-y,-z
x,y,-z
-x,y,1/2+z
x,-y,1/2+z
1/2+x,1/2+y,1/2+z
1/2-x,1/2-y,1/2+z
1/2+x,1/2-y,-z
1/2-x,1/2+y,-z
1/2-x,1/2-y,1/2-z
1/2+x,1/2+y,1/2-z
1/2-x,1/2+y,z
1/2+x,1/2-y,z
loop_
_atom_site_type_symbol
_atom_site_label
_atom_site_fract_x
_atom_site_fract_y
_atom_site_fract_z
Si Si1 0.293008 0.121089 0.295925
Si Si2 0.883490 0.690585 0.198814
Si Si3 0.244214 0.302197 0.393389
Si Si4 0.162259 0.071589 0.112649
Si Si5 0.025575 0.113508 0.608117
Si Si6 0.480666 0.129286 0.355823
Si Si7 0.619695 0.683794 0.884230
O O1 0.342138 0.108952 0.329413
O O2 0.265546 0.167526 0.384573
O O3 0.287648 0.201924 0.198246
O O4 0.275104 0.000000 0.250000
O O5 0.869040 0.827870 0.163352
O O6 0.928629 0.642581 0.155822
O O7 0.880339 0.697877 0.314719
O O8 0.226458 0.325628 0.500000
O O9 0.287729 0.384928 0.376279
O O10 0.152799 0.928872 0.136917
O O11 0.152321 0.081956 0.000000
O O12 0.035667 0.074757 0.500000
O O13 0.072768 0.132687 0.649544
O O14 0.999290 0.241600 0.604580
O O15 0.000000 0.000000 0.651321
O O16 0.500000 0.130557 0.250000
O O17 0.500000 0.000000 0.396939
O O18 0.620675 0.708784 0.000000
#
# Coordination Sequence:
#
# PCOD9526887 Si02
#       7
#    16  16  16  16  16  16  16
#     4  10  23  38  61  91 120 157 203 249 303 362
#     4  11  22  38  60  85 121 163 206 258 306 360
#     4   9  20  41  63  89 124 159 197 244 304 375
#     4   9  19  36  61  92 124 158 197 248 308 371
#     4  10  21  38  60  88 120 153 203 266 320 375
#     4  11  24  40  60  84 118 166 216 256 309 372
#     4  10  20  35  56  87 121 155 200 254 310 368
#
# _framework density 23.989559
#
# number of rings (size 3 to 8) (size 9 to 14) (size 15 to 20)
#    0.000    2.000    1.429    1.286    2.000    6.857 
#    0.000    1.429    0.000    3.857    0.000    0.000 
#    0.000    0.000    0.000    0.000    0.000    0.000 
#
# Total GULP energy -311905.602282 kJ/mol
# GULP energy per Si atom -5569.742898 kJ/mol
# Density = 2.393496 g / cm^3
# Si number density = 23.989559 Si / 1000 Ang^3
#
#
#
# Elastic Constant Matrix: (Units=GPa)
#
#
# Indices 1 2 3 4 5 6 
#
# 1 113.8290 17.9404 15.2325 0.0000 0.0000 0.0000
# 2 17.9404 92.4500 10.5279 0.0000 0.0000 0.0000
# 3 15.2325 10.5279 78.8815 0.0000 0.0000 0.0000
# 4 0.0000 0.0000 0.0000 8.8682 0.0000 0.0000
# 5 0.0000 0.0000 0.0000 0.0000 20.8692 0.0000
# 6 0.0000 0.0000 0.0000 0.0000 0.0000 -88.8105
#
#
#
# Elastic Compliance Matrix: (Units=1/GPa)
#
#
# Indices 1 2 3 4 5 6 
#
# 1 0.009250 -0.001616 -0.001571 0.000000 0.000000 0.000000
# 2 -0.001616 0.011266 -0.001192 0.000000 0.000000 0.000000
# 3 -0.001571 -0.001192 0.013140 0.000000 0.000000 0.000000
# 4 0.000000 0.000000 0.000000 0.112763 0.000000 0.000000
# 5 0.000000 0.000000 0.000000 0.000000 0.047917 0.000000
# 6 0.000000 0.000000 0.000000 0.000000 0.000000 -0.011260
#
#
# Mechanical properties :
#
#
# Convention : Reuss Voigt Hill
#
# Bulk Modulus (GPa) = 40.16212 41.39580 40.77896
# Shear Modulus (GPa) = 24.98351 4.28269 14.63310
#
# Velocity S-wave (km/s) = 3.23062 1.33757 2.47245
# Velocity P-wave (km/s) = 5.54019 4.43607 5.01859
#
# Compressibility (1/GPa) = 0.02489909
#
# Stress axis : x y z
#
# Youngs Moduli (GPa) = 108.10815 88.76290 76.10615
#
# Poissons Ratio (x) = 0.14346 0.11953
# Poissons Ratio (y) = 0.17472 0.09068
# Poissons Ratio (z) = 0.16979 0.10576
#
# Static dielectric constant tensor:
#      x y z
#    x 1.992810 0.000000 0.000000 
#    y 0.000000 0.943960 0.000000 
#    z 0.000000 0.000000 1.959130 
# 
# From -- ./inp_files/26342.got.cif
#   From: 2010.05.17/outbox.cif.g08.bks.cpg/sg72_14_cif.got.tgz:26342.got - 2010.06.03 17:03:01.
