data_PCOD9526455
_publ_section_title
;
Structure prediction by ZEFSAII (Michael W. Deem and Ramdas Pophale) SiO2 
 PCOD9526455
Probable space group: I B A M
;
_chemical_formula_sum "Si O2"
_cell_formula_units_Z 112
_cell_length_a 23.330369
_cell_length_b 13.303311
_cell_length_c 17.561425
_cell_angle_alpha 90.000000
_cell_angle_beta 90.000000
_cell_angle_gamma 90.000000
_cell_volume 5450.559753
_symmetry_space_group_name_H-M "I B A M"
_symmetry_group_IT_number 72
_symmetry_cell_setting 'orthorhombic'
loop_
_space_group_symop_operation_xyz
x,y,z
-x,-y,z
x,-y,1/2-z
-x,y,1/2-z
-x,-y,-z
x,y,-z
-x,y,1/2+z
x,-y,1/2+z
1/2+x,1/2+y,1/2+z
1/2-x,1/2-y,1/2+z
1/2+x,1/2-y,-z
1/2-x,1/2+y,-z
1/2-x,1/2-y,1/2-z
1/2+x,1/2+y,1/2-z
1/2-x,1/2+y,z
1/2+x,1/2-y,z
loop_
_atom_site_type_symbol
_atom_site_label
_atom_site_fract_x
_atom_site_fract_y
_atom_site_fract_z
Si Si1 0.267917 0.670473 0.588785
Si Si2 0.432391 0.601723 0.409356
Si Si3 0.362414 0.783295 0.335885
Si Si4 0.477008 0.111874 0.835387
Si Si5 0.164234 0.234197 0.164444
Si Si6 0.663126 0.489386 0.161480
Si Si7 0.957671 0.210201 0.588663
O O1 0.271665 0.648569 0.500000
O O2 0.308708 0.766490 0.608229
O O3 0.203894 0.693661 0.615236
O O4 0.293508 0.576007 0.635051
O O5 0.425604 0.620627 0.500000
O O6 0.401966 0.687725 0.358661
O O7 0.394507 0.505452 0.387997
O O8 0.499488 0.617292 0.393273
O O9 0.407842 0.874667 0.338511
O O10 0.337419 0.769422 0.251570
O O11 0.500000 0.138676 0.750000
O O12 0.504400 0.190545 0.894133
O O13 0.500000 0.000000 0.850348
O O14 0.188122 0.121556 0.154382
O O15 0.098905 0.224230 0.137671
O O16 0.647638 0.500000 0.250000
O O17 0.942519 0.203781 0.500000
#
# Coordination Sequence:
#
# PCOD9526455 Si02
#       7
#    16  16  16  16  16  16  16
#     4  11  25  44  64  91 132 173 217 273 328 381
#     4   9  19  37  62  92 130 164 199 253 323 391
#     4  10  19  38  65  90 122 167 213 262 310 382
#     4  10  20  38  63  94 127 165 210 258 320 379
#     4  12  23  41  66  94 126 169 219 269 318 383
#     4  11  22  40  66  95 121 165 219 268 320 384
#     4  10  22  39  61  92 132 169 203 261 328 382
#
# _framework density 20.548348000000001
#
# number of rings (size 3 to 8) (size 9 to 14) (size 15 to 20)
#    0.000    1.571    4.286    2.571    0.000    3.714 
#    2.571    2.143    0.000    0.000    0.000    0.000 
#    0.000    0.000    0.000    0.000    0.000    0.000 
#
# Total GULP energy -312444.091718 kJ/mol
# GULP energy per Si atom -5579.358781 kJ/mol
# Density = 2.050158 g / cm^3
# Si number density = 20.548348 Si / 1000 Ang^3
#
#
#
# Elastic Constant Matrix: (Units=GPa)
#
#
# Indices 1 2 3 4 5 6 
#
# 1 75.2805 22.2917 10.5397 0.0000 0.0000 0.0000
# 2 22.2917 76.2636 2.8657 0.0000 0.0000 0.0000
# 3 10.5397 2.8657 73.3273 0.0000 0.0000 0.0000
# 4 0.0000 0.0000 0.0000 20.6988 0.0000 0.0000
# 5 0.0000 0.0000 0.0000 0.0000 19.0077 0.0000
# 6 0.0000 0.0000 0.0000 0.0000 0.0000 21.9014
#
#
#
# Elastic Compliance Matrix: (Units=1/GPa)
#
#
# Indices 1 2 3 4 5 6 
#
# 1 0.014819 -0.004258 -0.001964 0.000000 0.000000 0.000000
# 2 -0.004258 0.014355 0.000051 0.000000 0.000000 0.000000
# 3 -0.001964 0.000051 0.013918 0.000000 0.000000 0.000000
# 4 0.000000 0.000000 0.000000 0.048312 0.000000 0.000000
# 5 0.000000 0.000000 0.000000 0.000000 0.052610 0.000000
# 6 0.000000 0.000000 0.000000 0.000000 0.000000 0.045659
#
#
# Mechanical properties :
#
#
# Convention : Reuss Voigt Hill
#
# Bulk Modulus (GPa) = 32.51915 32.91838 32.71876
# Shear Modulus (GPa) = 23.55546 24.93321 24.24434
#
# Velocity S-wave (km/s) = 3.38944 3.48716 3.43865
# Velocity P-wave (km/s) = 5.58371 5.68053 5.63233
#
# Compressibility (1/GPa) = 0.03075111
#
# Stress axis : x y z
#
# Youngs Moduli (GPa) = 67.47906 69.66181 71.85072
#
# Poissons Ratio (x) = 0.29661 0.14109
# Poissons Ratio (y) = 0.28732 -0.00366
# Poissons Ratio (z) = 0.13251 -0.00355
#
# Static dielectric constant tensor:
#      x y z
#    x 1.765440 0.000000 0.000000 
#    y 0.000000 1.780320 0.000000 
#    z 0.000000 0.000000 1.695940 
# 
# From -- ./inp_files/25202.got.cif
#   From: 2010.05.17/outbox.cif.g08.bks.cpg/sg72_13_cif.got.tgz:25202.got - 2010.06.03 17:03:01.
