data_PCOD9526885
_publ_section_title
;
Structure prediction by ZEFSAII (Michael W. Deem and Ramdas Pophale) SiO2 
 PCOD9526885
Probable space group: I B A M
;
_chemical_formula_sum "Si O2"
_cell_formula_units_Z 112
_cell_length_a 16.750597
_cell_length_b 22.395949
_cell_length_c 14.849075
_cell_angle_alpha 90.000000
_cell_angle_beta 90.000000
_cell_angle_gamma 90.000000
_cell_volume 5570.563905
_symmetry_space_group_name_H-M "I B A M"
_symmetry_group_IT_number 72
_symmetry_cell_setting 'orthorhombic'
loop_
_space_group_symop_operation_xyz
x,y,z
-x,-y,z
x,-y,1/2-z
-x,y,1/2-z
-x,-y,-z
x,y,-z
-x,y,1/2+z
x,-y,1/2+z
1/2+x,1/2+y,1/2+z
1/2-x,1/2-y,1/2+z
1/2+x,1/2-y,-z
1/2-x,1/2+y,-z
1/2-x,1/2-y,1/2-z
1/2+x,1/2+y,1/2-z
1/2-x,1/2+y,z
1/2+x,1/2-y,z
loop_
_atom_site_type_symbol
_atom_site_label
_atom_site_fract_x
_atom_site_fract_y
_atom_site_fract_z
Si Si1 0.123481 0.459739 0.607678
Si Si2 0.365956 0.907764 0.103897
Si Si3 0.217188 0.112791 0.892978
Si Si4 0.677135 0.776076 0.104920
Si Si5 0.803350 0.141314 0.109780
Si Si6 0.593553 0.428513 0.252783
Si Si7 0.476340 0.152654 0.152499
O O1 0.101965 0.455003 0.500000
O O2 0.113068 0.526980 0.641730
O O3 0.215183 0.438766 0.615968
O O4 0.069899 0.410675 0.656886
O O5 0.284885 0.879679 0.140420
O O6 0.439926 0.862838 0.106658
O O7 0.348020 0.921314 0.000000
O O8 0.261689 0.173515 0.860942
O O9 0.141937 0.098287 0.831757
O O10 0.198735 0.117218 0.000000
O O11 0.683481 0.709465 0.141382
O O12 0.587952 0.802765 0.110866
O O13 0.697493 0.770848 0.000000
O O14 0.866322 0.098465 0.157763
O O15 0.809191 0.138701 0.000000
O O16 0.602346 0.500000 0.250000
O O17 0.500000 0.413880 0.250000
O O18 0.500000 0.175359 0.250000
#
# Coordination Sequence:
#
# PCOD9526885 Si02
#       7
#    16  16  16  16  16  16  16
#     4   9  18  34  57  83 118 160 198 240 294 358
#     4  10  20  35  56  84 118 157 198 244 299 360
#     4   9  19  39  65  89 116 161 207 248 304 366
#     4   9  20  42  64  84 119 162 207 250 295 355
#     4  10  23  43  65  91 122 159 203 255 307 359
#     4  11  25  42  62  91 123 157 202 258 312 363
#     4  11  22  33  52  89 123 159 196 238 295 357
#
# _framework density 20.105684
#
# number of rings (size 3 to 8) (size 9 to 14) (size 15 to 20)
#    0.000    2.143    0.000    3.429    4.000    5.714 
#    2.571    1.429    0.000    0.000    0.000    0.000 
#    0.000    0.000    0.000    0.000    0.000    0.000 
#
# Total GULP energy -312595.255177 kJ/mol
# GULP energy per Si atom -5582.058128 kJ/mol
# Density = 2.005992 g / cm^3
# Si number density = 20.105684 Si / 1000 Ang^3
#
#
#
# Elastic Constant Matrix: (Units=GPa)
#
#
# Indices 1 2 3 4 5 6 
#
# 1 125.4696 30.6165 20.6424 0.0000 0.0000 0.0000
# 2 30.6165 67.6336 2.6402 0.0000 0.0000 0.0000
# 3 20.6424 2.6402 51.6867 0.0000 0.0000 0.0000
# 4 0.0000 0.0000 0.0000 21.7378 0.0000 0.0000
# 5 0.0000 0.0000 0.0000 0.0000 32.2610 0.0000
# 6 0.0000 0.0000 0.0000 0.0000 0.0000 -2.8602
#
#
#
# Elastic Compliance Matrix: (Units=1/GPa)
#
#
# Indices 1 2 3 4 5 6 
#
# 1 0.009590 -0.004200 -0.003615 0.000000 0.000000 0.000000
# 2 -0.004200 0.016655 0.000827 0.000000 0.000000 0.000000
# 3 -0.003615 0.000827 0.020749 0.000000 0.000000 0.000000
# 4 0.000000 0.000000 0.000000 0.046003 0.000000 0.000000
# 5 0.000000 0.000000 0.000000 0.000000 0.030997 0.000000
# 6 0.000000 0.000000 0.000000 0.000000 0.000000 -0.349631
#
#
# Mechanical properties :
#
#
# Convention : Reuss Voigt Hill
#
# Bulk Modulus (GPa) = 30.28847 39.17648 34.73247
# Shear Modulus (GPa) = -24.91836 22.95376 -0.98230
#
# Velocity S-wave (km/s) = -3.52429 3.38250 -0.69973
# Velocity P-wave (km/s) = 1.20973 5.89769 4.08162
#
# Compressibility (1/GPa) = 0.03301587
#
# Stress axis : x y z
#
# Youngs Moduli (GPa) = 104.27832 60.04370 48.19505
#
# Poissons Ratio (x) = 0.25218 0.17424
# Poissons Ratio (y) = 0.43797 -0.03984
# Poissons Ratio (z) = 0.37700 -0.04963
#
# Static dielectric constant tensor:
#      x y z
#    x 1.680480 0.000000 0.000000 
#    y 0.000000 1.724190 0.000000 
#    z 0.000000 0.000000 1.801250 
# 
# From -- ./inp_files/22140.got.cif
#   From: 2010.05.17/outbox.cif.g08.bks.cpg/sg72_12_cif.got.tgz:22140.got - 2010.06.03 17:03:01.
