data_PCOD9526268
_publ_section_title
;
Structure prediction by ZEFSAII (Michael W. Deem and Ramdas Pophale) SiO2 
 PCOD9526268
Probable space group: I B A M
;
_chemical_formula_sum "Si O2"
_cell_formula_units_Z 96
_cell_length_a 7.309388
_cell_length_b 23.227146
_cell_length_c 27.215196
_cell_angle_alpha 90.000000
_cell_angle_beta 90.000000
_cell_angle_gamma 90.000000
_cell_volume 4620.493165
_symmetry_space_group_name_H-M "I B A M"
_symmetry_group_IT_number 72
_symmetry_cell_setting 'orthorhombic'
loop_
_space_group_symop_operation_xyz
x,y,z
-x,-y,z
x,-y,1/2-z
-x,y,1/2-z
-x,-y,-z
x,y,-z
-x,y,1/2+z
x,-y,1/2+z
1/2+x,1/2+y,1/2+z
1/2-x,1/2-y,1/2+z
1/2+x,1/2-y,-z
1/2-x,1/2+y,-z
1/2-x,1/2-y,1/2-z
1/2+x,1/2+y,1/2-z
1/2-x,1/2+y,z
1/2+x,1/2-y,z
loop_
_atom_site_type_symbol
_atom_site_label
_atom_site_fract_x
_atom_site_fract_y
_atom_site_fract_z
Si Si1 0.846958 0.634475 0.335157
Si Si2 0.534542 0.781176 0.902723
Si Si3 0.310947 0.334808 0.945249
Si Si4 0.547736 0.288477 0.196863
Si Si5 0.780277 0.508318 0.692833
Si Si6 0.214960 0.887477 0.843764
O O1 0.820640 0.670232 0.385877
O O2 0.741656 0.678250 0.299260
O O3 0.753477 0.572530 0.327810
O O4 0.067278 0.624664 0.332779
O O5 0.592274 0.725136 0.931810
O O6 0.397705 0.815670 0.936983
O O7 0.457884 0.755398 0.849942
O O8 0.337558 0.378323 0.900595
O O9 0.351561 0.354272 0.000000
O O10 0.500000 0.263458 0.250000
O O11 0.401662 0.339207 0.184665
O O12 0.735871 0.500000 0.750000
O O13 0.684603 0.453926 0.668282
O O14 0.000000 0.500000 0.688229
#
# Coordination Sequence:
#
# PCOD9526268 Si02
#       6
#    16  16  16  16  16  16
#     4  10  20  37  55  74 117 146 178 234 268 317
#     4  10  20  37  51  83 111 141 186 228 279 342
#     4  10  19  35  59  79 106 144 184 235 284 327
#     4  11  22  35  53  83 115 150 184 221 283 336
#     4   9  17  33  55  80 107 150 189 220 271 326
#     4   9  21  37  55  83 111 143 193 232 272 333
#
# _framework density 20.777002
#
# number of rings (size 3 to 8) (size 9 to 14) (size 15 to 20)
#    0.000    2.167    1.667    1.500    0.000    3.333 
#    9.000    1.667    0.000   13.500    0.000    2.333 
#    0.000    0.000    0.000    0.000    0.000    0.000 
#
# Total GULP energy -267420.544927 kJ/mol
# GULP energy per Si atom -5571.261353 kJ/mol
# Density = 2.072971 g / cm^3
# Si number density = 20.777002 Si / 1000 Ang^3
#
#
#
# Elastic Constant Matrix: (Units=GPa)
#
#
# Indices 1 2 3 4 5 6 
#
# 1 50.4627 14.1371 10.5679 0.0000 0.0000 0.0000
# 2 14.1371 124.3157 35.3012 0.0000 0.0000 0.0000
# 3 10.5679 35.3012 118.1770 0.0000 0.0000 0.0000
# 4 0.0000 0.0000 0.0000 15.6877 0.0000 0.0000
# 5 0.0000 0.0000 0.0000 0.0000 18.6156 0.0000
# 6 0.0000 0.0000 0.0000 0.0000 0.0000 11.9628
#
#
#
# Elastic Compliance Matrix: (Units=1/GPa)
#
#
# Indices 1 2 3 4 5 6 
#
# 1 0.020636 -0.001992 -0.001250 0.000000 0.000000 0.000000
# 2 -0.001992 0.008982 -0.002505 0.000000 0.000000 0.000000
# 3 -0.001250 -0.002505 0.009322 0.000000 0.000000 0.000000
# 4 0.000000 0.000000 0.000000 0.063744 0.000000 0.000000
# 5 0.000000 0.000000 0.000000 0.000000 0.053718 0.000000
# 6 0.000000 0.000000 0.000000 0.000000 0.000000 0.083593
#
#
# Mechanical properties :
#
#
# Convention : Reuss Voigt Hill
#
# Bulk Modulus (GPa) = 36.43496 45.88531 41.16013
# Shear Modulus (GPa) = 19.18368 24.78315 21.98341
#
# Velocity S-wave (km/s) = 3.04190 3.45746 3.25632
# Velocity P-wave (km/s) = 5.46917 6.17020 5.83023
#
# Compressibility (1/GPa) = 0.02744617
#
# Stress axis : x y z
#
# Youngs Moduli (GPa) = 48.45793 111.33581 107.27358
#
# Poissons Ratio (x) = 0.22175 0.13414
# Poissons Ratio (y) = 0.09651 0.26871
# Poissons Ratio (z) = 0.06059 0.27889
#
# Static dielectric constant tensor:
#      x y z
#    x 1.906400 0.000000 0.000000 
#    y 0.000000 1.747910 0.000000 
#    z 0.000000 0.000000 1.733940 
# 
# From -- ./inp_files/42420.got.cif
#   From: 2010.05.17/outbox.cif.g08.bks.cpg/sg72_22_cif.got.tgz:42420.got - 2010.06.03 17:03:01.
