data_PCOD9526091
_publ_section_title
;
Structure prediction by ZEFSAII (Michael W. Deem and Ramdas Pophale) SiO2 
 PCOD9526091
Probable space group: I B A M
;
_chemical_formula_sum "Si O2"
_cell_formula_units_Z 96
_cell_length_a 20.300404
_cell_length_b 30.444774
_cell_length_c 8.864782
_cell_angle_alpha 90.000000
_cell_angle_beta 90.000000
_cell_angle_gamma 90.000000
_cell_volume 5478.800610
_symmetry_space_group_name_H-M "I B A M"
_symmetry_group_IT_number 72
_symmetry_cell_setting 'orthorhombic'
loop_
_space_group_symop_operation_xyz
x,y,z
-x,-y,z
x,-y,1/2-z
-x,y,1/2-z
-x,-y,-z
x,y,-z
-x,y,1/2+z
x,-y,1/2+z
1/2+x,1/2+y,1/2+z
1/2-x,1/2-y,1/2+z
1/2+x,1/2-y,-z
1/2-x,1/2+y,-z
1/2-x,1/2-y,1/2-z
1/2+x,1/2+y,1/2-z
1/2-x,1/2+y,z
1/2+x,1/2-y,z
loop_
_atom_site_type_symbol
_atom_site_label
_atom_site_fract_x
_atom_site_fract_y
_atom_site_fract_z
Si Si1 0.794222 0.624083 0.318851
Si Si2 0.934915 0.950855 0.680291
Si Si3 0.710928 0.451523 0.679920
Si Si4 0.792349 0.790004 0.819274
Si Si5 0.931256 0.335716 0.819256
Si Si6 0.429984 0.268192 0.819190
O O1 0.795258 0.618423 0.500000
O O2 0.765488 0.580937 0.242996
O O3 0.746533 0.665177 0.285868
O O4 0.867424 0.637562 0.268043
O O5 0.942160 0.953467 0.500000
O O6 0.862484 0.932623 0.716568
O O7 0.000000 0.928843 0.750000
O O8 0.933070 0.000000 0.750000
O O9 0.716363 0.500000 0.750000
O O10 0.714799 0.455215 0.500000
O O11 0.750000 0.750000 0.750000
O O12 0.865466 0.790447 0.750353
O O13 0.795605 0.784538 0.000000
O O14 0.922831 0.283971 0.782809
O O15 0.000000 0.350831 0.750000
O O16 0.934790 0.338522 0.000000
O O17 0.500000 0.282690 0.750000
O O18 0.430854 0.273132 0.000000
#
# Coordination Sequence:
#
# PCOD9526091 Si02
#       6
#    16  16  16  16  16  16
#     4  10  21  37  55  79 111 143 180 224 272 323
#     4   9  16  27  46  72  99 127 166 210 255 308
#     4  10  21  36  55  80 107 140 181 225 275 326
#     4  11  21  35  54  79 111 147 182 225 274 323
#     4   9  18  33  52  78 108 139 176 220 266 318
#     4  10  19  34  53  78 110 147 188 227 272 327
#
# _framework density 17.522084
#
# number of rings (size 3 to 8) (size 9 to 14) (size 15 to 20)
#    0.000    2.167    1.667    2.500    0.000    4.667 
#    0.000    0.833    0.000    2.500    0.000    3.500 
#    0.000    0.000    0.000    0.000    0.000    0.000 
#
# Total GULP energy -267788.412849 kJ/mol
# GULP energy per Si atom -5578.925268 kJ/mol
# Density = 1.748220 g / cm^3
# Si number density = 17.522084 Si / 1000 Ang^3
#
#
#
# Elastic Constant Matrix: (Units=GPa)
#
#
# Indices 1 2 3 4 5 6 
#
# 1 185.9069 55.3849 56.3781 0.0000 0.0000 0.0000
# 2 55.3849 56.0901 33.3995 0.0000 0.0000 0.0000
# 3 56.3781 33.3995 47.1695 0.0000 -0.0002 0.0000
# 4 0.0000 0.0000 0.0000 22.0888 0.0000 0.0000
# 5 0.0000 0.0000 -0.0002 0.0000 28.9777 0.0000
# 6 0.0000 0.0000 0.0000 0.0000 0.0000 23.3136
#
#
#
# Elastic Compliance Matrix: (Units=1/GPa)
#
#
# Indices 1 2 3 4 5 6 
#
# 1 0.008997 -0.004289 -0.007716 0.000000 0.000000 0.000000
# 2 -0.004289 0.032870 -0.018148 0.000000 0.000000 0.000000
# 3 -0.007716 -0.018148 0.043273 0.000000 0.000000 0.000000
# 4 0.000000 0.000000 0.000000 0.045272 0.000000 0.000000
# 5 0.000000 0.000000 0.000000 0.000000 0.034509 0.000000
# 6 0.000000 0.000000 0.000000 0.000000 0.000000 0.042893
#
#
# Mechanical properties :
#
#
# Convention : Reuss Voigt Hill
#
# Bulk Modulus (GPa) = 40.26887 64.38796 52.32841
# Shear Modulus (GPa) = 18.08976 24.47628 21.28302
#
# Velocity S-wave (km/s) = 3.21658 3.74154 3.48895
# Velocity P-wave (km/s) = 6.06851 7.44930 6.79407
#
# Compressibility (1/GPa) = 0.02483308
#
# Stress axis : x y z
#
# Youngs Moduli (GPa) = 111.15003 30.42280 23.10898
#
# Poissons Ratio (x) = 0.13048 0.17832
# Poissons Ratio (y) = 0.47672 0.41939
# Poissons Ratio (z) = 0.85767 0.55212
#
# Static dielectric constant tensor:
#      x y z
#    x 1.618220 0.000000 0.000000 
#    y 0.000000 1.573860 0.000000 
#    z 0.000000 0.000000 1.585530 
# 
# From -- ./inp_files/5997.got.cif
#   From: 2010.05.17/outbox.cif.g08.bks.cpg/sg72_3_cif.got.tgz:5997.got - 2010.06.03 17:03:01.
