data_PCOD9526470
_publ_section_title
;
Structure prediction by ZEFSAII (Michael W. Deem and Ramdas Pophale) SiO2 
 PCOD9526470
Probable space group: I B A M
;
_chemical_formula_sum "Si O2"
_cell_formula_units_Z 96
_cell_length_a 14.777195
_cell_length_b 10.614707
_cell_length_c 30.488959
_cell_angle_alpha 90.000000
_cell_angle_beta 90.000000
_cell_angle_gamma 90.000000
_cell_volume 4782.363811
_symmetry_space_group_name_H-M "I B A M"
_symmetry_group_IT_number 72
_symmetry_cell_setting 'orthorhombic'
loop_
_space_group_symop_operation_xyz
x,y,z
-x,-y,z
x,-y,1/2-z
-x,y,1/2-z
-x,-y,-z
x,y,-z
-x,y,1/2+z
x,-y,1/2+z
1/2+x,1/2+y,1/2+z
1/2-x,1/2-y,1/2+z
1/2+x,1/2-y,-z
1/2-x,1/2+y,-z
1/2-x,1/2-y,1/2-z
1/2+x,1/2+y,1/2-z
1/2-x,1/2+y,z
1/2+x,1/2-y,z
loop_
_atom_site_type_symbol
_atom_site_label
_atom_site_fract_x
_atom_site_fract_y
_atom_site_fract_z
Si Si1 0.713792 0.860165 0.000000
Si Si2 0.767238 0.245638 0.648265
Si Si3 0.190803 0.495962 0.301621
Si Si4 0.610777 0.486154 0.000000
Si Si5 0.089164 0.411592 0.000000
Si Si6 0.938943 0.722238 0.092293
Si Si7 0.000000 0.500000 0.657286
Si Si8 0.368899 0.318656 0.073544
O O1 0.668293 0.791687 0.041574
O O2 0.822922 0.864482 0.000000
O O3 0.677174 0.001716 0.000000
O O4 0.789152 0.364969 0.679192
O O5 0.852198 0.220034 0.616125
O O6 0.686467 0.297430 0.617663
O O7 0.743328 0.118102 0.674169
O O8 0.208235 0.500000 0.250000
O O9 0.085967 0.469402 0.312943
O O10 0.500000 0.500000 0.000000
O O11 0.641980 0.557362 0.044291
O O12 0.085598 0.337476 0.045553
O O13 0.000000 0.500000 0.000000
O O14 0.973916 0.613585 0.125018
O O15 0.024847 0.809147 0.083403
#
# Coordination Sequence:
#
# PCOD9526470 Si02
#       8
#     8  16  16   8   8  16   8  16
#     4  11  23  39  58  88 134 172 231 273 322 381
#     4  11  26  41  73  99 134 177 221 285 349 419
#     4  11  24  46  71 102 133 171 223 291 358 423
#     4  11  27  40  59  89 136 193 225 280 336 409
#     4  12  18  33  64  94 134 174 227 290 316 380
#     4  11  21  37  63  99 132 175 229 278 333 391
#     4  10  19  39  70  98 124 172 232 283 329 414
#     4  11  23  41  60  94 129 176 232 274 330 397
#
# _framework density 20.073754999999998
#
# number of rings (size 3 to 8) (size 9 to 14) (size 15 to 20)
#    0.000    1.000    4.167    2.250    7.000    0.667 
#    0.000    0.000    0.000    1.000    0.000    0.000 
#    0.000    0.000    0.000    0.000    0.000    0.000 
#
# Total GULP energy -268252.222521 kJ/mol
# GULP energy per Si atom -5588.587969 kJ/mol
# Density = 2.002807 g / cm^3
# Si number density = 20.073755 Si / 1000 Ang^3
#
#
#
# Elastic Constant Matrix: (Units=GPa)
#
#
# Indices 1 2 3 4 5 6 
#
# 1 131.4713 59.2088 57.2554 0.0000 0.0000 0.0000
# 2 59.2088 50.7525 40.8268 0.0000 0.0000 0.0000
# 3 57.2554 40.8268 141.4131 0.0000 0.0000 0.0000
# 4 0.0000 0.0000 0.0000 29.0444 0.0000 0.0000
# 5 0.0000 0.0000 0.0000 0.0000 17.9343 0.0000
# 6 0.0000 0.0000 0.0000 0.0000 0.0000 35.1189
#
#
#
# Elastic Compliance Matrix: (Units=1/GPa)
#
#
# Indices 1 2 3 4 5 6 
#
# 1 0.016249 -0.017797 -0.001441 0.000000 0.000000 0.000000
# 2 -0.017797 0.045157 -0.005831 0.000000 0.000000 0.000000
# 3 -0.001441 -0.005831 0.009338 0.000000 0.000000 0.000000
# 4 0.000000 0.000000 0.000000 0.034430 0.000000 0.000000
# 5 0.000000 0.000000 0.000000 0.000000 0.055759 0.000000
# 6 0.000000 0.000000 0.000000 0.000000 0.000000 0.028475
#
#
# Mechanical properties :
#
#
# Convention : Reuss Voigt Hill
#
# Bulk Modulus (GPa) = 48.53043 70.91323 59.72183
# Shear Modulus (GPa) = 20.29103 27.50923 23.90013
#
# Velocity S-wave (km/s) = 3.18279 3.70592 3.45427
# Velocity P-wave (km/s) = 6.14292 7.32904 6.76204
#
# Compressibility (1/GPa) = 0.02060563
#
# Stress axis : x y z
#
# Youngs Moduli (GPa) = 61.54369 22.14505 107.08570
#
# Poissons Ratio (x) = 0.39412 0.15427
# Poissons Ratio (y) = 1.09530 0.62446
# Poissons Ratio (z) = 0.08866 0.12914
#
# Static dielectric constant tensor:
#      x y z
#    x 1.750960 0.000000 0.000000 
#    y 0.000000 1.735500 0.000000 
#    z 0.000000 0.000000 1.689480 
# 
# From -- ./inp_files/51734.got.cif
#   From: 2010.05.17/outbox.cif.g08.bks.cpg/sg72_26_cif.got.tgz:51734.got - 2010.06.03 17:03:01.
