data_PCOD9526692
_publ_section_title
;
Structure prediction by ZEFSAII (Michael W. Deem and Ramdas Pophale) SiO2 
 PCOD9526692
Probable space group: I B A M
;
_chemical_formula_sum "Si O2"
_cell_formula_units_Z 48
_cell_length_a 18.528368
_cell_length_b 11.478216
_cell_length_c 9.204943
_cell_angle_alpha 90.000000
_cell_angle_beta 90.000000
_cell_angle_gamma 90.000000
_cell_volume 1957.639253
_symmetry_space_group_name_H-M "I B A M"
_symmetry_group_IT_number 72
_symmetry_cell_setting 'orthorhombic'
loop_
_space_group_symop_operation_xyz
x,y,z
-x,-y,z
x,-y,1/2-z
-x,y,1/2-z
-x,-y,-z
x,y,-z
-x,y,1/2+z
x,-y,1/2+z
1/2+x,1/2+y,1/2+z
1/2-x,1/2-y,1/2+z
1/2+x,1/2-y,-z
1/2-x,1/2+y,-z
1/2-x,1/2-y,1/2-z
1/2+x,1/2+y,1/2-z
1/2-x,1/2+y,z
1/2+x,1/2-y,z
loop_
_atom_site_type_symbol
_atom_site_label
_atom_site_fract_x
_atom_site_fract_y
_atom_site_fract_z
Si Si1 0.458556 0.838520 0.000000
Si Si2 0.597139 0.396416 0.000000
Si Si3 0.627413 0.826262 0.000000
Si Si4 0.500000 0.500000 0.250000
Si Si5 0.682890 0.000000 0.750000
Si Si6 0.280713 0.409699 0.000000
Si Si7 0.000000 0.500000 0.750000
O O1 0.397544 0.742058 0.000000
O O2 0.541942 0.793899 0.000000
O O3 0.455792 0.918305 0.858675
O O4 0.550394 0.425877 0.856708
O O5 0.666334 0.477548 0.000000
O O6 0.646373 0.906871 0.861524
O O7 0.672485 0.707579 0.000000
O O8 0.732385 0.922337 0.642858
#
# Coordination Sequence:
#
# PCOD9526692 Si02
#       7
#     8   8   8   4   8   8   4
#     4  11  23  41  65  95 132 179 233 285 343 414
#     4  11  22  38  64  96 137 178 220 284 350 414
#     4  11  22  43  68  93 136 179 233 291 339 415
#     4  10  20  34  52  90 128 170 216 254 348 414
#     4  10  24  42  66 100 132 184 238 284 346 404
#     4  11  23  41  65 100 137 175 228 288 352 414
#     4  10  24  42  60  94 132 178 232 268 336 416
#
# _framework density 24.519328999999999
#
# number of rings (size 3 to 8) (size 9 to 14) (size 15 to 20)
#    0.000    1.333    0.000    6.000    0.000    2.667 
#    0.000   13.333    0.000    8.000    0.000    0.000 
#    0.000    0.000    0.000    0.000    0.000    0.000 
#
# Total GULP energy -134502.396617 kJ/mol
# GULP energy per Si atom -5604.266526 kJ/mol
# Density = 2.446352 g / cm^3
# Si number density = 24.519329 Si / 1000 Ang^3
#
#
#
# Elastic Constant Matrix: (Units=GPa)
#
#
# Indices 1 2 3 4 5 6 
#
# 1 91.3093 50.7083 50.5984 0.0000 0.0000 0.0000
# 2 50.7083 170.5876 62.5280 0.0000 0.0000 0.0000
# 3 50.5984 62.5280 216.2356 0.0000 0.0000 0.0000
# 4 0.0000 0.0000 0.0000 -11.7283 0.0000 0.0000
# 5 0.0000 0.0000 0.0000 0.0000 53.4352 0.0000
# 6 0.0000 0.0000 0.0000 0.0000 0.0000 43.8799
#
#
#
# Elastic Compliance Matrix: (Units=1/GPa)
#
#
# Indices 1 2 3 4 5 6 
#
# 1 0.014097 -0.003335 -0.002334 0.000000 0.000000 0.000000
# 2 -0.003335 0.007346 -0.001344 0.000000 0.000000 0.000000
# 3 -0.002334 -0.001344 0.005559 0.000000 0.000000 0.000000
# 4 0.000000 0.000000 0.000000 -0.085264 0.000000 0.000000
# 5 0.000000 0.000000 0.000000 0.000000 0.018714 0.000000
# 6 0.000000 0.000000 0.000000 0.000000 0.000000 0.022790
#
#
# Mechanical properties :
#
#
# Convention : Reuss Voigt Hill
#
# Bulk Modulus (GPa) = 77.06229 89.53355 83.29792
# Shear Modulus (GPa) = 3135.88843 38.07053 1586.97948
#
# Velocity S-wave (km/s) = 35.80114 3.94467 25.46844
# Velocity P-wave (km/s) = 41.71882 7.57245 29.98168
#
# Compressibility (1/GPa) = 0.01297652
#
# Stress axis : x y z
#
# Youngs Moduli (GPa) = 70.93507 136.12872 179.87454
#
# Poissons Ratio (x) = 0.45397 0.41990
# Poissons Ratio (y) = 0.23656 0.24173
# Poissons Ratio (z) = 0.16559 0.18294
#
# Static dielectric constant tensor:
#      x y z
#    x 2.077860 0.000000 0.000000 
#    y 0.000000 1.949700 0.000000 
#    z 0.000000 0.000000 1.815220 
# 
# From -- ./inp_files/6545.got.cif
#   From: 2010.05.17/outbox.cif.g08.bks.cpg/sg72_4_cif.got.tgz:6545.got - 2010.06.03 17:03:01.
