data_PCOD9526951
_publ_section_title
;
Structure prediction by ZEFSAII (Michael W. Deem and Ramdas Pophale) SiO2 
 PCOD9526951
Probable space group: I B A M
;
_chemical_formula_sum "Si O2"
_cell_formula_units_Z 80
_cell_length_a 31.108464
_cell_length_b 7.320087
_cell_length_c 17.972980
_cell_angle_alpha 90.000000
_cell_angle_beta 90.000000
_cell_angle_gamma 90.000000
_cell_volume 4092.747028
_symmetry_space_group_name_H-M "I B A M"
_symmetry_group_IT_number 72
_symmetry_cell_setting 'orthorhombic'
loop_
_space_group_symop_operation_xyz
x,y,z
-x,-y,z
x,-y,1/2-z
-x,y,1/2-z
-x,-y,-z
x,y,-z
-x,y,1/2+z
x,-y,1/2+z
1/2+x,1/2+y,1/2+z
1/2-x,1/2-y,1/2+z
1/2+x,1/2-y,-z
1/2-x,1/2+y,-z
1/2-x,1/2-y,1/2-z
1/2+x,1/2+y,1/2-z
1/2-x,1/2+y,z
1/2+x,1/2-y,z
loop_
_atom_site_type_symbol
_atom_site_label
_atom_site_fract_x
_atom_site_fract_y
_atom_site_fract_z
Si Si1 0.839115 0.098145 0.916592
Si Si2 0.798352 0.792680 0.727348
Si Si3 0.586435 0.897798 0.083263
Si Si4 0.125151 0.745221 0.671255
Si Si5 0.454079 0.213117 0.773149
O O1 0.805692 0.197609 0.860923
O O2 0.876787 0.245833 0.921445
O O3 0.858719 0.913273 0.879970
O O4 0.822692 0.060688 0.000000
O O5 0.750000 0.750000 0.750000
O O6 0.834438 0.689869 0.776189
O O7 0.806815 0.000000 0.750000
O O8 0.552402 0.803669 0.138675
O O9 0.607019 0.078350 0.121549
O O10 0.570692 0.939383 0.000000
O O11 0.086397 0.795505 0.728318
O O12 0.500000 0.290733 0.750000
O O13 0.453701 0.000000 0.750000
#
# Coordination Sequence:
#
# PCOD9526951 Si02
#       5
#    16  16  16  16  16
#     4  10  21  38  57  85 117 146 192 246 290 337
#     4  10  22  36  60  85 111 152 196 236 286 353
#     4  10  20  35  60  85 114 153 192 243 295 340
#     4  10  20  38  59  81 116 157 198 234 291 355
#     4   9  18  34  58  88 117 155 204 240 286 357
#
# _framework density 19.546773000000002
#
# number of rings (size 3 to 8) (size 9 to 14) (size 15 to 20)
#    0.000    2.200    2.000    0.600    2.800    0.000 
#    0.000   16.000    0.000    2.400    0.000    0.000 
#    0.000    0.000    0.000    0.000    0.000    0.000 
#
# Total GULP energy -222800.301759 kJ/mol
# GULP energy per Si atom -5570.007544 kJ/mol
# Density = 1.950228 g / cm^3
# Si number density = 19.546773 Si / 1000 Ang^3
#
#
#
# Elastic Constant Matrix: (Units=GPa)
#
#
# Indices 1 2 3 4 5 6 
#
# 1 121.0336 0.3766 80.0601 0.0000 0.0000 0.0000
# 2 0.3766 72.2932 33.9271 0.0000 0.0000 0.0000
# 3 80.0601 33.9271 202.3600 0.0000 0.0000 0.0000
# 4 0.0000 0.0000 0.0000 19.1425 0.0000 0.0000
# 5 0.0000 0.0000 0.0000 0.0000 -17.5952 0.0000
# 6 0.0000 0.0000 0.0000 0.0000 0.0000 6.8465
#
#
#
# Elastic Compliance Matrix: (Units=1/GPa)
#
#
# Indices 1 2 3 4 5 6 
#
# 1 0.011520 0.002256 -0.004936 0.000000 0.000000 0.000000
# 2 0.002256 0.015456 -0.003484 0.000000 0.000000 0.000000
# 3 -0.004936 -0.003484 0.007479 0.000000 0.000000 0.000000
# 4 0.000000 0.000000 0.000000 0.052240 0.000000 0.000000
# 5 0.000000 0.000000 0.000000 0.000000 -0.056834 0.000000
# 6 0.000000 0.000000 0.000000 0.000000 0.000000 0.146059
#
#
# Mechanical properties :
#
#
# Convention : Reuss Voigt Hill
#
# Bulk Modulus (GPa) = 45.19262 69.37938 57.28600
# Shear Modulus (GPa) = 25.55934 20.43364 22.99649
#
# Velocity S-wave (km/s) = 3.62000 3.23673 3.43371
# Velocity P-wave (km/s) = 6.37518 7.03844 6.71500
#
# Compressibility (1/GPa) = 0.02212751
#
# Stress axis : x y z
#
# Youngs Moduli (GPa) = 86.80390 64.70045 133.71338
#
# Poissons Ratio (x) = -0.14600 0.66002
# Poissons Ratio (y) = -0.19587 0.46586
# Poissons Ratio (z) = 0.42847 0.22542
#
# Static dielectric constant tensor:
#      x y z
#    x 1.679170 0.000000 0.000000 
#    y 0.000000 1.711210 0.000000 
#    z 0.000000 0.000000 1.769550 
# 
# From -- ./inp_files/34172.got.cif
#   From: 2010.05.17/outbox.cif.g08.bks.cpg/sg72_18_cif.got.tgz:34172.got - 2010.06.03 17:03:01.
