data_PCOD9526251
_publ_section_title
;
Structure prediction by ZEFSAII (Michael W. Deem and Ramdas Pophale) SiO2 
 PCOD9526251
Probable space group: I B A M
;
_chemical_formula_sum "Si O2"
_cell_formula_units_Z 72
_cell_length_a 8.063452
_cell_length_b 18.229038
_cell_length_c 25.373181
_cell_angle_alpha 90.000000
_cell_angle_beta 90.000000
_cell_angle_gamma 90.000000
_cell_volume 3729.577815
_symmetry_space_group_name_H-M "I B A M"
_symmetry_group_IT_number 72
_symmetry_cell_setting 'orthorhombic'
loop_
_space_group_symop_operation_xyz
x,y,z
-x,-y,z
x,-y,1/2-z
-x,y,1/2-z
-x,-y,-z
x,y,-z
-x,y,1/2+z
x,-y,1/2+z
1/2+x,1/2+y,1/2+z
1/2-x,1/2-y,1/2+z
1/2+x,1/2-y,-z
1/2-x,1/2+y,-z
1/2-x,1/2-y,1/2-z
1/2+x,1/2+y,1/2-z
1/2-x,1/2+y,z
1/2+x,1/2-y,z
loop_
_atom_site_type_symbol
_atom_site_label
_atom_site_fract_x
_atom_site_fract_y
_atom_site_fract_z
Si Si1 0.809500 0.217854 0.128470
Si Si2 0.308143 0.513817 0.939216
Si Si3 0.396518 0.323392 0.439876
Si Si4 0.005212 0.347237 0.187252
Si Si5 0.000000 0.500000 0.367570
O O1 0.707805 0.254689 0.080665
O O2 0.887368 0.285259 0.161521
O O3 0.687444 0.172569 0.165369
O O4 0.953300 0.171058 0.101313
O O5 0.500000 0.500000 0.923250
O O6 0.290844 0.602206 0.938366
O O7 0.160736 0.483052 0.903761
O O8 0.293393 0.488113 0.000000
O O9 0.453844 0.313671 0.500000
O O10 0.961247 0.428422 0.167129
O O11 0.000000 0.343164 0.250000
#
# Coordination Sequence:
#
# PCOD9526251 Si02
#       5
#    16  16  16  16   8
#     4  10  21  38  60  87 117 160 197 250 301 361
#     4  10  21  37  58  86 123 161 194 238 303 375
#     4  10  19  35  57  89 121 153 193 242 300 366
#     4  11  23  40  62  84 117 158 208 256 301 350
#     4  12  22  40  62  92 122 156 206 254 312 352
#
# _framework density 19.305135
#
# number of rings (size 3 to 8) (size 9 to 14) (size 15 to 20)
#    0.000    1.556    2.222    3.333    0.000    0.000 
#    0.000    2.222    0.000    1.333    0.000    0.000 
#    0.000    0.000    0.000    0.000    0.000    0.000 
#
# Total GULP energy -201009.854562 kJ/mol
# GULP energy per Si atom -5583.607071 kJ/mol
# Density = 1.926120 g / cm^3
# Si number density = 19.305135 Si / 1000 Ang^3
#
#
#
# Elastic Constant Matrix: (Units=GPa)
#
#
# Indices 1 2 3 4 5 6 
#
# 1 56.5758 3.1568 30.7742 0.0000 0.0000 0.0000
# 2 3.1568 56.1577 34.6444 0.0000 0.0000 0.0000
# 3 30.7742 34.6444 121.2928 0.0000 0.0000 0.0000
# 4 0.0000 0.0000 0.0000 19.8445 0.0000 0.0000
# 5 0.0000 0.0000 0.0000 0.0000 16.8153 0.0000
# 6 0.0000 0.0000 0.0000 0.0000 0.0000 22.5218
#
#
#
# Elastic Compliance Matrix: (Units=1/GPa)
#
#
# Indices 1 2 3 4 5 6 
#
# 1 0.020798 0.002532 -0.006000 0.000000 0.000000 0.000000
# 2 0.002532 0.021924 -0.006905 0.000000 0.000000 0.000000
# 3 -0.006000 -0.006905 0.011739 0.000000 0.000000 0.000000
# 4 0.000000 0.000000 0.000000 0.050392 0.000000 0.000000
# 5 0.000000 0.000000 0.000000 0.000000 0.059470 0.000000
# 6 0.000000 0.000000 0.000000 0.000000 0.000000 0.044401
#
#
# Mechanical properties :
#
#
# Convention : Reuss Voigt Hill
#
# Bulk Modulus (GPa) = 29.65918 41.24189 35.45053
# Shear Modulus (GPa) = 20.77211 22.86638 21.81925
#
# Velocity S-wave (km/s) = 3.28379 3.44535 3.36554
# Velocity P-wave (km/s) = 5.45659 6.10220 5.78840
#
# Compressibility (1/GPa) = 0.03371637
#
# Stress axis : x y z
#
# Youngs Moduli (GPa) = 48.08193 45.61171 85.18612
#
# Poissons Ratio (x) = -0.11551 0.51113
# Poissons Ratio (y) = -0.12176 0.58818
# Poissons Ratio (z) = 0.28850 0.31493
#
# Static dielectric constant tensor:
#      x y z
#    x 1.695580 0.000000 0.000000 
#    y 0.000000 1.677420 0.000000 
#    z 0.000000 0.000000 1.634050 
# 
# From -- ./inp_files/42080.got.cif
#   From: 2010.05.17/outbox.cif.g08.bks.cpg/sg72_22_cif.got.tgz:42080.got - 2010.06.03 17:03:01.
