data_PCOD9526634
_publ_section_title
;
Structure prediction by ZEFSAII (Michael W. Deem and Ramdas Pophale) SiO2 
 PCOD9526634
Probable space group: I B A M
;
_chemical_formula_sum "Si O2"
_cell_formula_units_Z 128
_cell_length_a 22.099698
_cell_length_b 18.925018
_cell_length_c 17.949437
_cell_angle_alpha 90.000000
_cell_angle_beta 90.000000
_cell_angle_gamma 90.000000
_cell_volume 7507.121957
_symmetry_space_group_name_H-M "I B A M"
_symmetry_group_IT_number 72
_symmetry_cell_setting 'orthorhombic'
loop_
_space_group_symop_operation_xyz
x,y,z
-x,-y,z
x,-y,1/2-z
-x,y,1/2-z
-x,-y,-z
x,y,-z
-x,y,1/2+z
x,-y,1/2+z
1/2+x,1/2+y,1/2+z
1/2-x,1/2-y,1/2+z
1/2+x,1/2-y,-z
1/2-x,1/2+y,-z
1/2-x,1/2-y,1/2-z
1/2+x,1/2+y,1/2-z
1/2-x,1/2+y,z
1/2+x,1/2-y,z
loop_
_atom_site_type_symbol
_atom_site_label
_atom_site_fract_x
_atom_site_fract_y
_atom_site_fract_z
Si Si1 0.930110 0.119993 0.413775
Si Si2 0.382014 0.535061 0.591119
Si Si3 0.789262 0.401041 0.187128
Si Si4 0.042031 0.847267 0.823565
Si Si5 0.757802 0.808588 0.580270
Si Si6 0.681049 0.700090 0.647989
Si Si7 0.852593 0.259974 0.805248
Si Si8 0.254609 0.954690 0.853125
O O1 0.917678 0.131993 0.500000
O O2 0.880125 0.159751 0.366494
O O3 0.993937 0.151534 0.390251
O O4 0.921883 0.036099 0.401215
O O5 0.380109 0.551034 0.500000
O O6 0.411054 0.593218 0.646630
O O7 0.314230 0.523769 0.623969
O O8 0.733908 0.356946 0.153658
O O9 0.844066 0.344533 0.185356
O O10 0.766585 0.423788 0.269895
O O11 0.794979 0.474745 0.143151
O O12 0.081587 0.776262 0.812168
O O13 0.000000 0.862385 0.750000
O O14 0.787194 0.805137 0.500000
O O15 0.701771 0.755746 0.586807
O O16 0.807620 0.781749 0.638926
O O17 0.734725 0.887142 0.595561
O O18 0.674098 0.742624 0.724280
#
# Coordination Sequence:
#
# PCOD9526634 Si02
#       8
#    16  16  16  16  16  16  16  16
#     4  11  24  38  54  79 113 151 194 237 276 321
#     4  11  23  38  52  78 121 154 188 230 268 328
#     4  10  20  33  57  81 110 141 184 235 281 330
#     4  12  24  37  57  77 106 157 200 235 270 324
#     4  11  21  33  56  84 114 150 184 226 287 344
#     4  11  18  38  55  79 111 145 190 236 277 333
#     4  11  21  39  54  80 111 146 193 241 274 325
#     4  11  19  33  57  84 110 151 177 222 280 348
#
# _framework density 17.050474999999999
#
# number of rings (size 3 to 8) (size 9 to 14) (size 15 to 20)
#    0.000    1.000    6.250    2.250    0.000    2.500 
#    0.000    0.625    0.000    0.000    0.000    6.125 
#    0.000    2.000    0.000    0.000    0.000    0.000 
#
# Total GULP energy -356480.320300 kJ/mol
# GULP energy per Si atom -5570.005005 kJ/mol
# Density = 1.701167 g / cm^3
# Si number density = 17.050475 Si / 1000 Ang^3
#
#
#
# Elastic Constant Matrix: (Units=GPa)
#
#
# Indices 1 2 3 4 5 6 
#
# 1 52.7097 36.4533 10.3006 0.0000 0.0000 0.0000
# 2 36.4533 120.7417 33.0091 0.0000 0.0000 0.0000
# 3 10.3006 33.0091 64.7826 0.0000 0.0000 0.0000
# 4 0.0000 0.0000 0.0000 33.3335 0.0000 0.0000
# 5 0.0000 0.0000 0.0000 0.0000 5.7271 0.0000
# 6 0.0000 0.0000 0.0000 0.0000 0.0000 20.3845
#
#
#
# Elastic Compliance Matrix: (Units=1/GPa)
#
#
# Indices 1 2 3 4 5 6 
#
# 1 0.023980 -0.007200 -0.000144 0.000000 0.000000 0.000000
# 2 -0.007200 0.011785 -0.004860 0.000000 0.000000 0.000000
# 3 -0.000144 -0.004860 0.017935 0.000000 0.000000 0.000000
# 4 0.000000 0.000000 0.000000 0.030000 0.000000 0.000000
# 5 0.000000 0.000000 0.000000 0.000000 0.174609 0.000000
# 6 0.000000 0.000000 0.000000 0.000000 0.000000 0.049057
#
#
# Mechanical properties :
#
#
# Convention : Reuss Voigt Hill
#
# Bulk Modulus (GPa) = 34.13981 44.19556 39.16769
# Shear Modulus (GPa) = 14.63969 22.45377 18.54673
#
# Velocity S-wave (km/s) = 2.93338 3.63285 3.30169
# Velocity P-wave (km/s) = 5.61598 6.60102 6.12832
#
# Compressibility (1/GPa) = 0.02929131
#
# Stress axis : x y z
#
# Youngs Moduli (GPa) = 41.70208 84.85648 55.75574
#
# Poissons Ratio (x) = 0.61100 0.00803
# Poissons Ratio (y) = 0.30027 0.27096
# Poissons Ratio (z) = 0.00600 0.41239
#
# Static dielectric constant tensor:
#      x y z
#    x 1.577280 0.000000 0.000000 
#    y 0.000000 1.604950 0.000000 
#    z 0.000000 0.000000 1.579510 
# 
# From -- ./inp_files/32958.got.cif
#   From: 2010.05.17/outbox.cif.g08.bks.cpg/sg72_17_cif.got.tgz:32958.got - 2010.06.03 17:03:01.
