data_PCOD9526614
_publ_section_title
;
Structure prediction by ZEFSAII (Michael W. Deem and Ramdas Pophale) SiO2 
 PCOD9526614
Probable space group: I B A M
;
_chemical_formula_sum "Si O2"
_cell_formula_units_Z 88
_cell_length_a 22.339985
_cell_length_b 8.760064
_cell_length_c 22.648466
_cell_angle_alpha 90.000000
_cell_angle_beta 90.000000
_cell_angle_gamma 90.000000
_cell_volume 4432.297964
_symmetry_space_group_name_H-M "I B A M"
_symmetry_group_IT_number 72
_symmetry_cell_setting 'orthorhombic'
loop_
_space_group_symop_operation_xyz
x,y,z
-x,-y,z
x,-y,1/2-z
-x,y,1/2-z
-x,-y,-z
x,y,-z
-x,y,1/2+z
x,-y,1/2+z
1/2+x,1/2+y,1/2+z
1/2-x,1/2-y,1/2+z
1/2+x,1/2-y,-z
1/2-x,1/2+y,-z
1/2-x,1/2-y,1/2-z
1/2+x,1/2+y,1/2-z
1/2-x,1/2+y,z
1/2+x,1/2-y,z
loop_
_atom_site_type_symbol
_atom_site_label
_atom_site_fract_x
_atom_site_fract_y
_atom_site_fract_z
Si Si1 0.320465 0.251795 0.177093
Si Si2 0.071373 0.817139 0.250206
Si Si3 0.558976 0.094242 0.147031
Si Si4 0.370990 0.849252 0.431794
Si Si5 0.250494 0.500000 0.750000
Si Si6 0.508144 0.334393 0.567336
O O1 0.390557 0.258258 0.195010
O O2 0.318066 0.223351 0.107303
O O3 0.290272 0.402585 0.204104
O O4 0.289580 0.114778 0.212220
O O5 0.089649 0.701278 0.303332
O O6 0.000000 0.801693 0.250000
O O7 0.082807 0.000000 0.250000
O O8 0.529844 0.211979 0.101632
O O9 0.500000 0.000000 0.170053
O O10 0.602875 0.988355 0.108102
O O11 0.357705 0.891057 0.500000
O O12 0.424137 0.724119 0.434259
O O13 0.500000 0.500000 0.595951
O O14 0.486116 0.343516 0.500000
#
# Coordination Sequence:
#
# PCOD9526614 Si02
#       6
#    16  16  16  16   8  16
#     4  11  22  43  63  91 121 160 207 260 309 376
#     4  11  23  35  59  96 131 163 202 264 331 377
#     4  10  20  33  54  80 125 171 208 244 306 383
#     4  10  21  37  59  86 120 159 207 263 312 368
#     4  10  24  42  68  88 116 166 212 252 310 376
#     4   9  18  30  50  81 122 170 209 240 294 376
#
# _framework density 19.85426
#
# number of rings (size 3 to 8) (size 9 to 14) (size 15 to 20)
#    0.000    1.818    0.909    3.818    5.091    4.000 
#    0.000    0.909    0.000    0.000    0.000    0.000 
#    0.000    0.000    0.000    0.000    0.000    0.000 
#
# Total GULP energy -245394.133421 kJ/mol
# GULP energy per Si atom -5577.139396 kJ/mol
# Density = 1.980907 g / cm^3
# Si number density = 19.854260 Si / 1000 Ang^3
#
#
#
# Elastic Constant Matrix: (Units=GPa)
#
#
# Indices 1 2 3 4 5 6 
#
# 1 47.5987 22.0329 23.4741 0.0000 0.0000 0.0000
# 2 22.0329 133.0537 53.5717 0.0000 0.0000 0.0000
# 3 23.4741 53.5717 129.5034 0.0000 0.0000 0.0000
# 4 0.0000 0.0000 0.0000 27.3397 0.0000 0.0000
# 5 0.0000 0.0000 0.0000 0.0000 20.8291 0.0000
# 6 0.0000 0.0000 0.0000 0.0000 0.0000 1.8676
#
#
#
# Elastic Compliance Matrix: (Units=1/GPa)
#
#
# Indices 1 2 3 4 5 6 
#
# 1 0.023824 -0.002647 -0.003223 0.000000 0.000000 0.000000
# 2 -0.002647 0.009312 -0.003372 0.000000 0.000000 0.000000
# 3 -0.003223 -0.003372 0.009701 0.000000 0.000000 0.000000
# 4 0.000000 0.000000 0.000000 0.036577 0.000000 0.000000
# 5 0.000000 0.000000 0.000000 0.000000 0.048010 0.000000
# 6 0.000000 0.000000 0.000000 0.000000 0.000000 0.535450
#
#
# Mechanical properties :
#
#
# Convention : Reuss Voigt Hill
#
# Bulk Modulus (GPa) = 41.06549 56.47926 48.77237
# Shear Modulus (GPa) = 7.25189 24.07909 15.66549
#
# Velocity S-wave (km/s) = 1.91324 3.48629 2.81200
# Velocity P-wave (km/s) = 5.06054 6.68688 5.92973
#
# Compressibility (1/GPa) = 0.02435135
#
# Stress axis : x y z
#
# Youngs Moduli (GPa) = 41.97451 107.38947 103.08173
#
# Poissons Ratio (x) = 0.28429 0.33226
# Poissons Ratio (y) = 0.11112 0.34761
# Poissons Ratio (z) = 0.13530 0.36214
#
# Static dielectric constant tensor:
#      x y z
#    x 1.698240 0.000000 0.000000 
#    y 0.000000 1.786360 0.000000 
#    z 0.000000 0.000000 1.740280 
# 
# From -- ./inp_files/40170.got.cif
#   From: 2010.05.17/outbox.cif.g08.bks.cpg/sg72_21_cif.got.tgz:40170.got - 2010.06.03 17:03:01.
