data_PCOD9526449
_publ_section_title
;
Structure prediction by ZEFSAII (Michael W. Deem and Ramdas Pophale) SiO2 
 PCOD9526449
Probable space group: I B A M
;
_chemical_formula_sum "Si O2"
_cell_formula_units_Z 112
_cell_length_a 11.563606
_cell_length_b 30.959590
_cell_length_c 17.020767
_cell_angle_alpha 90.000000
_cell_angle_beta 90.000000
_cell_angle_gamma 90.000000
_cell_volume 6093.511191
_symmetry_space_group_name_H-M "I B A M"
_symmetry_group_IT_number 72
_symmetry_cell_setting 'orthorhombic'
loop_
_space_group_symop_operation_xyz
x,y,z
-x,-y,z
x,-y,1/2-z
-x,y,1/2-z
-x,-y,-z
x,y,-z
-x,y,1/2+z
x,-y,1/2+z
1/2+x,1/2+y,1/2+z
1/2-x,1/2-y,1/2+z
1/2+x,1/2-y,-z
1/2-x,1/2+y,-z
1/2-x,1/2-y,1/2-z
1/2+x,1/2+y,1/2-z
1/2-x,1/2+y,z
1/2+x,1/2-y,z
loop_
_atom_site_type_symbol
_atom_site_label
_atom_site_fract_x
_atom_site_fract_y
_atom_site_fract_z
Si Si1 0.970996 0.322769 0.339789
Si Si2 0.163925 0.386652 0.590375
Si Si3 0.257654 0.622214 0.318066
Si Si4 0.410146 0.674130 0.590442
Si Si5 0.366214 0.050587 0.767855
Si Si6 0.203355 0.742489 0.591996
Si Si7 0.344342 0.330344 0.662760
O O1 0.865170 0.356320 0.336299
O O2 0.915603 0.282894 0.387355
O O3 0.000000 0.310254 0.250000
O O4 0.076295 0.349303 0.377925
O O5 0.139536 0.395942 0.500000
O O6 0.154316 0.428721 0.645944
O O7 0.289028 0.364855 0.602588
O O8 0.342914 0.629645 0.390248
O O9 0.225179 0.575313 0.287373
O O10 0.313730 0.649852 0.246956
O O11 0.445944 0.677055 0.500000
O O12 0.312921 0.710959 0.604236
O O13 0.521633 0.676746 0.644854
O O14 0.500000 0.062407 0.750000
O O15 0.355564 0.000000 0.750000
O O16 0.201301 0.754936 0.500000
O O17 0.213632 0.784077 0.646777
#
# Coordination Sequence:
#
# PCOD9526449 Si02
#       7
#    16  16  16  16  16  16  16
#     4  11  19  36  55  80 114 153 196 231 284 346
#     4  11  21  36  60  87 118 158 193 235 294 350
#     4  10  20  38  58  81 108 152 185 227 289 354
#     4  10  22  37  53  79 113 149 195 243 286 331
#     4  10  19  38  63  88 119 146 179 239 292 358
#     4  10  23  36  52  79 113 151 198 254 290 322
#     4  11  22  37  57  79 112 156 204 241 287 341
#
# _framework density 18.380208
#
# number of rings (size 3 to 8) (size 9 to 14) (size 15 to 20)
#    0.000    1.571    4.286    2.143    2.000    4.000 
#    0.000    2.143    0.000    6.857    0.000    5.000 
#    0.000    0.000    0.000    0.000    0.000    0.000 
#
# Total GULP energy -312454.094313 kJ/mol
# GULP energy per Si atom -5579.537398 kJ/mol
# Density = 1.833837 g / cm^3
# Si number density = 18.380208 Si / 1000 Ang^3
#
#
#
# Elastic Constant Matrix: (Units=GPa)
#
#
# Indices 1 2 3 4 5 6 
#
# 1 66.6491 19.3470 7.0997 0.0000 0.0000 0.0000
# 2 19.3470 93.0727 29.6724 0.0000 0.0000 0.0000
# 3 7.0997 29.6724 35.5143 -0.0001 0.0001 0.0000
# 4 0.0000 0.0000 -0.0001 3.7806 0.0000 0.0000
# 5 0.0000 0.0000 0.0001 0.0000 22.4433 0.0000
# 6 0.0000 0.0000 0.0000 0.0000 0.0000 20.1565
#
#
#
# Elastic Compliance Matrix: (Units=1/GPa)
#
#
# Indices 1 2 3 4 5 6 
#
# 1 0.015976 -0.003139 -0.000571 0.000000 0.000000 0.000000
# 2 -0.003139 0.015262 -0.012124 0.000000 0.000000 0.000000
# 3 -0.000571 -0.012124 0.038402 0.000001 0.000000 0.000000
# 4 0.000000 0.000000 0.000001 0.264509 0.000000 0.000000
# 5 0.000000 0.000000 0.000000 0.000000 0.044557 0.000000
# 6 0.000000 0.000000 0.000000 0.000000 0.000000 0.049612
#
#
# Mechanical properties :
#
#
# Convention : Reuss Voigt Hill
#
# Bulk Modulus (GPa) = 26.33565 34.16379 30.24972
# Shear Modulus (GPa) = 10.57882 18.55056 14.56469
#
# Velocity S-wave (km/s) = 2.40168 3.18034 2.81803
# Velocity P-wave (km/s) = 4.69575 5.66690 5.20403
#
# Compressibility (1/GPa) = 0.03797134
#
# Stress axis : x y z
#
# Youngs Moduli (GPa) = 62.59413 65.52238 26.04061
#
# Poissons Ratio (x) = 0.20566 0.01488
# Poissons Ratio (y) = 0.19647 0.31572
# Poissons Ratio (z) = 0.03576 0.79439
#
# Static dielectric constant tensor:
#      x y z
#    x 1.651990 0.000000 0.000000 
#    y 0.000000 1.627620 0.000000 
#    z 0.000000 0.000000 1.658130 
# 
# From -- ./inp_files/20704.got.cif
#   From: 2010.05.17/outbox.cif.g08.bks.cpg/sg72_11_cif.got.tgz:20704.got - 2010.06.03 17:03:01.
