data_PCOD9526704
_publ_section_title
;
Structure prediction by ZEFSAII (Michael W. Deem and Ramdas Pophale) SiO2 
 PCOD9526704
Probable space group: I B A M
;
_chemical_formula_sum "Si O2"
_cell_formula_units_Z 112
_cell_length_a 31.962390
_cell_length_b 13.954697
_cell_length_c 14.567101
_cell_angle_alpha 90.000000
_cell_angle_beta 90.000000
_cell_angle_gamma 90.000000
_cell_volume 6497.298039
_symmetry_space_group_name_H-M "I B A M"
_symmetry_group_IT_number 72
_symmetry_cell_setting 'orthorhombic'
loop_
_space_group_symop_operation_xyz
x,y,z
-x,-y,z
x,-y,1/2-z
-x,y,1/2-z
-x,-y,-z
x,y,-z
-x,y,1/2+z
x,-y,1/2+z
1/2+x,1/2+y,1/2+z
1/2-x,1/2-y,1/2+z
1/2+x,1/2-y,-z
1/2-x,1/2+y,-z
1/2-x,1/2-y,1/2-z
1/2+x,1/2+y,1/2-z
1/2-x,1/2+y,z
1/2+x,1/2-y,z
loop_
_atom_site_type_symbol
_atom_site_label
_atom_site_fract_x
_atom_site_fract_y
_atom_site_fract_z
Si Si1 0.322628 0.885308 0.750000
Si Si2 0.612747 0.800242 0.609148
Si Si3 0.549519 0.885571 0.750000
Si Si4 0.657150 0.609699 0.108214
Si Si5 0.387253 0.199758 0.109148
Si Si6 0.342850 0.390301 0.391786
Si Si7 0.727701 0.615890 0.250000
O O1 0.348362 0.850627 0.838994
O O2 0.348362 0.850627 0.661006
O O3 0.275034 0.847802 0.750000
O O4 0.322437 0.000000 0.750000
O O5 0.612043 0.817748 0.500000
O O6 0.572151 0.839351 0.661579
O O7 0.621076 0.687203 0.625979
O O8 0.500000 0.869939 0.750000
O O9 0.572151 0.839351 0.838421
O O10 0.557539 0.000000 0.750000
O O11 0.621076 0.687203 0.125979
O O12 0.646488 0.500000 0.133927
O O13 0.698715 0.639286 0.163000
O O14 0.665716 0.611820 0.000000
O O15 0.387957 0.182252 0.000000
O O16 0.334284 0.388180 0.500000
O O17 0.301285 0.360714 0.337000
O O18 0.731531 0.500000 0.250000
#
# Coordination Sequence:
#
# PCOD9526704 Si02
#       7
#    16  16  16  16  16  16  16
#     4  10  21  33  45  69 104 136 170 212 250 287
#     4  10  20  34  54  76  98 129 165 202 248 297
#     4  10  22  39  57  78 102 125 155 197 242 296
#     4   9  18  32  50  73 100 132 171 208 241 283
#     4  10  20  34  54  76  98 129 165 202 248 297
#     4   9  18  32  50  73 100 132 171 208 241 283
#     4   9  17  30  47  66  97 140 175 208 248 282
#
# _framework density 17.237935
#
# number of rings (size 3 to 8) (size 9 to 14) (size 15 to 20)
#    0.000    2.429    0.000    3.429    0.000    6.286 
#    0.000    7.143    0.000    1.714    0.000    4.000 
#    0.000    0.000    0.000    0.000    0.000    0.000 
#
# Total GULP energy -312228.945475 kJ/mol
# GULP energy per Si atom -5575.516883 kJ/mol
# Density = 1.719870 g / cm^3
# Si number density = 17.237935 Si / 1000 Ang^3
#
#
#
# Elastic Constant Matrix: (Units=GPa)
#
#
# Indices 1 2 3 4 5 6 
#
# 1 136.2536 67.6468 68.2941 0.0000 0.0000 0.0000
# 2 67.6468 116.9516 56.8328 0.0000 0.0000 0.0000
# 3 68.2941 56.8328 126.7981 0.0000 0.0000 0.0000
# 4 0.0000 0.0000 0.0000 20.2130 0.0000 0.0000
# 5 0.0000 0.0000 0.0000 0.0000 -116.8285 0.0000
# 6 0.0000 0.0000 0.0000 0.0000 0.0000 27.1739
#
#
#
# Elastic Compliance Matrix: (Units=1/GPa)
#
#
# Indices 1 2 3 4 5 6 
#
# 1 0.011838 -0.004793 -0.004228 0.000000 0.000000 0.000000
# 2 -0.004793 0.012872 -0.003188 0.000000 0.000000 0.000000
# 3 -0.004228 -0.003188 0.011593 0.000000 0.000000 0.000000
# 4 0.000000 0.000000 0.000000 0.049473 0.000000 0.000000
# 5 0.000000 0.000000 0.000000 0.000000 -0.008560 0.000000
# 6 0.000000 0.000000 0.000000 0.000000 0.000000 0.036800
#
#
# Mechanical properties :
#
#
# Convention : Reuss Voigt Hill
#
# Bulk Modulus (GPa) = 84.13709 85.06121 84.59915
# Shear Modulus (GPa) = 35.11368 -1.40635 16.85366
#
# Velocity S-wave (km/s) = 4.51821 -0.90422 3.13022
# Velocity P-wave (km/s) = 8.72549 6.95430 7.88976
#
# Compressibility (1/GPa) = 0.01188536
#
# Stress axis : x y z
#
# Youngs Moduli (GPa) = 84.47531 77.68831 86.26228
#
# Poissons Ratio (x) = 0.37234 0.36469
# Poissons Ratio (y) = 0.40487 0.27501
# Poissons Ratio (z) = 0.35714 0.24767
#
# Static dielectric constant tensor:
#      x y z
#    x 1.555980 0.000000 0.000000 
#    y 0.000000 1.643230 0.000000 
#    z 0.000000 0.000000 1.571700 
# 
# From -- ./inp_files/26526.got.cif
#   From: 2010.05.17/outbox.cif.g08.bks.cpg/sg72_14_cif.got.tgz:26526.got - 2010.06.03 17:03:01.
