data_PCOD9526389
_publ_section_title
;
Structure prediction by ZEFSAII (Michael W. Deem and Ramdas Pophale) SiO2 
 PCOD9526389
Probable space group: I B A M
;
_chemical_formula_sum "Si O2"
_cell_formula_units_Z 48
_cell_length_a 9.748784
_cell_length_b 13.194593
_cell_length_c 14.746550
_cell_angle_alpha 90.000000
_cell_angle_beta 90.000000
_cell_angle_gamma 90.000000
_cell_volume 1896.866970
_symmetry_space_group_name_H-M "I B A M"
_symmetry_group_IT_number 72
_symmetry_cell_setting 'orthorhombic'
loop_
_space_group_symop_operation_xyz
x,y,z
-x,-y,z
x,-y,1/2-z
-x,y,1/2-z
-x,-y,-z
x,y,-z
-x,y,1/2+z
x,-y,1/2+z
1/2+x,1/2+y,1/2+z
1/2-x,1/2-y,1/2+z
1/2+x,1/2-y,-z
1/2-x,1/2+y,-z
1/2-x,1/2-y,1/2-z
1/2+x,1/2+y,1/2-z
1/2-x,1/2+y,z
1/2+x,1/2-y,z
loop_
_atom_site_type_symbol
_atom_site_label
_atom_site_fract_x
_atom_site_fract_y
_atom_site_fract_z
Si Si1 0.369005 0.328376 0.500000
Si Si2 0.378537 0.285676 0.308956
Si Si3 0.627444 0.942368 0.346776
Si Si4 0.809117 0.875107 0.500000
O O1 0.338086 0.354464 0.394549
O O2 0.286115 0.223246 0.500000
O O3 0.533914 0.341812 0.500000
O O4 0.500000 0.332765 0.250000
O O5 0.250000 0.250000 0.250000
O O6 0.429103 0.173393 0.338999
O O7 0.760046 0.933840 0.410403
O O8 0.500000 0.000000 0.391442
O O9 0.651187 0.000000 0.250000
#
# Coordination Sequence:
#
# PCOD9526389 Si02
#       4
#     8  16  16   8
#     4  10  22  40  61 104 132 170 228 285 331 391
#     4  11  21  37  64  95 129 174 220 280 329 394
#     4  10  19  37  60  96 126 168 228 268 324 400
#     4  10  21  38  69  98 132 173 223 282 332 395
#
# _framework density 25.304886
#
# number of rings (size 3 to 8) (size 9 to 14) (size 15 to 20)
#    0.000    1.667    3.333    4.500    0.000    0.000 
#    0.000    1.667    0.000   11.000    0.000    0.000 
#    0.000    0.000    0.000    0.000    0.000    0.000 
#
# Total GULP energy -133683.590248 kJ/mol
# GULP energy per Si atom -5570.149594 kJ/mol
# Density = 2.524729 g / cm^3
# Si number density = 25.304886 Si / 1000 Ang^3
#
#
#
# Elastic Constant Matrix: (Units=GPa)
#
#
# Indices 1 2 3 4 5 6 
#
# 1 126.2534 0.8306 35.5598 0.0000 0.0000 0.0000
# 2 0.8306 80.0329 -32.1758 0.0000 0.0000 0.0000
# 3 35.5598 -32.1758 146.1165 0.0000 0.0000 0.0000
# 4 0.0000 0.0000 0.0000 1.8186 0.0000 0.0000
# 5 0.0000 0.0000 0.0000 0.0000 33.9737 0.0000
# 6 0.0000 0.0000 0.0000 0.0000 0.0000 25.2011
#
#
#
# Elastic Compliance Matrix: (Units=1/GPa)
#
#
# Indices 1 2 3 4 5 6 
#
# 1 0.008578 -0.001019 -0.002312 0.000000 0.000000 0.000000
# 2 -0.001019 0.013829 0.003293 0.000000 0.000000 0.000000
# 3 -0.002312 0.003293 0.008132 0.000000 0.000000 0.000000
# 4 0.000000 0.000000 0.000000 0.549884 0.000000 0.000000
# 5 0.000000 0.000000 0.000000 0.000000 0.029435 0.000000
# 6 0.000000 0.000000 0.000000 0.000000 0.000000 0.039681
#
#
# Mechanical properties :
#
#
# Convention : Reuss Voigt Hill
#
# Bulk Modulus (GPa) = 32.82461 40.09242 36.45851
# Shear Modulus (GPa) = 7.57842 35.41123 21.49482
#
# Velocity S-wave (km/s) = 1.73244 3.74489 2.91767
# Velocity P-wave (km/s) = 4.12330 5.88023 5.07832
#
# Compressibility (1/GPa) = 0.03046495
#
# Stress axis : x y z
#
# Youngs Moduli (GPa) = 116.57102 72.30967 122.97555
#
# Poissons Ratio (x) = 0.07365 0.28432
# Poissons Ratio (y) = 0.11873 -0.40498
# Poissons Ratio (z) = 0.26951 -0.23813
#
# Static dielectric constant tensor:
#      x y z
#    x 2.308680 0.000000 0.000000 
#    y 0.000000 2.142080 0.000000 
#    z 0.000000 0.000000 1.855270 
# 
# From -- ./inp_files/27317.got.cif
#   From: 2010.05.17/outbox.cif.g08.bks.cpg/sg72_14_cif.got.tgz:27317.got - 2010.06.03 17:03:01.
