data_PCOD9526142
_publ_section_title
;
Structure prediction by ZEFSAII (Michael W. Deem and Ramdas Pophale) SiO2 
 PCOD9526142
Probable space group: I B A M
;
_chemical_formula_sum "Si O2"
_cell_formula_units_Z 116
_cell_length_a 27.770954
_cell_length_b 11.578859
_cell_length_c 17.629139
_cell_angle_alpha 90.000000
_cell_angle_beta 90.000000
_cell_angle_gamma 90.000000
_cell_volume 5668.754727
_symmetry_space_group_name_H-M "I B A M"
_symmetry_group_IT_number 72
_symmetry_cell_setting 'orthorhombic'
loop_
_space_group_symop_operation_xyz
x,y,z
-x,-y,z
x,-y,1/2-z
-x,y,1/2-z
-x,-y,-z
x,y,-z
-x,y,1/2+z
x,-y,1/2+z
1/2+x,1/2+y,1/2+z
1/2-x,1/2-y,1/2+z
1/2+x,1/2-y,-z
1/2-x,1/2+y,-z
1/2-x,1/2-y,1/2-z
1/2+x,1/2+y,1/2-z
1/2-x,1/2+y,z
1/2+x,1/2-y,z
loop_
_atom_site_type_symbol
_atom_site_label
_atom_site_fract_x
_atom_site_fract_y
_atom_site_fract_z
Si Si1 0.873357 0.019861 0.585853
Si Si2 0.280072 0.818974 0.591881
Si Si3 0.946863 0.539596 0.162927
Si Si4 0.560218 0.278871 0.087989
Si Si5 0.391439 0.851280 0.409862
Si Si6 0.270116 0.560171 0.407082
Si Si7 0.455670 0.350493 0.124826
Si Si8 0.500000 0.500000 0.250000
O O1 0.859846 0.051779 0.500000
O O2 0.898831 0.133815 0.616999
O O3 0.824907 0.967000 0.619008
O O4 0.915279 0.925186 0.583215
O O5 0.275891 0.819989 0.500000
O O6 0.337001 0.818722 0.609855
O O7 0.258406 0.693483 0.617022
O O8 0.258893 0.944008 0.616973
O O9 0.942047 0.500000 0.250000
O O10 0.944013 0.674285 0.145951
O O11 0.905174 0.479811 0.113972
O O12 0.000000 0.500000 0.136280
O O13 0.508019 0.340676 0.087181
O O14 0.569804 0.243799 0.000000
O O15 0.397692 0.835045 0.500000
O O16 0.431190 0.773479 0.368066
O O17 0.267881 0.563912 0.500000
O O18 0.466335 0.417080 0.201601
#
# Coordination Sequence:
#
# PCOD9526142 Si02
#       8
#    16  16  16  16  16  16  16   4
#     4  10  19  34  56  86 117 152 193 244 305 356
#     4   9  18  32  54  86 120 153 193 248 311 369
#     4  11  25  39  55  80 118 161 198 241 297 361
#     4  11  22  36  58  86 117 152 200 250 294 348
#     4  11  22  37  61  86 115 156 205 247 298 360
#     4   9  17  31  53  84 122 155 189 244 314 373
#     4  12  22  36  56  82 118 156 200 245 289 353
#     4  12  28  36  54  90 124 160 210 244 294 364
#
# _framework density 20.463048000000001
#
# number of rings (size 3 to 8) (size 9 to 14) (size 15 to 20)
#    0.000    1.517    4.138    1.655    1.931    2.759 
#    0.000    4.138    0.000    0.000    1.793    2.897 
#    0.000    0.000    0.000    0.000    0.000    0.000 
#
# Total GULP energy -323262.342031 kJ/mol
# GULP energy per Si atom -5573.488656 kJ/mol
# Density = 2.041647 g / cm^3
# Si number density = 20.463048 Si / 1000 Ang^3
#
#
#
# Elastic Constant Matrix: (Units=GPa)
#
#
# Indices 1 2 3 4 5 6 
#
# 1 62.3962 38.8329 12.2362 0.0000 0.0000 0.0000
# 2 38.8329 119.5811 13.6167 0.0000 0.0000 0.0000
# 3 12.2362 13.6167 35.4147 0.0000 0.0000 0.0000
# 4 0.0000 0.0000 0.0000 30.9573 0.0000 0.0000
# 5 0.0000 0.0000 0.0000 0.0000 26.5893 0.0000
# 6 0.0000 0.0000 0.0000 0.0000 0.0000 35.1852
#
#
#
# Elastic Compliance Matrix: (Units=1/GPa)
#
#
# Indices 1 2 3 4 5 6 
#
# 1 0.020841 -0.006220 -0.004809 0.000000 0.000000 0.000000
# 2 -0.006220 0.010602 -0.001927 0.000000 0.000000 0.000000
# 3 -0.004809 -0.001927 0.030639 0.000000 0.000000 0.000000
# 4 0.000000 0.000000 0.000000 0.032303 0.000000 0.000000
# 5 0.000000 0.000000 0.000000 0.000000 0.037609 0.000000
# 6 0.000000 0.000000 0.000000 0.000000 0.000000 0.028421
#
#
# Mechanical properties :
#
#
# Convention : Reuss Voigt Hill
#
# Bulk Modulus (GPa) = 27.64789 38.52929 33.08859
# Shear Modulus (GPa) = 25.20355 28.72677 26.96516
#
# Velocity S-wave (km/s) = 3.51331 3.75085 3.63402
# Velocity P-wave (km/s) = 5.47707 6.13417 5.81491
#
# Compressibility (1/GPa) = 0.03616913
#
# Stress axis : x y z
#
# Youngs Moduli (GPa) = 47.98235 94.32208 32.63767
#
# Poissons Ratio (x) = 0.58671 0.15696
# Poissons Ratio (y) = 0.29847 0.06290
# Poissons Ratio (z) = 0.23075 0.18178
#
# Static dielectric constant tensor:
#      x y z
#    x 1.729630 0.000000 0.000000 
#    y 0.000000 1.785860 0.000000 
#    z 0.000000 0.000000 1.727660 
# 
# From -- ./inp_files/33974.got.cif
#   From: 2010.05.17/outbox.cif.g08.bks.cpg/sg72_17_cif.got.tgz:33974.got - 2010.06.03 17:03:01.
