data_PCOD9526525
_publ_section_title
;
Structure prediction by ZEFSAII (Michael W. Deem and Ramdas Pophale) SiO2 
 PCOD9526525
Probable space group: I B A M
;
_chemical_formula_sum "Si O2"
_cell_formula_units_Z 116
_cell_length_a 25.185406
_cell_length_b 25.043172
_cell_length_c 8.726770
_cell_angle_alpha 90.000000
_cell_angle_beta 90.000000
_cell_angle_gamma 90.000000
_cell_volume 5504.169793
_symmetry_space_group_name_H-M "I B A M"
_symmetry_group_IT_number 72
_symmetry_cell_setting 'orthorhombic'
loop_
_space_group_symop_operation_xyz
x,y,z
-x,-y,z
x,-y,1/2-z
-x,y,1/2-z
-x,-y,-z
x,y,-z
-x,y,1/2+z
x,-y,1/2+z
1/2+x,1/2+y,1/2+z
1/2-x,1/2-y,1/2+z
1/2+x,1/2-y,-z
1/2-x,1/2+y,-z
1/2-x,1/2-y,1/2-z
1/2+x,1/2+y,1/2-z
1/2-x,1/2+y,z
1/2+x,1/2-y,z
loop_
_atom_site_type_symbol
_atom_site_label
_atom_site_fract_x
_atom_site_fract_y
_atom_site_fract_z
Si Si1 0.500000 0.500000 0.750000
Si Si2 0.361412 0.775394 0.817759
Si Si3 0.056212 0.196316 0.318262
Si Si4 0.557346 0.858409 0.177957
Si Si5 0.695085 0.556803 0.184283
Si Si6 0.916186 0.085094 0.327929
Si Si7 0.278548 0.142241 0.682737
Si Si8 0.358024 0.057509 0.177187
O O1 0.460557 0.539611 0.836681
O O2 0.389645 0.725123 0.738312
O O3 0.404586 0.820770 0.777181
O O4 0.305160 0.801659 0.761797
O O5 0.358101 0.766480 0.000000
O O6 0.052824 0.199974 0.500000
O O7 0.061501 0.135572 0.263315
O O8 0.000000 0.218108 0.250000
O O9 0.500000 0.858106 0.250000
O O10 0.583604 0.916757 0.180538
O O11 0.557408 0.840116 0.000000
O O12 0.716627 0.500000 0.250000
O O13 0.635186 0.562762 0.241759
O O14 0.725243 0.611554 0.235366
O O15 0.697805 0.553847 0.000000
O O16 0.901620 0.101869 0.500000
O O17 0.274321 0.148195 0.500000
O O18 0.321359 0.097269 0.726679
O O19 0.356703 0.000000 0.250000
O O20 0.340137 0.057038 0.000000
#
# Coordination Sequence:
#
# PCOD9526525 Si02
#       8
#     4  16  16  16  16  16  16  16
#     4  12  26  44  76 102 142 172 214 252 310 364
#     4  10  20  38  62  87 118 158 207 260 316 372
#     4  12  25  42  65  95 131 169 214 264 317 380
#     4  10  20  33  49  73 104 143 191 245 309 374
#     4  11  23  40  63  95 132 169 214 264 317 380
#     4  12  26  44  69 101 135 173 214 258 314 375
#     4   9  20  38  61  87 118 159 206 260 316 371
#     4  10  20  32  49  73 104 143 191 247 307 374
#
# _framework density 21.074932
#
# number of rings (size 3 to 8) (size 9 to 14) (size 15 to 20)
#    0.000    1.379    1.379    4.345    0.000    5.793 
#    0.000    2.069    0.000    0.000    0.000    0.000 
#    0.000    0.000    0.000    0.000    0.000    0.000 
#
# Total GULP energy -323638.649404 kJ/mol
# GULP energy per Si atom -5579.976714 kJ/mol
# Density = 2.102696 g / cm^3
# Si number density = 21.074932 Si / 1000 Ang^3
#
#
#
# Elastic Constant Matrix: (Units=GPa)
#
#
# Indices 1 2 3 4 5 6 
#
# 1 94.5523 36.1528 14.6573 0.0000 0.0000 0.0000
# 2 36.1528 94.2390 20.1457 0.0000 0.0000 0.0000
# 3 14.6573 20.1457 60.5628 0.0000 0.0000 0.0000
# 4 0.0000 0.0000 0.0000 -20.6652 0.0000 0.0000
# 5 0.0000 0.0000 0.0000 0.0000 -5.6365 0.0000
# 6 0.0000 0.0000 0.0000 0.0000 0.0000 33.3074
#
#
#
# Elastic Compliance Matrix: (Units=1/GPa)
#
#
# Indices 1 2 3 4 5 6 
#
# 1 0.012527 -0.004476 -0.001543 0.000000 0.000000 0.000000
# 2 -0.004476 0.013023 -0.003249 0.000000 0.000000 0.000000
# 3 -0.001543 -0.003249 0.017966 0.000000 0.000000 0.000000
# 4 0.000000 0.000000 0.000000 -0.048391 0.000000 0.000000
# 5 0.000000 0.000000 0.000000 0.000000 -0.177416 0.000000
# 6 0.000000 0.000000 0.000000 0.000000 0.000000 0.030023
#
#
# Mechanical properties :
#
#
# Convention : Reuss Voigt Hill
#
# Bulk Modulus (GPa) = 40.03094 43.47395 41.75244
# Shear Modulus (GPa) = -39.87057 13.29436 -13.28810
#
# Velocity S-wave (km/s) = -4.35426 2.51433 -2.51373
# Velocity P-wave (km/s) = 2.49872 5.39464 3.38072
#
# Compressibility (1/GPa) = 0.02498068
#
# Stress axis : x y z
#
# Youngs Moduli (GPa) = 79.82965 76.78815 55.66112
#
# Poissons Ratio (x) = 0.34369 0.08588
# Poissons Ratio (y) = 0.35730 0.18083
# Poissons Ratio (z) = 0.12317 0.24946
#
# Static dielectric constant tensor:
#      x y z
#    x 1.787140 0.000000 0.000000 
#    y 0.000000 1.784630 0.000000 
#    z 0.000000 0.000000 1.735490 
# 
# From -- ./inp_files/7250.got.cif
#   From: 2010.05.17/outbox.cif.g08.bks.cpg/sg72_4_cif.got.tgz:7250.got - 2010.06.03 17:03:01.
