data_PCOD9526738
_publ_section_title
;
Structure prediction by ZEFSAII (Michael W. Deem and Ramdas Pophale) SiO2 
 PCOD9526738
Probable space group: I B A M
;
_chemical_formula_sum "Si O2"
_cell_formula_units_Z 112
_cell_length_a 13.386291
_cell_length_b 12.579678
_cell_length_c 29.009864
_cell_angle_alpha 90.000000
_cell_angle_beta 90.000000
_cell_angle_gamma 90.000000
_cell_volume 4885.122732
_symmetry_space_group_name_H-M "I B A M"
_symmetry_group_IT_number 72
_symmetry_cell_setting 'orthorhombic'
loop_
_space_group_symop_operation_xyz
x,y,z
-x,-y,z
x,-y,1/2-z
-x,y,1/2-z
-x,-y,-z
x,y,-z
-x,y,1/2+z
x,-y,1/2+z
1/2+x,1/2+y,1/2+z
1/2-x,1/2-y,1/2+z
1/2+x,1/2-y,-z
1/2-x,1/2+y,-z
1/2-x,1/2-y,1/2-z
1/2+x,1/2+y,1/2-z
1/2-x,1/2+y,z
1/2+x,1/2-y,z
loop_
_atom_site_type_symbol
_atom_site_label
_atom_site_fract_x
_atom_site_fract_y
_atom_site_fract_z
Si Si1 0.034935 0.122455 0.551160
Si Si2 0.121418 0.687536 0.300301
Si Si3 0.771125 0.478880 0.641056
Si Si4 0.882833 0.516826 0.550725
Si Si5 0.875397 0.151340 0.376245
Si Si6 0.781337 0.742248 0.551698
Si Si7 0.099497 0.598598 0.788123
O O1 0.008011 0.166579 0.500000
O O2 0.150506 0.153518 0.556904
O O3 0.975631 0.165323 0.594732
O O4 0.000000 0.000000 0.549349
O O5 0.208415 0.621046 0.326010
O O6 0.114577 0.797236 0.326550
O O7 0.134635 0.692712 0.245437
O O8 0.011920 0.628163 0.305750
O O9 0.828563 0.462094 0.593241
O O10 0.664355 0.530750 0.630001
O O11 0.830786 0.570840 0.669545
O O12 0.849032 0.479333 0.500000
O O13 0.856970 0.641559 0.553073
O O14 0.000000 0.500000 0.554458
O O15 0.795507 0.213428 0.408326
O O16 0.736306 0.740969 0.500000
O O17 0.105827 0.500000 0.750000
#
# Coordination Sequence:
#
# PCOD9526738 Si02
#       7
#    16  16  16  16  16  16  16
#     4  10  23  43  63  81 121 175 210 244 304 376
#     4  10  20  35  59  87 115 151 200 256 305 357
#     4  10  20  34  55  83 119 156 194 248 299 361
#     4   9  17  29  50  83 116 145 183 242 309 348
#     4  11  24  34  60  92 118 154 210 254 307 363
#     4   9  20  39  57  81 119 160 206 251 292 359
#     4   9  18  38  63  85 115 154 199 250 316 383
#
# _framework density 22.926753999999999
#
# number of rings (size 3 to 8) (size 9 to 14) (size 15 to 20)
#    0.000    2.286    0.000    4.286    8.000    1.143 
#    0.000    0.714    0.000    0.000    0.000    0.000 
#    0.000    0.000    0.000    0.000    0.000    0.000 
#
# Total GULP energy -312479.936102 kJ/mol
# GULP energy per Si atom -5579.998859 kJ/mol
# Density = 2.287457 g / cm^3
# Si number density = 22.926754 Si / 1000 Ang^3
#
#
#
# Elastic Constant Matrix: (Units=GPa)
#
#
# Indices 1 2 3 4 5 6 
#
# 1 53.2326 2.8620 25.4945 0.0000 0.0000 0.0000
# 2 2.8620 46.0532 10.7923 0.0000 0.0000 0.0000
# 3 25.4945 10.7923 112.9863 0.0000 0.0000 0.0000
# 4 0.0000 0.0000 0.0000 32.3134 0.0000 0.0000
# 5 0.0000 0.0000 0.0000 0.0000 25.8514 0.0000
# 6 0.0000 0.0000 0.0000 0.0000 0.0000 25.6797
#
#
#
# Elastic Compliance Matrix: (Units=1/GPa)
#
#
# Indices 1 2 3 4 5 6 
#
# 1 0.021063 -0.000200 -0.004734 0.000000 0.000000 0.000000
# 2 -0.000200 0.022213 -0.002077 0.000000 0.000000 0.000000
# 3 -0.004734 -0.002077 0.010117 0.000000 0.000000 0.000000
# 4 0.000000 0.000000 0.000000 0.030947 0.000000 0.000000
# 5 0.000000 0.000000 0.000000 0.000000 0.038683 0.000000
# 6 0.000000 0.000000 0.000000 0.000000 0.000000 0.038941
#
#
# Mechanical properties :
#
#
# Convention : Reuss Voigt Hill
#
# Bulk Modulus (GPa) = 25.39788 32.28550 28.84169
# Shear Modulus (GPa) = 26.43979 28.31045 27.37512
#
# Velocity S-wave (km/s) = 3.39961 3.51782 3.45922
# Velocity P-wave (km/s) = 5.14895 5.53287 5.34436
#
# Compressibility (1/GPa) = 0.03937336
#
# Stress axis : x y z
#
# Youngs Moduli (GPa) = 47.47596 45.01852 98.84237
#
# Poissons Ratio (x) = 0.00899 0.46789
# Poissons Ratio (y) = 0.00948 0.20527
# Poissons Ratio (z) = 0.22474 0.09349
#
# Static dielectric constant tensor:
#      x y z
#    x 1.848810 0.000000 0.000000 
#    y 0.000000 1.977260 0.000000 
#    z 0.000000 0.000000 1.858990 
# 
# From -- ./inp_files/48716.got.cif
#   From: 2010.05.17/outbox.cif.g08.bks.cpg/sg72_25_cif.got.tgz:48716.got - 2010.06.03 17:03:01.
