data_PCOD9526037
_publ_section_title
;
Structure prediction by ZEFSAII (Michael W. Deem and Ramdas Pophale) SiO2 
 PCOD9526037
Probable space group: I B A M
;
_chemical_formula_sum "Si O2"
_cell_formula_units_Z 96
_cell_length_a 9.908161
_cell_length_b 21.089748
_cell_length_c 26.810060
_cell_angle_alpha 90.000000
_cell_angle_beta 90.000000
_cell_angle_gamma 90.000000
_cell_volume 5602.246723
_symmetry_space_group_name_H-M "I B A M"
_symmetry_group_IT_number 72
_symmetry_cell_setting 'orthorhombic'
loop_
_space_group_symop_operation_xyz
x,y,z
-x,-y,z
x,-y,1/2-z
-x,y,1/2-z
-x,-y,-z
x,y,-z
-x,y,1/2+z
x,-y,1/2+z
1/2+x,1/2+y,1/2+z
1/2-x,1/2-y,1/2+z
1/2+x,1/2-y,-z
1/2-x,1/2+y,-z
1/2-x,1/2-y,1/2-z
1/2+x,1/2+y,1/2-z
1/2-x,1/2+y,z
1/2+x,1/2-y,z
loop_
_atom_site_type_symbol
_atom_site_label
_atom_site_fract_x
_atom_site_fract_y
_atom_site_fract_z
Si Si1 0.851825 0.439952 0.775299
Si Si2 0.597840 0.300488 0.940149
Si Si3 0.852052 0.298610 0.775091
Si Si4 0.106147 0.700025 0.106503
Si Si5 0.606262 0.053587 0.606939
Si Si6 0.399415 0.445007 0.440003
O O1 0.780555 0.500000 0.750000
O O2 0.794384 0.369939 0.767799
O O3 0.869740 0.452054 0.833746
O O4 0.000000 0.436323 0.750000
O O5 0.751180 0.291908 0.921508
O O6 0.501491 0.249372 0.914586
O O7 0.558334 0.373099 0.926393
O O8 0.591637 0.294247 0.000000
O O9 0.750000 0.250000 0.750000
O O10 0.870272 0.289937 0.834463
O O11 0.000000 0.293890 0.750000
O O12 0.061393 0.626604 0.098436
O O13 0.749248 0.044629 0.580266
O O14 0.500000 0.000000 0.591402
O O15 0.500000 0.500000 0.422234
O O16 0.395275 0.447338 0.500000
#
# Coordination Sequence:
#
# PCOD9526037 Si02
#       6
#    16  16  16  16  16  16
#     4   9  16  32  55  77 103 138 178 211 263 327
#     4  10  20  37  57  77 108 144 178 224 271 324
#     4  10  20  34  54  78 109 143 173 220 271 315
#     4  10  21  35  54  82 110 138 183 222 268 326
#     4  10  19  33  57  82 104 136 181 231 263 307
#     4   9  20  38  54  74 109 147 175 214 279 332
#
# _framework density 17.135981999999998
#
# number of rings (size 3 to 8) (size 9 to 14) (size 15 to 20)
#    0.000    2.333    1.667    1.500    0.000    2.333 
#    3.000    1.667    0.000    0.000    0.000    0.000 
#    0.000    0.000    0.000    0.000    0.000    0.000 
#
# Total GULP energy -267558.351520 kJ/mol
# GULP energy per Si atom -5574.132323 kJ/mol
# Density = 1.709698 g / cm^3
# Si number density = 17.135982 Si / 1000 Ang^3
#
#
#
# Elastic Constant Matrix: (Units=GPa)
#
#
# Indices 1 2 3 4 5 6 
#
# 1 74.2059 94.3803 31.6451 0.0000 0.0000 0.0000
# 2 94.3803 191.3378 61.6813 0.0000 0.0000 0.0000
# 3 31.6451 61.6813 53.2834 0.0000 0.0000 0.0000
# 4 0.0000 0.0000 0.0000 25.4547 0.0000 0.0000
# 5 0.0000 0.0000 0.0000 0.0000 -18.0675 0.0000
# 6 0.0000 0.0000 0.0000 0.0000 0.0000 33.4283
#
#
#
# Elastic Compliance Matrix: (Units=1/GPa)
#
#
# Indices 1 2 3 4 5 6 
#
# 1 0.036223 -0.017441 -0.001323 0.000000 0.000000 0.000000
# 2 -0.017441 0.016736 -0.009015 0.000000 0.000000 0.000000
# 3 -0.001323 -0.009015 0.029989 0.000000 0.000000 0.000000
# 4 0.000000 0.000000 0.000000 0.039285 0.000000 0.000000
# 5 0.000000 0.000000 0.000000 0.000000 -0.055348 0.000000
# 6 0.000000 0.000000 0.000000 0.000000 0.000000 0.029915
#
#
# Mechanical properties :
#
#
# Convention : Reuss Voigt Hill
#
# Bulk Modulus (GPa) = 36.51014 77.13786 56.82400
# Shear Modulus (GPa) = 30.96210 16.90446 23.93328
#
# Velocity S-wave (km/s) = 4.25531 3.14425 3.74126
# Velocity P-wave (km/s) = 6.74507 7.63509 7.20384
#
# Compressibility (1/GPa) = 0.02738965
#
# Stress axis : x y z
#
# Youngs Moduli (GPa) = 27.60674 59.75289 33.34549
#
# Poissons Ratio (x) = 1.04216 0.04411
# Poissons Ratio (y) = 0.48149 0.30061
# Poissons Ratio (z) = 0.03652 0.53867
#
# Static dielectric constant tensor:
#      x y z
#    x 1.535150 0.000000 0.000000 
#    y 0.000000 1.622360 0.000000 
#    z 0.000000 0.000000 1.569250 
# 
# From -- ./inp_files/48119.got.cif
#   From: 2010.05.17/outbox.cif.g08.bks.cpg/sg72_25_cif.got.tgz:48119.got - 2010.06.03 17:03:01.
