data_PCOD9526954
_publ_section_title
;
Structure prediction by ZEFSAII (Michael W. Deem and Ramdas Pophale) SiO2 
 PCOD9526954
Probable space group: I B A M
;
_chemical_formula_sum "Si O2"
_cell_formula_units_Z 40
_cell_length_a 16.500593
_cell_length_b 10.129421
_cell_length_c 9.878211
_cell_angle_alpha 90.000000
_cell_angle_beta 90.000000
_cell_angle_gamma 90.000000
_cell_volume 1651.058542
_symmetry_space_group_name_H-M "I B A M"
_symmetry_group_IT_number 72
_symmetry_cell_setting 'orthorhombic'
loop_
_space_group_symop_operation_xyz
x,y,z
-x,-y,z
x,-y,1/2-z
-x,y,1/2-z
-x,-y,-z
x,y,-z
-x,y,1/2+z
x,-y,1/2+z
1/2+x,1/2+y,1/2+z
1/2-x,1/2-y,1/2+z
1/2+x,1/2-y,-z
1/2-x,1/2+y,-z
1/2-x,1/2-y,1/2-z
1/2+x,1/2+y,1/2-z
1/2-x,1/2+y,z
1/2+x,1/2-y,z
loop_
_atom_site_type_symbol
_atom_site_label
_atom_site_fract_x
_atom_site_fract_y
_atom_site_fract_z
Si Si1 0.339668 0.291507 0.500000
Si Si2 0.147985 0.089938 0.500000
Si Si3 0.316174 0.951207 0.500000
Si Si4 0.405442 0.801462 0.719738
O O1 0.382439 0.437402 0.500000
O O2 0.245685 0.327615 0.500000
O O3 0.363881 0.217933 0.635911
O O4 0.116054 0.170956 0.370154
O O5 0.246066 0.062184 0.500000
O O6 0.371889 0.922346 0.629358
O O7 0.500000 0.813141 0.750000
#
# Coordination Sequence:
#
# PCOD9526954 Si02
#       4
#     8   8   8  16
#     4  10  20  35  60  87 130 177 213 265 335 401
#     4   9  22  36  59  92 135 171 214 265 341 399
#     4   9  22  39  56  90 133 178 213 262 338 408
#     4  11  21  38  62  96 130 166 222 284 328 378
#
# _framework density 24.226880999999999
#
# number of rings (size 3 to 8) (size 9 to 14) (size 15 to 20)
#    1.200    0.800    0.000    4.800    0.000    4.800 
#    0.000    0.000    0.000    0.000    0.000  106.400 
#    0.000    0.000    0.000    0.000    0.000    0.000 
#
# Total GULP energy -111805.435256 kJ/mol
# GULP energy per Si atom -5590.271763 kJ/mol
# Density = 2.417174 g / cm^3
# Si number density = 24.226881 Si / 1000 Ang^3
#
#
#
# Elastic Constant Matrix: (Units=GPa)
#
#
# Indices 1 2 3 4 5 6 
#
# 1 208.3134 35.2759 80.3944 0.0000 0.0000 0.0000
# 2 35.2759 164.2504 48.5350 0.0000 0.0000 0.0000
# 3 80.3944 48.5350 229.5451 0.0000 0.0000 0.0000
# 4 0.0000 0.0000 0.0000 50.2289 0.0000 0.0000
# 5 0.0000 0.0000 0.0000 0.0000 60.5694 0.0000
# 6 0.0000 0.0000 0.0000 0.0000 0.0000 40.9501
#
#
#
# Elastic Compliance Matrix: (Units=1/GPa)
#
#
# Indices 1 2 3 4 5 6 
#
# 1 0.005618 -0.000667 -0.001827 0.000000 0.000000 0.000000
# 2 -0.000667 0.006573 -0.001156 0.000000 0.000000 0.000000
# 3 -0.001827 -0.001156 0.005241 0.000000 0.000000 0.000000
# 4 0.000000 0.000000 0.000000 0.019909 0.000000 0.000000
# 5 0.000000 0.000000 0.000000 0.000000 0.016510 0.000000
# 6 0.000000 0.000000 0.000000 0.000000 0.000000 0.024420
#
#
# Mechanical properties :
#
#
# Convention : Reuss Voigt Hill
#
# Bulk Modulus (GPa) = 98.69238 103.39106 101.04172
# Shear Modulus (GPa) = 56.21242 59.54325 57.87784
#
# Velocity S-wave (km/s) = 4.82212 4.96293 4.89303
# Velocity P-wave (km/s) = 8.47520 8.69539 8.58600
#
# Compressibility (1/GPa) = 0.01013249
#
# Stress axis : x y z
#
# Youngs Moduli (GPa) = 177.98717 152.13389 190.81373
#
# Poissons Ratio (x) = 0.10145 0.34857
# Poissons Ratio (y) = 0.11869 0.22063
# Poissons Ratio (z) = 0.32514 0.17591
#
# Static dielectric constant tensor:
#      x y z
#    x 1.873500 0.000000 0.000000 
#    y 0.000000 2.104110 0.000000 
#    z 0.000000 0.000000 1.869500 
# 
# From -- ./inp_files/2884.got.cif
#   From: 2010.05.17/outbox.cif.g08.bks.cpg/sg72_2_cif.got.tgz:2884.got - 2010.06.03 17:03:01.
