data_PCOD9526202
_publ_section_title
;
Structure prediction by ZEFSAII (Michael W. Deem and Ramdas Pophale) SiO2 
 PCOD9526202
Probable space group: I B A M
;
_chemical_formula_sum "Si O2"
_cell_formula_units_Z 116
_cell_length_a 29.712603
_cell_length_b 20.899482
_cell_length_c 9.709373
_cell_angle_alpha 90.000000
_cell_angle_beta 90.000000
_cell_angle_gamma 90.000000
_cell_volume 6029.307139
_symmetry_space_group_name_H-M "I B A M"
_symmetry_group_IT_number 72
_symmetry_cell_setting 'orthorhombic'
loop_
_space_group_symop_operation_xyz
x,y,z
-x,-y,z
x,-y,1/2-z
-x,y,1/2-z
-x,-y,-z
x,y,-z
-x,y,1/2+z
x,-y,1/2+z
1/2+x,1/2+y,1/2+z
1/2-x,1/2-y,1/2+z
1/2+x,1/2-y,-z
1/2-x,1/2+y,-z
1/2-x,1/2-y,1/2-z
1/2+x,1/2+y,1/2-z
1/2-x,1/2+y,z
1/2+x,1/2-y,z
loop_
_atom_site_type_symbol
_atom_site_label
_atom_site_fract_x
_atom_site_fract_y
_atom_site_fract_z
Si Si1 0.038854 0.732629 0.837464
Si Si2 0.847932 0.564518 0.339631
Si Si3 0.224703 0.797002 0.849279
Si Si4 0.247837 0.075998 0.219167
Si Si5 0.877684 0.172679 0.156119
Si Si6 0.146756 0.061943 0.153520
Si Si7 0.000000 0.500000 0.750000
Si Si8 0.068456 0.610440 0.663054
O O1 0.083511 0.775302 0.834899
O O2 0.046950 0.669271 0.746360
O O3 0.000000 0.767631 0.750000
O O4 0.028147 0.719682 0.000000
O O5 0.844649 0.500000 0.250000
O O6 0.862104 0.555178 0.500000
O O7 0.796912 0.591599 0.342732
O O8 0.885545 0.600763 0.250451
O O9 0.250000 0.750000 0.750000
O O10 0.241005 0.870757 0.836885
O O11 0.171327 0.795934 0.825905
O O12 0.234293 0.772802 0.000000
O O13 0.199642 0.082219 0.144752
O O14 0.249585 0.000000 0.250000
O O15 0.880080 0.117837 0.269878
O O16 0.877950 0.145189 0.000000
O O17 0.145122 0.000000 0.250000
O O18 0.130590 0.048930 0.000000
O O19 0.034809 0.548819 0.674049
O O20 0.076197 0.622541 0.500000
#
# Coordination Sequence:
#
# PCOD9526202 Si02
#       8
#    16  16  16  16  16  16   4  16
#     4  11  24  43  66  91 120 156 199 252 310 369
#     4  11  23  38  57  83 117 154 197 248 307 363
#     4  10  22  39  59  87 122 164 208 254 307 366
#     4   9  21  38  58  85 120 165 207 256 302 361
#     4   9  21  41  61  86 123 163 202 248 304 363
#     4  10  19  34  61  94 126 163 205 248 294 354
#     4  12  26  44  68  86 114 152 196 264 314 368
#     4  12  26  42  63  87 114 151 200 255 313 372
#
# _framework density 19.239357999999999
#
# number of rings (size 3 to 8) (size 9 to 14) (size 15 to 20)
#    0.000    1.655    1.379    2.276    1.931   11.034 
#    0.000    0.000    0.000    0.414    0.000    2.897 
#    0.000    0.000    0.000    0.000    0.000    0.000 
#
# Total GULP energy -322957.251994 kJ/mol
# GULP energy per Si atom -5568.228483 kJ/mol
# Density = 1.919557 g / cm^3
# Si number density = 19.239358 Si / 1000 Ang^3
#
#
#
# Elastic Constant Matrix: (Units=GPa)
#
#
# Indices 1 2 3 4 5 6 
#
# 1 90.9435 37.5002 56.1728 0.0000 0.0000 0.0000
# 2 37.5002 61.3803 58.8881 0.0000 0.0000 0.0000
# 3 56.1728 58.8881 186.1940 0.0000 0.0000 0.0000
# 4 0.0000 0.0000 0.0000 26.5485 0.0000 0.0000
# 5 0.0000 0.0000 0.0000 0.0000 40.4206 0.0000
# 6 0.0000 0.0000 0.0000 0.0000 0.0000 20.1894
#
#
#
# Elastic Compliance Matrix: (Units=1/GPa)
#
#
# Indices 1 2 3 4 5 6 
#
# 1 0.015411 -0.007113 -0.002400 0.000000 0.000000 0.000000
# 2 -0.007113 0.026672 -0.006290 0.000000 0.000000 0.000000
# 3 -0.002400 -0.006290 0.008084 0.000000 0.000000 0.000000
# 4 0.000000 0.000000 0.000000 0.037667 0.000000 0.000000
# 5 0.000000 0.000000 0.000000 0.000000 0.024740 0.000000
# 6 0.000000 0.000000 0.000000 0.000000 0.000000 0.049531
#
#
# Mechanical properties :
#
#
# Convention : Reuss Voigt Hill
#
# Bulk Modulus (GPa) = 53.87344 71.51557 62.69450
# Shear Modulus (GPa) = 25.01288 29.82880 27.42084
#
# Velocity S-wave (km/s) = 3.60959 3.94179 3.77934
# Velocity P-wave (km/s) = 6.74052 7.61375 7.19040
#
# Compressibility (1/GPa) = 0.01856202
#
# Stress axis : x y z
#
# Youngs Moduli (GPa) = 64.88817 37.49265 123.70213
#
# Poissons Ratio (x) = 0.26669 0.29685
# Poissons Ratio (y) = 0.46156 0.77804
# Poissons Ratio (z) = 0.15571 0.23581
#
# Static dielectric constant tensor:
#      x y z
#    x 1.712680 0.000000 0.000000 
#    y 0.000000 1.743630 0.000000 
#    z 0.000000 0.000000 1.691010 
# 
# From -- ./inp_files/9382.got.cif
#   From: 2010.05.17/outbox.cif.g08.bks.cpg/sg72_5_cif.got.tgz:9382.got - 2010.06.03 17:03:01.
