data_PCOD9526224
_publ_section_title
;
Structure prediction by ZEFSAII (Michael W. Deem and Ramdas Pophale) SiO2 
 PCOD9526224
Probable space group: I B A M
;
_chemical_formula_sum "Si O2"
_cell_formula_units_Z 80
_cell_length_a 22.911128
_cell_length_b 9.118520
_cell_length_c 16.356886
_cell_angle_alpha 90.000000
_cell_angle_beta 90.000000
_cell_angle_gamma 90.000000
_cell_volume 3417.208308
_symmetry_space_group_name_H-M "I B A M"
_symmetry_group_IT_number 72
_symmetry_cell_setting 'orthorhombic'
loop_
_space_group_symop_operation_xyz
x,y,z
-x,-y,z
x,-y,1/2-z
-x,y,1/2-z
-x,-y,-z
x,y,-z
-x,y,1/2+z
x,-y,1/2+z
1/2+x,1/2+y,1/2+z
1/2-x,1/2-y,1/2+z
1/2+x,1/2-y,-z
1/2-x,1/2+y,-z
1/2-x,1/2-y,1/2-z
1/2+x,1/2+y,1/2-z
1/2-x,1/2+y,z
1/2+x,1/2-y,z
loop_
_atom_site_type_symbol
_atom_site_label
_atom_site_fract_x
_atom_site_fract_y
_atom_site_fract_z
Si Si1 0.064063 0.557562 0.343852
Si Si2 0.570681 0.332447 0.748712
Si Si3 0.132930 0.309304 0.589710
Si Si4 0.227434 0.618385 0.307903
Si Si5 0.771993 0.131373 0.408654
O O1 0.065894 0.500000 0.250000
O O2 0.078909 0.727481 0.327512
O O3 0.108911 0.473841 0.400702
O O4 0.000000 0.500000 0.372078
O O5 0.590445 0.500000 0.750000
O O6 0.500000 0.332270 0.750000
O O7 0.602206 0.269337 0.667081
O O8 0.116915 0.248556 0.500000
O O9 0.202915 0.324188 0.592231
O O10 0.194628 0.500000 0.250000
O O11 0.250000 0.750000 0.250000
O O12 0.199220 0.718700 0.377358
O O13 0.274801 0.510883 0.350327
O O14 0.789291 0.092005 0.500000
#
# Coordination Sequence:
#
# PCOD9526224 Si02
#       5
#    16  16  16  16  16
#     4   9  15  32  53  75 101 142 187 219 270 323
#     4  10  19  35  55  77 108 145 182 227 283 332
#     4  10  21  35  55  82 111 144 191 234 269 328
#     4   9  19  34  55  81 106 140 184 228 273 325
#     4  10  20  36  56  81 113 148 181 228 286 336
#
# _framework density 23.410924000000001
#
# number of rings (size 3 to 8) (size 9 to 14) (size 15 to 20)
#    0.000    2.400    4.000    0.600    0.000    8.400 
#    0.000    5.000    0.000    9.600    0.000    0.000 
#    0.000    0.000    0.000    0.000    0.000    0.000 
#
# Total GULP energy -222780.074754 kJ/mol
# GULP energy per Si atom -5569.501869 kJ/mol
# Density = 2.335764 g / cm^3
# Si number density = 23.410924 Si / 1000 Ang^3
#
#
#
# Elastic Constant Matrix: (Units=GPa)
#
#
# Indices 1 2 3 4 5 6 
#
# 1 109.8041 30.2021 27.3411 0.0000 0.0000 0.0000
# 2 30.2021 191.8707 50.2694 0.0000 0.0000 0.0000
# 3 27.3411 50.2694 110.4904 0.0000 0.0000 0.0000
# 4 0.0000 0.0000 0.0000 28.1726 0.0000 0.0000
# 5 0.0000 0.0000 0.0000 0.0000 13.4605 0.0000
# 6 0.0000 0.0000 0.0000 0.0000 0.0000 16.8910
#
#
#
# Elastic Compliance Matrix: (Units=1/GPa)
#
#
# Indices 1 2 3 4 5 6 
#
# 1 0.009884 -0.001039 -0.001973 0.000000 0.000000 0.000000
# 2 -0.001039 0.006026 -0.002485 0.000000 0.000000 0.000000
# 3 -0.001973 -0.002485 0.010669 0.000000 0.000000 0.000000
# 4 0.000000 0.000000 0.000000 0.035496 0.000000 0.000000
# 5 0.000000 0.000000 0.000000 0.000000 0.074291 0.000000
# 6 0.000000 0.000000 0.000000 0.000000 0.000000 0.059203
#
#
# Mechanical properties :
#
#
# Convention : Reuss Voigt Hill
#
# Bulk Modulus (GPa) = 64.15917 69.75450 66.95683
# Shear Modulus (GPa) = 23.61178 31.99499 27.80339
#
# Velocity S-wave (km/s) = 3.17926 3.70086 3.44993
# Velocity P-wave (km/s) = 6.39860 6.93702 6.67324
#
# Compressibility (1/GPa) = 0.01558624
#
# Stress axis : x y z
#
# Youngs Moduli (GPa) = 101.17149 165.93761 93.72685
#
# Poissons Ratio (x) = 0.17239 0.18494
# Poissons Ratio (y) = 0.10511 0.23288
# Poissons Ratio (z) = 0.19963 0.41231
#
# Static dielectric constant tensor:
#      x y z
#    x 2.037640 0.000000 0.000000 
#    y 0.000000 1.987900 0.000000 
#    z 0.000000 0.000000 2.080660 
# 
# From -- ./inp_files/34186.got.cif
#   From: 2010.05.17/outbox.cif.g08.bks.cpg/sg72_18_cif.got.tgz:34186.got - 2010.06.03 17:03:01.
