data_PCOD9526795
_publ_section_title
;
Structure prediction by ZEFSAII (Michael W. Deem and Ramdas Pophale) SiO2 
 PCOD9526795
Probable space group: I B A M
;
_chemical_formula_sum "Si O2"
_cell_formula_units_Z 88
_cell_length_a 14.331588
_cell_length_b 19.670406
_cell_length_c 14.916121
_cell_angle_alpha 90.000000
_cell_angle_beta 90.000000
_cell_angle_gamma 90.000000
_cell_volume 4204.976145
_symmetry_space_group_name_H-M "I B A M"
_symmetry_group_IT_number 72
_symmetry_cell_setting 'orthorhombic'
loop_
_space_group_symop_operation_xyz
x,y,z
-x,-y,z
x,-y,1/2-z
-x,y,1/2-z
-x,-y,-z
x,y,-z
-x,y,1/2+z
x,-y,1/2+z
1/2+x,1/2+y,1/2+z
1/2-x,1/2-y,1/2+z
1/2+x,1/2-y,-z
1/2-x,1/2+y,-z
1/2-x,1/2-y,1/2-z
1/2+x,1/2+y,1/2-z
1/2-x,1/2+y,z
1/2+x,1/2-y,z
loop_
_atom_site_type_symbol
_atom_site_label
_atom_site_fract_x
_atom_site_fract_y
_atom_site_fract_z
Si Si1 0.411018 0.247602 0.103033
Si Si2 0.581865 0.332111 0.102269
Si Si3 0.752287 0.500000 0.750000
Si Si4 0.891012 0.017714 0.393477
Si Si5 0.219468 0.719041 0.654233
Si Si6 0.106633 0.379668 0.264152
O O1 0.493835 0.293283 0.143375
O O2 0.317240 0.292445 0.106365
O O3 0.397563 0.178563 0.159125
O O4 0.433371 0.230494 0.000000
O O5 0.614564 0.403762 0.139611
O O6 0.664661 0.278429 0.104304
O O7 0.553789 0.348521 0.000000
O O8 0.683086 0.520878 0.831360
O O9 0.821162 0.559958 0.717286
O O10 0.869717 0.011409 0.500000
O O11 0.000000 0.000000 0.380998
O O12 0.250000 0.750000 0.750000
O O13 0.149455 0.658124 0.676395
O O14 0.000000 0.402637 0.250000
#
# Coordination Sequence:
#
# PCOD9526795 Si02
#       6
#    16  16   8  16  16  16
#     4  10  21  38  66  96 124 163 211 266 331 386
#     4  10  20  38  64  91 126 163 204 267 328 377
#     4  12  26  42  66  94 128 184 224 256 324 398
#     4  10  23  44  65  94 134 171 216 271 322 390
#     4  10  20  34  58  89 121 159 201 258 312 370
#     4  11  23  43  61  91 128 169 214 268 313 379
#
# _framework density 20.927586000000002
#
# number of rings (size 3 to 8) (size 9 to 14) (size 15 to 20)
#    0.000    1.636    1.818    3.273    2.545    2.182 
#    6.545    1.818    0.000    2.182    0.000    0.000 
#    0.000    0.000    0.000    0.000    0.000    0.000 
#
# Total GULP energy -245481.233984 kJ/mol
# GULP energy per Si atom -5579.118954 kJ/mol
# Density = 2.087995 g / cm^3
# Si number density = 20.927586 Si / 1000 Ang^3
#
#
#
# Elastic Constant Matrix: (Units=GPa)
#
#
# Indices 1 2 3 4 5 6 
#
# 1 143.6195 13.6883 28.6371 0.0000 0.0000 0.0000
# 2 13.6883 31.6256 8.8102 -0.0001 0.0000 0.0000
# 3 28.6371 8.8102 80.3100 -0.0002 0.0000 0.0000
# 4 0.0000 -0.0001 -0.0002 24.8117 0.0000 0.0000
# 5 0.0000 0.0000 0.0000 0.0000 29.6132 0.0000
# 6 0.0000 0.0000 0.0000 0.0000 0.0000 34.1579
#
#
#
# Elastic Compliance Matrix: (Units=1/GPa)
#
#
# Indices 1 2 3 4 5 6 
#
# 1 0.007705 -0.002651 -0.002457 0.000000 0.000000 0.000000
# 2 -0.002651 0.033529 -0.002733 0.000000 0.000000 0.000000
# 3 -0.002457 -0.002733 0.013628 0.000000 0.000000 0.000000
# 4 0.000000 0.000000 0.000000 0.040304 0.000000 0.000000
# 5 0.000000 0.000000 0.000000 0.000000 0.033769 0.000000
# 6 0.000000 0.000000 0.000000 0.000000 0.000000 0.029276
#
#
# Mechanical properties :
#
#
# Convention : Reuss Voigt Hill
#
# Bulk Modulus (GPa) = 25.52280 39.75850 32.64065
# Shear Modulus (GPa) = 26.74499 31.34451 29.04475
#
# Velocity S-wave (km/s) = 3.57876 3.87429 3.72945
# Velocity P-wave (km/s) = 5.41285 6.24923 5.84602
#
# Compressibility (1/GPa) = 0.03918066
#
# Stress axis : x y z
#
# Youngs Moduli (GPa) = 129.77990 29.82527 73.38039
#
# Poissons Ratio (x) = 0.07906 0.18028
# Poissons Ratio (y) = 0.34400 0.20055
# Poissons Ratio (z) = 0.31884 0.08151
#
# Static dielectric constant tensor:
#      x y z
#    x 1.825560 0.000000 0.000000 
#    y 0.000000 1.774280 0.000000 
#    z 0.000000 0.000000 1.786750 
# 
# From -- ./inp_files/21710.got.cif
#   From: 2010.05.17/outbox.cif.g08.bks.cpg/sg72_11_cif.got.tgz:21710.got - 2010.06.03 17:03:01.
