data_PCOD9526447
_publ_section_title
;
Structure prediction by ZEFSAII (Michael W. Deem and Ramdas Pophale) SiO2 
 PCOD9526447
Probable space group: I B A M
;
_chemical_formula_sum "Si O2"
_cell_formula_units_Z 96
_cell_length_a 28.263121
_cell_length_b 10.357394
_cell_length_c 14.829991
_cell_angle_alpha 90.000000
_cell_angle_beta 90.000000
_cell_angle_gamma 90.000000
_cell_volume 4341.217076
_symmetry_space_group_name_H-M "I B A M"
_symmetry_group_IT_number 72
_symmetry_cell_setting 'orthorhombic'
loop_
_space_group_symop_operation_xyz
x,y,z
-x,-y,z
x,-y,1/2-z
-x,y,1/2-z
-x,-y,-z
x,y,-z
-x,y,1/2+z
x,-y,1/2+z
1/2+x,1/2+y,1/2+z
1/2-x,1/2-y,1/2+z
1/2+x,1/2-y,-z
1/2-x,1/2+y,-z
1/2-x,1/2-y,1/2-z
1/2+x,1/2+y,1/2-z
1/2-x,1/2+y,z
1/2+x,1/2-y,z
loop_
_atom_site_type_symbol
_atom_site_label
_atom_site_fract_x
_atom_site_fract_y
_atom_site_fract_z
Si Si1 0.467164 0.388046 0.896462
Si Si2 0.358566 0.992095 0.109942
Si Si3 0.540528 0.100156 0.389368
Si Si4 0.313428 0.733319 0.105976
Si Si5 0.706001 0.229907 0.609751
Si Si6 0.863003 0.966008 0.648406
O O1 0.500000 0.500000 0.856002
O O2 0.469115 0.244956 0.855611
O O3 0.412342 0.430113 0.897881
O O4 0.484009 0.372807 0.000000
O O5 0.408642 0.047664 0.140821
O O6 0.317625 0.093491 0.133635
O O7 0.345469 0.849343 0.143464
O O8 0.361334 0.988825 0.000000
O O9 0.541922 0.105631 0.500000
O O10 0.500000 0.000000 0.364195
O O11 0.260014 0.736037 0.142279
O O12 0.337279 0.594027 0.112823
O O13 0.308244 0.761343 0.000000
O O14 0.705325 0.238496 0.500000
O O15 0.673339 0.346801 0.643460
O O16 0.875721 0.000000 0.750000
#
# Coordination Sequence:
#
# PCOD9526447 Si02
#       6
#    16  16  16  16  16  16
#     4  10  21  38  63  88 112 150 201 254 301 352
#     4   9  17  31  55  84 113 142 181 246 303 337
#     4   9  17  30  53  86 114 135 175 240 304 348
#     4  10  21  36  61  91 115 148 201 253 289 343
#     4  10  19  38  63  86 115 153 201 250 295 342
#     4  12  25  39  57  86 127 168 195 236 300 368
#
# _framework density 22.113614999999999
#
# number of rings (size 3 to 8) (size 9 to 14) (size 15 to 20)
#    0.000    2.000    1.667    2.500    2.333    3.667 
#    0.000    0.833    0.000    0.000    0.000    0.000 
#    0.000    0.000    0.000    0.000    0.000    0.000 
#
# Total GULP energy -268263.628952 kJ/mol
# GULP energy per Si atom -5588.825603 kJ/mol
# Density = 2.206328 g / cm^3
# Si number density = 22.113615 Si / 1000 Ang^3
#
#
#
# Elastic Constant Matrix: (Units=GPa)
#
#
# Indices 1 2 3 4 5 6 
#
# 1 139.2830 88.2729 -15.3980 0.0000 0.0000 0.0000
# 2 88.2729 172.2763 -24.6007 0.0000 0.0000 0.0000
# 3 -15.3980 -24.6007 41.4633 0.0000 0.0000 0.0000
# 4 0.0000 0.0000 0.0000 -40.6280 0.0000 0.0000
# 5 0.0000 0.0000 0.0000 0.0000 12.9880 0.0000
# 6 0.0000 0.0000 0.0000 0.0000 0.0000 36.1600
#
#
#
# Elastic Compliance Matrix: (Units=1/GPa)
#
#
# Indices 1 2 3 4 5 6 
#
# 1 0.010656 -0.005348 0.000784 0.000000 0.000000 0.000000
# 2 -0.005348 0.009026 0.003369 0.000000 0.000000 0.000000
# 3 0.000784 0.003369 0.026408 0.000000 0.000000 0.000000
# 4 0.000000 0.000000 0.000000 -0.024614 0.000000 0.000000
# 5 0.000000 0.000000 0.000000 0.000000 0.076994 0.000000
# 6 0.000000 0.000000 0.000000 0.000000 0.000000 0.027655
#
#
# Mechanical properties :
#
#
# Convention : Reuss Voigt Hill
#
# Bulk Modulus (GPa) = 22.88305 49.95233 36.41769
# Shear Modulus (GPa) = 34.94525 22.02057 28.48291
#
# Velocity S-wave (km/s) = 3.97956 3.15904 3.59280
# Velocity P-wave (km/s) = 5.61126 5.99534 5.80648
#
# Compressibility (1/GPa) = 0.04370047
#
# Stress axis : x y z
#
# Youngs Moduli (GPa) = 93.84725 110.79172 37.86742
#
# Poissons Ratio (x) = 0.59250 -0.02969
# Poissons Ratio (y) = 0.50188 -0.12758
# Poissons Ratio (z) = -0.07359 -0.37328
#
# Static dielectric constant tensor:
#      x y z
#    x 1.755760 0.000000 0.000000 
#    y 0.000000 1.781740 0.000000 
#    z 0.000000 0.000000 1.872600 
# 
# From -- ./inp_files/40660.got.cif
#   From: 2010.05.17/outbox.cif.g08.bks.cpg/sg72_21_cif.got.tgz:40660.got - 2010.06.03 17:03:01.
