data_PCOD9526605
_publ_section_title
;
Structure prediction by ZEFSAII (Michael W. Deem and Ramdas Pophale) SiO2 
 PCOD9526605
Probable space group: I B A M
;
_chemical_formula_sum "Si O2"
_cell_formula_units_Z 112
_cell_length_a 15.893596
_cell_length_b 15.059817
_cell_length_c 26.200210
_cell_angle_alpha 90.000000
_cell_angle_beta 90.000000
_cell_angle_gamma 90.000000
_cell_volume 6271.142022
_symmetry_space_group_name_H-M "I B A M"
_symmetry_group_IT_number 72
_symmetry_cell_setting 'orthorhombic'
loop_
_space_group_symop_operation_xyz
x,y,z
-x,-y,z
x,-y,1/2-z
-x,y,1/2-z
-x,-y,-z
x,y,-z
-x,y,1/2+z
x,-y,1/2+z
1/2+x,1/2+y,1/2+z
1/2-x,1/2-y,1/2+z
1/2+x,1/2-y,-z
1/2-x,1/2+y,-z
1/2-x,1/2-y,1/2-z
1/2+x,1/2+y,1/2-z
1/2-x,1/2+y,z
1/2+x,1/2-y,z
loop_
_atom_site_type_symbol
_atom_site_label
_atom_site_fract_x
_atom_site_fract_y
_atom_site_fract_z
Si Si1 0.040767 0.739853 0.114510
Si Si2 0.729426 0.745501 0.882643
Si Si3 0.043840 0.906763 0.347361
Si Si4 0.225039 0.411085 0.185304
Si Si5 0.718161 0.388042 0.201096
Si Si6 0.110153 0.815735 0.558972
Si Si7 0.974351 0.602550 0.193845
O O1 0.136127 0.739947 0.096147
O O2 0.020446 0.656492 0.149800
O O3 0.022982 0.826843 0.149874
O O4 0.969260 0.751413 0.071371
O O5 0.738098 0.646158 0.860852
O O6 0.743469 0.811180 0.834199
O O7 0.804466 0.769991 0.921200
O O8 0.117864 0.888949 0.307408
O O9 0.090250 0.897901 0.402785
O O10 0.000000 0.000000 0.339664
O O11 0.245828 0.515848 0.183496
O O12 0.260441 0.378200 0.239689
O O13 0.125507 0.393148 0.186637
O O14 0.114212 0.838954 0.500000
O O15 0.000000 0.500000 0.191824
O O16 0.000000 0.636576 0.250000
#
# Coordination Sequence:
#
# PCOD9526605 Si02
#       7
#    16  16  16  16  16  16  16
#     4  10  21  36  56  87 109 151 183 242 286 344
#     4  11  20  37  59  79 114 149 185 236 288 341
#     4   9  19  37  56  82 119 147 191 235 285 343
#     4  11  20  34  52  82 116 156 185 229 279 339
#     4  10  20  33  53  83 116 152 192 225 269 342
#     4   9  21  39  60  84 110 143 192 243 289 343
#     4  11  20  34  54  83 113 153 199 234 277 343
#
# _framework density 17.859586
#
# number of rings (size 3 to 8) (size 9 to 14) (size 15 to 20)
#    0.857    1.000    1.429    4.714    0.000    2.000 
#    0.000    4.286    0.000    1.286    0.000    0.000 
#    0.000    0.000    0.000    0.000    0.000    0.000 
#
# Total GULP energy -312254.582725 kJ/mol
# GULP energy per Si atom -5575.974692 kJ/mol
# Density = 1.781894 g / cm^3
# Si number density = 17.859586 Si / 1000 Ang^3
#
#
#
# Elastic Constant Matrix: (Units=GPa)
#
#
# Indices 1 2 3 4 5 6 
#
# 1 135.3603 0.1262 14.1726 0.0000 0.0000 0.0000
# 2 0.1262 38.0418 -6.9961 0.0000 0.0000 0.0000
# 3 14.1726 -6.9961 36.5027 0.0000 0.0000 0.0000
# 4 0.0000 0.0000 0.0000 16.1640 0.0000 0.0000
# 5 0.0000 0.0000 0.0000 0.0000 20.6967 0.0000
# 6 0.0000 0.0000 0.0000 0.0000 0.0000 22.2102
#
#
#
# Elastic Compliance Matrix: (Units=1/GPa)
#
#
# Indices 1 2 3 4 5 6 
#
# 1 0.007714 -0.000597 -0.003109 0.000000 0.000000 0.000000
# 2 -0.000597 0.027294 0.005463 0.000000 0.000000 0.000000
# 3 -0.003109 0.005463 0.029650 0.000000 0.000000 0.000000
# 4 0.000000 0.000000 0.000000 0.061866 0.000000 0.000000
# 5 0.000000 0.000000 0.000000 0.000000 0.048317 0.000000
# 6 0.000000 0.000000 0.000000 0.000000 0.000000 0.045024
#
#
# Mechanical properties :
#
#
# Convention : Reuss Voigt Hill
#
# Bulk Modulus (GPa) = 14.66940 24.94559 19.80749
# Shear Modulus (GPa) = 20.91397 25.32100 23.11748
#
# Velocity S-wave (km/s) = 3.42573 3.76943 3.60168
# Velocity P-wave (km/s) = 4.88662 5.73958 5.33019
#
# Compressibility (1/GPa) = 0.06816913
#
# Stress axis : x y z
#
# Youngs Moduli (GPa) = 129.63746 36.63875 33.72729
#
# Poissons Ratio (x) = 0.02189 0.10487
# Poissons Ratio (y) = 0.07745 -0.18425
# Poissons Ratio (z) = 0.40311 -0.20016
#
# Static dielectric constant tensor:
#      x y z
#    x 1.619890 0.000000 0.000000 
#    y 0.000000 1.604630 0.000000 
#    z 0.000000 0.000000 1.574210 
# 
# From -- ./inp_files/51865.got.cif
#   From: 2010.05.17/outbox.cif.g08.bks.cpg/sg72_26_cif.got.tgz:51865.got - 2010.06.03 17:03:01.
