data_PCOD9526005
_publ_section_title
;
Structure prediction by ZEFSAII (Michael W. Deem and Ramdas Pophale) SiO2 
 PCOD9526005
Probable space group: I B A M
;
_chemical_formula_sum "Si O2"
_cell_formula_units_Z 56
_cell_length_a 15.851364
_cell_length_b 9.737124
_cell_length_c 13.493899
_cell_angle_alpha 90.000000
_cell_angle_beta 90.000000
_cell_angle_gamma 90.000000
_cell_volume 2082.738738
_symmetry_space_group_name_H-M "I B A M"
_symmetry_group_IT_number 72
_symmetry_cell_setting 'orthorhombic'
loop_
_space_group_symop_operation_xyz
x,y,z
-x,-y,z
x,-y,1/2-z
-x,y,1/2-z
-x,-y,-z
x,y,-z
-x,y,1/2+z
x,-y,1/2+z
1/2+x,1/2+y,1/2+z
1/2-x,1/2-y,1/2+z
1/2+x,1/2-y,-z
1/2-x,1/2+y,-z
1/2-x,1/2-y,1/2-z
1/2+x,1/2+y,1/2-z
1/2-x,1/2+y,z
1/2+x,1/2-y,z
loop_
_atom_site_type_symbol
_atom_site_label
_atom_site_fract_x
_atom_site_fract_y
_atom_site_fract_z
Si Si1 0.500000 0.293961 0.750000
Si Si2 0.142659 0.087834 0.880229
Si Si3 0.732987 0.863718 0.380942
Si Si4 0.087533 0.417986 0.611247
O O1 0.444781 0.376369 0.670984
O O2 0.434511 0.198915 0.811029
O O3 0.182026 0.941661 0.851051
O O4 0.208805 0.209714 0.851467
O O5 0.133249 0.092262 0.000000
O O6 0.735674 0.858713 0.500000
O O7 0.657613 0.970934 0.359338
O O8 0.108967 0.365292 0.500000
O O9 0.000000 0.500000 0.603697
#
# Coordination Sequence:
#
# PCOD9526005 Si02
#       4
#     8  16  16  16
#     4  12  21  32  60  93 126 165 214 265 318 383
#     4  10  21  38  62  95 130 167 216 267 323 384
#     4   9  19  36  59  89 126 166 213 270 321 378
#     4  10  19  33  54  86 122 162 217 266 306 368
#
# _framework density 26.887671999999998
#
# number of rings (size 3 to 8) (size 9 to 14) (size 15 to 20)
#    0.000    2.000    2.857    1.286    0.000    1.143 
#    0.000    0.000    0.000    5.143    0.000   16.000 
#    0.000    0.000    0.000    0.000    0.000    0.000 
#
# Total GULP energy -157162.832560 kJ/mol
# GULP energy per Si atom -5612.958306 kJ/mol
# Density = 2.682647 g / cm^3
# Si number density = 26.887672 Si / 1000 Ang^3
#
#
#
# Elastic Constant Matrix: (Units=GPa)
#
#
# Indices 1 2 3 4 5 6 
#
# 1 63.7006 78.6155 9.7816 0.0000 0.0000 0.0000
# 2 78.6155 183.7822 64.5766 0.0000 0.0000 0.0000
# 3 9.7816 64.5766 143.8390 0.0000 0.0000 0.0000
# 4 0.0000 0.0000 0.0000 37.9899 0.0000 0.0000
# 5 0.0000 0.0000 0.0000 0.0000 34.9650 0.0000
# 6 0.0000 0.0000 0.0000 0.0000 0.0000 71.1739
#
#
#
# Elastic Compliance Matrix: (Units=1/GPa)
#
#
# Indices 1 2 3 4 5 6 
#
# 1 0.036438 -0.017472 0.005366 0.000000 0.000000 0.000000
# 2 -0.017472 0.014839 -0.005474 0.000000 0.000000 0.000000
# 3 0.005366 -0.005474 0.009045 0.000000 0.000000 0.000000
# 4 0.000000 0.000000 0.000000 0.026323 0.000000 0.000000
# 5 0.000000 0.000000 0.000000 0.000000 0.028600 0.000000
# 6 0.000000 0.000000 0.000000 0.000000 0.000000 0.014050
#
#
# Mechanical properties :
#
#
# Convention : Reuss Voigt Hill
#
# Bulk Modulus (GPa) = 39.74289 77.47436 58.60863
# Shear Modulus (GPa) = 28.92841 44.71564 36.82202
#
# Velocity S-wave (km/s) = 3.28365 4.08248 3.70466
# Velocity P-wave (km/s) = 5.40274 7.14834 6.33595
#
# Compressibility (1/GPa) = 0.02516173
#
# Stress axis : x y z
#
# Youngs Moduli (GPa) = 27.44402 67.39188 110.56237
#
# Poissons Ratio (x) = 1.17750 -0.59331
# Poissons Ratio (y) = 0.47951 0.60517
# Poissons Ratio (z) = -0.14727 0.36888
#
# Static dielectric constant tensor:
#      x y z
#    x 2.046110 0.000000 0.000000 
#    y 0.000000 2.047450 0.000000 
#    z 0.000000 0.000000 2.102830 
# 
# From -- ./inp_files/19589.got.cif
#   From: 2010.05.17/outbox.cif.g08.bks.cpg/sg72_10_cif.got.tgz:19589.got - 2010.06.03 17:03:01.
