data_PCOD9526983
_publ_section_title
;
Structure prediction by ZEFSAII (Michael W. Deem and Ramdas Pophale) SiO2 
 PCOD9526983
Probable space group: I B A M
;
_chemical_formula_sum "Si O2"
_cell_formula_units_Z 64
_cell_length_a 16.243503
_cell_length_b 24.595777
_cell_length_c 9.513432
_cell_angle_alpha 90.000000
_cell_angle_beta 90.000000
_cell_angle_gamma 90.000000
_cell_volume 3800.821360
_symmetry_space_group_name_H-M "I B A M"
_symmetry_group_IT_number 72
_symmetry_cell_setting 'orthorhombic'
loop_
_space_group_symop_operation_xyz
x,y,z
-x,-y,z
x,-y,1/2-z
-x,y,1/2-z
-x,-y,-z
x,y,-z
-x,y,1/2+z
x,-y,1/2+z
1/2+x,1/2+y,1/2+z
1/2-x,1/2-y,1/2+z
1/2+x,1/2-y,-z
1/2-x,1/2+y,-z
1/2-x,1/2-y,1/2-z
1/2+x,1/2+y,1/2-z
1/2-x,1/2+y,z
1/2+x,1/2-y,z
loop_
_atom_site_type_symbol
_atom_site_label
_atom_site_fract_x
_atom_site_fract_y
_atom_site_fract_z
Si Si1 0.905418 0.213253 0.278426
Si Si2 0.536585 0.924599 0.500000
Si Si3 0.659446 0.930087 0.000000
Si Si4 0.888478 0.500000 0.750000
Si Si5 0.296936 0.661343 0.000000
Si Si6 0.300192 0.725211 0.500000
Si Si7 0.876752 0.308058 0.500000
O O1 0.857600 0.167591 0.367691
O O2 0.900404 0.269734 0.367365
O O3 0.000000 0.200338 0.250000
O O4 0.855918 0.220133 0.135795
O O5 0.438284 0.913955 0.500000
O O6 0.562992 0.959861 0.361272
O O7 0.580301 0.866248 0.500000
O O8 0.664855 0.964275 0.143257
O O9 0.730310 0.885662 0.000000
O O10 0.243140 0.716325 0.000000
O O11 0.221972 0.685008 0.500000
#
# Coordination Sequence:
#
# PCOD9526983 Si02
#       7
#    16   8   8   8   8   8   8
#     4  10  21  37  54  80 115 147 182 224 273 326
#     4  11  22  36  57  81 111 155 185 219 273 325
#     4  11  22  37  58  79 117 142 187 226 272 325
#     4  10  23  40  54  80 115 150 183 232 268 320
#     4  10  22  35  55  83 108 146 181 227 271 327
#     4  10  20  36  52  79 117 140 185 234 255 320
#     4  10  22  34  54  84 111 152 189 212 271 328
#
# _framework density 16.838467000000001
#
# number of rings (size 3 to 8) (size 9 to 14) (size 15 to 20)
#    0.000    2.000    0.000    7.500   10.500    0.000 
#    0.000    0.000    0.000    0.000    0.000    2.625 
#    0.000    0.000    0.000    0.000    0.000    0.000 
#
# Total GULP energy -178405.728570 kJ/mol
# GULP energy per Si atom -5575.179018 kJ/mol
# Density = 1.680014 g / cm^3
# Si number density = 16.838467 Si / 1000 Ang^3
#
#
#
# Elastic Constant Matrix: (Units=GPa)
#
#
# Indices 1 2 3 4 5 6 
#
# 1 159.4650 69.0228 69.8050 0.0000 0.0000 0.0000
# 2 69.0228 108.3126 51.0750 0.0000 0.0000 0.0000
# 3 69.8050 51.0750 151.8245 -0.0001 0.0000 0.0000
# 4 0.0000 0.0000 -0.0001 2.4651 0.0000 0.0000
# 5 0.0000 0.0000 0.0000 0.0000 23.3621 0.0000
# 6 0.0000 0.0000 0.0000 0.0000 0.0000 33.6044
#
#
#
# Elastic Compliance Matrix: (Units=1/GPa)
#
#
# Indices 1 2 3 4 5 6 
#
# 1 0.009559 -0.004777 -0.002788 0.000000 0.000000 0.000000
# 2 -0.004777 0.013360 -0.002298 0.000000 0.000000 0.000000
# 3 -0.002788 -0.002298 0.008642 0.000000 0.000000 0.000000
# 4 0.000000 0.000000 0.000000 0.405670 0.000000 0.000000
# 5 0.000000 0.000000 0.000000 0.000000 0.042804 0.000000
# 6 0.000000 0.000000 0.000000 0.000000 0.000000 0.029758
#
#
# Mechanical properties :
#
#
# Convention : Reuss Voigt Hill
#
# Bulk Modulus (GPa) = 84.49738 88.82309 86.66023
# Shear Modulus (GPa) = 9.37270 27.19961 18.28616
#
# Velocity S-wave (km/s) = 2.36185 4.02347 3.29899
# Velocity P-wave (km/s) = 7.59789 8.62839 8.12948
#
# Compressibility (1/GPa) = 0.01183469
#
# Stress axis : x y z
#
# Youngs Moduli (GPa) = 104.61329 74.84825 115.71974
#
# Poissons Ratio (x) = 0.35754 0.32263
# Poissons Ratio (y) = 0.49972 0.26596
# Poissons Ratio (z) = 0.29166 0.17202
#
# Static dielectric constant tensor:
#      x y z
#    x 1.564900 0.000000 0.000000 
#    y 0.000000 1.562500 0.000000 
#    z 0.000000 0.000000 1.607010 
# 
# From -- ./inp_files/3516.got.cif
#   From: 2010.05.17/outbox.cif.g08.bks.cpg/sg72_2_cif.got.tgz:3516.got - 2010.06.03 17:03:01.
