data_PCOD9526834
_publ_section_title
;
Structure prediction by ZEFSAII (Michael W. Deem and Ramdas Pophale) SiO2 
 PCOD9526834
Probable space group: I B A M
;
_chemical_formula_sum "Si O2"
_cell_formula_units_Z 104
_cell_length_a 22.560359
_cell_length_b 28.296448
_cell_length_c 7.805658
_cell_angle_alpha 90.000000
_cell_angle_beta 90.000000
_cell_angle_gamma 90.000000
_cell_volume 4982.960540
_symmetry_space_group_name_H-M "I B A M"
_symmetry_group_IT_number 72
_symmetry_cell_setting 'orthorhombic'
loop_
_space_group_symop_operation_xyz
x,y,z
-x,-y,z
x,-y,1/2-z
-x,y,1/2-z
-x,-y,-z
x,y,-z
-x,y,1/2+z
x,-y,1/2+z
1/2+x,1/2+y,1/2+z
1/2-x,1/2-y,1/2+z
1/2+x,1/2-y,-z
1/2-x,1/2+y,-z
1/2-x,1/2-y,1/2-z
1/2+x,1/2+y,1/2-z
1/2-x,1/2+y,z
1/2+x,1/2-y,z
loop_
_atom_site_type_symbol
_atom_site_label
_atom_site_fract_x
_atom_site_fract_y
_atom_site_fract_z
Si Si1 0.412720 0.294929 0.712899
Si Si2 0.777572 0.199860 0.294562
Si Si3 0.935272 0.687356 0.799907
Si Si4 0.601414 0.444012 0.708325
Si Si5 0.000000 0.125406 0.250000
Si Si6 0.765566 0.054640 0.202937
Si Si7 0.679355 0.869126 0.799135
O O1 0.419829 0.299793 0.500000
O O2 0.344867 0.304076 0.760824
O O3 0.426148 0.240875 0.769640
O O4 0.452831 0.333782 0.806301
O O5 0.779264 0.195201 0.500000
O O6 0.750000 0.250000 0.250000
O O7 0.732038 0.162275 0.219699
O O8 0.883438 0.650083 0.762836
O O9 0.000000 0.669611 0.750000
O O10 0.934209 0.695060 0.000000
O O11 0.595556 0.500000 0.750000
O O12 0.594485 0.438131 0.500000
O O13 0.550870 0.413051 0.800692
O O14 0.668442 0.428564 0.761622
O O15 0.706418 0.079306 0.272434
O O16 0.763904 0.000000 0.250000
O O17 0.765501 0.060083 0.000000
O O18 0.677183 0.860126 0.000000
#
# Coordination Sequence:
#
# PCOD9526834 Si02
#       7
#    16  16  16  16   8  16  16
#     4  10  21  35  52  77 114 156 199 247 300 350
#     4  10  20  35  54  79 111 150 197 249 301 355
#     4  11  22  39  59  83 119 161 203 243 293 356
#     4  10  23  40  60  85 116 156 204 255 309 364
#     4  12  21  36  56  82 118 160 211 254 302 354
#     4  10  21  40  64  92 122 155 197 251 309 367
#     4  11  22  37  61  91 120 156 199 247 306 366
#
# _framework density 20.871126
#
# number of rings (size 3 to 8) (size 9 to 14) (size 15 to 20)
#    0.000    1.538    2.308    3.000    0.000    3.077 
#    0.000    1.538    0.000    0.462    0.000    3.231 
#    0.000    0.000    0.000    0.000    0.000    0.000 
#
# Total GULP energy -289630.506753 kJ/mol
# GULP energy per Si atom -5569.817438 kJ/mol
# Density = 2.082362 g / cm^3
# Si number density = 20.871126 Si / 1000 Ang^3
#
#
#
# Elastic Constant Matrix: (Units=GPa)
#
#
# Indices 1 2 3 4 5 6 
#
# 1 211.6887 75.2908 19.3083 0.0000 0.0000 0.0000
# 2 75.2908 83.3536 -2.1612 0.0000 0.0000 0.0000
# 3 19.3083 -2.1612 48.0228 0.0000 0.0000 0.0000
# 4 0.0000 0.0000 0.0000 -2.8373 0.0000 0.0000
# 5 0.0000 0.0000 0.0000 0.0000 -20.4797 0.0000
# 6 0.0000 0.0000 0.0000 0.0000 0.0000 58.9240
#
#
#
# Elastic Compliance Matrix: (Units=1/GPa)
#
#
# Indices 1 2 3 4 5 6 
#
# 1 0.007448 -0.006813 -0.003301 0.000000 0.000000 0.000000
# 2 -0.006813 0.018244 0.003560 0.000000 0.000000 0.000000
# 3 -0.003301 0.003560 0.022311 0.000000 0.000000 0.000000
# 4 0.000000 0.000000 0.000000 -0.352443 0.000000 0.000000
# 5 0.000000 0.000000 0.000000 0.000000 -0.048829 0.000000
# 6 0.000000 0.000000 0.000000 0.000000 0.000000 0.016971
#
#
# Mechanical properties :
#
#
# Convention : Reuss Voigt Hill
#
# Bulk Modulus (GPa) = 28.65781 58.66012 43.65897
# Shear Modulus (GPa) = -16.04839 23.82987 3.89074
#
# Velocity S-wave (km/s) = -2.77596 3.38266 1.36683
# Velocity P-wave (km/s) = 1.86709 6.58965 4.84301
#
# Compressibility (1/GPa) = 0.03489450
#
# Stress axis : x y z
#
# Youngs Moduli (GPa) = 134.25746 54.81307 44.82089
#
# Poissons Ratio (x) = 0.37347 0.14797
# Poissons Ratio (y) = 0.91476 -0.15958
# Poissons Ratio (z) = 0.44323 -0.19516
#
# Static dielectric constant tensor:
#      x y z
#    x 1.800620 0.000000 0.000000 
#    y 0.000000 1.840910 0.000000 
#    z 0.000000 0.000000 1.814250 
# 
# From -- ./inp_files/6199.got.cif
#   From: 2010.05.17/outbox.cif.g08.bks.cpg/sg72_4_cif.got.tgz:6199.got - 2010.06.03 17:03:01.
