data_PCOD9526791
_publ_section_title
;
Structure prediction by ZEFSAII (Michael W. Deem and Ramdas Pophale) SiO2 
 PCOD9526791
Probable space group: I B A M
;
_chemical_formula_sum "Si O2"
_cell_formula_units_Z 84
_cell_length_a 10.039714
_cell_length_b 20.927800
_cell_length_c 16.369021
_cell_angle_alpha 90.000000
_cell_angle_beta 90.000000
_cell_angle_gamma 90.000000
_cell_volume 3439.280706
_symmetry_space_group_name_H-M "I B A M"
_symmetry_group_IT_number 72
_symmetry_cell_setting 'orthorhombic'
loop_
_space_group_symop_operation_xyz
x,y,z
-x,-y,z
x,-y,1/2-z
-x,y,1/2-z
-x,-y,-z
x,y,-z
-x,y,1/2+z
x,-y,1/2+z
1/2+x,1/2+y,1/2+z
1/2-x,1/2-y,1/2+z
1/2+x,1/2-y,-z
1/2-x,1/2+y,-z
1/2-x,1/2-y,1/2-z
1/2+x,1/2+y,1/2-z
1/2-x,1/2+y,z
1/2+x,1/2-y,z
loop_
_atom_site_type_symbol
_atom_site_label
_atom_site_fract_x
_atom_site_fract_y
_atom_site_fract_z
Si Si1 0.954131 0.148280 0.163537
Si Si2 0.357769 0.823326 0.399860
Si Si3 0.000000 0.500000 0.250000
Si Si4 0.390934 0.241545 0.593725
Si Si5 0.168103 0.935950 0.593268
Si Si6 0.247901 0.549440 0.677758
O O1 0.006226 0.197887 0.096935
O O2 0.807456 0.119833 0.172062
O O3 0.000000 0.176523 0.250000
O O4 0.042712 0.085335 0.146446
O O5 0.361089 0.820660 0.500000
O O6 0.507871 0.810937 0.370271
O O7 0.290866 0.890934 0.378206
O O8 0.247884 0.769868 0.371824
O O9 0.907565 0.455895 0.306014
O O10 0.361295 0.223763 0.500000
O O11 0.138123 0.919777 0.500000
O O12 0.209193 0.008978 0.599551
O O13 0.298096 0.500000 0.750000
#
# Coordination Sequence:
#
# PCOD9526791 Si02
#       6
#    16  16   4  16  16  16
#     4  11  19  32  56  83 108 141 177 227 278 336
#     4   8  16  33  53  77 108 142 179 223 276 322
#     4   8  20  40  52  68 108 156 174 206 256 346
#     4   9  18  34  54  78 110 144 180 226 274 327
#     4  10  20  34  58  86 108 136 185 238 275 327
#     4  10  20  36  56  73 108 149 179 216 284 330
#
# _framework density 24.423711000000001
#
# number of rings (size 3 to 8) (size 9 to 14) (size 15 to 20)
#    0.571    1.905    1.905    2.286    0.000    2.286 
#    3.429    4.286    2.095    0.000    0.000    0.000 
#    0.000    0.000    0.000    0.000    0.000    0.000 
#
# Total GULP energy -234047.356500 kJ/mol
# GULP energy per Si atom -5572.556107 kJ/mol
# Density = 2.436812 g / cm^3
# Si number density = 24.423711 Si / 1000 Ang^3
#
#
#
# Elastic Constant Matrix: (Units=GPa)
#
#
# Indices 1 2 3 4 5 6 
#
# 1 78.4590 -0.7386 -9.1600 0.0000 0.0000 0.0000
# 2 -0.7386 48.7181 -12.8058 0.0000 0.0000 0.0000
# 3 -9.1600 -12.8058 45.5406 0.0001 0.0000 0.0000
# 4 0.0000 0.0000 0.0001 9.3676 0.0000 0.0000
# 5 0.0000 0.0000 0.0000 0.0000 13.5811 0.0000
# 6 0.0000 0.0000 0.0000 0.0000 0.0000 33.9557
#
#
#
# Elastic Compliance Matrix: (Units=1/GPa)
#
#
# Indices 1 2 3 4 5 6 
#
# 1 0.013094 0.000962 0.002904 0.000000 0.000000 0.000000
# 2 0.000962 0.022235 0.006446 0.000000 0.000000 0.000000
# 3 0.002904 0.006446 0.024355 0.000000 0.000000 0.000000
# 4 0.000000 0.000000 0.000000 0.106751 0.000000 0.000000
# 5 0.000000 0.000000 0.000000 0.000000 0.073632 0.000000
# 6 0.000000 0.000000 0.000000 0.000000 0.000000 0.029450
#
#
# Mechanical properties :
#
#
# Convention : Reuss Voigt Hill
#
# Bulk Modulus (GPa) = 12.45212 14.14544 13.29878
# Shear Modulus (GPa) = 18.13816 24.40904 21.27360
#
# Velocity S-wave (km/s) = 2.72811 3.16476 2.95451
# Velocity P-wave (km/s) = 3.87723 4.37704 4.13469
#
# Compressibility (1/GPa) = 0.08030760
#
# Stress axis : x y z
#
# Youngs Moduli (GPa) = 76.37311 44.97384 41.05917
#
# Poissons Ratio (x) = -0.04326 -0.11924
# Poissons Ratio (y) = -0.07346 -0.26466
# Poissons Ratio (z) = -0.22180 -0.28990
#
# Static dielectric constant tensor:
#      x y z
#    x 2.018470 0.000000 0.000000 
#    y 0.000000 1.997090 0.000000 
#    z 0.000000 0.000000 2.020760 
# 
# From -- ./inp_files/37058.got.cif
#   From: 2010.05.17/outbox.cif.g08.bks.cpg/sg72_19_cif.got.tgz:37058.got - 2010.06.03 17:03:01.
