data_PCOD9526847
_publ_section_title
;
Structure prediction by ZEFSAII (Michael W. Deem and Ramdas Pophale) SiO2 
 PCOD9526847
Probable space group: I B A M
;
_chemical_formula_sum "Si O2"
_cell_formula_units_Z 96
_cell_length_a 12.529090
_cell_length_b 22.561579
_cell_length_c 20.651987
_cell_angle_alpha 90.000000
_cell_angle_beta 90.000000
_cell_angle_gamma 90.000000
_cell_volume 5837.822189
_symmetry_space_group_name_H-M "I B A M"
_symmetry_group_IT_number 72
_symmetry_cell_setting 'orthorhombic'
loop_
_space_group_symop_operation_xyz
x,y,z
-x,-y,z
x,-y,1/2-z
-x,y,1/2-z
-x,-y,-z
x,y,-z
-x,y,1/2+z
x,-y,1/2+z
1/2+x,1/2+y,1/2+z
1/2-x,1/2-y,1/2+z
1/2+x,1/2-y,-z
1/2-x,1/2+y,-z
1/2-x,1/2-y,1/2-z
1/2+x,1/2+y,1/2-z
1/2-x,1/2+y,z
1/2+x,1/2-y,z
loop_
_atom_site_type_symbol
_atom_site_label
_atom_site_fract_x
_atom_site_fract_y
_atom_site_fract_z
Si Si1 0.126247 0.175982 0.259830
Si Si2 0.742797 0.235870 0.644017
Si Si3 0.893662 0.637426 0.573477
Si Si4 0.288515 0.920549 0.196205
Si Si5 0.609832 0.038241 0.321359
Si Si6 0.142240 0.658876 0.425834
O O1 0.180508 0.203278 0.195524
O O2 0.160272 0.222870 0.315606
O O3 0.183733 0.113936 0.279092
O O4 0.000000 0.170758 0.250000
O O5 0.681222 0.186508 0.604380
O O6 0.807727 0.279216 0.596844
O O7 0.863255 0.624673 0.500000
O O8 0.890216 0.578671 0.616380
O O9 0.014649 0.660919 0.574642
O O10 0.369707 0.920375 0.258185
O O11 0.325910 0.886849 0.131364
O O12 0.293930 0.990264 0.179158
O O13 0.500000 0.000000 0.319793
O O14 0.175326 0.643569 0.500000
#
# Coordination Sequence:
#
# PCOD9526847 Si02
#       6
#    16  16  16  16  16  16
#     4  10  20  35  57  85 110 142 191 235 277 331
#     4  10  20  36  54  80 117 147 179 228 286 332
#     4  11  22  35  56  85 115 148 185 226 276 336
#     4  10  20  35  55  79 110 145 179 228 282 326
#     4  11  21  35  57  83 114 145 185 232 284 328
#     4  10  21  34  52  81 113 147 182 220 273 338
#
# _framework density 16.444488
#
# number of rings (size 3 to 8) (size 9 to 14) (size 15 to 20)
#    0.000    1.667    3.333    2.500    0.000    1.000 
#    0.000    1.667    0.000    1.000    0.000    1.167 
#    0.000    0.000    0.000    0.000    0.000    0.000 
#
# Total GULP energy -267425.203465 kJ/mol
# GULP energy per Si atom -5571.358406 kJ/mol
# Density = 1.640706 g / cm^3
# Si number density = 16.444488 Si / 1000 Ang^3
#
#
#
# Elastic Constant Matrix: (Units=GPa)
#
#
# Indices 1 2 3 4 5 6 
#
# 1 103.5288 61.9220 59.8266 0.0000 0.0000 0.0000
# 2 61.9220 102.2202 69.8972 0.0000 0.0000 0.0000
# 3 59.8266 69.8972 157.4944 0.0000 0.0000 0.0000
# 4 0.0000 0.0000 0.0000 -4.6963 0.0000 0.0000
# 5 0.0000 0.0000 0.0000 0.0000 21.4884 0.0000
# 6 0.0000 0.0000 0.0000 0.0000 0.0000 28.5454
#
#
#
# Elastic Compliance Matrix: (Units=1/GPa)
#
#
# Indices 1 2 3 4 5 6 
#
# 1 0.015815 -0.007857 -0.002521 0.000000 0.000000 0.000000
# 2 -0.007857 0.017948 -0.004981 0.000000 0.000000 0.000000
# 3 -0.002521 -0.004981 0.009518 0.000000 0.000000 0.000000
# 4 0.000000 0.000000 0.000000 -0.212933 0.000000 0.000000
# 5 0.000000 0.000000 0.000000 0.000000 0.046537 0.000000
# 6 0.000000 0.000000 0.000000 0.000000 0.000000 0.035032
#
#
# Mechanical properties :
#
#
# Convention : Reuss Voigt Hill
#
# Bulk Modulus (GPa) = 79.59314 82.94832 81.27073
# Shear Modulus (GPa) = -94.02229 20.50733 -36.75748
#
# Velocity S-wave (km/s) = -7.56966 3.53521 -4.73297
# Velocity P-wave (km/s) = 5.28142 8.19845 4.43402
#
# Compressibility (1/GPa) = 0.01256390
#
# Stress axis : x y z
#
# Youngs Moduli (GPa) = 63.23139 55.71628 105.06846
#
# Poissons Ratio (x) = 0.43774 0.26485
# Poissons Ratio (y) = 0.49678 0.52335
# Poissons Ratio (z) = 0.15939 0.27753
#
# Static dielectric constant tensor:
#      x y z
#    x 1.538550 0.000000 0.000000 
#    y 0.000000 1.554910 0.000000 
#    z 0.000000 0.000000 1.570760 
# 
# From -- ./inp_files/29426.got.cif
#   From: 2010.05.17/outbox.cif.g08.bks.cpg/sg72_15_cif.got.tgz:29426.got - 2010.06.03 17:03:01.
