data_PCOD9526282
_publ_section_title
;
Structure prediction by ZEFSAII (Michael W. Deem and Ramdas Pophale) SiO2 
 PCOD9526282
Probable space group: I B A M
;
_chemical_formula_sum "Si O2"
_cell_formula_units_Z 104
_cell_length_a 16.607763
_cell_length_b 14.826173
_cell_length_c 20.433656
_cell_angle_alpha 90.000000
_cell_angle_beta 90.000000
_cell_angle_gamma 90.000000
_cell_volume 5031.370277
_symmetry_space_group_name_H-M "I B A M"
_symmetry_group_IT_number 72
_symmetry_cell_setting 'orthorhombic'
loop_
_space_group_symop_operation_xyz
x,y,z
-x,-y,z
x,-y,1/2-z
-x,y,1/2-z
-x,-y,-z
x,y,-z
-x,y,1/2+z
x,-y,1/2+z
1/2+x,1/2+y,1/2+z
1/2-x,1/2-y,1/2+z
1/2+x,1/2-y,-z
1/2-x,1/2+y,-z
1/2-x,1/2-y,1/2-z
1/2+x,1/2+y,1/2-z
1/2-x,1/2+y,z
1/2+x,1/2-y,z
loop_
_atom_site_type_symbol
_atom_site_label
_atom_site_fract_x
_atom_site_fract_y
_atom_site_fract_z
Si Si1 0.814762 0.918955 0.205873
Si Si2 0.474531 0.401564 0.107664
Si Si3 0.274295 0.177818 0.615583
Si Si4 0.136196 0.401932 0.237690
Si Si5 0.382647 0.279801 0.794721
Si Si6 0.170491 0.909698 0.000000
Si Si7 0.849486 0.133856 0.429493
O O1 0.722769 0.907953 0.225973
O O2 0.862193 0.830330 0.227217
O O3 0.820859 0.929532 0.129141
O O4 0.847105 0.000000 0.250000
O O5 0.500000 0.500000 0.133365
O O6 0.447316 0.334925 0.164640
O O7 0.402298 0.413613 0.056647
O O8 0.554555 0.362289 0.074116
O O9 0.337646 0.126553 0.663764
O O10 0.200175 0.211541 0.662587
O O11 0.236754 0.116652 0.558551
O O12 0.311826 0.267956 0.582964
O O13 0.098886 0.500000 0.250000
O O14 0.093563 0.320630 0.275508
O O15 0.825102 0.093038 0.500000
#
# Coordination Sequence:
#
# PCOD9526282 Si02
#       7
#    16  16  16  16  16   8  16
#     4  10  19  35  60  90 126 171 220 271 326 387
#     4  11  24  40  57  91 140 180 207 261 346 428
#     4  10  19  37  62  88 125 173 218 276 329 395
#     4  10  19  36  63  93 122 161 228 285 321 376
#     4  10  19  38  60  85 130 173 217 273 328 392
#     4  10  21  38  60  86 131 180 208 263 345 402
#     4  12  22  36  60  92 130 168 222 269 334 416
#
# _framework density 20.670313
#
# number of rings (size 3 to 8) (size 9 to 14) (size 15 to 20)
#    0.000    1.538    4.615    2.077    0.000    1.846 
#    0.000    1.538    0.000    2.769    0.000    1.077 
#    0.000    0.000    0.000    0.000    0.000    0.000 
#
# Total GULP energy -289542.230356 kJ/mol
# GULP energy per Si atom -5568.119815 kJ/mol
# Density = 2.062327 g / cm^3
# Si number density = 20.670313 Si / 1000 Ang^3
#
#
#
# Elastic Constant Matrix: (Units=GPa)
#
#
# Indices 1 2 3 4 5 6 
#
# 1 44.9048 0.7026 7.6584 0.0000 0.0000 0.0000
# 2 0.7026 94.8881 22.4466 0.0000 0.0000 0.0000
# 3 7.6584 22.4466 142.9592 0.0000 0.0000 0.0000
# 4 0.0000 0.0000 0.0000 37.6203 0.0000 0.0000
# 5 0.0000 0.0000 0.0000 0.0000 27.7755 0.0000
# 6 0.0000 0.0000 0.0000 0.0000 0.0000 28.7781
#
#
#
# Elastic Compliance Matrix: (Units=1/GPa)
#
#
# Indices 1 2 3 4 5 6 
#
# 1 0.022476 0.000123 -0.001223 0.000000 0.000000 0.000000
# 2 0.000123 0.010946 -0.001725 0.000000 0.000000 0.000000
# 3 -0.001223 -0.001725 0.007331 0.000000 0.000000 0.000000
# 4 0.000000 0.000000 0.000000 0.026581 0.000000 0.000000
# 5 0.000000 0.000000 0.000000 0.000000 0.036003 0.000000
# 6 0.000000 0.000000 0.000000 0.000000 0.000000 0.034749
#
#
# Mechanical properties :
#
#
# Convention : Reuss Voigt Hill
#
# Bulk Modulus (GPa) = 28.48831 38.26303 33.37567
# Shear Modulus (GPa) = 32.16706 35.63106 33.89906
#
# Velocity S-wave (km/s) = 3.94914 4.15635 4.05407
# Velocity P-wave (km/s) = 5.88273 6.44864 6.17217
#
# Compressibility (1/GPa) = 0.03510212
#
# Stress axis : x y z
#
# Youngs Moduli (GPa) = 44.49182 91.35806 136.39907
#
# Poissons Ratio (x) = -0.01123 0.16687
# Poissons Ratio (y) = -0.00547 0.23532
# Poissons Ratio (z) = 0.05443 0.15762
#
# Static dielectric constant tensor:
#      x y z
#    x 1.750970 0.000000 0.000000 
#    y 0.000000 1.877010 0.000000 
#    z 0.000000 0.000000 1.760570 
# 
# From -- ./inp_files/39068.got.cif
#   From: 2010.05.17/outbox.cif.g08.bks.cpg/sg72_20_cif.got.tgz:39068.got - 2010.06.03 17:03:01.
