data_PCOD9526567
_publ_section_title
;
Structure prediction by ZEFSAII (Michael W. Deem and Ramdas Pophale) SiO2 
 PCOD9526567
Probable space group: I B A M
;
_chemical_formula_sum "Si O2"
_cell_formula_units_Z 64
_cell_length_a 24.147269
_cell_length_b 12.861546
_cell_length_c 9.191817
_cell_angle_alpha 90.000000
_cell_angle_beta 90.000000
_cell_angle_gamma 90.000000
_cell_volume 2854.713737
_symmetry_space_group_name_H-M "I B A M"
_symmetry_group_IT_number 72
_symmetry_cell_setting 'orthorhombic'
loop_
_space_group_symop_operation_xyz
x,y,z
-x,-y,z
x,-y,1/2-z
-x,y,1/2-z
-x,-y,-z
x,y,-z
-x,y,1/2+z
x,-y,1/2+z
1/2+x,1/2+y,1/2+z
1/2-x,1/2-y,1/2+z
1/2+x,1/2-y,-z
1/2-x,1/2+y,-z
1/2-x,1/2-y,1/2-z
1/2+x,1/2+y,1/2-z
1/2-x,1/2+y,z
1/2+x,1/2-y,z
loop_
_atom_site_type_symbol
_atom_site_label
_atom_site_fract_x
_atom_site_fract_y
_atom_site_fract_z
Si Si1 0.440589 0.838952 0.331075
Si Si2 0.717864 0.603385 0.670524
Si Si3 0.058134 0.094313 0.333298
Si Si4 0.830504 0.329606 0.328063
O O1 0.500000 0.855722 0.250000
O O2 0.443275 0.874871 0.500000
O O3 0.426808 0.715201 0.336055
O O4 0.387276 0.874664 0.238933
O O5 0.699012 0.500000 0.750000
O O6 0.724673 0.583962 0.500000
O O7 0.777263 0.628998 0.742109
O O8 0.678125 0.703853 0.685531
O O9 0.054016 0.061465 0.500000
O O10 0.000000 0.101203 0.250000
O O11 0.087558 0.000000 0.250000
O O12 0.827561 0.353274 0.500000
#
# Coordination Sequence:
#
# PCOD9526567 Si02
#       4
#    16  16  16  16
#     4  10  20  33  50  74 107 147 188 230 279 335
#     4  10  21  38  61  87 115 148 188 237 291 343
#     4   9  16  25  38  57  85 124 169 214 258 309
#     4  10  21  37  58  85 116 150 191 237 285 340
#
# _framework density 22.419062
#
# number of rings (size 3 to 8) (size 9 to 14) (size 15 to 20)
#    0.000    2.250    0.000    3.750    0.000    7.000 
#    0.000    5.000    0.000    0.750    0.000    5.250 
#    0.000    0.000    0.000    0.000    0.000    0.000 
#
# Total GULP energy -178426.869672 kJ/mol
# GULP energy per Si atom -5575.839677 kJ/mol
# Density = 2.236804 g / cm^3
# Si number density = 22.419062 Si / 1000 Ang^3
#
#
#
# Elastic Constant Matrix: (Units=GPa)
#
#
# Indices 1 2 3 4 5 6 
#
# 1 170.4266 1.9956 108.0936 0.0000 0.0000 0.0000
# 2 1.9956 60.5530 33.0821 0.0000 0.0000 0.0000
# 3 108.0936 33.0821 221.0583 0.0000 0.0000 0.0000
# 4 0.0000 0.0000 0.0000 24.4054 0.0000 0.0000
# 5 0.0000 0.0000 0.0000 0.0000 8.3379 0.0000
# 6 0.0000 0.0000 0.0000 0.0000 0.0000 -7.7281
#
#
#
# Elastic Compliance Matrix: (Units=1/GPa)
#
#
# Indices 1 2 3 4 5 6 
#
# 1 0.008775 0.002238 -0.004626 0.000000 0.000000 0.000000
# 2 0.002238 0.018556 -0.003871 0.000000 0.000000 0.000000
# 3 -0.004626 -0.003871 0.007365 0.000000 0.000000 0.000000
# 4 0.000000 0.000000 0.000000 0.040974 0.000000 0.000000
# 5 0.000000 0.000000 0.000000 0.000000 0.119935 0.000000
# 6 0.000000 0.000000 0.000000 0.000000 0.000000 -0.129398
#
#
# Mechanical properties :
#
#
# Convention : Reuss Voigt Hill
#
# Bulk Modulus (GPa) = 45.08997 82.04228 63.56613
# Shear Modulus (GPa) = 58.05945 25.59415 41.82680
#
# Velocity S-wave (km/s) = 5.09447 3.38246 4.32404
# Velocity P-wave (km/s) = 7.40005 7.20618 7.30376
#
# Compressibility (1/GPa) = 0.02217788
#
# Stress axis : x y z
#
# Youngs Moduli (GPa) = 113.95404 53.89171 135.77594
#
# Poissons Ratio (x) = -0.12062 0.62810
# Poissons Ratio (y) = -0.25504 0.52563
# Poissons Ratio (z) = 0.52715 0.20863
#
# Static dielectric constant tensor:
#      x y z
#    x 1.833540 0.000000 0.000000 
#    y 0.000000 2.093820 0.000000 
#    z 0.000000 0.000000 1.769910 
# 
# From -- ./inp_files/6623.got.cif
#   From: 2010.05.17/outbox.cif.g08.bks.cpg/sg72_4_cif.got.tgz:6623.got - 2010.06.03 17:03:01.
