data_PCOD9526108
_publ_section_title
;
Structure prediction by ZEFSAII (Michael W. Deem and Ramdas Pophale) SiO2 
 PCOD9526108
Probable space group: I B A M
;
_chemical_formula_sum "Si O2"
_cell_formula_units_Z 112
_cell_length_a 13.155619
_cell_length_b 14.351445
_cell_length_c 24.872309
_cell_angle_alpha 90.000000
_cell_angle_beta 90.000000
_cell_angle_gamma 90.000000
_cell_volume 4695.945229
_symmetry_space_group_name_H-M "I B A M"
_symmetry_group_IT_number 72
_symmetry_cell_setting 'orthorhombic'
loop_
_space_group_symop_operation_xyz
x,y,z
-x,-y,z
x,-y,1/2-z
-x,y,1/2-z
-x,-y,-z
x,y,-z
-x,y,1/2+z
x,-y,1/2+z
1/2+x,1/2+y,1/2+z
1/2-x,1/2-y,1/2+z
1/2+x,1/2-y,-z
1/2-x,1/2+y,-z
1/2-x,1/2-y,1/2-z
1/2+x,1/2+y,1/2-z
1/2-x,1/2+y,z
1/2+x,1/2-y,z
loop_
_atom_site_type_symbol
_atom_site_label
_atom_site_fract_x
_atom_site_fract_y
_atom_site_fract_z
Si Si1 0.896589 0.330608 0.282130
Si Si2 0.485630 0.888826 0.896068
Si Si3 0.888745 0.093706 0.633923
Si Si4 0.691622 0.365637 0.242536
Si Si5 0.390038 0.379352 0.137002
Si Si6 0.797135 0.387334 0.936902
Si Si7 0.282266 0.885676 0.941262
O O1 0.934754 0.371366 0.338076
O O2 0.810423 0.389299 0.250617
O O3 0.833133 0.234776 0.284609
O O4 0.000000 0.315317 0.250000
O O5 0.598372 0.852905 0.909220
O O6 0.398247 0.852715 0.935650
O O7 0.500000 0.000000 0.901826
O O8 0.858655 0.073922 0.696176
O O9 0.799732 0.139076 0.599096
O O10 0.993126 0.151885 0.630816
O O11 0.898452 0.986226 0.616216
O O12 0.638981 0.367525 0.300532
O O13 0.294504 0.344814 0.102642
O O14 0.793754 0.501488 0.935482
O O15 0.792339 0.361561 0.000000
O O16 0.240466 0.866014 0.000000
#
# Coordination Sequence:
#
# PCOD9526108 Si02
#       7
#    16  16  16  16  16  16  16
#     4  11  23  37  55  83 112 153 196 235 297 353
#     4  10  19  35  55  82 115 147 189 247 301 357
#     4  10  20  33  55  81 112 153 193 242 293 348
#     4  11  22  38  56  80 117 156 197 239 287 365
#     4  10  19  34  54  83 115 149 194 243 293 346
#     4   9  18  32  54  83 114 148 189 243 307 358
#     4   9  17  31  53  83 113 145 188 243 307 358
#
# _framework density 23.850363999999999
#
# number of rings (size 3 to 8) (size 9 to 14) (size 15 to 20)
#    0.000    2.000    1.429    3.000    0.000    3.714 
#    2.571    2.857    0.000    1.714    0.000    1.000 
#    0.000    0.000    0.000    0.000    0.000    0.143 
#
# Total GULP energy -312498.299043 kJ/mol
# GULP energy per Si atom -5580.326769 kJ/mol
# Density = 2.379608 g / cm^3
# Si number density = 23.850364 Si / 1000 Ang^3
#
#
#
# Elastic Constant Matrix: (Units=GPa)
#
#
# Indices 1 2 3 4 5 6 
#
# 1 239.1742 15.8927 96.3808 0.0000 0.0000 0.0000
# 2 15.8927 49.4709 -14.0521 0.0000 0.0000 0.0000
# 3 96.3808 -14.0521 121.2839 0.0000 0.0000 0.0000
# 4 0.0000 0.0000 0.0000 -58.4361 0.0000 0.0000
# 5 0.0000 0.0000 0.0000 0.0000 19.1582 0.0000
# 6 0.0000 0.0000 0.0000 0.0000 0.0000 22.0869
#
#
#
# Elastic Compliance Matrix: (Units=1/GPa)
#
#
# Indices 1 2 3 4 5 6 
#
# 1 0.006790 -0.003840 -0.005841 0.000000 0.000000 0.000000
# 2 -0.003840 0.023074 0.005725 0.000000 0.000000 0.000000
# 3 -0.005841 0.005725 0.013550 0.000000 0.000000 0.000000
# 4 0.000000 0.000000 0.000000 -0.017113 0.000000 0.000000
# 5 0.000000 0.000000 0.000000 0.000000 0.052197 0.000000
# 6 0.000000 0.000000 0.000000 0.000000 0.000000 0.045276
#
#
# Mechanical properties :
#
#
# Convention : Reuss Voigt Hill
#
# Bulk Modulus (GPa) = 28.16755 67.37466 47.77110
# Shear Modulus (GPa) = 34.83856 17.34229 26.09043
#
# Velocity S-wave (km/s) = 3.82608 2.69946 3.31104
# Velocity P-wave (km/s) = 5.59948 6.16655 5.88984
#
# Compressibility (1/GPa) = 0.03550185
#
# Stress axis : x y z
#
# Youngs Moduli (GPa) = 147.27859 43.33920 73.80175
#
# Poissons Ratio (x) = 0.16643 0.43105
# Poissons Ratio (y) = 0.56559 -0.42252
# Poissons Ratio (z) = 0.86020 -0.24812
#
# Static dielectric constant tensor:
#      x y z
#    x 1.964620 0.000000 0.000000 
#    y 0.000000 2.120860 0.000000 
#    z 0.000000 0.000000 1.906920 
# 
# From -- ./inp_files/43515.got.cif
#   From: 2010.05.17/outbox.cif.g08.bks.cpg/sg72_22_cif.got.tgz:43515.got - 2010.06.03 17:03:01.
