data_PCOD9526617
_publ_section_title
;
Structure prediction by ZEFSAII (Michael W. Deem and Ramdas Pophale) SiO2 
 PCOD9526617
Probable space group: I B A M
;
_chemical_formula_sum "Si O2"
_cell_formula_units_Z 64
_cell_length_a 7.444140
_cell_length_b 18.927277
_cell_length_c 17.306541
_cell_angle_alpha 90.000000
_cell_angle_beta 90.000000
_cell_angle_gamma 90.000000
_cell_volume 2438.444896
_symmetry_space_group_name_H-M "I B A M"
_symmetry_group_IT_number 72
_symmetry_cell_setting 'orthorhombic'
loop_
_space_group_symop_operation_xyz
x,y,z
-x,-y,z
x,-y,1/2-z
-x,y,1/2-z
-x,-y,-z
x,y,-z
-x,y,1/2+z
x,-y,1/2+z
1/2+x,1/2+y,1/2+z
1/2-x,1/2-y,1/2+z
1/2+x,1/2-y,-z
1/2-x,1/2+y,-z
1/2-x,1/2-y,1/2-z
1/2+x,1/2+y,1/2-z
1/2-x,1/2+y,z
1/2+x,1/2-y,z
loop_
_atom_site_type_symbol
_atom_site_label
_atom_site_fract_x
_atom_site_fract_y
_atom_site_fract_z
Si Si1 0.161163 0.140816 0.874208
Si Si2 0.020348 0.723849 0.585841
Si Si3 0.188158 0.373549 0.789519
Si Si4 0.782690 0.512535 0.913979
O O1 0.004179 0.192238 0.901708
O O2 0.335104 0.181544 0.908365
O O3 0.185309 0.142224 0.782195
O O4 0.179218 0.061019 0.902409
O O5 0.094618 0.710596 0.500000
O O6 0.132794 0.692436 0.657340
O O7 0.260780 0.434044 0.845485
O O8 0.000000 0.398591 0.750000
O O9 0.000000 0.500000 0.909939
O O10 0.745654 0.540121 0.000000
#
# Coordination Sequence:
#
# PCOD9526617 Si02
#       4
#    16  16  16  16
#     4  11  23  36  57  86 117 149 187 231 286 338
#     4  11  21  36  54  81 116 151 187 231 281 339
#     4  10  20  33  54  82 111 146 185 236 281 326
#     4  11  19  32  56  86 111 143 193 243 279 324
#
# _framework density 26.246238000000002
#
# number of rings (size 3 to 8) (size 9 to 14) (size 15 to 20)
#    0.000    1.250    5.000    4.500    0.000    0.000 
#    0.000    0.000    0.000    1.500    0.000   15.750 
#    0.000    0.000    0.000    0.000    0.000    0.000 
#
# Total GULP energy -179503.437002 kJ/mol
# GULP energy per Si atom -5609.482406 kJ/mol
# Density = 2.618650 g / cm^3
# Si number density = 26.246238 Si / 1000 Ang^3
#
#
#
# Elastic Constant Matrix: (Units=GPa)
#
#
# Indices 1 2 3 4 5 6 
#
# 1 58.6908 8.7798 18.1746 0.0000 0.0000 0.0000
# 2 8.7798 181.1456 67.9258 0.0000 0.0000 0.0000
# 3 18.1746 67.9258 235.4779 0.0000 0.0000 0.0000
# 4 0.0000 0.0000 0.0000 22.9967 0.0000 0.0000
# 5 0.0000 0.0000 0.0000 0.0000 17.6255 0.0000
# 6 0.0000 0.0000 0.0000 0.0000 0.0000 33.5566
#
#
#
# Elastic Compliance Matrix: (Units=1/GPa)
#
#
# Indices 1 2 3 4 5 6 
#
# 1 0.017479 -0.000383 -0.001239 0.000000 0.000000 0.000000
# 2 -0.000383 0.006198 -0.001758 0.000000 0.000000 0.000000
# 3 -0.001239 -0.001758 0.004850 0.000000 0.000000 0.000000
# 4 0.000000 0.000000 0.000000 0.043484 0.000000 0.000000
# 5 0.000000 0.000000 0.000000 0.000000 0.056736 0.000000
# 6 0.000000 0.000000 0.000000 0.000000 0.000000 0.029800
#
#
# Mechanical properties :
#
#
# Convention : Reuss Voigt Hill
#
# Bulk Modulus (GPa) = 45.94007 73.89719 59.91863
# Shear Modulus (GPa) = 28.97484 40.19804 34.58644
#
# Velocity S-wave (km/s) = 3.32620 3.91778 3.63404
# Velocity P-wave (km/s) = 5.68269 6.97723 6.36297
#
# Compressibility (1/GPa) = 0.02176749
#
# Stress axis : x y z
#
# Youngs Moduli (GPa) = 57.21062 161.33340 206.20584
#
# Poissons Ratio (x) = 0.06174 0.25542
# Poissons Ratio (y) = 0.02189 0.36260
# Poissons Ratio (z) = 0.07087 0.28369
#
# Static dielectric constant tensor:
#      x y z
#    x 2.191500 0.000000 0.000000 
#    y 0.000000 1.989770 0.000000 
#    z 0.000000 0.000000 1.974090 
# 
# From -- ./inp_files/28939.got.cif
#   From: 2010.05.17/outbox.cif.g08.bks.cpg/sg72_15_cif.got.tgz:28939.got - 2010.06.03 17:03:01.
