data_PCOD9526362
_publ_section_title
;
Structure prediction by ZEFSAII (Michael W. Deem and Ramdas Pophale) SiO2 
 PCOD9526362
Probable space group: I B A M
;
_chemical_formula_sum "Si O2"
_cell_formula_units_Z 64
_cell_length_a 11.817160
_cell_length_b 18.898920
_cell_length_c 14.581016
_cell_angle_alpha 90.000000
_cell_angle_beta 90.000000
_cell_angle_gamma 90.000000
_cell_volume 3256.401071
_symmetry_space_group_name_H-M "I B A M"
_symmetry_group_IT_number 72
_symmetry_cell_setting 'orthorhombic'
loop_
_space_group_symop_operation_xyz
x,y,z
-x,-y,z
x,-y,1/2-z
-x,y,1/2-z
-x,-y,-z
x,y,-z
-x,y,1/2+z
x,-y,1/2+z
1/2+x,1/2+y,1/2+z
1/2-x,1/2-y,1/2+z
1/2+x,1/2-y,-z
1/2-x,1/2+y,-z
1/2-x,1/2-y,1/2-z
1/2+x,1/2+y,1/2-z
1/2-x,1/2+y,z
1/2+x,1/2-y,z
loop_
_atom_site_type_symbol
_atom_site_label
_atom_site_fract_x
_atom_site_fract_y
_atom_site_fract_z
Si Si1 0.794311 0.988721 0.500000
Si Si2 0.600111 0.655622 0.000000
Si Si3 0.000000 0.665997 0.750000
Si Si4 0.384223 0.961440 0.843558
Si Si5 0.665361 0.343174 0.000000
Si Si6 0.806910 0.257853 0.849634
O O1 0.891251 0.929354 0.500000
O O2 0.714580 0.970867 0.585829
O O3 0.824533 0.071470 0.500000
O O4 0.664282 0.689382 0.911728
O O5 0.467594 0.676107 0.000000
O O6 0.918359 0.616471 0.811106
O O7 0.927446 0.709055 0.677335
O O8 0.500000 0.000000 0.876665
O O9 0.351295 0.000000 0.750000
O O10 0.730442 0.309621 0.087622
O O11 0.750000 0.250000 0.750000
#
# Coordination Sequence:
#
# PCOD9526362 Si02
#       6
#     8   8   8  16   8  16
#     4  12  22  38  60  84 124 166 200 244 298 368
#     4  11  26  40  59  90 124 162 207 251 303 369
#     4  10  19  36  62  86 117 154 200 256 310 364
#     4   9  19  34  56  90 117 145 195 255 312 361
#     4  11  24  42  63  92 124 164 203 243 305 373
#     4  11  23  42  65  89 120 159 206 260 309 363
#
# _framework density 19.653597999999999
#
# number of rings (size 3 to 8) (size 9 to 14) (size 15 to 20)
#    0.000    1.750    0.000    6.750    0.000    4.000 
#    0.000    0.000    0.000    4.500    0.000    0.000 
#    0.000    0.000    0.000    0.000    0.000    0.000 
#
# Total GULP energy -178609.087123 kJ/mol
# GULP energy per Si atom -5581.533973 kJ/mol
# Density = 1.960887 g / cm^3
# Si number density = 19.653598 Si / 1000 Ang^3
#
#
#
# Elastic Constant Matrix: (Units=GPa)
#
#
# Indices 1 2 3 4 5 6 
#
# 1 84.5770 31.2424 60.6594 0.0000 0.0000 0.0000
# 2 31.2424 118.1062 52.9207 -0.0001 0.0000 0.0000
# 3 60.6594 52.9207 131.4235 -0.0001 0.0000 0.0001
# 4 0.0000 -0.0001 -0.0001 -47.3903 0.0000 0.0002
# 5 0.0000 0.0000 0.0000 0.0000 35.7725 0.0000
# 6 0.0000 0.0000 0.0001 0.0002 0.0000 -194.9341
#
#
#
# Elastic Compliance Matrix: (Units=1/GPa)
#
#
# Indices 1 2 3 4 5 6 
#
# 1 0.017826 -0.001255 -0.007722 0.000000 0.000000 0.000000
# 2 -0.001255 0.010419 -0.003616 0.000000 0.000000 0.000000
# 3 -0.007722 -0.003616 0.012629 0.000000 0.000000 0.000000
# 4 0.000000 0.000000 0.000000 -0.021101 0.000000 0.000000
# 5 0.000000 0.000000 0.000000 0.000000 0.027954 0.000000
# 6 0.000000 0.000000 0.000000 0.000000 0.000000 -0.005130
#
#
# Mechanical properties :
#
#
# Convention : Reuss Voigt Hill
#
# Bulk Modulus (GPa) = 63.74646 69.30573 66.52609
# Shear Modulus (GPa) = 68.48055 -28.69144 19.89456
#
# Velocity S-wave (km/s) = 5.90927 -3.82495 3.18506
# Velocity P-wave (km/s) = 8.89183 3.97909 6.88832
#
# Compressibility (1/GPa) = 0.01568715
#
# Stress axis : x y z
#
# Youngs Moduli (GPa) = 56.09923 95.97522 79.18096
#
# Poissons Ratio (x) = 0.12048 0.61144
# Poissons Ratio (y) = 0.07042 0.28633
# Poissons Ratio (z) = 0.43320 0.34707
#
# Static dielectric constant tensor:
#      x y z
#    x 1.718490 0.000000 0.000000 
#    y 0.000000 1.732360 0.000000 
#    z 0.000000 0.000000 1.600990 
# 
# From -- ./inp_files/19778.got.cif
#   From: 2010.05.17/outbox.cif.g08.bks.cpg/sg72_10_cif.got.tgz:19778.got - 2010.06.03 17:03:01.
