data_PCOD9526137
_publ_section_title
;
Structure prediction by ZEFSAII (Michael W. Deem and Ramdas Pophale) SiO2 
 PCOD9526137
Probable space group: I B A M
;
_chemical_formula_sum "Si O2"
_cell_formula_units_Z 80
_cell_length_a 8.387406
_cell_length_b 30.019530
_cell_length_c 16.054191
_cell_angle_alpha 90.000000
_cell_angle_beta 90.000000
_cell_angle_gamma 90.000000
_cell_volume 4042.220311
_symmetry_space_group_name_H-M "I B A M"
_symmetry_group_IT_number 72
_symmetry_cell_setting 'orthorhombic'
loop_
_space_group_symop_operation_xyz
x,y,z
-x,-y,z
x,-y,1/2-z
-x,y,1/2-z
-x,-y,-z
x,y,-z
-x,y,1/2+z
x,-y,1/2+z
1/2+x,1/2+y,1/2+z
1/2-x,1/2-y,1/2+z
1/2+x,1/2-y,-z
1/2-x,1/2+y,-z
1/2-x,1/2-y,1/2-z
1/2+x,1/2+y,1/2-z
1/2-x,1/2+y,z
1/2+x,1/2-y,z
loop_
_atom_site_type_symbol
_atom_site_label
_atom_site_fract_x
_atom_site_fract_y
_atom_site_fract_z
Si Si1 0.232933 0.389326 0.594917
Si Si2 0.089927 0.198002 0.161393
Si Si3 0.762655 0.779594 0.404461
Si Si4 0.902649 0.632266 0.164187
Si Si5 0.805772 0.550412 0.745974
O O1 0.280732 0.397180 0.500000
O O2 0.325929 0.347258 0.633090
O O3 0.253565 0.429815 0.658758
O O4 0.042637 0.380173 0.600251
O O5 0.217443 0.237553 0.152630
O O6 0.000000 0.194172 0.250000
O O7 0.950228 0.212209 0.099119
O O8 0.712921 0.772389 0.500000
O O9 0.684121 0.824023 0.367080
O O10 0.785621 0.590451 0.185974
O O11 0.000000 0.641988 0.250000
O O12 0.744471 0.500000 0.750000
O O13 0.000000 0.547160 0.750000
#
# Coordination Sequence:
#
# PCOD9526137 Si02
#       5
#    16  16  16  16  16
#     4  10  19  34  56  84 111 141 182 230 271 313
#     4  12  24  39  57  78 108 148 184 218 267 329
#     4  12  23  36  54  81 112 143 179 224 267 313
#     4   9  18  34  55  80 111 148 182 218 266 325
#     4   8  16  33  55  80 111 143 180 223 273 327
#
# _framework density 19.791104000000001
#
# number of rings (size 3 to 8) (size 9 to 14) (size 15 to 20)
#    0.000    2.200    0.000    7.200    0.000    0.000 
#    0.000    9.000    0.000    5.400    0.000    7.000 
#    0.000    0.000    0.000    0.000    0.000    0.000 
#
# Total GULP energy -223040.173568 kJ/mol
# GULP energy per Si atom -5576.004339 kJ/mol
# Density = 1.974606 g / cm^3
# Si number density = 19.791104 Si / 1000 Ang^3
#
#
#
# Elastic Constant Matrix: (Units=GPa)
#
#
# Indices 1 2 3 4 5 6 
#
# 1 39.7489 41.8138 23.9849 0.0000 0.0000 0.0000
# 2 41.8138 170.7434 80.3306 0.0000 0.0000 0.0000
# 3 23.9849 80.3306 140.2258 -0.0001 0.0000 0.0000
# 4 0.0000 0.0000 -0.0001 -14.6378 0.0000 0.0000
# 5 0.0000 0.0000 0.0000 0.0000 21.3130 0.0000
# 6 0.0000 0.0000 0.0000 0.0000 0.0000 3.4738
#
#
#
# Elastic Compliance Matrix: (Units=1/GPa)
#
#
# Indices 1 2 3 4 5 6 
#
# 1 0.034098 -0.007675 -0.001436 0.000000 0.000000 0.000000
# 2 -0.007675 0.009745 -0.004270 0.000000 0.000000 0.000000
# 3 -0.001436 -0.004270 0.009823 0.000000 0.000000 0.000000
# 4 0.000000 0.000000 0.000000 -0.068317 0.000000 0.000001
# 5 0.000000 0.000000 0.000000 0.000000 0.046920 0.000000
# 6 0.000000 0.000000 0.000000 0.000001 0.000000 0.287867
#
#
# Mechanical properties :
#
#
# Convention : Reuss Voigt Hill
#
# Bulk Modulus (GPa) = 37.16759 71.44187 54.30473
# Shear Modulus (GPa) = 14.05027 15.66907 14.85967
#
# Velocity S-wave (km/s) = 2.66734 2.81681 2.74309
# Velocity P-wave (km/s) = 5.32043 6.83780 6.12628
#
# Compressibility (1/GPa) = 0.02690516
#
# Stress axis : x y z
#
# Youngs Moduli (GPa) = 29.32744 102.61498 101.80200
#
# Poissons Ratio (x) = 0.78756 0.14614
# Poissons Ratio (y) = 0.22509 0.43469
# Poissons Ratio (z) = 0.04210 0.43816
#
# Static dielectric constant tensor:
#      x y z
#    x 1.739710 0.000000 0.000000 
#    y 0.000000 1.709570 0.000000 
#    z 0.000000 0.000000 1.743620 
# 
# From -- ./inp_files/28324.got.cif
#   From: 2010.05.17/outbox.cif.g08.bks.cpg/sg72_15_cif.got.tgz:28324.got - 2010.06.03 17:03:01.
