data_PCOD9526877
_publ_section_title
;
Structure prediction by ZEFSAII (Michael W. Deem and Ramdas Pophale) SiO2 
 PCOD9526877
Probable space group: I B A M
;
_chemical_formula_sum "Si O2"
_cell_formula_units_Z 100
_cell_length_a 22.089578
_cell_length_b 27.407810
_cell_length_c 8.245199
_cell_angle_alpha 90.000000
_cell_angle_beta 90.000000
_cell_angle_gamma 90.000000
_cell_volume 4991.865739
_symmetry_space_group_name_H-M "I B A M"
_symmetry_group_IT_number 72
_symmetry_cell_setting 'orthorhombic'
loop_
_space_group_symop_operation_xyz
x,y,z
-x,-y,z
x,-y,1/2-z
-x,y,1/2-z
-x,-y,-z
x,y,-z
-x,y,1/2+z
x,-y,1/2+z
1/2+x,1/2+y,1/2+z
1/2-x,1/2-y,1/2+z
1/2+x,1/2-y,-z
1/2-x,1/2+y,-z
1/2-x,1/2-y,1/2-z
1/2+x,1/2+y,1/2-z
1/2-x,1/2+y,z
1/2+x,1/2-y,z
loop_
_atom_site_type_symbol
_atom_site_label
_atom_site_fract_x
_atom_site_fract_y
_atom_site_fract_z
Si Si1 0.932621 0.694966 0.803674
Si Si2 0.818517 0.762245 0.803557
Si Si3 0.769291 0.445109 0.694532
Si Si4 0.068781 0.052081 0.806549
Si Si5 0.000000 0.500000 0.250000
Si Si6 0.334714 0.372590 0.695485
Si Si7 0.597685 0.085616 0.195541
O O1 0.874064 0.726957 0.750743
O O2 0.922610 0.639061 0.745501
O O3 0.000000 0.711492 0.750000
O O4 0.932486 0.695312 0.000000
O O5 0.750000 0.750000 0.750000
O O6 0.831477 0.817317 0.745942
O O7 0.818703 0.760974 0.000000
O O8 0.755029 0.500000 0.750000
O O9 0.768949 0.444465 0.500000
O O10 0.722473 0.405124 0.756957
O O11 0.835912 0.429597 0.754342
O O12 0.107527 0.097208 0.743861
O O13 0.000000 0.055112 0.750000
O O14 0.094467 0.000000 0.750000
O O15 0.069824 0.052075 0.000000
O O16 0.051724 0.542686 0.264400
O O17 0.337721 0.370552 0.500000
O O18 0.600197 0.088788 0.000000
#
# Coordination Sequence:
#
# PCOD9526877 Si02
#       7
#    16  16  16  16   4  16  16
#     4  10  21  39  60  85 116 152 193 244 295 347
#     4  10  22  41  63  85 115 152 197 248 299 350
#     4  11  22  37  57  85 118 155 194 239 286 340
#     4  10  20  35  56  82 115 148 185 227 281 343
#     4  12  18  36  56  78 116 152 188 224 276 332
#     4  10  22  39  58  84 114 150 192 240 290 345
#     4  10  21  35  54  82 116 152 191 231 281 336
#
# _framework density 20.032589999999999
#
# number of rings (size 3 to 8) (size 9 to 14) (size 15 to 20)
#    0.000    1.760    1.600    3.120    0.000    5.760 
#    0.000    1.600    0.000    0.000    0.000    0.000 
#    0.000    0.000    0.000    0.000    0.000    0.000 
#
# Total GULP energy -278693.817327 kJ/mol
# GULP energy per Si atom -5573.876347 kJ/mol
# Density = 1.998700 g / cm^3
# Si number density = 20.032590 Si / 1000 Ang^3
#
#
#
# Elastic Constant Matrix: (Units=GPa)
#
#
# Indices 1 2 3 4 5 6 
#
# 1 164.2923 115.2905 5.8817 0.0000 0.0000 0.0000
# 2 115.2905 204.7756 13.9743 0.0000 0.0000 0.0000
# 3 5.8817 13.9743 9.6181 0.0000 0.0000 0.0000
# 4 0.0000 0.0000 0.0000 14.6086 0.0000 0.0000
# 5 0.0000 0.0000 0.0000 0.0000 37.5450 0.0000
# 6 0.0000 0.0000 0.0000 0.0000 0.0000 31.1271
#
#
#
# Elastic Compliance Matrix: (Units=1/GPa)
#
#
# Indices 1 2 3 4 5 6 
#
# 1 0.010108 -0.005849 0.002317 0.000000 0.000000 0.000000
# 2 -0.005849 0.008806 -0.009217 0.000000 0.000000 0.000000
# 3 0.002317 -0.009217 0.115945 0.000000 0.000000 0.000000
# 4 0.000000 0.000000 0.000000 0.068453 0.000000 0.000000
# 5 0.000000 0.000000 0.000000 0.000000 0.026635 0.000000
# 6 0.000000 0.000000 0.000000 0.000000 0.000000 0.032126
#
#
# Mechanical properties :
#
#
# Convention : Reuss Voigt Hill
#
# Bulk Modulus (GPa) = 9.14407 72.10876 40.62642
# Shear Modulus (GPa) = 15.43096 32.89211 24.16153
#
# Velocity S-wave (km/s) = 2.77843 4.05647 3.47668
# Velocity P-wave (km/s) = 3.85582 7.61668 6.03660
#
# Compressibility (1/GPa) = 0.10936049
#
# Stress axis : x y z
#
# Youngs Moduli (GPa) = 98.92749 113.56494 8.62481
#
# Poissons Ratio (x) = 0.66427 -0.01998
# Poissons Ratio (y) = 0.57865 0.07949
# Poissons Ratio (z) = -0.22921 1.04670
#
# Static dielectric constant tensor:
#      x y z
#    x 1.738080 0.000000 0.000000 
#    y 0.000000 1.690900 0.000000 
#    z 0.000000 0.000000 2.902850 
# 
# From -- ./inp_files/6190.got.cif
#   From: 2010.05.17/outbox.cif.g08.bks.cpg/sg72_4_cif.got.tgz:6190.got - 2010.06.03 17:03:01.
