data_PCOD9526315
_publ_section_title
;
Structure prediction by ZEFSAII (Michael W. Deem and Ramdas Pophale) SiO2 
 PCOD9526315
Probable space group: I B A M
;
_chemical_formula_sum "Si O2"
_cell_formula_units_Z 112
_cell_length_a 22.657448
_cell_length_b 10.937950
_cell_length_c 22.636804
_cell_angle_alpha 90.000000
_cell_angle_beta 90.000000
_cell_angle_gamma 90.000000
_cell_volume 5609.989343
_symmetry_space_group_name_H-M "I B A M"
_symmetry_group_IT_number 72
_symmetry_cell_setting 'orthorhombic'
loop_
_space_group_symop_operation_xyz
x,y,z
-x,-y,z
x,-y,1/2-z
-x,y,1/2-z
-x,-y,-z
x,y,-z
-x,y,1/2+z
x,-y,1/2+z
1/2+x,1/2+y,1/2+z
1/2-x,1/2-y,1/2+z
1/2+x,1/2-y,-z
1/2-x,1/2+y,-z
1/2-x,1/2-y,1/2-z
1/2+x,1/2+y,1/2-z
1/2-x,1/2+y,z
1/2+x,1/2-y,z
loop_
_atom_site_type_symbol
_atom_site_label
_atom_site_fract_x
_atom_site_fract_y
_atom_site_fract_z
Si Si1 0.793688 0.203716 0.065025
Si Si2 0.155540 0.033484 0.343708
Si Si3 0.214102 0.575736 0.844991
Si Si4 0.907414 0.219137 0.356082
Si Si5 0.662323 0.102073 0.933749
Si Si6 0.134904 0.272390 0.726906
Si Si7 0.484392 0.862490 0.319793
O O1 0.839473 0.114042 0.096692
O O2 0.780464 0.316034 0.107467
O O3 0.731100 0.136223 0.060499
O O4 0.812705 0.242637 0.000000
O O5 0.143102 0.131748 0.292428
O O6 0.221746 0.981326 0.334968
O O7 0.109286 0.923582 0.351357
O O8 0.166451 0.488933 0.877738
O O9 0.190264 0.641438 0.786485
O O10 0.875537 0.282520 0.411535
O O11 0.881032 0.275441 0.295303
O O12 0.975369 0.262453 0.352827
O O13 0.643252 0.060986 0.000000
O O14 0.083753 0.325332 0.683943
O O15 0.500000 0.860116 0.250000
O O16 0.500000 0.000000 0.341069
#
# Coordination Sequence:
#
# PCOD9526315 Si02
#       7
#    16  16  16  16  16  16  16
#     4   9  18  34  54  76 110 155 199 232 276 343
#     4  10  21  35  51  85 119 151 185 238 298 350
#     4  10  19  36  54  81 118 150 188 235 296 349
#     4  11  21  37  57  83 115 151 196 240 294 352
#     4  10  20  33  53  81 109 144 193 241 283 339
#     4  10  22  38  56  83 117 154 195 236 292 358
#     4   9  19  37  61  83 105 148 202 245 282 344
#
# _framework density 19.964388
#
# number of rings (size 3 to 8) (size 9 to 14) (size 15 to 20)
#    0.000    2.143    1.429    1.714    0.000    4.000 
#    5.143    2.143    0.000    7.286    0.000    5.000 
#    0.000    0.000    0.000    0.000    0.000    0.000 
#
# Total GULP energy -312198.088067 kJ/mol
# GULP energy per Si atom -5574.965858 kJ/mol
# Density = 1.991895 g / cm^3
# Si number density = 19.964388 Si / 1000 Ang^3
#
#
#
# Elastic Constant Matrix: (Units=GPa)
#
#
# Indices 1 2 3 4 5 6 
#
# 1 50.7140 34.9384 8.3329 0.0000 0.0000 0.0000
# 2 34.9384 92.3978 6.3600 0.0000 0.0000 0.0000
# 3 8.3329 6.3600 50.6235 0.0000 0.0000 0.0000
# 4 0.0000 0.0000 0.0000 13.8133 0.0000 0.0000
# 5 0.0000 0.0000 0.0000 0.0000 -21.1719 0.0000
# 6 0.0000 0.0000 0.0000 0.0000 0.0000 25.5389
#
#
#
# Elastic Compliance Matrix: (Units=1/GPa)
#
#
# Indices 1 2 3 4 5 6 
#
# 1 0.027172 -0.010054 -0.003210 0.000000 0.000000 0.000000
# 2 -0.010054 0.014637 -0.000184 0.000000 0.000000 0.000000
# 3 -0.003210 -0.000184 0.020305 0.000000 0.000000 0.000000
# 4 0.000000 0.000000 0.000000 0.072394 0.000000 0.000000
# 5 0.000000 0.000000 0.000000 0.000000 -0.047232 0.000000
# 6 0.000000 0.000000 0.000000 0.000000 0.000000 0.039156
#
#
# Mechanical properties :
#
#
# Convention : Reuss Voigt Hill
#
# Bulk Modulus (GPa) = 28.39321 32.55532 30.47426
# Shear Modulus (GPa) = 30.29094 13.24300 21.76697
#
# Velocity S-wave (km/s) = 3.89941 2.57832 3.30554
# Velocity P-wave (km/s) = 5.87594 5.02053 5.46500
#
# Compressibility (1/GPa) = 0.03521969
#
# Stress axis : x y z
#
# Youngs Moduli (GPa) = 36.80254 68.31995 49.24870
#
# Poissons Ratio (x) = 0.68686 0.15807
# Poissons Ratio (y) = 0.37000 0.00906
# Poissons Ratio (z) = 0.11812 0.01257
#
# Static dielectric constant tensor:
#      x y z
#    x 1.735350 0.000000 0.000000 
#    y 0.000000 1.750880 0.000000 
#    z 0.000000 0.000000 1.736670 
# 
# From -- ./inp_files/45438.got.cif
#   From: 2010.05.17/outbox.cif.g08.bks.cpg/sg72_23_cif.got.tgz:45438.got - 2010.06.03 17:03:01.
