data_PCOD9526423
_publ_section_title
;
Structure prediction by ZEFSAII (Michael W. Deem and Ramdas Pophale) SiO2 
 PCOD9526423
Probable space group: I B A M
;
_chemical_formula_sum "Si O2"
_cell_formula_units_Z 80
_cell_length_a 23.418442
_cell_length_b 11.330404
_cell_length_c 14.842503
_cell_angle_alpha 90.000000
_cell_angle_beta 90.000000
_cell_angle_gamma 90.000000
_cell_volume 3938.315815
_symmetry_space_group_name_H-M "I B A M"
_symmetry_group_IT_number 72
_symmetry_cell_setting 'orthorhombic'
loop_
_space_group_symop_operation_xyz
x,y,z
-x,-y,z
x,-y,1/2-z
-x,y,1/2-z
-x,-y,-z
x,y,-z
-x,y,1/2+z
x,-y,1/2+z
1/2+x,1/2+y,1/2+z
1/2-x,1/2-y,1/2+z
1/2+x,1/2-y,-z
1/2-x,1/2+y,-z
1/2-x,1/2-y,1/2-z
1/2+x,1/2+y,1/2-z
1/2-x,1/2+y,z
1/2+x,1/2-y,z
loop_
_atom_site_type_symbol
_atom_site_label
_atom_site_fract_x
_atom_site_fract_y
_atom_site_fract_z
Si Si1 0.649636 0.277906 0.601591
Si Si2 0.847547 0.616838 0.771567
Si Si3 0.154809 0.828110 0.399037
Si Si4 0.435088 0.476979 0.142941
Si Si5 0.254655 0.518057 0.605323
O O1 0.648960 0.230681 0.500000
O O2 0.662280 0.180973 0.676480
O O3 0.590719 0.348519 0.621186
O O4 0.698166 0.378231 0.607321
O O5 0.884509 0.500000 0.750000
O O6 0.866224 0.723692 0.835644
O O7 0.794795 0.561991 0.828920
O O8 0.166951 0.784625 0.500000
O O9 0.106566 0.927765 0.401381
O O10 0.211609 0.898317 0.366233
O O11 0.500000 0.500000 0.115306
O O12 0.430952 0.500000 0.250000
O O13 0.237463 0.504027 0.500000
#
# Coordination Sequence:
#
# PCOD9526423 Si02
#       5
#    16  16  16  16  16
#     4  10  22  39  57  86 122 151 194 249 297 352
#     4  12  25  36  57  81 119 169 203 233 290 351
#     4  10  22  40  60  88 122 151 198 255 299 356
#     4  10  19  37  69  97 116 145 191 252 320 363
#     4   9  21  37  57  84 113 152 200 248 294 345
#
# _framework density 20.313251999999999
#
# number of rings (size 3 to 8) (size 9 to 14) (size 15 to 20)
#    0.000    1.800    2.000    3.000    5.600    3.200 
#    0.000    0.000    0.000    2.400    0.000    2.800 
#    0.000    0.000    0.000    0.000    0.000    0.000 
#
# Total GULP energy -223312.381415 kJ/mol
# GULP energy per Si atom -5582.809535 kJ/mol
# Density = 2.026702 g / cm^3
# Si number density = 20.313252 Si / 1000 Ang^3
#
#
#
# Elastic Constant Matrix: (Units=GPa)
#
#
# Indices 1 2 3 4 5 6 
#
# 1 72.7404 18.8137 11.2780 0.0000 0.0000 0.0000
# 2 18.8137 123.6808 48.4851 0.0000 0.0000 0.0000
# 3 11.2780 48.4851 115.2855 0.0000 0.0000 0.0000
# 4 0.0000 0.0000 0.0000 -9.2307 0.0000 0.0000
# 5 0.0000 0.0000 0.0000 0.0000 15.6850 0.0000
# 6 0.0000 0.0000 0.0000 0.0000 0.0000 12.3183
#
#
#
# Elastic Compliance Matrix: (Units=1/GPa)
#
#
# Indices 1 2 3 4 5 6 
#
# 1 0.014343 -0.001954 -0.000581 0.000000 0.000000 0.000000
# 2 -0.001954 0.009948 -0.003993 0.000000 0.000000 0.000000
# 3 -0.000581 -0.003993 0.010410 0.000000 0.000000 0.000000
# 4 0.000000 0.000000 0.000000 -0.108334 0.000000 0.000000
# 5 0.000000 0.000000 0.000000 0.000000 0.063755 0.000000
# 6 0.000000 0.000000 0.000000 0.000000 0.000000 0.081180
#
#
# Mechanical properties :
#
#
# Convention : Reuss Voigt Hill
#
# Bulk Modulus (GPa) = 46.19953 52.09560 49.14757
# Shear Modulus (GPa) = 54.60129 19.29650 36.94890
#
# Velocity S-wave (km/s) = 5.19018 3.08546 4.26955
# Velocity P-wave (km/s) = 7.66226 6.19639 6.96798
#
# Compressibility (1/GPa) = 0.02164524
#
# Stress axis : x y z
#
# Youngs Moduli (GPa) = 69.72033 100.52602 96.06048
#
# Poissons Ratio (x) = 0.19641 0.05585
# Poissons Ratio (y) = 0.13622 0.38352
# Poissons Ratio (z) = 0.04054 0.40135
#
# Static dielectric constant tensor:
#      x y z
#    x 1.725090 0.000000 0.000000 
#    y 0.000000 1.749760 0.000000 
#    z 0.000000 0.000000 1.769030 
# 
# From -- ./inp_files/20184.got.cif
#   From: 2010.05.17/outbox.cif.g08.bks.cpg/sg72_11_cif.got.tgz:20184.got - 2010.06.03 17:03:01.
