data_PCOD9526479
_publ_section_title
;
Structure prediction by ZEFSAII (Michael W. Deem and Ramdas Pophale) SiO2 
 PCOD9526479
Probable space group: I B A M
;
_chemical_formula_sum "Si O2"
_cell_formula_units_Z 108
_cell_length_a 27.076918
_cell_length_b 5.792236
_cell_length_c 31.879786
_cell_angle_alpha 90.000000
_cell_angle_beta 90.000000
_cell_angle_gamma 90.000000
_cell_volume 4999.894904
_symmetry_space_group_name_H-M "I B A M"
_symmetry_group_IT_number 72
_symmetry_cell_setting 'orthorhombic'
loop_
_space_group_symop_operation_xyz
x,y,z
-x,-y,z
x,-y,1/2-z
-x,y,1/2-z
-x,-y,-z
x,y,-z
-x,y,1/2+z
x,-y,1/2+z
1/2+x,1/2+y,1/2+z
1/2-x,1/2-y,1/2+z
1/2+x,1/2-y,-z
1/2-x,1/2+y,-z
1/2-x,1/2-y,1/2-z
1/2+x,1/2+y,1/2-z
1/2-x,1/2+y,z
1/2+x,1/2-y,z
loop_
_atom_site_type_symbol
_atom_site_label
_atom_site_fract_x
_atom_site_fract_y
_atom_site_fract_z
Si Si1 0.647604 0.321515 0.923493
Si Si2 0.614262 0.700675 0.861459
Si Si3 0.065446 0.815257 0.319017
Si Si4 0.273768 0.096958 0.626072
Si Si5 0.000000 0.000000 0.750000
Si Si6 0.664906 0.956545 0.701046
Si Si7 0.219404 0.077061 0.000000
Si Si8 0.946596 0.428972 0.593190
O O1 0.644333 0.510253 0.886842
O O2 0.676487 0.110513 0.901676
O O3 0.591106 0.239820 0.931892
O O4 0.681943 0.409606 0.960691
O O5 0.572259 0.575509 0.834552
O O6 0.647443 0.825377 0.826844
O O7 0.585783 0.848149 0.896059
O O8 0.119049 0.717508 0.306028
O O9 0.046751 0.681987 0.360207
O O10 0.031743 0.830838 0.279001
O O11 0.247637 0.343006 0.616138
O O12 0.287156 0.120674 0.675257
O O13 0.672228 0.000000 0.750000
O O14 0.250913 0.326318 0.000000
O O15 0.000000 0.500000 0.575755
#
# Coordination Sequence:
#
# PCOD9526479 Si02
#       8
#    16  16  16  16   4  16   8  16
#     4  11  24  46  72 106 141 185 227 299 376 444
#     4  10  19  41  68  89 143 189 238 291 366 432
#     4  10  21  36  54  91 129 185 235 303 364 416
#     4  12  25  43  69  95 129 180 235 288 361 431
#     4  12  20  32  58  92 136 180 248 316 370 424
#     4  11  23  39  60  91 131 186 237 306 358 418
#     4  12  30  50  83 123 153 181 238 306 376 454
#     4  10  21  38  68  99 137 188 243 283 353 446
#
# _framework density 21.600455
#
# number of rings (size 3 to 8) (size 9 to 14) (size 15 to 20)
#    0.000    1.185    4.444    3.556    2.074    3.556 
#    0.000    3.333    0.000    0.889    0.000    0.000 
#    0.000    0.000    0.000    0.000    0.000    0.000 
#
# Total GULP energy -301167.874159 kJ/mol
# GULP energy per Si atom -5577.182855 kJ/mol
# Density = 2.155129 g / cm^3
# Si number density = 21.600455 Si / 1000 Ang^3
#
#
#
# Elastic Constant Matrix: (Units=GPa)
#
#
# Indices 1 2 3 4 5 6 
#
# 1 96.5928 40.8198 12.0770 0.0000 0.0000 0.0000
# 2 40.8198 88.8305 -4.0953 0.0000 0.0000 0.0000
# 3 12.0770 -4.0953 53.4716 0.0000 0.0000 0.0000
# 4 0.0000 0.0000 0.0000 9.7963 0.0000 0.0000
# 5 0.0000 0.0000 0.0000 0.0000 46.8170 0.0000
# 6 0.0000 0.0000 0.0000 0.0000 0.0000 12.1001
#
#
#
# Elastic Compliance Matrix: (Units=1/GPa)
#
#
# Indices 1 2 3 4 5 6 
#
# 1 0.013481 -0.006358 -0.003532 0.000000 0.000000 0.000000
# 2 -0.006358 0.014296 0.002531 0.000000 0.000000 0.000000
# 3 -0.003532 0.002531 0.019693 0.000000 0.000000 0.000000
# 4 0.000000 0.000000 0.000000 0.102080 0.000000 0.000000
# 5 0.000000 0.000000 0.000000 0.000000 0.021360 0.000000
# 6 0.000000 0.000000 0.000000 0.000000 0.000000 0.082644
#
#
# Mechanical properties :
#
#
# Convention : Reuss Voigt Hill
#
# Bulk Modulus (GPa) = 30.53208 37.38865 33.96036
# Shear Modulus (GPa) = 17.90909 26.41557 22.16233
#
# Velocity S-wave (km/s) = 2.88255 3.50082 3.20662
# Velocity P-wave (km/s) = 5.02438 5.80411 5.42826
#
# Compressibility (1/GPa) = 0.03275244
#
# Stress axis : x y z
#
# Youngs Moduli (GPa) = 74.17815 69.95160 50.77943
#
# Poissons Ratio (x) = 0.44473 0.17934
# Poissons Ratio (y) = 0.47160 -0.12851
# Poissons Ratio (z) = 0.26198 -0.17703
#
# Static dielectric constant tensor:
#      x y z
#    x 1.874800 0.000000 0.000000 
#    y 0.000000 1.851710 0.000000 
#    z 0.000000 0.000000 1.791740 
# 
# From -- ./inp_files/52598.got.cif
#   From: 2010.05.17/outbox.cif.g08.bks.cpg/sg72_27_cif.got.tgz:52598.got - 2010.06.03 17:03:01.
