data_PCOD9526874
_publ_section_title
;
Structure prediction by ZEFSAII (Michael W. Deem and Ramdas Pophale) SiO2 
 PCOD9526874
Probable space group: I B A M
;
_chemical_formula_sum "Si O2"
_cell_formula_units_Z 80
_cell_length_a 8.885942
_cell_length_b 16.153216
_cell_length_c 26.623075
_cell_angle_alpha 90.000000
_cell_angle_beta 90.000000
_cell_angle_gamma 90.000000
_cell_volume 3821.384083
_symmetry_space_group_name_H-M "I B A M"
_symmetry_group_IT_number 72
_symmetry_cell_setting 'orthorhombic'
loop_
_space_group_symop_operation_xyz
x,y,z
-x,-y,z
x,-y,1/2-z
-x,y,1/2-z
-x,-y,-z
x,y,-z
-x,y,1/2+z
x,-y,1/2+z
1/2+x,1/2+y,1/2+z
1/2-x,1/2-y,1/2+z
1/2+x,1/2-y,-z
1/2-x,1/2+y,-z
1/2-x,1/2-y,1/2-z
1/2+x,1/2+y,1/2-z
1/2-x,1/2+y,z
1/2+x,1/2-y,z
loop_
_atom_site_type_symbol
_atom_site_label
_atom_site_fract_x
_atom_site_fract_y
_atom_site_fract_z
Si Si1 0.089694 0.921081 0.942950
Si Si2 0.809884 0.344573 0.369340
Si Si3 0.392150 0.074904 0.114757
Si Si4 0.177712 0.019050 0.307381
Si Si5 0.307457 0.693683 0.942621
O O1 0.237809 0.900887 0.913255
O O2 0.975366 0.843948 0.941088
O O3 0.126846 0.940259 0.000000
O O4 0.000000 0.000000 0.922425
O O5 0.719967 0.385673 0.322642
O O6 0.789788 0.255412 0.395379
O O7 0.986469 0.360731 0.362279
O O8 0.305422 0.118649 0.069417
O O9 0.500000 0.000000 0.098900
O O10 0.276389 0.040145 0.156272
O O11 0.219397 0.000000 0.250000
O O12 0.000000 0.000000 0.312417
O O13 0.282536 0.726253 0.000000
#
# Coordination Sequence:
#
# PCOD9526874 Si02
#       5
#    16  16  16  16  16
#     4  10  20  35  56  81 116 166 215 254 302 370
#     4  11  21  35  58  89 124 160 202 260 318 372
#     4  10  22  38  61  92 124 162 213 266 315 377
#     4  10  22  43  69  91 116 159 209 259 320 387
#     4  11  23  38  58  89 131 173 212 260 317 373
#
# _framework density 20.934823999999999
#
# number of rings (size 3 to 8) (size 9 to 14) (size 15 to 20)
#    0.000    1.600    0.000    6.000    0.000    7.200 
#    0.000    4.000    0.000    4.800    0.000    0.000 
#    0.000    0.000    0.000    0.000    0.000    0.000 
#
# Total GULP energy -223016.811251 kJ/mol
# GULP energy per Si atom -5575.420281 kJ/mol
# Density = 2.088718 g / cm^3
# Si number density = 20.934824 Si / 1000 Ang^3
#
#
#
# Elastic Constant Matrix: (Units=GPa)
#
#
# Indices 1 2 3 4 5 6 
#
# 1 116.9949 20.8841 24.7595 0.0000 0.0000 0.0000
# 2 20.8841 78.5617 40.0534 0.0000 0.0000 0.0000
# 3 24.7595 40.0534 110.7964 0.0000 0.0000 0.0000
# 4 0.0000 0.0000 0.0000 29.3043 0.0000 0.0000
# 5 0.0000 0.0000 0.0000 0.0000 -248.9330 0.0000
# 6 0.0000 0.0000 0.0000 0.0000 0.0000 23.1204
#
#
#
# Elastic Compliance Matrix: (Units=1/GPa)
#
#
# Indices 1 2 3 4 5 6 
#
# 1 0.009154 -0.001705 -0.001429 0.000000 0.000000 0.000000
# 2 -0.001705 0.015922 -0.005375 0.000000 0.000000 0.000000
# 3 -0.001429 -0.005375 0.011288 0.000000 0.000000 0.000000
# 4 0.000000 0.000000 0.000000 0.034125 0.000000 0.000000
# 5 0.000000 0.000000 0.000000 0.000000 -0.004017 0.000000
# 6 0.000000 0.000000 0.000000 0.000000 0.000000 0.043252
#
#
# Mechanical properties :
#
#
# Convention : Reuss Voigt Hill
#
# Bulk Modulus (GPa) = 51.68943 53.08301 52.38622
# Shear Modulus (GPa) = 37.54001 -24.59125 6.47438
#
# Velocity S-wave (km/s) = 4.23920 -3.43105 1.76050
# Velocity P-wave (km/s) = 6.97892 3.11693 5.40465
#
# Compressibility (1/GPa) = 0.01934631
#
# Stress axis : x y z
#
# Youngs Moduli (GPa) = 109.23969 62.80458 88.58883
#
# Poissons Ratio (x) = 0.10706 0.12663
# Poissons Ratio (y) = 0.18622 0.47617
# Poissons Ratio (z) = 0.15615 0.33758
#
# Static dielectric constant tensor:
#      x y z
#    x 1.765260 0.000000 0.000000 
#    y 0.000000 1.871920 0.000000 
#    z 0.000000 0.000000 1.746160 
# 
# From -- ./inp_files/47166.got.cif
#   From: 2010.05.17/outbox.cif.g08.bks.cpg/sg72_24_cif.got.tgz:47166.got - 2010.06.03 17:03:01.
