data_PCOD9526944
_publ_section_title
;
Structure prediction by ZEFSAII (Michael W. Deem and Ramdas Pophale) SiO2 
 PCOD9526944
Probable space group: I B A M
;
_chemical_formula_sum "Si O2"
_cell_formula_units_Z 116
_cell_length_a 28.847978
_cell_length_b 23.190490
_cell_length_c 7.925400
_cell_angle_alpha 90.000000
_cell_angle_beta 90.000000
_cell_angle_gamma 90.000000
_cell_volume 5302.082656
_symmetry_space_group_name_H-M "I B A M"
_symmetry_group_IT_number 72
_symmetry_cell_setting 'orthorhombic'
loop_
_space_group_symop_operation_xyz
x,y,z
-x,-y,z
x,-y,1/2-z
-x,y,1/2-z
-x,-y,-z
x,y,-z
-x,y,1/2+z
x,-y,1/2+z
1/2+x,1/2+y,1/2+z
1/2-x,1/2-y,1/2+z
1/2+x,1/2-y,-z
1/2-x,1/2+y,-z
1/2-x,1/2-y,1/2-z
1/2+x,1/2+y,1/2-z
1/2-x,1/2+y,z
1/2+x,1/2-y,z
loop_
_atom_site_type_symbol
_atom_site_label
_atom_site_fract_x
_atom_site_fract_y
_atom_site_fract_z
Si Si1 0.420234 0.583236 0.701403
Si Si2 0.050309 0.334061 0.302242
Si Si3 0.279918 0.937233 0.700900
Si Si4 0.178998 0.098935 0.204598
Si Si5 0.147117 0.657723 0.302466
Si Si6 0.197853 0.230553 0.203774
Si Si7 0.000000 0.000000 0.750000
Si Si8 0.447803 0.294700 0.202169
O O1 0.432489 0.579077 0.500000
O O2 0.366639 0.567881 0.725157
O O3 0.459701 0.547231 0.799715
O O4 0.419828 0.649944 0.761725
O O5 0.046531 0.326731 0.500000
O O6 0.098235 0.365497 0.265546
O O7 0.058085 0.269576 0.225824
O O8 0.000000 0.357063 0.250000
O O9 0.280063 0.930844 0.500000
O O10 0.226945 0.930439 0.759660
O O11 0.311775 0.886874 0.772242
O O12 0.297738 0.000000 0.750000
O O13 0.184896 0.166143 0.260666
O O14 0.176195 0.098052 0.000000
O O15 0.140771 0.665584 0.500000
O O16 0.163226 0.719766 0.229296
O O17 0.250000 0.250000 0.250000
O O18 0.195605 0.230021 0.000000
O O19 0.500000 0.310182 0.250000
O O20 0.441826 0.292425 0.000000
#
# Coordination Sequence:
#
# PCOD9526944 Si02
#       8
#    16  16  16  16  16  16   4  16
#     4  11  24  40  59  81 108 150 205 261 317 373
#     4  10  20  35  59  90 125 160 198 244 298 363
#     4  11  24  43  64  88 122 162 207 253 302 361
#     4  10  23  41  62  89 121 158 200 255 317 375
#     4  11  22  37  62  94 127 164 204 249 306 371
#     4  10  20  36  60  93 128 161 200 251 312 378
#     4  12  26  44  60  82 114 156 216 282 334 376
#     4   9  18  34  54  79 110 149 193 241 299 362
#
# _framework density 21.878195000000002
#
# number of rings (size 3 to 8) (size 9 to 14) (size 15 to 20)
#    0.000    1.655    2.069    2.276    0.966    4.414 
#    0.000    0.000    0.000    0.414    0.000    2.897 
#    0.000    0.000    0.000    0.000    0.000    0.000 
#
# Total GULP energy -323493.059976 kJ/mol
# GULP energy per Si atom -5577.466551 kJ/mol
# Density = 2.182840 g / cm^3
# Si number density = 21.878195 Si / 1000 Ang^3
#
#
#
# Elastic Constant Matrix: (Units=GPa)
#
#
# Indices 1 2 3 4 5 6 
#
# 1 157.2829 11.7042 6.5033 0.0000 0.0000 0.0000
# 2 11.7042 59.4811 0.3294 0.0000 0.0000 0.0000
# 3 6.5033 0.3294 38.5964 0.0000 0.0000 0.0000
# 4 0.0000 0.0000 0.0000 -5.5416 0.0000 0.0000
# 5 0.0000 0.0000 0.0000 0.0000 21.7362 0.0000
# 6 0.0000 0.0000 0.0000 0.0000 0.0000 9.1479
#
#
#
# Elastic Compliance Matrix: (Units=1/GPa)
#
#
# Indices 1 2 3 4 5 6 
#
# 1 0.006497 -0.001273 -0.001084 0.000000 0.000000 0.000000
# 2 -0.001273 0.017062 0.000069 0.000000 0.000000 0.000000
# 3 -0.001084 0.000069 0.026091 0.000000 0.000000 0.000000
# 4 0.000000 0.000000 0.000000 -0.180454 0.000000 0.000000
# 5 0.000000 0.000000 0.000000 0.000000 0.046006 0.000000
# 6 0.000000 0.000000 0.000000 0.000000 0.000000 0.109315
#
#
# Mechanical properties :
#
#
# Convention : Reuss Voigt Hill
#
# Bulk Modulus (GPa) = 22.18504 32.49270 27.33887
# Shear Modulus (GPa) = 113.32982 20.85673 67.09327
#
# Velocity S-wave (km/s) = 7.20505 3.09092 5.54376
# Velocity P-wave (km/s) = 8.90951 5.25569 7.31443
#
# Compressibility (1/GPa) = 0.04507542
#
# Stress axis : x y z
#
# Youngs Moduli (GPa) = 153.90576 58.60953 38.32708
#
# Poissons Ratio (x) = 0.07458 0.04154
# Poissons Ratio (y) = 0.19585 -0.00264
# Poissons Ratio (z) = 0.16682 -0.00403
#
# Static dielectric constant tensor:
#      x y z
#    x 1.814220 0.000000 0.000000 
#    y 0.000000 1.807620 0.000000 
#    z 0.000000 0.000000 1.784140 
# 
# From -- ./inp_files/8453.got.cif
#   From: 2010.05.17/outbox.cif.g08.bks.cpg/sg72_5_cif.got.tgz:8453.got - 2010.06.03 17:03:01.
