data_PCOD9526624
_publ_section_title
;
Structure prediction by ZEFSAII (Michael W. Deem and Ramdas Pophale) SiO2 
 PCOD9526624
Probable space group: I B A M
;
_chemical_formula_sum "Si O2"
_cell_formula_units_Z 88
_cell_length_a 19.173008
_cell_length_b 12.405767
_cell_length_c 18.603647
_cell_angle_alpha 90.000000
_cell_angle_beta 90.000000
_cell_angle_gamma 90.000000
_cell_volume 4424.986641
_symmetry_space_group_name_H-M "I B A M"
_symmetry_group_IT_number 72
_symmetry_cell_setting 'orthorhombic'
loop_
_space_group_symop_operation_xyz
x,y,z
-x,-y,z
x,-y,1/2-z
-x,y,1/2-z
-x,-y,-z
x,y,-z
-x,y,1/2+z
x,-y,1/2+z
1/2+x,1/2+y,1/2+z
1/2-x,1/2-y,1/2+z
1/2+x,1/2-y,-z
1/2-x,1/2+y,-z
1/2-x,1/2-y,1/2-z
1/2+x,1/2+y,1/2-z
1/2-x,1/2+y,z
1/2+x,1/2-y,z
loop_
_atom_site_type_symbol
_atom_site_label
_atom_site_fract_x
_atom_site_fract_y
_atom_site_fract_z
Si Si1 0.500000 0.674945 0.250000
Si Si2 0.251986 0.312410 0.123957
Si Si3 0.668947 0.066606 0.000000
Si Si4 0.568546 0.627175 0.000000
Si Si5 0.318982 0.183532 0.000000
Si Si6 0.582832 0.733762 0.500000
Si Si7 0.626641 0.692830 0.339280
Si Si8 0.112236 0.944895 0.846791
O O1 0.557180 0.735016 0.299055
O O2 0.452511 0.604800 0.303560
O O3 0.194405 0.263602 0.177068
O O4 0.319688 0.368913 0.157299
O O5 0.214334 0.396739 0.069475
O O6 0.276337 0.215113 0.071503
O O7 0.597802 0.136957 0.000000
O O8 0.659029 0.939628 0.000000
O O9 0.618660 0.730890 0.000000
O O10 0.586746 0.558753 0.929583
O O11 0.492349 0.678721 0.000000
O O12 0.617484 0.699285 0.425256
O O13 0.630731 0.565657 0.323296
#
# Coordination Sequence:
#
# PCOD9526624 Si02
#       8
#     8  16   8   8   8   8  16  16
#     4  12  25  36  54  82 111 142 181 226 272 318
#     4   9  20  33  54  80 108 146 178 216 274 324
#     4   9  17  32  52  81 112 137 178 227 263 317
#     4  10  20  33  55  84 110 142 176 215 279 324
#     4   9  17  32  52  81 112 137 178 227 263 317
#     4  10  20  33  55  84 110 142 176 215 279 324
#     4  11  21  36  56  83 112 140 178 225 270 321
#     4  11  21  36  56  83 112 140 178 225 270 321
#
# _framework density 19.887066000000001
#
# number of rings (size 3 to 8) (size 9 to 14) (size 15 to 20)
#    0.000    1.818    1.818    4.364    0.000    1.818 
#    0.000    0.000    0.000    0.000    0.000   43.273 
#    0.000    0.000    0.000    0.000    0.000    0.000 
#
# Total GULP energy -245633.506424 kJ/mol
# GULP energy per Si atom -5582.579691 kJ/mol
# Density = 1.984180 g / cm^3
# Si number density = 19.887066 Si / 1000 Ang^3
#
#
#
# Elastic Constant Matrix: (Units=GPa)
#
#
# Indices 1 2 3 4 5 6 
#
# 1 140.7249 22.5422 26.5607 0.0000 0.0000 0.0000
# 2 22.5422 81.1533 4.7546 0.0000 0.0000 0.0000
# 3 26.5607 4.7546 74.8530 0.0000 0.0000 0.0000
# 4 0.0000 0.0000 0.0000 -173.3380 0.0000 0.0000
# 5 0.0000 0.0000 0.0000 0.0000 27.9872 0.0000
# 6 0.0000 0.0000 0.0000 0.0000 0.0000 17.5984
#
#
#
# Elastic Compliance Matrix: (Units=1/GPa)
#
#
# Indices 1 2 3 4 5 6 
#
# 1 0.007942 -0.002048 -0.002688 0.000000 0.000000 0.000000
# 2 -0.002048 0.012897 -0.000092 0.000000 0.000000 0.000000
# 3 -0.002688 -0.000092 0.014319 0.000000 0.000000 0.000000
# 4 0.000000 0.000000 0.000000 -0.005769 0.000000 0.000000
# 5 0.000000 0.000000 0.000000 0.000000 0.035731 0.000000
# 6 0.000000 0.000000 0.000000 0.000000 0.000000 0.056823
#
#
# Mechanical properties :
#
#
# Convention : Reuss Voigt Hill
#
# Bulk Modulus (GPa) = 39.21542 44.93847 42.07695
# Shear Modulus (GPa) = 35.68888 -9.35890 13.16499
#
# Velocity S-wave (km/s) = 4.24084 -2.17169 2.57570
# Velocity P-wave (km/s) = 6.61374 4.04445 5.48175
#
# Compressibility (1/GPa) = 0.02550017
#
# Stress axis : x y z
#
# Youngs Moduli (GPa) = 125.92069 77.53873 69.83664
#
# Poissons Ratio (x) = 0.15884 0.18771
# Poissons Ratio (y) = 0.25794 0.00645
# Poissons Ratio (z) = 0.33845 0.00716
#
# Static dielectric constant tensor:
#      x y z
#    x 1.753430 0.000000 0.000000 
#    y 0.000000 1.666340 0.000000 
#    z 0.000000 0.000000 1.767380 
# 
# From -- ./inp_files/31517.got.cif
#   From: 2010.05.17/outbox.cif.g08.bks.cpg/sg72_16_cif.got.tgz:31517.got - 2010.06.03 17:03:01.
