data_PCOD9526015
_publ_section_title
;
Structure prediction by ZEFSAII (Michael W. Deem and Ramdas Pophale) SiO2 
 PCOD9526015
Probable space group: I B A M
;
_chemical_formula_sum "Si O2"
_cell_formula_units_Z 128
_cell_length_a 19.954106
_cell_length_b 20.804125
_cell_length_c 15.987746
_cell_angle_alpha 90.000000
_cell_angle_beta 90.000000
_cell_angle_gamma 90.000000
_cell_volume 6636.956473
_symmetry_space_group_name_H-M "I B A M"
_symmetry_group_IT_number 72
_symmetry_cell_setting 'orthorhombic'
loop_
_space_group_symop_operation_xyz
x,y,z
-x,-y,z
x,-y,1/2-z
-x,y,1/2-z
-x,-y,-z
x,y,-z
-x,y,1/2+z
x,-y,1/2+z
1/2+x,1/2+y,1/2+z
1/2-x,1/2-y,1/2+z
1/2+x,1/2-y,-z
1/2-x,1/2+y,-z
1/2-x,1/2-y,1/2-z
1/2+x,1/2+y,1/2-z
1/2-x,1/2+y,z
1/2+x,1/2-y,z
loop_
_atom_site_type_symbol
_atom_site_label
_atom_site_fract_x
_atom_site_fract_y
_atom_site_fract_z
Si Si1 0.709370 0.588594 0.904002
Si Si2 0.277449 0.551877 0.101274
Si Si3 0.734763 0.782029 0.338679
Si Si4 0.406778 0.244796 0.600532
Si Si5 0.056215 0.263154 0.601480
Si Si6 0.565643 0.386785 0.354128
Si Si7 0.582250 0.393073 0.843988
Si Si8 0.685867 0.833267 0.903637
O O1 0.738236 0.520939 0.872943
O O2 0.730071 0.649823 0.850078
O O3 0.628743 0.584136 0.901353
O O4 0.730563 0.600190 0.000000
O O5 0.353013 0.568739 0.127062
O O6 0.226558 0.606673 0.133550
O O7 0.275865 0.553137 0.000000
O O8 0.750000 0.750000 0.250000
O O9 0.656366 0.788434 0.356990
O O10 0.766450 0.729317 0.401192
O O11 0.399918 0.242604 0.500000
O O12 0.480237 0.218123 0.623433
O O13 0.406038 0.319047 0.629644
O O14 0.060551 0.260338 0.500000
O O15 0.066981 0.190382 0.632545
O O16 0.115141 0.309476 0.633458
O O17 0.576155 0.398728 0.255831
O O18 0.491486 0.410517 0.378992
O O19 0.672254 0.850224 0.000000
#
# Coordination Sequence:
#
# PCOD9526015 Si02
#       8
#    16  16  16  16  16  16  16  16
#     4  11  23  38  55  79 111 148 187 234 285 336
#     4  10  22  37  55  78 108 149 191 232 283 341
#     4  12  23  36  56  85 110 142 184 234 285 341
#     4  10  19  33  55  81 109 144 187 234 281 333
#     4   9  18  32  55  82 109 145 188 234 285 334
#     4  10  20  33  51  78 113 149 186 232 278 332
#     4  10  20  34  51  78 113 149 188 228 278 331
#     4  10  19  35  56  78 107 144 184 229 278 334
#
# _framework density 19.285948999999999
#
# number of rings (size 3 to 8) (size 9 to 14) (size 15 to 20)
#    0.000    1.750    2.500    2.625    0.000    2.500 
#    0.000    2.500    0.000    0.750    0.000    4.375 
#    0.000    2.000    0.000    0.125    0.000    0.000 
#
# Total GULP energy -357359.676921 kJ/mol
# GULP energy per Si atom -5583.744952 kJ/mol
# Density = 1.924205 g / cm^3
# Si number density = 19.285949 Si / 1000 Ang^3
#
#
#
# Elastic Constant Matrix: (Units=GPa)
#
#
# Indices 1 2 3 4 5 6 
#
# 1 117.5165 46.0713 14.8166 0.0000 0.0000 0.0000
# 2 46.0713 101.5587 15.2440 0.0000 0.0000 0.0000
# 3 14.8166 15.2440 35.2091 0.0000 0.0000 0.0000
# 4 0.0000 0.0000 0.0000 -11.5909 0.0000 0.0000
# 5 0.0000 0.0000 0.0000 0.0000 21.1103 0.0000
# 6 0.0000 0.0000 0.0000 0.0000 0.0000 18.2948
#
#
#
# Elastic Compliance Matrix: (Units=1/GPa)
#
#
# Indices 1 2 3 4 5 6 
#
# 1 0.010557 -0.004409 -0.002534 0.000000 0.000000 0.000000
# 2 -0.004409 0.012372 -0.003501 0.000000 0.000000 0.000000
# 3 -0.002534 -0.003501 0.030984 0.000000 0.000000 0.000000
# 4 0.000000 0.000000 0.000000 -0.086274 0.000000 0.000000
# 5 0.000000 0.000000 0.000000 0.000000 0.047370 0.000000
# 6 0.000000 0.000000 0.000000 0.000000 0.000000 0.054660
#
#
# Mechanical properties :
#
#
# Convention : Reuss Voigt Hill
#
# Bulk Modulus (GPa) = 30.27974 45.17204 37.72589
# Shear Modulus (GPa) = 49.22883 17.43964 33.33424
#
# Velocity S-wave (km/s) = 5.05778 3.01037 4.16194
# Velocity P-wave (km/s) = 7.05994 5.96290 6.53448
#
# Compressibility (1/GPa) = 0.03302538
#
# Stress axis : x y z
#
# Youngs Moduli (GPa) = 94.72020 80.82672 32.27477
#
# Poissons Ratio (x) = 0.35636 0.08178
# Poissons Ratio (y) = 0.41762 0.11300
# Poissons Ratio (z) = 0.24001 0.28299
#
# Static dielectric constant tensor:
#      x y z
#    x 1.713920 0.000000 0.000000 
#    y 0.000000 1.668630 0.000000 
#    z 0.000000 0.000000 1.724190 
# 
# From -- ./inp_files/32970.got.cif
#   From: 2010.05.17/outbox.cif.g08.bks.cpg/sg72_17_cif.got.tgz:32970.got - 2010.06.03 17:03:01.
