data_PCOD9526288
_publ_section_title
;
Structure prediction by ZEFSAII (Michael W. Deem and Ramdas Pophale) SiO2 
 PCOD9526288
Probable space group: I B A M
;
_chemical_formula_sum "Si O2"
_cell_formula_units_Z 116
_cell_length_a 14.979745
_cell_length_b 18.682597
_cell_length_c 22.610568
_cell_angle_alpha 90.000000
_cell_angle_beta 90.000000
_cell_angle_gamma 90.000000
_cell_volume 6327.805748
_symmetry_space_group_name_H-M "I B A M"
_symmetry_group_IT_number 72
_symmetry_cell_setting 'orthorhombic'
loop_
_space_group_symop_operation_xyz
x,y,z
-x,-y,z
x,-y,1/2-z
-x,y,1/2-z
-x,-y,-z
x,y,-z
-x,y,1/2+z
x,-y,1/2+z
1/2+x,1/2+y,1/2+z
1/2-x,1/2-y,1/2+z
1/2+x,1/2-y,-z
1/2-x,1/2+y,-z
1/2-x,1/2-y,1/2-z
1/2+x,1/2+y,1/2-z
1/2-x,1/2+y,z
1/2+x,1/2-y,z
loop_
_atom_site_type_symbol
_atom_site_label
_atom_site_fract_x
_atom_site_fract_y
_atom_site_fract_z
Si Si1 0.912127 0.588551 0.214856
Si Si2 0.000000 0.500000 0.500000
Si Si3 0.350529 0.988354 0.899906
Si Si4 0.446684 0.771859 0.858267
Si Si5 0.287498 0.831864 0.068590
Si Si6 0.769419 0.599764 0.315501
Si Si7 0.348383 0.744912 0.657266
Si Si8 0.595995 0.351724 0.770552
O O1 0.901358 0.541041 0.157566
O O2 0.923211 0.669216 0.191348
O O3 0.831528 0.581050 0.259902
O O4 0.000000 0.573047 0.250000
O O5 0.922303 0.510216 0.448589
O O6 0.298030 0.917556 0.922424
O O7 0.291295 0.052327 0.873002
O O8 0.382395 0.795603 0.911905
O O9 0.553678 0.768769 0.867290
O O10 0.420690 0.697670 0.827981
O O11 0.210993 0.800592 0.111362
O O12 0.269757 0.816790 0.000000
O O13 0.793936 0.682801 0.328458
O O14 0.669610 0.592772 0.291524
O O15 0.366288 0.697726 0.716508
O O16 0.500000 0.379880 0.750000
#
# Coordination Sequence:
#
# PCOD9526288 Si02
#       8
#    16   4  16  16  16  16  16  16
#     4  11  19  35  58  93 127 158 194 240 315 393
#     4  12  24  48  58  84 128 182 216 244 306 378
#     4  11  26  38  59  84 130 172 204 249 306 370
#     4  10  19  35  61  91 122 155 195 254 314 366
#     4  11  24  43  58  82 124 171 209 255 300 362
#     4  12  21  36  60  98 125 159 204 251 312 383
#     4  11  21  36  64  93 121 160 202 252 315 373
#     4  10  19  36  61  94 123 153 192 256 323 368
#
# _framework density 18.331789000000001
#
# number of rings (size 3 to 8) (size 9 to 14) (size 15 to 20)
#    0.000    1.103    4.828    3.724    1.931    1.103 
#    1.241    0.000    0.000   14.069    0.000    3.862 
#    0.000    0.000    0.000    0.000    0.000    0.000 
#
# Total GULP energy -323214.717633 kJ/mol
# GULP energy per Si atom -5572.667545 kJ/mol
# Density = 1.829007 g / cm^3
# Si number density = 18.331789 Si / 1000 Ang^3
#
#
#
# Elastic Constant Matrix: (Units=GPa)
#
#
# Indices 1 2 3 4 5 6 
#
# 1 134.3369 36.0810 46.1937 0.0000 0.0000 0.0000
# 2 36.0810 37.0151 27.5985 0.0000 0.0000 0.0000
# 3 46.1937 27.5985 111.4891 0.0000 0.0000 0.0000
# 4 0.0000 0.0000 0.0000 21.0329 0.0000 0.0000
# 5 0.0000 0.0000 0.0000 0.0000 53.6680 0.0000
# 6 0.0000 0.0000 0.0000 0.0000 0.0000 101.8481
#
#
#
# Elastic Compliance Matrix: (Units=1/GPa)
#
#
# Indices 1 2 3 4 5 6 
#
# 1 0.010518 -0.008589 -0.002232 0.000000 0.000000 0.000000
# 2 -0.008589 0.040144 -0.006379 0.000000 0.000000 0.000000
# 3 -0.002232 -0.006379 0.011473 0.000000 0.000000 0.000000
# 4 0.000000 0.000000 0.000000 0.047545 0.000000 0.000000
# 5 0.000000 0.000000 0.000000 0.000000 0.018633 0.000000
# 6 0.000000 0.000000 0.000000 0.000000 0.000000 0.009819
#
#
# Mechanical properties :
#
#
# Convention : Reuss Voigt Hill
#
# Bulk Modulus (GPa) = 36.05346 55.84305 45.94825
# Shear Modulus (GPa) = 27.50634 46.84099 37.17366
#
# Velocity S-wave (km/s) = 3.87780 5.06036 4.50802
# Velocity P-wave (km/s) = 6.30552 8.04186 7.22603
#
# Compressibility (1/GPa) = 0.02773659
#
# Stress axis : x y z
#
# Youngs Moduli (GPa) = 95.07267 24.91035 87.15863
#
# Poissons Ratio (x) = 0.21395 0.19454
# Poissons Ratio (y) = 0.81655 0.55597
# Poissons Ratio (z) = 0.21220 0.15890
#
# Static dielectric constant tensor:
#      x y z
#    x 1.653820 0.000000 0.000000 
#    y 0.000000 1.685170 0.000000 
#    z 0.000000 0.000000 1.601290 
# 
# From -- ./inp_files/44522.got.cif
#   From: 2010.05.17/outbox.cif.g08.bks.cpg/sg72_23_cif.got.tgz:44522.got - 2010.06.03 17:03:01.
