data_PCOD9526856
_publ_section_title
;
Structure prediction by ZEFSAII (Michael W. Deem and Ramdas Pophale) SiO2 
 PCOD9526856
Probable space group: I B A M
;
_chemical_formula_sum "Si O2"
_cell_formula_units_Z 80
_cell_length_a 7.564423
_cell_length_b 26.984744
_cell_length_c 14.490226
_cell_angle_alpha 90.000000
_cell_angle_beta 90.000000
_cell_angle_gamma 90.000000
_cell_volume 2957.803155
_symmetry_space_group_name_H-M "I B A M"
_symmetry_group_IT_number 72
_symmetry_cell_setting 'orthorhombic'
loop_
_space_group_symop_operation_xyz
x,y,z
-x,-y,z
x,-y,1/2-z
-x,y,1/2-z
-x,-y,-z
x,y,-z
-x,y,1/2+z
x,-y,1/2+z
1/2+x,1/2+y,1/2+z
1/2-x,1/2-y,1/2+z
1/2+x,1/2-y,-z
1/2-x,1/2+y,-z
1/2-x,1/2-y,1/2-z
1/2+x,1/2+y,1/2-z
1/2-x,1/2+y,z
1/2+x,1/2-y,z
loop_
_atom_site_type_symbol
_atom_site_label
_atom_site_fract_x
_atom_site_fract_y
_atom_site_fract_z
Si Si1 0.654275 0.460981 0.612529
Si Si2 0.121769 0.887318 0.390260
Si Si3 0.570470 0.180533 0.144116
Si Si4 0.975428 0.569950 0.395037
Si Si5 0.470761 0.714582 0.642824
O O1 0.500000 0.500000 0.637104
O O2 0.666396 0.462211 0.500000
O O3 0.563237 0.409701 0.642916
O O4 0.858472 0.461189 0.644176
O O5 0.129743 0.895797 0.500000
O O6 0.283241 0.919995 0.350209
O O7 0.112986 0.828229 0.380002
O O8 0.500000 0.174744 0.250000
O O9 0.537782 0.127295 0.100208
O O10 0.483797 0.230398 0.102557
O O11 0.776609 0.192816 0.132952
O O12 0.945601 0.552443 0.500000
O O13 0.500000 0.723581 0.750000
#
# Coordination Sequence:
#
# PCOD9526856 Si02
#       5
#    16  16  16  16  16
#     4   9  18  34  56  82 111 143 182 232 287 339
#     4  10  20  35  55  82 114 148 189 234 287 343
#     4  11  21  35  54  80 112 150 196 234 282 344
#     4  10  20  35  55  83 116 147 187 236 286 341
#     4  11  21  35  54  79 113 149 194 238 280 344
#
# _framework density 27.047101000000001
#
# number of rings (size 3 to 8) (size 9 to 14) (size 15 to 20)
#    0.000    1.800    2.000    4.800    0.000    1.600 
#    0.000    4.000    0.000    0.600    0.000    1.400 
#    0.000    0.000    0.000    0.000    0.000    0.000 
#
# Total GULP energy -223475.293220 kJ/mol
# GULP energy per Si atom -5586.882330 kJ/mol
# Density = 2.698554 g / cm^3
# Si number density = 27.047101 Si / 1000 Ang^3
#
#
#
# Elastic Constant Matrix: (Units=GPa)
#
#
# Indices 1 2 3 4 5 6 
#
# 1 207.5635 61.3315 3.4701 0.0000 0.0000 0.0000
# 2 61.3315 148.3281 2.1972 -0.0001 0.0000 0.0000
# 3 3.4701 2.1972 84.1496 -0.0002 0.0000 -0.0001
# 4 0.0000 -0.0001 -0.0002 14.4419 0.0000 0.0000
# 5 0.0000 0.0000 0.0000 0.0000 11.8431 0.0000
# 6 0.0000 0.0000 -0.0001 0.0000 0.0000 84.6646
#
#
#
# Elastic Compliance Matrix: (Units=1/GPa)
#
#
# Indices 1 2 3 4 5 6 
#
# 1 0.005491 -0.002268 -0.000167 0.000000 0.000000 0.000000
# 2 -0.002268 0.007681 -0.000107 0.000000 0.000000 0.000000
# 3 -0.000167 -0.000107 0.011893 0.000000 0.000000 0.000000
# 4 0.000000 0.000000 0.000000 0.069243 0.000000 0.000000
# 5 0.000000 0.000000 0.000000 0.000000 0.084437 0.000000
# 6 0.000000 0.000000 0.000000 0.000000 0.000000 0.011811
#
#
# Mechanical properties :
#
#
# Convention : Reuss Voigt Hill
#
# Bulk Modulus (GPa) = 50.04773 63.78208 56.91490
# Shear Modulus (GPa) = 24.71563 47.05941 35.88752
#
# Velocity S-wave (km/s) = 3.02619 4.17574 3.64655
# Velocity P-wave (km/s) = 5.54568 6.84705 6.23044
#
# Compressibility (1/GPa) = 0.01998093
#
# Stress axis : x y z
#
# Youngs Moduli (GPa) = 182.12585 130.18936 84.08102
#
# Poissons Ratio (x) = 0.29525 0.01406
# Poissons Ratio (y) = 0.41303 0.00900
# Poissons Ratio (z) = 0.03045 0.01393
#
# Static dielectric constant tensor:
#      x y z
#    x 2.110450 0.000000 0.000000 
#    y 0.000000 2.153990 0.000000 
#    z 0.000000 0.000000 2.070680 
# 
# From -- ./inp_files/28200.got.cif
#   From: 2010.05.17/outbox.cif.g08.bks.cpg/sg72_15_cif.got.tgz:28200.got - 2010.06.03 17:03:01.
