data_PCOD9526626
_publ_section_title
;
Structure prediction by ZEFSAII (Michael W. Deem and Ramdas Pophale) SiO2 
 PCOD9526626
Probable space group: I B A M
;
_chemical_formula_sum "Si O2"
_cell_formula_units_Z 72
_cell_length_a 21.674957
_cell_length_b 8.544080
_cell_length_c 20.050951
_cell_angle_alpha 90.000000
_cell_angle_beta 90.000000
_cell_angle_gamma 90.000000
_cell_volume 3713.287079
_symmetry_space_group_name_H-M "I B A M"
_symmetry_group_IT_number 72
_symmetry_cell_setting 'orthorhombic'
loop_
_space_group_symop_operation_xyz
x,y,z
-x,-y,z
x,-y,1/2-z
-x,y,1/2-z
-x,-y,-z
x,y,-z
-x,y,1/2+z
x,-y,1/2+z
1/2+x,1/2+y,1/2+z
1/2-x,1/2-y,1/2+z
1/2+x,1/2-y,-z
1/2-x,1/2+y,-z
1/2-x,1/2-y,1/2-z
1/2+x,1/2+y,1/2-z
1/2-x,1/2+y,z
1/2+x,1/2-y,z
loop_
_atom_site_type_symbol
_atom_site_label
_atom_site_fract_x
_atom_site_fract_y
_atom_site_fract_z
Si Si1 0.878758 0.337477 0.287827
Si Si2 0.810772 0.620094 0.426731
Si Si3 0.431347 0.935052 0.924675
Si Si4 0.745035 0.614962 0.845686
Si Si5 0.354262 0.500000 0.750000
O O1 0.897584 0.500000 0.250000
O O2 0.911352 0.334570 0.360544
O O3 0.804653 0.354772 0.299629
O O4 0.888902 0.167489 0.253944
O O5 0.797128 0.681762 0.500000
O O6 0.882411 0.577337 0.422628
O O7 0.773365 0.461994 0.411971
O O8 0.789739 0.729600 0.367341
O O9 0.500000 0.000000 0.917454
O O10 0.425254 0.865141 0.000000
O O11 0.692800 0.509370 0.812207
#
# Coordination Sequence:
#
# PCOD9526626 Si02
#       5
#    16  16  16  16   8
#     4  11  22  36  60  90 118 159 196 238 295 357
#     4  10  20  33  55  85 111 144 187 235 290 347
#     4   9  20  40  62  83 113 157 205 247 293 349
#     4  11  19  34  52  81 121 151 181 230 294 355
#     4  12  20  34  54  87 121 154 190 232 294 360
#
# _framework density 19.389828000000001
#
# number of rings (size 3 to 8) (size 9 to 14) (size 15 to 20)
#    0.000    1.556    3.333    4.000    0.000    1.333 
#    0.000    0.000    0.000   12.000    0.000   14.000 
#    0.000    0.000    0.000    0.000    0.000    0.000 
#
# Total GULP energy -200543.235063 kJ/mol
# GULP energy per Si atom -5570.645418 kJ/mol
# Density = 1.934570 g / cm^3
# Si number density = 19.389828 Si / 1000 Ang^3
#
#
#
# Elastic Constant Matrix: (Units=GPa)
#
#
# Indices 1 2 3 4 5 6 
#
# 1 65.9509 21.7206 32.0714 0.0000 0.0000 0.0000
# 2 21.7206 100.4348 35.2603 0.0000 0.0000 0.0000
# 3 32.0714 35.2603 93.0078 0.0000 0.0000 0.0000
# 4 0.0000 0.0000 0.0000 28.2614 0.0000 0.0000
# 5 0.0000 0.0000 0.0000 0.0000 18.8285 0.0000
# 6 0.0000 0.0000 0.0000 0.0000 0.0000 5.7955
#
#
#
# Elastic Compliance Matrix: (Units=1/GPa)
#
#
# Indices 1 2 3 4 5 6 
#
# 1 0.018573 -0.002040 -0.005631 0.000000 0.000000 0.000000
# 2 -0.002040 0.011709 -0.003736 0.000000 0.000000 0.000000
# 3 -0.005631 -0.003736 0.014110 0.000000 0.000000 0.000000
# 4 0.000000 0.000000 0.000000 0.035384 0.000000 0.000000
# 5 0.000000 0.000000 0.000000 0.000000 0.053111 0.000000
# 6 0.000000 0.000000 0.000000 0.000000 0.000000 0.172547
#
#
# Mechanical properties :
#
#
# Convention : Reuss Voigt Hill
#
# Bulk Modulus (GPa) = 46.34178 48.61093 47.47636
# Shear Modulus (GPa) = 14.90576 21.93315 18.41945
#
# Velocity S-wave (km/s) = 2.77563 3.36693 3.08548
# Velocity P-wave (km/s) = 5.85013 6.34348 6.10179
#
# Compressibility (1/GPa) = 0.02157880
#
# Stress axis : x y z
#
# Youngs Moduli (GPa) = 53.84177 85.40154 70.87258
#
# Poissons Ratio (x) = 0.17420 0.39909
# Poissons Ratio (y) = 0.10982 0.26477
# Poissons Ratio (z) = 0.30319 0.31904
#
# Static dielectric constant tensor:
#      x y z
#    x 1.644730 0.000000 0.000000 
#    y 0.000000 1.725290 0.000000 
#    z 0.000000 0.000000 1.730570 
# 
# From -- ./inp_files/27964.got.cif
#   From: 2010.05.17/outbox.cif.g08.bks.cpg/sg72_14_cif.got.tgz:27964.got - 2010.06.03 17:03:01.
