data_PCOD9526442
_publ_section_title
;
Structure prediction by ZEFSAII (Michael W. Deem and Ramdas Pophale) SiO2 
 PCOD9526442
Probable space group: I B A M
;
_chemical_formula_sum "Si O2"
_cell_formula_units_Z 80
_cell_length_a 25.729650
_cell_length_b 8.989016
_cell_length_c 16.183085
_cell_angle_alpha 90.000000
_cell_angle_beta 90.000000
_cell_angle_gamma 90.000000
_cell_volume 3742.892443
_symmetry_space_group_name_H-M "I B A M"
_symmetry_group_IT_number 72
_symmetry_cell_setting 'orthorhombic'
loop_
_space_group_symop_operation_xyz
x,y,z
-x,-y,z
x,-y,1/2-z
-x,y,1/2-z
-x,-y,-z
x,y,-z
-x,y,1/2+z
x,-y,1/2+z
1/2+x,1/2+y,1/2+z
1/2-x,1/2-y,1/2+z
1/2+x,1/2-y,-z
1/2-x,1/2+y,-z
1/2-x,1/2-y,1/2-z
1/2+x,1/2+y,1/2-z
1/2-x,1/2+y,z
1/2+x,1/2-y,z
loop_
_atom_site_type_symbol
_atom_site_label
_atom_site_fract_x
_atom_site_fract_y
_atom_site_fract_z
Si Si1 0.458017 0.872935 0.405798
Si Si2 0.723992 0.998583 0.096013
Si Si3 0.794477 0.800964 0.314679
Si Si4 0.120692 0.584705 0.661252
Si Si5 0.415193 0.329739 0.763297
O O1 0.467504 0.820707 0.500000
O O2 0.449016 0.748310 0.335656
O O3 0.500000 0.000000 0.383006
O O4 0.405654 0.970968 0.401449
O O5 0.774959 0.046359 0.145477
O O6 0.678312 0.108564 0.127849
O O7 0.706879 0.832866 0.119255
O O8 0.732095 0.015632 0.000000
O O9 0.750000 0.750000 0.250000
O O10 0.853491 0.820580 0.285460
O O11 0.124602 0.500000 0.750000
O O12 0.085286 0.727451 0.680840
O O13 0.430005 0.500000 0.750000
#
# Coordination Sequence:
#
# PCOD9526442 Si02
#       5
#    16  16  16  16  16
#     4  10  22  43  71  98 128 170 218 276 339 397
#     4  12  23  36  56  89 127 171 224 275 324 386
#     4  12  22  39  59  86 128 177 220 268 325 392
#     4  10  19  38  62  88 122 170 218 266 321 392
#     4  11  23  40  65  98 132 170 221 275 335 396
#
# _framework density 21.373844999999999
#
# number of rings (size 3 to 8) (size 9 to 14) (size 15 to 20)
#    0.000    1.000    6.000    3.000    0.000    4.400 
#    0.000    4.000    0.000    2.400    0.000    0.000 
#    0.000    0.000    0.000    0.000    0.000    0.000 
#
# Total GULP energy -223333.848924 kJ/mol
# GULP energy per Si atom -5583.346223 kJ/mol
# Density = 2.132520 g / cm^3
# Si number density = 21.373845 Si / 1000 Ang^3
#
#
#
# Elastic Constant Matrix: (Units=GPa)
#
#
# Indices 1 2 3 4 5 6 
#
# 1 76.6407 8.1115 12.7961 0.0000 0.0000 0.0000
# 2 8.1115 119.3866 33.3110 0.0000 0.0000 0.0000
# 3 12.7961 33.3110 77.1542 0.0000 0.0000 0.0000
# 4 0.0000 0.0000 0.0000 28.2819 0.0000 0.0000
# 5 0.0000 0.0000 0.0000 0.0000 17.1702 0.0000
# 6 0.0000 0.0000 0.0000 0.0000 0.0000 30.8380
#
#
#
# Elastic Compliance Matrix: (Units=1/GPa)
#
#
# Indices 1 2 3 4 5 6 
#
# 1 0.013431 -0.000331 -0.002085 0.000000 0.000000 0.000000
# 2 -0.000331 0.009532 -0.004060 0.000000 0.000000 0.000000
# 3 -0.002085 -0.004060 0.015060 0.000000 0.000000 0.000000
# 4 0.000000 0.000000 0.000000 0.035358 0.000000 0.000000
# 5 0.000000 0.000000 0.000000 0.000000 0.058240 0.000000
# 6 0.000000 0.000000 0.000000 0.000000 0.000000 0.032428
#
#
# Mechanical properties :
#
#
# Convention : Reuss Voigt Hill
#
# Bulk Modulus (GPa) = 39.88740 42.40209 41.14474
# Shear Modulus (GPa) = 26.97495 29.85556 28.41525
#
# Velocity S-wave (km/s) = 3.55639 3.74147 3.65010
# Velocity P-wave (km/s) = 5.96374 6.20856 6.08738
#
# Compressibility (1/GPa) = 0.02507057
#
# Stress axis : x y z
#
# Youngs Moduli (GPa) = 74.45471 104.91492 66.40184
#
# Poissons Ratio (x) = 0.03471 0.13843
# Poissons Ratio (y) = 0.02464 0.26961
# Poissons Ratio (z) = 0.15521 0.42599
#
# Static dielectric constant tensor:
#      x y z
#    x 1.837910 0.000000 0.000000 
#    y 0.000000 1.817750 0.000000 
#    z 0.000000 0.000000 1.761700 
# 
# From -- ./inp_files/33769.got.cif
#   From: 2010.05.17/outbox.cif.g08.bks.cpg/sg72_17_cif.got.tgz:33769.got - 2010.06.03 17:03:01.
