data_PCOD9526439
_publ_section_title
;
Structure prediction by ZEFSAII (Michael W. Deem and Ramdas Pophale) SiO2 
 PCOD9526439
Probable space group: I B A M
;
_chemical_formula_sum "Si O2"
_cell_formula_units_Z 104
_cell_length_a 11.260972
_cell_length_b 25.284518
_cell_length_c 17.501019
_cell_angle_alpha 90.000000
_cell_angle_beta 90.000000
_cell_angle_gamma 90.000000
_cell_volume 4983.034500
_symmetry_space_group_name_H-M "I B A M"
_symmetry_group_IT_number 72
_symmetry_cell_setting 'orthorhombic'
loop_
_space_group_symop_operation_xyz
x,y,z
-x,-y,z
x,-y,1/2-z
-x,y,1/2-z
-x,-y,-z
x,y,-z
-x,y,1/2+z
x,-y,1/2+z
1/2+x,1/2+y,1/2+z
1/2-x,1/2-y,1/2+z
1/2+x,1/2-y,-z
1/2-x,1/2+y,-z
1/2-x,1/2-y,1/2-z
1/2+x,1/2+y,1/2-z
1/2-x,1/2+y,z
1/2+x,1/2-y,z
loop_
_atom_site_type_symbol
_atom_site_label
_atom_site_fract_x
_atom_site_fract_y
_atom_site_fract_z
Si Si1 0.836956 0.578862 0.860987
Si Si2 0.808116 0.831026 0.287727
Si Si3 0.845428 0.092103 0.343036
Si Si4 0.088956 0.378181 0.408857
Si Si5 0.776687 0.000000 0.250000
Si Si6 0.799391 0.027368 0.000000
Si Si7 0.397834 0.778477 0.687529
Si Si8 0.056510 0.920208 0.500000
O O1 0.765581 0.633537 0.847333
O O2 0.807580 0.544006 0.787160
O O3 0.779044 0.545167 0.928623
O O4 0.973513 0.591743 0.876695
O O5 0.872469 0.871082 0.229643
O O6 0.717596 0.801860 0.229771
O O7 0.880790 0.783819 0.326724
O O8 0.709159 0.100387 0.370333
O O9 0.921814 0.106340 0.417759
O O10 0.854674 0.031792 0.312418
O O11 0.094333 0.383774 0.500000
O O12 0.078434 0.316630 0.383829
O O13 0.923765 0.058304 0.000000
O O14 0.843819 0.967039 0.000000
O O15 0.500000 0.784920 0.750000
#
# Coordination Sequence:
#
# PCOD9526439 Si02
#       8
#    16  16  16  16   8   8  16   8
#     4  11  21  40  60  96 124 165 206 255 314 379
#     4   9  21  36  63  88 119 156 208 252 304 373
#     4  10  21  39  63  91 122 164 205 254 309 371
#     4  11  22  37  63  92 128 160 200 256 321 379
#     4  10  22  37  61  94 128 158 211 253 302 376
#     4  11  24  39  61  82 130 164 204 253 311 362
#     4  10  19  38  61  86 117 161 201 257 310 354
#     4  11  22  43  59  86 126 170 204 257 303 369
#
# _framework density 20.870818
#
# number of rings (size 3 to 8) (size 9 to 14) (size 15 to 20)
#    0.000    1.692    4.615    0.000    0.000    2.462 
#    1.385    4.615    1.692    0.000    0.000    0.000 
#    0.000    0.000    0.000    0.000    0.000    0.000 
#
# Total GULP energy -290328.061363 kJ/mol
# GULP energy per Si atom -5583.231949 kJ/mol
# Density = 2.082331 g / cm^3
# Si number density = 20.870818 Si / 1000 Ang^3
#
#
#
# Elastic Constant Matrix: (Units=GPa)
#
#
# Indices 1 2 3 4 5 6 
#
# 1 66.0852 6.1392 3.1979 0.0000 0.0000 0.0000
# 2 6.1392 65.0875 -8.5927 0.0000 0.0000 0.0000
# 3 3.1979 -8.5927 41.7167 0.0000 0.0000 0.0000
# 4 0.0000 0.0000 0.0000 28.2067 0.0000 0.0000
# 5 0.0000 0.0000 0.0000 0.0000 -48.4489 0.0000
# 6 0.0000 0.0000 0.0000 0.0000 0.0000 40.0033
#
#
#
# Elastic Compliance Matrix: (Units=1/GPa)
#
#
# Indices 1 2 3 4 5 6 
#
# 1 0.015359 -0.001649 -0.001517 0.000000 0.000000 0.000000
# 2 -0.001649 0.015970 0.003416 0.000000 0.000000 0.000000
# 3 -0.001517 0.003416 0.024791 0.000000 0.000000 0.000000
# 4 0.000000 0.000000 0.000000 0.035453 0.000000 0.000000
# 5 0.000000 0.000000 0.000000 0.000000 -0.020640 0.000000
# 6 0.000000 0.000000 0.000000 0.000000 0.000000 0.024998
#
#
# Mechanical properties :
#
#
# Convention : Reuss Voigt Hill
#
# Bulk Modulus (GPa) = 17.66155 19.37536 18.51845
# Shear Modulus (GPa) = 43.74312 15.42855 29.58584
#
# Velocity S-wave (km/s) = 4.58307 2.72185 3.76915
# Velocity P-wave (km/s) = 6.04042 4.37968 5.27580
#
# Compressibility (1/GPa) = 0.05662018
#
# Stress axis : x y z
#
# Youngs Moduli (GPa) = 65.11018 62.61568 40.33702
#
# Poissons Ratio (x) = 0.10325 0.06119
# Poissons Ratio (y) = 0.10736 -0.13779
# Poissons Ratio (z) = 0.09877 -0.21389
#
# Static dielectric constant tensor:
#      x y z
#    x 1.788910 0.000000 0.000000 
#    y 0.000000 1.793200 0.000000 
#    z 0.000000 0.000000 1.763730 
# 
# From -- ./inp_files/29671.got.cif
#   From: 2010.05.17/outbox.cif.g08.bks.cpg/sg72_15_cif.got.tgz:29671.got - 2010.06.03 17:03:01.
