data_PCOD9526472
_publ_section_title
;
Structure prediction by ZEFSAII (Michael W. Deem and Ramdas Pophale) SiO2 
 PCOD9526472
Probable space group: I B A M
;
_chemical_formula_sum "Si O2"
_cell_formula_units_Z 56
_cell_length_a 17.621330
_cell_length_b 13.728603
_cell_length_c 8.704802
_cell_angle_alpha 90.000000
_cell_angle_beta 90.000000
_cell_angle_gamma 90.000000
_cell_volume 2105.833004
_symmetry_space_group_name_H-M "I B A M"
_symmetry_group_IT_number 72
_symmetry_cell_setting 'orthorhombic'
loop_
_space_group_symop_operation_xyz
x,y,z
-x,-y,z
x,-y,1/2-z
-x,y,1/2-z
-x,-y,-z
x,y,-z
-x,y,1/2+z
x,-y,1/2+z
1/2+x,1/2+y,1/2+z
1/2-x,1/2-y,1/2+z
1/2+x,1/2-y,-z
1/2-x,1/2+y,-z
1/2-x,1/2-y,1/2-z
1/2+x,1/2+y,1/2-z
1/2-x,1/2+y,z
1/2+x,1/2-y,z
loop_
_atom_site_type_symbol
_atom_site_label
_atom_site_fract_x
_atom_site_fract_y
_atom_site_fract_z
Si Si1 0.332242 0.372782 0.824607
Si Si2 0.839288 0.355750 0.251586
Si Si3 0.077190 0.929990 0.500000
Si Si4 0.957407 0.292253 0.500000
Si Si5 0.076008 0.562062 0.000000
O O1 0.241931 0.387539 0.815256
O O2 0.333072 0.254509 0.817082
O O3 0.373420 0.416024 0.666108
O O4 0.358559 0.406448 0.000000
O O5 0.909669 0.337083 0.362493
O O6 0.867528 0.437340 0.137702
O O7 0.040464 0.822256 0.500000
O O8 0.000000 0.000000 0.500000
O O9 0.041069 0.330208 0.500000
O O10 0.000000 0.500000 0.000000
#
# Coordination Sequence:
#
# PCOD9526472 Si02
#       5
#    16  16   8   8   8
#     4  10  19  39  77 114 157 217 277 354 411 485
#     4  10  20  39  69 116 149 204 288 330 410 505
#     4  10  23  41  71 121 161 211 277 335 418 508
#     4  10  22  40  68 102 157 204 257 344 407 494
#     4  12  25  41  69 111 161 207 254 333 426 500
#
# _framework density 26.592804000000001
#
# number of rings (size 3 to 8) (size 9 to 14) (size 15 to 20)
#    0.000    1.714    2.857    1.714    4.000    2.857 
#    0.000    0.000    0.000   41.143    0.000    0.000 
#    0.000    0.000    0.000    0.000    0.000    0.000 
#
# Total GULP energy -156059.476403 kJ/mol
# GULP energy per Si atom -5573.552729 kJ/mol
# Density = 2.653228 g / cm^3
# Si number density = 26.592804 Si / 1000 Ang^3
#
#
#
# Elastic Constant Matrix: (Units=GPa)
#
#
# Indices 1 2 3 4 5 6 
#
# 1 214.7891 53.8242 93.1121 0.0000 0.0000 0.0000
# 2 53.8242 93.7712 84.1020 0.0000 0.0000 0.0000
# 3 93.1121 84.1020 220.3118 0.0000 0.0000 0.0000
# 4 0.0000 0.0000 0.0000 36.0096 0.0000 0.0000
# 5 0.0000 0.0000 0.0000 0.0000 299.1634 0.0000
# 6 0.0000 0.0000 0.0000 0.0000 0.0000 58.7092
#
#
#
# Elastic Compliance Matrix: (Units=1/GPa)
#
#
# Indices 1 2 3 4 5 6 
#
# 1 0.005882 -0.001744 -0.001820 0.000000 0.000000 0.000000
# 2 -0.001744 0.016733 -0.005651 0.000000 0.000000 0.000000
# 3 -0.001820 -0.005651 0.007466 0.000000 0.000000 0.000000
# 4 0.000000 0.000000 0.000000 0.027770 0.000000 0.000000
# 5 0.000000 0.000000 0.000000 0.000000 0.003343 0.000000
# 6 0.000000 0.000000 0.000000 0.000000 0.000000 0.017033
#
#
# Mechanical properties :
#
#
# Convention : Reuss Voigt Hill
#
# Bulk Modulus (GPa) = 85.82857 110.10540 97.96699
# Shear Modulus (GPa) = 49.73166 98.63203 74.18185
#
# Velocity S-wave (km/s) = 4.32918 6.09674 5.28735
# Velocity P-wave (km/s) = 7.57194 9.54225 8.61361
#
# Compressibility (1/GPa) = 0.01165113
#
# Stress axis : x y z
#
# Youngs Moduli (GPa) = 170.01790 59.76142 133.94942
#
# Poissons Ratio (x) = 0.10419 0.24382
# Poissons Ratio (y) = 0.29643 0.75693
# Poissons Ratio (z) = 0.30948 0.33770
#
# Static dielectric constant tensor:
#      x y z
#    x 1.908540 0.000000 0.000000 
#    y 0.000000 2.271000 0.000000 
#    z 0.000000 0.000000 2.288490 
# 
# From -- ./inp_files/4209.got.cif
#   From: 2010.05.17/outbox.cif.g08.bks.cpg/sg72_3_cif.got.tgz:4209.got - 2010.06.03 17:03:01.
