data_PCOD9526332
_publ_section_title
;
Structure prediction by ZEFSAII (Michael W. Deem and Ramdas Pophale) SiO2 
 PCOD9526332
Probable space group: I B A M
;
_chemical_formula_sum "Si O2"
_cell_formula_units_Z 120
_cell_length_a 21.073100
_cell_length_b 11.539670
_cell_length_c 23.466951
_cell_angle_alpha 90.000000
_cell_angle_beta 90.000000
_cell_angle_gamma 90.000000
_cell_volume 5706.613823
_symmetry_space_group_name_H-M "I B A M"
_symmetry_group_IT_number 72
_symmetry_cell_setting 'orthorhombic'
loop_
_space_group_symop_operation_xyz
x,y,z
-x,-y,z
x,-y,1/2-z
-x,y,1/2-z
-x,-y,-z
x,y,-z
-x,y,1/2+z
x,-y,1/2+z
1/2+x,1/2+y,1/2+z
1/2-x,1/2-y,1/2+z
1/2+x,1/2-y,-z
1/2-x,1/2+y,-z
1/2-x,1/2-y,1/2-z
1/2+x,1/2+y,1/2-z
1/2-x,1/2+y,z
1/2+x,1/2-y,z
loop_
_atom_site_type_symbol
_atom_site_label
_atom_site_fract_x
_atom_site_fract_y
_atom_site_fract_z
Si Si1 0.528548 0.108846 0.852741
Si Si2 0.824183 0.730685 0.757417
Si Si3 0.949199 0.185246 0.798840
Si Si4 0.204307 0.900427 0.066279
Si Si5 0.932930 0.014534 0.902163
Si Si6 0.871740 0.774539 0.884283
Si Si7 0.751851 0.651603 0.565210
Si Si8 0.388687 0.000000 0.250000
O O1 0.476124 0.194531 0.825876
O O2 0.577127 0.175480 0.892681
O O3 0.500000 0.000000 0.884250
O O4 0.567479 0.054443 0.799265
O O5 0.750000 0.750000 0.750000
O O6 0.878422 0.808071 0.727230
O O7 0.837649 0.743863 0.824825
O O8 0.842890 0.604721 0.733339
O O9 0.948039 0.095459 0.849180
O O10 0.000000 0.156439 0.750000
O O11 0.129909 0.933176 0.068804
O O12 0.212640 0.767761 0.090517
O O13 0.242889 0.017196 0.089179
O O14 0.223280 0.891968 0.000000
O O15 0.910976 0.891393 0.878351
O O16 0.000000 0.000000 0.934381
O O17 0.819828 0.799407 0.931623
O O18 0.773859 0.637506 0.500000
#
# Coordination Sequence:
#
# PCOD9526332 Si02
#       8
#    16  16  16  16  16  16  16   8
#     4  11  18  36  59  80 106 149 208 238 275 350
#     4  11  24  36  52  84 120 151 195 245 303 339
#     4  12  21  37  59  81 114 165 202 243 286 356
#     4   9  20  40  66  89 117 156 198 248 307 372
#     4  11  22  37  57  87 120 151 198 243 296 357
#     4  10  22  38  55  85 113 150 192 238 294 358
#     4   9  19  41  65  86 115 154 195 242 305 367
#     4  10  19  36  58  72 109 154 198 242 275 352
#
# _framework density 21.028233
#
# number of rings (size 3 to 8) (size 9 to 14) (size 15 to 20)
#    0.000    1.600    5.333    0.200    1.867    3.200 
#    9.600    0.000    0.000    0.400    0.000    0.000 
#    0.000    0.000    0.000    0.000    0.000    0.000 
#
# Total GULP energy -334077.103051 kJ/mol
# GULP energy per Si atom -5567.951718 kJ/mol
# Density = 2.098037 g / cm^3
# Si number density = 21.028233 Si / 1000 Ang^3
#
#
#
# Elastic Constant Matrix: (Units=GPa)
#
#
# Indices 1 2 3 4 5 6 
#
# 1 128.1206 38.4658 1.5025 0.0000 0.0000 0.0000
# 2 38.4658 110.7830 7.5633 0.0000 0.0000 0.0000
# 3 1.5025 7.5633 23.8057 0.0000 0.0000 0.0000
# 4 0.0000 0.0000 0.0000 11.9759 0.0000 0.0000
# 5 0.0000 0.0000 0.0000 0.0000 3.7038 0.0000
# 6 0.0000 0.0000 0.0000 0.0000 0.0000 39.8895
#
#
#
# Elastic Compliance Matrix: (Units=1/GPa)
#
#
# Indices 1 2 3 4 5 6 
#
# 1 0.008718 -0.003056 0.000421 0.000000 0.000000 0.000000
# 2 -0.003056 0.010298 -0.003079 0.000000 0.000000 0.000000
# 3 0.000421 -0.003079 0.042958 0.000000 0.000000 0.000000
# 4 0.000000 0.000000 0.000000 0.083501 0.000000 0.000000
# 5 0.000000 0.000000 0.000000 0.000000 0.269990 0.000000
# 6 0.000000 0.000000 0.000000 0.000000 0.000000 0.025069
#
#
# Mechanical properties :
#
#
# Convention : Reuss Voigt Hill
#
# Bulk Modulus (GPa) = 19.78397 39.75250 29.76824
# Shear Modulus (GPa) = 10.66530 25.45905 18.06217
#
# Velocity S-wave (km/s) = 2.25453 3.48330 2.93396
# Velocity P-wave (km/s) = 4.02566 5.92648 5.06602
#
# Compressibility (1/GPa) = 0.05054598
#
# Stress axis : x y z
#
# Youngs Moduli (GPa) = 114.71039 97.10801 23.27837
#
# Poissons Ratio (x) = 0.29672 -0.00979
# Poissons Ratio (y) = 0.35051 0.07167
# Poissons Ratio (z) = -0.04824 0.29898
#
# Static dielectric constant tensor:
#      x y z
#    x 1.838690 0.000000 0.000000 
#    y 0.000000 1.865680 0.000000 
#    z 0.000000 0.000000 1.761940 
# 
# From -- ./inp_files/49532.got.cif
#   From: 2010.05.17/outbox.cif.g08.bks.cpg/sg72_25_cif.got.tgz:49532.got - 2010.06.03 17:03:01.
