data_PCOD9526713
_publ_section_title
;
Structure prediction by ZEFSAII (Michael W. Deem and Ramdas Pophale) SiO2 
 PCOD9526713
Probable space group: I B A M
;
_chemical_formula_sum "Si O2"
_cell_formula_units_Z 116
_cell_length_a 23.359233
_cell_length_b 12.494627
_cell_length_c 15.197842
_cell_angle_alpha 90.000000
_cell_angle_beta 90.000000
_cell_angle_gamma 90.000000
_cell_volume 4435.716686
_symmetry_space_group_name_H-M "I B A M"
_symmetry_group_IT_number 72
_symmetry_cell_setting 'orthorhombic'
loop_
_space_group_symop_operation_xyz
x,y,z
-x,-y,z
x,-y,1/2-z
-x,y,1/2-z
-x,-y,-z
x,y,-z
-x,y,1/2+z
x,-y,1/2+z
1/2+x,1/2+y,1/2+z
1/2-x,1/2-y,1/2+z
1/2+x,1/2-y,-z
1/2-x,1/2+y,-z
1/2-x,1/2-y,1/2-z
1/2+x,1/2+y,1/2-z
1/2-x,1/2+y,z
1/2+x,1/2-y,z
loop_
_atom_site_type_symbol
_atom_site_label
_atom_site_fract_x
_atom_site_fract_y
_atom_site_fract_z
Si Si1 0.796821 0.505740 0.398008
Si Si2 0.671747 0.466657 0.097709
Si Si3 0.674557 0.772777 0.168538
Si Si4 0.941096 0.811312 0.398263
Si Si5 0.500000 0.000000 0.250000
Si Si6 0.701729 0.769942 0.628145
Si Si7 0.538841 0.850335 0.601391
Si Si8 0.942132 0.112233 0.392817
O O1 0.791495 0.537674 0.500000
O O2 0.731745 0.499450 0.358854
O O3 0.830612 0.600382 0.350771
O O4 0.821290 0.386399 0.396933
O O5 0.680289 0.339224 0.087401
O O6 0.608158 0.465919 0.139043
O O7 0.669810 0.515756 0.000000
O O8 0.618706 0.705448 0.147393
O O9 0.690096 0.758225 0.269067
O O10 0.729545 0.733438 0.113525
O O11 0.932258 0.839492 0.500000
O O12 0.973472 0.695925 0.398392
O O13 0.991629 0.887856 0.362300
O O14 0.539190 0.931312 0.317632
O O15 0.550703 0.886255 0.500000
O O16 0.571945 0.739204 0.621749
O O17 0.944145 0.100244 0.500000
#
# Coordination Sequence:
#
# PCOD9526713 Si02
#       8
#    16  16  16  16   4  16  16  16
#     4  10  20  34  54  80 105 136 182 226 271 330
#     4   9  17  33  56  77 104 141 177 221 277 329
#     4  10  20  36  53  73 107 145 176 219 281 331
#     4   8  16  34  54  72 100 139 181 223 276 341
#     4  12  18  28  48  66 100 144 176 220 276 314
#     4  10  21  34  52  79 107 137 181 231 270 321
#     4   8  18  32  45  68 100 135 182 225 269 336
#     4   7  14  32  52  71  98 134 174 218 270 329
#
# _framework density 26.151354000000001
#
# number of rings (size 3 to 8) (size 9 to 14) (size 15 to 20)
#    0.828    2.207    0.000    1.448    0.000    2.759 
#    4.966    0.000    0.000    0.828    0.000    3.862 
#    0.000    6.621    0.000    0.276    0.000    0.000 
#
# Total GULP energy -323792.324290 kJ/mol
# GULP energy per Si atom -5582.626281 kJ/mol
# Density = 2.609183 g / cm^3
# Si number density = 26.151354 Si / 1000 Ang^3
#
#
#
# Elastic Constant Matrix: (Units=GPa)
#
#
# Indices 1 2 3 4 5 6 
#
# 1 138.4317 17.9545 14.9324 0.0000 0.0000 0.0000
# 2 17.9545 134.3183 16.1020 0.0000 0.0000 0.0000
# 3 14.9324 16.1020 97.5175 0.0000 0.0000 0.0000
# 4 0.0000 0.0000 0.0000 -9.6282 0.0000 0.0000
# 5 0.0000 0.0000 0.0000 0.0000 14.4426 0.0000
# 6 0.0000 0.0000 0.0000 0.0000 0.0000 37.5478
#
#
#
# Elastic Compliance Matrix: (Units=1/GPa)
#
#
# Indices 1 2 3 4 5 6 
#
# 1 0.007445 -0.000876 -0.000995 0.000000 0.000000 0.000000
# 2 -0.000876 0.007698 -0.001137 0.000000 0.000000 0.000000
# 3 -0.000995 -0.001137 0.010595 0.000000 0.000000 0.000000
# 4 0.000000 0.000000 0.000000 -0.103861 0.000000 0.000000
# 5 0.000000 0.000000 0.000000 0.000000 0.069239 0.000000
# 6 0.000000 0.000000 0.000000 0.000000 0.000000 0.026633
#
#
# Mechanical properties :
#
#
# Convention : Reuss Voigt Hill
#
# Bulk Modulus (GPa) = 50.70633 52.02726 51.36679
# Shear Modulus (GPa) = 164.80540 29.89102 97.34821
#
# Velocity S-wave (km/s) = 7.94712 3.38450 6.10784
# Velocity P-wave (km/s) = 10.18040 5.93388 8.33221
#
# Compressibility (1/GPa) = 0.01972140
#
# Stress axis : x y z
#
# Youngs Moduli (GPa) = 134.32303 129.89740 94.38652
#
# Poissons Ratio (x) = 0.11377 0.09395
# Poissons Ratio (y) = 0.11764 0.10732
# Poissons Ratio (z) = 0.13370 0.14770
#
# Static dielectric constant tensor:
#      x y z
#    x 2.192960 0.000000 0.000000 
#    y 0.000000 2.095660 0.000000 
#    z 0.000000 0.000000 1.972510 
# 
# From -- ./inp_files/33995.got.cif
#   From: 2010.05.17/outbox.cif.g08.bks.cpg/sg72_17_cif.got.tgz:33995.got - 2010.06.03 17:03:01.
