data_PCOD9526310
_publ_section_title
;
Structure prediction by ZEFSAII (Michael W. Deem and Ramdas Pophale) SiO2 
 PCOD9526310
Probable space group: I B A M
;
_chemical_formula_sum "Si O2"
_cell_formula_units_Z 32
_cell_length_a 19.902911
_cell_length_b 11.710636
_cell_length_c 5.599396
_cell_angle_alpha 90.000000
_cell_angle_beta 90.000000
_cell_angle_gamma 90.000000
_cell_volume 1305.083400
_symmetry_space_group_name_H-M "I B A M"
_symmetry_group_IT_number 72
_symmetry_cell_setting 'orthorhombic'
loop_
_space_group_symop_operation_xyz
x,y,z
-x,-y,z
x,-y,1/2-z
-x,y,1/2-z
-x,-y,-z
x,y,-z
-x,y,1/2+z
x,-y,1/2+z
1/2+x,1/2+y,1/2+z
1/2-x,1/2-y,1/2+z
1/2+x,1/2-y,-z
1/2-x,1/2+y,-z
1/2-x,1/2-y,1/2-z
1/2+x,1/2+y,1/2-z
1/2-x,1/2+y,z
1/2+x,1/2-y,z
loop_
_atom_site_type_symbol
_atom_site_label
_atom_site_fract_x
_atom_site_fract_y
_atom_site_fract_z
Si Si1 0.193360 0.807635 0.500000
Si Si2 0.837489 0.192819 0.000000
Si Si3 0.959933 0.636251 0.500000
Si Si4 0.340925 0.041719 0.500000
O O1 0.170933 0.865581 0.744600
O O2 0.272744 0.779162 0.500000
O O3 0.159643 0.679055 0.500000
O O4 0.906256 0.261630 0.000000
O O5 0.913050 0.522633 0.500000
O O6 0.000000 0.642965 0.250000
O O7 0.309460 0.000000 0.750000
#
# Coordination Sequence:
#
# PCOD9526310 Si02
#       4
#     8   8   8   8
#     4  10  19  36  53  67  98 137 186 218 250 291
#     4  10  20  36  52  69  95 147 179 216 246 294
#     4  12  24  35  50  78 115 146 170 198 258 328
#     4  12  21  35  49  76 106 140 176 213 256 307
#
# _framework density 24.519504000000001
#
# number of rings (size 3 to 8) (size 9 to 14) (size 15 to 20)
#    0.000    1.000    5.000    3.000    0.000    3.000 
#    0.000    0.000    0.000    0.000    0.000    0.000 
#    0.000    6.000    0.000    0.000    0.000    0.000 
#
# Total GULP energy -89455.246969 kJ/mol
# GULP energy per Si atom -5590.952936 kJ/mol
# Density = 2.446370 g / cm^3
# Si number density = 24.519504 Si / 1000 Ang^3
#
#
#
# Elastic Constant Matrix: (Units=GPa)
#
#
# Indices 1 2 3 4 5 6 
#
# 1 145.7187 41.8485 49.3055 0.0000 0.0000 0.0000
# 2 41.8485 84.4308 46.3815 0.0000 0.0000 0.0000
# 3 49.3055 46.3815 297.6126 0.0000 0.0000 0.0000
# 4 0.0000 0.0000 0.0000 2.2438 0.0000 0.0000
# 5 0.0000 0.0000 0.0000 0.0000 40.4012 0.0000
# 6 0.0000 0.0000 0.0000 0.0000 0.0000 41.7026
#
#
#
# Elastic Compliance Matrix: (Units=1/GPa)
#
#
# Indices 1 2 3 4 5 6 
#
# 1 0.008168 -0.003615 -0.000790 0.000000 0.000000 0.000000
# 2 -0.003615 0.014552 -0.001669 0.000000 0.000000 0.000000
# 3 -0.000790 -0.001669 0.003751 0.000000 0.000000 0.000000
# 4 0.000000 0.000000 0.000000 0.445682 0.000000 0.000000
# 5 0.000000 0.000000 0.000000 0.000000 0.024752 0.000000
# 6 0.000000 0.000000 0.000000 0.000000 0.000000 0.023979
#
#
# Mechanical properties :
#
#
# Convention : Reuss Voigt Hill
#
# Bulk Modulus (GPa) = 69.81102 89.20369 79.50735
# Shear Modulus (GPa) = 9.29703 42.88460 26.09082
#
# Velocity S-wave (km/s) = 1.94934 4.18664 3.26557
# Velocity P-wave (km/s) = 5.79655 7.73501 6.83485
#
# Compressibility (1/GPa) = 0.01432439
#
# Stress axis : x y z
#
# Youngs Moduli (GPa) = 122.43147 68.71673 266.59178
#
# Poissons Ratio (x) = 0.24838 0.21057
# Poissons Ratio (y) = 0.44253 0.44497
# Poissons Ratio (z) = 0.09670 0.11470
#
# Static dielectric constant tensor:
#      x y z
#    x 1.984810 0.000000 0.000000 
#    y 0.000000 1.903160 0.000000 
#    z 0.000000 0.000000 2.097810 
# 
# From -- ./inp_files/135.got.cif
#   From: 2010.05.17/outbox.cif.g08.bks.cpg/sg72_1_cif.got.tgz:135.got - 2010.06.03 17:03:01.
