data_PCOD9526269
_publ_section_title
;
Structure prediction by ZEFSAII (Michael W. Deem and Ramdas Pophale) SiO2 
 PCOD9526269
Probable space group: I B A M
;
_chemical_formula_sum "Si O2"
_cell_formula_units_Z 104
_cell_length_a 19.342076
_cell_length_b 14.268530
_cell_length_c 20.855318
_cell_angle_alpha 90.000000
_cell_angle_beta 90.000000
_cell_angle_gamma 90.000000
_cell_volume 5755.713054
_symmetry_space_group_name_H-M "I B A M"
_symmetry_group_IT_number 72
_symmetry_cell_setting 'orthorhombic'
loop_
_space_group_symop_operation_xyz
x,y,z
-x,-y,z
x,-y,1/2-z
-x,y,1/2-z
-x,-y,-z
x,y,-z
-x,y,1/2+z
x,-y,1/2+z
1/2+x,1/2+y,1/2+z
1/2-x,1/2-y,1/2+z
1/2+x,1/2-y,-z
1/2-x,1/2+y,-z
1/2-x,1/2-y,1/2-z
1/2+x,1/2+y,1/2-z
1/2-x,1/2+y,z
1/2+x,1/2-y,z
loop_
_atom_site_type_symbol
_atom_site_label
_atom_site_fract_x
_atom_site_fract_y
_atom_site_fract_z
Si Si1 0.982911 0.710474 0.677890
Si Si2 0.358440 0.964070 0.928046
Si Si3 0.193433 0.166268 0.832509
Si Si4 0.256381 0.527905 0.681462
Si Si5 0.593596 0.251387 0.072100
Si Si6 0.000000 0.500000 0.136872
Si Si7 0.669872 0.270237 0.694781
O O1 0.998694 0.598340 0.674809
O O2 0.903725 0.741414 0.666718
O O3 0.000000 0.742534 0.750000
O O4 0.030996 0.753876 0.622593
O O5 0.298807 0.977563 0.875559
O O6 0.377443 0.854272 0.929572
O O7 0.430842 0.008296 0.905739
O O8 0.338833 0.994300 0.000000
O O9 0.156155 0.190812 0.897751
O O10 0.273721 0.195162 0.828547
O O11 0.163069 0.225862 0.772578
O O12 0.188197 0.055499 0.823259
O O13 0.221417 0.500000 0.750000
O O14 0.294769 0.628302 0.680727
O O15 0.574142 0.278675 0.000000
#
# Coordination Sequence:
#
# PCOD9526269 Si02
#       7
#    16  16  16  16  16   8  16
#     4  11  21  37  59  85 117 154 195 246 301 350
#     4  10  20  36  54  80 120 158 188 235 299 359
#     4  10  19  35  59  82 113 150 189 240 290 344
#     4  10  21  35  59  87 115 148 196 243 290 344
#     4  10  21  37  56  81 117 158 189 230 297 357
#     4  10  22  32  56  90 116 148 200 248 296 360
#     4  10  20  36  58  88 115 144 194 246 290 340
#
# _framework density 18.069004
#
# number of rings (size 3 to 8) (size 9 to 14) (size 15 to 20)
#    0.000    1.846    3.077    1.385    0.000    3.692 
#    0.000    2.308    0.000    0.923    0.000    0.000 
#    0.000    0.000    0.000    0.000    0.000    0.000 
#
# Total GULP energy -289688.894253 kJ/mol
# GULP energy per Si atom -5570.940274 kJ/mol
# Density = 1.802788 g / cm^3
# Si number density = 18.069004 Si / 1000 Ang^3
#
#
#
# Elastic Constant Matrix: (Units=GPa)
#
#
# Indices 1 2 3 4 5 6 
#
# 1 84.0140 8.3805 54.0714 0.0000 0.0000 0.0000
# 2 8.3805 48.7332 11.3226 0.0000 0.0000 0.0000
# 3 54.0714 11.3226 147.9458 0.0000 0.0000 0.0000
# 4 0.0000 0.0000 0.0000 9.7251 0.0000 0.0000
# 5 0.0000 0.0000 0.0000 0.0000 23.9053 0.0000
# 6 0.0000 0.0000 0.0000 0.0000 0.0000 17.6847
#
#
#
# Elastic Compliance Matrix: (Units=1/GPa)
#
#
# Indices 1 2 3 4 5 6 
#
# 1 0.015655 -0.001387 -0.005616 0.000000 0.000000 0.000000
# 2 -0.001387 0.021014 -0.001101 0.000000 0.000000 0.000000
# 3 -0.005616 -0.001101 0.008896 0.000000 0.000000 0.000000
# 4 0.000000 0.000000 0.000000 0.102827 0.000000 0.000000
# 5 0.000000 0.000000 0.000000 0.000000 0.041832 0.000000
# 6 0.000000 0.000000 0.000000 0.000000 0.000000 0.056546
#
#
# Mechanical properties :
#
#
# Convention : Reuss Voigt Hill
#
# Bulk Modulus (GPa) = 34.06327 47.58247 40.82287
# Shear Modulus (GPa) = 18.33083 24.05757 21.19420
#
# Velocity S-wave (km/s) = 3.18856 3.65283 3.42856
# Velocity P-wave (km/s) = 5.69637 6.64694 6.18993
#
# Compressibility (1/GPa) = 0.02935713
#
# Stress axis : x y z
#
# Youngs Moduli (GPa) = 63.87596 47.58655 112.41156
#
# Poissons Ratio (x) = 0.06603 0.63125
# Poissons Ratio (y) = 0.08863 0.12378
# Poissons Ratio (z) = 0.35870 0.05240
#
# Static dielectric constant tensor:
#      x y z
#    x 1.615390 0.000000 0.000000 
#    y 0.000000 1.648870 0.000000 
#    z 0.000000 0.000000 1.656670 
# 
# From -- ./inp_files/32682.got.cif
#   From: 2010.05.17/outbox.cif.g08.bks.cpg/sg72_17_cif.got.tgz:32682.got - 2010.06.03 17:03:01.
