data_PCOD9526958
_publ_section_title
;
Structure prediction by ZEFSAII (Michael W. Deem and Ramdas Pophale) SiO2 
 PCOD9526958
Probable space group: I B A M
;
_chemical_formula_sum "Si O2"
_cell_formula_units_Z 96
_cell_length_a 20.052852
_cell_length_b 13.915702
_cell_length_c 16.369312
_cell_angle_alpha 90.000000
_cell_angle_beta 90.000000
_cell_angle_gamma 90.000000
_cell_volume 4567.848537
_symmetry_space_group_name_H-M "I B A M"
_symmetry_group_IT_number 72
_symmetry_cell_setting 'orthorhombic'
loop_
_space_group_symop_operation_xyz
x,y,z
-x,-y,z
x,-y,1/2-z
-x,y,1/2-z
-x,-y,-z
x,y,-z
-x,y,1/2+z
x,-y,1/2+z
1/2+x,1/2+y,1/2+z
1/2-x,1/2-y,1/2+z
1/2+x,1/2-y,-z
1/2-x,1/2+y,-z
1/2-x,1/2-y,1/2-z
1/2+x,1/2+y,1/2-z
1/2-x,1/2+y,z
1/2+x,1/2-y,z
loop_
_atom_site_type_symbol
_atom_site_label
_atom_site_fract_x
_atom_site_fract_y
_atom_site_fract_z
Si Si1 0.703329 0.363406 0.090564
Si Si2 0.811759 0.094790 0.094553
Si Si3 0.072686 0.610971 0.274603
Si Si4 0.933277 0.743642 0.092305
Si Si5 0.964817 0.900302 0.599988
Si Si6 0.719362 0.116999 0.753611
O O1 0.691426 0.478370 0.091892
O O2 0.634544 0.305020 0.094800
O O3 0.742822 0.345489 0.173909
O O4 0.733509 0.342580 0.000000
O O5 0.887726 0.114119 0.122630
O O6 0.758216 0.132886 0.160575
O O7 0.801246 0.127340 0.000000
O O8 0.072951 0.500000 0.250000
O O9 0.075786 0.639640 0.368850
O O10 0.143198 0.652808 0.245090
O O11 0.000000 0.648469 0.250000
O O12 0.989778 0.812563 0.129352
O O13 0.953308 0.729049 0.000000
O O14 0.965334 0.903542 0.500000
O O15 0.000000 0.000000 0.626663
O O16 0.716877 0.000000 0.750000
#
# Coordination Sequence:
#
# PCOD9526958 Si02
#       6
#    16  16  16  16  16  16
#     4   9  17  32  55  86 123 158 191 236 296 362
#     4   9  16  29  54  88 129 168 194 223 281 361
#     4  10  23  44  61  75 104 151 204 266 325 348
#     4  10  20  35  60  90 119 156 200 242 294 366
#     4   9  15  28  53  89 132 168 188 219 280 358
#     4   9  19  35  56  83 115 154 204 249 298 366
#
# _framework density 21.016459999999999
#
# number of rings (size 3 to 8) (size 9 to 14) (size 15 to 20)
#    0.000    2.667    1.667    0.000    0.000    2.667 
#    0.000    5.000    0.000    4.000    0.000    1.167 
#    0.000    0.000    0.000    0.000    0.000    0.000 
#
# Total GULP energy -267323.526213 kJ/mol
# GULP energy per Si atom -5569.240129 kJ/mol
# Density = 2.096863 g / cm^3
# Si number density = 21.016460 Si / 1000 Ang^3
#
#
#
# Elastic Constant Matrix: (Units=GPa)
#
#
# Indices 1 2 3 4 5 6 
#
# 1 143.1436 12.5992 68.9669 0.0000 0.0000 0.0000
# 2 12.5992 92.3927 31.6131 0.0000 0.0000 0.0000
# 3 68.9669 31.6131 107.2346 0.0000 0.0000 0.0000
# 4 0.0000 0.0000 0.0000 10.1535 0.0000 0.0000
# 5 0.0000 0.0000 0.0000 0.0000 23.5494 0.0000
# 6 0.0000 0.0000 0.0000 0.0000 0.0000 -8.1255
#
#
#
# Elastic Compliance Matrix: (Units=1/GPa)
#
#
# Indices 1 2 3 4 5 6 
#
# 1 0.010197 0.000949 -0.006838 0.000000 0.000000 0.000000
# 2 0.000949 0.012126 -0.004185 0.000000 0.000000 0.000000
# 3 -0.006838 -0.004185 0.014957 0.000000 0.000000 0.000000
# 4 0.000000 0.000000 0.000000 0.098488 0.000000 0.000000
# 5 0.000000 0.000000 0.000000 0.000000 0.042464 0.000000
# 6 0.000000 0.000000 0.000000 0.000000 0.000000 -0.123070
#
#
# Mechanical properties :
#
#
# Convention : Reuss Voigt Hill
#
# Bulk Modulus (GPa) = 58.37065 63.23658 60.80362
# Shear Modulus (GPa) = 61.71235 20.42160 41.06697
#
# Velocity S-wave (km/s) = 5.42472 3.12058 4.42525
# Velocity P-wave (km/s) = 8.18968 6.56799 7.42325
#
# Compressibility (1/GPa) = 0.01713190
#
# Stress axis : x y z
#
# Youngs Moduli (GPa) = 98.06845 82.46782 66.85889
#
# Poissons Ratio (x) = -0.07827 0.45717
# Poissons Ratio (y) = -0.09308 0.27982
# Poissons Ratio (z) = 0.67058 0.34514
#
# Static dielectric constant tensor:
#      x y z
#    x 1.787810 0.000000 0.000000 
#    y 0.000000 1.625370 0.000000 
#    z 0.000000 0.000000 1.765280 
# 
# From -- ./inp_files/24143.got.cif
#   From: 2010.05.17/outbox.cif.g08.bks.cpg/sg72_13_cif.got.tgz:24143.got - 2010.06.03 17:03:01.
