data_PCOD9526888
_publ_section_title
;
Structure prediction by ZEFSAII (Michael W. Deem and Ramdas Pophale) SiO2 
 PCOD9526888
Probable space group: I B A M
;
_chemical_formula_sum "Si O2"
_cell_formula_units_Z 120
_cell_length_a 14.202388
_cell_length_b 18.786963
_cell_length_c 23.730415
_cell_angle_alpha 90.000000
_cell_angle_beta 90.000000
_cell_angle_gamma 90.000000
_cell_volume 6331.743110
_symmetry_space_group_name_H-M "I B A M"
_symmetry_group_IT_number 72
_symmetry_cell_setting 'orthorhombic'
loop_
_space_group_symop_operation_xyz
x,y,z
-x,-y,z
x,-y,1/2-z
-x,y,1/2-z
-x,-y,-z
x,y,-z
-x,y,1/2+z
x,-y,1/2+z
1/2+x,1/2+y,1/2+z
1/2-x,1/2-y,1/2+z
1/2+x,1/2-y,-z
1/2-x,1/2+y,-z
1/2-x,1/2-y,1/2-z
1/2+x,1/2+y,1/2-z
1/2-x,1/2+y,z
1/2+x,1/2-y,z
loop_
_atom_site_type_symbol
_atom_site_label
_atom_site_fract_x
_atom_site_fract_y
_atom_site_fract_z
Si Si1 0.261637 0.118403 0.348560
Si Si2 0.000000 0.000000 0.619758
Si Si3 0.036640 0.575227 0.686582
Si Si4 0.037725 0.713741 0.878088
Si Si5 0.056044 0.140231 0.309105
Si Si6 0.350092 0.774228 0.062953
Si Si7 0.216321 0.650337 0.935018
Si Si8 0.699481 0.496480 0.066807
O O1 0.350641 0.084360 0.316445
O O2 0.170978 0.134724 0.309471
O O3 0.300765 0.184377 0.385430
O O4 0.229353 0.063449 0.396487
O O5 0.021631 0.069589 0.657749
O O6 0.909252 0.016525 0.581883
O O7 0.000000 0.500000 0.661412
O O8 0.000000 0.576705 0.750000
O O9 0.994127 0.644079 0.656187
O O10 0.035586 0.786226 0.842210
O O11 0.140191 0.695255 0.901264
O O12 0.961111 0.721554 0.927434
O O13 0.000000 0.142214 0.250000
O O14 0.313391 0.693864 0.065981
O O15 0.324794 0.801473 0.000000
O O16 0.237364 0.570933 0.915095
O O17 0.184746 0.646248 0.000000
O O18 0.710737 0.506891 0.000000
#
# Coordination Sequence:
#
# PCOD9526888 Si02
#       8
#    16   8  16  16  16  16  16  16
#     4  10  21  40  61  85 120 161 198 260 306 366
#     4  10  22  40  60  88 128 164 206 262 310 372
#     4  10  22  42  60  87 116 156 207 254 309 365
#     4  11  21  38  61  87 122 160 203 259 305 371
#     4  11  23  42  60  89 123 166 218 259 315 369
#     4  10  20  36  58  87 119 155 198 243 309 374
#     4  10  20  35  56  88 122 157 197 245 305 370
#     4  10  20  36  61  92 123 158 199 245 308 377
#
# _framework density 18.952127000000001
#
# number of rings (size 3 to 8) (size 9 to 14) (size 15 to 20)
#    0.000    1.733    1.333    3.200    0.000    0.000 
#   14.400    3.333    0.000    6.400    0.000    0.000 
#    0.000    0.000    0.000    0.000    0.000    0.000 
#
# Total GULP energy -334617.200341 kJ/mol
# GULP energy per Si atom -5576.953339 kJ/mol
# Density = 1.890899 g / cm^3
# Si number density = 18.952127 Si / 1000 Ang^3
#
#
#
# Elastic Constant Matrix: (Units=GPa)
#
#
# Indices 1 2 3 4 5 6 
#
# 1 100.3319 22.9518 30.4637 0.0000 0.0000 0.0000
# 2 22.9518 104.2778 21.8572 0.0000 0.0000 0.0000
# 3 30.4637 21.8572 65.9865 0.0000 0.0000 0.0000
# 4 0.0000 0.0000 0.0000 28.0493 0.0000 0.0000
# 5 0.0000 0.0000 0.0000 0.0000 29.8518 0.0000
# 6 0.0000 0.0000 0.0000 0.0000 0.0000 28.2744
#
#
#
# Elastic Compliance Matrix: (Units=1/GPa)
#
#
# Indices 1 2 3 4 5 6 
#
# 1 0.011825 -0.001567 -0.004940 0.000000 0.000000 0.000000
# 2 -0.001567 0.010513 -0.002759 0.000000 0.000000 0.000000
# 3 -0.004940 -0.002759 0.018349 0.000000 0.000000 0.000000
# 4 0.000000 0.000000 0.000000 0.035652 0.000000 0.000000
# 5 0.000000 0.000000 0.000000 0.000000 0.033499 0.000000
# 6 0.000000 0.000000 0.000000 0.000000 0.000000 0.035368
#
#
# Mechanical properties :
#
#
# Convention : Reuss Voigt Hill
#
# Bulk Modulus (GPa) = 45.13650 46.79351 45.96500
# Shear Modulus (GPa) = 29.21871 30.25666 29.73769
#
# Velocity S-wave (km/s) = 3.93072 3.99993 3.96548
# Velocity P-wave (km/s) = 6.66847 6.78797 6.72849
#
# Compressibility (1/GPa) = 0.02215502
#
# Stress axis : x y z
#
# Youngs Moduli (GPa) = 84.56328 95.12053 54.49846
#
# Poissons Ratio (x) = 0.14908 0.26924
# Poissons Ratio (y) = 0.13254 0.15035
# Poissons Ratio (z) = 0.41776 0.26241
#
# Static dielectric constant tensor:
#      x y z
#    x 1.669420 0.000000 0.000000 
#    y 0.000000 1.653490 0.000000 
#    z 0.000000 0.000000 1.641400 
# 
# From -- ./inp_files/38457.got.cif
#   From: 2010.05.17/outbox.cif.g08.bks.cpg/sg72_20_cif.got.tgz:38457.got - 2010.06.03 17:03:01.
