data_PCOD9526233
_publ_section_title
;
Structure prediction by ZEFSAII (Michael W. Deem and Ramdas Pophale) SiO2 
 PCOD9526233
Probable space group: I B A M
;
_chemical_formula_sum "Si O2"
_cell_formula_units_Z 120
_cell_length_a 25.738787
_cell_length_b 25.018498
_cell_length_c 7.793099
_cell_angle_alpha 90.000000
_cell_angle_beta 90.000000
_cell_angle_gamma 90.000000
_cell_volume 5018.333301
_symmetry_space_group_name_H-M "I B A M"
_symmetry_group_IT_number 72
_symmetry_cell_setting 'orthorhombic'
loop_
_space_group_symop_operation_xyz
x,y,z
-x,-y,z
x,-y,1/2-z
-x,y,1/2-z
-x,-y,-z
x,y,-z
-x,y,1/2+z
x,-y,1/2+z
1/2+x,1/2+y,1/2+z
1/2-x,1/2-y,1/2+z
1/2+x,1/2-y,-z
1/2-x,1/2+y,-z
1/2-x,1/2-y,1/2-z
1/2+x,1/2+y,1/2-z
1/2-x,1/2+y,z
1/2+x,1/2-y,z
loop_
_atom_site_type_symbol
_atom_site_label
_atom_site_fract_x
_atom_site_fract_y
_atom_site_fract_z
Si Si1 0.663071 0.767119 0.187089
Si Si2 0.576106 0.559265 0.295318
Si Si3 0.110884 0.438878 0.795235
Si Si4 0.444380 0.671901 0.305431
Si Si5 0.709314 0.873579 0.698576
Si Si6 0.697278 0.559325 0.703670
Si Si7 0.059552 0.670708 0.706059
Si Si8 0.636636 0.703502 0.500000
O O1 0.698439 0.819715 0.201577
O O2 0.604011 0.791560 0.213210
O O3 0.672919 0.729205 0.347171
O O4 0.669572 0.742683 0.000000
O O5 0.558228 0.500000 0.250000
O O6 0.571940 0.566496 0.500000
O O7 0.550989 0.607663 0.195225
O O8 0.637305 0.562159 0.245398
O O9 0.099071 0.500000 0.750000
O O10 0.168269 0.419066 0.739092
O O11 0.072856 0.390548 0.739428
O O12 0.109908 0.437642 0.000000
O O13 0.500000 0.694946 0.250000
O O14 0.431904 0.688626 0.500000
O O15 0.403537 0.683286 0.153935
O O16 0.696302 0.862629 0.500000
O O17 0.766400 0.896844 0.713297
O O18 0.716355 0.500000 0.750000
O O19 0.699419 0.567356 0.500000
O O20 0.066618 0.676527 0.500000
O O21 0.000000 0.682240 0.750000
#
# Coordination Sequence:
#
# PCOD9526233 Si02
#       8
#    16  16  16  16  16  16  16   8
#     4  11  22  40  63  89 119 164 210 267 338 388
#     4  10  21  41  67 102 144 182 221 262 313 390
#     4   9  19  31  46  66 101 145 188 244 307 369
#     4  12  25  46  71 102 139 176 218 267 327 391
#     4  10  19  35  56  84 125 161 210 272 322 386
#     4  10  20  33  57  96 135 175 222 270 328 393
#     4  10  20  36  49  72 105 138 192 253 310 383
#     4  12  24  46  66  95 130 161 216 276 320 383
#
# _framework density 23.912320999999999
#
# number of rings (size 3 to 8) (size 9 to 14) (size 15 to 20)
#    0.000    1.600    2.667    3.200    0.000    6.933 
#    2.400    2.667    0.000    0.800    0.000    0.000 
#    0.000    0.000    0.000    0.000    0.000    0.000 
#
# Total GULP energy -334688.104882 kJ/mol
# GULP energy per Si atom -5578.135081 kJ/mol
# Density = 2.385790 g / cm^3
# Si number density = 23.912321 Si / 1000 Ang^3
#
#
#
# Elastic Constant Matrix: (Units=GPa)
#
#
# Indices 1 2 3 4 5 6 
#
# 1 75.6923 19.1534 15.1715 0.0000 0.0000 0.0000
# 2 19.1534 84.5915 26.3301 0.0000 0.0000 0.0000
# 3 15.1715 26.3301 152.8878 0.0000 0.0000 0.0000
# 4 0.0000 0.0000 0.0000 33.6959 0.0000 0.0000
# 5 0.0000 0.0000 0.0000 0.0000 11.2999 0.0000
# 6 0.0000 0.0000 0.0000 0.0000 0.0000 50.1312
#
#
#
# Elastic Compliance Matrix: (Units=1/GPa)
#
#
# Indices 1 2 3 4 5 6 
#
# 1 0.014130 -0.002919 -0.000899 0.000000 0.000000 0.000000
# 2 -0.002919 0.013094 -0.001965 0.000000 0.000000 0.000000
# 3 -0.000899 -0.001965 0.006968 0.000000 0.000000 0.000000
# 4 0.000000 0.000000 0.000000 0.029677 0.000000 0.000000
# 5 0.000000 0.000000 0.000000 0.000000 0.088497 0.000000
# 6 0.000000 0.000000 0.000000 0.000000 0.000000 0.019948
#
#
# Mechanical properties :
#
#
# Convention : Reuss Voigt Hill
#
# Bulk Modulus (GPa) = 44.19958 48.27572 46.23765
# Shear Modulus (GPa) = 26.11991 35.85984 30.98987
#
# Velocity S-wave (km/s) = 3.30861 3.87672 3.60388
# Velocity P-wave (km/s) = 5.75500 6.34595 6.05768
#
# Compressibility (1/GPa) = 0.02262465
#
# Stress axis : x y z
#
# Youngs Moduli (GPa) = 70.76929 76.36907 143.50362
#
# Poissons Ratio (x) = 0.22296 0.12907
# Poissons Ratio (y) = 0.20661 0.28204
# Poissons Ratio (z) = 0.06365 0.15009
#
# Static dielectric constant tensor:
#      x y z
#    x 2.022920 0.000000 0.000000 
#    y 0.000000 1.961990 0.000000 
#    z 0.000000 0.000000 1.876160 
# 
# From -- ./inp_files/8587.got.cif
#   From: 2010.05.17/outbox.cif.g08.bks.cpg/sg72_5_cif.got.tgz:8587.got - 2010.06.03 17:03:01.
