data_PCOD9526093
_publ_section_title
;
Structure prediction by ZEFSAII (Michael W. Deem and Ramdas Pophale) SiO2 
 PCOD9526093
Probable space group: I B A M
;
_chemical_formula_sum "Si O2"
_cell_formula_units_Z 68
_cell_length_a 9.752887
_cell_length_b 21.252645
_cell_length_c 18.996419
_cell_angle_alpha 90.000000
_cell_angle_beta 90.000000
_cell_angle_gamma 90.000000
_cell_volume 3937.476007
_symmetry_space_group_name_H-M "I B A M"
_symmetry_group_IT_number 72
_symmetry_cell_setting 'orthorhombic'
loop_
_space_group_symop_operation_xyz
x,y,z
-x,-y,z
x,-y,1/2-z
-x,y,1/2-z
-x,-y,-z
x,y,-z
-x,y,1/2+z
x,-y,1/2+z
1/2+x,1/2+y,1/2+z
1/2-x,1/2-y,1/2+z
1/2+x,1/2-y,-z
1/2-x,1/2+y,-z
1/2-x,1/2-y,1/2-z
1/2+x,1/2+y,1/2-z
1/2-x,1/2+y,z
1/2+x,1/2-y,z
loop_
_atom_site_type_symbol
_atom_site_label
_atom_site_fract_x
_atom_site_fract_y
_atom_site_fract_z
Si Si1 0.000000 0.500000 0.750000
Si Si2 0.841663 0.340516 0.000000
Si Si3 0.861202 0.168792 0.267974
Si Si4 0.110532 0.608057 0.152753
Si Si5 0.142121 0.298127 0.155977
Si Si6 0.116954 0.261412 0.000000
O O1 0.915935 0.456060 0.804531
O O2 0.869580 0.383370 0.931247
O O3 0.690184 0.307791 0.000000
O O4 0.953784 0.281948 0.000000
O O5 0.749111 0.135537 0.315228
O O6 0.902751 0.231702 0.310558
O O7 0.780234 0.185183 0.196859
O O8 0.000000 0.132878 0.250000
O O9 0.977915 0.651732 0.168474
O O10 0.166773 0.291047 0.073232
#
# Coordination Sequence:
#
# PCOD9526093 Si02
#       6
#     4   8  16  16  16   8
#     4  12  24  42  62  76 116 174 214 242 268 342
#     4  10  22  37  58  94 123 151 193 239 306 367
#     4  11  20  31  57  87 113 146 190 251 308 350
#     4  11  22  40  59  84 120 161 202 238 290 352
#     4  10  19  34  53  85 119 148 184 240 306 367
#     4  10  20  30  54  84 122 147 176 237 315 370
#
# _framework density 17.269946999999998
#
# number of rings (size 3 to 8) (size 9 to 14) (size 15 to 20)
#    0.000    1.412    4.706    2.824    3.294    0.471 
#    0.000    0.588    0.000    0.000    0.000    1.647 
#    0.000    0.000    0.000    0.000    0.000    0.000 
#
# Total GULP energy -189295.812975 kJ/mol
# GULP energy per Si atom -5567.523911 kJ/mol
# Density = 1.723064 g / cm^3
# Si number density = 17.269947 Si / 1000 Ang^3
#
#
#
# Elastic Constant Matrix: (Units=GPa)
#
#
# Indices 1 2 3 4 5 6 
#
# 1 91.0855 29.9935 47.9513 0.0000 0.0000 0.0000
# 2 29.9935 71.3781 39.6469 0.0000 0.0000 0.0000
# 3 47.9513 39.6469 167.5824 0.0000 0.0000 0.0000
# 4 0.0000 0.0000 0.0000 22.0826 0.0000 0.0000
# 5 0.0000 0.0000 0.0000 0.0000 8.8105 0.0000
# 6 0.0000 0.0000 0.0000 0.0000 0.0000 -3.4150
#
#
#
# Elastic Compliance Matrix: (Units=1/GPa)
#
#
# Indices 1 2 3 4 5 6 
#
# 1 0.013936 -0.004192 -0.002996 0.000000 0.000000 0.000000
# 2 -0.004192 0.017390 -0.002915 0.000000 0.000000 0.000000
# 3 -0.002996 -0.002915 0.007514 0.000000 0.000000 0.000000
# 4 0.000000 0.000000 0.000000 0.045285 0.000000 0.000000
# 5 0.000000 0.000000 0.000000 0.000000 0.113501 0.000000
# 6 0.000000 0.000000 0.000000 0.000000 0.000000 -0.292826
#
#
# Mechanical properties :
#
#
# Convention : Reuss Voigt Hill
#
# Bulk Modulus (GPa) = 53.66157 62.80327 58.23242
# Shear Modulus (GPa) = -72.69303 19.65923 -26.51690
#
# Velocity S-wave (km/s) = -6.49489 3.37760 -3.92272
# Velocity P-wave (km/s) = 5.01050 7.18718 3.64352
#
# Compressibility (1/GPa) = 0.01863531
#
# Stress axis : x y z
#
# Youngs Moduli (GPa) = 71.75529 57.50292 133.08440
#
# Poissons Ratio (x) = 0.24105 0.39871
# Poissons Ratio (y) = 0.30080 0.38791
# Poissons Ratio (z) = 0.21497 0.16761
#
# Static dielectric constant tensor:
#      x y z
#    x 1.608610 0.000000 0.000000 
#    y 0.000000 1.597340 0.000000 
#    z 0.000000 0.000000 1.634270 
# 
# From -- ./inp_files/27830.got.cif
#   From: 2010.05.17/outbox.cif.g08.bks.cpg/sg72_14_cif.got.tgz:27830.got - 2010.06.03 17:03:01.
