data_PCOD9526171
_publ_section_title
;
Structure prediction by ZEFSAII (Michael W. Deem and Ramdas Pophale) SiO2 
 PCOD9526171
Probable space group: I B A M
;
_chemical_formula_sum "Si O2"
_cell_formula_units_Z 96
_cell_length_a 28.903020
_cell_length_b 20.535053
_cell_length_c 8.745240
_cell_angle_alpha 90.000000
_cell_angle_beta 90.000000
_cell_angle_gamma 90.000000
_cell_volume 5190.518987
_symmetry_space_group_name_H-M "I B A M"
_symmetry_group_IT_number 72
_symmetry_cell_setting 'orthorhombic'
loop_
_space_group_symop_operation_xyz
x,y,z
-x,-y,z
x,-y,1/2-z
-x,y,1/2-z
-x,-y,-z
x,y,-z
-x,y,1/2+z
x,-y,1/2+z
1/2+x,1/2+y,1/2+z
1/2-x,1/2-y,1/2+z
1/2+x,1/2-y,-z
1/2-x,1/2+y,-z
1/2-x,1/2-y,1/2-z
1/2+x,1/2+y,1/2-z
1/2-x,1/2+y,z
1/2+x,1/2-y,z
loop_
_atom_site_type_symbol
_atom_site_label
_atom_site_fract_x
_atom_site_fract_y
_atom_site_fract_z
Si Si1 0.775361 0.849970 0.824023
Si Si2 0.133507 0.072270 0.184815
Si Si3 0.408808 0.803307 0.679197
Si Si4 0.050603 0.170397 0.815817
Si Si5 0.812157 0.701474 0.172927
Si Si6 0.948407 0.565850 0.817967
O O1 0.817735 0.894612 0.767885
O O2 0.793723 0.775613 0.827809
O O3 0.729276 0.846085 0.723104
O O4 0.764306 0.868090 0.000000
O O5 0.090189 0.118160 0.229138
O O6 0.129012 0.000000 0.250000
O O7 0.133931 0.070231 0.000000
O O8 0.419636 0.805952 0.500000
O O9 0.433413 0.740486 0.752611
O O10 0.354207 0.799053 0.709843
O O11 0.424514 0.868820 0.762062
O O12 0.000000 0.154206 0.750000
O O13 0.048640 0.172906 0.000000
O O14 0.828146 0.686690 0.000000
O O15 0.926341 0.500000 0.750000
O O16 0.000000 0.568685 0.750000
O O17 0.950079 0.561900 0.000000
#
# Coordination Sequence:
#
# PCOD9526171 Si02
#       6
#    16  16  16  16  16  16
#     4   9  18  36  57  83 115 149 188 236 290 349
#     4  10  22  40  61  84 119 158 200 249 302 361
#     4  12  23  37  59  89 120 157 198 243 295 353
#     4  11  23  41  60  86 119 155 200 256 306 357
#     4  10  19  34  58  87 117 147 187 239 290 345
#     4  11  22  39  60  84 116 154 195 238 287 348
#
# _framework density 18.495259000000001
#
# number of rings (size 3 to 8) (size 9 to 14) (size 15 to 20)
#    0.000    1.500    1.667    5.000    0.000    3.000 
#    0.000    2.500    0.000    2.000    0.000    0.000 
#    0.000    0.000    0.000    0.000    0.000    0.000 
#
# Total GULP energy -268038.622640 kJ/mol
# GULP energy per Si atom -5584.137972 kJ/mol
# Density = 1.845316 g / cm^3
# Si number density = 18.495259 Si / 1000 Ang^3
#
#
#
# Elastic Constant Matrix: (Units=GPa)
#
#
# Indices 1 2 3 4 5 6 
#
# 1 53.3984 18.9233 11.0129 0.0000 0.0000 0.0000
# 2 18.9233 99.2209 30.2561 0.0000 0.0000 0.0000
# 3 11.0129 30.2561 92.8705 0.0000 0.0000 0.0000
# 4 0.0000 0.0000 0.0000 32.6151 0.0000 0.0000
# 5 0.0000 0.0000 0.0000 0.0000 30.2821 0.0000
# 6 0.0000 0.0000 0.0000 0.0000 0.0000 -1.3139
#
#
#
# Elastic Compliance Matrix: (Units=1/GPa)
#
#
# Indices 1 2 3 4 5 6 
#
# 1 0.020218 -0.003470 -0.001267 0.000000 0.000000 0.000000
# 2 -0.003470 0.011786 -0.003428 0.000000 0.000000 0.000000
# 3 -0.001267 -0.003428 0.012035 0.000000 0.000000 0.000000
# 4 0.000000 0.000000 0.000000 0.030661 0.000000 0.000000
# 5 0.000000 0.000000 0.000000 0.000000 0.033023 0.000000
# 6 0.000000 0.000000 0.000000 0.000000 0.000000 -0.761065
#
#
# Mechanical properties :
#
#
# Convention : Reuss Voigt Hill
#
# Bulk Modulus (GPa) = 36.08986 40.65272 38.37129
# Shear Modulus (GPa) = -7.96461 24.66982 8.35260
#
# Velocity S-wave (km/s) = -2.07741 3.65615 2.12741
# Velocity P-wave (km/s) = 3.71500 6.31277 5.17939
#
# Compressibility (1/GPa) = 0.02770861
#
# Stress axis : x y z
#
# Youngs Moduli (GPa) = 49.46082 84.84924 83.09230
#
# Poissons Ratio (x) = 0.29439 0.10529
# Poissons Ratio (y) = 0.17161 0.28486
# Poissons Ratio (z) = 0.06268 0.29088
#
# Static dielectric constant tensor:
#      x y z
#    x 1.757020 0.000000 0.000000 
#    y 0.000000 1.626420 0.000000 
#    z 0.000000 0.000000 1.629920 
# 
# From -- ./inp_files/5935.got.cif
#   From: 2010.05.17/outbox.cif.g08.bks.cpg/sg72_3_cif.got.tgz:5935.got - 2010.06.03 17:03:01.
