data_PCOD9526817
_publ_section_title
;
Structure prediction by ZEFSAII (Michael W. Deem and Ramdas Pophale) SiO2 
 PCOD9526817
Probable space group: I B A M
;
_chemical_formula_sum "Si O2"
_cell_formula_units_Z 76
_cell_length_a 17.314919
_cell_length_b 8.082353
_cell_length_c 27.773359
_cell_angle_alpha 90.000000
_cell_angle_beta 90.000000
_cell_angle_gamma 90.000000
_cell_volume 3886.750711
_symmetry_space_group_name_H-M "I B A M"
_symmetry_group_IT_number 72
_symmetry_cell_setting 'orthorhombic'
loop_
_space_group_symop_operation_xyz
x,y,z
-x,-y,z
x,-y,1/2-z
-x,y,1/2-z
-x,-y,-z
x,y,-z
-x,y,1/2+z
x,-y,1/2+z
1/2+x,1/2+y,1/2+z
1/2-x,1/2-y,1/2+z
1/2+x,1/2-y,-z
1/2-x,1/2+y,-z
1/2-x,1/2-y,1/2-z
1/2+x,1/2+y,1/2-z
1/2-x,1/2+y,z
1/2+x,1/2-y,z
loop_
_atom_site_type_symbol
_atom_site_label
_atom_site_fract_x
_atom_site_fract_y
_atom_site_fract_z
Si Si1 0.000000 0.500000 0.750000
Si Si2 0.114613 0.101502 0.000000
Si Si3 0.787426 0.323372 0.554728
Si Si4 0.861473 0.641451 0.410256
Si Si5 0.860019 0.307019 0.200253
Si Si6 0.045676 0.264905 0.500000
Si Si7 0.223531 0.000000 0.750000
O O1 0.061397 0.617364 0.777662
O O2 0.164140 0.154817 0.046395
O O3 0.044322 0.230328 0.000000
O O4 0.084384 0.917585 0.000000
O O5 0.784250 0.395929 0.500000
O O6 0.827549 0.455729 0.588522
O O7 0.704771 0.264235 0.570964
O O8 0.877446 0.698042 0.356383
O O9 0.927356 0.648488 0.450933
O O10 0.784442 0.422550 0.211374
O O11 0.831039 0.136695 0.224878
#
# Coordination Sequence:
#
# PCOD9526817 Si02
#       7
#     4   8  16  16  16   8   8
#     4  10  24  46  60  92 132 156 212 282 324 376
#     4   9  22  35  50  69 117 171 190 241 290 331
#     4  10  20  35  52  84 117 158 193 246 280 349
#     4  12  21  35  62  87 117 161 200 240 306 367
#     4  10  22  40  67  92 122 163 208 267 331 383
#     4  11  20  37  50  79 123 155 196 243 292 369
#     4   9  20  44  64  91 120 156 214 275 318 376
#
# _framework density 19.553607
#
# number of rings (size 3 to 8) (size 9 to 14) (size 15 to 20)
#    0.632    1.053    2.105    2.526    0.000    3.789 
#    0.000    4.211    0.000    0.000    0.000    0.000 
#    0.000    0.000    0.000    0.000    0.000    0.000 
#
# Total GULP energy -211847.219405 kJ/mol
# GULP energy per Si atom -5574.926826 kJ/mol
# Density = 1.950910 g / cm^3
# Si number density = 19.553607 Si / 1000 Ang^3
#
#
#
# Elastic Constant Matrix: (Units=GPa)
#
#
# Indices 1 2 3 4 5 6 
#
# 1 111.6768 31.0893 52.3216 0.0000 0.0000 0.0000
# 2 31.0893 79.1179 20.8431 0.0000 0.0000 0.0000
# 3 52.3216 20.8431 117.0860 0.0000 0.0000 0.0000
# 4 0.0000 0.0000 0.0000 10.7331 0.0000 0.0000
# 5 0.0000 0.0000 0.0000 0.0000 -2.5742 0.0000
# 6 0.0000 0.0000 0.0000 0.0000 0.0000 19.3530
#
#
#
# Elastic Compliance Matrix: (Units=1/GPa)
#
#
# Indices 1 2 3 4 5 6 
#
# 1 0.012194 -0.003521 -0.004822 0.000000 0.000000 0.000000
# 2 -0.003521 0.014278 -0.000968 0.000000 0.000000 0.000000
# 3 -0.004822 -0.000968 0.010868 0.000000 0.000000 0.000000
# 4 0.000000 0.000000 0.000000 0.093170 0.000000 0.000000
# 5 0.000000 0.000000 0.000000 0.000000 -0.388473 0.000000
# 6 0.000000 0.000000 0.000000 0.000000 0.000000 0.051672
#
#
# Mechanical properties :
#
#
# Convention : Reuss Voigt Hill
#
# Bulk Modulus (GPa) = 53.42818 57.37653 55.40236
# Shear Modulus (GPa) = -27.55898 19.07748 -4.24075
#
# Velocity S-wave (km/s) = -3.75828 3.12693 -1.47428
# Velocity P-wave (km/s) = 2.92410 6.51489 5.04947
#
# Compressibility (1/GPa) = 0.01871671
#
# Stress axis : x y z
#
# Youngs Moduli (GPa) = 82.00814 70.03739 92.01360
#
# Poissons Ratio (x) = 0.24662 0.44371
# Poissons Ratio (y) = 0.28877 0.08909
# Poissons Ratio (z) = 0.39546 0.06781
#
# Static dielectric constant tensor:
#      x y z
#    x 1.679680 0.000000 0.000000 
#    y 0.000000 1.727920 0.000000 
#    z 0.000000 0.000000 1.707860 
# 
# From -- ./inp_files/49000.got.cif
#   From: 2010.05.17/outbox.cif.g08.bks.cpg/sg72_25_cif.got.tgz:49000.got - 2010.06.03 17:03:01.
