data_PCOD9526532
_publ_section_title
;
Structure prediction by ZEFSAII (Michael W. Deem and Ramdas Pophale) SiO2 
 PCOD9526532
Probable space group: I B A M
;
_chemical_formula_sum "Si O2"
_cell_formula_units_Z 68
_cell_length_a 21.961798
_cell_length_b 5.500065
_cell_length_c 28.255503
_cell_angle_alpha 90.000000
_cell_angle_beta 90.000000
_cell_angle_gamma 90.000000
_cell_volume 3413.019406
_symmetry_space_group_name_H-M "I B A M"
_symmetry_group_IT_number 72
_symmetry_cell_setting 'orthorhombic'
loop_
_space_group_symop_operation_xyz
x,y,z
-x,-y,z
x,-y,1/2-z
-x,y,1/2-z
-x,-y,-z
x,y,-z
-x,y,1/2+z
x,-y,1/2+z
1/2+x,1/2+y,1/2+z
1/2-x,1/2-y,1/2+z
1/2+x,1/2-y,-z
1/2-x,1/2+y,-z
1/2-x,1/2-y,1/2-z
1/2+x,1/2+y,1/2-z
1/2-x,1/2+y,z
1/2+x,1/2-y,z
loop_
_atom_site_type_symbol
_atom_site_label
_atom_site_fract_x
_atom_site_fract_y
_atom_site_fract_z
Si Si1 0.229582 0.927234 0.195751
Si Si2 0.589401 0.353692 0.701920
Si Si3 0.429743 0.492435 0.598697
Si Si4 0.500000 0.000000 0.250000
Si Si5 0.073786 0.506343 0.944101
O O1 0.268538 0.702557 0.174549
O O2 0.161531 0.818342 0.196641
O O3 0.247603 0.000000 0.250000
O O4 0.580763 0.500000 0.750000
O O5 0.570472 0.497273 0.655240
O O6 0.546210 0.128723 0.713039
O O7 0.500000 0.500000 0.581962
O O8 0.402479 0.242999 0.579024
O O9 0.402425 0.746417 0.579970
O O10 0.000000 0.500000 0.937334
O O11 0.085327 0.510335 0.000000
#
# Coordination Sequence:
#
# PCOD9526532 Si02
#       5
#    16  16  16   4  16
#     4   9  20  37  58  76  99 141 193 241 276 304
#     4  11  25  37  54  79 118 153 194 223 268 335
#     4  10  20  32  51  74 107 146 179 219 269 329
#     4  12  26  36  52  78 118 168 182 218 262 332
#     4   9  18  32  50  72 101 139 184 225 268 321
#
# _framework density 19.923708999999999
#
# number of rings (size 3 to 8) (size 9 to 14) (size 15 to 20)
#    0.000    2.118    0.000    2.471   16.471    2.824 
#    0.000    0.000    0.000    0.000    0.000    0.000 
#    0.000   18.824    0.000    0.000    0.000    0.000 
#
# Total GULP energy -189273.507638 kJ/mol
# GULP energy per Si atom -5566.867872 kJ/mol
# Density = 1.987836 g / cm^3
# Si number density = 19.923709 Si / 1000 Ang^3
#
#
#
# Elastic Constant Matrix: (Units=GPa)
#
#
# Indices 1 2 3 4 5 6 
#
# 1 67.4371 38.7552 -12.1821 0.0000 0.0000 0.0000
# 2 38.7552 154.4565 69.5602 0.0000 0.0000 0.0000
# 3 -12.1821 69.5602 73.7634 0.0000 0.0000 0.0000
# 4 0.0000 0.0000 0.0000 30.8871 0.0000 0.0000
# 5 0.0000 0.0000 0.0000 0.0000 -53.0073 0.0000
# 6 0.0000 0.0000 0.0000 0.0000 0.0000 23.5130
#
#
#
# Elastic Compliance Matrix: (Units=1/GPa)
#
#
# Indices 1 2 3 4 5 6 
#
# 1 0.027015 -0.015275 0.018866 0.000000 0.000000 0.000000
# 2 -0.015275 0.019890 -0.021280 0.000000 0.000000 0.000000
# 3 0.018866 -0.021280 0.036740 0.000000 0.000000 0.000000
# 4 0.000000 0.000000 0.000000 0.032376 0.000000 0.000000
# 5 0.000000 0.000000 0.000000 0.000000 -0.018865 0.000000
# 6 0.000000 0.000000 0.000000 0.000000 0.000000 0.042530
#
#
# Mechanical properties :
#
#
# Convention : Reuss Voigt Hill
#
# Bulk Modulus (GPa) = 20.71770 54.21374 37.46572
# Shear Modulus (GPa) = 26.15732 13.58014 19.86873
#
# Velocity S-wave (km/s) = 3.62729 2.61359 3.16134
# Velocity P-wave (km/s) = 5.28811 6.03138 5.67193
#
# Compressibility (1/GPa) = 0.04826791
#
# Stress axis : x y z
#
# Youngs Moduli (GPa) = 37.01673 50.27579 27.21860
#
# Poissons Ratio (x) = 0.76795 -0.51350
# Poissons Ratio (y) = 0.56542 0.57920
# Poissons Ratio (z) = -0.69835 1.06985
#
# Static dielectric constant tensor:
#      x y z
#    x 1.709180 0.000000 0.000000 
#    y 0.000000 1.857310 0.000000 
#    z 0.000000 0.000000 1.682860 
# 
# From -- ./inp_files/49277.got.cif
#   From: 2010.05.17/outbox.cif.g08.bks.cpg/sg72_25_cif.got.tgz:49277.got - 2010.06.03 17:03:01.
