data_PCOD9526613
_publ_section_title
;
Structure prediction by ZEFSAII (Michael W. Deem and Ramdas Pophale) SiO2 
 PCOD9526613
Probable space group: I B A M
;
_chemical_formula_sum "Si O2"
_cell_formula_units_Z 112
_cell_length_a 29.319710
_cell_length_b 11.465391
_cell_length_c 14.896493
_cell_angle_alpha 90.000000
_cell_angle_beta 90.000000
_cell_angle_gamma 90.000000
_cell_volume 5007.633974
_symmetry_space_group_name_H-M "I B A M"
_symmetry_group_IT_number 72
_symmetry_cell_setting 'orthorhombic'
loop_
_space_group_symop_operation_xyz
x,y,z
-x,-y,z
x,-y,1/2-z
-x,y,1/2-z
-x,-y,-z
x,y,-z
-x,y,1/2+z
x,-y,1/2+z
1/2+x,1/2+y,1/2+z
1/2-x,1/2-y,1/2+z
1/2+x,1/2-y,-z
1/2-x,1/2+y,-z
1/2-x,1/2-y,1/2-z
1/2+x,1/2+y,1/2-z
1/2-x,1/2+y,z
1/2+x,1/2-y,z
loop_
_atom_site_type_symbol
_atom_site_label
_atom_site_fract_x
_atom_site_fract_y
_atom_site_fract_z
Si Si1 0.857596 0.644456 0.608586
Si Si2 0.277998 0.871063 0.748162
Si Si3 0.981755 0.753772 0.888975
Si Si4 0.079561 0.165106 0.599913
Si Si5 0.429157 0.956455 0.898775
Si Si6 0.656692 0.217298 0.100772
Si Si7 0.901336 0.923872 0.839656
O O1 0.850963 0.628862 0.500000
O O2 0.811419 0.623927 0.661975
O O3 0.875754 0.772090 0.637123
O O4 0.900240 0.563300 0.640539
O O5 0.250000 0.750000 0.750000
O O6 0.310286 0.853048 0.834553
O O7 0.254798 0.000000 0.750000
O O8 0.971208 0.619583 0.862549
O O9 0.944499 0.838168 0.844844
O O10 0.031358 0.797999 0.859873
O O11 0.977454 0.761478 0.000000
O O12 0.076807 0.215722 0.500000
O O13 0.086832 0.028630 0.593893
O O14 0.389780 0.857428 0.904316
O O15 0.441814 0.994052 0.000000
O O16 0.641924 0.344225 0.136961
O O17 0.675172 0.227716 0.000000
O O18 0.896930 0.000000 0.750000
#
# Coordination Sequence:
#
# PCOD9526613 Si02
#       7
#    16  16  16  16  16  16  16
#     4  10  21  40  65  92 128 172 216 271 341 411
#     4  12  27  46  71 101 133 166 214 282 353 428
#     4   9  18  32  52  84 124 173 229 274 321 389
#     4  10  20  33  53  86 128 169 217 276 330 391
#     4   8  15  32  60  87 116 165 222 263 312 389
#     4  10  21  42  70  94 122 173 227 269 330 417
#     4  11  21  34  56  85 128 176 226 277 332 391
#
# _framework density 22.365853000000001
#
# number of rings (size 3 to 8) (size 9 to 14) (size 15 to 20)
#    0.000    2.000    1.429    3.429    0.000    5.143 
#    0.000    2.857    0.000    0.000    0.000    0.000 
#    0.000    0.000    0.000    0.000    0.000    0.000 
#
# Total GULP energy -312185.994413 kJ/mol
# GULP energy per Si atom -5574.749900 kJ/mol
# Density = 2.231495 g / cm^3
# Si number density = 22.365853 Si / 1000 Ang^3
#
#
#
# Elastic Constant Matrix: (Units=GPa)
#
#
# Indices 1 2 3 4 5 6 
#
# 1 28.9067 40.6948 16.4718 0.0000 0.0000 0.0000
# 2 40.6948 157.3468 28.1805 0.0000 0.0000 0.0000
# 3 16.4718 28.1805 102.0239 0.0000 0.0000 0.0000
# 4 0.0000 0.0000 0.0000 19.2459 0.0000 0.0000
# 5 0.0000 0.0000 0.0000 0.0000 18.2650 0.0000
# 6 0.0000 0.0000 0.0000 0.0000 0.0000 40.2556
#
#
#
# Elastic Compliance Matrix: (Units=1/GPa)
#
#
# Indices 1 2 3 4 5 6 
#
# 1 0.057103 -0.013800 -0.005408 0.000000 0.000000 0.000000
# 2 -0.013800 0.010021 -0.000540 0.000000 0.000000 0.000000
# 3 -0.005408 -0.000540 0.010824 0.000000 0.000000 0.000000
# 4 0.000000 0.000000 0.000000 0.051959 0.000000 0.000000
# 5 0.000000 0.000000 0.000000 0.000000 0.054749 0.000000
# 6 0.000000 0.000000 0.000000 0.000000 0.000000 0.024841
#
#
# Mechanical properties :
#
#
# Convention : Reuss Voigt Hill
#
# Bulk Modulus (GPa) = 26.00581 50.99683 38.50132
# Shear Modulus (GPa) = 19.09773 29.08199 24.08986
#
# Velocity S-wave (km/s) = 2.92529 3.60986 3.28545
# Velocity P-wave (km/s) = 4.80234 6.34236 5.62530
#
# Compressibility (1/GPa) = 0.03845295
#
# Stress axis : x y z
#
# Youngs Moduli (GPa) = 17.51214 99.78777 92.38885
#
# Poissons Ratio (x) = 1.37709 0.49959
# Poissons Ratio (y) = 0.24167 0.04989
# Poissons Ratio (z) = 0.09470 0.05388
#
# Static dielectric constant tensor:
#      x y z
#    x 1.844690 0.000000 0.000000 
#    y 0.000000 1.844020 0.000000 
#    z 0.000000 0.000000 2.217650 
# 
# From -- ./inp_files/26404.got.cif
#   From: 2010.05.17/outbox.cif.g08.bks.cpg/sg72_14_cif.got.tgz:26404.got - 2010.06.03 17:03:01.
