data_PCOD9526105
_publ_section_title
;
Structure prediction by ZEFSAII (Michael W. Deem and Ramdas Pophale) SiO2 
 PCOD9526105
Probable space group: I B A M
;
_chemical_formula_sum "Si O2"
_cell_formula_units_Z 116
_cell_length_a 23.720185
_cell_length_b 28.334139
_cell_length_c 8.157710
_cell_angle_alpha 90.000000
_cell_angle_beta 90.000000
_cell_angle_gamma 90.000000
_cell_volume 5482.723626
_symmetry_space_group_name_H-M "I B A M"
_symmetry_group_IT_number 72
_symmetry_cell_setting 'orthorhombic'
loop_
_space_group_symop_operation_xyz
x,y,z
-x,-y,z
x,-y,1/2-z
-x,y,1/2-z
-x,-y,-z
x,y,-z
-x,y,1/2+z
x,-y,1/2+z
1/2+x,1/2+y,1/2+z
1/2-x,1/2-y,1/2+z
1/2+x,1/2-y,-z
1/2-x,1/2+y,-z
1/2-x,1/2-y,1/2-z
1/2+x,1/2+y,1/2-z
1/2-x,1/2+y,z
1/2+x,1/2-y,z
loop_
_atom_site_type_symbol
_atom_site_label
_atom_site_fract_x
_atom_site_fract_y
_atom_site_fract_z
Si Si1 0.123877 0.647421 0.698020
Si Si2 0.000000 0.000000 0.750000
Si Si3 0.935036 0.447828 0.806111
Si Si4 0.629142 0.668293 0.805167
Si Si5 0.752953 0.649204 0.810667
Si Si6 0.436701 0.241081 0.696341
Si Si7 0.277789 0.449234 0.307351
Si Si8 0.410073 0.430079 0.308131
O O1 0.126763 0.647769 0.500000
O O2 0.102557 0.595803 0.746677
O O3 0.186260 0.660764 0.762594
O O4 0.081675 0.688756 0.750721
O O5 0.952814 0.039410 0.801931
O O6 0.916322 0.500000 0.750000
O O7 0.000000 0.441282 0.750000
O O8 0.934708 0.447553 0.000000
O O9 0.693486 0.666422 0.737804
O O10 0.602686 0.718632 0.770309
O O11 0.592692 0.625695 0.727842
O O12 0.631381 0.658860 0.000000
O O13 0.748632 0.592646 0.796977
O O14 0.753299 0.664736 0.000000
O O15 0.500000 0.250531 0.750000
O O16 0.432269 0.243378 0.500000
O O17 0.257682 0.500000 0.250000
O O18 0.266644 0.441600 0.500000
O O19 0.345538 0.446320 0.283478
O O20 0.425481 0.438554 0.500000
#
# Coordination Sequence:
#
# PCOD9526105 Si02
#       8
#    16   4  16  16  16  16  16  16
#     4  10  22  41  64  92 125 159 201 250 300 359
#     4  12  22  36  56  86 118 156 204 254 306 356
#     4  11  22  38  62  92 128 168 207 249 302 361
#     4  10  22  41  64  88 119 158 201 250 304 361
#     4   9  20  39  61  86 117 155 197 245 301 360
#     4  11  24  42  65  91 121 158 198 246 302 358
#     4  10  19  34  54  78 110 152 197 244 297 353
#     4  10  22  37  55  81 115 154 199 249 302 357
#
# _framework density 21.157366
#
# number of rings (size 3 to 8) (size 9 to 14) (size 15 to 20)
#    0.000    1.793    0.690    3.517    0.966    6.069 
#    0.000    0.000    0.000    0.000    0.000    0.000 
#    0.000    0.000    0.000    0.000    0.000    0.000 
#
# Total GULP energy -323648.347134 kJ/mol
# GULP energy per Si atom -5580.143916 kJ/mol
# Density = 2.110921 g / cm^3
# Si number density = 21.157366 Si / 1000 Ang^3
#
#
#
# Elastic Constant Matrix: (Units=GPa)
#
#
# Indices 1 2 3 4 5 6 
#
# 1 80.8876 37.2879 8.1706 0.0000 0.0000 0.0000
# 2 37.2879 110.5275 6.5258 0.0000 0.0000 0.0000
# 3 8.1706 6.5258 46.7878 0.0000 0.0000 0.0000
# 4 0.0000 0.0000 0.0000 -41.5346 0.0000 0.0000
# 5 0.0000 0.0000 0.0000 0.0000 188.7701 0.0000
# 6 0.0000 0.0000 0.0000 0.0000 0.0000 3.8286
#
#
#
# Elastic Compliance Matrix: (Units=1/GPa)
#
#
# Indices 1 2 3 4 5 6 
#
# 1 0.014806 -0.004883 -0.001905 0.000000 0.000000 0.000000
# 2 -0.004883 0.010733 -0.000644 0.000000 0.000000 0.000000
# 3 -0.001905 -0.000644 0.021796 0.000000 0.000000 0.000000
# 4 0.000000 0.000000 0.000000 -0.024076 0.000000 0.000000
# 5 0.000000 0.000000 0.000000 0.000000 0.005297 0.000000
# 6 0.000000 0.000000 0.000000 0.000000 0.000000 0.261189
#
#
# Mechanical properties :
#
#
# Convention : Reuss Voigt Hill
#
# Bulk Modulus (GPa) = 30.79633 38.01904 34.40769
# Shear Modulus (GPa) = 15.85130 42.62741 29.23935
#
# Velocity S-wave (km/s) = 2.74014 4.49350 3.72155
# Velocity P-wave (km/s) = 4.95970 6.70304 5.89615
#
# Compressibility (1/GPa) = 0.03247140
#
# Stress axis : x y z
#
# Youngs Moduli (GPa) = 67.54017 93.17268 45.88094
#
# Poissons Ratio (x) = 0.45492 0.08738
# Poissons Ratio (y) = 0.32977 0.02956
# Poissons Ratio (z) = 0.12864 0.06003
#
# Static dielectric constant tensor:
#      x y z
#    x 1.790700 0.000000 0.000000 
#    y 0.000000 1.744780 0.000000 
#    z 0.000000 0.000000 1.775690 
# 
# From -- ./inp_files/7304.got.cif
#   From: 2010.05.17/outbox.cif.g08.bks.cpg/sg72_4_cif.got.tgz:7304.got - 2010.06.03 17:03:01.
