data_PCOD9526056
_publ_section_title
;
Structure prediction by ZEFSAII (Michael W. Deem and Ramdas Pophale) SiO2 
 PCOD9526056
Probable space group: I B A M
;
_chemical_formula_sum "Si O2"
_cell_formula_units_Z 112
_cell_length_a 11.291649
_cell_length_b 27.832527
_cell_length_c 18.582761
_cell_angle_alpha 90.000000
_cell_angle_beta 90.000000
_cell_angle_gamma 90.000000
_cell_volume 5840.099549
_symmetry_space_group_name_H-M "I B A M"
_symmetry_group_IT_number 72
_symmetry_cell_setting 'orthorhombic'
loop_
_space_group_symop_operation_xyz
x,y,z
-x,-y,z
x,-y,1/2-z
-x,y,1/2-z
-x,-y,-z
x,y,-z
-x,y,1/2+z
x,-y,1/2+z
1/2+x,1/2+y,1/2+z
1/2-x,1/2-y,1/2+z
1/2+x,1/2-y,-z
1/2-x,1/2+y,-z
1/2-x,1/2-y,1/2-z
1/2+x,1/2+y,1/2-z
1/2-x,1/2+y,z
1/2+x,1/2-y,z
loop_
_atom_site_type_symbol
_atom_site_label
_atom_site_fract_x
_atom_site_fract_y
_atom_site_fract_z
Si Si1 0.619128 0.200307 0.584411
Si Si2 0.007278 0.383554 0.835242
Si Si3 0.852866 0.864176 0.916205
Si Si4 0.869015 0.771290 0.712650
Si Si5 0.257833 0.058136 0.665986
Si Si6 0.279093 0.948139 0.338726
Si Si7 0.933827 0.127396 0.179263
O O1 0.598688 0.209400 0.500000
O O2 0.524909 0.162503 0.617249
O O3 0.745836 0.173423 0.592777
O O4 0.621339 0.246569 0.634822
O O5 0.907962 0.424391 0.848409
O O6 0.000000 0.370854 0.750000
O O7 0.131790 0.407963 0.852055
O O8 0.809330 0.914527 0.882792
O O9 0.968631 0.849892 0.872596
O O10 0.877226 0.869036 0.000000
O O11 0.750000 0.750000 0.750000
O O12 0.852414 0.828720 0.706152
O O13 0.000000 0.763975 0.750000
O O14 0.253448 0.055638 0.753405
O O15 0.139426 0.085235 0.642726
O O16 0.273519 0.003797 0.640087
O O17 0.000000 0.108260 0.250000
#
# Coordination Sequence:
#
# PCOD9526056 Si02
#       7
#    16  16  16  16  16  16  16
#     4  10  21  39  63  88 116 155 200 244 301 363
#     4   9  18  32  60  88 121 148 193 245 294 347
#     4  10  21  40  60  82 118 160 194 237 295 361
#     4  11  25  40  66  92 121 159 205 254 308 358
#     4  10  19  33  58  87 118 150 194 247 289 337
#     4   9  18  34  57  88 116 152 195 238 293 348
#     4  11  22  38  57  83 118 151 198 244 292 349
#
# _framework density 19.177755000000001
#
# number of rings (size 3 to 8) (size 9 to 14) (size 15 to 20)
#    0.000    2.000    1.429    2.571    6.000    2.857 
#    0.000    3.571    0.000    3.429    0.000    0.000 
#    0.000    0.000    0.000    0.000    0.000    0.000 
#
# Total GULP energy -312550.459707 kJ/mol
# GULP energy per Si atom -5581.258209 kJ/mol
# Density = 1.913411 g / cm^3
# Si number density = 19.177755 Si / 1000 Ang^3
#
#
#
# Elastic Constant Matrix: (Units=GPa)
#
#
# Indices 1 2 3 4 5 6 
#
# 1 64.4990 23.2376 21.0801 0.0000 0.0000 0.0000
# 2 23.2376 53.8292 17.1983 0.0000 0.0000 0.0000
# 3 21.0801 17.1983 63.6692 0.0000 0.0000 0.0000
# 4 0.0000 0.0000 0.0000 17.3478 0.0000 0.0000
# 5 0.0000 0.0000 0.0000 0.0000 23.0534 0.0000
# 6 0.0000 0.0000 0.0000 0.0000 0.0000 9.5987
#
#
#
# Elastic Compliance Matrix: (Units=1/GPa)
#
#
# Indices 1 2 3 4 5 6 
#
# 1 0.019508 -0.006958 -0.004579 0.000000 0.000000 0.000000
# 2 -0.006958 0.022814 -0.003859 0.000000 0.000000 0.000000
# 3 -0.004579 -0.003859 0.018265 0.000000 0.000000 0.000000
# 4 0.000000 0.000000 0.000000 0.057644 0.000000 0.000000
# 5 0.000000 0.000000 0.000000 0.000000 0.043378 0.000000
# 6 0.000000 0.000000 0.000000 0.000000 0.000000 0.104181
#
#
# Mechanical properties :
#
#
# Convention : Reuss Voigt Hill
#
# Bulk Modulus (GPa) = 33.56389 33.89216 33.72803
# Shear Modulus (GPa) = 16.31256 18.03206 17.17231
#
# Velocity S-wave (km/s) = 2.91967 3.06969 2.99562
# Velocity P-wave (km/s) = 5.37637 5.50227 5.43969
#
# Compressibility (1/GPa) = 0.02979392
#
# Stress axis : x y z
#
# Youngs Moduli (GPa) = 51.26193 43.83281 54.75068
#
# Poissons Ratio (x) = 0.30500 0.25071
# Poissons Ratio (y) = 0.35669 0.21127
# Poissons Ratio (z) = 0.23474 0.16914
#
# Static dielectric constant tensor:
#      x y z
#    x 1.692030 0.000000 0.000000 
#    y 0.000000 1.659260 0.000000 
#    z 0.000000 0.000000 1.657030 
# 
# From -- ./inp_files/37434.got.cif
#   From: 2010.05.17/outbox.cif.g08.bks.cpg/sg72_19_cif.got.tgz:37434.got - 2010.06.03 17:03:01.
