data_PCOD9526331
_publ_section_title
;
Structure prediction by ZEFSAII (Michael W. Deem and Ramdas Pophale) SiO2 
 PCOD9526331
Probable space group: I B A M
;
_chemical_formula_sum "Si O2"
_cell_formula_units_Z 96
_cell_length_a 19.055809
_cell_length_b 12.157087
_cell_length_c 16.749192
_cell_angle_alpha 90.000000
_cell_angle_beta 90.000000
_cell_angle_gamma 90.000000
_cell_volume 3880.170208
_symmetry_space_group_name_H-M "I B A M"
_symmetry_group_IT_number 72
_symmetry_cell_setting 'orthorhombic'
loop_
_space_group_symop_operation_xyz
x,y,z
-x,-y,z
x,-y,1/2-z
-x,y,1/2-z
-x,-y,-z
x,y,-z
-x,y,1/2+z
x,-y,1/2+z
1/2+x,1/2+y,1/2+z
1/2-x,1/2-y,1/2+z
1/2+x,1/2-y,-z
1/2-x,1/2+y,-z
1/2-x,1/2-y,1/2-z
1/2+x,1/2+y,1/2-z
1/2-x,1/2+y,z
1/2+x,1/2-y,z
loop_
_atom_site_type_symbol
_atom_site_label
_atom_site_fract_x
_atom_site_fract_y
_atom_site_fract_z
Si Si1 0.071701 0.910186 0.000000
Si Si2 0.349087 0.218867 0.760333
Si Si3 0.623914 0.454080 0.335071
Si Si4 0.065240 0.577247 0.133624
Si Si5 0.489364 0.213885 0.500000
Si Si6 0.356395 0.940087 0.000000
Si Si7 0.777305 0.213588 0.000000
Si Si8 0.278117 0.649429 0.853379
O O1 0.078091 0.966010 0.086069
O O2 0.999679 0.842552 0.000000
O O3 0.143965 0.834268 0.000000
O O4 0.358934 0.327258 0.815620
O O5 0.406800 0.132633 0.786430
O O6 0.342089 0.269167 0.672479
O O7 0.277162 0.156428 0.781393
O O8 0.596274 0.500000 0.250000
O O9 0.691965 0.527683 0.356765
O O10 0.032688 0.669783 0.075904
O O11 0.000000 0.500000 0.148622
O O12 0.123220 0.512957 0.078760
O O13 0.413427 0.159033 0.500000
O O14 0.279415 0.886561 0.000000
O O15 0.760237 0.294424 0.926573
#
# Coordination Sequence:
#
# PCOD9526331 Si02
#       8
#     8  16  16  16   8   8   8  16
#     4  12  20  34  62  91 124 183 228 272 331 415
#     4  10  19  36  57  90 125 171 215 284 345 393
#     4  10  21  36  56  90 127 170 222 279 338 403
#     4   9  17  33  59  90 117 161 216 265 330 404
#     4   9  16  35  58  86 120 161 210 262 336 397
#     4   9  22  33  55  89 130 164 201 286 335 391
#     4  12  22  38  53  94 128 168 225 274 334 396
#     4  10  22  35  55  84 135 171 214 276 345 402
#
# _framework density 24.741182999999999
#
# number of rings (size 3 to 8) (size 9 to 14) (size 15 to 20)
#    0.000    2.000    3.333    1.500    2.333    0.667 
#    0.000    0.833    0.000   12.000    0.000    1.167 
#    0.000    0.000    0.000    0.000    0.000    0.000 
#
# Total GULP energy -268345.266927 kJ/mol
# GULP energy per Si atom -5590.526394 kJ/mol
# Density = 2.468487 g / cm^3
# Si number density = 24.741183 Si / 1000 Ang^3
#
#
#
# Elastic Constant Matrix: (Units=GPa)
#
#
# Indices 1 2 3 4 5 6 
#
# 1 76.1420 52.0657 19.9079 0.0000 0.0000 0.0000
# 2 52.0657 103.2958 23.8915 0.0000 0.0000 0.0000
# 3 19.9079 23.8915 107.9982 0.0000 0.0000 0.0000
# 4 0.0000 0.0000 0.0000 27.1270 0.0000 0.0000
# 5 0.0000 0.0000 0.0000 0.0000 20.2778 0.0000
# 6 0.0000 0.0000 0.0000 0.0000 0.0000 51.8289
#
#
#
# Elastic Compliance Matrix: (Units=1/GPa)
#
#
# Indices 1 2 3 4 5 6 
#
# 1 0.020286 -0.009865 -0.001557 0.000000 0.000000 0.000000
# 2 -0.009865 0.015000 -0.001500 0.000000 0.000000 0.000000
# 3 -0.001557 -0.001500 0.009878 0.000000 0.000000 0.000000
# 4 0.000000 0.000000 0.000000 0.036864 0.000000 0.000000
# 5 0.000000 0.000000 0.000000 0.000000 0.049315 0.000000
# 6 0.000000 0.000000 0.000000 0.000000 0.000000 0.019294
#
#
# Mechanical properties :
#
#
# Convention : Reuss Voigt Hill
#
# Bulk Modulus (GPa) = 51.75809 53.24066 52.49938
# Shear Modulus (GPa) = 27.33413 32.61814 29.97613
#
# Velocity S-wave (km/s) = 3.32746 3.63488 3.48456
# Velocity P-wave (km/s) = 5.97728 6.25957 6.12006
#
# Compressibility (1/GPa) = 0.01932065
#
# Stress axis : x y z
#
# Youngs Moduli (GPa) = 49.29487 66.66566 101.23247
#
# Poissons Ratio (x) = 0.65765 0.15763
# Poissons Ratio (y) = 0.48629 0.15184
# Poissons Ratio (z) = 0.07676 0.09999
#
# Static dielectric constant tensor:
#      x y z
#    x 1.970770 0.000000 0.000000 
#    y 0.000000 1.984820 0.000000 
#    z 0.000000 0.000000 2.003520 
# 
# From -- ./inp_files/33318.got.cif
#   From: 2010.05.17/outbox.cif.g08.bks.cpg/sg72_17_cif.got.tgz:33318.got - 2010.06.03 17:03:01.
