data_PCOD9526948
_publ_section_title
;
Structure prediction by ZEFSAII (Michael W. Deem and Ramdas Pophale) SiO2 
 PCOD9526948
Probable space group: I B A M
;
_chemical_formula_sum "Si O2"
_cell_formula_units_Z 72
_cell_length_a 14.379433
_cell_length_b 15.114748
_cell_length_c 16.930462
_cell_angle_alpha 90.000000
_cell_angle_beta 90.000000
_cell_angle_gamma 90.000000
_cell_volume 3679.692111
_symmetry_space_group_name_H-M "I B A M"
_symmetry_group_IT_number 72
_symmetry_cell_setting 'orthorhombic'
loop_
_space_group_symop_operation_xyz
x,y,z
-x,-y,z
x,-y,1/2-z
-x,y,1/2-z
-x,-y,-z
x,y,-z
-x,y,1/2+z
x,-y,1/2+z
1/2+x,1/2+y,1/2+z
1/2-x,1/2-y,1/2+z
1/2+x,1/2-y,-z
1/2-x,1/2+y,-z
1/2-x,1/2-y,1/2-z
1/2+x,1/2+y,1/2-z
1/2-x,1/2+y,z
1/2+x,1/2-y,z
loop_
_atom_site_type_symbol
_atom_site_label
_atom_site_fract_x
_atom_site_fract_y
_atom_site_fract_z
Si Si1 0.825572 0.476738 0.166076
Si Si2 0.185733 0.648257 0.414189
Si Si3 0.534630 0.152385 0.590135
Si Si4 0.500000 0.265631 0.250000
Si Si5 0.694573 0.688104 0.689060
O O1 0.872363 0.500000 0.250000
O O2 0.779361 0.568572 0.139399
O O3 0.899560 0.431309 0.107622
O O4 0.746840 0.403017 0.177660
O O5 0.225968 0.636251 0.500000
O O6 0.197579 0.748781 0.387506
O O7 0.074692 0.631519 0.413575
O O8 0.557412 0.187169 0.500000
O O9 0.538018 0.210225 0.672581
O O10 0.411386 0.318562 0.282151
O O11 0.750000 0.750000 0.750000
#
# Coordination Sequence:
#
# PCOD9526948 Si02
#       5
#    16  16  16   8  16
#     4  12  21  35  59  85 121 154 201 244 301 364
#     4  10  22  37  56  87 123 152 195 253 306 364
#     4  10  20  35  59  92 122 154 194 250 323 377
#     4  10  20  40  62  86 126 160 202 258 296 358
#     4  11  21  40  60  87 115 161 206 240 305 362
#
# _framework density 19.566855
#
# number of rings (size 3 to 8) (size 9 to 14) (size 15 to 20)
#    0.000    1.333    4.444    2.667    0.000    4.444 
#    0.000    0.556    0.000    0.000    0.000    1.556 
#    0.000    0.000    0.000    0.000    0.000    0.000 
#
# Total GULP energy -200476.956808 kJ/mol
# GULP energy per Si atom -5568.804356 kJ/mol
# Density = 1.952232 g / cm^3
# Si number density = 19.566855 Si / 1000 Ang^3
#
#
#
# Elastic Constant Matrix: (Units=GPa)
#
#
# Indices 1 2 3 4 5 6 
#
# 1 43.6021 24.7225 3.1854 0.0000 0.0000 0.0000
# 2 24.7225 85.5371 29.8674 0.0000 0.0000 0.0000
# 3 3.1854 29.8674 118.9120 0.0000 0.0000 0.0000
# 4 0.0000 0.0000 0.0000 11.8493 0.0000 0.0000
# 5 0.0000 0.0000 0.0000 0.0000 8.3957 0.0000
# 6 0.0000 0.0000 0.0000 0.0000 0.0000 21.8445
#
#
#
# Elastic Compliance Matrix: (Units=1/GPa)
#
#
# Indices 1 2 3 4 5 6 
#
# 1 0.027637 -0.008472 0.001388 0.000000 0.000000 0.000000
# 2 -0.008472 0.015412 -0.003644 0.000000 0.000000 0.000000
# 3 0.001388 -0.003644 0.009288 0.000000 0.000000 0.000000
# 4 0.000000 0.000000 0.000000 0.084393 0.000000 0.000000
# 5 0.000000 0.000000 0.000000 0.000000 0.119109 0.000000
# 6 0.000000 0.000000 0.000000 0.000000 0.000000 0.045778
#
#
# Mechanical properties :
#
#
# Convention : Reuss Voigt Hill
#
# Bulk Modulus (GPa) = 32.38425 40.40020 36.39222
# Shear Modulus (GPa) = 14.99844 21.10295 18.05069
#
# Velocity S-wave (km/s) = 2.77162 3.28762 3.04059
# Velocity P-wave (km/s) = 5.17967 5.92481 5.56473
#
# Compressibility (1/GPa) = 0.03087921
#
# Stress axis : x y z
#
# Youngs Moduli (GPa) = 36.18317 64.88445 107.66918
#
# Poissons Ratio (x) = 0.54973 -0.14941
# Poissons Ratio (y) = 0.30656 0.39236
# Poissons Ratio (z) = -0.05021 0.23645
#
# Static dielectric constant tensor:
#      x y z
#    x 1.684070 0.000000 0.000000 
#    y 0.000000 1.726990 0.000000 
#    z 0.000000 0.000000 1.881530 
# 
# From -- ./inp_files/30304.got.cif
#   From: 2010.05.17/outbox.cif.g08.bks.cpg/sg72_16_cif.got.tgz:30304.got - 2010.06.03 17:03:01.
