data_PCOD9526237
_publ_section_title
;
Structure prediction by ZEFSAII (Michael W. Deem and Ramdas Pophale) SiO2 
 PCOD9526237
Probable space group: I B A M
;
_chemical_formula_sum "Si O2"
_cell_formula_units_Z 112
_cell_length_a 19.193844
_cell_length_b 18.734234
_cell_length_c 15.115231
_cell_angle_alpha 90.000000
_cell_angle_beta 90.000000
_cell_angle_gamma 90.000000
_cell_volume 5435.164462
_symmetry_space_group_name_H-M "I B A M"
_symmetry_group_IT_number 72
_symmetry_cell_setting 'orthorhombic'
loop_
_space_group_symop_operation_xyz
x,y,z
-x,-y,z
x,-y,1/2-z
-x,y,1/2-z
-x,-y,-z
x,y,-z
-x,y,1/2+z
x,-y,1/2+z
1/2+x,1/2+y,1/2+z
1/2-x,1/2-y,1/2+z
1/2+x,1/2-y,-z
1/2-x,1/2+y,-z
1/2-x,1/2-y,1/2-z
1/2+x,1/2+y,1/2-z
1/2-x,1/2+y,z
1/2+x,1/2-y,z
loop_
_atom_site_type_symbol
_atom_site_label
_atom_site_fract_x
_atom_site_fract_y
_atom_site_fract_z
Si Si1 0.753486 0.707686 0.343283
Si Si2 0.150087 0.682650 0.601856
Si Si3 0.781020 0.905237 0.397544
Si Si4 0.067479 0.536414 0.847422
Si Si5 0.385318 0.295846 0.897657
Si Si6 0.723100 0.039599 0.655317
Si Si7 0.007211 0.685663 0.109399
O O1 0.750000 0.750000 0.250000
O O2 0.685847 0.739916 0.391644
O O3 0.823102 0.737433 0.390523
O O4 0.757756 0.622573 0.339556
O O5 0.140210 0.662769 0.500000
O O6 0.208234 0.628008 0.638786
O O7 0.072881 0.681092 0.640085
O O8 0.780804 0.882267 0.500000
O O9 0.848219 0.865893 0.356932
O O10 0.777849 0.989759 0.394740
O O11 0.070898 0.500000 0.750000
O O12 0.145370 0.529991 0.884728
O O13 0.000000 0.500000 0.892513
O O14 0.048527 0.619354 0.849549
O O15 0.453927 0.257927 0.861282
O O16 0.401967 0.310864 0.000000
O O17 0.722826 0.000000 0.750000
O O18 0.010934 0.681296 0.000000
#
# Coordination Sequence:
#
# PCOD9526237 Si02
#       7
#    16  16  16  16  16  16  16
#     4  11  21  34  54  78 106 144 185 224 270 328
#     4   9  19  36  56  80 109 138 180 232 275 319
#     4   9  18  32  52  75 104 139 173 220 271 321
#     4  10  21  33  48  75 116 148 172 216 270 337
#     4   9  18  35  54  75 103 138 182 224 269 327
#     4  11  21  33  49  75 109 142 180 221 269 324
#     4  10  19  35  57  78 105 146 188 227 277 331
#
# _framework density 20.606552000000001
#
# number of rings (size 3 to 8) (size 9 to 14) (size 15 to 20)
#    0.000    2.143    1.429    3.857    0.000    4.286 
#    0.000    0.000    0.000    0.857    0.000    5.000 
#    0.000    0.000    0.000    0.000    0.000    0.000 
#
# Total GULP energy -312018.310652 kJ/mol
# GULP energy per Si atom -5571.755547 kJ/mol
# Density = 2.055965 g / cm^3
# Si number density = 20.606552 Si / 1000 Ang^3
#
#
#
# Elastic Constant Matrix: (Units=GPa)
#
#
# Indices 1 2 3 4 5 6 
#
# 1 44.6889 19.0555 9.9665 0.0000 0.0000 0.0000
# 2 19.0555 135.8500 5.7777 0.0000 0.0000 0.0000
# 3 9.9665 5.7777 33.7321 0.0000 0.0000 0.0000
# 4 0.0000 0.0000 0.0000 23.2539 0.0000 0.0000
# 5 0.0000 0.0000 0.0000 0.0000 7.4823 0.0000
# 6 0.0000 0.0000 0.0000 0.0000 0.0000 28.0466
#
#
#
# Elastic Compliance Matrix: (Units=1/GPa)
#
#
# Indices 1 2 3 4 5 6 
#
# 1 0.025308 -0.003256 -0.006920 0.000000 0.000000 0.000000
# 2 -0.003256 0.007834 -0.000380 0.000000 0.000000 0.000000
# 3 -0.006920 -0.000380 0.031755 0.000000 0.000000 0.000000
# 4 0.000000 0.000000 0.000000 0.043004 0.000000 0.000000
# 5 0.000000 0.000000 0.000000 0.000000 0.133649 0.000000
# 6 0.000000 0.000000 0.000000 0.000000 0.000000 0.035655
#
#
# Mechanical properties :
#
#
# Convention : Reuss Voigt Hill
#
# Bulk Modulus (GPa) = 22.83825 31.54116 27.18971
# Shear Modulus (GPa) = 15.97897 23.72131 19.85014
#
# Velocity S-wave (km/s) = 2.78768 3.39655 3.10706
# Velocity P-wave (km/s) = 4.63342 5.54271 5.10834
#
# Compressibility (1/GPa) = 0.04378620
#
# Stress axis : x y z
#
# Youngs Moduli (GPa) = 39.51244 127.65059 31.49108
#
# Poissons Ratio (x) = 0.41559 0.21792
# Poissons Ratio (y) = 0.12864 0.01196
# Poissons Ratio (z) = 0.27343 0.04849
#
# Static dielectric constant tensor:
#      x y z
#    x 1.766640 0.000000 0.000000 
#    y 0.000000 1.762770 0.000000 
#    z 0.000000 0.000000 1.852210 
# 
# From -- ./inp_files/32776.got.cif
#   From: 2010.05.17/outbox.cif.g08.bks.cpg/sg72_17_cif.got.tgz:32776.got - 2010.06.03 17:03:01.
