data_PCOD9526041
_publ_section_title
;
Structure prediction by ZEFSAII (Michael W. Deem and Ramdas Pophale) SiO2 
 PCOD9526041
Probable space group: I B A M
;
_chemical_formula_sum "Si O2"
_cell_formula_units_Z 96
_cell_length_a 29.110479
_cell_length_b 20.321354
_cell_length_c 9.082724
_cell_angle_alpha 90.000000
_cell_angle_beta 90.000000
_cell_angle_gamma 90.000000
_cell_volume 5373.015709
_symmetry_space_group_name_H-M "I B A M"
_symmetry_group_IT_number 72
_symmetry_cell_setting 'orthorhombic'
loop_
_space_group_symop_operation_xyz
x,y,z
-x,-y,z
x,-y,1/2-z
-x,y,1/2-z
-x,-y,-z
x,y,-z
-x,y,1/2+z
x,-y,1/2+z
1/2+x,1/2+y,1/2+z
1/2-x,1/2-y,1/2+z
1/2+x,1/2-y,-z
1/2-x,1/2+y,-z
1/2-x,1/2-y,1/2-z
1/2+x,1/2+y,1/2-z
1/2-x,1/2+y,z
1/2+x,1/2-y,z
loop_
_atom_site_type_symbol
_atom_site_label
_atom_site_fract_x
_atom_site_fract_y
_atom_site_fract_z
Si Si1 0.595478 0.703935 0.172869
Si Si2 0.632202 0.071379 0.177485
Si Si3 0.776377 0.650784 0.168653
Si Si4 0.049387 0.328984 0.177036
Si Si5 0.450486 0.563032 0.326129
Si Si6 0.808911 0.802809 0.167123
O O1 0.568469 0.759337 0.264094
O O2 0.574184 0.632106 0.195212
O O3 0.647463 0.698655 0.227667
O O4 0.593053 0.720788 0.000000
O O5 0.679830 0.108166 0.219209
O O6 0.588321 0.116880 0.215738
O O7 0.629259 0.000000 0.250000
O O8 0.632602 0.065535 0.000000
O O9 0.791716 0.727175 0.164115
O O10 0.731695 0.651247 0.271174
O O11 0.764955 0.631636 0.000000
O O12 0.000000 0.342728 0.250000
O O13 0.044994 0.326974 0.000000
O O14 0.427053 0.500000 0.250000
O O15 0.500000 0.568844 0.250000
O O16 0.455173 0.551103 0.500000
O O17 0.821557 0.820886 0.000000
#
# Coordination Sequence:
#
# PCOD9526041 Si02
#       6
#    16  16  16  16  16  16
#     4  11  22  36  57  87 117 151 190 235 287 341
#     4  10  22  40  60  83 116 154 196 243 293 350
#     4   9  18  36  56  81 113 145 183 230 279 335
#     4  11  23  40  59  85 117 151 196 247 296 348
#     4  10  21  36  55  79 108 145 187 227 275 333
#     4  10  19  33  57  86 114 144 182 230 281 335
#
# _framework density 17.867059999999999
#
# number of rings (size 3 to 8) (size 9 to 14) (size 15 to 20)
#    0.000    1.833    1.667    3.000    0.000    7.000 
#    0.000    2.500    0.000    0.000    0.000    0.000 
#    0.000    0.000    0.000    0.000    0.000    0.000 
#
# Total GULP energy -267846.229587 kJ/mol
# GULP energy per Si atom -5580.129783 kJ/mol
# Density = 1.782639 g / cm^3
# Si number density = 17.867060 Si / 1000 Ang^3
#
#
#
# Elastic Constant Matrix: (Units=GPa)
#
#
# Indices 1 2 3 4 5 6 
#
# 1 65.0618 33.6587 19.3487 0.0000 0.0000 0.0000
# 2 33.6587 94.8071 44.6212 0.0000 0.0000 0.0000
# 3 19.3487 44.6212 56.5785 0.0000 0.0000 0.0000
# 4 0.0000 0.0000 0.0000 32.2362 0.0000 0.0000
# 5 0.0000 0.0000 0.0000 0.0000 26.8923 0.0000
# 6 0.0000 0.0000 0.0000 0.0000 0.0000 -9.3814
#
#
#
# Elastic Compliance Matrix: (Units=1/GPa)
#
#
# Indices 1 2 3 4 5 6 
#
# 1 0.018951 -0.005849 -0.001868 0.000000 0.000000 0.000000
# 2 -0.005849 0.018579 -0.012652 0.000000 0.000000 0.000000
# 3 -0.001868 -0.012652 0.028292 0.000000 0.000000 0.000000
# 4 0.000000 0.000000 0.000000 0.031021 0.000000 0.000000
# 5 0.000000 0.000000 0.000000 0.000000 0.037185 0.000000
# 6 0.000000 0.000000 0.000000 0.000000 0.000000 -0.106594
#
#
# Mechanical properties :
#
#
# Convention : Reuss Voigt Hill
#
# Bulk Modulus (GPa) = 39.86696 45.74493 42.80595
# Shear Modulus (GPa) = 65.32941 17.87068 41.60004
#
# Velocity S-wave (km/s) = 6.05339 3.16603 4.83049
# Velocity P-wave (km/s) = 8.43917 6.24688 7.42439
#
# Compressibility (1/GPa) = 0.02508343
#
# Stress axis : x y z
#
# Youngs Moduli (GPa) = 52.76644 53.82391 35.34586
#
# Poissons Ratio (x) = 0.31481 0.06603
# Poissons Ratio (y) = 0.30863 0.44721
# Poissons Ratio (z) = 0.09858 0.68100
#
# Static dielectric constant tensor:
#      x y z
#    x 1.611930 0.000000 0.000000 
#    y 0.000000 1.598990 0.000000 
#    z 0.000000 0.000000 1.609480 
# 
# From -- ./inp_files/8057.got.cif
#   From: 2010.05.17/outbox.cif.g08.bks.cpg/sg72_5_cif.got.tgz:8057.got - 2010.06.03 17:03:01.
