data_PCOD9526125
_publ_section_title
;
Structure prediction by ZEFSAII (Michael W. Deem and Ramdas Pophale) SiO2 
 PCOD9526125
Probable space group: I B A M
;
_chemical_formula_sum "Si O2"
_cell_formula_units_Z 96
_cell_length_a 8.527510
_cell_length_b 22.859790
_cell_length_c 25.636962
_cell_angle_alpha 90.000000
_cell_angle_beta 90.000000
_cell_angle_gamma 90.000000
_cell_volume 4997.594713
_symmetry_space_group_name_H-M "I B A M"
_symmetry_group_IT_number 72
_symmetry_cell_setting 'orthorhombic'
loop_
_space_group_symop_operation_xyz
x,y,z
-x,-y,z
x,-y,1/2-z
-x,y,1/2-z
-x,-y,-z
x,y,-z
-x,y,1/2+z
x,-y,1/2+z
1/2+x,1/2+y,1/2+z
1/2-x,1/2-y,1/2+z
1/2+x,1/2-y,-z
1/2-x,1/2+y,-z
1/2-x,1/2-y,1/2-z
1/2+x,1/2+y,1/2-z
1/2-x,1/2+y,z
1/2+x,1/2-y,z
loop_
_atom_site_type_symbol
_atom_site_label
_atom_site_fract_x
_atom_site_fract_y
_atom_site_fract_z
Si Si1 0.687628 0.739616 0.872975
Si Si2 0.545520 0.820779 0.309112
Si Si3 0.329344 0.906746 0.443398
Si Si4 0.830166 0.029228 0.941672
Si Si5 0.921924 0.186802 0.438512
Si Si6 0.417990 0.063711 0.637280
O O1 0.589240 0.791698 0.845671
O O2 0.795999 0.709622 0.829726
O O3 0.797785 0.765240 0.918482
O O4 0.570022 0.695301 0.901487
O O5 0.500000 0.807175 0.250000
O O6 0.572841 0.890495 0.315653
O O7 0.375246 0.882988 0.500000
O O8 0.169768 0.873739 0.428906
O O9 0.471963 0.903657 0.404772
O O10 0.287952 0.974673 0.447286
O O11 0.751555 0.060038 0.891565
O O12 0.835319 0.058647 0.000000
O O13 0.000000 0.000000 0.932813
O O14 0.956667 0.192167 0.500000
O O15 0.500000 0.000000 0.647809
#
# Coordination Sequence:
#
# PCOD9526125 Si02
#       6
#    16  16  16  16  16  16
#     4  10  22  38  58  83 117 152 199 247 303 364
#     4  11  23  41  62  84 109 152 208 258 307 353
#     4   9  17  31  51  76 114 153 185 224 280 358
#     4   9  18  31  51  82 116 152 192 228 278 351
#     4  10  19  34  55  85 121 153 187 236 302 374
#     4  10  20  36  57  83 115 153 195 246 301 361
#
# _framework density 19.209240000000001
#
# number of rings (size 3 to 8) (size 9 to 14) (size 15 to 20)
#    0.000    2.167    1.667    1.500    2.333    2.333 
#    0.000    1.667    0.000    0.000    0.000    1.167 
#    0.000    0.000    0.000    0.000    0.000    0.000 
#
# Total GULP energy -267343.164504 kJ/mol
# GULP energy per Si atom -5569.649261 kJ/mol
# Density = 1.916552 g / cm^3
# Si number density = 19.209240 Si / 1000 Ang^3
#
#
#
# Elastic Constant Matrix: (Units=GPa)
#
#
# Indices 1 2 3 4 5 6 
#
# 1 81.8699 15.9048 39.3977 0.0000 0.0000 0.0000
# 2 15.9048 72.3678 22.3509 0.0000 0.0000 0.0000
# 3 39.3977 22.3509 75.6683 0.0000 0.0000 0.0000
# 4 0.0000 0.0000 0.0000 23.0513 0.0000 0.0000
# 5 0.0000 0.0000 0.0000 0.0000 19.5798 0.0000
# 6 0.0000 0.0000 0.0000 0.0000 0.0000 21.6540
#
#
#
# Elastic Compliance Matrix: (Units=1/GPa)
#
#
# Indices 1 2 3 4 5 6 
#
# 1 0.016372 -0.001062 -0.008210 0.000000 0.000000 0.000000
# 2 -0.001062 0.015274 -0.003959 0.000000 0.000000 0.000000
# 3 -0.008210 -0.003959 0.018660 0.000000 0.000000 0.000000
# 4 0.000000 0.000000 0.000000 0.043382 0.000000 0.000000
# 5 0.000000 0.000000 0.000000 0.000000 0.051073 0.000000
# 6 0.000000 0.000000 0.000000 0.000000 0.000000 0.046181
#
#
# Mechanical properties :
#
#
# Convention : Reuss Voigt Hill
#
# Bulk Modulus (GPa) = 41.94068 42.80143 42.37106
# Shear Modulus (GPa) = 22.18749 23.00719 22.59734
#
# Velocity S-wave (km/s) = 3.40228 3.46456 3.43356
# Velocity P-wave (km/s) = 6.10860 6.19147 6.15017
#
# Compressibility (1/GPa) = 0.02384320
#
# Stress axis : x y z
#
# Youngs Moduli (GPa) = 61.08015 65.46900 53.59128
#
# Poissons Ratio (x) = 0.06955 0.44001
# Poissons Ratio (y) = 0.06489 0.21215
# Poissons Ratio (z) = 0.50150 0.25917
#
# Static dielectric constant tensor:
#      x y z
#    x 1.687280 0.000000 0.000000 
#    y 0.000000 1.721160 0.000000 
#    z 0.000000 0.000000 1.685350 
# 
# From -- ./inp_files/42441.got.cif
#   From: 2010.05.17/outbox.cif.g08.bks.cpg/sg72_22_cif.got.tgz:42441.got - 2010.06.03 17:03:01.
