data_PCOD9526213
_publ_section_title
;
Structure prediction by ZEFSAII (Michael W. Deem and Ramdas Pophale) SiO2 
 PCOD9526213
Probable space group: I B A M
;
_chemical_formula_sum "Si O2"
_cell_formula_units_Z 116
_cell_length_a 28.180402
_cell_length_b 27.610669
_cell_length_c 7.496065
_cell_angle_alpha 90.000000
_cell_angle_beta 90.000000
_cell_angle_gamma 90.000000
_cell_volume 5832.536395
_symmetry_space_group_name_H-M "I B A M"
_symmetry_group_IT_number 72
_symmetry_cell_setting 'orthorhombic'
loop_
_space_group_symop_operation_xyz
x,y,z
-x,-y,z
x,-y,1/2-z
-x,y,1/2-z
-x,-y,-z
x,y,-z
-x,y,1/2+z
x,-y,1/2+z
1/2+x,1/2+y,1/2+z
1/2-x,1/2-y,1/2+z
1/2+x,1/2-y,-z
1/2-x,1/2+y,-z
1/2-x,1/2-y,1/2-z
1/2+x,1/2+y,1/2-z
1/2-x,1/2+y,z
1/2+x,1/2-y,z
loop_
_atom_site_type_symbol
_atom_site_label
_atom_site_fract_x
_atom_site_fract_y
_atom_site_fract_z
Si Si1 0.681433 0.219547 0.216735
Si Si2 0.348852 0.673272 0.294770
Si Si3 0.052251 0.790856 0.789151
Si Si4 0.180207 0.443844 0.787536
Si Si5 0.419730 0.816714 0.210259
Si Si6 0.253003 0.637839 0.280947
Si Si7 0.571763 0.921573 0.280443
Si Si8 0.500000 0.000000 0.250000
O O1 0.674808 0.273215 0.290690
O O2 0.633932 0.191235 0.275492
O O3 0.725988 0.187404 0.271613
O O4 0.681283 0.223126 0.000000
O O5 0.355733 0.658089 0.500000
O O6 0.401339 0.681534 0.213676
O O7 0.307473 0.639394 0.217807
O O8 0.054541 0.734372 0.734761
O O9 0.000000 0.810645 0.750000
O O10 0.058406 0.790571 0.000000
O O11 0.190117 0.500000 0.750000
O O12 0.220484 0.406936 0.720657
O O13 0.126665 0.430825 0.730829
O O14 0.179508 0.437117 0.000000
O O15 0.440970 0.866857 0.276820
O O16 0.415355 0.824563 0.000000
O O17 0.253979 0.637684 0.500000
O O18 0.566758 0.927760 0.500000
O O19 0.538498 0.960449 0.187331
#
# Coordination Sequence:
#
# PCOD9526213 Si02
#       8
#    16  16  16  16  16  16  16   4
#     4   9  15  26  46  68  90 121 152 182 226 283
#     4   9  18  30  45  69  96 120 152 191 225 271
#     4  10  20  33  47  67  94 123 155 188 226 270
#     4  10  19  35  53  69  91 122 157 193 239 290
#     4   9  17  31  48  65  87 119 158 192 230 279
#     4   9  16  29  50  69  91 124 154 184 232 286
#     4  10  20  34  48  62  85 117 155 200 245 284
#     4  12  22  32  44  66  88 112 162 212 248 268
#
# _framework density 19.888432999999999
#
# number of rings (size 3 to 8) (size 9 to 14) (size 15 to 20)
#    0.000    2.483    2.069    1.034    0.966    0.552 
#    0.000    2.759    0.000    0.000    0.000    0.000 
#    0.000    0.552    0.000    6.897    0.000    0.000 
#
# Total GULP energy -323289.496057 kJ/mol
# GULP energy per Si atom -5573.956829 kJ/mol
# Density = 1.984317 g / cm^3
# Si number density = 19.888433 Si / 1000 Ang^3
#
#
#
# Elastic Constant Matrix: (Units=GPa)
#
#
# Indices 1 2 3 4 5 6 
#
# 1 174.1197 58.0407 -1.7486 0.0000 0.0000 0.0000
# 2 58.0407 51.9365 2.5949 0.0000 0.0000 0.0000
# 3 -1.7486 2.5949 53.7759 0.0000 0.0000 0.0000
# 4 0.0000 0.0000 0.0000 7.7556 0.0000 0.0000
# 5 0.0000 0.0000 0.0000 0.0000 22.4058 0.0000
# 6 0.0000 0.0000 0.0000 0.0000 0.0000 53.0241
#
#
#
# Elastic Compliance Matrix: (Units=1/GPa)
#
#
# Indices 1 2 3 4 5 6 
#
# 1 0.009187 -0.010306 0.000796 0.000000 0.000000 0.000000
# 2 -0.010306 0.030863 -0.001824 0.000000 0.000000 0.000000
# 3 0.000796 -0.001824 0.018710 0.000000 0.000000 0.000000
# 4 0.000000 0.000000 0.000000 0.128939 0.000000 0.000000
# 5 0.000000 0.000000 0.000000 0.000000 0.044631 0.000000
# 6 0.000000 0.000000 0.000000 0.000000 0.000000 0.018859
#
#
# Mechanical properties :
#
#
# Convention : Reuss Voigt Hill
#
# Bulk Modulus (GPa) = 27.70839 44.17847 35.94343
# Shear Modulus (GPa) = 17.48941 31.36676 24.42808
#
# Velocity S-wave (km/s) = 2.96864 3.97563 3.50845
# Velocity P-wave (km/s) = 5.07076 6.58297 5.87572
#
# Compressibility (1/GPa) = 0.03609015
#
# Stress axis : x y z
#
# Youngs Moduli (GPa) = 108.85446 32.40146 53.44844
#
# Poissons Ratio (x) = 0.33393 -0.04255
# Poissons Ratio (y) = 1.12186 0.09751
# Poissons Ratio (z) = -0.08665 0.05911
#
# Static dielectric constant tensor:
#      x y z
#    x 1.744270 0.000000 0.000000 
#    y 0.000000 1.703380 0.000000 
#    z 0.000000 0.000000 1.780830 
# 
# From -- ./inp_files/8683.got.cif
#   From: 2010.05.17/outbox.cif.g08.bks.cpg/sg72_5_cif.got.tgz:8683.got - 2010.06.03 17:03:01.
