data_PCOD9526882
_publ_section_title
;
Structure prediction by ZEFSAII (Michael W. Deem and Ramdas Pophale) SiO2 
 PCOD9526882
Probable space group: I B A M
;
_chemical_formula_sum "Si O2"
_cell_formula_units_Z 116
_cell_length_a 23.108634
_cell_length_b 28.985421
_cell_length_c 7.727762
_cell_angle_alpha 90.000000
_cell_angle_beta 90.000000
_cell_angle_gamma 90.000000
_cell_volume 5176.159198
_symmetry_space_group_name_H-M "I B A M"
_symmetry_group_IT_number 72
_symmetry_cell_setting 'orthorhombic'
loop_
_space_group_symop_operation_xyz
x,y,z
-x,-y,z
x,-y,1/2-z
-x,y,1/2-z
-x,-y,-z
x,y,-z
-x,y,1/2+z
x,-y,1/2+z
1/2+x,1/2+y,1/2+z
1/2-x,1/2-y,1/2+z
1/2+x,1/2-y,-z
1/2-x,1/2+y,-z
1/2-x,1/2-y,1/2-z
1/2+x,1/2+y,1/2-z
1/2-x,1/2+y,z
1/2+x,1/2-y,z
loop_
_atom_site_type_symbol
_atom_site_label
_atom_site_fract_x
_atom_site_fract_y
_atom_site_fract_z
Si Si1 0.225170 0.549808 0.705261
Si Si2 0.863660 0.669027 0.711659
Si Si3 0.000000 0.500000 0.250000
Si Si4 0.608721 0.648695 0.200401
Si Si5 0.235423 0.146955 0.801191
Si Si6 0.406454 0.070102 0.205593
Si Si7 0.564832 0.744069 0.791864
Si Si8 0.431863 0.449008 0.795395
O O1 0.249573 0.500000 0.750000
O O2 0.225238 0.556817 0.500000
O O3 0.258832 0.591660 0.791367
O O4 0.159027 0.552149 0.771816
O O5 0.862057 0.667497 0.500000
O O6 0.797139 0.664161 0.770019
O O7 0.900907 0.623650 0.760464
O O8 0.891885 0.716377 0.771019
O O9 0.048227 0.461745 0.192687
O O10 0.676745 0.659835 0.207025
O O11 0.576613 0.692822 0.279501
O O12 0.596112 0.598092 0.278133
O O13 0.590262 0.646242 0.000000
O O14 0.230363 0.161873 0.000000
O O15 0.421643 0.066881 0.000000
O O16 0.500000 0.758268 0.750000
O O17 0.571896 0.742343 0.000000
O O18 0.409081 0.500000 0.750000
O O19 0.500000 0.447835 0.750000
O O20 0.425425 0.446872 0.000000
#
# Coordination Sequence:
#
# PCOD9526882 Si02
#       8
#    16  16   4  16  16  16  16  16
#     4  11  21  36  57  79 110 150 192 238 290 346
#     4   8  18  38  59  80 113 153 191 242 296 345
#     4  12  22  28  56  86 118 156 198 248 294 340
#     4  10  22  38  57  86 120 152 189 238 290 345
#     4  10  21  38  60  84 113 151 193 239 292 350
#     4  10  21  36  52  78 116 153 195 243 294 347
#     4  10  21  39  62  86 117 153 191 238 293 348
#     4  10  20  35  56  83 117 153 190 231 281 339
#
# _framework density 22.410437999999999
#
# number of rings (size 3 to 8) (size 9 to 14) (size 15 to 20)
#    0.000    2.069    0.690    3.931    0.966    3.310 
#    0.000    4.828    0.000    0.000    0.000    0.000 
#    0.000    0.000    0.000    0.000    0.000    0.000 
#
# Total GULP energy -323582.093036 kJ/mol
# GULP energy per Si atom -5579.001604 kJ/mol
# Density = 2.235943 g / cm^3
# Si number density = 22.410438 Si / 1000 Ang^3
#
#
#
# Elastic Constant Matrix: (Units=GPa)
#
#
# Indices 1 2 3 4 5 6 
#
# 1 56.0445 28.7570 -12.8279 0.0000 0.0000 0.0000
# 2 28.7570 142.0417 9.5190 0.0000 0.0000 0.0000
# 3 -12.8279 9.5190 58.2905 0.0000 0.0000 0.0000
# 4 0.0000 0.0000 0.0000 8.8540 0.0000 0.0000
# 5 0.0000 0.0000 0.0000 0.0000 -4.6380 0.0000
# 6 0.0000 0.0000 0.0000 0.0000 0.0000 -6.1180
#
#
#
# Elastic Compliance Matrix: (Units=1/GPa)
#
#
# Indices 1 2 3 4 5 6 
#
# 1 0.021530 -0.004728 0.005510 0.000000 0.000000 0.000000
# 2 -0.004728 0.008156 -0.002372 0.000000 0.000000 0.000000
# 3 0.005510 -0.002372 0.018756 0.000000 0.000000 0.000000
# 4 0.000000 0.000000 0.000000 0.112944 0.000000 0.000000
# 5 0.000000 0.000000 0.000000 0.000000 -0.215608 0.000000
# 6 0.000000 0.000000 0.000000 0.000000 0.000000 -0.163451
#
#
# Mechanical properties :
#
#
# Convention : Reuss Voigt Hill
#
# Bulk Modulus (GPa) = 22.09387 34.14142 28.11765
# Shear Modulus (GPa) = -25.07450 15.01481 -5.02984
#
# Velocity S-wave (km/s) = -3.34859 2.59123 -1.49976
# Velocity P-wave (km/s) = 2.25180 4.92141 3.09433
#
# Compressibility (1/GPa) = 0.04526142
#
# Stress axis : x y z
#
# Youngs Moduli (GPa) = 46.44621 122.60275 53.31760
#
# Poissons Ratio (x) = 0.57969 -0.29379
# Poissons Ratio (y) = 0.21961 0.12650
# Poissons Ratio (z) = -0.25593 0.29087
#
# Static dielectric constant tensor:
#      x y z
#    x 1.773370 0.000000 0.000000 
#    y 0.000000 1.863610 0.000000 
#    z 0.000000 0.000000 1.809940 
# 
# From -- ./inp_files/7306.got.cif
#   From: 2010.05.17/outbox.cif.g08.bks.cpg/sg72_4_cif.got.tgz:7306.got - 2010.06.03 17:03:01.
