data_PCOD9526238
_publ_section_title
;
Structure prediction by ZEFSAII (Michael W. Deem and Ramdas Pophale) SiO2 
 PCOD9526238
Probable space group: I B A M
;
_chemical_formula_sum "Si O2"
_cell_formula_units_Z 68
_cell_length_a 10.348968
_cell_length_b 20.278855
_cell_length_c 16.928823
_cell_angle_alpha 90.000000
_cell_angle_beta 90.000000
_cell_angle_gamma 90.000000
_cell_volume 3552.771188
_symmetry_space_group_name_H-M "I B A M"
_symmetry_group_IT_number 72
_symmetry_cell_setting 'orthorhombic'
loop_
_space_group_symop_operation_xyz
x,y,z
-x,-y,z
x,-y,1/2-z
-x,y,1/2-z
-x,-y,-z
x,y,-z
-x,y,1/2+z
x,-y,1/2+z
1/2+x,1/2+y,1/2+z
1/2-x,1/2-y,1/2+z
1/2+x,1/2-y,-z
1/2-x,1/2+y,-z
1/2-x,1/2-y,1/2-z
1/2+x,1/2+y,1/2-z
1/2-x,1/2+y,z
1/2+x,1/2-y,z
loop_
_atom_site_type_symbol
_atom_site_label
_atom_site_fract_x
_atom_site_fract_y
_atom_site_fract_z
Si Si1 0.409143 0.804307 0.651882
Si Si2 0.850808 0.379734 0.313479
Si Si3 0.002524 0.828604 0.000000
Si Si4 0.561108 0.352838 0.666742
Si Si5 0.000000 0.500000 0.250000
Si Si6 0.234798 0.728291 0.000000
O O1 0.354811 0.842255 0.728329
O O2 0.548346 0.837065 0.635412
O O3 0.427937 0.727178 0.670824
O O4 0.313386 0.808389 0.578692
O O5 0.705491 0.380012 0.341177
O O6 0.910983 0.451541 0.301130
O O7 0.990355 0.866172 0.916645
O O8 0.145240 0.794217 0.000000
O O9 0.889595 0.773122 0.000000
O O10 0.500000 0.375064 0.750000
#
# Coordination Sequence:
#
# PCOD9526238 Si02
#       6
#    16  16   8  16   4   8
#     4   9  19  29  53  79 112 144 183 220 282 343
#     4  10  19  35  57  79 108 149 189 240 272 349
#     4  10  24  30  48  80 123 151 189 222 278 362
#     4  11  20  32  55  83 119 147 186 228 294 337
#     4   8  20  40  54  82 104 144 204 242 276 334
#     4  10  20  32  46  76 121 155 174 227 283 342
#
# _framework density 19.139987999999999
#
# number of rings (size 3 to 8) (size 9 to 14) (size 15 to 20)
#    0.000    2.353    2.353    2.118   13.176    0.000 
#    0.000    0.588    0.000   17.647    0.000    8.235 
#    0.000    0.000    0.000    0.000    0.000    0.000 
#
# Total GULP energy -189475.708159 kJ/mol
# GULP energy per Si atom -5572.814946 kJ/mol
# Density = 1.909642 g / cm^3
# Si number density = 19.139988 Si / 1000 Ang^3
#
#
#
# Elastic Constant Matrix: (Units=GPa)
#
#
# Indices 1 2 3 4 5 6 
#
# 1 100.3746 16.3841 14.6342 0.0000 0.0000 0.0000
# 2 16.3841 63.0161 2.4761 0.0000 0.0000 0.0000
# 3 14.6342 2.4761 118.6933 0.0001 0.0000 0.0000
# 4 0.0000 0.0000 0.0001 -24.6560 0.0000 0.0000
# 5 0.0000 0.0000 0.0000 0.0000 21.5896 0.0000
# 6 0.0000 0.0000 0.0000 0.0000 0.0000 6.5406
#
#
#
# Elastic Compliance Matrix: (Units=1/GPa)
#
#
# Indices 1 2 3 4 5 6 
#
# 1 0.010586 -0.002703 -0.001249 0.000000 0.000000 0.000000
# 2 -0.002703 0.016572 -0.000012 0.000000 0.000000 0.000000
# 3 -0.001249 -0.000012 0.008579 0.000000 0.000000 0.000000
# 4 0.000000 0.000000 0.000000 -0.040558 0.000000 0.000000
# 5 0.000000 0.000000 0.000000 0.000000 0.046319 0.000000
# 6 0.000000 0.000000 0.000000 0.000000 0.000000 0.152892
#
#
# Mechanical properties :
#
#
# Convention : Reuss Voigt Hill
#
# Bulk Modulus (GPa) = 35.96009 38.78587 37.37298
# Shear Modulus (GPa) = 23.63081 17.26749 20.44915
#
# Velocity S-wave (km/s) = 3.51754 3.00687 3.27218
# Velocity P-wave (km/s) = 5.94358 5.68888 5.81763
#
# Compressibility (1/GPa) = 0.02780861
#
# Stress axis : x y z
#
# Youngs Moduli (GPa) = 94.46436 60.34169 116.55960
#
# Poissons Ratio (x) = 0.16312 0.14556
# Poissons Ratio (y) = 0.25536 0.00145
# Poissons Ratio (z) = 0.11797 0.00075
#
# Static dielectric constant tensor:
#      x y z
#    x 1.708310 0.000000 0.000000 
#    y 0.000000 1.633250 0.000000 
#    z 0.000000 0.000000 1.740970 
# 
# From -- ./inp_files/27825.got.cif
#   From: 2010.05.17/outbox.cif.g08.bks.cpg/sg72_14_cif.got.tgz:27825.got - 2010.06.03 17:03:01.
