data_PCOD9526699
_publ_section_title
;
Structure prediction by ZEFSAII (Michael W. Deem and Ramdas Pophale) SiO2 
 PCOD9526699
Probable space group: I B A M
;
_chemical_formula_sum "Si O2"
_cell_formula_units_Z 96
_cell_length_a 20.608957
_cell_length_b 26.339483
_cell_length_c 9.770868
_cell_angle_alpha 90.000000
_cell_angle_beta 90.000000
_cell_angle_gamma 90.000000
_cell_volume 5303.913169
_symmetry_space_group_name_H-M "I B A M"
_symmetry_group_IT_number 72
_symmetry_cell_setting 'orthorhombic'
loop_
_space_group_symop_operation_xyz
x,y,z
-x,-y,z
x,-y,1/2-z
-x,y,1/2-z
-x,-y,-z
x,y,-z
-x,y,1/2+z
x,-y,1/2+z
1/2+x,1/2+y,1/2+z
1/2-x,1/2-y,1/2+z
1/2+x,1/2-y,-z
1/2-x,1/2+y,-z
1/2-x,1/2-y,1/2-z
1/2+x,1/2+y,1/2-z
1/2-x,1/2+y,z
1/2+x,1/2-y,z
loop_
_atom_site_type_symbol
_atom_site_label
_atom_site_fract_x
_atom_site_fract_y
_atom_site_fract_z
Si Si1 0.797468 0.879753 0.658949
Si Si2 0.437850 0.338186 0.160602
Si Si3 0.180491 0.548981 0.341402
Si Si4 0.262768 0.203734 0.151223
Si Si5 0.085665 0.718549 0.154103
Si Si6 0.060344 0.376388 0.163785
O O1 0.787284 0.861878 0.500000
O O2 0.874564 0.873691 0.682384
O O3 0.754620 0.930583 0.671031
O O4 0.765189 0.844100 0.771075
O O5 0.500000 0.352049 0.250000
O O6 0.420720 0.278443 0.188350
O O7 0.453854 0.340946 0.000000
O O8 0.169925 0.500000 0.250000
O O9 0.170207 0.535849 0.500000
O O10 0.127360 0.592953 0.309296
O O11 0.250000 0.250000 0.250000
O O12 0.339619 0.203550 0.138588
O O13 0.233939 0.209923 0.000000
O O14 0.064878 0.680717 0.275163
O O15 0.056325 0.710961 0.000000
O O16 0.000000 0.399521 0.250000
O O17 0.049796 0.376987 0.000000
#
# Coordination Sequence:
#
# PCOD9526699 Si02
#       6
#    16  16  16  16  16  16
#     4  10  20  39  59  80 111 147 187 234 285 335
#     4  10  21  36  54  80 117 152 187 227 271 326
#     4  10  23  41  63  85 108 140 183 237 294 344
#     4  11  20  31  52  82 113 148 188 231 274 323
#     4  10  20  34  53  80 114 155 193 228 266 316
#     4  11  23  38  57  82 114 153 190 231 277 329
#
# _framework density 18.099844999999998
#
# number of rings (size 3 to 8) (size 9 to 14) (size 15 to 20)
#    0.000    1.667    3.333    1.500    0.000    5.667 
#    0.000    1.667    0.000    0.500    0.000    3.500 
#    0.000    0.000    0.000    0.000    0.000    0.000 
#
# Total GULP energy -267331.171871 kJ/mol
# GULP energy per Si atom -5569.399414 kJ/mol
# Density = 1.805865 g / cm^3
# Si number density = 18.099845 Si / 1000 Ang^3
#
#
#
# Elastic Constant Matrix: (Units=GPa)
#
#
# Indices 1 2 3 4 5 6 
#
# 1 118.5726 24.2315 46.5219 0.0000 0.0000 0.0000
# 2 24.2315 47.9026 37.0931 0.0000 0.0000 0.0000
# 3 46.5219 37.0931 94.9783 0.0000 0.0000 0.0000
# 4 0.0000 0.0000 0.0000 24.8865 0.0000 0.0000
# 5 0.0000 0.0000 0.0000 0.0000 34.1858 0.0000
# 6 0.0000 0.0000 0.0000 0.0000 0.0000 11.3860
#
#
#
# Elastic Compliance Matrix: (Units=1/GPa)
#
#
# Indices 1 2 3 4 5 6 
#
# 1 0.010561 -0.001916 -0.004425 0.000000 0.000000 0.000000
# 2 -0.001916 0.030273 -0.010884 0.000000 0.000000 0.000000
# 3 -0.004425 -0.010884 0.016947 0.000000 0.000000 0.000000
# 4 0.000000 0.000000 0.000000 0.040183 0.000000 0.000000
# 5 0.000000 0.000000 0.000000 0.000000 0.029252 0.000000
# 6 0.000000 0.000000 0.000000 0.000000 0.000000 0.087827
#
#
# Mechanical properties :
#
#
# Convention : Reuss Voigt Hill
#
# Bulk Modulus (GPa) = 42.86189 53.01628 47.93909
# Shear Modulus (GPa) = 19.43479 24.33212 21.88345
#
# Velocity S-wave (km/s) = 3.28037 3.67048 3.48090
# Velocity P-wave (km/s) = 6.17090 6.87880 6.53444
#
# Compressibility (1/GPa) = 0.02333075
#
# Stress axis : x y z
#
# Youngs Moduli (GPa) = 94.68547 33.03244 59.00795
#
# Poissons Ratio (x) = 0.06330 0.26110
# Poissons Ratio (y) = 0.18143 0.64227
# Poissons Ratio (z) = 0.41896 0.35954
#
# Static dielectric constant tensor:
#      x y z
#    x 1.665220 0.000000 0.000000 
#    y 0.000000 1.609630 0.000000 
#    z 0.000000 0.000000 1.656950 
# 
# From -- ./inp_files/5949.got.cif
#   From: 2010.05.17/outbox.cif.g08.bks.cpg/sg72_3_cif.got.tgz:5949.got - 2010.06.03 17:03:01.
