data_PCOD9526418
_publ_section_title
;
Structure prediction by ZEFSAII (Michael W. Deem and Ramdas Pophale) SiO2 
 PCOD9526418
Probable space group: I B A M
;
_chemical_formula_sum "Si O2"
_cell_formula_units_Z 96
_cell_length_a 21.638958
_cell_length_b 14.616315
_cell_length_c 13.940151
_cell_angle_alpha 90.000000
_cell_angle_beta 90.000000
_cell_angle_gamma 90.000000
_cell_volume 4409.016419
_symmetry_space_group_name_H-M "I B A M"
_symmetry_group_IT_number 72
_symmetry_cell_setting 'orthorhombic'
loop_
_space_group_symop_operation_xyz
x,y,z
-x,-y,z
x,-y,1/2-z
-x,y,1/2-z
-x,-y,-z
x,y,-z
-x,y,1/2+z
x,-y,1/2+z
1/2+x,1/2+y,1/2+z
1/2-x,1/2-y,1/2+z
1/2+x,1/2-y,-z
1/2-x,1/2+y,-z
1/2-x,1/2-y,1/2-z
1/2+x,1/2+y,1/2-z
1/2-x,1/2+y,z
1/2+x,1/2-y,z
loop_
_atom_site_type_symbol
_atom_site_label
_atom_site_fract_x
_atom_site_fract_y
_atom_site_fract_z
Si Si1 0.984635 0.268054 0.500000
Si Si2 0.625423 0.500000 0.250000
Si Si3 0.263865 0.290286 0.615300
Si Si4 0.773479 0.909025 0.615263
Si Si5 0.671438 0.045945 0.384791
Si Si6 0.446135 0.145021 0.182819
Si Si7 0.595445 0.308124 0.820591
O O1 0.943611 0.217442 0.414560
O O2 0.024914 0.321384 0.583579
O O3 0.671462 0.538388 0.167639
O O4 0.586958 0.412971 0.213113
O O5 0.269626 0.287698 0.500000
O O6 0.229843 0.196760 0.643101
O O7 0.221666 0.376322 0.639272
O O8 0.332151 0.298181 0.655676
O O9 0.781345 0.917524 0.500000
O O10 0.706499 0.952264 0.639355
O O11 0.661728 0.046343 0.500000
O O12 0.608155 0.073193 0.335746
O O13 0.500000 0.107087 0.250000
O O14 0.421092 0.235288 0.238082
#
# Coordination Sequence:
#
# PCOD9526418 Si02
#       7
#     8   8  16  16  16  16  16
#     4  10  22  46  67  85 126 176 228 267 323 386
#     4  12  24  38  63 102 133 166 208 274 342 394
#     4  10  20  38  65  98 130 172 203 265 350 397
#     4  10  23  37  58  99 141 165 212 260 332 412
#     4  10  19  37  66  93 135 172 213 272 333 391
#     4  10  22  40  64  94 123 177 231 268 315 384
#     4  11  23  40  68  94 128 168 218 272 333 394
#
# _framework density 21.773562999999999
#
# number of rings (size 3 to 8) (size 9 to 14) (size 15 to 20)
#    0.000    1.667    3.333    1.000    3.500    1.333 
#    1.500    4.583    0.000    8.000    0.000    0.000 
#    0.000    0.000    0.000    0.000    0.000    0.000 
#
# Total GULP energy -267684.040652 kJ/mol
# GULP energy per Si atom -5576.750847 kJ/mol
# Density = 2.172401 g / cm^3
# Si number density = 21.773563 Si / 1000 Ang^3
#
#
#
# Elastic Constant Matrix: (Units=GPa)
#
#
# Indices 1 2 3 4 5 6 
#
# 1 78.9227 9.1310 41.7371 0.0000 0.0000 0.0000
# 2 9.1310 72.6516 34.7605 0.0000 0.0000 0.0000
# 3 41.7371 34.7605 142.6388 0.0000 0.0000 0.0000
# 4 0.0000 0.0000 0.0000 25.3953 0.0000 0.0000
# 5 0.0000 0.0000 0.0000 0.0000 41.9924 0.0000
# 6 0.0000 0.0000 0.0000 0.0000 0.0000 15.8437
#
#
#
# Elastic Compliance Matrix: (Units=1/GPa)
#
#
# Indices 1 2 3 4 5 6 
#
# 1 0.014994 0.000243 -0.004447 0.000000 0.000000 0.000000
# 2 0.000243 0.015585 -0.003869 0.000000 0.000000 0.000000
# 3 -0.004447 -0.003869 0.009255 0.000000 0.000000 0.000000
# 4 0.000000 0.000000 0.000000 0.039377 0.000000 0.000000
# 5 0.000000 0.000000 0.000000 0.000000 0.023814 0.000000
# 6 0.000000 0.000000 0.000000 0.000000 0.000000 0.063116
#
#
# Mechanical properties :
#
#
# Convention : Reuss Voigt Hill
#
# Bulk Modulus (GPa) = 42.21486 51.71894 46.96690
# Shear Modulus (GPa) = 26.29050 30.55192 28.42121
#
# Velocity S-wave (km/s) = 3.47861 3.74995 3.61682
# Velocity P-wave (km/s) = 5.96360 6.52335 6.24975
#
# Compressibility (1/GPa) = 0.02368834
#
# Stress axis : x y z
#
# Youngs Moduli (GPa) = 66.69330 64.16439 108.05319
#
# Poissons Ratio (x) = -0.01559 0.48047
# Poissons Ratio (y) = -0.01621 0.41807
# Poissons Ratio (z) = 0.29656 0.24826
#
# Static dielectric constant tensor:
#      x y z
#    x 1.768950 0.000000 0.000000 
#    y 0.000000 1.789870 0.000000 
#    z 0.000000 0.000000 1.808990 
# 
# From -- ./inp_files/25139.got.cif
#   From: 2010.05.17/outbox.cif.g08.bks.cpg/sg72_13_cif.got.tgz:25139.got - 2010.06.03 17:03:01.
