data_PCOD9526747
_publ_section_title
;
Structure prediction by ZEFSAII (Michael W. Deem and Ramdas Pophale) SiO2 
 PCOD9526747
Probable space group: I B A M
;
_chemical_formula_sum "Si O2"
_cell_formula_units_Z 112
_cell_length_a 10.164468
_cell_length_b 21.241320
_cell_length_c 26.405695
_cell_angle_alpha 90.000000
_cell_angle_beta 90.000000
_cell_angle_gamma 90.000000
_cell_volume 5701.166929
_symmetry_space_group_name_H-M "I B A M"
_symmetry_group_IT_number 72
_symmetry_cell_setting 'orthorhombic'
loop_
_space_group_symop_operation_xyz
x,y,z
-x,-y,z
x,-y,1/2-z
-x,y,1/2-z
-x,-y,-z
x,y,-z
-x,y,1/2+z
x,-y,1/2+z
1/2+x,1/2+y,1/2+z
1/2-x,1/2-y,1/2+z
1/2+x,1/2-y,-z
1/2-x,1/2+y,-z
1/2-x,1/2-y,1/2-z
1/2+x,1/2+y,1/2-z
1/2-x,1/2+y,z
1/2+x,1/2-y,z
loop_
_atom_site_type_symbol
_atom_site_label
_atom_site_fract_x
_atom_site_fract_y
_atom_site_fract_z
Si Si1 0.279266 0.474142 0.939554
Si Si2 0.468521 0.410114 0.559783
Si Si3 0.046935 0.231738 0.059837
Si Si4 0.328180 0.867122 0.803769
Si Si5 0.649843 0.999067 0.342058
Si Si6 0.716856 0.736473 0.875004
Si Si7 0.142526 0.639512 0.184571
O O1 0.368255 0.535282 0.926059
O O2 0.380315 0.418723 0.923211
O O3 0.159202 0.479484 0.901223
O O4 0.249311 0.472380 0.000000
O O5 0.483546 0.420260 0.500000
O O6 0.413230 0.341313 0.566717
O O7 0.911465 0.236779 0.089876
O O8 0.159855 0.270363 0.087218
O O9 0.033327 0.245098 0.000000
O O10 0.286847 0.939876 0.813156
O O11 0.236044 0.818831 0.834083
O O12 0.329031 0.853820 0.744131
O O13 0.482068 0.859208 0.821615
O O14 0.500000 0.000000 0.323890
O O15 0.694220 0.070663 0.332835
O O16 0.708526 0.802939 0.845295
#
# Coordination Sequence:
#
# PCOD9526747 Si02
#       7
#    16  16  16  16  16  16  16
#     4   9  16  30  52  80 112 148 195 237 280 350
#     4   8  16  31  52  74 103 149 193 229 278 341
#     4  11  23  38  58  85 121 160 197 241 296 360
#     4  10  21  39  61  87 117 156 204 253 301 354
#     4  10  20  34  56  82 119 155 193 238 298 357
#     4  12  22  40  62  90 120 156 202 250 300 352
#     4  10  21  39  61  87 117 156 204 253 301 354
#
# _framework density 19.645101
#
# number of rings (size 3 to 8) (size 9 to 14) (size 15 to 20)
#    0.000    2.000    1.429    3.857    0.000    2.000 
#    0.000    1.429    0.000    0.000    0.000    8.000 
#    0.000    0.000    0.000    0.000    0.000    0.000 
#
# Total GULP energy -311937.057590 kJ/mol
# GULP energy per Si atom -5570.304600 kJ/mol
# Density = 1.960039 g / cm^3
# Si number density = 19.645101 Si / 1000 Ang^3
#
#
#
# Elastic Constant Matrix: (Units=GPa)
#
#
# Indices 1 2 3 4 5 6 
#
# 1 44.6609 -2.5783 22.2038 0.0000 0.0000 0.0000
# 2 -2.5783 85.5729 31.5118 0.0000 0.0000 0.0000
# 3 22.2038 31.5118 98.2358 0.0000 0.0000 0.0000
# 4 0.0000 0.0000 0.0000 29.5246 0.0000 0.0000
# 5 0.0000 0.0000 0.0000 0.0000 25.0229 0.0000
# 6 0.0000 0.0000 0.0000 0.0000 0.0000 21.9118
#
#
#
# Elastic Compliance Matrix: (Units=1/GPa)
#
#
# Indices 1 2 3 4 5 6 
#
# 1 0.026045 0.003348 -0.006961 0.000000 0.000000 0.000000
# 2 0.003348 0.013682 -0.005145 0.000000 0.000000 0.000000
# 3 -0.006961 -0.005145 0.013403 0.000000 0.000000 0.000000
# 4 0.000000 0.000000 0.000000 0.033870 0.000000 0.000000
# 5 0.000000 0.000000 0.000000 0.000000 0.039963 0.000000
# 6 0.000000 0.000000 0.000000 0.000000 0.000000 0.045637
#
#
# Mechanical properties :
#
#
# Convention : Reuss Voigt Hill
#
# Bulk Modulus (GPa) = 28.07929 36.74937 32.41433
# Shear Modulus (GPa) = 24.75388 27.11402 25.93395
#
# Velocity S-wave (km/s) = 3.55357 3.71912 3.63729
# Velocity P-wave (km/s) = 5.58225 6.09834 5.84599
#
# Compressibility (1/GPa) = 0.03561344
#
# Stress axis : x y z
#
# Youngs Moduli (GPa) = 38.39524 73.09079 74.60762
#
# Poissons Ratio (x) = -0.24471 0.51933
# Poissons Ratio (y) = -0.12855 0.38389
# Poissons Ratio (z) = 0.26726 0.37609
#
# Static dielectric constant tensor:
#      x y z
#    x 1.716610 0.000000 0.000000 
#    y 0.000000 2.310540 0.000000 
#    z 0.000000 0.000000 1.678230 
# 
# From -- ./inp_files/43517.got.cif
#   From: 2010.05.17/outbox.cif.g08.bks.cpg/sg72_22_cif.got.tgz:43517.got - 2010.06.03 17:03:01.
