data_PCOD9526277
_publ_section_title
;
Structure prediction by ZEFSAII (Michael W. Deem and Ramdas Pophale) SiO2 
 PCOD9526277
Probable space group: I B A M
;
_chemical_formula_sum "Si O2"
_cell_formula_units_Z 116
_cell_length_a 20.729474
_cell_length_b 14.659805
_cell_length_c 16.159599
_cell_angle_alpha 90.000000
_cell_angle_beta 90.000000
_cell_angle_gamma 90.000000
_cell_volume 4910.741293
_symmetry_space_group_name_H-M "I B A M"
_symmetry_group_IT_number 72
_symmetry_cell_setting 'orthorhombic'
loop_
_space_group_symop_operation_xyz
x,y,z
-x,-y,z
x,-y,1/2-z
-x,y,1/2-z
-x,-y,-z
x,y,-z
-x,y,1/2+z
x,-y,1/2+z
1/2+x,1/2+y,1/2+z
1/2-x,1/2-y,1/2+z
1/2+x,1/2-y,-z
1/2-x,1/2+y,-z
1/2-x,1/2-y,1/2-z
1/2+x,1/2+y,1/2-z
1/2-x,1/2+y,z
1/2+x,1/2-y,z
loop_
_atom_site_type_symbol
_atom_site_label
_atom_site_fract_x
_atom_site_fract_y
_atom_site_fract_z
Si Si1 0.500000 0.000000 0.750000
Si Si2 0.728834 0.535933 0.100925
Si Si3 0.918012 0.360463 0.644124
Si Si4 0.498630 0.695348 0.093960
Si Si5 0.857815 0.463506 0.906798
Si Si6 0.366781 0.387501 0.399688
Si Si7 0.749404 0.254515 0.399719
Si Si8 0.113441 0.706231 0.181382
O O1 0.460860 0.932810 0.807954
O O2 0.786154 0.469572 0.129808
O O3 0.663134 0.485120 0.126841
O O4 0.747029 0.638346 0.125516
O O5 0.729471 0.534473 0.000000
O O6 0.959160 0.290500 0.591672
O O7 0.875944 0.429822 0.591387
O O8 0.886768 0.305457 0.720510
O O9 0.441010 0.629883 0.127244
O O10 0.560839 0.720149 0.149725
O O11 0.518347 0.669636 0.000000
O O12 0.901568 0.394224 0.856144
O O13 0.856561 0.428285 0.000000
O O14 0.371058 0.386746 0.500000
O O15 0.312378 0.308675 0.381477
O O16 0.742817 0.251003 0.500000
O O17 0.683666 0.222923 0.356210
#
# Coordination Sequence:
#
# PCOD9526277 Si02
#       8
#     4  16  16  16  16  16  16  16
#     4  12  20  36  50  72 112 162 182 216 294 376
#     4   9  18  34  59  88 119 154 197 254 307 345
#     4  12  22  38  54  81 123 161 190 238 313 359
#     4  11  22  37  59  86 113 154 208 248 287 362
#     4  11  20  35  61  87 113 153 203 249 293 358
#     4   9  18  35  58  87 122 156 199 255 306 348
#     4  10  19  35  59  87 115 153 202 249 301 357
#     4  12  22  36  58  85 121 155 194 248 306 366
#
# _framework density 23.621687999999999
#
# number of rings (size 3 to 8) (size 9 to 14) (size 15 to 20)
#    0.000    1.379    4.138    2.483    0.000    2.207 
#    0.000    5.517    0.000    3.310    0.000    1.931 
#    0.000    0.000    0.000    0.000    0.000    0.276 
#
# Total GULP energy -323464.271833 kJ/mol
# GULP energy per Si atom -5576.970204 kJ/mol
# Density = 2.356792 g / cm^3
# Si number density = 23.621688 Si / 1000 Ang^3
#
#
#
# Elastic Constant Matrix: (Units=GPa)
#
#
# Indices 1 2 3 4 5 6 
#
# 1 77.6110 6.3133 18.0144 0.0000 0.0000 0.0000
# 2 6.3133 55.8791 4.4434 0.0000 0.0000 0.0000
# 3 18.0144 4.4434 60.1411 0.0000 0.0000 0.0000
# 4 0.0000 0.0000 0.0000 20.5485 0.0000 0.0000
# 5 0.0000 0.0000 0.0000 0.0000 15.9489 0.0000
# 6 0.0000 0.0000 0.0000 0.0000 0.0000 31.7643
#
#
#
# Elastic Compliance Matrix: (Units=1/GPa)
#
#
# Indices 1 2 3 4 5 6 
#
# 1 0.013934 -0.001250 -0.004081 0.000000 0.000000 0.000000
# 2 -0.001250 0.018114 -0.000964 0.000000 0.000000 0.000000
# 3 -0.004081 -0.000964 0.017921 0.000000 0.000000 0.000000
# 4 0.000000 0.000000 0.000000 0.048665 0.000000 0.000000
# 5 0.000000 0.000000 0.000000 0.000000 0.062700 0.000000
# 6 0.000000 0.000000 0.000000 0.000000 0.000000 0.031482
#
#
# Mechanical properties :
#
#
# Convention : Reuss Voigt Hill
#
# Bulk Modulus (GPa) = 26.75322 27.90816 27.33069
# Shear Modulus (GPa) = 22.94993 24.64302 23.79648
#
# Velocity S-wave (km/s) = 3.12037 3.23342 3.17740
# Velocity P-wave (km/s) = 4.93281 5.07743 5.00564
#
# Compressibility (1/GPa) = 0.03737868
#
# Stress axis : x y z
#
# Youngs Moduli (GPa) = 71.76819 55.20707 55.79961
#
# Poissons Ratio (x) = 0.06899 0.22774
# Poissons Ratio (y) = 0.08969 0.05379
# Poissons Ratio (z) = 0.29291 0.05322
#
# Static dielectric constant tensor:
#      x y z
#    x 2.052980 0.000000 0.000000 
#    y 0.000000 1.972790 0.000000 
#    z 0.000000 0.000000 1.838480 
# 
# From -- ./inp_files/31755.got.cif
#   From: 2010.05.17/outbox.cif.g08.bks.cpg/sg72_16_cif.got.tgz:31755.got - 2010.06.03 17:03:01.
