data_PCOD9526261
_publ_section_title
;
Structure prediction by ZEFSAII (Michael W. Deem and Ramdas Pophale) SiO2 
 PCOD9526261
Probable space group: I B A M
;
_chemical_formula_sum "Si O2"
_cell_formula_units_Z 112
_cell_length_a 13.873192
_cell_length_b 23.689157
_cell_length_c 14.915181
_cell_angle_alpha 90.000000
_cell_angle_beta 90.000000
_cell_angle_gamma 90.000000
_cell_volume 4901.788076
_symmetry_space_group_name_H-M "I B A M"
_symmetry_group_IT_number 72
_symmetry_cell_setting 'orthorhombic'
loop_
_space_group_symop_operation_xyz
x,y,z
-x,-y,z
x,-y,1/2-z
-x,y,1/2-z
-x,-y,-z
x,y,-z
-x,y,1/2+z
x,-y,1/2+z
1/2+x,1/2+y,1/2+z
1/2-x,1/2-y,1/2+z
1/2+x,1/2-y,-z
1/2-x,1/2+y,-z
1/2-x,1/2-y,1/2-z
1/2+x,1/2+y,1/2-z
1/2-x,1/2+y,z
1/2+x,1/2-y,z
loop_
_atom_site_type_symbol
_atom_site_label
_atom_site_fract_x
_atom_site_fract_y
_atom_site_fract_z
Si Si1 0.822138 0.853041 0.296924
Si Si2 0.878164 0.840691 0.903580
Si Si3 0.663832 0.903107 0.399916
Si Si4 0.542162 0.131999 0.650064
Si Si5 0.038551 0.061931 0.395880
Si Si6 0.606441 0.980236 0.108093
Si Si7 0.961003 0.757392 0.351646
O O1 0.823772 0.841799 0.191009
O O2 0.715767 0.861291 0.333307
O O3 0.884374 0.907891 0.329882
O O4 0.873238 0.800992 0.347395
O O5 0.948472 0.895061 0.898068
O O6 0.950447 0.786903 0.902362
O O7 0.826318 0.842153 0.000000
O O8 0.704510 0.898070 0.500000
O O9 0.551061 0.889025 0.404817
O O10 0.674337 0.967776 0.366635
O O11 0.500000 0.132793 0.750000
O O12 0.621290 0.082883 0.641794
O O13 0.567910 0.194764 0.620266
O O14 0.074410 0.058099 0.500000
O O15 0.000000 0.000000 0.369629
O O16 0.500000 0.000000 0.139624
O O17 0.606489 0.979256 0.000000
O O18 0.000000 0.754007 0.250000
#
# Coordination Sequence:
#
# PCOD9526261 Si02
#       7
#    16  16  16  16  16  16  16
#     4  10  19  35  58  85 118 155 197 246 299 352
#     4   9  18  32  52  80 116 158 201 244 291 350
#     4  10  21  37  58  85 116 152 195 246 302 354
#     4  10  19  35  60  87 114 151 197 240 292 359
#     4   9  17  31  53  80 110 149 198 244 289 353
#     4   8  16  32  53  79 111 146 188 234 283 351
#     4   8  17  34  56  84 116 155 201 243 290 357
#
# _framework density 22.848806
#
# number of rings (size 3 to 8) (size 9 to 14) (size 15 to 20)
#    0.000    2.857    0.000    3.000    0.000    5.429 
#    0.000    9.286    0.000    5.143    0.000    1.000 
#    0.000    0.571    0.000    0.000    0.000    0.000 
#
# Total GULP energy -312565.391457 kJ/mol
# GULP energy per Si atom -5581.524847 kJ/mol
# Density = 2.279680 g / cm^3
# Si number density = 22.848806 Si / 1000 Ang^3
#
#
#
# Elastic Constant Matrix: (Units=GPa)
#
#
# Indices 1 2 3 4 5 6 
#
# 1 31.4284 15.5404 19.3874 0.0001 0.0000 0.0000
# 2 15.5404 156.9787 27.4402 0.0007 0.0000 0.0000
# 3 19.3874 27.4402 116.9882 0.0003 0.0000 0.0000
# 4 0.0001 0.0007 0.0003 48.1222 -0.0001 0.0000
# 5 0.0000 0.0000 0.0000 -0.0001 19.7004 0.0000
# 6 0.0000 0.0000 0.0000 0.0000 0.0000 12.7443
#
#
#
# Elastic Compliance Matrix: (Units=1/GPa)
#
#
# Indices 1 2 3 4 5 6 
#
# 1 0.036479 -0.002664 -0.005421 0.000000 0.000000 0.000000
# 2 -0.002664 0.006837 -0.001162 0.000000 0.000000 0.000000
# 3 -0.005421 -0.001162 0.009719 0.000000 0.000000 0.000000
# 4 0.000000 0.000000 0.000000 0.020780 0.000000 0.000000
# 5 0.000000 0.000000 0.000000 0.000000 0.050760 0.000000
# 6 0.000000 0.000000 0.000000 0.000000 0.000000 0.078466
#
#
# Mechanical properties :
#
#
# Convention : Reuss Voigt Hill
#
# Bulk Modulus (GPa) = 28.95023 47.79237 38.37130
# Shear Modulus (GPa) = 21.45465 32.31521 26.88493
#
# Velocity S-wave (km/s) = 3.06761 3.76481 3.43395
# Velocity P-wave (km/s) = 5.02442 6.31352 5.70550
#
# Compressibility (1/GPa) = 0.03454204
#
# Stress axis : x y z
#
# Youngs Moduli (GPa) = 27.41277 146.25957 102.89354
#
# Poissons Ratio (x) = 0.38961 0.55774
# Poissons Ratio (y) = 0.07302 0.11959
# Poissons Ratio (z) = 0.14859 0.16999
#
# Static dielectric constant tensor:
#      x y z
#    x 1.876520 0.000000 0.000000 
#    y 0.000000 1.880310 0.000000 
#    z 0.000000 0.000000 1.888330 
# 
# From -- ./inp_files/22146.got.cif
#   From: 2010.05.17/outbox.cif.g08.bks.cpg/sg72_12_cif.got.tgz:22146.got - 2010.06.03 17:03:01.
