data_PCOD9526660
_publ_section_title
;
Structure prediction by ZEFSAII (Michael W. Deem and Ramdas Pophale) SiO2 
 PCOD9526660
Probable space group: I B A M
;
_chemical_formula_sum "Si O2"
_cell_formula_units_Z 88
_cell_length_a 5.037506
_cell_length_b 31.147110
_cell_length_c 29.743482
_cell_angle_alpha 90.000000
_cell_angle_beta 90.000000
_cell_angle_gamma 90.000000
_cell_volume 4666.863968
_symmetry_space_group_name_H-M "I B A M"
_symmetry_group_IT_number 72
_symmetry_cell_setting 'orthorhombic'
loop_
_space_group_symop_operation_xyz
x,y,z
-x,-y,z
x,-y,1/2-z
-x,y,1/2-z
-x,-y,-z
x,y,-z
-x,y,1/2+z
x,-y,1/2+z
1/2+x,1/2+y,1/2+z
1/2-x,1/2-y,1/2+z
1/2+x,1/2-y,-z
1/2-x,1/2+y,-z
1/2-x,1/2-y,1/2-z
1/2+x,1/2+y,1/2-z
1/2-x,1/2+y,z
1/2+x,1/2-y,z
loop_
_atom_site_type_symbol
_atom_site_label
_atom_site_fract_x
_atom_site_fract_y
_atom_site_fract_z
Si Si1 0.098626 0.547398 0.182696
Si Si2 0.729137 0.720961 0.051943
Si Si3 0.599777 0.398639 0.703488
Si Si4 0.074278 0.137717 0.605562
Si Si5 0.078007 0.414781 0.585371
Si Si6 0.753761 0.531254 0.500000
O O1 0.393499 0.561725 0.196179
O O2 0.086245 0.554615 0.128948
O O3 0.000000 0.500000 0.194229
O O4 0.890986 0.581040 0.203677
O O5 0.522329 0.760042 0.057579
O O6 0.656691 0.683389 0.086133
O O7 0.700972 0.705487 0.000000
O O8 0.500000 0.378140 0.750000
O O9 0.592834 0.368701 0.659415
O O10 0.278867 0.103278 0.583141
O O11 0.773450 0.125266 0.593939
O O12 0.202910 0.439259 0.543480
O O13 0.500000 0.500000 0.500000
O O14 0.000000 0.500000 0.500000
#
# Coordination Sequence:
#
# PCOD9526660 Si02
#       6
#    16  16  16  16  16   8
#     4  10  20  34  51  74 106 140 182 234 282 319
#     4  10  21  36  58  87 112 138 170 216 272 328
#     4  10  21  35  53  78 104 140 185 225 275 326
#     4  10  21  38  57  79 110 143 178 220 274 330
#     4  10  22  35  53  77 104 149 187 225 269 325
#     4  12  24  36  52  76 108 148 196 238 272 312
#
# _framework density 18.856347
#
# number of rings (size 3 to 8) (size 9 to 14) (size 15 to 20)
#    0.000    1.818    0.000    3.818    2.545    5.091 
#    0.000    0.000    0.000    1.091    0.000    0.000 
#    0.000    0.000    0.000    0.000    0.000    0.000 
#
# Total GULP energy -245614.500640 kJ/mol
# GULP energy per Si atom -5582.147742 kJ/mol
# Density = 1.881343 g / cm^3
# Si number density = 18.856347 Si / 1000 Ang^3
#
#
#
# Elastic Constant Matrix: (Units=GPa)
#
#
# Indices 1 2 3 4 5 6 
#
# 1 77.5886 -8.0816 13.7021 0.0000 0.0000 0.0000
# 2 -8.0816 49.0532 40.3459 0.0000 0.0000 0.0000
# 3 13.7021 40.3459 131.7065 0.0000 0.0000 0.0000
# 4 0.0000 0.0000 0.0000 -9.3341 0.0000 0.0000
# 5 0.0000 0.0000 0.0000 0.0000 23.3700 0.0000
# 6 0.0000 0.0000 0.0000 0.0000 0.0000 17.9353
#
#
#
# Elastic Compliance Matrix: (Units=1/GPa)
#
#
# Indices 1 2 3 4 5 6 
#
# 1 0.013878 0.004644 -0.002867 0.000000 0.000000 0.000000
# 2 0.004644 0.028806 -0.009307 0.000000 0.000000 0.000000
# 3 -0.002867 -0.009307 0.010742 0.000000 0.000000 0.000000
# 4 0.000000 0.000000 0.000000 -0.107134 0.000000 0.000000
# 5 0.000000 0.000000 0.000000 0.000000 0.042790 0.000000
# 6 0.000000 0.000000 0.000000 0.000000 0.000000 0.055756
#
#
# Mechanical properties :
#
#
# Convention : Reuss Voigt Hill
#
# Bulk Modulus (GPa) = 26.06384 38.92012 32.49198
# Shear Modulus (GPa) = 68.78799 20.55305 44.67052
#
# Velocity S-wave (km/s) = 6.04642 3.30507 4.87251
# Velocity P-wave (km/s) = 7.91189 5.93715 6.99456
#
# Compressibility (1/GPa) = 0.03836733
#
# Stress axis : x y z
#
# Youngs Moduli (GPa) = 72.05418 34.71439 93.09226
#
# Poissons Ratio (x) = -0.16122 0.26685
# Poissons Ratio (y) = -0.33463 0.86646
# Poissons Ratio (z) = 0.20654 0.32310
#
# Static dielectric constant tensor:
#      x y z
#    x 1.636020 0.000000 0.000000 
#    y 0.000000 1.610960 0.000000 
#    z 0.000000 0.000000 1.691430 
# 
# From -- ./inp_files/50298.got.cif
#   From: 2010.05.17/outbox.cif.g08.bks.cpg/sg72_26_cif.got.tgz:50298.got - 2010.06.03 17:03:01.
