data_PCOD9526161
_publ_section_title
;
Structure prediction by ZEFSAII (Michael W. Deem and Ramdas Pophale) SiO2 
 PCOD9526161
Probable space group: I B A M
;
_chemical_formula_sum "Si O2"
_cell_formula_units_Z 104
_cell_length_a 7.749432
_cell_length_b 23.656817
_cell_length_c 25.713856
_cell_angle_alpha 90.000000
_cell_angle_beta 90.000000
_cell_angle_gamma 90.000000
_cell_volume 4714.041371
_symmetry_space_group_name_H-M "I B A M"
_symmetry_group_IT_number 72
_symmetry_cell_setting 'orthorhombic'
loop_
_space_group_symop_operation_xyz
x,y,z
-x,-y,z
x,-y,1/2-z
-x,y,1/2-z
-x,-y,-z
x,y,-z
-x,y,1/2+z
x,-y,1/2+z
1/2+x,1/2+y,1/2+z
1/2-x,1/2-y,1/2+z
1/2+x,1/2-y,-z
1/2-x,1/2+y,-z
1/2-x,1/2-y,1/2-z
1/2+x,1/2+y,1/2-z
1/2-x,1/2+y,z
1/2+x,1/2-y,z
loop_
_atom_site_type_symbol
_atom_site_label
_atom_site_fract_x
_atom_site_fract_y
_atom_site_fract_z
Si Si1 0.966327 0.621112 0.829553
Si Si2 0.808069 0.182978 0.338993
Si Si3 0.186913 0.790102 0.798619
Si Si4 0.000000 0.500000 0.151480
Si Si5 0.326303 0.883276 0.056830
Si Si6 0.936798 0.127714 0.557500
Si Si7 0.236780 0.482009 0.557524
O O1 0.819586 0.658850 0.803222
O O2 0.935500 0.628966 0.891989
O O3 0.155983 0.643830 0.815340
O O4 0.937496 0.554770 0.817843
O O5 0.989953 0.188760 0.307190
O O6 0.726128 0.245094 0.344143
O O7 0.846592 0.156762 0.394668
O O8 0.250000 0.750000 0.750000
O O9 0.862790 0.472372 0.111371
O O10 0.137257 0.856917 0.061635
O O11 0.275861 0.950182 0.056410
O O12 0.400323 0.868884 0.000000
O O13 0.876126 0.144417 0.500000
O O14 0.901306 0.059421 0.560898
O O15 0.163218 0.465830 0.500000
#
# Coordination Sequence:
#
# PCOD9526161 Si02
#       7
#    16  16  16   8  16  16  16
#     4  11  23  40  67 105 141 178 231 281 355 417
#     4  12  24  43  69 102 131 173 230 292 345 411
#     4  12  27  48  75  99 125 167 238 303 356 421
#     4  10  19  34  58 101 146 186 218 284 354 418
#     4   9  18  33  56  91 140 192 234 275 326 405
#     4  10  19  34  57  93 138 184 230 278 333 408
#     4   9  16  27  50  87 134 191 241 269 313 396
#
# _framework density 22.06175
#
# number of rings (size 3 to 8) (size 9 to 14) (size 15 to 20)
#    0.000    1.538    4.615    1.154    0.000    3.077 
#    0.000    2.308    0.000    1.846    0.000    2.154 
#    0.000    0.000    0.000    0.000    0.000    0.000 
#
# Total GULP energy -289633.219935 kJ/mol
# GULP energy per Si atom -5569.869614 kJ/mol
# Density = 2.201154 g / cm^3
# Si number density = 22.061750 Si / 1000 Ang^3
#
#
#
# Elastic Constant Matrix: (Units=GPa)
#
#
# Indices 1 2 3 4 5 6 
#
# 1 148.1413 46.6906 45.9360 0.0000 0.0000 0.0000
# 2 46.6906 116.1975 45.3072 0.0000 0.0000 0.0000
# 3 45.9360 45.3072 101.9205 0.0000 0.0000 0.0000
# 4 0.0000 0.0000 0.0000 10.9354 0.0000 0.0000
# 5 0.0000 0.0000 0.0000 0.0000 13.3844 0.0000
# 6 0.0000 0.0000 0.0000 0.0000 0.0000 39.8508
#
#
#
# Elastic Compliance Matrix: (Units=1/GPa)
#
#
# Indices 1 2 3 4 5 6 
#
# 1 0.008316 -0.002274 -0.002737 0.000000 0.000000 0.000000
# 2 -0.002274 0.011032 -0.003879 0.000000 0.000000 0.000000
# 3 -0.002737 -0.003879 0.012770 0.000000 0.000000 0.000000
# 4 0.000000 0.000000 0.000000 0.091446 0.000000 0.000000
# 5 0.000000 0.000000 0.000000 0.000000 0.074714 0.000000
# 6 0.000000 0.000000 0.000000 0.000000 0.000000 0.025094
#
#
# Mechanical properties :
#
#
# Convention : Reuss Voigt Hill
#
# Bulk Modulus (GPa) = 69.75052 71.34744 70.54898
# Shear Modulus (GPa) = 20.33086 28.05582 24.19334
#
# Velocity S-wave (km/s) = 3.03899 3.56995 3.31512
# Velocity P-wave (km/s) = 6.63314 7.02872 6.83379
#
# Compressibility (1/GPa) = 0.01433681
#
# Stress axis : x y z
#
# Youngs Moduli (GPa) = 120.25306 90.64139 78.31093
#
# Poissons Ratio (x) = 0.20614 0.21433
# Poissons Ratio (y) = 0.27349 0.30379
# Poissons Ratio (z) = 0.32913 0.35162
#
# Static dielectric constant tensor:
#      x y z
#    x 1.866490 0.000000 0.000000 
#    y 0.000000 1.821270 0.000000 
#    z 0.000000 0.000000 1.891120 
# 
# From -- ./inp_files/42637.got.cif
#   From: 2010.05.17/outbox.cif.g08.bks.cpg/sg72_22_cif.got.tgz:42637.got - 2010.06.03 17:03:01.
