data_PCOD9526113
_publ_section_title
;
Structure prediction by ZEFSAII (Michael W. Deem and Ramdas Pophale) SiO2 
 PCOD9526113
Probable space group: I B A M
;
_chemical_formula_sum "Si O2"
_cell_formula_units_Z 72
_cell_length_a 25.041669
_cell_length_b 17.447870
_cell_length_c 7.825444
_cell_angle_alpha 90.000000
_cell_angle_beta 90.000000
_cell_angle_gamma 90.000000
_cell_volume 3419.122614
_symmetry_space_group_name_H-M "I B A M"
_symmetry_group_IT_number 72
_symmetry_cell_setting 'orthorhombic'
loop_
_space_group_symop_operation_xyz
x,y,z
-x,-y,z
x,-y,1/2-z
-x,y,1/2-z
-x,-y,-z
x,y,-z
-x,y,1/2+z
x,-y,1/2+z
1/2+x,1/2+y,1/2+z
1/2-x,1/2-y,1/2+z
1/2+x,1/2-y,-z
1/2-x,1/2+y,-z
1/2-x,1/2-y,1/2-z
1/2+x,1/2+y,1/2-z
1/2-x,1/2+y,z
1/2+x,1/2-y,z
loop_
_atom_site_type_symbol
_atom_site_label
_atom_site_fract_x
_atom_site_fract_y
_atom_site_fract_z
Si Si1 0.351988 0.500000 0.250000
Si Si2 0.559565 0.606321 0.698568
Si Si3 0.285112 0.366286 0.201168
Si Si4 0.174298 0.303974 0.705767
Si Si5 0.058265 0.283447 0.704243
O O1 0.396631 0.437670 0.190028
O O2 0.309713 0.435448 0.309551
O O3 0.500000 0.583787 0.750000
O O4 0.570419 0.588199 0.500000
O O5 0.561364 0.697531 0.721793
O O6 0.221887 0.354999 0.221833
O O7 0.311633 0.284700 0.250643
O O8 0.296288 0.381765 0.000000
O O9 0.177583 0.308115 0.500000
O O10 0.113698 0.322889 0.759036
O O11 0.059804 0.276115 0.500000
O O12 0.000000 0.316358 0.750000
#
# Coordination Sequence:
#
# PCOD9526113 Si02
#       5
#     8  16  16  16  16
#     4  12  23  36  52  78 107 144 182 224 264 314
#     4  11  23  35  51  73 105 146 184 218 259 306
#     4  10  21  36  54  75 104 140 182 225 264 313
#     4   9  19  37  55  75 104 138 176 224 269 312
#     4  10  19  34  55  79 108 138 176 220 263 313
#
# _framework density 21.058033999999999
#
# number of rings (size 3 to 8) (size 9 to 14) (size 15 to 20)
#    0.000    1.778    2.222    3.667    0.000    7.111 
#    0.000    0.000    0.000    0.000    0.000    0.778 
#    0.000    5.333    0.000    0.000    0.000    0.222 
#
# Total GULP energy -200455.497535 kJ/mol
# GULP energy per Si atom -5568.208265 kJ/mol
# Density = 2.101011 g / cm^3
# Si number density = 21.058034 Si / 1000 Ang^3
#
#
#
# Elastic Constant Matrix: (Units=GPa)
#
#
# Indices 1 2 3 4 5 6 
#
# 1 231.7570 42.0836 33.2005 0.0000 0.0000 0.0000
# 2 42.0836 39.0963 12.1655 0.0000 0.0000 0.0000
# 3 33.2005 12.1655 86.5437 0.0000 0.0000 0.0000
# 4 0.0000 0.0000 0.0000 -8.4013 0.0000 0.0000
# 5 0.0000 0.0000 0.0000 0.0000 1.4513 0.0000
# 6 0.0000 0.0000 0.0000 0.0000 0.0000 42.4258
#
#
#
# Elastic Compliance Matrix: (Units=1/GPa)
#
#
# Indices 1 2 3 4 5 6 
#
# 1 0.005507 -0.005512 -0.001338 0.000000 0.000000 0.000000
# 2 -0.005512 0.032264 -0.002421 0.000000 0.000000 0.000000
# 3 -0.001338 -0.002421 0.012408 0.000000 0.000000 0.000000
# 4 0.000000 0.000000 0.000000 -0.119030 0.000000 0.000000
# 5 0.000000 0.000000 0.000000 0.000000 0.689040 0.000000
# 6 0.000000 0.000000 0.000000 0.000000 0.000000 0.023571
#
#
# Mechanical properties :
#
#
# Convention : Reuss Voigt Hill
#
# Bulk Modulus (GPa) = 31.60702 59.14402 45.37552
# Shear Modulus (GPa) = 7.43109 25.09167 16.26138
#
# Velocity S-wave (km/s) = 1.88056 3.45563 2.78189
# Velocity P-wave (km/s) = 4.44493 6.63845 5.64918
#
# Compressibility (1/GPa) = 0.03163854
#
# Stress axis : x y z
#
# Youngs Moduli (GPa) = 181.57345 30.99412 80.59024
#
# Poissons Ratio (x) = 0.17084 0.10783
# Poissons Ratio (y) = 1.00081 0.19510
# Poissons Ratio (z) = 0.24294 0.07503
#
# Static dielectric constant tensor:
#      x y z
#    x 1.808760 0.000000 0.000000 
#    y 0.000000 1.715800 0.000000 
#    z 0.000000 0.000000 1.895980 
# 
# From -- ./inp_files/6726.got.cif
#   From: 2010.05.17/outbox.cif.g08.bks.cpg/sg72_4_cif.got.tgz:6726.got - 2010.06.03 17:03:01.
