data_PCOD9526172
_publ_section_title
;
Structure prediction by ZEFSAII (Michael W. Deem and Ramdas Pophale) SiO2 
 PCOD9526172
Probable space group: I B A M
;
_chemical_formula_sum "Si O2"
_cell_formula_units_Z 88
_cell_length_a 22.589810
_cell_length_b 8.912849
_cell_length_c 21.496487
_cell_angle_alpha 90.000000
_cell_angle_beta 90.000000
_cell_angle_gamma 90.000000
_cell_volume 4328.093352
_symmetry_space_group_name_H-M "I B A M"
_symmetry_group_IT_number 72
_symmetry_cell_setting 'orthorhombic'
loop_
_space_group_symop_operation_xyz
x,y,z
-x,-y,z
x,-y,1/2-z
-x,y,1/2-z
-x,-y,-z
x,y,-z
-x,y,1/2+z
x,-y,1/2+z
1/2+x,1/2+y,1/2+z
1/2-x,1/2-y,1/2+z
1/2+x,1/2-y,-z
1/2-x,1/2+y,-z
1/2-x,1/2-y,1/2-z
1/2+x,1/2+y,1/2-z
1/2-x,1/2+y,z
1/2+x,1/2-y,z
loop_
_atom_site_type_symbol
_atom_site_label
_atom_site_fract_x
_atom_site_fract_y
_atom_site_fract_z
Si Si1 0.944524 0.653264 0.622672
Si Si2 0.429953 0.171965 0.571690
Si Si3 0.168616 0.199693 0.427412
Si Si4 0.414826 0.000000 0.750000
Si Si5 0.667815 0.802310 0.328105
Si Si6 0.756737 0.057609 0.370325
O O1 0.931248 0.509896 0.578109
O O2 0.889804 0.764366 0.612876
O O3 0.946138 0.577862 0.690994
O O4 0.007807 0.719346 0.603009
O O5 0.427048 0.215831 0.500000
O O6 0.373615 0.222934 0.611376
O O7 0.153804 0.207650 0.500000
O O8 0.217917 0.325381 0.410330
O O9 0.198033 0.041341 0.410412
O O10 0.375359 0.136954 0.724343
O O11 0.707127 0.655204 0.320104
O O12 0.711409 0.940786 0.340782
#
# Coordination Sequence:
#
# PCOD9526172 Si02
#       6
#    16  16  16   8  16  16
#     4  10  20  34  56  85 112 150 197 243 297 345
#     4  10  19  34  58  87 117 148 196 253 300 351
#     4  11  20  36  57  84 117 155 198 245 302 357
#     4  10  20  39  60  86 118 156 203 248 284 354
#     4  10  22  38  58  86 120 159 198 242 296 344
#     4  10  22  38  54  86 119 158 198 241 292 354
#
# _framework density 20.332277999999999
#
# number of rings (size 3 to 8) (size 9 to 14) (size 15 to 20)
#    0.000    1.818    3.636    2.727    0.000   10.182 
#    0.000    0.909    0.000    2.182    0.000    7.636 
#    0.000    0.000    0.000    0.000    0.000    0.000 
#
# Total GULP energy -245622.493889 kJ/mol
# GULP energy per Si atom -5582.329407 kJ/mol
# Density = 2.028600 g / cm^3
# Si number density = 20.332278 Si / 1000 Ang^3
#
#
#
# Elastic Constant Matrix: (Units=GPa)
#
#
# Indices 1 2 3 4 5 6 
#
# 1 126.7068 43.0531 45.6114 0.0000 0.0000 0.0000
# 2 43.0531 75.4088 20.2272 0.0000 0.0000 0.0000
# 3 45.6114 20.2272 109.8536 0.0000 0.0000 0.0000
# 4 0.0000 0.0000 0.0000 12.9438 0.0000 0.0000
# 5 0.0000 0.0000 0.0000 0.0000 6.2693 0.0000
# 6 0.0000 0.0000 0.0000 0.0000 0.0000 -26.1602
#
#
#
# Elastic Compliance Matrix: (Units=1/GPa)
#
#
# Indices 1 2 3 4 5 6 
#
# 1 0.010987 -0.005312 -0.003584 0.000000 0.000000 0.000000
# 2 -0.005312 0.016518 -0.000836 0.000000 0.000000 0.000000
# 3 -0.003584 -0.000836 0.010745 0.000000 0.000000 0.000000
# 4 0.000000 0.000000 0.000000 0.077257 0.000000 0.000000
# 5 0.000000 0.000000 0.000000 0.000000 0.159508 0.000000
# 6 0.000000 0.000000 0.000000 0.000000 0.000000 -0.038226
#
#
# Mechanical properties :
#
#
# Convention : Reuss Voigt Hill
#
# Bulk Modulus (GPa) = 53.22822 58.86140 56.04481
# Shear Modulus (GPa) = 19.04656 12.14906 15.59781
#
# Velocity S-wave (km/s) = 3.06398 2.44709 2.77274
# Velocity P-wave (km/s) = 6.22522 6.08251 6.15428
#
# Compressibility (1/GPa) = 0.01878703
#
# Stress axis : x y z
#
# Youngs Moduli (GPa) = 91.01551 60.54066 93.06665
#
# Poissons Ratio (x) = 0.32157 0.33354
# Poissons Ratio (y) = 0.48343 0.07781
# Poissons Ratio (z) = 0.32619 0.05061
#
# Static dielectric constant tensor:
#      x y z
#    x 1.769800 0.000000 0.000000 
#    y 0.000000 1.693920 0.000000 
#    z 0.000000 0.000000 1.730200 
# 
# From -- ./inp_files/40172.got.cif
#   From: 2010.05.17/outbox.cif.g08.bks.cpg/sg72_21_cif.got.tgz:40172.got - 2010.06.03 17:03:01.
