data_PCOD9526068
_publ_section_title
;
Structure prediction by ZEFSAII (Michael W. Deem and Ramdas Pophale) SiO2 
 PCOD9526068
Probable space group: I B A M
;
_chemical_formula_sum "Si O2"
_cell_formula_units_Z 96
_cell_length_a 10.427794
_cell_length_b 23.621094
_cell_length_c 21.975236
_cell_angle_alpha 90.000000
_cell_angle_beta 90.000000
_cell_angle_gamma 90.000000
_cell_volume 5412.850083
_symmetry_space_group_name_H-M "I B A M"
_symmetry_group_IT_number 72
_symmetry_cell_setting 'orthorhombic'
loop_
_space_group_symop_operation_xyz
x,y,z
-x,-y,z
x,-y,1/2-z
-x,y,1/2-z
-x,-y,-z
x,y,-z
-x,y,1/2+z
x,-y,1/2+z
1/2+x,1/2+y,1/2+z
1/2-x,1/2-y,1/2+z
1/2+x,1/2-y,-z
1/2-x,1/2+y,-z
1/2-x,1/2-y,1/2-z
1/2+x,1/2+y,1/2-z
1/2-x,1/2+y,z
1/2+x,1/2-y,z
loop_
_atom_site_type_symbol
_atom_site_label
_atom_site_fract_x
_atom_site_fract_y
_atom_site_fract_z
Si Si1 0.703222 0.303499 0.500000
Si Si2 0.391384 0.046549 0.928618
Si Si3 0.375301 0.739592 0.291002
Si Si4 0.020758 0.660926 0.875333
Si Si5 0.361464 0.472561 0.071762
Si Si6 0.466573 0.771510 0.000000
Si Si7 0.230422 0.860763 0.129083
O O1 0.560540 0.281045 0.500000
O O2 0.815871 0.256225 0.500000
O O3 0.728268 0.338283 0.560191
O O4 0.405782 0.102909 0.889278
O O5 0.500000 0.000000 0.912499
O O6 0.252815 0.018014 0.923393
O O7 0.414098 0.060971 0.000000
O O8 0.500000 0.730566 0.250000
O O9 0.250000 0.750000 0.250000
O O10 0.406404 0.794515 0.332541
O O11 0.348920 0.683994 0.331437
O O12 0.998346 0.692699 0.939710
O O13 0.879321 0.643479 0.850761
O O14 0.500000 0.500000 0.082819
O O15 0.327816 0.423010 0.119685
O O16 0.360506 0.453279 0.000000
#
# Coordination Sequence:
#
# PCOD9526068 Si02
#       7
#     8  16  16  16  16   8  16
#     4  10  20  34  56  90 120 157 190 244 320 373
#     4  10  19  33  61  93 126 160 197 241 304 383
#     4  12  26  43  63  89 118 166 219 261 305 355
#     4  11  21  38  63  90 125 159 202 254 307 373
#     4  10  21  37  57  95 134 163 194 241 312 381
#     4  10  20  34  54  91 122 153 194 239 320 375
#     4  11  21  39  64  86 128 163 196 253 312 373
#
# _framework density 17.735575000000001
#
# number of rings (size 3 to 8) (size 9 to 14) (size 15 to 20)
#    0.000    1.333    6.667    0.000    0.000    1.333 
#    3.000    0.000    0.000    6.000    0.000    0.000 
#    0.000    0.000    0.000    0.000    0.000    0.000 
#
# Total GULP energy -267694.509764 kJ/mol
# GULP energy per Si atom -5576.968953 kJ/mol
# Density = 1.769521 g / cm^3
# Si number density = 17.735575 Si / 1000 Ang^3
#
#
#
# Elastic Constant Matrix: (Units=GPa)
#
#
# Indices 1 2 3 4 5 6 
#
# 1 119.0192 48.9685 42.5882 0.0000 0.0000 0.0000
# 2 48.9685 114.7284 51.3331 0.0000 0.0000 0.0000
# 3 42.5882 51.3331 80.8923 0.0000 0.0000 0.0000
# 4 0.0000 0.0000 0.0000 24.2980 0.0000 0.0000
# 5 0.0000 0.0000 0.0000 0.0000 71.0757 0.0000
# 6 0.0000 0.0000 0.0000 0.0000 0.0000 23.5162
#
#
#
# Elastic Compliance Matrix: (Units=1/GPa)
#
#
# Indices 1 2 3 4 5 6 
#
# 1 0.011021 -0.002944 -0.003934 0.000000 0.000000 0.000000
# 2 -0.002944 0.012959 -0.006674 0.000000 0.000000 0.000000
# 3 -0.003934 -0.006674 0.018668 0.000000 0.000000 0.000000
# 4 0.000000 0.000000 0.000000 0.041156 0.000000 0.000000
# 5 0.000000 0.000000 0.000000 0.000000 0.014070 0.000000
# 6 0.000000 0.000000 0.000000 0.000000 0.000000 0.042524
#
#
# Mechanical properties :
#
#
# Convention : Reuss Voigt Hill
#
# Bulk Modulus (GPa) = 64.32981 66.71328 65.52155
# Shear Modulus (GPa) = 28.95503 35.22799 32.09151
#
# Velocity S-wave (km/s) = 4.04492 4.46162 4.25837
# Velocity P-wave (km/s) = 7.62664 8.01489 7.82317
#
# Compressibility (1/GPa) = 0.01554489
#
# Stress axis : x y z
#
# Youngs Moduli (GPa) = 90.73663 77.16863 53.56638
#
# Poissons Ratio (x) = 0.22716 0.21075
# Poissons Ratio (y) = 0.26710 0.35748
# Poissons Ratio (z) = 0.35698 0.51499
#
# Static dielectric constant tensor:
#      x y z
#    x 1.617350 0.000000 0.000000 
#    y 0.000000 1.602070 0.000000 
#    z 0.000000 0.000000 1.597160 
# 
# From -- ./inp_files/42489.got.cif
#   From: 2010.05.17/outbox.cif.g08.bks.cpg/sg72_22_cif.got.tgz:42489.got - 2010.06.03 17:03:01.
