data_PCOD9526008
_publ_section_title
;
Structure prediction by ZEFSAII (Michael W. Deem and Ramdas Pophale) SiO2 
 PCOD9526008
Probable space group: I B A M
;
_chemical_formula_sum "Si O2"
_cell_formula_units_Z 116
_cell_length_a 27.337534
_cell_length_b 16.729526
_cell_length_c 14.167901
_cell_angle_alpha 90.000000
_cell_angle_beta 90.000000
_cell_angle_gamma 90.000000
_cell_volume 6479.604314
_symmetry_space_group_name_H-M "I B A M"
_symmetry_group_IT_number 72
_symmetry_cell_setting 'orthorhombic'
loop_
_space_group_symop_operation_xyz
x,y,z
-x,-y,z
x,-y,1/2-z
-x,y,1/2-z
-x,-y,-z
x,y,-z
-x,y,1/2+z
x,-y,1/2+z
1/2+x,1/2+y,1/2+z
1/2-x,1/2-y,1/2+z
1/2+x,1/2-y,-z
1/2-x,1/2+y,-z
1/2-x,1/2-y,1/2-z
1/2+x,1/2+y,1/2-z
1/2-x,1/2+y,z
1/2+x,1/2-y,z
loop_
_atom_site_type_symbol
_atom_site_label
_atom_site_fract_x
_atom_site_fract_y
_atom_site_fract_z
Si Si1 0.042997 0.943383 0.387267
Si Si2 0.286465 0.609249 0.611273
Si Si3 0.950400 0.232183 0.697048
Si Si4 0.431031 0.100693 0.390939
Si Si5 0.347902 0.546324 0.887435
Si Si6 0.000000 0.500000 0.250000
Si Si7 0.175910 0.356510 0.889017
Si Si8 0.156878 0.796071 0.261924
O O1 0.039128 0.938314 0.500000
O O2 0.040579 0.853732 0.349400
O O3 0.096321 0.978819 0.365751
O O4 0.000000 0.000000 0.352901
O O5 0.295237 0.623111 0.500000
O O6 0.312399 0.526061 0.637208
O O7 0.228360 0.603035 0.625455
O O8 0.311053 0.679631 0.672064
O O9 0.939249 0.304175 0.625053
O O10 0.900794 0.220183 0.758255
O O11 0.000000 0.254467 0.750000
O O12 0.441393 0.079629 0.500000
O O13 0.465101 0.053126 0.317920
O O14 0.372750 0.090690 0.372336
O O15 0.339313 0.627733 0.831467
O O16 0.344275 0.561260 0.000000
O O17 0.174436 0.280920 0.819645
O O18 0.173050 0.331627 0.000000
#
# Coordination Sequence:
#
# PCOD9526008 Si02
#       8
#    16  16  16  16  16   4  16  16
#     4   9  18  31  49  75 108 150 190 226 269 318
#     4  10  20  34  52  78 112 145 180 228 278 323
#     4  10  20  34  53  80 113 146 193 233 266 324
#     4  10  21  40  64  86 114 148 180 227 283 339
#     4   9  18  32  49  74 106 140 183 226 269 320
#     4  12  22  40  64  94 118 132 182 228 286 346
#     4   9  19  37  61  82 104 141 185 224 272 330
#     4  10  19  33  55  77 105 143 189 224 270 321
#
# _framework density 17.902327
#
# number of rings (size 3 to 8) (size 9 to 14) (size 15 to 20)
#    0.000    2.345    0.690    1.862    1.931    3.586 
#    2.483    0.690    0.000    0.000    0.000    0.000 
#    0.000    0.000    0.000    0.000    0.000    0.000 
#
# Total GULP energy -323435.444171 kJ/mol
# GULP energy per Si atom -5576.473175 kJ/mol
# Density = 1.786158 g / cm^3
# Si number density = 17.902327 Si / 1000 Ang^3
#
#
#
# Elastic Constant Matrix: (Units=GPa)
#
#
# Indices 1 2 3 4 5 6 
#
# 1 125.3072 47.8227 52.7890 0.0000 0.0000 0.0000
# 2 47.8227 63.2844 24.2895 0.0000 0.0000 0.0000
# 3 52.7890 24.2895 78.2016 0.0000 0.0000 0.0000
# 4 0.0000 0.0000 0.0000 23.3919 0.0000 0.0000
# 5 0.0000 0.0000 0.0000 0.0000 20.5568 0.0000
# 6 0.0000 0.0000 0.0000 0.0000 0.0000 26.9755
#
#
#
# Elastic Compliance Matrix: (Units=1/GPa)
#
#
# Indices 1 2 3 4 5 6 
#
# 1 0.013898 -0.007836 -0.006948 0.000000 0.000000 0.000000
# 2 -0.007836 0.022358 -0.001655 0.000000 0.000000 0.000000
# 3 -0.006948 -0.001655 0.017992 0.000000 0.000000 0.000000
# 4 0.000000 0.000000 0.000000 0.042750 0.000000 0.000000
# 5 0.000000 0.000000 0.000000 0.000000 0.048646 0.000000
# 6 0.000000 0.000000 0.000000 0.000000 0.000000 0.037071
#
#
# Mechanical properties :
#
#
# Convention : Reuss Voigt Hill
#
# Bulk Modulus (GPa) = 46.79358 57.39951 52.09655
# Shear Modulus (GPa) = 22.45033 23.64431 23.04732
#
# Velocity S-wave (km/s) = 3.54509 3.63814 3.59192
# Velocity P-wave (km/s) = 6.55377 7.05551 6.80927
#
# Compressibility (1/GPa) = 0.02137045
#
# Stress axis : x y z
#
# Youngs Moduli (GPa) = 71.95442 44.72644 55.58166
#
# Poissons Ratio (x) = 0.35046 0.38617
# Poissons Ratio (y) = 0.56380 0.09200
# Poissons Ratio (z) = 0.49992 0.07403
#
# Static dielectric constant tensor:
#      x y z
#    x 1.638280 0.000000 0.000000 
#    y 0.000000 1.583340 0.000000 
#    z 0.000000 0.000000 1.617130 
# 
# From -- ./inp_files/25415.got.cif
#   From: 2010.05.17/outbox.cif.g08.bks.cpg/sg72_13_cif.got.tgz:25415.got - 2010.06.03 17:03:01.
