data_PCOD9526304
_publ_section_title
;
Structure prediction by ZEFSAII (Michael W. Deem and Ramdas Pophale) SiO2 
 PCOD9526304
Probable space group: I B A M
;
_chemical_formula_sum "Si O2"
_cell_formula_units_Z 116
_cell_length_a 10.182264
_cell_length_b 28.695033
_cell_length_c 18.405019
_cell_angle_alpha 90.000000
_cell_angle_beta 90.000000
_cell_angle_gamma 90.000000
_cell_volume 5377.585841
_symmetry_space_group_name_H-M "I B A M"
_symmetry_group_IT_number 72
_symmetry_cell_setting 'orthorhombic'
loop_
_space_group_symop_operation_xyz
x,y,z
-x,-y,z
x,-y,1/2-z
-x,y,1/2-z
-x,-y,-z
x,y,-z
-x,y,1/2+z
x,-y,1/2+z
1/2+x,1/2+y,1/2+z
1/2-x,1/2-y,1/2+z
1/2+x,1/2-y,-z
1/2-x,1/2+y,-z
1/2-x,1/2-y,1/2-z
1/2+x,1/2+y,1/2-z
1/2-x,1/2+y,z
1/2+x,1/2-y,z
loop_
_atom_site_type_symbol
_atom_site_label
_atom_site_fract_x
_atom_site_fract_y
_atom_site_fract_z
Si Si1 0.774075 0.620080 0.085926
Si Si2 0.607879 0.375347 0.196112
Si Si3 0.500000 0.000000 0.500000
Si Si4 0.284396 0.951214 0.741383
Si Si5 0.990220 0.434195 0.637430
Si Si6 0.467182 0.445275 0.915327
Si Si7 0.330186 0.296686 0.411926
Si Si8 0.633753 0.714477 0.912792
O O1 0.915103 0.614550 0.124321
O O2 0.683575 0.573029 0.091360
O O3 0.690695 0.664594 0.112288
O O4 0.796769 0.626827 0.000000
O O5 0.500000 0.353133 0.250000
O O6 0.697236 0.405879 0.249798
O O7 0.545804 0.413861 0.141507
O O8 0.682053 0.340217 0.142525
O O9 0.519026 0.960791 0.437058
O O10 0.395534 0.956511 0.802224
O O11 0.363367 0.939328 0.667515
O O12 0.208220 0.000000 0.750000
O O13 0.500000 0.500000 0.904126
O O14 0.503787 0.434921 0.000000
O O15 0.319702 0.307015 0.500000
O O16 0.479912 0.280161 0.397472
O O17 0.225902 0.257194 0.391292
O O18 0.641845 0.712856 0.000000
#
# Coordination Sequence:
#
# PCOD9526304 Si02
#       8
#    16  16   4  16  16  16  16  16
#     4  10  19  35  65  98 131 172 223 281 338 407
#     4  12  26  41  66  93 130 181 227 273 341 416
#     4  12  20  38  68  96 122 182 232 280 320 392
#     4  11  25  43  60  85 139 182 216 274 339 402
#     4  11  22  42  62  92 130 176 227 272 331 395
#     4  10  22  39  60  97 133 171 221 283 331 387
#     4  10  21  44  70 101 134 173 227 293 353 417
#     4   9  19  37  69  99 134 173 218 289 364 411
#
# _framework density 21.571017999999999
#
# number of rings (size 3 to 8) (size 9 to 14) (size 15 to 20)
#    0.000    1.517    3.448    1.655    3.862    1.103 
#    4.966    2.069    3.034    0.000    0.000    0.000 
#    0.000    0.000    0.000    0.000    0.000    0.000 
#
# Total GULP energy -322947.598260 kJ/mol
# GULP energy per Si atom -5568.062039 kJ/mol
# Density = 2.152192 g / cm^3
# Si number density = 21.571018 Si / 1000 Ang^3
#
#
#
# Elastic Constant Matrix: (Units=GPa)
#
#
# Indices 1 2 3 4 5 6 
#
# 1 45.4944 25.0339 16.0958 0.0000 0.0000 0.0000
# 2 25.0339 90.7512 28.3402 0.0000 0.0000 0.0000
# 3 16.0958 28.3402 108.3144 0.0004 -0.0001 0.0000
# 4 0.0000 0.0000 0.0004 152.6478 -0.0007 0.0000
# 5 0.0000 0.0000 -0.0001 -0.0007 -3.3941 0.0000
# 6 0.0000 0.0000 0.0000 0.0000 0.0000 28.3218
#
#
#
# Elastic Compliance Matrix: (Units=1/GPa)
#
#
# Indices 1 2 3 4 5 6 
#
# 1 0.026385 -0.006593 -0.002196 0.000000 0.000000 0.000000
# 2 -0.006593 0.013647 -0.002591 0.000000 0.000000 0.000000
# 3 -0.002196 -0.002591 0.010237 0.000000 0.000000 0.000000
# 4 0.000000 0.000000 0.000000 0.006551 -0.000001 0.000000
# 5 0.000000 0.000000 0.000000 -0.000001 -0.294632 0.000000
# 6 0.000000 0.000000 0.000000 0.000000 0.000000 0.035309
#
#
# Mechanical properties :
#
#
# Convention : Reuss Voigt Hill
#
# Bulk Modulus (GPa) = 36.35098 42.61110 39.48104
# Shear Modulus (GPa) = -29.31265 47.18778 8.93757
#
# Velocity S-wave (km/s) = -3.69031 4.68220 2.03772
# Velocity P-wave (km/s) = 1.12673 7.00196 4.88661
#
# Compressibility (1/GPa) = 0.02750958
#
# Stress axis : x y z
#
# Youngs Moduli (GPa) = 37.89984 73.27693 97.68836
#
# Poissons Ratio (x) = 0.48309 0.21452
# Poissons Ratio (y) = 0.24986 0.25311
# Poissons Ratio (z) = 0.08323 0.18986
#
# Static dielectric constant tensor:
#      x y z
#    x 1.855600 0.000000 0.000000 
#    y 0.000000 1.830270 0.000000 
#    z 0.000000 0.000000 1.792990 
# 
# From -- ./inp_files/29693.got.cif
#   From: 2010.05.17/outbox.cif.g08.bks.cpg/sg72_15_cif.got.tgz:29693.got - 2010.06.03 17:03:01.
