data_PCOD9526501
_publ_section_title
;
Structure prediction by ZEFSAII (Michael W. Deem and Ramdas Pophale) SiO2 
 PCOD9526501
Probable space group: I B A M
;
_chemical_formula_sum "Si O2"
_cell_formula_units_Z 96
_cell_length_a 9.378166
_cell_length_b 23.835872
_cell_length_c 22.926855
_cell_angle_alpha 90.000000
_cell_angle_beta 90.000000
_cell_angle_gamma 90.000000
_cell_volume 5124.994984
_symmetry_space_group_name_H-M "I B A M"
_symmetry_group_IT_number 72
_symmetry_cell_setting 'orthorhombic'
loop_
_space_group_symop_operation_xyz
x,y,z
-x,-y,z
x,-y,1/2-z
-x,y,1/2-z
-x,-y,-z
x,y,-z
-x,y,1/2+z
x,-y,1/2+z
1/2+x,1/2+y,1/2+z
1/2-x,1/2-y,1/2+z
1/2+x,1/2-y,-z
1/2-x,1/2+y,-z
1/2-x,1/2-y,1/2-z
1/2+x,1/2+y,1/2-z
1/2-x,1/2+y,z
1/2+x,1/2-y,z
loop_
_atom_site_type_symbol
_atom_site_label
_atom_site_fract_x
_atom_site_fract_y
_atom_site_fract_z
Si Si1 0.333570 0.934238 0.261815
Si Si2 0.509381 0.756009 0.500000
Si Si3 0.649151 0.346898 0.689680
Si Si4 0.892058 0.688612 0.881772
Si Si5 0.270449 0.333334 0.500000
Si Si6 0.671930 0.869941 0.876658
Si Si7 0.862738 0.793584 0.191759
O O1 0.500000 0.917675 0.250000
O O2 0.226061 0.899776 0.219863
O O3 0.298992 0.917699 0.328810
O O4 0.320816 0.000000 0.250000
O O5 0.580522 0.781412 0.442319
O O6 0.569389 0.692228 0.500000
O O7 0.346979 0.781115 0.500000
O O8 0.733619 0.331801 0.631644
O O9 0.481173 0.342564 0.679738
O O10 0.667248 0.299269 0.739928
O O11 0.919934 0.734861 0.831421
O O12 0.002284 0.637725 0.879995
O O13 0.237354 0.368698 0.441367
O O14 0.729821 0.812614 0.846784
#
# Coordination Sequence:
#
# PCOD9526501 Si02
#       7
#    16   8  16  16   8  16  16
#     4  10  20  38  60  79 101 135 185 236 291 327
#     4  10  22  30  48  75 105 158 175 213 245 314
#     4  10  21  33  50  78 104 137 179 223 268 325
#     4  11  19  33  49  73 112 144 182 206 253 320
#     4  10  20  36  52  78 117 146 197 211 260 317
#     4  10  20  34  54  80 107 146 184 221 267 322
#     4  10  20  31  48  79 110 141 173 211 269 321
#
# _framework density 18.731725000000001
#
# number of rings (size 3 to 8) (size 9 to 14) (size 15 to 20)
#    0.000    1.833    3.333    1.500    2.333    4.000 
#    0.000    6.667    0.000    3.000    0.000    1.167 
#    0.000    0.000    0.000    0.000    0.000    0.000 
#
# Total GULP energy -267379.414372 kJ/mol
# GULP energy per Si atom -5570.404466 kJ/mol
# Density = 1.868909 g / cm^3
# Si number density = 18.731725 Si / 1000 Ang^3
#
#
#
# Elastic Constant Matrix: (Units=GPa)
#
#
# Indices 1 2 3 4 5 6 
#
# 1 61.3926 2.7376 -16.5053 0.0000 0.0000 0.0000
# 2 2.7376 57.1244 8.0885 0.0000 0.0000 0.0000
# 3 -16.5053 8.0885 68.2897 0.0000 0.0000 0.0000
# 4 0.0000 0.0000 0.0000 18.3204 0.0000 0.0000
# 5 0.0000 0.0000 0.0000 0.0000 17.1034 0.0000
# 6 0.0000 0.0000 0.0000 0.0000 0.0000 20.1000
#
#
#
# Elastic Compliance Matrix: (Units=1/GPa)
#
#
# Indices 1 2 3 4 5 6 
#
# 1 0.017540 -0.001465 0.004413 0.000000 0.000000 0.000000
# 2 -0.001465 0.017927 -0.002477 0.000000 0.000000 0.000000
# 3 0.004413 -0.002477 0.016004 0.000000 0.000000 0.000000
# 4 0.000000 0.000000 0.000000 0.054584 0.000000 0.000000
# 5 0.000000 0.000000 0.000000 0.000000 0.058468 0.000000
# 6 0.000000 0.000000 0.000000 0.000000 0.000000 0.049751
#
#
# Mechanical properties :
#
#
# Convention : Reuss Voigt Hill
#
# Bulk Modulus (GPa) = 19.08006 19.49424 19.28715
# Shear Modulus (GPa) = 21.66343 23.93716 22.80029
#
# Velocity S-wave (km/s) = 3.40444 3.57864 3.49263
# Velocity P-wave (km/s) = 5.06574 5.24454 5.15592
#
# Compressibility (1/GPa) = 0.05241075
#
# Stress axis : x y z
#
# Youngs Moduli (GPa) = 57.01126 55.78273 62.48618
#
# Poissons Ratio (x) = 0.08175 -0.27575
# Poissons Ratio (y) = 0.08355 0.15481
# Poissons Ratio (z) = -0.25159 0.13820
#
# Static dielectric constant tensor:
#      x y z
#    x 1.705300 0.000000 0.000000 
#    y 0.000000 1.625900 0.000000 
#    z 0.000000 0.000000 1.660540 
# 
# From -- ./inp_files/37400.got.cif
#   From: 2010.05.17/outbox.cif.g08.bks.cpg/sg72_19_cif.got.tgz:37400.got - 2010.06.03 17:03:01.
