data_PCOD9526825
_publ_section_title
;
Structure prediction by ZEFSAII (Michael W. Deem and Ramdas Pophale) SiO2 
 PCOD9526825
Probable space group: I B A M
;
_chemical_formula_sum "Si O2"
_cell_formula_units_Z 116
_cell_length_a 27.309373
_cell_length_b 27.730197
_cell_length_c 8.278412
_cell_angle_alpha 90.000000
_cell_angle_beta 90.000000
_cell_angle_gamma 90.000000
_cell_volume 6269.194165
_symmetry_space_group_name_H-M "I B A M"
_symmetry_group_IT_number 72
_symmetry_cell_setting 'orthorhombic'
loop_
_space_group_symop_operation_xyz
x,y,z
-x,-y,z
x,-y,1/2-z
-x,y,1/2-z
-x,-y,-z
x,y,-z
-x,y,1/2+z
x,-y,1/2+z
1/2+x,1/2+y,1/2+z
1/2-x,1/2-y,1/2+z
1/2+x,1/2-y,-z
1/2-x,1/2+y,-z
1/2-x,1/2-y,1/2-z
1/2+x,1/2+y,1/2-z
1/2-x,1/2+y,z
1/2+x,1/2-y,z
loop_
_atom_site_type_symbol
_atom_site_label
_atom_site_fract_x
_atom_site_fract_y
_atom_site_fract_z
Si Si1 0.000000 0.000000 0.250000
Si Si2 0.136196 0.257069 0.307624
Si Si3 0.211281 0.550675 0.190651
Si Si4 0.214892 0.183297 0.695223
Si Si5 0.318932 0.423060 0.809314
Si Si6 0.577338 0.571359 0.309216
Si Si7 0.944630 0.182586 0.307291
Si Si8 0.679190 0.848771 0.692545
O O1 0.041077 0.039665 0.301091
O O2 0.140267 0.260634 0.500000
O O3 0.183708 0.227842 0.241014
O O4 0.090626 0.223012 0.266585
O O5 0.137336 0.310923 0.238170
O O6 0.190136 0.500000 0.250000
O O7 0.265598 0.556161 0.267667
O O8 0.179554 0.597260 0.239352
O O9 0.217479 0.550014 0.000000
O O10 0.217443 0.187612 0.500000
O O11 0.186180 0.133855 0.729749
O O12 0.269742 0.174841 0.756086
O O13 0.366037 0.442242 0.715774
O O14 0.327406 0.428552 0.000000
O O15 0.563877 0.564372 0.500000
O O16 0.570935 0.627662 0.265665
O O17 0.941670 0.186393 0.500000
O O18 0.000000 0.189474 0.250000
O O19 0.682561 0.852730 0.500000
#
# Coordination Sequence:
#
# PCOD9526825 Si02
#       8
#     4  16  16  16  16  16  16  16
#     4  12  26  44  56  74 102 136 188 254 304 348
#     4  11  20  34  55  82 110 145 181 224 280 337
#     4  11  22  38  57  80 110 148 187 226 271 324
#     4   8  16  30  50  76 106 140 175 215 269 325
#     4  10  20  36  56  77 103 138 180 230 280 335
#     4  11  24  40  57  76  99 134 182 238 298 349
#     4  11  23  40  59  80 104 140 184 233 290 349
#     4  10  20  35  53  81 115 148 184 225 268 327
#
# _framework density 18.503174999999999
#
# number of rings (size 3 to 8) (size 9 to 14) (size 15 to 20)
#    0.000    1.655    2.069    4.345    0.966    1.655 
#    0.000    1.379    0.000    0.000    0.000    0.000 
#    0.000    0.552    0.000    5.517    0.000    3.310 
#
# Total GULP energy -323617.462630 kJ/mol
# GULP energy per Si atom -5579.611425 kJ/mol
# Density = 1.846106 g / cm^3
# Si number density = 18.503175 Si / 1000 Ang^3
#
#
#
# Elastic Constant Matrix: (Units=GPa)
#
#
# Indices 1 2 3 4 5 6 
#
# 1 37.8364 37.5911 4.7291 0.0000 0.0000 0.0000
# 2 37.5911 140.9470 23.0823 0.0000 0.0000 0.0000
# 3 4.7291 23.0823 42.5893 0.0000 0.0000 0.0000
# 4 0.0000 0.0000 0.0000 13.7115 0.0000 0.0000
# 5 0.0000 0.0000 0.0000 0.0000 15.1390 0.0000
# 6 0.0000 0.0000 0.0000 0.0000 0.0000 16.6731
#
#
#
# Elastic Compliance Matrix: (Units=1/GPa)
#
#
# Indices 1 2 3 4 5 6 
#
# 1 0.036025 -0.009825 0.001325 0.000000 0.000000 0.000000
# 2 -0.009825 0.010465 -0.004581 0.000000 0.000000 0.000000
# 3 0.001325 -0.004581 0.025816 0.000000 0.000000 0.000000
# 4 0.000000 0.000000 0.000000 0.072932 0.000000 0.000000
# 5 0.000000 0.000000 0.000000 0.000000 0.066055 0.000000
# 6 0.000000 0.000000 0.000000 0.000000 0.000000 0.059977
#
#
# Mechanical properties :
#
#
# Convention : Reuss Voigt Hill
#
# Bulk Modulus (GPa) = 21.67143 39.13088 30.40115
# Shear Modulus (GPa) = 15.98396 19.50273 17.74334
#
# Velocity S-wave (km/s) = 2.94232 3.25009 3.10003
# Velocity P-wave (km/s) = 4.82501 5.93955 5.41105
#
# Compressibility (1/GPa) = 0.04614371
#
# Stress axis : x y z
#
# Youngs Moduli (GPa) = 27.75825 95.55239 38.73601
#
# Poissons Ratio (x) = 0.93881 -0.05131
# Poissons Ratio (y) = 0.27273 0.17745
# Poissons Ratio (z) = -0.03677 0.43773
#
# Static dielectric constant tensor:
#      x y z
#    x 1.617690 0.000000 0.000000 
#    y 0.000000 1.671660 0.000000 
#    z 0.000000 0.000000 1.657060 
# 
# From -- ./inp_files/7286.got.cif
#   From: 2010.05.17/outbox.cif.g08.bks.cpg/sg72_4_cif.got.tgz:7286.got - 2010.06.03 17:03:01.
