data_PCOD9526409
_publ_section_title
;
Structure prediction by ZEFSAII (Michael W. Deem and Ramdas Pophale) SiO2 
 PCOD9526409
Probable space group: I B A M
;
_chemical_formula_sum "Si O2"
_cell_formula_units_Z 116
_cell_length_a 16.690321
_cell_length_b 18.768692
_cell_length_c 19.296301
_cell_angle_alpha 90.000000
_cell_angle_beta 90.000000
_cell_angle_gamma 90.000000
_cell_volume 6044.672307
_symmetry_space_group_name_H-M "I B A M"
_symmetry_group_IT_number 72
_symmetry_cell_setting 'orthorhombic'
loop_
_space_group_symop_operation_xyz
x,y,z
-x,-y,z
x,-y,1/2-z
-x,y,1/2-z
-x,-y,-z
x,y,-z
-x,y,1/2+z
x,-y,1/2+z
1/2+x,1/2+y,1/2+z
1/2-x,1/2-y,1/2+z
1/2+x,1/2-y,-z
1/2-x,1/2+y,-z
1/2-x,1/2-y,1/2-z
1/2+x,1/2+y,1/2-z
1/2-x,1/2+y,z
1/2+x,1/2-y,z
loop_
_atom_site_type_symbol
_atom_site_label
_atom_site_fract_x
_atom_site_fract_y
_atom_site_fract_z
Si Si1 0.690800 0.949316 0.853381
Si Si2 0.487479 0.326206 0.582539
Si Si3 0.500000 0.500000 0.250000
Si Si4 0.469825 0.081181 0.921284
Si Si5 0.617838 0.591217 0.847014
Si Si6 0.297971 0.896201 0.801706
Si Si7 0.051227 0.694713 0.321414
Si Si8 0.855942 0.946100 0.920326
O O1 0.624321 0.919406 0.904418
O O2 0.680936 0.922267 0.775431
O O3 0.779661 0.926829 0.874713
O O4 0.683655 0.035459 0.850857
O O5 0.489896 0.311135 0.500000
O O6 0.573745 0.344690 0.614579
O O7 0.453043 0.263204 0.629295
O O8 0.432425 0.396570 0.592989
O O9 0.440749 0.447533 0.207952
O O10 0.510778 0.130408 0.864263
O O11 0.500000 0.000000 0.914584
O O12 0.485936 0.105160 0.000000
O O13 0.702546 0.613242 0.813089
O O14 0.628590 0.528468 0.903376
O O15 0.356510 0.829720 0.812619
O O16 0.000000 0.704596 0.250000
O O17 0.834283 0.937470 0.000000
#
# Coordination Sequence:
#
# PCOD9526409 Si02
#       8
#    16  16   4  16  16  16  16  16
#     4  10  19  37  63  96 125 156 209 265 325 373
#     4  11  25  45  64  91 133 173 216 264 325 393
#     4  12  20  36  70 108 134 156 212 272 316 388
#     4  11  22  38  63  91 124 168 218 268 318 381
#     4  11  22  39  68  99 128 165 211 267 326 385
#     4  10  22  38  63  96 130 161 205 271 322 382
#     4  12  25  43  64  90 126 179 220 267 322 380
#     4  10  20  39  66  94 124 161 206 261 324 389
#
# _framework density 19.190453999999999
#
# number of rings (size 3 to 8) (size 9 to 14) (size 15 to 20)
#    0.000    1.241    4.138    2.897    0.966    1.379 
#    2.483    3.448    0.000    0.000    0.000    0.000 
#    0.000    0.000    0.000    0.000    0.000    0.000 
#
# Total GULP energy -323695.334840 kJ/mol
# GULP energy per Si atom -5580.954049 kJ/mol
# Density = 1.914678 g / cm^3
# Si number density = 19.190454 Si / 1000 Ang^3
#
#
#
# Elastic Constant Matrix: (Units=GPa)
#
#
# Indices 1 2 3 4 5 6 
#
# 1 100.4516 30.0890 26.1299 0.0000 0.0000 0.0000
# 2 30.0890 59.9188 28.9990 0.0000 0.0000 0.0000
# 3 26.1299 28.9990 84.3363 0.0000 0.0000 0.0000
# 4 0.0000 0.0000 0.0000 79.7470 0.0000 0.0000
# 5 0.0000 0.0000 0.0000 0.0000 -24.2103 0.0000
# 6 0.0000 0.0000 0.0000 0.0000 0.0000 24.7524
#
#
#
# Elastic Compliance Matrix: (Units=1/GPa)
#
#
# Indices 1 2 3 4 5 6 
#
# 1 0.011985 -0.005064 -0.001972 0.000000 0.000000 0.000000
# 2 -0.005064 0.022161 -0.006051 0.000000 0.000000 0.000000
# 3 -0.001972 -0.006051 0.014549 0.000000 0.000000 0.000000
# 4 0.000000 0.000000 0.000000 0.012540 0.000000 0.000000
# 5 0.000000 0.000000 0.000000 0.000000 -0.041305 0.000000
# 6 0.000000 0.000000 0.000000 0.000000 0.000000 0.040400
#
#
# Mechanical properties :
#
#
# Convention : Reuss Voigt Hill
#
# Bulk Modulus (GPa) = 44.40392 46.12696 45.26544
# Shear Modulus (GPa) = 53.18567 26.69041 39.93804
#
# Velocity S-wave (km/s) = 5.27018 3.73341 4.56690
# Velocity P-wave (km/s) = 7.76028 6.53246 7.17269
#
# Compressibility (1/GPa) = 0.02252053
#
# Stress axis : x y z
#
# Youngs Moduli (GPa) = 83.43862 45.12492 68.73361
#
# Poissons Ratio (x) = 0.22851 0.13554
# Poissons Ratio (y) = 0.42253 0.41591
# Poissons Ratio (z) = 0.16454 0.27305
#
# Static dielectric constant tensor:
#      x y z
#    x 1.400370 0.000000 0.000000 
#    y 0.000000 1.662790 0.000000 
#    z 0.000000 0.000000 1.659630 
# 
# From -- ./inp_files/31762.got.cif
#   From: 2010.05.17/outbox.cif.g08.bks.cpg/sg72_16_cif.got.tgz:31762.got - 2010.06.03 17:03:01.
