data_PCOD9526507
_publ_section_title
;
Structure prediction by ZEFSAII (Michael W. Deem and Ramdas Pophale) SiO2 
 PCOD9526507
Probable space group: I B A M
;
_chemical_formula_sum "Si O2"
_cell_formula_units_Z 112
_cell_length_a 13.869781
_cell_length_b 24.407456
_cell_length_c 18.173084
_cell_angle_alpha 90.000000
_cell_angle_beta 90.000000
_cell_angle_gamma 90.000000
_cell_volume 6152.062697
_symmetry_space_group_name_H-M "I B A M"
_symmetry_group_IT_number 72
_symmetry_cell_setting 'orthorhombic'
loop_
_space_group_symop_operation_xyz
x,y,z
-x,-y,z
x,-y,1/2-z
-x,y,1/2-z
-x,-y,-z
x,y,-z
-x,y,1/2+z
x,-y,1/2+z
1/2+x,1/2+y,1/2+z
1/2-x,1/2-y,1/2+z
1/2+x,1/2-y,-z
1/2-x,1/2+y,-z
1/2-x,1/2-y,1/2-z
1/2+x,1/2+y,1/2-z
1/2-x,1/2+y,z
1/2+x,1/2-y,z
loop_
_atom_site_type_symbol
_atom_site_label
_atom_site_fract_x
_atom_site_fract_y
_atom_site_fract_z
Si Si1 0.202898 0.328820 0.808203
Si Si2 0.192609 0.178225 0.080070
Si Si3 0.205622 0.053839 0.285545
Si Si4 0.570610 0.447702 0.583857
Si Si5 0.562584 0.383032 0.188707
Si Si6 0.644356 0.236053 0.338280
Si Si7 0.444961 0.783303 0.083652
O O1 0.232317 0.390748 0.789125
O O2 0.299638 0.294276 0.830481
O O3 0.158562 0.295434 0.739131
O O4 0.123436 0.325741 0.872779
O O5 0.151507 0.144555 0.148213
O O6 0.295961 0.201500 0.101280
O O7 0.121836 0.229893 0.077158
O O8 0.191224 0.150332 0.000000
O O9 0.164154 0.041948 0.366620
O O10 0.111035 0.067790 0.235329
O O11 0.252147 0.000000 0.250000
O O12 0.500000 0.500000 0.584568
O O13 0.593519 0.433682 0.500000
O O14 0.509898 0.400718 0.624712
O O15 0.500000 0.350745 0.250000
O O16 0.536013 0.234760 0.367304
O O17 0.470949 0.800209 0.000000
#
# Coordination Sequence:
#
# PCOD9526507 Si02
#       7
#    16  16  16  16  16  16  16
#     4  10  22  37  59  85 114 149 196 236 285 351
#     4  10  20  34  53  83 114 144 186 227 279 352
#     4  11  21  37  56  81 112 155 197 244 287 338
#     4  10  20  33  50  77 113 153 189 227 279 343
#     4  10  20  31  52  76 113 150 184 225 278 337
#     4  10  20  37  58  84 112 147 185 236 294 350
#     4  10  22  37  56  83 118 152 186 238 294 347
#
# _framework density 18.205276999999999
#
# number of rings (size 3 to 8) (size 9 to 14) (size 15 to 20)
#    0.000    1.857    2.857    1.286    4.000    1.143 
#    0.000    0.000    0.000    1.714    0.000    1.000 
#    0.000    0.000    0.000    0.000    0.000    0.000 
#
# Total GULP energy -312256.994131 kJ/mol
# GULP energy per Si atom -5576.017752 kJ/mol
# Density = 1.816384 g / cm^3
# Si number density = 18.205277 Si / 1000 Ang^3
#
#
#
# Elastic Constant Matrix: (Units=GPa)
#
#
# Indices 1 2 3 4 5 6 
#
# 1 63.7016 14.4174 27.4719 0.0000 0.0000 0.0000
# 2 14.4174 61.6069 30.0074 0.0000 0.0000 0.0000
# 3 27.4719 30.0074 124.1735 0.0001 0.0000 0.0000
# 4 0.0000 0.0000 0.0001 21.2656 0.0000 0.0000
# 5 0.0000 0.0000 0.0000 0.0000 -12.5642 0.0000
# 6 0.0000 0.0000 0.0000 0.0000 0.0000 15.5710
#
#
#
# Elastic Compliance Matrix: (Units=1/GPa)
#
#
# Indices 1 2 3 4 5 6 
#
# 1 0.017696 -0.002532 -0.003303 0.000000 0.000000 0.000000
# 2 -0.002532 0.018760 -0.003973 0.000000 0.000000 0.000000
# 3 -0.003303 -0.003973 0.009744 0.000000 0.000000 0.000000
# 4 0.000000 0.000000 0.000000 0.047024 0.000000 0.000000
# 5 0.000000 0.000000 0.000000 0.000000 -0.079591 0.000000
# 6 0.000000 0.000000 0.000000 0.000000 0.000000 0.064222
#
#
# Mechanical properties :
#
#
# Convention : Reuss Voigt Hill
#
# Bulk Modulus (GPa) = 37.61860 43.69726 40.65793
# Shear Modulus (GPa) = 47.02221 16.69351 31.85786
#
# Velocity S-wave (km/s) = 5.08773 3.03142 4.18775
# Velocity P-wave (km/s) = 7.43113 6.02555 6.76495
#
# Compressibility (1/GPa) = 0.02658260
#
# Stress axis : x y z
#
# Youngs Moduli (GPa) = 56.51058 53.30542 102.62575
#
# Poissons Ratio (x) = 0.13499 0.33897
# Poissons Ratio (y) = 0.14311 0.40775
# Poissons Ratio (z) = 0.18665 0.21179
#
# Static dielectric constant tensor:
#      x y z
#    x 1.627050 0.000000 0.000000 
#    y 0.000000 1.653910 0.000000 
#    z 0.000000 0.000000 1.644700 
# 
# From -- ./inp_files/22321.got.cif
#   From: 2010.05.17/outbox.cif.g08.bks.cpg/sg72_12_cif.got.tgz:22321.got - 2010.06.03 17:03:01.
