data_PCOD9526294
_publ_section_title
;
Structure prediction by ZEFSAII (Michael W. Deem and Ramdas Pophale) SiO2 
 PCOD9526294
Probable space group: I B A M
;
_chemical_formula_sum "Si O2"
_cell_formula_units_Z 64
_cell_length_a 9.247892
_cell_length_b 20.594373
_cell_length_c 14.331078
_cell_angle_alpha 90.000000
_cell_angle_beta 90.000000
_cell_angle_gamma 90.000000
_cell_volume 2729.418830
_symmetry_space_group_name_H-M "I B A M"
_symmetry_group_IT_number 72
_symmetry_cell_setting 'orthorhombic'
loop_
_space_group_symop_operation_xyz
x,y,z
-x,-y,z
x,-y,1/2-z
-x,y,1/2-z
-x,-y,-z
x,y,-z
-x,y,1/2+z
x,-y,1/2+z
1/2+x,1/2+y,1/2+z
1/2-x,1/2-y,1/2+z
1/2+x,1/2-y,-z
1/2-x,1/2+y,-z
1/2-x,1/2-y,1/2-z
1/2+x,1/2+y,1/2-z
1/2-x,1/2+y,z
1/2+x,1/2-y,z
loop_
_atom_site_type_symbol
_atom_site_label
_atom_site_fract_x
_atom_site_fract_y
_atom_site_fract_z
Si Si1 0.544290 0.322679 0.113908
Si Si2 0.887251 0.953985 0.342258
Si Si3 0.621480 0.191514 0.613637
Si Si4 0.440876 0.932432 0.110176
O O1 0.471368 0.385994 0.156856
O O2 0.453522 0.258896 0.140378
O O3 0.711947 0.315782 0.142901
O O4 0.540478 0.328430 0.000000
O O5 0.730525 0.935275 0.378772
O O6 0.861097 0.000000 0.250000
O O7 0.000000 0.000000 0.397321
O O8 0.623011 0.191809 0.500000
O O9 0.524656 0.130755 0.645941
O O10 0.500000 0.000000 0.148453
O O11 0.472651 0.931925 0.000000
#
# Coordination Sequence:
#
# PCOD9526294 Si02
#       4
#    16  16  16  16
#     4  10  19  35  62  94 127 161 199 249 308 369
#     4  11  24  39  56  80 121 167 209 252 298 355
#     4   9  18  33  60  99 131 155 193 250 316 377
#     4  10  20  36  61  92 122 155 200 253 310 370
#
# _framework density 23.448215000000001
#
# number of rings (size 3 to 8) (size 9 to 14) (size 15 to 20)
#    0.000    2.000    0.000    3.750    0.000    8.500 
#    0.000    1.250    0.000   37.500    0.000    0.000 
#    0.000    0.000    0.000    0.000    0.000    0.000 
#
# Total GULP energy -178748.406949 kJ/mol
# GULP energy per Si atom -5585.887717 kJ/mol
# Density = 2.339485 g / cm^3
# Si number density = 23.448215 Si / 1000 Ang^3
#
#
#
# Elastic Constant Matrix: (Units=GPa)
#
#
# Indices 1 2 3 4 5 6 
#
# 1 198.5624 139.2633 7.0466 0.0002 0.0000 0.0000
# 2 139.2633 289.6891 28.9504 0.0006 0.0000 0.0000
# 3 7.0466 28.9504 91.3884 -0.0006 0.0000 0.0000
# 4 0.0002 0.0006 -0.0006 856.9365 -0.0002 0.0001
# 5 0.0000 0.0000 0.0000 -0.0002 1.0859 0.0000
# 6 0.0000 0.0000 0.0000 0.0001 0.0000 56.3281
#
#
#
# Elastic Compliance Matrix: (Units=1/GPa)
#
#
# Indices 1 2 3 4 5 6 
#
# 1 0.007629 -0.003727 0.000592 0.000000 0.000000 0.000000
# 2 -0.003727 0.005385 -0.001419 0.000000 0.000000 0.000000
# 3 0.000592 -0.001419 0.011346 0.000000 0.000000 0.000000
# 4 0.000000 0.000000 0.000000 0.001167 0.000000 0.000000
# 5 0.000000 0.000000 0.000000 0.000000 0.920865 0.000000
# 6 0.000000 0.000000 0.000000 0.000000 0.000000 0.017753
#
#
# Mechanical properties :
#
#
# Convention : Reuss Voigt Hill
#
# Bulk Modulus (GPa) = 65.55541 103.35118 84.45330
# Shear Modulus (GPa) = 5.11072 209.82875 107.46973
#
# Velocity S-wave (km/s) = 1.47794 9.46997 6.77734
# Velocity P-wave (km/s) = 5.56153 12.79632 9.86601
#
# Compressibility (1/GPa) = 0.01525427
#
# Stress axis : x y z
#
# Youngs Moduli (GPa) = 131.08043 185.69134 88.13651
#
# Poissons Ratio (x) = 0.69201 -0.05220
# Poissons Ratio (y) = 0.48849 0.12503
# Poissons Ratio (z) = -0.07764 0.26343
#
# Static dielectric constant tensor:
#      x y z
#    x 1.839050 0.000000 0.000000 
#    y 0.000000 1.885430 0.000000 
#    z 0.000000 0.000000 1.974860 
# 
# From -- ./inp_files/35406.got.cif
#   From: 2010.05.17/outbox.cif.g08.bks.cpg/sg72_18_cif.got.tgz:35406.got - 2010.06.03 17:03:01.
