data_PCOD9526618
_publ_section_title
;
Structure prediction by ZEFSAII (Michael W. Deem and Ramdas Pophale) SiO2 
 PCOD9526618
Probable space group: I B A M
;
_chemical_formula_sum "Si O2"
_cell_formula_units_Z 88
_cell_length_a 12.702400
_cell_length_b 17.285024
_cell_length_c 22.144077
_cell_angle_alpha 90.000000
_cell_angle_beta 90.000000
_cell_angle_gamma 90.000000
_cell_volume 4861.982087
_symmetry_space_group_name_H-M "I B A M"
_symmetry_group_IT_number 72
_symmetry_cell_setting 'orthorhombic'
loop_
_space_group_symop_operation_xyz
x,y,z
-x,-y,z
x,-y,1/2-z
-x,y,1/2-z
-x,-y,-z
x,y,-z
-x,y,1/2+z
x,-y,1/2+z
1/2+x,1/2+y,1/2+z
1/2-x,1/2-y,1/2+z
1/2+x,1/2-y,-z
1/2-x,1/2+y,-z
1/2-x,1/2-y,1/2-z
1/2+x,1/2+y,1/2-z
1/2-x,1/2+y,z
1/2+x,1/2-y,z
loop_
_atom_site_type_symbol
_atom_site_label
_atom_site_fract_x
_atom_site_fract_y
_atom_site_fract_z
Si Si1 0.575573 0.825178 0.931035
Si Si2 0.500000 0.229347 0.250000
Si Si3 0.386898 0.855686 0.142680
Si Si4 0.147567 0.194178 0.345172
Si Si5 0.336355 0.998222 0.430280
Si Si6 0.099952 0.944788 0.068823
O O1 0.452638 0.818564 0.912748
O O2 0.637793 0.768979 0.887269
O O3 0.618049 0.912576 0.922627
O O4 0.591449 0.803744 0.000000
O O5 0.547493 0.172227 0.199941
O O6 0.412990 0.283149 0.216426
O O7 0.269786 0.827601 0.157137
O O8 0.380533 0.944314 0.120689
O O9 0.096102 0.122694 0.381657
O O10 0.363855 0.022422 0.500000
O O11 0.209657 0.007548 0.425489
O O12 0.100090 0.912567 0.000000
O O13 0.000000 0.000000 0.074960
#
# Coordination Sequence:
#
# PCOD9526618 Si02
#       6
#    16   8  16  16  16  16
#     4  10  20  33  54  85 114 140 173 216 270 332
#     4  10  22  38  56  76 104 142 188 234 267 308
#     4  10  20  36  55  74 103 143 180 222 271 316
#     4  10  21  37  56  78 108 144 181 222 270 318
#     4   9  18  33  54  81 111 140 173 216 270 330
#     4   9  18  34  57  84 112 140 172 216 270 328
#
# _framework density 18.099613999999999
#
# number of rings (size 3 to 8) (size 9 to 14) (size 15 to 20)
#    0.000    2.364    0.000    2.182    0.000    6.545 
#    0.000    9.545    0.000   10.909    0.000    0.000 
#    0.000    0.000    0.000    0.000    0.000    0.000 
#
# Total GULP energy -245085.414283 kJ/mol
# GULP energy per Si atom -5570.123052 kJ/mol
# Density = 1.805842 g / cm^3
# Si number density = 18.099614 Si / 1000 Ang^3
#
#
#
# Elastic Constant Matrix: (Units=GPa)
#
#
# Indices 1 2 3 4 5 6 
#
# 1 64.1532 36.1730 31.4876 0.0000 0.0000 0.0000
# 2 36.1730 63.6305 43.9781 0.0000 0.0000 0.0000
# 3 31.4876 43.9781 81.6947 0.0000 0.0000 0.0000
# 4 0.0000 0.0000 0.0000 17.3646 0.0000 0.0000
# 5 0.0000 0.0000 0.0000 0.0000 16.7950 0.0000
# 6 0.0000 0.0000 0.0000 0.0000 0.0000 18.3399
#
#
#
# Elastic Compliance Matrix: (Units=1/GPa)
#
#
# Indices 1 2 3 4 5 6 
#
# 1 0.023381 -0.011249 -0.002956 0.000000 0.000000 0.000000
# 2 -0.011249 0.030439 -0.012050 0.000000 0.000000 0.000000
# 3 -0.002956 -0.012050 0.019867 0.000000 0.000000 0.000000
# 4 0.000000 0.000000 0.000000 0.057588 0.000000 0.000000
# 5 0.000000 0.000000 0.000000 0.000000 0.059542 0.000000
# 6 0.000000 0.000000 0.000000 0.000000 0.000000 0.054526
#
#
# Mechanical properties :
#
#
# Convention : Reuss Voigt Hill
#
# Bulk Modulus (GPa) = 47.22209 48.08397 47.65303
# Shear Modulus (GPa) = 16.39811 17.02257 16.71034
#
# Velocity S-wave (km/s) = 3.01324 3.07007 3.04179
# Velocity P-wave (km/s) = 6.18489 6.26028 6.22270
#
# Compressibility (1/GPa) = 0.02117653
#
# Stress axis : x y z
#
# Youngs Moduli (GPa) = 42.76920 32.85254 50.33407
#
# Poissons Ratio (x) = 0.36954 0.14881
# Poissons Ratio (y) = 0.48109 0.60655
# Poissons Ratio (z) = 0.12645 0.39589
#
# Static dielectric constant tensor:
#      x y z
#    x 1.647450 0.000000 0.000000 
#    y 0.000000 1.602540 0.000000 
#    z 0.000000 0.000000 1.619750 
# 
# From -- ./inp_files/36867.got.cif
#   From: 2010.05.17/outbox.cif.g08.bks.cpg/sg72_19_cif.got.tgz:36867.got - 2010.06.03 17:03:01.
