data_PCOD9526901
_publ_section_title
;
Structure prediction by ZEFSAII (Michael W. Deem and Ramdas Pophale) SiO2 
 PCOD9526901
Probable space group: I B A M
;
_chemical_formula_sum "Si O2"
_cell_formula_units_Z 112
_cell_length_a 31.681119
_cell_length_b 11.486165
_cell_length_c 15.932112
_cell_angle_alpha 90.000000
_cell_angle_beta 90.000000
_cell_angle_gamma 90.000000
_cell_volume 5797.608890
_symmetry_space_group_name_H-M "I B A M"
_symmetry_group_IT_number 72
_symmetry_cell_setting 'orthorhombic'
loop_
_space_group_symop_operation_xyz
x,y,z
-x,-y,z
x,-y,1/2-z
-x,y,1/2-z
-x,-y,-z
x,y,-z
-x,y,1/2+z
x,-y,1/2+z
1/2+x,1/2+y,1/2+z
1/2-x,1/2-y,1/2+z
1/2+x,1/2-y,-z
1/2-x,1/2+y,-z
1/2-x,1/2-y,1/2-z
1/2+x,1/2+y,1/2-z
1/2-x,1/2+y,z
1/2+x,1/2-y,z
loop_
_atom_site_type_symbol
_atom_site_label
_atom_site_fract_x
_atom_site_fract_y
_atom_site_fract_z
Si Si1 0.672596 0.952883 0.403401
Si Si2 0.172416 0.184346 0.671035
Si Si3 0.878706 0.757602 0.840168
Si Si4 0.049244 0.639404 0.240263
Si Si5 0.674519 0.559928 0.403934
Si Si6 0.739963 0.772612 0.399380
Si Si7 0.387176 0.154930 0.095520
O O1 0.681405 0.985494 0.500000
O O2 0.640198 0.845627 0.396389
O O3 0.715458 0.891393 0.371942
O O4 0.646471 0.060605 0.365945
O O5 0.150561 0.223178 0.757309
O O6 0.217450 0.241664 0.652176
O O7 0.138998 0.226631 0.601365
O O8 0.178783 0.047601 0.658030
O O9 0.923491 0.713822 0.806767
O O10 0.870549 0.876542 0.889793
O O11 0.054692 0.500000 0.250000
O O12 0.071070 0.663886 0.150768
O O13 0.000000 0.665675 0.250000
O O14 0.679427 0.520946 0.500000
O O15 0.709536 0.661023 0.389935
O O16 0.748553 0.782795 0.500000
O O17 0.396408 0.121564 0.000000
#
# Coordination Sequence:
#
# PCOD9526901 Si02
#       7
#    16  16  16  16  16  16  16
#     4   9  18  33  53  77 109 147 189 224 270 335
#     4  11  22  33  55  81 111 150 196 237 280 323
#     4  10  20  37  57  78 109 147 179 225 286 341
#     4  10  20  37  60  87 116 142 174 232 293 351
#     4  10  21  37  54  77 110 148 194 234 272 328
#     4   9  19  33  51  76 107 149 190 235 275 317
#     4  10  20  35  57  84 115 154 190 229 284 342
#
# _framework density 19.318308999999999
#
# number of rings (size 3 to 8) (size 9 to 14) (size 15 to 20)
#    0.000    2.143    1.429    3.000    2.000    2.286 
#    0.000    2.857    0.000    6.857    0.000    5.000 
#    0.000    0.000    0.000    0.000    0.000    0.000 
#
# Total GULP energy -312154.190514 kJ/mol
# GULP energy per Si atom -5574.181973 kJ/mol
# Density = 1.927434 g / cm^3
# Si number density = 19.318309 Si / 1000 Ang^3
#
#
#
# Elastic Constant Matrix: (Units=GPa)
#
#
# Indices 1 2 3 4 5 6 
#
# 1 135.2020 25.9722 32.0411 0.0000 0.0000 0.0000
# 2 25.9722 67.2683 11.4982 0.0000 0.0000 0.0000
# 3 32.0411 11.4982 36.5351 0.0000 0.0000 0.0000
# 4 0.0000 0.0000 0.0000 15.9558 0.0000 0.0000
# 5 0.0000 0.0000 0.0000 0.0000 5.7869 0.0000
# 6 0.0000 0.0000 0.0000 0.0000 0.0000 21.5209
#
#
#
# Elastic Compliance Matrix: (Units=1/GPa)
#
#
# Indices 1 2 3 4 5 6 
#
# 1 0.009696 -0.002420 -0.007742 0.000000 0.000000 0.000000
# 2 -0.002420 0.016315 -0.003012 0.000000 0.000000 0.000000
# 3 -0.007742 -0.003012 0.035108 0.000000 0.000000 0.000000
# 4 0.000000 0.000000 0.000000 0.062673 0.000000 0.000000
# 5 0.000000 0.000000 0.000000 0.000000 0.172805 0.000000
# 6 0.000000 0.000000 0.000000 0.000000 0.000000 0.046467
#
#
# Mechanical properties :
#
#
# Convention : Reuss Voigt Hill
#
# Bulk Modulus (GPa) = 28.75920 42.00314 35.38117
# Shear Modulus (GPa) = 13.12328 19.95230 16.53779
#
# Velocity S-wave (km/s) = 2.60920 3.21724 2.92904
# Velocity P-wave (km/s) = 4.89863 5.96579 5.45835
#
# Compressibility (1/GPa) = 0.03477148
#
# Stress axis : x y z
#
# Youngs Moduli (GPa) = 103.13597 61.29268 28.48332
#
# Poissons Ratio (x) = 0.14835 0.22051
# Poissons Ratio (y) = 0.24962 0.08579
# Poissons Ratio (z) = 0.79844 0.18462
#
# Static dielectric constant tensor:
#      x y z
#    x 1.662240 0.000000 0.000000 
#    y 0.000000 1.712510 0.000000 
#    z 0.000000 0.000000 1.749040 
# 
# From -- ./inp_files/26379.got.cif
#   From: 2010.05.17/outbox.cif.g08.bks.cpg/sg72_14_cif.got.tgz:26379.got - 2010.06.03 17:03:01.
