data_PCOD9526876
_publ_section_title
;
Structure prediction by ZEFSAII (Michael W. Deem and Ramdas Pophale) SiO2 
 PCOD9526876
Probable space group: I B A M
;
_chemical_formula_sum "Si O2"
_cell_formula_units_Z 116
_cell_length_a 31.316033
_cell_length_b 22.357427
_cell_length_c 9.052642
_cell_angle_alpha 90.000000
_cell_angle_beta 90.000000
_cell_angle_gamma 90.000000
_cell_volume 6338.170377
_symmetry_space_group_name_H-M "I B A M"
_symmetry_group_IT_number 72
_symmetry_cell_setting 'orthorhombic'
loop_
_space_group_symop_operation_xyz
x,y,z
-x,-y,z
x,-y,1/2-z
-x,y,1/2-z
-x,-y,-z
x,y,-z
-x,y,1/2+z
x,-y,1/2+z
1/2+x,1/2+y,1/2+z
1/2-x,1/2-y,1/2+z
1/2+x,1/2-y,-z
1/2-x,1/2+y,-z
1/2-x,1/2-y,1/2-z
1/2+x,1/2+y,1/2-z
1/2-x,1/2+y,z
1/2+x,1/2-y,z
loop_
_atom_site_type_symbol
_atom_site_label
_atom_site_fract_x
_atom_site_fract_y
_atom_site_fract_z
Si Si1 0.290253 0.829883 0.175497
Si Si2 0.500000 0.000000 0.250000
Si Si3 0.544893 0.226138 0.823233
Si Si4 0.390014 0.329483 0.324285
Si Si5 0.658967 0.061981 0.675909
Si Si6 0.427989 0.091081 0.332354
Si Si7 0.693860 0.703282 0.174699
Si Si8 0.544655 0.436840 0.175774
O O1 0.314089 0.883116 0.258515
O O2 0.305625 0.766162 0.238533
O O3 0.239130 0.829304 0.200456
O O4 0.298452 0.833120 0.000000
O O5 0.467446 0.045052 0.331024
O O6 0.500000 0.242201 0.750000
O O7 0.582660 0.271003 0.778682
O O8 0.556336 0.157336 0.789560
O O9 0.540334 0.231188 0.000000
O O10 0.381069 0.324558 0.500000
O O11 0.346442 0.332622 0.234614
O O12 0.419831 0.386746 0.300371
O O13 0.662353 0.059169 0.500000
O O14 0.609649 0.071255 0.724139
O O15 0.673404 0.000000 0.750000
O O16 0.410662 0.093821 0.500000
O O17 0.690509 0.714804 0.000000
O O18 0.556224 0.500000 0.250000
O O19 0.500000 0.417886 0.250000
O O20 0.538622 0.444378 0.000000
#
# Coordination Sequence:
#
# PCOD9526876 Si02
#       8
#    16   4  16  16  16  16  16  16
#     4  10  21  40  63  87 118 150 188 236 287 345
#     4  12  22  36  60  82 114 160 208 240 294 344
#     4  10  21  36  53  78 111 150 192 237 286 334
#     4  10  21  36  56  83 117 152 187 233 290 346
#     4  12  25  40  61  87 115 151 196 241 293 348
#     4  11  23  38  57  82 115 156 200 245 293 341
#     4  10  21  37  62  92 116 147 187 231 286 344
#     4  10  20  35  56  82 111 151 194 234 283 340
#
# _framework density 18.301811000000001
#
# number of rings (size 3 to 8) (size 9 to 14) (size 15 to 20)
#    0.000    1.517    1.379    4.345    0.000    5.517 
#    0.000    0.690    0.000    1.655    0.000    0.000 
#    0.000    0.000    0.000    0.000    0.000    0.000 
#
# Total GULP energy -324057.840914 kJ/mol
# GULP energy per Si atom -5587.204154 kJ/mol
# Density = 1.826016 g / cm^3
# Si number density = 18.301811 Si / 1000 Ang^3
#
#
#
# Elastic Constant Matrix: (Units=GPa)
#
#
# Indices 1 2 3 4 5 6 
#
# 1 103.4795 63.1963 66.3856 0.0000 0.0000 0.0000
# 2 63.1963 76.9289 54.9440 0.0000 0.0000 0.0000
# 3 66.3856 54.9440 105.6437 0.0000 0.0000 0.0000
# 4 0.0000 0.0000 0.0000 24.1723 0.0000 0.0000
# 5 0.0000 0.0000 0.0000 0.0000 31.9924 0.0000
# 6 0.0000 0.0000 0.0000 0.0000 0.0000 17.9038
#
#
#
# Elastic Compliance Matrix: (Units=1/GPa)
#
#
# Indices 1 2 3 4 5 6 
#
# 1 0.022339 -0.013246 -0.007149 0.000000 0.000000 0.000000
# 2 -0.013246 0.028535 -0.006517 0.000000 0.000000 0.000000
# 3 -0.007149 -0.006517 0.017348 0.000000 0.000000 0.000000
# 4 0.000000 0.000000 0.000000 0.041370 0.000000 0.000000
# 5 0.000000 0.000000 0.000000 0.000000 0.031257 0.000000
# 6 0.000000 0.000000 0.000000 0.000000 0.000000 0.055854
#
#
# Mechanical properties :
#
#
# Convention : Reuss Voigt Hill
#
# Bulk Modulus (GPa) = 69.45277 72.78934 71.12105
# Shear Modulus (GPa) = 19.58280 21.58210 20.58245
#
# Velocity S-wave (km/s) = 3.27462 3.43772 3.35716
# Velocity P-wave (km/s) = 7.23384 7.45756 7.34655
#
# Compressibility (1/GPa) = 0.01439827
#
# Stress axis : x y z
#
# Youngs Moduli (GPa) = 44.76403 35.04481 57.64472
#
# Poissons Ratio (x) = 0.46419 0.41210
# Poissons Ratio (y) = 0.59293 0.37568
# Poissons Ratio (z) = 0.32002 0.22839
#
# Static dielectric constant tensor:
#      x y z
#    x 1.615420 0.000000 0.000000 
#    y 0.000000 1.622530 0.000000 
#    z 0.000000 0.000000 1.618860 
# 
# From -- ./inp_files/8447.got.cif
#   From: 2010.05.17/outbox.cif.g08.bks.cpg/sg72_5_cif.got.tgz:8447.got - 2010.06.03 17:03:01.
