data_PCOD9526939
_publ_section_title
;
Structure prediction by ZEFSAII (Michael W. Deem and Ramdas Pophale) SiO2 
 PCOD9526939
Probable space group: I B A M
;
_chemical_formula_sum "Si O2"
_cell_formula_units_Z 112
_cell_length_a 12.901552
_cell_length_b 25.877943
_cell_length_c 14.699204
_cell_angle_alpha 90.000000
_cell_angle_beta 90.000000
_cell_angle_gamma 90.000000
_cell_volume 4907.558964
_symmetry_space_group_name_H-M "I B A M"
_symmetry_group_IT_number 72
_symmetry_cell_setting 'orthorhombic'
loop_
_space_group_symop_operation_xyz
x,y,z
-x,-y,z
x,-y,1/2-z
-x,y,1/2-z
-x,-y,-z
x,y,-z
-x,y,1/2+z
x,-y,1/2+z
1/2+x,1/2+y,1/2+z
1/2-x,1/2-y,1/2+z
1/2+x,1/2-y,-z
1/2-x,1/2+y,-z
1/2-x,1/2-y,1/2-z
1/2+x,1/2+y,1/2-z
1/2-x,1/2+y,z
1/2+x,1/2-y,z
loop_
_atom_site_type_symbol
_atom_site_label
_atom_site_fract_x
_atom_site_fract_y
_atom_site_fract_z
Si Si1 0.700450 0.985046 0.151751
Si Si2 0.334784 0.899373 0.895304
Si Si3 0.440157 0.547929 0.846724
Si Si4 0.565989 0.885187 0.108057
Si Si5 0.554084 0.663372 0.396351
Si Si6 0.226252 0.299652 0.611417
Si Si7 0.328443 0.683347 0.611696
O O1 0.819286 0.966508 0.161172
O O2 0.631279 0.938190 0.116017
O O3 0.658379 0.000000 0.250000
O O4 0.694939 0.040304 0.102990
O O5 0.449423 0.891449 0.854112
O O6 0.244877 0.863230 0.854632
O O7 0.342225 0.882488 0.000000
O O8 0.500000 0.500000 0.891296
O O9 0.500000 0.554777 0.750000
O O10 0.447385 0.601547 0.897760
O O11 0.634570 0.837502 0.144234
O O12 0.554988 0.876153 0.000000
O O13 0.554566 0.683931 0.500000
O O14 0.662370 0.680899 0.354651
O O15 0.445711 0.679513 0.353506
O O16 0.225641 0.303576 0.500000
O O17 0.213452 0.239815 0.634131
O O18 0.334212 0.679437 0.500000
#
# Coordination Sequence:
#
# PCOD9526939 Si02
#       7
#    16  16  16  16  16  16  16
#     4  12  23  38  60  83 113 152 196 236 286 347
#     4  10  22  38  59  88 120 151 189 237 290 341
#     4  11  22  38  57  80 114 154 190 233 292 340
#     4  10  21  38  60  87 118 153 190 236 289 342
#     4  10  20  35  59  88 113 147 194 236 283 345
#     4   9  18  33  56  87 118 148 186 235 287 338
#     4   9  19  33  55  88 120 148 184 236 287 336
#
# _framework density 22.821936000000001
#
# number of rings (size 3 to 8) (size 9 to 14) (size 15 to 20)
#    0.000    1.857    2.857    1.714    2.000    3.143 
#    0.000    0.000    0.000    3.429    0.000    0.000 
#    0.000    0.000    0.000    0.000    0.000    0.000 
#
# Total GULP energy -312839.361539 kJ/mol
# GULP energy per Si atom -5586.417170 kJ/mol
# Density = 2.276999 g / cm^3
# Si number density = 22.821936 Si / 1000 Ang^3
#
#
#
# Elastic Constant Matrix: (Units=GPa)
#
#
# Indices 1 2 3 4 5 6 
#
# 1 168.9273 54.6698 9.1068 0.0000 0.0000 0.0000
# 2 54.6698 111.8322 -13.3880 0.0000 0.0000 0.0000
# 3 9.1068 -13.3880 40.4578 0.0001 0.0000 0.0000
# 4 0.0000 0.0000 0.0001 33.1513 0.0000 0.0001
# 5 0.0000 0.0000 0.0000 0.0000 16.8602 0.0000
# 6 0.0000 0.0000 0.0000 0.0001 0.0000 -10.5888
#
#
#
# Elastic Compliance Matrix: (Units=1/GPa)
#
#
# Indices 1 2 3 4 5 6 
#
# 1 0.007359 -0.003952 -0.002964 0.000000 0.000000 0.000000
# 2 -0.003952 0.011433 0.004673 0.000000 0.000000 0.000000
# 3 -0.002964 0.004673 0.026931 0.000000 0.000000 0.000000
# 4 0.000000 0.000000 0.000000 0.030165 0.000000 0.000000
# 5 0.000000 0.000000 0.000000 0.000000 0.059311 0.000000
# 6 0.000000 0.000000 0.000000 0.000000 0.000000 -0.094440
#
#
# Mechanical properties :
#
#
# Convention : Reuss Voigt Hill
#
# Bulk Modulus (GPa) = 24.25052 46.88829 35.56940
# Shear Modulus (GPa) = 84.75935 25.93981 55.34958
#
# Velocity S-wave (km/s) = 6.10082 3.37503 4.93006
# Velocity P-wave (km/s) = 7.76375 5.98144 6.93013
#
# Compressibility (1/GPa) = 0.04123624
#
# Stress axis : x y z
#
# Youngs Moduli (GPa) = 135.89686 87.46294 37.13230
#
# Poissons Ratio (x) = 0.34566 0.11007
# Poissons Ratio (y) = 0.53708 -0.17352
# Poissons Ratio (z) = 0.40282 -0.40872
#
# Static dielectric constant tensor:
#      x y z
#    x 1.856210 0.000000 0.000000 
#    y 0.000000 1.820950 0.000000 
#    z 0.000000 0.000000 2.380310 
# 
# From -- ./inp_files/37307.got.cif
#   From: 2010.05.17/outbox.cif.g08.bks.cpg/sg72_19_cif.got.tgz:37307.got - 2010.06.03 17:03:01.
