data_PCOD9526737
_publ_section_title
;
Structure prediction by ZEFSAII (Michael W. Deem and Ramdas Pophale) SiO2 
 PCOD9526737
Probable space group: I B A M
;
_chemical_formula_sum "Si O2"
_cell_formula_units_Z 116
_cell_length_a 26.195258
_cell_length_b 25.708545
_cell_length_c 8.944584
_cell_angle_alpha 90.000000
_cell_angle_beta 90.000000
_cell_angle_gamma 90.000000
_cell_volume 6023.658262
_symmetry_space_group_name_H-M "I B A M"
_symmetry_group_IT_number 72
_symmetry_cell_setting 'orthorhombic'
loop_
_space_group_symop_operation_xyz
x,y,z
-x,-y,z
x,-y,1/2-z
-x,y,1/2-z
-x,-y,-z
x,y,-z
-x,y,1/2+z
x,-y,1/2+z
1/2+x,1/2+y,1/2+z
1/2-x,1/2-y,1/2+z
1/2+x,1/2-y,-z
1/2-x,1/2+y,-z
1/2-x,1/2-y,1/2-z
1/2+x,1/2+y,1/2-z
1/2-x,1/2+y,z
1/2+x,1/2-y,z
loop_
_atom_site_type_symbol
_atom_site_label
_atom_site_fract_x
_atom_site_fract_y
_atom_site_fract_z
Si Si1 0.730269 0.158400 0.178720
Si Si2 0.551773 0.838259 0.677943
Si Si3 0.149703 0.841916 0.180686
Si Si4 0.500000 0.500000 0.250000
Si Si5 0.306829 0.946771 0.670928
Si Si6 0.930009 0.553156 0.670983
Si Si7 0.144056 0.274796 0.319471
Si Si8 0.397525 0.448964 0.829777
O O1 0.790198 0.156767 0.215586
O O2 0.708409 0.103465 0.234660
O O3 0.698156 0.203717 0.259512
O O4 0.724590 0.163970 0.000000
O O5 0.500000 0.816109 0.750000
O O6 0.551596 0.833560 0.500000
O O7 0.554896 0.898090 0.728889
O O8 0.600679 0.810876 0.749804
O O9 0.132570 0.784484 0.228565
O O10 0.119615 0.893293 0.235642
O O11 0.144756 0.842183 0.000000
O O12 0.541339 0.538585 0.173007
O O13 0.287942 0.943192 0.500000
O O14 0.368329 0.947592 0.664417
O O15 0.289624 0.000000 0.750000
O O16 0.945398 0.500000 0.750000
O O17 0.948847 0.558136 0.500000
O O18 0.144007 0.278220 0.500000
O O19 0.374973 0.500000 0.750000
O O20 0.380249 0.449847 0.000000
#
# Coordination Sequence:
#
# PCOD9526737 Si02
#       8
#    16  16  16   4  16  16  16  16
#     4  11  21  36  60  87 119 162 206 251 307 367
#     4  12  25  42  63  87 118 155 200 251 305 361
#     4   9  21  39  60  88 124 161 199 249 304 361
#     4   8  18  32  70  88 122 156 206 232 302 352
#     4  10  20  34  55  83 118 157 200 246 297 355
#     4  10  20  36  59  86 117 151 194 242 296 352
#     4  11  22  41  63  84 117 161 205 253 308 363
#     4   9  18  36  60  89 122 156 195 242 298 358
#
# _framework density 19.257400000000001
#
# number of rings (size 3 to 8) (size 9 to 14) (size 15 to 20)
#    0.414    1.379    1.379    3.517    0.000    1.931 
#    1.241    7.586    0.000    0.000    0.000    0.000 
#    0.000    0.000    0.000    0.000    0.000    0.000 
#
# Total GULP energy -323478.350442 kJ/mol
# GULP energy per Si atom -5577.212939 kJ/mol
# Density = 1.921357 g / cm^3
# Si number density = 19.257400 Si / 1000 Ang^3
#
#
#
# Elastic Constant Matrix: (Units=GPa)
#
#
# Indices 1 2 3 4 5 6 
#
# 1 66.6631 50.4791 28.3684 0.0000 0.0000 0.0000
# 2 50.4791 158.0048 38.6842 0.0000 0.0000 0.0000
# 3 28.3684 38.6842 102.3301 0.0000 0.0000 0.0000
# 4 0.0000 0.0000 0.0000 17.9202 0.0000 0.0000
# 5 0.0000 0.0000 0.0000 0.0000 21.3694 0.0000
# 6 0.0000 0.0000 0.0000 0.0000 0.0000 -3.1476
#
#
#
# Elastic Compliance Matrix: (Units=1/GPa)
#
#
# Indices 1 2 3 4 5 6 
#
# 1 0.020931 -0.005804 -0.003609 0.000000 0.000000 0.000000
# 2 -0.005804 0.008584 -0.001636 0.000000 0.000000 0.000000
# 3 -0.003609 -0.001636 0.011391 0.000000 0.000000 0.000000
# 4 0.000000 0.000000 0.000000 0.055803 0.000000 0.000000
# 5 0.000000 0.000000 0.000000 0.000000 0.046796 0.000000
# 6 0.000000 0.000000 0.000000 0.000000 0.000000 -0.317707
#
#
# Mechanical properties :
#
#
# Convention : Reuss Voigt Hill
#
# Bulk Modulus (GPa) = 53.16489 62.45128 57.80809
# Shear Modulus (GPa) = -34.28499 21.19282 -6.54609
#
# Velocity S-wave (km/s) = -4.22400 3.32098 -1.84571
# Velocity P-wave (km/s) = 1.96923 6.87062 5.05387
#
# Compressibility (1/GPa) = 0.01880940
#
# Stress axis : x y z
#
# Youngs Moduli (GPa) = 47.77595 116.50176 87.78725
#
# Poissons Ratio (x) = 0.67612 0.31680
# Poissons Ratio (y) = 0.27727 0.14362
# Poissons Ratio (z) = 0.17241 0.19060
#
# Static dielectric constant tensor:
#      x y z
#    x 1.699200 0.000000 0.000000 
#    y 0.000000 1.678400 0.000000 
#    z 0.000000 0.000000 1.665190 
# 
# From -- ./inp_files/8397.got.cif
#   From: 2010.05.17/outbox.cif.g08.bks.cpg/sg72_5_cif.got.tgz:8397.got - 2010.06.03 17:03:01.
