data_PCOD9526663
_publ_section_title
;
Structure prediction by ZEFSAII (Michael W. Deem and Ramdas Pophale) SiO2 
 PCOD9526663
Probable space group: I B A M
;
_chemical_formula_sum "Si O2"
_cell_formula_units_Z 96
_cell_length_a 24.502670
_cell_length_b 13.949375
_cell_length_c 13.830766
_cell_angle_alpha 90.000000
_cell_angle_beta 90.000000
_cell_angle_gamma 90.000000
_cell_volume 4727.313391
_symmetry_space_group_name_H-M "I B A M"
_symmetry_group_IT_number 72
_symmetry_cell_setting 'orthorhombic'
loop_
_space_group_symop_operation_xyz
x,y,z
-x,-y,z
x,-y,1/2-z
-x,y,1/2-z
-x,-y,-z
x,y,-z
-x,y,1/2+z
x,-y,1/2+z
1/2+x,1/2+y,1/2+z
1/2-x,1/2-y,1/2+z
1/2+x,1/2-y,-z
1/2-x,1/2+y,-z
1/2-x,1/2-y,1/2-z
1/2+x,1/2+y,1/2-z
1/2-x,1/2+y,z
1/2+x,1/2-y,z
loop_
_atom_site_type_symbol
_atom_site_label
_atom_site_fract_x
_atom_site_fract_y
_atom_site_fract_z
Si Si1 0.653601 0.259972 0.107406
Si Si2 0.625856 0.138798 0.386028
Si Si3 0.767484 0.406775 0.389828
Si Si4 0.059077 0.450279 0.113239
Si Si5 0.060018 0.741632 0.742281
Si Si6 0.743474 0.873961 0.175271
O O1 0.674149 0.148741 0.113949
O O2 0.608893 0.292521 0.184832
O O3 0.709975 0.317408 0.119965
O O4 0.631839 0.275593 0.000000
O O5 0.633411 0.142856 0.500000
O O6 0.580692 0.211770 0.347658
O O7 0.682435 0.165969 0.335156
O O8 0.603593 0.032129 0.362226
O O9 0.746990 0.387662 0.500000
O O10 0.765548 0.520661 0.371393
O O11 0.740559 0.372830 0.288785
O O12 0.057153 0.357624 0.180591
O O13 0.000000 0.500000 0.122143
O O14 0.065872 0.424612 0.000000
O O15 0.000000 0.785090 0.750000
#
# Coordination Sequence:
#
# PCOD9526663 Si02
#       6
#    16  16  16  16  16  16
#     4  11  23  40  62  86 120 161 200 246 303 361
#     4  11  22  33  50  75 109 152 197 241 286 342
#     4  10  21  36  59  88 118 156 198 239 289 356
#     4  10  20  34  51  75 110 153 198 238 286 350
#     4  12  23  34  52  76 111 152 198 241 289 351
#     4  11  22  40  59  85 123 158 200 244 303 355
#
# _framework density 20.307518000000002
#
# number of rings (size 3 to 8) (size 9 to 14) (size 15 to 20)
#    0.000    1.167    3.333    4.000    2.333    3.333 
#    0.000    0.000    0.000    0.000    0.000    2.333 
#    0.000    6.667    0.000    0.000    0.000    0.000 
#
# Total GULP energy -267874.270362 kJ/mol
# GULP energy per Si atom -5580.713966 kJ/mol
# Density = 2.026130 g / cm^3
# Si number density = 20.307518 Si / 1000 Ang^3
#
#
#
# Elastic Constant Matrix: (Units=GPa)
#
#
# Indices 1 2 3 4 5 6 
#
# 1 112.6369 29.9507 8.7157 0.0000 0.0000 0.0000
# 2 29.9507 30.2695 5.3735 0.0000 0.0000 0.0000
# 3 8.7157 5.3735 121.4759 0.0000 0.0000 0.0000
# 4 0.0000 0.0000 0.0000 16.7847 0.0000 0.0000
# 5 0.0000 0.0000 0.0000 0.0000 27.2659 0.0000
# 6 0.0000 0.0000 0.0000 0.0000 0.0000 24.5638
#
#
#
# Elastic Compliance Matrix: (Units=1/GPa)
#
#
# Indices 1 2 3 4 5 6 
#
# 1 0.012062 -0.011874 -0.000340 0.000000 0.000000 0.000000
# 2 -0.011874 0.044988 -0.001138 0.000000 0.000000 0.000000
# 3 -0.000340 -0.001138 0.008307 0.000000 0.000000 0.000000
# 4 0.000000 0.000000 0.000000 0.059578 0.000000 0.000000
# 5 0.000000 0.000000 0.000000 0.000000 0.036676 0.000000
# 6 0.000000 0.000000 0.000000 0.000000 0.000000 0.040710
#
#
# Mechanical properties :
#
#
# Convention : Reuss Voigt Hill
#
# Bulk Modulus (GPa) = 25.87233 39.16243 32.51738
# Shear Modulus (GPa) = 20.66885 28.41238 24.54062
#
# Velocity S-wave (km/s) = 3.19375 3.74452 3.48005
# Velocity P-wave (km/s) = 5.13497 6.16618 5.67405
#
# Compressibility (1/GPa) = 0.03865133
#
# Stress axis : x y z
#
# Youngs Moduli (GPa) = 82.90585 22.22818 120.38278
#
# Poissons Ratio (x) = 0.26395 0.04095
# Poissons Ratio (y) = 0.98446 0.13700
# Poissons Ratio (z) = 0.02820 0.02530
#
# Static dielectric constant tensor:
#      x y z
#    x 1.744430 0.000000 0.000000 
#    y 0.000000 1.752650 0.000000 
#    z 0.000000 0.000000 1.764100 
# 
# From -- ./inp_files/24125.got.cif
#   From: 2010.05.17/outbox.cif.g08.bks.cpg/sg72_13_cif.got.tgz:24125.got - 2010.06.03 17:03:01.
