data_PCOD9526311
_publ_section_title
;
Structure prediction by ZEFSAII (Michael W. Deem and Ramdas Pophale) SiO2 
 PCOD9526311
Probable space group: I B A M
;
_chemical_formula_sum "Si O2"
_cell_formula_units_Z 72
_cell_length_a 14.973321
_cell_length_b 18.043799
_cell_length_c 11.871751
_cell_angle_alpha 90.000000
_cell_angle_beta 90.000000
_cell_angle_gamma 90.000000
_cell_volume 3207.457384
_symmetry_space_group_name_H-M "I B A M"
_symmetry_group_IT_number 72
_symmetry_cell_setting 'orthorhombic'
loop_
_space_group_symop_operation_xyz
x,y,z
-x,-y,z
x,-y,1/2-z
-x,y,1/2-z
-x,-y,-z
x,y,-z
-x,y,1/2+z
x,-y,1/2+z
1/2+x,1/2+y,1/2+z
1/2-x,1/2-y,1/2+z
1/2+x,1/2-y,-z
1/2-x,1/2+y,-z
1/2-x,1/2-y,1/2-z
1/2+x,1/2+y,1/2-z
1/2-x,1/2+y,z
1/2+x,1/2-y,z
loop_
_atom_site_type_symbol
_atom_site_label
_atom_site_fract_x
_atom_site_fract_y
_atom_site_fract_z
Si Si1 0.344987 0.039225 0.125372
Si Si2 0.342511 0.420268 0.714915
Si Si3 0.378573 0.201098 0.168124
Si Si4 0.269886 0.184320 0.375661
Si Si5 0.500000 0.316395 0.250000
O O1 0.239430 0.061312 0.131578
O O2 0.394712 0.118784 0.126634
O O3 0.362012 0.000000 0.250000
O O4 0.362460 0.005065 0.000000
O O5 0.378920 0.500000 0.750000
O O6 0.291125 0.377736 0.816353
O O7 0.424934 0.366728 0.690307
O O8 0.356768 0.193532 0.300541
O O9 0.287005 0.239338 0.124982
O O10 0.453424 0.262812 0.158961
O O11 0.291275 0.162318 0.500000
#
# Coordination Sequence:
#
# PCOD9526311 Si02
#       5
#    16  16  16  16   8
#     4  10  21  39  64  89 113 149 199 250 293 338
#     4   9  19  33  55  84 116 151 189 235 288 348
#     4   9  19  33  54  80 111 149 193 241 287 342
#     4   9  17  33  55  77 105 149 200 243 281 330
#     4  10  19  36  53  80 124 160 188 228 293 356
#
# _framework density 22.447686999999998
#
# number of rings (size 3 to 8) (size 9 to 14) (size 15 to 20)
#    0.000    2.667    0.000    2.333    0.000    8.000 
#    0.000   11.667    0.000   12.000    0.000    0.000 
#    0.000    0.000    0.000    0.000    0.000    0.000 
#
# Total GULP energy -200469.472762 kJ/mol
# GULP energy per Si atom -5568.596466 kJ/mol
# Density = 2.239659 g / cm^3
# Si number density = 22.447687 Si / 1000 Ang^3
#
#
#
# Elastic Constant Matrix: (Units=GPa)
#
#
# Indices 1 2 3 4 5 6 
#
# 1 37.5403 22.6796 -3.0733 0.0000 0.0000 0.0000
# 2 22.6796 148.6362 29.7114 0.0000 0.0000 0.0000
# 3 -3.0733 29.7114 149.5386 0.0000 0.0000 0.0000
# 4 0.0000 0.0000 0.0000 -3.0384 0.0000 0.0000
# 5 0.0000 0.0000 0.0000 0.0000 28.1143 0.0000
# 6 0.0000 0.0000 0.0000 0.0000 0.0000 43.2095
#
#
#
# Elastic Compliance Matrix: (Units=1/GPa)
#
#
# Indices 1 2 3 4 5 6 
#
# 1 0.029694 -0.004845 0.001573 0.000000 0.000000 0.000000
# 2 -0.004845 0.007797 -0.001649 0.000000 0.000000 0.000000
# 3 0.001573 -0.001649 0.007047 0.000000 0.000000 0.000000
# 4 0.000000 0.000000 0.000000 -0.329125 0.000000 0.000000
# 5 0.000000 0.000000 0.000000 0.000000 0.035569 0.000000
# 6 0.000000 0.000000 0.000000 0.000000 0.000000 0.023143
#
#
# Mechanical properties :
#
#
# Convention : Reuss Voigt Hill
#
# Bulk Modulus (GPa) = 28.82191 48.26119 38.54155
# Shear Modulus (GPa) = -24.45370 32.75022 4.14826
#
# Velocity S-wave (km/s) = -3.30413 3.82377 1.36087
# Velocity P-wave (km/s) = 1.29959 6.40633 4.43577
#
# Compressibility (1/GPa) = 0.03469583
#
# Stress axis : x y z
#
# Youngs Moduli (GPa) = 33.67683 128.25913 141.90160
#
# Poissons Ratio (x) = 0.62145 -0.22320
# Poissons Ratio (y) = 0.16317 0.23395
# Poissons Ratio (z) = -0.05297 0.21146
#
# Static dielectric constant tensor:
#      x y z
#    x 1.866310 0.000000 0.000000 
#    y 0.000000 1.904570 0.000000 
#    z 0.000000 0.000000 1.903060 
# 
# From -- ./inp_files/13630.got.cif
#   From: 2010.05.17/outbox.cif.g08.bks.cpg/sg72_7_cif.got.tgz:13630.got - 2010.06.03 17:03:01.
