data_PCOD9526215
_publ_section_title
;
Structure prediction by ZEFSAII (Michael W. Deem and Ramdas Pophale) SiO2 
 PCOD9526215
Probable space group: I B A M
;
_chemical_formula_sum "Si O2"
_cell_formula_units_Z 96
_cell_length_a 25.344702
_cell_length_b 20.104719
_cell_length_c 9.975932
_cell_angle_alpha 90.000000
_cell_angle_beta 90.000000
_cell_angle_gamma 90.000000
_cell_volume 5083.217315
_symmetry_space_group_name_H-M "I B A M"
_symmetry_group_IT_number 72
_symmetry_cell_setting 'orthorhombic'
loop_
_space_group_symop_operation_xyz
x,y,z
-x,-y,z
x,-y,1/2-z
-x,y,1/2-z
-x,-y,-z
x,y,-z
-x,y,1/2+z
x,-y,1/2+z
1/2+x,1/2+y,1/2+z
1/2-x,1/2-y,1/2+z
1/2+x,1/2-y,-z
1/2-x,1/2+y,-z
1/2-x,1/2-y,1/2-z
1/2+x,1/2+y,1/2-z
1/2-x,1/2+y,z
1/2+x,1/2-y,z
loop_
_atom_site_type_symbol
_atom_site_label
_atom_site_fract_x
_atom_site_fract_y
_atom_site_fract_z
Si Si1 0.213510 0.209090 0.650502
Si Si2 0.607671 0.204653 0.652802
Si Si3 0.949167 0.193864 0.339248
Si Si4 0.720712 0.405831 0.851525
Si Si5 0.656308 0.059622 0.654709
Si Si6 0.394473 0.554014 0.852495
O O1 0.234708 0.203347 0.500000
O O2 0.250000 0.250000 0.750000
O O3 0.158731 0.247988 0.644813
O O4 0.209527 0.139130 0.723375
O O5 0.584468 0.203755 0.500000
O O6 0.572735 0.239342 0.767356
O O7 0.628977 0.130650 0.685185
O O8 0.958246 0.202358 0.500000
O O9 0.909558 0.130819 0.324178
O O10 0.000000 0.175960 0.250000
O O11 0.779807 0.433337 0.836287
O O12 0.669280 0.451795 0.858049
O O13 0.721219 0.370761 0.000000
O O14 0.644325 0.044235 0.500000
O O15 0.639170 0.000000 0.750000
O O16 0.415427 0.500000 0.750000
O O17 0.415705 0.539329 0.000000
#
# Coordination Sequence:
#
# PCOD9526215 Si02
#       6
#    16  16  16  16  16  16
#     4  11  20  31  52  81 113 151 193 236 282 332
#     4  10  21  38  59  83 114 151 191 240 291 342
#     4  11  24  42  64  88 112 143 188 243 297 352
#     4  10  19  35  53  79 119 156 197 236 271 326
#     4  10  21  36  55  83 121 158 193 234 278 335
#     4  10  22  37  57  83 117 157 196 238 280 333
#
# _framework density 18.885676
#
# number of rings (size 3 to 8) (size 9 to 14) (size 15 to 20)
#    0.000    1.667    3.333    1.500    0.000    4.333 
#    0.000    1.667    0.000    0.500    0.000    3.500 
#    0.000    0.000    0.000    0.000    0.000    0.000 
#
# Total GULP energy -267401.928387 kJ/mol
# GULP energy per Si atom -5570.873508 kJ/mol
# Density = 1.884269 g / cm^3
# Si number density = 18.885676 Si / 1000 Ang^3
#
#
#
# Elastic Constant Matrix: (Units=GPa)
#
#
# Indices 1 2 3 4 5 6 
#
# 1 37.5774 6.5798 29.0745 0.0000 0.0000 0.0000
# 2 6.5798 93.4581 78.5200 0.0000 0.0000 0.0000
# 3 29.0745 78.5200 161.6109 0.0000 0.0000 0.0000
# 4 0.0000 0.0000 0.0000 38.5556 0.0000 0.0000
# 5 0.0000 0.0000 0.0000 0.0000 22.3358 0.0000
# 6 0.0000 0.0000 0.0000 0.0000 0.0000 4.8222
#
#
#
# Elastic Compliance Matrix: (Units=1/GPa)
#
#
# Indices 1 2 3 4 5 6 
#
# 1 0.031931 0.004357 -0.007861 0.000000 0.000000 0.000000
# 2 0.004357 0.018675 -0.009857 0.000000 0.000000 0.000000
# 3 -0.007861 -0.009857 0.012391 0.000000 0.000000 0.000000
# 4 0.000000 0.000000 0.000000 0.025937 0.000000 0.000000
# 5 0.000000 0.000000 0.000000 0.000000 0.044771 0.000000
# 6 0.000000 0.000000 0.000000 0.000000 0.000000 0.207373
#
#
# Mechanical properties :
#
#
# Convention : Reuss Voigt Hill
#
# Bulk Modulus (GPa) = 27.56802 57.88832 42.72817
# Shear Modulus (GPa) = 13.16159 25.04088 19.10124
#
# Velocity S-wave (km/s) = 2.64277 3.64527 3.18372
# Velocity P-wave (km/s) = 4.89298 6.95958 6.01569
#
# Compressibility (1/GPa) = 0.03627392
#
# Stress axis : x y z
#
# Youngs Moduli (GPa) = 31.31712 53.54800 80.70269
#
# Poissons Ratio (x) = -0.23329 0.63443
# Poissons Ratio (y) = -0.13644 0.79550
# Poissons Ratio (z) = 0.24619 0.52783
#
# Static dielectric constant tensor:
#      x y z
#    x 1.648420 0.000000 0.000000 
#    y 0.000000 1.672480 0.000000 
#    z 0.000000 0.000000 1.667840 
# 
# From -- ./inp_files/5951.got.cif
#   From: 2010.05.17/outbox.cif.g08.bks.cpg/sg72_3_cif.got.tgz:5951.got - 2010.06.03 17:03:01.
