data_PCOD9526780
_publ_section_title
;
Structure prediction by ZEFSAII (Michael W. Deem and Ramdas Pophale) SiO2 
 PCOD9526780
Probable space group: I B A M
;
_chemical_formula_sum "Si O2"
_cell_formula_units_Z 112
_cell_length_a 11.579759
_cell_length_b 32.974345
_cell_length_c 14.529735
_cell_angle_alpha 90.000000
_cell_angle_beta 90.000000
_cell_angle_gamma 90.000000
_cell_volume 5547.960903
_symmetry_space_group_name_H-M "I B A M"
_symmetry_group_IT_number 72
_symmetry_cell_setting 'orthorhombic'
loop_
_space_group_symop_operation_xyz
x,y,z
-x,-y,z
x,-y,1/2-z
-x,y,1/2-z
-x,-y,-z
x,y,-z
-x,y,1/2+z
x,-y,1/2+z
1/2+x,1/2+y,1/2+z
1/2-x,1/2-y,1/2+z
1/2+x,1/2-y,-z
1/2-x,1/2+y,-z
1/2-x,1/2-y,1/2-z
1/2+x,1/2+y,1/2-z
1/2-x,1/2+y,z
1/2+x,1/2-y,z
loop_
_atom_site_type_symbol
_atom_site_label
_atom_site_fract_x
_atom_site_fract_y
_atom_site_fract_z
Si Si1 0.288178 0.128188 0.776157
Si Si2 0.192455 0.955760 0.729694
Si Si3 0.947148 0.682108 0.397716
Si Si4 0.781780 0.676217 0.893234
Si Si5 0.575966 0.729229 0.840994
Si Si6 0.021339 0.065760 0.606668
Si Si7 0.422170 0.345523 0.398677
O O1 0.280046 0.080376 0.793663
O O2 0.394209 0.151845 0.822736
O O3 0.279908 0.135816 0.667447
O O4 0.175542 0.148859 0.822616
O O5 0.122255 0.944502 0.822519
O O6 0.094449 0.954819 0.649393
O O7 0.241865 0.000000 0.750000
O O8 0.921429 0.666220 0.500000
O O9 0.900545 0.727573 0.386772
O O10 0.084536 0.688300 0.391175
O O11 0.700602 0.707765 0.839452
O O12 0.745239 0.672652 0.000000
O O13 0.500000 0.737350 0.750000
O O14 0.496265 0.695182 0.889961
O O15 0.039294 0.054631 0.500000
O O16 0.000692 0.114394 0.610671
O O17 0.368067 0.346784 0.500000
#
# Coordination Sequence:
#
# PCOD9526780 Si02
#       7
#    16  16  16  16  16  16  16
#     4  11  22  41  62  85 122 166 209 257 319 379
#     4  10  21  34  56  89 121 157 209 263 314 385
#     4  11  26  43  62  88 120 165 216 266 316 371
#     4  11  24  42  62  89 122 162 210 257 310 373
#     4  12  23  38  61  91 128 162 209 260 312 367
#     4   9  18  33  54  85 129 171 200 243 317 389
#     4  10  20  34  57  88 124 166 206 250 305 375
#
# _framework density 20.187598000000001
#
# number of rings (size 3 to 8) (size 9 to 14) (size 15 to 20)
#    0.000    1.429    1.429    4.714    4.000    4.571 
#    0.000    0.000    0.000    1.714    0.000    2.000 
#    0.000    0.000    0.000    0.000    0.000    0.000 
#
# Total GULP energy -312679.008642 kJ/mol
# GULP energy per Si atom -5583.553726 kJ/mol
# Density = 2.014165 g / cm^3
# Si number density = 20.187598 Si / 1000 Ang^3
#
#
#
# Elastic Constant Matrix: (Units=GPa)
#
#
# Indices 1 2 3 4 5 6 
#
# 1 64.9554 24.3403 20.9789 0.0000 0.0000 0.0000
# 2 24.3403 104.8386 26.5324 -0.0001 0.0000 0.0000
# 3 20.9789 26.5324 103.3686 -0.0004 -0.0001 0.0000
# 4 0.0000 -0.0001 -0.0004 8.3714 0.0000 0.0001
# 5 0.0000 0.0000 -0.0001 0.0000 17.0240 0.0000
# 6 0.0000 0.0000 0.0000 0.0001 0.0000 16.8720
#
#
#
# Elastic Compliance Matrix: (Units=1/GPa)
#
#
# Indices 1 2 3 4 5 6 
#
# 1 0.017534 -0.003390 -0.002688 0.000000 0.000000 0.000000
# 2 -0.003390 0.010857 -0.002099 0.000000 0.000000 0.000000
# 3 -0.002688 -0.002099 0.010758 0.000000 0.000000 0.000000
# 4 0.000000 0.000000 0.000000 0.119454 0.000000 0.000000
# 5 0.000000 0.000000 0.000000 0.000000 0.058741 0.000000
# 6 0.000000 0.000000 0.000000 0.000000 0.000000 0.059270
#
#
# Mechanical properties :
#
#
# Convention : Reuss Voigt Hill
#
# Bulk Modulus (GPa) = 43.87056 46.31843 45.09449
# Shear Modulus (GPa) = 16.63524 21.87420 19.25472
#
# Velocity S-wave (km/s) = 2.87371 3.29530 3.09170
# Velocity P-wave (km/s) = 5.72622 6.12148 5.92714
#
# Compressibility (1/GPa) = 0.02279433
#
# Stress axis : x y z
#
# Youngs Moduli (GPa) = 57.03232 92.10861 92.95095
#
# Poissons Ratio (x) = 0.31229 0.24988
# Poissons Ratio (y) = 0.19337 0.19506
# Poissons Ratio (z) = 0.15332 0.19330
#
# Static dielectric constant tensor:
#      x y z
#    x 1.733370 0.000000 0.000000 
#    y 0.000000 1.728940 0.000000 
#    z 0.000000 0.000000 1.752170 
# 
# From -- ./inp_files/20705.got.cif
#   From: 2010.05.17/outbox.cif.g08.bks.cpg/sg72_11_cif.got.tgz:20705.got - 2010.06.03 17:03:01.
