data_PCOD9526393
_publ_section_title
;
Structure prediction by ZEFSAII (Michael W. Deem and Ramdas Pophale) SiO2 
 PCOD9526393
Probable space group: I B A M
;
_chemical_formula_sum "Si O2"
_cell_formula_units_Z 56
_cell_length_a 13.260729
_cell_length_b 8.422142
_cell_length_c 22.238617
_cell_angle_alpha 90.000000
_cell_angle_beta 90.000000
_cell_angle_gamma 90.000000
_cell_volume 2483.691978
_symmetry_space_group_name_H-M "I B A M"
_symmetry_group_IT_number 72
_symmetry_cell_setting 'orthorhombic'
loop_
_space_group_symop_operation_xyz
x,y,z
-x,-y,z
x,-y,1/2-z
-x,y,1/2-z
-x,-y,-z
x,y,-z
-x,y,1/2+z
x,-y,1/2+z
1/2+x,1/2+y,1/2+z
1/2-x,1/2-y,1/2+z
1/2+x,1/2-y,-z
1/2-x,1/2+y,-z
1/2-x,1/2-y,1/2-z
1/2+x,1/2+y,1/2-z
1/2-x,1/2+y,z
1/2+x,1/2-y,z
loop_
_atom_site_type_symbol
_atom_site_label
_atom_site_fract_x
_atom_site_fract_y
_atom_site_fract_z
Si Si1 0.118205 0.306260 0.065944
Si Si2 0.307390 0.508264 0.390893
Si Si3 0.824700 0.283653 0.805714
Si Si4 0.500000 0.000000 0.167920
O O1 0.230097 0.385915 0.070008
O O2 0.124461 0.115786 0.073337
O O3 0.059620 0.382756 0.121997
O O4 0.075370 0.343613 0.000000
O O5 0.240177 0.389720 0.351057
O O6 0.355968 0.626220 0.342154
O O7 0.750000 0.250000 0.750000
O O8 0.922817 0.389215 0.795829
#
# Coordination Sequence:
#
# PCOD9526393 Si02
#       4
#    16  16  16   8
#     4  10  19  37  61  91 129 168 209 268 323 382
#     4   9  20  36  60  89 119 163 215 252 315 400
#     4  10  20  40  63  86 123 168 213 272 329 383
#     4  10  23  38  61  94 126 168 228 268 320 404
#
# _framework density 22.547080999999999
#
# number of rings (size 3 to 8) (size 9 to 14) (size 15 to 20)
#    0.000    2.286    0.000    2.143    0.000    1.143 
#    0.000   31.429    0.000   17.143    0.000    0.000 
#    0.000    0.000    0.000    0.000    0.000    0.000 
#
# Total GULP energy -156233.015228 kJ/mol
# GULP energy per Si atom -5579.750544 kJ/mol
# Density = 2.249576 g / cm^3
# Si number density = 22.547081 Si / 1000 Ang^3
#
#
#
# Elastic Constant Matrix: (Units=GPa)
#
#
# Indices 1 2 3 4 5 6 
#
# 1 77.4692 41.3076 40.7897 0.0000 0.0000 0.0000
# 2 41.3076 161.1185 48.9659 0.0000 0.0000 0.0000
# 3 40.7897 48.9659 108.1661 0.0000 0.0000 0.0000
# 4 0.0000 0.0000 0.0000 21.3695 0.0000 0.0000
# 5 0.0000 0.0000 0.0000 0.0000 19.3045 0.0000
# 6 0.0000 0.0000 0.0000 0.0000 0.0000 40.3191
#
#
#
# Elastic Compliance Matrix: (Units=1/GPa)
#
#
# Indices 1 2 3 4 5 6 
#
# 1 0.017143 -0.002818 -0.005189 0.000000 0.000000 0.000000
# 2 -0.002818 0.007660 -0.002405 0.000000 0.000000 0.000000
# 3 -0.005189 -0.002405 0.012290 0.000000 0.000000 0.000000
# 4 0.000000 0.000000 0.000000 0.046796 0.000000 0.000000
# 5 0.000000 0.000000 0.000000 0.000000 0.051801 0.000000
# 6 0.000000 0.000000 0.000000 0.000000 0.000000 0.024802
#
#
# Mechanical properties :
#
#
# Convention : Reuss Voigt Hill
#
# Bulk Modulus (GPa) = 61.46427 67.65335 64.55881
# Shear Modulus (GPa) = 26.77517 30.57800 28.67659
#
# Velocity S-wave (km/s) = 3.44978 3.68664 3.57017
# Velocity P-wave (km/s) = 6.57173 6.94206 6.75943
#
# Compressibility (1/GPa) = 0.01626961
#
# Stress axis : x y z
#
# Youngs Moduli (GPa) = 58.33219 130.54815 81.36376
#
# Poissons Ratio (x) = 0.36791 0.42219
# Poissons Ratio (y) = 0.16439 0.19567
# Poissons Ratio (z) = 0.30268 0.31395
#
# Static dielectric constant tensor:
#      x y z
#    x 1.929350 0.000000 0.000000 
#    y 0.000000 1.864850 0.000000 
#    z 0.000000 0.000000 1.896040 
# 
# From -- ./inp_files/37632.got.cif
#   From: 2010.05.17/outbox.cif.g08.bks.cpg/sg72_19_cif.got.tgz:37632.got - 2010.06.03 17:03:01.
