data_PCOD9526703
_publ_section_title
;
Structure prediction by ZEFSAII (Michael W. Deem and Ramdas Pophale) SiO2 
 PCOD9526703
Probable space group: I B A M
;
_chemical_formula_sum "Si O2"
_cell_formula_units_Z 112
_cell_length_a 13.985762
_cell_length_b 24.459891
_cell_length_c 14.347287
_cell_angle_alpha 90.000000
_cell_angle_beta 90.000000
_cell_angle_gamma 90.000000
_cell_volume 4908.066481
_symmetry_space_group_name_H-M "I B A M"
_symmetry_group_IT_number 72
_symmetry_cell_setting 'orthorhombic'
loop_
_space_group_symop_operation_xyz
x,y,z
-x,-y,z
x,-y,1/2-z
-x,y,1/2-z
-x,-y,-z
x,y,-z
-x,y,1/2+z
x,-y,1/2+z
1/2+x,1/2+y,1/2+z
1/2-x,1/2-y,1/2+z
1/2+x,1/2-y,-z
1/2-x,1/2+y,-z
1/2-x,1/2-y,1/2-z
1/2+x,1/2+y,1/2-z
1/2-x,1/2+y,z
1/2+x,1/2-y,z
loop_
_atom_site_type_symbol
_atom_site_label
_atom_site_fract_x
_atom_site_fract_y
_atom_site_fract_z
Si Si1 0.942109 0.824106 0.886112
Si Si2 0.411409 0.030870 0.394228
Si Si3 0.258545 0.541463 0.163635
Si Si4 0.360310 0.152409 0.610714
Si Si5 0.758836 0.331472 0.212213
Si Si6 0.965594 0.055487 0.603886
Si Si7 0.942245 0.281889 0.889697
O O1 0.842086 0.813268 0.832752
O O2 0.980240 0.884044 0.857545
O O3 0.021399 0.778799 0.866326
O O4 0.924887 0.824438 0.000000
O O5 0.440481 0.043926 0.500000
O O6 0.377741 0.089473 0.359165
O O7 0.500000 0.000000 0.348791
O O8 0.326428 0.987799 0.390152
O O9 0.277232 0.500000 0.250000
O O10 0.235732 0.603409 0.192199
O O11 0.352460 0.547484 0.102432
O O12 0.337560 0.155981 0.500000
O O13 0.277176 0.175748 0.677146
O O14 0.461982 0.182000 0.626652
O O15 0.849806 0.302675 0.164370
O O16 0.008571 0.056551 0.500000
O O17 0.000000 0.000000 0.650740
O O18 0.921513 0.284776 0.000000
#
# Coordination Sequence:
#
# PCOD9526703 Si02
#       7
#    16  16  16  16  16  16  16
#     4   9  20  39  65  98 130 164 213 268 327 398
#     4  10  20  34  53  83 124 166 210 264 325 387
#     4  11  21  35  58  92 123 164 211 263 319 384
#     4  10  21  37  56  85 125 170 218 272 325 383
#     4  11  21  38  65  91 127 173 217 265 330 397
#     4   9  19  38  65  92 123 165 210 258 316 385
#     4  10  21  38  62  93 130 168 212 271 332 392
#
# _framework density 22.819576999999999
#
# number of rings (size 3 to 8) (size 9 to 14) (size 15 to 20)
#    0.000    2.000    1.429    2.143    0.000    4.000 
#    0.000    1.429   12.571    7.714    0.000    0.000 
#    0.000    5.143    0.000    0.000    0.000    0.000 
#
# Total GULP energy -312769.179978 kJ/mol
# GULP energy per Si atom -5585.163928 kJ/mol
# Density = 2.276764 g / cm^3
# Si number density = 22.819577 Si / 1000 Ang^3
#
#
#
# Elastic Constant Matrix: (Units=GPa)
#
#
# Indices 1 2 3 4 5 6 
#
# 1 53.4291 62.3065 35.6934 0.0000 0.0000 0.0000
# 2 62.3065 141.5213 27.4310 0.0001 -0.0001 0.0000
# 3 35.6934 27.4310 119.3346 0.0001 0.0000 0.0000
# 4 0.0000 0.0001 0.0001 -14.9663 0.0000 0.0000
# 5 0.0000 -0.0001 0.0000 0.0000 14.6846 0.0000
# 6 0.0000 0.0000 0.0000 0.0000 0.0000 31.1990
#
#
#
# Elastic Compliance Matrix: (Units=1/GPa)
#
#
# Indices 1 2 3 4 5 6 
#
# 1 0.047380 -0.018957 -0.009814 0.000000 0.000000 0.000000
# 2 -0.018957 0.014981 0.002227 0.000000 0.000000 0.000000
# 3 -0.009814 0.002227 0.010803 0.000000 0.000000 0.000000
# 4 0.000000 0.000000 0.000000 -0.066817 0.000000 0.000000
# 5 0.000000 0.000000 0.000000 0.000000 0.068099 0.000000
# 6 0.000000 0.000000 0.000000 0.000000 0.000000 0.032052
#
#
# Mechanical properties :
#
#
# Convention : Reuss Voigt Hill
#
# Bulk Modulus (GPa) = 49.81378 62.79411 56.30394
# Shear Modulus (GPa) = 30.07008 18.77372 24.42190
#
# Velocity S-wave (km/s) = 3.63400 2.87139 3.27497
# Velocity P-wave (km/s) = 6.28368 6.21052 6.24721
#
# Compressibility (1/GPa) = 0.02007477
#
# Stress axis : x y z
#
# Youngs Moduli (GPa) = 21.10612 66.75276 92.56422
#
# Poissons Ratio (x) = 1.26545 0.90841
# Poissons Ratio (y) = 0.40011 -0.20611
# Poissons Ratio (z) = 0.20713 -0.14863
#
# Static dielectric constant tensor:
#      x y z
#    x 1.803960 0.000000 0.000000 
#    y 0.000000 1.875100 0.000000 
#    z 0.000000 0.000000 1.896420 
# 
# From -- ./inp_files/22117.got.cif
#   From: 2010.05.17/outbox.cif.g08.bks.cpg/sg72_12_cif.got.tgz:22117.got - 2010.06.03 17:03:01.
