data_PCOD9526582
_publ_section_title
;
Structure prediction by ZEFSAII (Michael W. Deem and Ramdas Pophale) SiO2 
 PCOD9526582
Probable space group: I B A M
;
_chemical_formula_sum "Si O2"
_cell_formula_units_Z 96
_cell_length_a 8.566040
_cell_length_b 18.866710
_cell_length_c 27.045435
_cell_angle_alpha 90.000000
_cell_angle_beta 90.000000
_cell_angle_gamma 90.000000
_cell_volume 4370.893685
_symmetry_space_group_name_H-M "I B A M"
_symmetry_group_IT_number 72
_symmetry_cell_setting 'orthorhombic'
loop_
_space_group_symop_operation_xyz
x,y,z
-x,-y,z
x,-y,1/2-z
-x,y,1/2-z
-x,-y,-z
x,y,-z
-x,y,1/2+z
x,-y,1/2+z
1/2+x,1/2+y,1/2+z
1/2-x,1/2-y,1/2+z
1/2+x,1/2-y,-z
1/2-x,1/2+y,-z
1/2-x,1/2-y,1/2-z
1/2+x,1/2+y,1/2-z
1/2-x,1/2+y,z
1/2+x,1/2-y,z
loop_
_atom_site_type_symbol
_atom_site_label
_atom_site_fract_x
_atom_site_fract_y
_atom_site_fract_z
Si Si1 0.325823 0.824749 0.863127
Si Si2 0.116481 0.108496 0.134744
Si Si3 0.032642 0.626897 0.000000
Si Si4 0.208435 0.033797 0.388504
Si Si5 0.754231 0.213551 0.443910
Si Si6 0.264811 0.018764 0.500000
Si Si7 0.525560 0.724275 0.806453
O O1 0.336956 0.907271 0.876205
O O2 0.258339 0.783690 0.911294
O O3 0.482768 0.789044 0.842811
O O4 0.194818 0.806495 0.821125
O O5 0.147442 0.156249 0.086622
O O6 0.100495 0.162891 0.179604
O O7 0.949047 0.071131 0.129879
O O8 0.233359 0.042496 0.136306
O O9 0.086621 0.675896 0.954066
O O10 0.139295 0.555383 0.000000
O O11 0.865713 0.591488 0.000000
O O12 0.185008 0.020424 0.446849
O O13 0.813671 0.225019 0.500000
O O14 0.500000 0.743765 0.750000
#
# Coordination Sequence:
#
# PCOD9526582 Si02
#       7
#    16  16   8  16  16   8  16
#     4  10  22  35  57  88 113 143 191 239 288 343
#     4   9  19  36  55  79 109 143 190 233 286 331
#     4   9  20  32  46  73 108 160 197 210 266 333
#     4  10  20  33  51  83 113 144 189 234 272 341
#     4   9  18  34  51  73 114 152 180 222 276 331
#     4  11  20  29  51  76 113 159 191 218 272 337
#     4  10  21  41  63  82 107 149 190 242 296 345
#
# _framework density 21.963470999999998
#
# number of rings (size 3 to 8) (size 9 to 14) (size 15 to 20)
#    0.500    1.833    1.667    0.500    4.667    0.667 
#    0.000    7.500    0.000    0.000    0.000    4.667 
#    0.000    0.000    0.000    0.000    0.000    0.000 
#
# Total GULP energy -267799.668202 kJ/mol
# GULP energy per Si atom -5579.159754 kJ/mol
# Density = 2.191348 g / cm^3
# Si number density = 21.963471 Si / 1000 Ang^3
#
#
#
# Elastic Constant Matrix: (Units=GPa)
#
#
# Indices 1 2 3 4 5 6 
#
# 1 24.1857 -3.1756 1.9349 0.0000 0.0000 0.0000
# 2 -3.1756 110.4338 26.8267 0.0000 0.0000 0.0000
# 3 1.9349 26.8267 82.0120 0.0000 0.0000 0.0000
# 4 0.0000 0.0000 0.0000 13.6749 0.0000 0.0000
# 5 0.0000 0.0000 0.0000 0.0000 20.9347 0.0000
# 6 0.0000 0.0000 0.0000 0.0000 0.0000 26.5200
#
#
#
# Elastic Compliance Matrix: (Units=1/GPa)
#
#
# Indices 1 2 3 4 5 6 
#
# 1 0.041671 0.001561 -0.001494 0.000000 0.000000 0.000000
# 2 0.001561 0.009895 -0.003274 0.000000 0.000000 0.000000
# 3 -0.001494 -0.003274 0.013299 0.000000 0.000000 0.000000
# 4 0.000000 0.000000 0.000000 0.073127 0.000000 0.000000
# 5 0.000000 0.000000 0.000000 0.000000 0.047768 0.000000
# 6 0.000000 0.000000 0.000000 0.000000 0.000000 0.037707
#
#
# Mechanical properties :
#
#
# Convention : Reuss Voigt Hill
#
# Bulk Modulus (GPa) = 17.10764 29.75593 23.43179
# Shear Modulus (GPa) = 20.05095 24.96228 22.50661
#
# Velocity S-wave (km/s) = 3.02474 3.37491 3.20461
# Velocity P-wave (km/s) = 4.47267 5.36321 4.93806
#
# Compressibility (1/GPa) = 0.05845341
#
# Stress axis : x y z
#
# Youngs Moduli (GPa) = 23.99733 101.05773 75.19123
#
# Poissons Ratio (x) = -0.15777 0.11232
# Poissons Ratio (y) = -0.03746 0.24615
# Poissons Ratio (z) = 0.03585 0.33083
#
# Static dielectric constant tensor:
#      x y z
#    x 1.918640 0.000000 0.000000 
#    y 0.000000 1.860870 0.000000 
#    z 0.000000 0.000000 1.779260 
# 
# From -- ./inp_files/43496.got.cif
#   From: 2010.05.17/outbox.cif.g08.bks.cpg/sg72_22_cif.got.tgz:43496.got - 2010.06.03 17:03:01.
