data_PCOD9526926
_publ_section_title
;
Structure prediction by ZEFSAII (Michael W. Deem and Ramdas Pophale) SiO2 
 PCOD9526926
Probable space group: I B A M
;
_chemical_formula_sum "Si O2"
_cell_formula_units_Z 112
_cell_length_a 11.761475
_cell_length_b 20.522068
_cell_length_c 22.875651
_cell_angle_alpha 90.000000
_cell_angle_beta 90.000000
_cell_angle_gamma 90.000000
_cell_volume 5521.491072
_symmetry_space_group_name_H-M "I B A M"
_symmetry_group_IT_number 72
_symmetry_cell_setting 'orthorhombic'
loop_
_space_group_symop_operation_xyz
x,y,z
-x,-y,z
x,-y,1/2-z
-x,y,1/2-z
-x,-y,-z
x,y,-z
-x,y,1/2+z
x,-y,1/2+z
1/2+x,1/2+y,1/2+z
1/2-x,1/2-y,1/2+z
1/2+x,1/2-y,-z
1/2-x,1/2+y,-z
1/2-x,1/2-y,1/2-z
1/2+x,1/2+y,1/2-z
1/2-x,1/2+y,z
1/2+x,1/2-y,z
loop_
_atom_site_type_symbol
_atom_site_label
_atom_site_fract_x
_atom_site_fract_y
_atom_site_fract_z
Si Si1 0.382820 0.856841 0.433500
Si Si2 0.731810 0.929182 0.169522
Si Si3 0.443778 0.771357 0.330986
Si Si4 0.210950 0.074242 0.348312
Si Si5 0.911438 0.552503 0.934406
Si Si6 0.982090 0.124395 0.681235
Si Si7 0.849621 0.660559 0.766970
O O1 0.340726 0.848332 0.500000
O O2 0.316238 0.910389 0.394527
O O3 0.389324 0.793891 0.391770
O O4 0.511181 0.883462 0.437408
O O5 0.650118 0.899179 0.219515
O O6 0.852517 0.893260 0.170696
O O7 0.757614 0.004726 0.179993
O O8 0.494527 0.699876 0.332172
O O9 0.544443 0.820787 0.309059
O O10 0.351226 0.779665 0.279017
O O11 0.294115 0.070186 0.403696
O O12 0.076042 0.082443 0.353874
O O13 0.250327 0.135828 0.309167
O O14 0.000000 0.500000 0.905850
O O15 0.888622 0.527442 0.000000
O O16 0.000000 0.112129 0.750000
#
# Coordination Sequence:
#
# PCOD9526926 Si02
#       7
#    16  16  16  16  16  16  16
#     4  10  21  42  67  91 120 157 206 270 328 372
#     4  11  24  39  60  94 128 170 212 257 320 382
#     4  10  22  40  60  93 123 163 211 262 316 382
#     4  12  23  38  62  96 130 167 208 265 316 383
#     4  10  20  38  66  92 120 159 207 267 329 374
#     4  12  25  41  61  87 135 181 213 247 308 397
#     4  10  20  35  58  88 122 156 206 259 312 365
#
# _framework density 20.284375000000001
#
# number of rings (size 3 to 8) (size 9 to 14) (size 15 to 20)
#    0.000    1.286    5.714    0.857    0.000    4.000 
#    0.000    5.000    0.000    1.714    0.000    0.000 
#    0.000    0.000    0.000    0.000    0.000    0.000 
#
# Total GULP energy -311897.447179 kJ/mol
# GULP energy per Si atom -5569.597271 kJ/mol
# Density = 2.023821 g / cm^3
# Si number density = 20.284375 Si / 1000 Ang^3
#
#
#
# Elastic Constant Matrix: (Units=GPa)
#
#
# Indices 1 2 3 4 5 6 
#
# 1 97.8746 41.9391 37.3113 0.0000 0.0000 0.0000
# 2 41.9391 76.4058 15.9271 0.0000 0.0000 0.0000
# 3 37.3113 15.9271 108.5941 0.0000 0.0000 0.0000
# 4 0.0000 0.0000 0.0000 14.9068 0.0000 0.0000
# 5 0.0000 0.0000 0.0000 0.0000 18.7074 0.0000
# 6 0.0000 0.0000 0.0000 0.0000 0.0000 28.2163
#
#
#
# Elastic Compliance Matrix: (Units=1/GPa)
#
#
# Indices 1 2 3 4 5 6 
#
# 1 0.014903 -0.007337 -0.004044 0.000000 0.000000 0.000000
# 2 -0.007337 0.017113 0.000011 0.000000 0.000000 0.000000
# 3 -0.004044 0.000011 0.010597 0.000000 0.000000 0.000000
# 4 0.000000 0.000000 0.000000 0.067083 0.000000 0.000000
# 5 0.000000 0.000000 0.000000 0.000000 0.053455 0.000000
# 6 0.000000 0.000000 0.000000 0.000000 0.000000 0.035441
#
#
# Mechanical properties :
#
#
# Convention : Reuss Voigt Hill
#
# Bulk Modulus (GPa) = 50.32290 52.58106 51.45198
# Shear Modulus (GPa) = 21.93407 24.87923 23.40665
#
# Velocity S-wave (km/s) = 3.29192 3.50597 3.40063
# Velocity P-wave (km/s) = 6.26989 6.50902 6.39058
#
# Compressibility (1/GPa) = 0.01987167
#
# Stress axis : x y z
#
# Youngs Moduli (GPa) = 67.10127 58.43490 94.37046
#
# Poissons Ratio (x) = 0.42874 0.38166
# Poissons Ratio (y) = 0.49233 -0.00104
# Poissons Ratio (z) = 0.27138 -0.00064
#
# Static dielectric constant tensor:
#      x y z
#    x 1.758100 0.000000 0.000000 
#    y 0.000000 1.762030 0.000000 
#    z 0.000000 0.000000 1.763090 
# 
# From -- ./inp_files/43539.got.cif
#   From: 2010.05.17/outbox.cif.g08.bks.cpg/sg72_22_cif.got.tgz:43539.got - 2010.06.03 17:03:01.
