data_PCOD9526574
_publ_section_title
;
Structure prediction by ZEFSAII (Michael W. Deem and Ramdas Pophale) SiO2 
 PCOD9526574
Probable space group: I B A M
;
_chemical_formula_sum "Si O2"
_cell_formula_units_Z 64
_cell_length_a 8.013209
_cell_length_b 20.047176
_cell_length_c 15.983591
_cell_angle_alpha 90.000000
_cell_angle_beta 90.000000
_cell_angle_gamma 90.000000
_cell_volume 2567.639400
_symmetry_space_group_name_H-M "I B A M"
_symmetry_group_IT_number 72
_symmetry_cell_setting 'orthorhombic'
loop_
_space_group_symop_operation_xyz
x,y,z
-x,-y,z
x,-y,1/2-z
-x,y,1/2-z
-x,-y,-z
x,y,-z
-x,y,1/2+z
x,-y,1/2+z
1/2+x,1/2+y,1/2+z
1/2-x,1/2-y,1/2+z
1/2+x,1/2-y,-z
1/2-x,1/2+y,-z
1/2-x,1/2-y,1/2-z
1/2+x,1/2+y,1/2-z
1/2-x,1/2+y,z
1/2+x,1/2-y,z
loop_
_atom_site_type_symbol
_atom_site_label
_atom_site_fract_x
_atom_site_fract_y
_atom_site_fract_z
Si Si1 0.383898 0.652887 0.598288
Si Si2 0.058055 0.729013 0.344565
Si Si3 0.439764 0.905231 0.653405
Si Si4 0.735953 0.518171 0.904027
O O1 0.341597 0.650562 0.500000
O O2 0.236050 0.692758 0.646087
O O3 0.541054 0.700743 0.610187
O O4 0.391725 0.575505 0.625797
O O5 0.000000 0.740890 0.250000
O O6 0.933193 0.670707 0.376690
O O7 0.500000 0.905346 0.750000
O O8 0.589169 0.940572 0.602457
O O9 0.277736 0.950974 0.645261
O O10 0.701068 0.500124 0.000000
#
# Coordination Sequence:
#
# PCOD9526574 Si02
#       4
#    16  16  16  16
#     4  10  20  33  51  76 106 139 176 217 264 317
#     4  10  20  34  52  76 105 138 174 219 267 316
#     4   9  16  27  46  71  97 127 167 215 260 301
#     4   9  16  26  43  69  98 126 161 209 254 296
#
# _framework density 24.925619000000001
#
# number of rings (size 3 to 8) (size 9 to 14) (size 15 to 20)
#    0.000    2.500    0.000    4.500    0.000    4.000 
#    0.000    0.000    0.000    1.500    0.000    7.000 
#    0.000    0.000    0.000    0.000    0.000    0.000 
#
# Total GULP energy -178650.762125 kJ/mol
# GULP energy per Si atom -5582.836316 kJ/mol
# Density = 2.486889 g / cm^3
# Si number density = 24.925619 Si / 1000 Ang^3
#
#
#
# Elastic Constant Matrix: (Units=GPa)
#
#
# Indices 1 2 3 4 5 6 
#
# 1 86.5996 19.5716 4.1179 0.0000 0.0000 0.0000
# 2 19.5716 152.7745 -15.0390 0.0000 0.0000 0.0000
# 3 4.1179 -15.0390 45.9447 0.0000 0.0000 0.0000
# 4 0.0000 0.0000 0.0000 -1.7087 0.0000 0.0000
# 5 0.0000 0.0000 0.0000 0.0000 -1.1644 0.0000
# 6 0.0000 0.0000 0.0000 0.0000 0.0000 24.3193
#
#
#
# Elastic Compliance Matrix: (Units=1/GPa)
#
#
# Indices 1 2 3 4 5 6 
#
# 1 0.012009 -0.001699 -0.001633 0.000000 0.000000 0.000000
# 2 -0.001699 0.007004 0.002445 0.000000 0.000000 0.000000
# 3 -0.001633 0.002445 0.022712 0.000000 0.000000 0.000000
# 4 0.000000 0.000000 0.000000 -0.585241 0.000000 0.000000
# 5 0.000000 0.000000 0.000000 0.000000 -0.858824 0.000000
# 6 0.000000 0.000000 0.000000 0.000000 0.000000 0.041120
#
#
# Mechanical properties :
#
#
# Convention : Reuss Voigt Hill
#
# Bulk Modulus (GPa) = 25.03049 33.62443 29.32746
# Shear Modulus (GPa) = -3.71435 22.73379 9.50972
#
# Velocity S-wave (km/s) = -1.22205 3.02332 1.95538
# Velocity P-wave (km/s) = 2.84124 5.07015 4.10969
#
# Compressibility (1/GPa) = 0.03995128
#
# Stress axis : x y z
#
# Youngs Moduli (GPa) = 83.27064 142.77671 44.02978
#
# Poissons Ratio (x) = 0.24260 0.07188
# Poissons Ratio (y) = 0.14149 -0.10765
# Poissons Ratio (z) = 0.13594 -0.34907
#
# Static dielectric constant tensor:
#      x y z
#    x 2.102610 0.000000 0.000000 
#    y 0.000000 2.043440 0.000000 
#    z 0.000000 0.000000 1.927570 
# 
# From -- ./inp_files/19856.got.cif
#   From: 2010.05.17/outbox.cif.g08.bks.cpg/sg72_10_cif.got.tgz:19856.got - 2010.06.03 17:03:01.
