data_PCOD9526218
_publ_section_title
;
Structure prediction by ZEFSAII (Michael W. Deem and Ramdas Pophale) SiO2 
 PCOD9526218
Probable space group: I B A M
;
_chemical_formula_sum "Si O2"
_cell_formula_units_Z 96
_cell_length_a 29.063350
_cell_length_b 18.301491
_cell_length_c 9.331610
_cell_angle_alpha 90.000000
_cell_angle_beta 90.000000
_cell_angle_gamma 90.000000
_cell_volume 4963.507980
_symmetry_space_group_name_H-M "I B A M"
_symmetry_group_IT_number 72
_symmetry_cell_setting 'orthorhombic'
loop_
_space_group_symop_operation_xyz
x,y,z
-x,-y,z
x,-y,1/2-z
-x,y,1/2-z
-x,-y,-z
x,y,-z
-x,y,1/2+z
x,-y,1/2+z
1/2+x,1/2+y,1/2+z
1/2-x,1/2-y,1/2+z
1/2+x,1/2-y,-z
1/2-x,1/2+y,-z
1/2-x,1/2-y,1/2-z
1/2+x,1/2+y,1/2-z
1/2-x,1/2+y,z
1/2+x,1/2-y,z
loop_
_atom_site_type_symbol
_atom_site_label
_atom_site_fract_x
_atom_site_fract_y
_atom_site_fract_z
Si Si1 0.546561 0.713872 0.833643
Si Si2 0.308033 0.176084 0.162231
Si Si3 0.136644 0.567365 0.332142
Si Si4 0.220192 0.073672 0.833271
Si Si5 0.850870 0.834738 0.332202
Si Si6 0.454044 0.890570 0.666891
O O1 0.500000 0.692399 0.750000
O O2 0.596649 0.684104 0.786125
O O3 0.549702 0.802246 0.827988
O O4 0.540853 0.693614 0.000000
O O5 0.335776 0.139208 0.290327
O O6 0.257852 0.139504 0.173720
O O7 0.318748 0.261799 0.173438
O O8 0.325357 0.155347 0.000000
O O9 0.159851 0.500000 0.250000
O O10 0.133466 0.554949 0.500000
O O11 0.088006 0.577944 0.255543
O O12 0.173799 0.104614 0.762501
O O13 0.234195 0.000000 0.750000
O O14 0.214318 0.055909 0.000000
O O15 0.852394 0.856042 0.500000
O O16 0.500000 0.911383 0.750000
O O17 0.453867 0.912657 0.500000
#
# Coordination Sequence:
#
# PCOD9526218 Si02
#       6
#    16  16  16  16  16  16
#     4   9  18  33  57  86 119 154 187 235 291 345
#     4  10  21  40  61  85 118 154 195 244 294 344
#     4  12  24  36  53  77 108 151 198 244 295 349
#     4  11  24  40  61  88 120 159 199 244 297 355
#     4  10  20  38  63  90 122 157 193 242 296 345
#     4  10  19  35  54  76 108 145 190 240 295 350
#
# _framework density 19.341159000000001
#
# number of rings (size 3 to 8) (size 9 to 14) (size 15 to 20)
#    0.000    1.667    1.667    3.500    0.000    5.000 
#    0.000    1.667    0.000    0.500    0.000    3.500 
#    0.000    0.000    0.000    0.000    0.000    0.000 
#
# Total GULP energy -267861.518776 kJ/mol
# GULP energy per Si atom -5580.448308 kJ/mol
# Density = 1.929714 g / cm^3
# Si number density = 19.341159 Si / 1000 Ang^3
#
#
#
# Elastic Constant Matrix: (Units=GPa)
#
#
# Indices 1 2 3 4 5 6 
#
# 1 116.1898 38.4797 65.0787 0.0000 0.0000 0.0000
# 2 38.4797 33.2911 36.7324 0.0000 0.0000 0.0000
# 3 65.0787 36.7324 146.2402 0.0000 0.0000 0.0000
# 4 0.0000 0.0000 0.0000 27.7931 0.0000 0.0000
# 5 0.0000 0.0000 0.0000 0.0000 28.6017 0.0000
# 6 0.0000 0.0000 0.0000 0.0000 0.0000 29.0046
#
#
#
# Elastic Compliance Matrix: (Units=1/GPa)
#
#
# Indices 1 2 3 4 5 6 
#
# 1 0.014954 -0.013754 -0.003200 0.000000 0.000000 0.000000
# 2 -0.013754 0.054205 -0.007494 0.000000 0.000000 0.000000
# 3 -0.003200 -0.007494 0.010145 0.000000 0.000000 0.000000
# 4 0.000000 0.000000 0.000000 0.035980 0.000000 0.000000
# 5 0.000000 0.000000 0.000000 0.000000 0.034963 0.000000
# 6 0.000000 0.000000 0.000000 0.000000 0.000000 0.034477
#
#
# Mechanical properties :
#
#
# Convention : Reuss Voigt Hill
#
# Bulk Modulus (GPa) = 32.88756 64.03362 48.46059
# Shear Modulus (GPa) = 20.51235 27.44192 23.97713
#
# Velocity S-wave (km/s) = 3.26015 3.77083 3.52475
# Velocity P-wave (km/s) = 5.58679 7.22068 6.45563
#
# Compressibility (1/GPa) = 0.03040664
#
# Stress axis : x y z
#
# Youngs Moduli (GPa) = 66.87193 18.44859 98.57514
#
# Poissons Ratio (x) = 0.25374 0.31544
# Poissons Ratio (y) = 0.91975 0.73876
# Poissons Ratio (z) = 0.21399 0.13826
#
# Static dielectric constant tensor:
#      x y z
#    x 1.733150 0.000000 0.000000 
#    y 0.000000 1.725100 0.000000 
#    z 0.000000 0.000000 1.649560 
# 
# From -- ./inp_files/6031.got.cif
#   From: 2010.05.17/outbox.cif.g08.bks.cpg/sg72_4_cif.got.tgz:6031.got - 2010.06.03 17:03:01.
