data_PCOD9526168
_publ_section_title
;
Structure prediction by ZEFSAII (Michael W. Deem and Ramdas Pophale) SiO2 
 PCOD9526168
Probable space group: I B A M
;
_chemical_formula_sum "Si O2"
_cell_formula_units_Z 96
_cell_length_a 19.145647
_cell_length_b 15.477762
_cell_length_c 15.232871
_cell_angle_alpha 90.000000
_cell_angle_beta 90.000000
_cell_angle_gamma 90.000000
_cell_volume 4513.983589
_symmetry_space_group_name_H-M "I B A M"
_symmetry_group_IT_number 72
_symmetry_cell_setting 'orthorhombic'
loop_
_space_group_symop_operation_xyz
x,y,z
-x,-y,z
x,-y,1/2-z
-x,y,1/2-z
-x,-y,-z
x,y,-z
-x,y,1/2+z
x,-y,1/2+z
1/2+x,1/2+y,1/2+z
1/2-x,1/2-y,1/2+z
1/2+x,1/2-y,-z
1/2-x,1/2+y,-z
1/2-x,1/2-y,1/2-z
1/2+x,1/2+y,1/2-z
1/2-x,1/2+y,z
1/2+x,1/2-y,z
loop_
_atom_site_type_symbol
_atom_site_label
_atom_site_fract_x
_atom_site_fract_y
_atom_site_fract_z
Si Si1 0.820211 0.879783 0.395592
Si Si2 0.091051 0.720984 0.099234
Si Si3 0.838468 0.636758 0.106860
Si Si4 0.549836 0.725878 0.337101
Si Si5 0.075095 0.532621 0.893595
Si Si6 0.925029 0.027260 0.351301
O O1 0.815558 0.870443 0.500000
O O2 0.868459 0.801972 0.359359
O O3 0.741719 0.867255 0.362649
O O4 0.859777 0.970784 0.383394
O O5 0.095591 0.626637 0.142047
O O6 0.009575 0.744619 0.094802
O O7 0.118752 0.712054 0.000000
O O8 0.887034 0.706894 0.154822
O O9 0.870278 0.542306 0.123167
O O10 0.841732 0.652321 0.000000
O O11 0.500000 0.725348 0.250000
O O12 0.578304 0.630275 0.356206
O O13 0.000000 0.500000 0.861204
O O14 0.068725 0.541933 0.000000
O O15 0.928916 0.000000 0.250000
O O16 0.000000 0.000000 0.392207
#
# Coordination Sequence:
#
# PCOD9526168 Si02
#       6
#    16  16  16  16  16  16
#     4  10  22  38  60  94 126 155 206 267 318 378
#     4  10  19  34  58  84 113 153 203 253 307 370
#     4  10  22  40  60  89 127 159 198 260 326 377
#     4  12  22  37  62  89 118 163 213 255 304 377
#     4   9  16  31  56  79 106 152 192 230 296 368
#     4  11  21  41  63  85 124 170 211 258 316 372
#
# _framework density 21.267246
#
# number of rings (size 3 to 8) (size 9 to 14) (size 15 to 20)
#    0.000    1.667    5.000    0.500    0.000    3.000 
#    0.000   10.000    0.000    0.000    0.000    0.000 
#    0.000    0.000    0.000    0.000    0.000    0.000 
#
# Total GULP energy -267774.430117 kJ/mol
# GULP energy per Si atom -5578.633961 kJ/mol
# Density = 2.121884 g / cm^3
# Si number density = 21.267246 Si / 1000 Ang^3
#
#
#
# Elastic Constant Matrix: (Units=GPa)
#
#
# Indices 1 2 3 4 5 6 
#
# 1 183.9636 96.9113 18.3245 0.0000 0.0000 0.0000
# 2 96.9113 221.5383 21.8779 0.0000 0.0000 0.0000
# 3 18.3245 21.8779 35.5500 0.0000 0.0000 0.0000
# 4 0.0000 0.0000 0.0000 15.9153 0.0000 0.0000
# 5 0.0000 0.0000 0.0000 0.0000 6.6744 0.0000
# 6 0.0000 0.0000 0.0000 0.0000 0.0000 32.4348
#
#
#
# Elastic Compliance Matrix: (Units=1/GPa)
#
#
# Indices 1 2 3 4 5 6 
#
# 1 0.007180 -0.002955 -0.001882 0.000000 0.000000 0.000000
# 2 -0.002955 0.006022 -0.002183 0.000000 0.000000 0.000000
# 3 -0.001882 -0.002183 0.030443 0.000000 0.000000 0.000000
# 4 0.000000 0.000000 0.000000 0.062832 0.000000 0.000000
# 5 0.000000 0.000000 0.000000 0.000000 0.149827 0.000000
# 6 0.000000 0.000000 0.000000 0.000000 0.000000 0.030831
#
#
# Mechanical properties :
#
#
# Convention : Reuss Voigt Hill
#
# Bulk Modulus (GPa) = 33.77858 79.47547 56.62702
# Shear Modulus (GPa) = 16.07486 31.26745 23.67116
#
# Velocity S-wave (km/s) = 2.75226 3.83850 3.33983
# Velocity P-wave (km/s) = 5.10071 7.55622 6.44646
#
# Compressibility (1/GPa) = 0.02960456
#
# Stress axis : x y z
#
# Youngs Moduli (GPa) = 139.27487 166.05454 32.84813
#
# Poissons Ratio (x) = 0.49069 0.06184
# Poissons Ratio (y) = 0.41156 0.07170
# Poissons Ratio (z) = 0.26218 0.36248
#
# Static dielectric constant tensor:
#      x y z
#    x 1.775000 0.000000 0.000000 
#    y 0.000000 1.773120 0.000000 
#    z 0.000000 0.000000 2.076300 
# 
# From -- ./inp_files/38021.got.cif
#   From: 2010.05.17/outbox.cif.g08.bks.cpg/sg72_20_cif.got.tgz:38021.got - 2010.06.03 17:03:01.
