data_PCOD9526206
_publ_section_title
;
Structure prediction by ZEFSAII (Michael W. Deem and Ramdas Pophale) SiO2 
 PCOD9526206
Probable space group: I B A M
;
_chemical_formula_sum "Si O2"
_cell_formula_units_Z 68
_cell_length_a 8.041913
_cell_length_b 18.400105
_cell_length_c 20.009266
_cell_angle_alpha 90.000000
_cell_angle_beta 90.000000
_cell_angle_gamma 90.000000
_cell_volume 2960.811981
_symmetry_space_group_name_H-M "I B A M"
_symmetry_group_IT_number 72
_symmetry_cell_setting 'orthorhombic'
loop_
_space_group_symop_operation_xyz
x,y,z
-x,-y,z
x,-y,1/2-z
-x,y,1/2-z
-x,-y,-z
x,y,-z
-x,y,1/2+z
x,-y,1/2+z
1/2+x,1/2+y,1/2+z
1/2-x,1/2-y,1/2+z
1/2+x,1/2-y,-z
1/2-x,1/2+y,-z
1/2-x,1/2-y,1/2-z
1/2+x,1/2+y,1/2-z
1/2-x,1/2+y,z
1/2+x,1/2-y,z
loop_
_atom_site_type_symbol
_atom_site_label
_atom_site_fract_x
_atom_site_fract_y
_atom_site_fract_z
Si Si1 0.264795 0.779697 0.421995
Si Si2 0.079834 0.866558 0.077445
Si Si3 0.463499 0.903284 0.371104
Si Si4 0.772098 0.975549 0.322761
Si Si5 0.500000 0.000000 0.500000
O O1 0.313112 0.789427 0.500000
O O2 0.275843 0.693638 0.411007
O O3 0.398323 0.822220 0.377528
O O4 0.088924 0.819966 0.414395
O O5 0.103205 0.931029 0.130038
O O6 0.084602 0.892566 0.000000
O O7 0.608081 0.923341 0.319211
O O8 0.523442 0.937374 0.441456
O O9 0.300285 0.952044 0.356507
O O10 0.826413 0.000000 0.250000
#
# Coordination Sequence:
#
# PCOD9526206 Si02
#       5
#    16  16  16  16   4
#     4  10  20  37  60  99 133 166 212 271 325 395
#     4  10  22  37  62  93 132 171 215 269 330 385
#     4  10  19  34  62  88 125 164 211 261 331 383
#     4  10  22  39  59  87 126 170 218 264 321 387
#     4   8  16  28  54  90 116 156 194 250 312 380
#
# _framework density 22.966673
#
# number of rings (size 3 to 8) (size 9 to 14) (size 15 to 20)
#    0.000    2.353    1.176    2.824    6.588    2.824 
#    0.000    7.059    0.000    0.000    0.000    0.000 
#    0.000    0.000    0.000    0.000    0.000    0.000 
#
# Total GULP energy -189409.302256 kJ/mol
# GULP energy per Si atom -5570.861831 kJ/mol
# Density = 2.291440 g / cm^3
# Si number density = 22.966673 Si / 1000 Ang^3
#
#
#
# Elastic Constant Matrix: (Units=GPa)
#
#
# Indices 1 2 3 4 5 6 
#
# 1 98.7024 29.3196 47.1463 0.0000 0.0000 0.0000
# 2 29.3196 123.9726 66.7454 0.0000 0.0000 0.0000
# 3 47.1463 66.7454 135.2600 0.0000 0.0000 0.0000
# 4 0.0000 0.0000 0.0000 16.1726 0.0000 0.0000
# 5 0.0000 0.0000 0.0000 0.0000 11.6005 0.0000
# 6 0.0000 0.0000 0.0000 0.0000 0.0000 40.7170
#
#
#
# Elastic Compliance Matrix: (Units=1/GPa)
#
#
# Indices 1 2 3 4 5 6 
#
# 1 0.012215 -0.000812 -0.003857 0.000000 0.000000 0.000000
# 2 -0.000812 0.011039 -0.005164 0.000000 0.000000 0.000000
# 3 -0.003857 -0.005164 0.011286 0.000000 0.000000 0.000000
# 4 0.000000 0.000000 0.000000 0.061833 0.000000 0.000000
# 5 0.000000 0.000000 0.000000 0.000000 0.086203 0.000000
# 6 0.000000 0.000000 0.000000 0.000000 0.000000 0.024560
#
#
# Mechanical properties :
#
#
# Convention : Reuss Voigt Hill
#
# Bulk Modulus (GPa) = 67.23564 71.59529 69.41546
# Shear Modulus (GPa) = 21.57414 28.01295 24.79355
#
# Velocity S-wave (km/s) = 3.06823 3.49624 3.28921
# Velocity P-wave (km/s) = 6.47232 6.89489 6.68694
#
# Compressibility (1/GPa) = 0.01487307
#
# Stress axis : x y z
#
# Youngs Moduli (GPa) = 81.86639 90.59080 88.60783
#
# Poissons Ratio (x) = 0.07360 0.34174
# Poissons Ratio (y) = 0.06651 0.45757
# Poissons Ratio (z) = 0.31574 0.46781
#
# Static dielectric constant tensor:
#      x y z
#    x 2.008990 0.000000 0.000000 
#    y 0.000000 1.854630 0.000000 
#    z 0.000000 0.000000 1.843080 
# 
# From -- ./inp_files/27808.got.cif
#   From: 2010.05.17/outbox.cif.g08.bks.cpg/sg72_14_cif.got.tgz:27808.got - 2010.06.03 17:03:01.
