data_PCOD9526776
_publ_section_title
;
Structure prediction by ZEFSAII (Michael W. Deem and Ramdas Pophale) SiO2 
 PCOD9526776
Probable space group: I B A M
;
_chemical_formula_sum "Si O2"
_cell_formula_units_Z 116
_cell_length_a 25.577966
_cell_length_b 28.009427
_cell_length_c 8.127905
_cell_angle_alpha 90.000000
_cell_angle_beta 90.000000
_cell_angle_gamma 90.000000
_cell_volume 5823.027606
_symmetry_space_group_name_H-M "I B A M"
_symmetry_group_IT_number 72
_symmetry_cell_setting 'orthorhombic'
loop_
_space_group_symop_operation_xyz
x,y,z
-x,-y,z
x,-y,1/2-z
-x,y,1/2-z
-x,-y,-z
x,y,-z
-x,y,1/2+z
x,-y,1/2+z
1/2+x,1/2+y,1/2+z
1/2-x,1/2-y,1/2+z
1/2+x,1/2-y,-z
1/2-x,1/2+y,-z
1/2-x,1/2-y,1/2-z
1/2+x,1/2+y,1/2-z
1/2-x,1/2+y,z
1/2+x,1/2-y,z
loop_
_atom_site_type_symbol
_atom_site_label
_atom_site_fract_x
_atom_site_fract_y
_atom_site_fract_z
Si Si1 0.439997 0.679799 0.802885
Si Si2 0.351622 0.850460 0.305941
Si Si3 0.254270 0.304577 0.811518
Si Si4 0.000000 0.000000 0.250000
Si Si5 0.201638 0.903208 0.302658
Si Si6 0.439721 0.217462 0.302568
Si Si7 0.810116 0.447338 0.196777
Si Si8 0.088438 0.926760 0.297353
O O1 0.500000 0.681353 0.750000
O O2 0.417465 0.730615 0.745641
O O3 0.419920 0.628541 0.750144
O O4 0.435884 0.679723 0.000000
O O5 0.338973 0.847255 0.500000
O O6 0.304116 0.825158 0.212365
O O7 0.405086 0.824076 0.270978
O O8 0.350571 0.905895 0.257045
O O9 0.250000 0.250000 0.750000
O O10 0.291612 0.346325 0.735550
O O11 0.269481 0.302109 0.000000
O O12 0.045415 0.959929 0.208496
O O13 0.200720 0.905227 0.500000
O O14 0.253497 0.929656 0.238822
O O15 0.149336 0.931643 0.251367
O O16 0.500000 0.214100 0.250000
O O17 0.436982 0.215778 0.500000
O O18 0.823484 0.500000 0.250000
O O19 0.806175 0.447679 0.000000
O O20 0.081116 0.932867 0.500000
#
# Coordination Sequence:
#
# PCOD9526776 Si02
#       8
#    16  16  16   4  16  16  16  16
#     4   9  18  34  52  75 104 142 185 231 284 339
#     4  10  21  38  58  85 119 153 190 237 290 344
#     4  11  22  37  57  86 118 151 190 235 294 363
#     4  12  22  36  60  82 108 152 210 260 314 368
#     4   9  20  38  56  78 112 152 191 241 298 349
#     4  10  20  34  57  87 118 156 196 236 285 346
#     4   9  19  35  57  82 111 146 186 232 287 344
#     4  10  21  37  55  76 108 147 191 248 307 353
#
# _framework density 19.920909000000002
#
# number of rings (size 3 to 8) (size 9 to 14) (size 15 to 20)
#    0.000    2.207    0.690    3.103    2.897    3.310 
#    0.000    2.069    0.000    0.414    0.000    2.897 
#    0.000    0.000    0.000    0.000    0.000    0.000 
#
# Total GULP energy -322911.137985 kJ/mol
# GULP energy per Si atom -5567.433414 kJ/mol
# Density = 1.987557 g / cm^3
# Si number density = 19.920909 Si / 1000 Ang^3
#
#
#
# Elastic Constant Matrix: (Units=GPa)
#
#
# Indices 1 2 3 4 5 6 
#
# 1 65.4660 48.3328 -3.0271 0.0000 0.0000 0.0000
# 2 48.3328 164.6599 9.1282 0.0000 0.0000 0.0000
# 3 -3.0271 9.1282 18.6555 0.0000 0.0000 0.0000
# 4 0.0000 0.0000 0.0000 5.9702 0.0000 0.0000
# 5 0.0000 0.0000 0.0000 0.0000 13.0672 0.0000
# 6 0.0000 0.0000 0.0000 0.0000 0.0000 13.8888
#
#
#
# Elastic Compliance Matrix: (Units=1/GPa)
#
#
# Indices 1 2 3 4 5 6 
#
# 1 0.020208 -0.006284 0.006354 0.000000 0.000000 0.000000
# 2 -0.006284 0.008197 -0.005030 0.000000 0.000000 0.000000
# 3 0.006354 -0.005030 0.057096 0.000000 0.000000 0.000000
# 4 0.000000 0.000000 0.000000 0.167497 0.000000 0.000000
# 5 0.000000 0.000000 0.000000 0.000000 0.076527 0.000000
# 6 0.000000 0.000000 0.000000 0.000000 0.000000 0.072000
#
#
# Mechanical properties :
#
#
# Convention : Reuss Voigt Hill
#
# Bulk Modulus (GPa) = 13.23105 39.73881 26.48493
# Shear Modulus (GPa) = 11.45108 19.54175 15.49642
#
# Velocity S-wave (km/s) = 2.40016 3.13544 2.79211
# Velocity P-wave (km/s) = 3.78645 5.75322 4.87015
#
# Compressibility (1/GPa) = 0.07557979
#
# Stress axis : x y z
#
# Youngs Moduli (GPa) = 49.48457 122.00276 17.51442
#
# Poissons Ratio (x) = 0.76667 -0.11128
# Poissons Ratio (y) = 0.31096 0.08810
# Poissons Ratio (z) = -0.31442 0.61370
#
# Static dielectric constant tensor:
#      x y z
#    x 1.703790 0.000000 0.000000 
#    y 0.000000 1.739820 0.000000 
#    z 0.000000 0.000000 1.749570 
# 
# From -- ./inp_files/7303.got.cif
#   From: 2010.05.17/outbox.cif.g08.bks.cpg/sg72_4_cif.got.tgz:7303.got - 2010.06.03 17:03:01.
