data_PCOD9526744
_publ_section_title
;
Structure prediction by ZEFSAII (Michael W. Deem and Ramdas Pophale) SiO2 
 PCOD9526744
Probable space group: I B A M
;
_chemical_formula_sum "Si O2"
_cell_formula_units_Z 96
_cell_length_a 17.340075
_cell_length_b 13.771728
_cell_length_c 22.994291
_cell_angle_alpha 90.000000
_cell_angle_beta 90.000000
_cell_angle_gamma 90.000000
_cell_volume 5491.100992
_symmetry_space_group_name_H-M "I B A M"
_symmetry_group_IT_number 72
_symmetry_cell_setting 'orthorhombic'
loop_
_space_group_symop_operation_xyz
x,y,z
-x,-y,z
x,-y,1/2-z
-x,y,1/2-z
-x,-y,-z
x,y,-z
-x,y,1/2+z
x,-y,1/2+z
1/2+x,1/2+y,1/2+z
1/2-x,1/2-y,1/2+z
1/2+x,1/2-y,-z
1/2-x,1/2+y,-z
1/2-x,1/2-y,1/2-z
1/2+x,1/2+y,1/2-z
1/2-x,1/2+y,z
1/2+x,1/2-y,z
loop_
_atom_site_type_symbol
_atom_site_label
_atom_site_fract_x
_atom_site_fract_y
_atom_site_fract_z
Si Si1 0.132224 0.789804 0.434156
Si Si2 0.151358 0.198423 0.647682
Si Si3 0.721007 0.900962 0.570628
Si Si4 0.481554 0.614974 0.843863
Si Si5 0.272264 0.889212 0.619072
Si Si6 0.837247 0.888013 0.767949
O O1 0.106561 0.782477 0.500000
O O2 0.157785 0.681904 0.413994
O O3 0.068826 0.846352 0.397628
O O4 0.211798 0.849879 0.428675
O O5 0.199356 0.134852 0.600832
O O6 0.162103 0.309435 0.628771
O O7 0.185404 0.174886 0.711858
O O8 0.063264 0.167272 0.653419
O O9 0.727042 0.905568 0.500000
O O10 0.702345 0.004610 0.599208
O O11 0.500000 0.500000 0.845026
O O12 0.423178 0.637084 0.790709
O O13 0.221903 0.885259 0.678409
O O14 0.840830 0.000000 0.750000
#
# Coordination Sequence:
#
# PCOD9526744 Si02
#       6
#    16  16  16  16  16  16
#     4   9  20  36  53  78 111 144 184 228 276 326
#     4  11  21  34  55  85 110 138 182 225 272 329
#     4  10  20  37  57  78 109 146 184 230 274 319
#     4  11  21  33  54  82 111 145 175 223 280 332
#     4  10  20  34  56  81 105 144 184 228 267 320
#     4  11  19  35  57  79 113 143 176 219 276 327
#
# _framework density 17.482831999999998
#
# number of rings (size 3 to 8) (size 9 to 14) (size 15 to 20)
#    0.000    1.667    3.333    2.500    0.000    1.667 
#    0.000    0.833    0.000    2.000    0.000    0.000 
#    0.000    0.000    0.000    0.000    0.000    0.000 
#
# Total GULP energy -267577.533325 kJ/mol
# GULP energy per Si atom -5574.531944 kJ/mol
# Density = 1.744304 g / cm^3
# Si number density = 17.482832 Si / 1000 Ang^3
#
#
#
# Elastic Constant Matrix: (Units=GPa)
#
#
# Indices 1 2 3 4 5 6 
#
# 1 53.9367 12.3541 20.0087 0.0000 0.0000 0.0000
# 2 12.3541 79.0953 18.9935 0.0000 0.0000 0.0000
# 3 20.0087 18.9935 74.7261 0.0000 0.0000 0.0000
# 4 0.0000 0.0000 0.0000 25.3480 0.0000 0.0000
# 5 0.0000 0.0000 0.0000 0.0000 11.6298 0.0000
# 6 0.0000 0.0000 0.0000 0.0000 0.0000 26.1361
#
#
#
# Elastic Compliance Matrix: (Units=1/GPa)
#
#
# Indices 1 2 3 4 5 6 
#
# 1 0.020891 -0.002045 -0.005074 0.000000 0.000000 0.000000
# 2 -0.002045 0.013665 -0.002926 0.000000 0.000000 0.000000
# 3 -0.005074 -0.002926 0.015485 0.000000 0.000000 0.000000
# 4 0.000000 0.000000 0.000000 0.039451 0.000000 0.000000
# 5 0.000000 0.000000 0.000000 0.000000 0.085986 0.000000
# 6 0.000000 0.000000 0.000000 0.000000 0.000000 0.038261
#
#
# Mechanical properties :
#
#
# Convention : Reuss Voigt Hill
#
# Bulk Modulus (GPa) = 33.38742 34.49674 33.94208
# Shear Modulus (GPa) = 20.50766 23.04956 21.77861
#
# Velocity S-wave (km/s) = 3.42865 3.63493 3.53330
# Velocity P-wave (km/s) = 5.90025 6.11487 6.00851
#
# Compressibility (1/GPa) = 0.02995140
#
# Stress axis : x y z
#
# Youngs Moduli (GPa) = 47.86783 73.18012 64.58068
#
# Poissons Ratio (x) = 0.14962 0.32769
# Poissons Ratio (y) = 0.09787 0.18895
# Poissons Ratio (z) = 0.24288 0.21411
#
# Static dielectric constant tensor:
#      x y z
#    x 1.580400 0.000000 0.000000 
#    y 0.000000 1.597080 0.000000 
#    z 0.000000 0.000000 1.666960 
# 
# From -- ./inp_files/38057.got.cif
#   From: 2010.05.17/outbox.cif.g08.bks.cpg/sg72_20_cif.got.tgz:38057.got - 2010.06.03 17:03:01.
