data_PCOD9526920
_publ_section_title
;
Structure prediction by ZEFSAII (Michael W. Deem and Ramdas Pophale) SiO2 
 PCOD9526920
Probable space group: I B A M
;
_chemical_formula_sum "Si O2"
_cell_formula_units_Z 112
_cell_length_a 31.860025
_cell_length_b 12.097448
_cell_length_c 15.611027
_cell_angle_alpha 90.000000
_cell_angle_beta 90.000000
_cell_angle_gamma 90.000000
_cell_volume 6016.880015
_symmetry_space_group_name_H-M "I B A M"
_symmetry_group_IT_number 72
_symmetry_cell_setting 'orthorhombic'
loop_
_space_group_symop_operation_xyz
x,y,z
-x,-y,z
x,-y,1/2-z
-x,y,1/2-z
-x,-y,-z
x,y,-z
-x,y,1/2+z
x,-y,1/2+z
1/2+x,1/2+y,1/2+z
1/2-x,1/2-y,1/2+z
1/2+x,1/2-y,-z
1/2-x,1/2+y,-z
1/2-x,1/2-y,1/2-z
1/2+x,1/2+y,1/2-z
1/2-x,1/2+y,z
1/2+x,1/2-y,z
loop_
_atom_site_type_symbol
_atom_site_label
_atom_site_fract_x
_atom_site_fract_y
_atom_site_fract_z
Si Si1 0.330570 0.371816 0.146873
Si Si2 0.048790 0.632838 0.745883
Si Si3 0.832766 0.521350 0.651008
Si Si4 0.398350 0.205257 0.904942
Si Si5 0.238624 0.702388 0.154997
Si Si6 0.327947 0.628067 0.144548
Si Si7 0.884916 0.680290 0.904409
O O1 0.372329 0.316689 0.110465
O O2 0.291347 0.296777 0.116730
O O3 0.327491 0.499122 0.123658
O O4 0.331111 0.362453 0.251136
O O5 0.050434 0.500000 0.750000
O O6 0.069312 0.685535 0.829728
O O7 0.078297 0.663117 0.664970
O O8 0.000000 0.665287 0.750000
O O9 0.843445 0.500000 0.750000
O O10 0.864177 0.607833 0.607542
O O11 0.788133 0.586948 0.653638
O O12 0.845250 0.403671 0.610445
O O13 0.416224 0.200513 0.000000
O O14 0.250000 0.750000 0.250000
O O15 0.283648 0.679113 0.115248
O O16 0.365700 0.698229 0.106639
O O17 0.900924 0.661094 0.000000
#
# Coordination Sequence:
#
# PCOD9526920 Si02
#       7
#    16  16  16  16  16  16  16
#     4   9  19  35  56  86 117 157 213 255 300 356
#     4  11  23  41  65  95 126 153 193 249 308 382
#     4  11  19  34  59  83 120 159 207 248 299 360
#     4  11  20  37  62  87 118 156 195 244 305 367
#     4   9  19  30  56  88 115 159 214 260 301 349
#     4  10  20  35  58  86 120 164 213 259 300 357
#     4  12  23  39  61  89 127 168 201 248 314 377
#
# _framework density 18.614298000000002
#
# number of rings (size 3 to 8) (size 9 to 14) (size 15 to 20)
#    0.000    1.571    4.286    2.143    6.000    1.143 
#    0.000    5.000    0.000    1.714    0.000    2.000 
#    0.000    0.000    0.000    0.000    0.000    0.000 
#
# Total GULP energy -312292.633363 kJ/mol
# GULP energy per Si atom -5576.654167 kJ/mol
# Density = 1.857193 g / cm^3
# Si number density = 18.614298 Si / 1000 Ang^3
#
#
#
# Elastic Constant Matrix: (Units=GPa)
#
#
# Indices 1 2 3 4 5 6 
#
# 1 119.2557 38.7210 55.1817 0.0000 0.0000 0.0000
# 2 38.7210 92.1932 31.4067 0.0000 0.0000 0.0000
# 3 55.1817 31.4067 115.1559 0.0000 0.0000 0.0000
# 4 0.0000 0.0000 0.0000 6.3331 0.0000 0.0000
# 5 0.0000 0.0000 0.0000 0.0000 -6.6857 0.0000
# 6 0.0000 0.0000 0.0000 0.0000 0.0000 14.8894
#
#
#
# Elastic Compliance Matrix: (Units=1/GPa)
#
#
# Indices 1 2 3 4 5 6 
#
# 1 0.011613 -0.003287 -0.004668 0.000000 0.000000 0.000000
# 2 -0.003287 0.012888 -0.001940 0.000000 0.000000 0.000000
# 3 -0.004668 -0.001940 0.011450 0.000000 0.000000 0.000000
# 4 0.000000 0.000000 0.000000 0.157900 0.000000 0.000000
# 5 0.000000 0.000000 0.000000 0.000000 -0.149572 0.000000
# 6 0.000000 0.000000 0.000000 0.000000 0.000000 0.067162
#
#
# Mechanical properties :
#
#
# Convention : Reuss Voigt Hill
#
# Bulk Modulus (GPa) = 61.87933 64.13596 63.00764
# Shear Modulus (GPa) = 36.59856 16.32705 26.46281
#
# Velocity S-wave (km/s) = 4.43894 2.96484 3.77455
# Velocity P-wave (km/s) = 7.71928 6.80076 7.27454
#
# Compressibility (1/GPa) = 0.01616049
#
# Stress axis : x y z
#
# Youngs Moduli (GPa) = 86.11279 77.59048 87.33682
#
# Poissons Ratio (x) = 0.25504 0.40771
# Poissons Ratio (y) = 0.28306 0.16942
# Poissons Ratio (z) = 0.40199 0.15052
#
# Static dielectric constant tensor:
#      x y z
#    x 1.648060 0.000000 0.000000 
#    y 0.000000 1.654880 0.000000 
#    z 0.000000 0.000000 1.683100 
# 
# From -- ./inp_files/26364.got.cif
#   From: 2010.05.17/outbox.cif.g08.bks.cpg/sg72_14_cif.got.tgz:26364.got - 2010.06.03 17:03:01.
