data_PCOD9526788
_publ_section_title
;
Structure prediction by ZEFSAII (Michael W. Deem and Ramdas Pophale) SiO2 
 PCOD9526788
Probable space group: I B A M
;
_chemical_formula_sum "Si O2"
_cell_formula_units_Z 64
_cell_length_a 5.249463
_cell_length_b 29.793037
_cell_length_c 21.357984
_cell_angle_alpha 90.000000
_cell_angle_beta 90.000000
_cell_angle_gamma 90.000000
_cell_volume 3340.334136
_symmetry_space_group_name_H-M "I B A M"
_symmetry_group_IT_number 72
_symmetry_cell_setting 'orthorhombic'
loop_
_space_group_symop_operation_xyz
x,y,z
-x,-y,z
x,-y,1/2-z
-x,y,1/2-z
-x,-y,-z
x,y,-z
-x,y,1/2+z
x,-y,1/2+z
1/2+x,1/2+y,1/2+z
1/2-x,1/2-y,1/2+z
1/2+x,1/2-y,-z
1/2-x,1/2+y,-z
1/2-x,1/2-y,1/2-z
1/2+x,1/2+y,1/2-z
1/2-x,1/2+y,z
1/2+x,1/2-y,z
loop_
_atom_site_type_symbol
_atom_site_label
_atom_site_fract_x
_atom_site_fract_y
_atom_site_fract_z
Si Si1 0.186109 0.957948 0.929831
Si Si2 0.535246 0.376189 0.134861
Si Si3 0.498089 0.278961 0.574873
Si Si4 0.450789 0.081500 0.681841
O O1 0.024070 0.912047 0.920646
O O2 0.391158 0.952901 0.874468
O O3 0.292780 0.959711 0.000000
O O4 0.000000 0.000000 0.920291
O O5 0.520897 0.325917 0.110462
O O6 0.304293 0.387979 0.182194
O O7 0.807110 0.388989 0.162801
O O8 0.493994 0.287667 0.500000
O O9 0.758046 0.252734 0.589482
O O10 0.500000 0.061240 0.750000
#
# Coordination Sequence:
#
# PCOD9526788 Si02
#       4
#    16  16  16  16
#     4   9  21  39  63  96 128 161 206 262 318 375
#     4  10  21  38  63  87 125 164 208 257 316 368
#     4  10  20  34  57  91 126 159 206 262 317 377
#     4  10  22  40  64  88 124 170 210 253 306 378
#
# _framework density 19.159758
#
# number of rings (size 3 to 8) (size 9 to 14) (size 15 to 20)
#    1.500    0.750    0.000    3.000    0.000    3.000 
#    0.000    6.250    0.000   15.000    0.000    0.000 
#    0.000    0.000    0.000    0.000    0.000    0.000 
#
# Total GULP energy -178326.553208 kJ/mol
# GULP energy per Si atom -5572.704788 kJ/mol
# Density = 1.911615 g / cm^3
# Si number density = 19.159758 Si / 1000 Ang^3
#
#
#
# Elastic Constant Matrix: (Units=GPa)
#
#
# Indices 1 2 3 4 5 6 
#
# 1 103.4729 17.9629 35.6434 0.0000 0.0000 0.0000
# 2 17.9629 97.9752 43.5735 0.0000 0.0000 0.0000
# 3 35.6434 43.5735 131.2023 0.0000 0.0000 0.0000
# 4 0.0000 0.0000 0.0000 25.9662 0.0000 0.0000
# 5 0.0000 0.0000 0.0000 0.0000 -21.9642 0.0000
# 6 0.0000 0.0000 0.0000 0.0000 0.0000 15.5441
#
#
#
# Elastic Compliance Matrix: (Units=1/GPa)
#
#
# Indices 1 2 3 4 5 6 
#
# 1 0.010713 -0.000786 -0.002650 0.000000 0.000000 0.000000
# 2 -0.000786 0.012033 -0.003783 0.000000 0.000000 0.000000
# 3 -0.002650 -0.003783 0.009598 0.000000 0.000000 0.000000
# 4 0.000000 0.000000 0.000000 0.038512 0.000000 0.000000
# 5 0.000000 0.000000 0.000000 0.000000 -0.045529 0.000000
# 6 0.000000 0.000000 0.000000 0.000000 0.000000 0.064333
#
#
# Mechanical properties :
#
#
# Convention : Reuss Voigt Hill
#
# Bulk Modulus (GPa) = 55.84064 58.55667 57.19865
# Shear Modulus (GPa) = 45.42710 19.60726 32.51718
#
# Velocity S-wave (km/s) = 4.87454 3.20246 4.12413
# Velocity P-wave (km/s) = 7.80317 6.65605 7.25233
#
# Compressibility (1/GPa) = 0.01790811
#
# Stress axis : x y z
#
# Youngs Moduli (GPa) = 93.34047 83.10400 104.18934
#
# Poissons Ratio (x) = 0.06531 0.27605
# Poissons Ratio (y) = 0.07335 0.39413
# Poissons Ratio (z) = 0.24731 0.31437
#
# Static dielectric constant tensor:
#      x y z
#    x 1.676710 0.000000 0.000000 
#    y 0.000000 1.620600 0.000000 
#    z 0.000000 0.000000 1.675490 
# 
# From -- ./inp_files/34893.got.cif
#   From: 2010.05.17/outbox.cif.g08.bks.cpg/sg72_18_cif.got.tgz:34893.got - 2010.06.03 17:03:01.
