data_PCOD9526292
_publ_section_title
;
Structure prediction by ZEFSAII (Michael W. Deem and Ramdas Pophale) SiO2 
 PCOD9526292
Probable space group: I B A M
;
_chemical_formula_sum "Si O2"
_cell_formula_units_Z 80
_cell_length_a 25.068563
_cell_length_b 10.381712
_cell_length_c 16.829701
_cell_angle_alpha 90.000000
_cell_angle_beta 90.000000
_cell_angle_gamma 90.000000
_cell_volume 4380.007124
_symmetry_space_group_name_H-M "I B A M"
_symmetry_group_IT_number 72
_symmetry_cell_setting 'orthorhombic'
loop_
_space_group_symop_operation_xyz
x,y,z
-x,-y,z
x,-y,1/2-z
-x,y,1/2-z
-x,-y,-z
x,y,-z
-x,y,1/2+z
x,-y,1/2+z
1/2+x,1/2+y,1/2+z
1/2-x,1/2-y,1/2+z
1/2+x,1/2-y,-z
1/2-x,1/2+y,-z
1/2-x,1/2-y,1/2-z
1/2+x,1/2+y,1/2-z
1/2-x,1/2+y,z
1/2+x,1/2-y,z
loop_
_atom_site_type_symbol
_atom_site_label
_atom_site_fract_x
_atom_site_fract_y
_atom_site_fract_z
Si Si1 0.351409 0.482298 0.344402
Si Si2 0.143313 0.275139 0.594772
Si Si3 0.258886 0.875636 0.694585
Si Si4 0.974439 0.633933 0.597008
Si Si5 0.038393 0.116522 0.095940
O O1 0.357002 0.500000 0.250000
O O2 0.353220 0.623531 0.383764
O O3 0.294958 0.409997 0.354083
O O4 0.401823 0.403773 0.375344
O O5 0.147264 0.288558 0.500000
O O6 0.191484 0.346260 0.638417
O O7 0.086155 0.333487 0.620738
O O8 0.250000 0.750000 0.750000
O O9 0.268835 0.000000 0.750000
O O10 0.974145 0.632575 0.500000
O O11 0.000000 0.500000 0.624035
O O12 0.012114 0.750865 0.622731
O O13 0.038632 0.114367 0.000000
O O14 0.000000 0.000000 0.122619
#
# Coordination Sequence:
#
# PCOD9526292 Si02
#       5
#    16  16  16  16  16
#     4  11  22  39  64  88 126 164 206 256 318 371
#     4  11  22  41  68  95 124 166 214 260 308 379
#     4  11  23  44  64  87 128 171 204 260 331 367
#     4   9  19  37  59  89 126 157 194 256 319 358
#     4  10  19  35  62  90 119 160 206 253 304 370
#
# _framework density 18.264810000000001
#
# number of rings (size 3 to 8) (size 9 to 14) (size 15 to 20)
#    0.000    1.600    6.000    0.600    0.000    3.600 
#    0.000    0.000    0.000    0.000    0.000    0.000 
#    0.000    0.000    0.000    0.000    0.000    0.000 
#
# Total GULP energy -223307.287913 kJ/mol
# GULP energy per Si atom -5582.682198 kJ/mol
# Density = 1.822324 g / cm^3
# Si number density = 18.264810 Si / 1000 Ang^3
#
#
#
# Elastic Constant Matrix: (Units=GPa)
#
#
# Indices 1 2 3 4 5 6 
#
# 1 227.3100 113.4293 47.1067 0.0000 0.0000 0.0000
# 2 113.4293 168.6913 33.9452 0.0000 0.0000 0.0000
# 3 47.1067 33.9452 38.6264 0.0000 0.0000 0.0000
# 4 0.0000 0.0000 0.0000 19.9700 0.0000 0.0000
# 5 0.0000 0.0000 0.0000 0.0000 51.9040 0.0000
# 6 0.0000 0.0000 0.0000 0.0000 0.0000 40.5259
#
#
#
# Elastic Compliance Matrix: (Units=1/GPa)
#
#
# Indices 1 2 3 4 5 6 
#
# 1 0.007547 -0.003915 -0.005764 0.000000 0.000000 0.000000
# 2 -0.003915 0.009232 -0.003339 0.000000 0.000000 0.000000
# 3 -0.005764 -0.003339 0.035852 0.000000 0.000000 0.000000
# 4 0.000000 0.000000 0.000000 0.050075 0.000000 0.000000
# 5 0.000000 0.000000 0.000000 0.000000 0.019266 0.000000
# 6 0.000000 0.000000 0.000000 0.000000 0.000000 0.024676
#
#
# Mechanical properties :
#
#
# Convention : Reuss Voigt Hill
#
# Bulk Modulus (GPa) = 37.59859 91.51001 64.55430
# Shear Modulus (GPa) = 27.54058 38.48975 33.01517
#
# Velocity S-wave (km/s) = 3.88732 4.59553 4.25618
# Velocity P-wave (km/s) = 6.38579 8.85263 7.71840
#
# Compressibility (1/GPa) = 0.02659675
#
# Stress axis : x y z
#
# Youngs Moduli (GPa) = 132.49588 108.31422 27.89213
#
# Poissons Ratio (x) = 0.42406 0.16076
# Poissons Ratio (y) = 0.51874 0.09313
# Poissons Ratio (z) = 0.76368 0.36164
#
# Static dielectric constant tensor:
#      x y z
#    x 1.625990 0.000000 0.000000 
#    y 0.000000 1.622240 0.000000 
#    z 0.000000 0.000000 1.623900 
# 
# From -- ./inp_files/33752.got.cif
#   From: 2010.05.17/outbox.cif.g08.bks.cpg/sg72_17_cif.got.tgz:33752.got - 2010.06.03 17:03:01.
