data_PCOD9526286
_publ_section_title
;
Structure prediction by ZEFSAII (Michael W. Deem and Ramdas Pophale) SiO2 
 PCOD9526286
Probable space group: I B A M
;
_chemical_formula_sum "Si O2"
_cell_formula_units_Z 64
_cell_length_a 11.298648
_cell_length_b 8.778918
_cell_length_c 28.539095
_cell_angle_alpha 90.000000
_cell_angle_beta 90.000000
_cell_angle_gamma 90.000000
_cell_volume 2830.790102
_symmetry_space_group_name_H-M "I B A M"
_symmetry_group_IT_number 72
_symmetry_cell_setting 'orthorhombic'
loop_
_space_group_symop_operation_xyz
x,y,z
-x,-y,z
x,-y,1/2-z
-x,y,1/2-z
-x,-y,-z
x,y,-z
-x,y,1/2+z
x,-y,1/2+z
1/2+x,1/2+y,1/2+z
1/2-x,1/2-y,1/2+z
1/2+x,1/2-y,-z
1/2-x,1/2+y,-z
1/2-x,1/2-y,1/2-z
1/2+x,1/2+y,1/2-z
1/2-x,1/2+y,z
1/2+x,1/2-y,z
loop_
_atom_site_type_symbol
_atom_site_label
_atom_site_fract_x
_atom_site_fract_y
_atom_site_fract_z
Si Si1 0.919132 0.141005 0.371775
Si Si2 0.370789 0.675785 0.232217
Si Si3 0.570501 0.816228 0.947004
Si Si4 0.265697 0.470732 0.052281
O O1 0.867642 0.202077 0.323803
O O2 0.828072 0.060743 0.406463
O O3 0.992522 0.257281 0.404034
O O4 0.000000 0.000000 0.355543
O O5 0.366904 0.500000 0.250000
O O6 0.500000 0.734877 0.250000
O O7 0.250000 0.750000 0.250000
O O8 0.685355 0.700518 0.945078
O O9 0.627901 0.984395 0.943992
O O10 0.521713 0.792935 0.000000
O O11 0.302170 0.523224 0.000000
#
# Coordination Sequence:
#
# PCOD9526286 Si02
#       4
#    16  16  16  16
#     4  10  19  35  61  82 116 160 208 251 315 375
#     4  11  25  45  69  96 129 168 218 276 329 387
#     4   9  18  33  55  85 119 157 201 251 308 379
#     4   9  18  31  53  83 114 152 198 246 301 369
#
# _framework density 22.608529000000001
#
# number of rings (size 3 to 8) (size 9 to 14) (size 15 to 20)
#    0.000    2.250    2.500    0.750    3.500    3.500 
#    0.000    1.250    5.500    6.000    0.000    0.000 
#    0.000    0.000    0.000    0.000    0.000    0.000 
#
# Total GULP energy -178589.215337 kJ/mol
# GULP energy per Si atom -5580.912979 kJ/mol
# Density = 2.255707 g / cm^3
# Si number density = 22.608529 Si / 1000 Ang^3
#
#
#
# Elastic Constant Matrix: (Units=GPa)
#
#
# Indices 1 2 3 4 5 6 
#
# 1 106.1122 39.5781 54.9324 0.0000 0.0000 0.0000
# 2 39.5781 74.3599 53.9708 0.0000 0.0000 0.0000
# 3 54.9324 53.9708 164.1346 0.0000 0.0000 0.0000
# 4 0.0000 0.0000 0.0000 26.2436 0.0000 0.0000
# 5 0.0000 0.0000 0.0000 0.0000 31.3268 0.0000
# 6 0.0000 0.0000 0.0000 0.0000 0.0000 38.8663
#
#
#
# Elastic Compliance Matrix: (Units=1/GPa)
#
#
# Indices 1 2 3 4 5 6 
#
# 1 0.012571 -0.004777 -0.002636 0.000000 0.000000 0.000000
# 2 -0.004777 0.019479 -0.004806 0.000000 0.000000 0.000000
# 3 -0.002636 -0.004806 0.008555 0.000000 0.000000 0.000000
# 4 0.000000 0.000000 0.000000 0.038104 0.000000 0.000000
# 5 0.000000 0.000000 0.000000 0.000000 0.031922 0.000000
# 6 0.000000 0.000000 0.000000 0.000000 0.000000 0.025729
#
#
# Mechanical properties :
#
#
# Convention : Reuss Voigt Hill
#
# Bulk Modulus (GPa) = 61.86046 71.28548 66.57297
# Shear Modulus (GPa) = 30.08629 32.36236 31.22433
#
# Velocity S-wave (km/s) = 3.65190 3.78752 3.72033
# Velocity P-wave (km/s) = 6.72330 7.12221 6.92563
#
# Compressibility (1/GPa) = 0.01616541
#
# Stress axis : x y z
#
# Youngs Moduli (GPa) = 79.55091 51.33652 116.88700
#
# Poissons Ratio (x) = 0.24525 0.30814
# Poissons Ratio (y) = 0.38004 0.56180
# Poissons Ratio (z) = 0.20971 0.24674
#
# Static dielectric constant tensor:
#      x y z
#    x 1.939000 0.000000 0.000000 
#    y 0.000000 1.822020 0.000000 
#    z 0.000000 0.000000 1.811890 
# 
# From -- ./inp_files/42935.got.cif
#   From: 2010.05.17/outbox.cif.g08.bks.cpg/sg72_22_cif.got.tgz:42935.got - 2010.06.03 17:03:01.
