data_PCOD9526020
_publ_section_title
;
Structure prediction by ZEFSAII (Michael W. Deem and Ramdas Pophale) SiO2 
 PCOD9526020
Probable space group: I B A M
;
_chemical_formula_sum "Si O2"
_cell_formula_units_Z 112
_cell_length_a 11.240057
_cell_length_b 30.731134
_cell_length_c 17.486760
_cell_angle_alpha 90.000000
_cell_angle_beta 90.000000
_cell_angle_gamma 90.000000
_cell_volume 6040.271355
_symmetry_space_group_name_H-M "I B A M"
_symmetry_group_IT_number 72
_symmetry_cell_setting 'orthorhombic'
loop_
_space_group_symop_operation_xyz
x,y,z
-x,-y,z
x,-y,1/2-z
-x,y,1/2-z
-x,-y,-z
x,y,-z
-x,y,1/2+z
x,-y,1/2+z
1/2+x,1/2+y,1/2+z
1/2-x,1/2-y,1/2+z
1/2+x,1/2-y,-z
1/2-x,1/2+y,-z
1/2-x,1/2-y,1/2-z
1/2+x,1/2+y,1/2-z
1/2-x,1/2+y,z
1/2+x,1/2-y,z
loop_
_atom_site_type_symbol
_atom_site_label
_atom_site_fract_x
_atom_site_fract_y
_atom_site_fract_z
Si Si1 0.857434 0.900110 0.914981
Si Si2 0.795652 0.673077 0.340788
Si Si3 0.420495 0.736600 0.826640
Si Si4 0.286879 0.874103 0.816381
Si Si5 0.140830 0.948857 0.261104
Si Si6 0.925668 0.164659 0.911923
Si Si7 0.450301 0.822030 0.909256
O O1 0.770380 0.859961 0.897794
O O2 0.836490 0.934407 0.848226
O O3 0.986396 0.877140 0.909372
O O4 0.841430 0.917619 0.000000
O O5 0.701969 0.710035 0.316211
O O6 0.824973 0.647088 0.263672
O O7 0.914678 0.686585 0.383020
O O8 0.500000 0.743212 0.750000
O O9 0.501132 0.705969 0.881359
O O10 0.387144 0.781282 0.868261
O O11 0.225952 0.920091 0.793823
O O12 0.181451 0.846645 0.855958
O O13 0.397092 0.866634 0.873770
O O14 0.000000 0.938632 0.250000
O O15 0.158220 0.000000 0.250000
O O16 0.888303 0.171093 0.000000
O O17 0.437975 0.821457 0.000000
#
# Coordination Sequence:
#
# PCOD9526020 Si02
#       7
#    16  16  16  16  16  16  16
#     4   9  18  34  59  85 117 157 195 239 301 364
#     4  10  22  39  61  82 115 156 212 253 301 364
#     4  11  22  38  60  85 116 161 214 262 305 355
#     4  11  21  39  62  84 117 160 200 248 305 376
#     4  10  20  37  63  95 125 155 195 254 315 384
#     4  10  19  33  55  85 118 157 200 245 297 351
#     4  12  27  40  54  84 124 166 211 260 307 354
#
# _framework density 18.542214000000001
#
# number of rings (size 3 to 8) (size 9 to 14) (size 15 to 20)
#    0.000    1.571    2.857    2.571    2.000    2.857 
#    0.000    2.857    0.000    6.857    0.000    5.000 
#    0.000    0.000    0.000    0.000    0.000    0.000 
#
# Total GULP energy -312486.169707 kJ/mol
# GULP energy per Si atom -5580.110173 kJ/mol
# Density = 1.850001 g / cm^3
# Si number density = 18.542214 Si / 1000 Ang^3
#
#
#
# Elastic Constant Matrix: (Units=GPa)
#
#
# Indices 1 2 3 4 5 6 
#
# 1 60.1020 27.2365 27.2489 0.0000 0.0000 0.0000
# 2 27.2365 87.6384 58.1737 0.0000 0.0000 0.0000
# 3 27.2489 58.1737 122.1321 -0.0001 0.0000 0.0000
# 4 0.0000 0.0000 -0.0001 17.4324 0.0000 0.0000
# 5 0.0000 0.0000 0.0000 0.0000 20.0383 0.0000
# 6 0.0000 0.0000 0.0000 0.0000 0.0000 14.5287
#
#
#
# Elastic Compliance Matrix: (Units=1/GPa)
#
#
# Indices 1 2 3 4 5 6 
#
# 1 0.019751 -0.004699 -0.002169 0.000000 0.000000 0.000000
# 2 -0.004699 0.017804 -0.007432 0.000000 0.000000 0.000000
# 3 -0.002169 -0.007432 0.012212 0.000000 0.000000 0.000000
# 4 0.000000 0.000000 0.000000 0.057364 0.000000 0.000000
# 5 0.000000 0.000000 0.000000 0.000000 0.049905 0.000000
# 6 0.000000 0.000000 0.000000 0.000000 0.000000 0.068829
#
#
# Mechanical properties :
#
#
# Convention : Reuss Voigt Hill
#
# Bulk Modulus (GPa) = 47.24114 55.02120 51.13117
# Shear Modulus (GPa) = 19.11900 20.88076 19.99988
#
# Velocity S-wave (km/s) = 3.21457 3.35941 3.28779
# Velocity P-wave (km/s) = 6.26984 6.69219 6.48445
#
# Compressibility (1/GPa) = 0.02116799
#
# Stress axis : x y z
#
# Youngs Moduli (GPa) = 50.63063 56.16647 81.88846
#
# Poissons Ratio (x) = 0.26391 0.17758
# Poissons Ratio (y) = 0.23790 0.60861
# Poissons Ratio (z) = 0.10979 0.41744
#
# Static dielectric constant tensor:
#      x y z
#    x 1.691180 0.000000 0.000000 
#    y 0.000000 1.627750 0.000000 
#    z 0.000000 0.000000 1.636880 
# 
# From -- ./inp_files/20657.got.cif
#   From: 2010.05.17/outbox.cif.g08.bks.cpg/sg72_11_cif.got.tgz:20657.got - 2010.06.03 17:03:01.
