data_PCOD9526961
_publ_section_title
;
Structure prediction by ZEFSAII (Michael W. Deem and Ramdas Pophale) SiO2 
 PCOD9526961
Probable space group: I B A M
;
_chemical_formula_sum "Si O2"
_cell_formula_units_Z 96
_cell_length_a 14.851360
_cell_length_b 16.656823
_cell_length_c 20.055743
_cell_angle_alpha 90.000000
_cell_angle_beta 90.000000
_cell_angle_gamma 90.000000
_cell_volume 4961.319003
_symmetry_space_group_name_H-M "I B A M"
_symmetry_group_IT_number 72
_symmetry_cell_setting 'orthorhombic'
loop_
_space_group_symop_operation_xyz
x,y,z
-x,-y,z
x,-y,1/2-z
-x,y,1/2-z
-x,-y,-z
x,y,-z
-x,y,1/2+z
x,-y,1/2+z
1/2+x,1/2+y,1/2+z
1/2-x,1/2-y,1/2+z
1/2+x,1/2-y,-z
1/2-x,1/2+y,-z
1/2-x,1/2-y,1/2-z
1/2+x,1/2+y,1/2-z
1/2-x,1/2+y,z
1/2+x,1/2-y,z
loop_
_atom_site_type_symbol
_atom_site_label
_atom_site_fract_x
_atom_site_fract_y
_atom_site_fract_z
Si Si1 0.255543 0.163804 0.288882
Si Si2 0.524910 0.197022 0.576498
Si Si3 0.093731 0.854874 0.424852
Si Si4 0.586838 0.587106 0.719056
Si Si5 0.551197 0.911979 0.688592
Si Si6 0.223523 0.251354 0.577174
O O1 0.250000 0.250000 0.250000
O O2 0.178012 0.120587 0.248522
O O3 0.344436 0.106307 0.292572
O O4 0.234652 0.184604 0.366120
O O5 0.515064 0.172211 0.500000
O O6 0.481182 0.285211 0.582462
O O7 0.471506 0.136365 0.622553
O O8 0.630662 0.202272 0.592282
O O9 0.086698 0.889194 0.500000
O O10 0.084469 0.911249 0.360887
O O11 0.189977 0.809492 0.419567
O O12 0.584135 0.500000 0.750000
O O13 0.500000 0.632592 0.750000
O O14 0.500000 0.871082 0.750000
O O15 0.500000 0.000000 0.682720
O O16 0.217470 0.222085 0.500000
#
# Coordination Sequence:
#
# PCOD9526961 Si02
#       6
#    16  16  16  16  16  16
#     4  12  22  39  67  91 122 170 218 275 324 398
#     4  10  20  37  62  89 122 162 216 273 322 389
#     4  10  20  39  64  89 121 161 212 270 325 388
#     4  11  25  42  62  93 129 164 213 269 329 397
#     4  11  25  38  56  90 130 172 211 264 342 417
#     4  10  20  35  60  91 117 156 212 268 319 379
#
# _framework density 19.349692000000001
#
# number of rings (size 3 to 8) (size 9 to 14) (size 15 to 20)
#    0.000    1.333    3.333    2.000    2.333    1.667 
#    0.000    2.500    0.000    0.000    0.000    0.000 
#    0.000    0.000    0.000    0.000    0.000    0.000 
#
# Total GULP energy -267277.541830 kJ/mol
# GULP energy per Si atom -5568.282121 kJ/mol
# Density = 1.930565 g / cm^3
# Si number density = 19.349692 Si / 1000 Ang^3
#
#
#
# Elastic Constant Matrix: (Units=GPa)
#
#
# Indices 1 2 3 4 5 6 
#
# 1 102.3164 20.5664 31.1575 0.0000 0.0000 0.0000
# 2 20.5664 57.2715 38.2767 0.0000 0.0000 0.0000
# 3 31.1575 38.2767 141.4028 0.0000 0.0000 0.0000
# 4 0.0000 0.0000 0.0000 2.1445 0.0000 0.0000
# 5 0.0000 0.0000 0.0000 0.0000 27.3914 0.0000
# 6 0.0000 0.0000 0.0000 0.0000 0.0000 18.0162
#
#
#
# Elastic Compliance Matrix: (Units=1/GPa)
#
#
# Indices 1 2 3 4 5 6 
#
# 1 0.010833 -0.002802 -0.001629 0.000000 0.000000 0.000000
# 2 -0.002802 0.022042 -0.005349 0.000000 0.000000 0.000000
# 3 -0.001629 -0.005349 0.008879 0.000000 0.000000 0.000000
# 4 0.000000 0.000000 0.000000 0.466320 0.000000 0.000000
# 5 0.000000 0.000000 0.000000 0.000000 0.036508 0.000000
# 6 0.000000 0.000000 0.000000 0.000000 0.000000 0.055506
#
#
# Mechanical properties :
#
#
# Convention : Reuss Voigt Hill
#
# Bulk Modulus (GPa) = 45.05612 53.44354 49.24983
# Shear Modulus (GPa) = 7.97393 23.57642 15.77517
#
# Velocity S-wave (km/s) = 2.03222 3.49440 2.85839
# Velocity P-wave (km/s) = 5.37050 6.63030 6.03337
#
# Compressibility (1/GPa) = 0.02219454
#
# Stress axis : x y z
#
# Youngs Moduli (GPa) = 92.31330 45.36820 112.62724
#
# Poissons Ratio (x) = 0.12710 0.18342
# Poissons Ratio (y) = 0.25863 0.60247
# Poissons Ratio (z) = 0.15034 0.24269
#
# Static dielectric constant tensor:
#      x y z
#    x 1.633520 0.000000 0.000000 
#    y 0.000000 1.818220 0.000000 
#    z 0.000000 0.000000 1.689540 
# 
# From -- ./inp_files/38047.got.cif
#   From: 2010.05.17/outbox.cif.g08.bks.cpg/sg72_20_cif.got.tgz:38047.got - 2010.06.03 17:03:01.
