data_PCOD9526636
_publ_section_title
;
Structure prediction by ZEFSAII (Michael W. Deem and Ramdas Pophale) SiO2 
 PCOD9526636
Probable space group: I B A M
;
_chemical_formula_sum "Si O2"
_cell_formula_units_Z 96
_cell_length_a 20.816645
_cell_length_b 10.657475
_cell_length_c 21.356205
_cell_angle_alpha 90.000000
_cell_angle_beta 90.000000
_cell_angle_gamma 90.000000
_cell_volume 4737.935450
_symmetry_space_group_name_H-M "I B A M"
_symmetry_group_IT_number 72
_symmetry_cell_setting 'orthorhombic'
loop_
_space_group_symop_operation_xyz
x,y,z
-x,-y,z
x,-y,1/2-z
-x,y,1/2-z
-x,-y,-z
x,y,-z
-x,y,1/2+z
x,-y,1/2+z
1/2+x,1/2+y,1/2+z
1/2-x,1/2-y,1/2+z
1/2+x,1/2-y,-z
1/2-x,1/2+y,-z
1/2-x,1/2-y,1/2-z
1/2+x,1/2+y,1/2-z
1/2-x,1/2+y,z
1/2+x,1/2-y,z
loop_
_atom_site_type_symbol
_atom_site_label
_atom_site_fract_x
_atom_site_fract_y
_atom_site_fract_z
Si Si1 0.126442 0.162180 0.500000
Si Si2 0.890861 0.126524 0.637512
Si Si3 0.611798 0.362767 0.000000
Si Si4 0.675941 0.000000 0.750000
Si Si5 0.258905 0.849218 0.361810
Si Si6 0.756237 0.336148 0.000000
Si Si7 0.123546 0.827550 0.863593
Si Si8 0.069722 0.301517 0.242197
O O1 0.198486 0.215165 0.500000
O O2 0.098674 0.204790 0.566487
O O3 0.126177 0.012231 0.500000
O O4 0.917798 0.159912 0.568198
O O5 0.816956 0.172895 0.643660
O O6 0.931483 0.190639 0.691440
O O7 0.884634 0.976292 0.644112
O O8 0.681722 0.299553 0.000000
O O9 0.717477 0.061269 0.694290
O O10 0.626656 0.104218 0.776020
O O11 0.268675 0.902403 0.432938
O O12 0.302907 0.723762 0.358742
O O13 0.088062 0.755777 0.809023
O O14 0.000000 0.359910 0.250000
#
# Coordination Sequence:
#
# PCOD9526636 Si02
#       8
#     8  16   8   8  16   8  16  16
#     4   8  14  30  51  71 105 138 177 212 274 327
#     4  10  20  33  57  83 114 142 176 227 273 334
#     4   8  16  32  47  80 112 140 172 211 276 326
#     4  10  23  38  58  80 107 146 182 234 274 330
#     4   9  19  32  55  83 114 142 179 219 283 328
#     4   8  14  30  48  77 110 146 171 211 265 344
#     4   9  19  33  54  80 106 143 177 228 272 329
#     4  11  24  40  55  75 107 150 192 229 270 319
#
# _framework density 20.261990000000001
#
# number of rings (size 3 to 8) (size 9 to 14) (size 15 to 20)
#    0.000    2.667    0.000    0.750    4.667    2.667 
#    3.000    0.833    0.000    3.000    0.000    7.000 
#    0.000    0.000    0.000    0.000    0.000    0.000 
#
# Total GULP energy -267435.492204 kJ/mol
# GULP energy per Si atom -5571.572754 kJ/mol
# Density = 2.021587 g / cm^3
# Si number density = 20.261990 Si / 1000 Ang^3
#
#
#
# Elastic Constant Matrix: (Units=GPa)
#
#
# Indices 1 2 3 4 5 6 
#
# 1 36.6970 1.8219 10.1448 0.0000 0.0000 0.0000
# 2 1.8219 47.9083 32.9303 0.0000 0.0000 0.0000
# 3 10.1448 32.9303 92.7673 0.0000 0.0000 0.0000
# 4 0.0000 0.0000 0.0000 18.8091 0.0000 0.0000
# 5 0.0000 0.0000 0.0000 0.0000 -29.9319 0.0000
# 6 0.0000 0.0000 0.0000 0.0000 0.0000 16.7910
#
#
#
# Elastic Compliance Matrix: (Units=1/GPa)
#
#
# Indices 1 2 3 4 5 6 
#
# 1 0.028169 0.001384 -0.003572 0.000000 0.000000 0.000000
# 2 0.001384 0.027678 -0.009976 0.000000 0.000000 0.000000
# 3 -0.003572 -0.009976 0.014712 0.000000 0.000000 0.000000
# 4 0.000000 0.000000 0.000000 0.053166 0.000000 0.000000
# 5 0.000000 0.000000 0.000000 0.000000 -0.033409 0.000000
# 6 0.000000 0.000000 0.000000 0.000000 0.000000 0.059556
#
#
# Mechanical properties :
#
#
# Convention : Reuss Voigt Hill
#
# Bulk Modulus (GPa) = 21.63103 29.68517 25.65810
# Shear Modulus (GPa) = 26.37004 9.96536 18.16770
#
# Velocity S-wave (km/s) = 3.61148 2.22012 2.99764
# Velocity P-wave (km/s) = 5.29993 4.61025 4.96707
#
# Compressibility (1/GPa) = 0.04622989
#
# Stress axis : x y z
#
# Youngs Moduli (GPa) = 35.50024 36.12980 67.97338
#
# Poissons Ratio (x) = -0.05000 0.24278
# Poissons Ratio (y) = -0.04912 0.67813
# Poissons Ratio (z) = 0.12679 0.36044
#
# Static dielectric constant tensor:
#      x y z
#    x 1.713530 0.000000 0.000000 
#    y 0.000000 1.717160 0.000000 
#    z 0.000000 0.000000 1.768960 
# 
# From -- ./inp_files/37184.got.cif
#   From: 2010.05.17/outbox.cif.g08.bks.cpg/sg72_19_cif.got.tgz:37184.got - 2010.06.03 17:03:01.
