data_PCOD9526534
_publ_section_title
;
Structure prediction by ZEFSAII (Michael W. Deem and Ramdas Pophale) SiO2 
 PCOD9526534
Probable space group: I B A M
;
_chemical_formula_sum "Si O2"
_cell_formula_units_Z 116
_cell_length_a 27.119595
_cell_length_b 26.981873
_cell_length_c 9.142475
_cell_angle_alpha 90.000000
_cell_angle_beta 90.000000
_cell_angle_gamma 90.000000
_cell_volume 6689.891509
_symmetry_space_group_name_H-M "I B A M"
_symmetry_group_IT_number 72
_symmetry_cell_setting 'orthorhombic'
loop_
_space_group_symop_operation_xyz
x,y,z
-x,-y,z
x,-y,1/2-z
-x,y,1/2-z
-x,-y,-z
x,y,-z
-x,y,1/2+z
x,-y,1/2+z
1/2+x,1/2+y,1/2+z
1/2-x,1/2-y,1/2+z
1/2+x,1/2-y,-z
1/2-x,1/2+y,-z
1/2-x,1/2-y,1/2-z
1/2+x,1/2+y,1/2-z
1/2-x,1/2+y,z
1/2+x,1/2-y,z
loop_
_atom_site_type_symbol
_atom_site_label
_atom_site_fract_x
_atom_site_fract_y
_atom_site_fract_z
Si Si1 0.320035 0.051415 0.825354
Si Si2 0.823782 0.287986 0.831058
Si Si3 0.648862 0.326698 0.670550
Si Si4 0.740822 0.637142 0.673205
Si Si5 0.049990 0.797204 0.676669
Si Si6 0.000000 0.500000 0.250000
Si Si7 0.421086 0.920377 0.167721
Si Si8 0.078674 0.312400 0.174060
O O1 0.279567 0.093567 0.792164
O O2 0.374183 0.065393 0.765337
O O3 0.305749 0.000000 0.750000
O O4 0.322843 0.045994 0.000000
O O5 0.828770 0.229109 0.818839
O O6 0.771231 0.312073 0.799372
O O7 0.864820 0.311010 0.726177
O O8 0.835792 0.301635 0.000000
O O9 0.638895 0.336557 0.500000
O O10 0.690658 0.362198 0.736035
O O11 0.598489 0.324710 0.762999
O O12 0.729529 0.635019 0.500000
O O13 0.048013 0.799091 0.500000
O O14 0.055842 0.739341 0.728286
O O15 0.000000 0.816355 0.750000
O O16 0.037254 0.537611 0.329771
O O17 0.440878 0.866417 0.218349
O O18 0.403771 0.915136 0.000000
O O19 0.075214 0.309311 0.000000
#
# Coordination Sequence:
#
# PCOD9526534 Si02
#       8
#    16  16  16  16  16   4  16  16
#     4  11  23  39  59  78 102 135 174 221 274 328
#     4   9  17  31  49  73 103 133 168 210 259 315
#     4  10  20  32  51  78 107 138 174 214 256 313
#     4  10  20  34  52  76 105 138 170 211 267 319
#     4  10  20  35  53  74 105 141 177 217 260 309
#     4  12  26  36  56  74  98 132 178 240 292 328
#     4  11  23  39  54  72  98 129 175 229 284 332
#     4   9  19  33  50  71  96 131 173 219 266 318
#
# _framework density 17.339594000000002
#
# number of rings (size 3 to 8) (size 9 to 14) (size 15 to 20)
#    0.000    1.931    2.069    1.862    0.966    3.310 
#    0.000    0.000    0.000    0.000    0.000    0.000 
#    0.000    0.552    0.000    5.793    0.000    3.172 
#
# Total GULP energy -323424.549186 kJ/mol
# GULP energy per Si atom -5576.285331 kJ/mol
# Density = 1.730013 g / cm^3
# Si number density = 17.339594 Si / 1000 Ang^3
#
#
#
# Elastic Constant Matrix: (Units=GPa)
#
#
# Indices 1 2 3 4 5 6 
#
# 1 116.0071 33.1193 53.1847 0.0000 0.0000 0.0000
# 2 33.1193 38.2650 26.4551 0.0000 0.0000 0.0000
# 3 53.1847 26.4551 51.8020 0.0000 0.0000 0.0000
# 4 0.0000 0.0000 0.0000 17.3115 0.0000 0.0000
# 5 0.0000 0.0000 0.0000 0.0000 22.7877 0.0000
# 6 0.0000 0.0000 0.0000 0.0000 0.0000 22.5822
#
#
#
# Elastic Compliance Matrix: (Units=1/GPa)
#
#
# Indices 1 2 3 4 5 6 
#
# 1 0.016675 -0.004014 -0.015071 0.000000 0.000000 0.000000
# 2 -0.004014 0.041363 -0.017003 0.000000 0.000000 0.000000
# 3 -0.015071 -0.017003 0.043461 0.000000 0.000000 0.000000
# 4 0.000000 0.000000 0.000000 0.057765 0.000000 0.000000
# 5 0.000000 0.000000 0.000000 0.000000 0.043883 0.000000
# 6 0.000000 0.000000 0.000000 0.000000 0.000000 0.044283
#
#
# Mechanical properties :
#
#
# Convention : Reuss Voigt Hill
#
# Bulk Modulus (GPa) = 34.10182 47.95471 41.02826
# Shear Modulus (GPa) = 15.18007 18.75728 16.96867
#
# Velocity S-wave (km/s) = 2.96202 3.29258 3.13167
# Velocity P-wave (km/s) = 5.60427 6.49392 6.06543
#
# Compressibility (1/GPa) = 0.02932395
#
# Stress axis : x y z
#
# Youngs Moduli (GPa) = 59.96881 24.17636 23.00930
#
# Poissons Ratio (x) = 0.09703 0.34677
# Poissons Ratio (y) = 0.24069 0.39123
# Poissons Ratio (z) = 0.90377 0.41107
#
# Static dielectric constant tensor:
#      x y z
#    x 1.584600 0.000000 0.000000 
#    y 0.000000 1.613500 0.000000 
#    z 0.000000 0.000000 1.590760 
# 
# From -- ./inp_files/7332.got.cif
#   From: 2010.05.17/outbox.cif.g08.bks.cpg/sg72_4_cif.got.tgz:7332.got - 2010.06.03 17:03:01.
