data_PCOD9526287
_publ_section_title
;
Structure prediction by ZEFSAII (Michael W. Deem and Ramdas Pophale) SiO2 
 PCOD9526287
Probable space group: I B A M
;
_chemical_formula_sum "Si O2"
_cell_formula_units_Z 64
_cell_length_a 10.935423
_cell_length_b 21.581159
_cell_length_c 11.196849
_cell_angle_alpha 90.000000
_cell_angle_beta 90.000000
_cell_angle_gamma 90.000000
_cell_volume 2642.446315
_symmetry_space_group_name_H-M "I B A M"
_symmetry_group_IT_number 72
_symmetry_cell_setting 'orthorhombic'
loop_
_space_group_symop_operation_xyz
x,y,z
-x,-y,z
x,-y,1/2-z
-x,y,1/2-z
-x,-y,-z
x,y,-z
-x,y,1/2+z
x,-y,1/2+z
1/2+x,1/2+y,1/2+z
1/2-x,1/2-y,1/2+z
1/2+x,1/2-y,-z
1/2-x,1/2+y,-z
1/2-x,1/2-y,1/2-z
1/2+x,1/2+y,1/2-z
1/2-x,1/2+y,z
1/2+x,1/2-y,z
loop_
_atom_site_type_symbol
_atom_site_label
_atom_site_fract_x
_atom_site_fract_y
_atom_site_fract_z
Si Si1 0.363437 0.472186 0.870041
Si Si2 0.924968 0.379752 0.135524
Si Si3 0.087718 0.738452 0.628886
Si Si4 0.299071 0.344688 0.221916
O O1 0.500000 0.500000 0.874243
O O2 0.303602 0.500000 0.750000
O O3 0.367549 0.398724 0.847284
O O4 0.305087 0.484142 0.000000
O O5 0.784112 0.375311 0.173548
O O6 0.000000 0.407674 0.250000
O O7 0.971953 0.307853 0.133745
O O8 0.945122 0.403652 0.000000
O O9 0.084927 0.769189 0.500000
O O10 0.200279 0.689958 0.639084
O O11 0.118587 0.791744 0.721970
#
# Coordination Sequence:
#
# PCOD9526287 Si02
#       4
#    16  16  16  16
#     4  10  23  45  68  92 127 175 229 278 333 398
#     4   9  18  33  55  88 130 174 220 270 330 404
#     4   9  18  33  56  93 134 175 219 269 335 403
#     4  10  19  35  61  90 132 177 223 274 340 404
#
# _framework density 24.219982000000002
#
# number of rings (size 3 to 8) (size 9 to 14) (size 15 to 20)
#    0.000    2.500    0.000    1.500    0.000    3.000 
#   22.500    1.250    0.000    6.750    0.000   24.500 
#    0.000    0.000    0.000    0.000    0.000    0.000 
#
# Total GULP energy -178525.560346 kJ/mol
# GULP energy per Si atom -5578.923761 kJ/mol
# Density = 2.416486 g / cm^3
# Si number density = 24.219982 Si / 1000 Ang^3
#
#
#
# Elastic Constant Matrix: (Units=GPa)
#
#
# Indices 1 2 3 4 5 6 
#
# 1 81.9805 38.5292 9.5480 0.0000 0.0000 0.0000
# 2 38.5292 106.4603 19.4688 -0.0001 0.0000 0.0000
# 3 9.5480 19.4688 191.9218 -0.0001 -0.0001 0.0000
# 4 0.0000 -0.0001 -0.0001 -5.8277 0.0000 0.0000
# 5 0.0000 0.0000 -0.0001 0.0000 -1.6076 0.0000
# 6 0.0000 0.0000 0.0000 0.0000 0.0000 19.2961
#
#
#
# Elastic Compliance Matrix: (Units=1/GPa)
#
#
# Indices 1 2 3 4 5 6 
#
# 1 0.014705 -0.005286 -0.000195 0.000000 0.000000 0.000000
# 2 -0.005286 0.011471 -0.000901 0.000000 0.000000 0.000000
# 3 -0.000195 -0.000901 0.005312 0.000000 0.000000 0.000000
# 4 0.000000 0.000000 0.000000 -0.171593 0.000001 0.000000
# 5 0.000000 0.000000 0.000000 0.000001 -0.622060 0.000000
# 6 0.000000 0.000000 0.000000 0.000000 0.000000 0.051824
#
#
# Mechanical properties :
#
#
# Convention : Reuss Voigt Hill
#
# Bulk Modulus (GPa) = 53.40939 57.27274 55.34106
# Shear Modulus (GPa) = -7.23237 23.22660 7.99712
#
# Velocity S-wave (km/s) = -1.72991 3.10011 1.81908
# Velocity P-wave (km/s) = 4.25553 6.04255 5.22599
#
# Compressibility (1/GPa) = 0.01872330
#
# Stress axis : x y z
#
# Youngs Moduli (GPa) = 68.00315 87.17607 188.26943
#
# Poissons Ratio (x) = 0.46084 0.03677
# Poissons Ratio (y) = 0.35948 0.16957
# Poissons Ratio (z) = 0.01328 0.07852
#
# Static dielectric constant tensor:
#      x y z
#    x 1.959210 0.000000 0.000000 
#    y 0.000000 1.896310 0.000000 
#    z 0.000000 0.000000 2.122190 
# 
# From -- ./inp_files/11173.got.cif
#   From: 2010.05.17/outbox.cif.g08.bks.cpg/sg72_6_cif.got.tgz:11173.got - 2010.06.03 17:03:01.
