data_PCOD9526060
_publ_section_title
;
Structure prediction by ZEFSAII (Michael W. Deem and Ramdas Pophale) SiO2 
 PCOD9526060
Probable space group: I B A M
;
_chemical_formula_sum "Si O2"
_cell_formula_units_Z 52
_cell_length_a 17.643443
_cell_length_b 12.808657
_cell_length_c 10.072377
_cell_angle_alpha 90.000000
_cell_angle_beta 90.000000
_cell_angle_gamma 90.000000
_cell_volume 2276.244489
_symmetry_space_group_name_H-M "I B A M"
_symmetry_group_IT_number 72
_symmetry_cell_setting 'orthorhombic'
loop_
_space_group_symop_operation_xyz
x,y,z
-x,-y,z
x,-y,1/2-z
-x,y,1/2-z
-x,-y,-z
x,y,-z
-x,y,1/2+z
x,-y,1/2+z
1/2+x,1/2+y,1/2+z
1/2-x,1/2-y,1/2+z
1/2+x,1/2-y,-z
1/2-x,1/2+y,-z
1/2-x,1/2-y,1/2-z
1/2+x,1/2+y,1/2-z
1/2-x,1/2+y,z
1/2+x,1/2-y,z
loop_
_atom_site_type_symbol
_atom_site_label
_atom_site_fract_x
_atom_site_fract_y
_atom_site_fract_z
Si Si1 0.280643 0.401842 0.346131
Si Si2 0.606488 0.318484 0.649836
Si Si3 0.500000 0.500000 0.750000
Si Si4 0.099467 0.409877 0.646630
O O1 0.293280 0.500000 0.250000
O O2 0.304042 0.414544 0.500000
O O3 0.332685 0.319421 0.269433
O O4 0.190339 0.387950 0.346415
O O5 0.640433 0.323913 0.500000
O O6 0.552077 0.418685 0.668100
O O7 0.565633 0.206110 0.657911
O O8 0.081591 0.500000 0.750000
O O9 0.083503 0.451090 0.500000
#
# Coordination Sequence:
#
# PCOD9526060 Si02
#       4
#    16  16   4  16
#     4  10  19  33  58  90 123 157 195 246 307 364
#     4  11  23  40  60  85 122 161 206 254 297 354
#     4  12  26  40  62  86 122 168 214 244 302 348
#     4   9  20  38  61  91 122 155 196 250 309 364
#
# _framework density 22.844646000000001
#
# number of rings (size 3 to 8) (size 9 to 14) (size 15 to 20)
#    0.000    1.846    1.538    2.308    0.000    3.692 
#    0.000    0.769    0.000    3.692    0.000    0.000 
#    0.000    0.000    0.000    0.000    0.000    0.000 
#
# Total GULP energy -145039.221955 kJ/mol
# GULP energy per Si atom -5578.431614 kJ/mol
# Density = 2.279265 g / cm^3
# Si number density = 22.844646 Si / 1000 Ang^3
#
#
#
# Elastic Constant Matrix: (Units=GPa)
#
#
# Indices 1 2 3 4 5 6 
#
# 1 77.9868 5.6027 53.7510 0.0000 0.0000 0.0000
# 2 5.6027 165.7404 92.1565 0.0000 0.0000 0.0000
# 3 53.7510 92.1565 237.0419 0.0000 0.0000 0.0000
# 4 0.0000 0.0000 0.0000 37.9466 0.0000 0.0000
# 5 0.0000 0.0000 0.0000 0.0000 -12.4913 0.0000
# 6 0.0000 0.0000 0.0000 0.0000 0.0000 11.5875
#
#
#
# Elastic Compliance Matrix: (Units=1/GPa)
#
#
# Indices 1 2 3 4 5 6 
#
# 1 0.015626 0.001840 -0.004258 0.000000 0.000000 0.000000
# 2 0.001840 0.007914 -0.003494 0.000000 0.000000 0.000000
# 3 -0.004258 -0.003494 0.006543 0.000000 0.000000 0.000000
# 4 0.000000 0.000000 0.000000 0.026353 0.000000 0.000000
# 5 0.000000 0.000000 0.000000 0.000000 -0.080056 0.000000
# 6 0.000000 0.000000 0.000000 0.000000 0.000000 0.086300
#
#
# Mechanical properties :
#
#
# Convention : Reuss Voigt Hill
#
# Bulk Modulus (GPa) = 54.77422 87.08771 70.93096
# Shear Modulus (GPa) = 62.04232 29.35917 45.70074
#
# Velocity S-wave (km/s) = 5.21702 3.58881 4.47755
# Velocity P-wave (km/s) = 7.76651 7.44159 7.60578
#
# Compressibility (1/GPa) = 0.01825676
#
# Stress axis : x y z
#
# Youngs Moduli (GPa) = 63.99772 126.35698 152.84314
#
# Poissons Ratio (x) = -0.23244 0.65087
# Poissons Ratio (y) = -0.11773 0.53403
# Poissons Ratio (z) = 0.27253 0.44149
#
# Static dielectric constant tensor:
#      x y z
#    x 1.914440 0.000000 0.000000 
#    y 0.000000 1.898170 0.000000 
#    z 0.000000 0.000000 1.811620 
# 
# From -- ./inp_files/2301.got.cif
#   From: 2010.05.17/outbox.cif.g08.bks.cpg/sg72_2_cif.got.tgz:2301.got - 2010.06.03 17:03:01.
