data_PCOD9526591
_publ_section_title
;
Structure prediction by ZEFSAII (Michael W. Deem and Ramdas Pophale) SiO2 
 PCOD9526591
Probable space group: I B A M
;
_chemical_formula_sum "Si O2"
_cell_formula_units_Z 96
_cell_length_a 23.689035
_cell_length_b 26.476114
_cell_length_c 8.319092
_cell_angle_alpha 90.000000
_cell_angle_beta 90.000000
_cell_angle_gamma 90.000000
_cell_volume 5217.681187
_symmetry_space_group_name_H-M "I B A M"
_symmetry_group_IT_number 72
_symmetry_cell_setting 'orthorhombic'
loop_
_space_group_symop_operation_xyz
x,y,z
-x,-y,z
x,-y,1/2-z
-x,y,1/2-z
-x,-y,-z
x,y,-z
-x,y,1/2+z
x,-y,1/2+z
1/2+x,1/2+y,1/2+z
1/2-x,1/2-y,1/2+z
1/2+x,1/2-y,-z
1/2-x,1/2+y,-z
1/2-x,1/2-y,1/2-z
1/2+x,1/2+y,1/2-z
1/2-x,1/2+y,z
1/2+x,1/2-y,z
loop_
_atom_site_type_symbol
_atom_site_label
_atom_site_fract_x
_atom_site_fract_y
_atom_site_fract_z
Si Si1 0.763004 0.305019 0.314229
Si Si2 0.124501 0.654474 0.184176
Si Si3 0.681046 0.056540 0.305900
Si Si4 0.810575 0.943000 0.692047
Si Si5 0.648331 0.655403 0.691894
Si Si6 0.936347 0.245272 0.690805
O O1 0.782041 0.305388 0.500000
O O2 0.750000 0.250000 0.250000
O O3 0.811350 0.326372 0.200928
O O4 0.704217 0.332659 0.292926
O O5 0.134265 0.597639 0.250894
O O6 0.088454 0.699894 0.259935
O O7 0.106149 0.650419 0.000000
O O8 0.683239 0.058758 0.500000
O O9 0.744796 0.067510 0.243065
O O10 0.667208 0.000000 0.250000
O O11 0.813663 0.940040 0.500000
O O12 0.855305 0.904177 0.771421
O O13 0.821388 0.000000 0.750000
O O14 0.657758 0.662160 0.500000
O O15 0.601847 0.697013 0.743277
O O16 0.935943 0.243785 0.500000
O O17 0.000000 0.240101 0.750000
#
# Coordination Sequence:
#
# PCOD9526591 Si02
#       6
#    16  16  16  16  16  16
#     4  12  22  32  51  81 115 151 186 227 283 341
#     4  11  22  36  57  82 116 152 189 234 282 339
#     4  10  20  33  52  80 117 155 189 229 275 334
#     4  11  21  33  53  81 117 156 190 229 277 336
#     4  11  22  37  56  82 115 150 189 232 281 341
#     4  11  25  42  62  83 111 147 191 240 290 344
#
# _framework density 18.398976999999999
#
# number of rings (size 3 to 8) (size 9 to 14) (size 15 to 20)
#    0.000    1.000    3.333    6.000    0.000    4.000 
#    0.000    0.000    0.000    1.000    0.000    7.000 
#    0.000    0.000    0.000    0.000    0.000    0.000 
#
# Total GULP energy -267609.147970 kJ/mol
# GULP energy per Si atom -5575.190583 kJ/mol
# Density = 1.835710 g / cm^3
# Si number density = 18.398977 Si / 1000 Ang^3
#
#
#
# Elastic Constant Matrix: (Units=GPa)
#
#
# Indices 1 2 3 4 5 6 
#
# 1 60.5992 36.3061 4.8606 0.0000 0.0000 0.0000
# 2 36.3061 141.7390 16.0762 0.0000 0.0000 0.0000
# 3 4.8606 16.0762 62.3967 0.0000 0.0000 0.0000
# 4 0.0000 0.0000 0.0000 29.7338 0.0000 0.0000
# 5 0.0000 0.0000 0.0000 0.0000 22.6143 0.0000
# 6 0.0000 0.0000 0.0000 0.0000 0.0000 8.1061
#
#
#
# Elastic Compliance Matrix: (Units=1/GPa)
#
#
# Indices 1 2 3 4 5 6 
#
# 1 0.019497 -0.004967 -0.000239 0.000000 0.000000 0.000000
# 2 -0.004967 0.008533 -0.001812 0.000000 0.000000 0.000000
# 3 -0.000239 -0.001812 0.016512 0.000000 0.000000 0.000000
# 4 0.000000 0.000000 0.000000 0.033632 0.000000 0.000000
# 5 0.000000 0.000000 0.000000 0.000000 0.044220 0.000000
# 6 0.000000 0.000000 0.000000 0.000000 0.000000 0.123364
#
#
# Mechanical properties :
#
#
# Convention : Reuss Voigt Hill
#
# Bulk Modulus (GPa) = 32.77989 42.13565 37.45777
# Shear Modulus (GPa) = 18.52116 25.92363 22.22240
#
# Velocity S-wave (km/s) = 3.17620 3.75770 3.47912
# Velocity P-wave (km/s) = 5.59516 6.46358 6.04499
#
# Compressibility (1/GPa) = 0.03050650
#
# Stress axis : x y z
#
# Youngs Moduli (GPa) = 51.29032 117.19255 60.56256
#
# Poissons Ratio (x) = 0.58209 0.01448
# Poissons Ratio (y) = 0.25476 0.10971
# Poissons Ratio (z) = 0.01226 0.21230
#
# Static dielectric constant tensor:
#      x y z
#    x 1.611800 0.000000 0.000000 
#    y 0.000000 1.744430 0.000000 
#    z 0.000000 0.000000 1.651690 
# 
# From -- ./inp_files/5966.got.cif
#   From: 2010.05.17/outbox.cif.g08.bks.cpg/sg72_3_cif.got.tgz:5966.got - 2010.06.03 17:03:01.
