data_PCOD9526969
_publ_section_title
;
Structure prediction by ZEFSAII (Michael W. Deem and Ramdas Pophale) SiO2 
 PCOD9526969
Probable space group: I B A M
;
_chemical_formula_sum "Si O2"
_cell_formula_units_Z 88
_cell_length_a 19.371711
_cell_length_b 11.305165
_cell_length_c 19.712516
_cell_angle_alpha 90.000000
_cell_angle_beta 90.000000
_cell_angle_gamma 90.000000
_cell_volume 4317.048676
_symmetry_space_group_name_H-M "I B A M"
_symmetry_group_IT_number 72
_symmetry_cell_setting 'orthorhombic'
loop_
_space_group_symop_operation_xyz
x,y,z
-x,-y,z
x,-y,1/2-z
-x,y,1/2-z
-x,-y,-z
x,y,-z
-x,y,1/2+z
x,-y,1/2+z
1/2+x,1/2+y,1/2+z
1/2-x,1/2-y,1/2+z
1/2+x,1/2-y,-z
1/2-x,1/2+y,-z
1/2-x,1/2-y,1/2-z
1/2+x,1/2+y,1/2-z
1/2-x,1/2+y,z
1/2+x,1/2-y,z
loop_
_atom_site_type_symbol
_atom_site_label
_atom_site_fract_x
_atom_site_fract_y
_atom_site_fract_z
Si Si1 0.500208 0.309750 0.500000
Si Si2 0.267960 0.000000 0.250000
Si Si3 0.364175 0.152294 0.662950
Si Si4 0.145952 0.416328 0.421150
Si Si5 0.797132 0.104348 0.618091
Si Si6 0.882759 0.008488 0.000000
Si Si7 0.507393 0.135887 0.622647
O O1 0.443635 0.411771 0.500000
O O2 0.576691 0.367637 0.500000
O O3 0.489088 0.229074 0.565162
O O4 0.317864 0.105928 0.275007
O O5 0.221192 0.038637 0.187600
O O6 0.339581 0.278196 0.635769
O O7 0.446666 0.150188 0.677706
O O8 0.351485 0.052268 0.604819
O O9 0.124333 0.409551 0.500000
O O10 0.222281 0.364364 0.413281
O O11 0.090045 0.354524 0.371378
O O12 0.836848 0.019358 0.565881
O O13 0.500000 0.000000 0.598510
#
# Coordination Sequence:
#
# PCOD9526969 Si02
#       7
#     8   8  16  16  16   8  16
#     4  11  21  37  59  99 140 160 204 271 327 391
#     4  10  24  44  61  93 126 174 232 272 322 399
#     4  10  22  38  65  82 123 170 215 264 331 389
#     4  10  21  33  56 100 128 152 207 262 326 387
#     4  11  22  42  64  91 127 176 216 269 332 394
#     4  11  24  37  65 101 128 169 221 261 336 396
#     4  10  20  35  61  93 125 171 203 265 333 386
#
# _framework density 20.384295000000002
#
# number of rings (size 3 to 8) (size 9 to 14) (size 15 to 20)
#    0.000    1.636    3.636    0.818    5.091    2.909 
#    0.000   13.182    0.000    2.182    0.000    0.000 
#    0.000    0.000    0.000    0.000    0.000    0.000 
#
# Total GULP energy -245403.547740 kJ/mol
# GULP energy per Si atom -5577.353358 kJ/mol
# Density = 2.033790 g / cm^3
# Si number density = 20.384295 Si / 1000 Ang^3
#
#
#
# Elastic Constant Matrix: (Units=GPa)
#
#
# Indices 1 2 3 4 5 6 
#
# 1 148.9754 25.6612 42.3455 0.0000 0.0000 0.0000
# 2 25.6612 47.7184 20.6878 0.0000 0.0000 0.0000
# 3 42.3455 20.6878 96.0713 0.0000 0.0000 0.0000
# 4 0.0000 0.0000 0.0000 11.9520 0.0000 0.0000
# 5 0.0000 0.0000 0.0000 0.0000 21.3984 0.0000
# 6 0.0000 0.0000 0.0000 0.0000 0.0000 21.9309
#
#
#
# Elastic Compliance Matrix: (Units=1/GPa)
#
#
# Indices 1 2 3 4 5 6 
#
# 1 0.008065 -0.003084 -0.002891 0.000000 0.000000 0.000000
# 2 -0.003084 0.024293 -0.003872 0.000000 0.000000 0.000000
# 3 -0.002891 -0.003872 0.012517 0.000000 0.000000 0.000000
# 4 0.000000 0.000000 0.000000 0.083668 0.000000 0.000000
# 5 0.000000 0.000000 0.000000 0.000000 0.046732 0.000000
# 6 0.000000 0.000000 0.000000 0.000000 0.000000 0.045598
#
#
# Mechanical properties :
#
#
# Convention : Reuss Voigt Hill
#
# Bulk Modulus (GPa) = 39.71081 52.23935 45.97508
# Shear Modulus (GPa) = 20.08343 24.66098 22.37221
#
# Velocity S-wave (km/s) = 3.14226 3.48200 3.31648
# Velocity P-wave (km/s) = 5.71738 6.46905 6.10480
#
# Compressibility (1/GPa) = 0.02518206
#
# Stress axis : x y z
#
# Youngs Moduli (GPa) = 123.98537 41.16353 79.89163
#
# Poissons Ratio (x) = 0.12695 0.23096
# Poissons Ratio (y) = 0.38237 0.30934
# Poissons Ratio (z) = 0.35843 0.15938
#
# Static dielectric constant tensor:
#      x y z
#    x 1.802480 0.000000 0.000000 
#    y 0.000000 1.699800 0.000000 
#    z 0.000000 0.000000 1.718410 
# 
# From -- ./inp_files/38916.got.cif
#   From: 2010.05.17/outbox.cif.g08.bks.cpg/sg72_20_cif.got.tgz:38916.got - 2010.06.03 17:03:01.
