data_PCOD9526949
_publ_section_title
;
Structure prediction by ZEFSAII (Michael W. Deem and Ramdas Pophale) SiO2 
 PCOD9526949
Probable space group: I B A M
;
_chemical_formula_sum "Si O2"
_cell_formula_units_Z 116
_cell_length_a 9.806742
_cell_length_b 34.695551
_cell_length_c 17.463978
_cell_angle_alpha 90.000000
_cell_angle_beta 90.000000
_cell_angle_gamma 90.000000
_cell_volume 5942.124054
_symmetry_space_group_name_H-M "I B A M"
_symmetry_group_IT_number 72
_symmetry_cell_setting 'orthorhombic'
loop_
_space_group_symop_operation_xyz
x,y,z
-x,-y,z
x,-y,1/2-z
-x,y,1/2-z
-x,-y,-z
x,y,-z
-x,y,1/2+z
x,-y,1/2+z
1/2+x,1/2+y,1/2+z
1/2-x,1/2-y,1/2+z
1/2+x,1/2-y,-z
1/2-x,1/2+y,-z
1/2-x,1/2-y,1/2-z
1/2+x,1/2+y,1/2-z
1/2-x,1/2+y,z
1/2+x,1/2-y,z
loop_
_atom_site_type_symbol
_atom_site_label
_atom_site_fract_x
_atom_site_fract_y
_atom_site_fract_z
Si Si1 0.000000 0.500000 0.750000
Si Si2 0.664209 0.498553 0.584920
Si Si3 0.005064 0.212686 0.842038
Si Si4 0.624696 0.435940 0.197210
Si Si5 0.678967 0.064045 0.170192
Si Si6 0.497140 0.629486 0.410185
Si Si7 0.332282 0.863923 0.911224
Si Si8 0.702345 0.222283 0.092863
O O1 0.085780 0.529167 0.697866
O O2 0.500000 0.500000 0.582120
O O3 0.715954 0.507888 0.500000
O O4 0.695058 0.530422 0.648577
O O5 0.719186 0.456976 0.610153
O O6 0.855982 0.223366 0.875172
O O7 0.000000 0.210683 0.750000
O O8 0.041226 0.170905 0.877161
O O9 0.112019 0.244225 0.871234
O O10 0.500000 0.451350 0.250000
O O11 0.734197 0.420954 0.257741
O O12 0.563590 0.403912 0.140918
O O13 0.604092 0.100601 0.134325
O O14 0.531554 0.625155 0.500000
O O15 0.332052 0.629753 0.404672
O O16 0.357033 0.820085 0.886168
O O17 0.369248 0.866907 0.000000
O O18 0.705724 0.224598 0.000000
#
# Coordination Sequence:
#
# PCOD9526949 Si02
#       8
#     4  16  16  16  16  16  16  16
#     4  12  28  44  56  80 112 176 210 254 288 356
#     4  11  21  34  58  90 117 142 183 246 313 368
#     4  11  22  38  62  95 131 169 215 259 311 372
#     4  12  20  33  59  90 117 144 183 251 310 361
#     4  12  23  40  60  79 115 154 208 247 301 355
#     4  10  20  35  59  94 128 155 189 245 320 380
#     4   9  19  37  62  88 117 156 198 244 305 373
#     4  10  21  40  64  92 129 170 209 257 317 379
#
# _framework density 19.521639
#
# number of rings (size 3 to 8) (size 9 to 14) (size 15 to 20)
#    0.000    1.241    4.138    3.724    1.931    2.207 
#    1.241    1.379    0.000    1.655    0.000    0.000 
#    0.000    0.000    0.000    0.000    0.000    0.000 
#
# Total GULP energy -323935.203861 kJ/mol
# GULP energy per Si atom -5585.089722 kJ/mol
# Density = 1.947721 g / cm^3
# Si number density = 19.521639 Si / 1000 Ang^3
#
#
#
# Elastic Constant Matrix: (Units=GPa)
#
#
# Indices 1 2 3 4 5 6 
#
# 1 25.8219 19.9679 12.1249 0.0000 0.0000 0.0000
# 2 19.9679 127.1721 52.2922 0.0000 0.0000 0.0000
# 3 12.1249 52.2922 123.3629 0.0001 0.0000 0.0000
# 4 0.0000 0.0000 0.0001 36.8509 0.0000 0.0000
# 5 0.0000 0.0000 0.0000 0.0000 9.4263 0.0000
# 6 0.0000 0.0000 0.0000 0.0000 0.0000 27.2793
#
#
#
# Elastic Compliance Matrix: (Units=1/GPa)
#
#
# Indices 1 2 3 4 5 6 
#
# 1 0.044373 -0.006266 -0.001705 0.000000 0.000000 0.000000
# 2 -0.006266 0.010408 -0.003796 0.000000 0.000000 0.000000
# 3 -0.001705 -0.003796 0.009883 0.000000 0.000000 0.000000
# 4 0.000000 0.000000 0.000000 0.027136 0.000000 0.000000
# 5 0.000000 0.000000 0.000000 0.000000 0.106086 0.000000
# 6 0.000000 0.000000 0.000000 0.000000 0.000000 0.036658
#
#
# Mechanical properties :
#
#
# Convention : Reuss Voigt Hill
#
# Bulk Modulus (GPa) = 24.31348 49.45853 36.88601
# Shear Modulus (GPa) = 18.39669 27.50945 22.95307
#
# Velocity S-wave (km/s) = 3.07314 3.75797 3.43268
# Velocity P-wave (km/s) = 5.00739 6.64982 5.88617
#
# Compressibility (1/GPa) = 0.04112945
#
# Stress axis : x y z
#
# Youngs Moduli (GPa) = 22.53626 96.07879 101.18539
#
# Poissons Ratio (x) = 0.60204 0.17253
# Poissons Ratio (y) = 0.14121 0.38410
# Poissons Ratio (z) = 0.03843 0.36472
#
# Static dielectric constant tensor:
#      x y z
#    x 1.695010 0.000000 0.000000 
#    y 0.000000 1.692200 0.000000 
#    z 0.000000 0.000000 1.703390 
# 
# From -- ./inp_files/29796.got.cif
#   From: 2010.05.17/outbox.cif.g08.bks.cpg/sg72_15_cif.got.tgz:29796.got - 2010.06.03 17:03:01.
