data_PCOD9526955
_publ_section_title
;
Structure prediction by ZEFSAII (Michael W. Deem and Ramdas Pophale) SiO2 
 PCOD9526955
Probable space group: I B A M
;
_chemical_formula_sum "Si O2"
_cell_formula_units_Z 64
_cell_length_a 17.747614
_cell_length_b 11.094206
_cell_length_c 14.883063
_cell_angle_alpha 90.000000
_cell_angle_beta 90.000000
_cell_angle_gamma 90.000000
_cell_volume 2930.410895
_symmetry_space_group_name_H-M "I B A M"
_symmetry_group_IT_number 72
_symmetry_cell_setting 'orthorhombic'
loop_
_space_group_symop_operation_xyz
x,y,z
-x,-y,z
x,-y,1/2-z
-x,y,1/2-z
-x,-y,-z
x,y,-z
-x,y,1/2+z
x,-y,1/2+z
1/2+x,1/2+y,1/2+z
1/2-x,1/2-y,1/2+z
1/2+x,1/2-y,-z
1/2-x,1/2+y,-z
1/2-x,1/2-y,1/2-z
1/2+x,1/2+y,1/2-z
1/2-x,1/2+y,z
1/2+x,1/2-y,z
loop_
_atom_site_type_symbol
_atom_site_label
_atom_site_fract_x
_atom_site_fract_y
_atom_site_fract_z
Si Si1 0.720638 0.121128 0.151803
Si Si2 0.967552 0.123612 0.350996
Si Si3 0.447084 0.110240 0.395507
Si Si4 0.787309 0.880771 0.146715
O O1 0.630398 0.111672 0.159902
O O2 0.759080 0.123694 0.249857
O O3 0.735239 0.250925 0.107401
O O4 0.751600 0.000793 0.106189
O O5 0.984048 0.256810 0.389463
O O6 0.877344 0.110551 0.353382
O O7 0.000000 0.127418 0.250000
O O8 0.000000 0.000000 0.392519
O O9 0.426467 0.090396 0.500000
O O10 0.500000 0.000000 0.367350
#
# Coordination Sequence:
#
# PCOD9526955 Si02
#       4
#    16  16  16  16
#     4   9  17  32  52  73 106 138 169 221 272 311
#     4  10  20  35  60  88 111 139 180 229 281 328
#     4  10  23  39  53  77 113 150 189 226 265 325
#     4   9  18  31  52  82 106 130 174 225 268 324
#
# _framework density 21.839941
#
# number of rings (size 3 to 8) (size 9 to 14) (size 15 to 20)
#    0.000    2.500    0.000    3.000    0.000   13.000 
#    0.000    5.000    0.000    4.500    0.000    0.000 
#    0.000    0.000    0.000    0.000    0.000    0.000 
#
# Total GULP energy -178440.257839 kJ/mol
# GULP energy per Si atom -5576.258057 kJ/mol
# Density = 2.179023 g / cm^3
# Si number density = 21.839941 Si / 1000 Ang^3
#
#
#
# Elastic Constant Matrix: (Units=GPa)
#
#
# Indices 1 2 3 4 5 6 
#
# 1 72.0313 90.4281 6.1121 0.0000 0.0000 0.0000
# 2 90.4281 285.2265 11.5574 0.0000 0.0000 0.0000
# 3 6.1121 11.5574 51.8744 0.0000 0.0000 0.0000
# 4 0.0000 0.0000 0.0000 17.5426 0.0000 0.0000
# 5 0.0000 0.0000 0.0000 0.0000 -45.2269 0.0000
# 6 0.0000 0.0000 0.0000 0.0000 0.0000 45.3478
#
#
#
# Elastic Compliance Matrix: (Units=1/GPa)
#
#
# Indices 1 2 3 4 5 6 
#
# 1 0.023124 -0.007287 -0.001101 0.000000 0.000000 0.000000
# 2 -0.007287 0.005834 -0.000441 0.000000 0.000000 0.000000
# 3 -0.001101 -0.000441 0.019505 0.000000 0.000000 0.000000
# 4 0.000000 0.000000 0.000000 0.057004 0.000000 0.000000
# 5 0.000000 0.000000 0.000000 0.000000 -0.022111 0.000000
# 6 0.000000 0.000000 0.000000 0.000000 0.000000 0.022052
#
#
# Mechanical properties :
#
#
# Convention : Reuss Voigt Hill
#
# Bulk Modulus (GPa) = 32.46196 69.48081 50.97139
# Shear Modulus (GPa) = 37.49959 23.60166 30.55063
#
# Velocity S-wave (km/s) = 4.14819 3.29091 3.74417
# Velocity P-wave (km/s) = 6.15135 6.80609 6.48699
#
# Compressibility (1/GPa) = 0.03080529
#
# Stress axis : x y z
#
# Youngs Moduli (GPa) = 43.24543 171.40924 51.26789
#
# Poissons Ratio (x) = 1.24898 0.05645
# Poissons Ratio (y) = 0.31511 0.02262
# Poissons Ratio (z) = 0.04762 0.07563
#
# Static dielectric constant tensor:
#      x y z
#    x 1.743560 0.000000 0.000000 
#    y 0.000000 1.905110 0.000000 
#    z 0.000000 0.000000 1.758800 
# 
# From -- ./inp_files/28781.got.cif
#   From: 2010.05.17/outbox.cif.g08.bks.cpg/sg72_15_cif.got.tgz:28781.got - 2010.06.03 17:03:01.
