data_PCOD9526365
_publ_section_title
;
Structure prediction by ZEFSAII (Michael W. Deem and Ramdas Pophale) SiO2 
 PCOD9526365
Probable space group: I B A M
;
_chemical_formula_sum "Si O2"
_cell_formula_units_Z 64
_cell_length_a 23.726043
_cell_length_b 5.110826
_cell_length_c 21.407610
_cell_angle_alpha 90.000000
_cell_angle_beta 90.000000
_cell_angle_gamma 90.000000
_cell_volume 2595.879883
_symmetry_space_group_name_H-M "I B A M"
_symmetry_group_IT_number 72
_symmetry_cell_setting 'orthorhombic'
loop_
_space_group_symop_operation_xyz
x,y,z
-x,-y,z
x,-y,1/2-z
-x,y,1/2-z
-x,-y,-z
x,y,-z
-x,y,1/2+z
x,-y,1/2+z
1/2+x,1/2+y,1/2+z
1/2-x,1/2-y,1/2+z
1/2+x,1/2-y,-z
1/2-x,1/2+y,-z
1/2-x,1/2-y,1/2-z
1/2+x,1/2+y,1/2-z
1/2-x,1/2+y,z
1/2+x,1/2-y,z
loop_
_atom_site_type_symbol
_atom_site_label
_atom_site_fract_x
_atom_site_fract_y
_atom_site_fract_z
Si Si1 0.562648 0.759039 0.280689
Si Si2 0.500000 0.000000 0.392977
Si Si3 0.432406 0.266842 0.000000
Si Si4 0.788412 0.042102 0.611482
Si Si5 0.364977 0.248311 0.500000
Si Si6 0.208738 0.000000 0.750000
O O1 0.587173 0.500000 0.250000
O O2 0.500000 0.756265 0.250000
O O3 0.595780 0.000000 0.250000
O O4 0.545077 0.836299 0.350770
O O5 0.465482 0.809289 0.437553
O O6 0.379455 0.059520 0.000000
O O7 0.420543 0.573478 0.000000
O O8 0.737271 0.251605 0.604740
O O9 0.831443 0.145845 0.560047
O O10 0.816375 0.035774 0.680209
O O11 0.250000 0.250000 0.750000
#
# Coordination Sequence:
#
# PCOD9526365 Si02
#       6
#    16   8   8  16   8   8
#     4   8  15  28  56  83  98 127 184 252 285 344
#     4   9  21  42  62  84 115 163 220 236 320 355
#     4  11  26  39  60  83 122 171 198 263 290 369
#     4  10  19  36  63  88 118 158 198 242 301 368
#     4  12  24  38  56  91 128 155 206 252 306 352
#     4   8  16  30  56  88 108 149 196 235 280 362
#
# _framework density 24.654454000000001
#
# number of rings (size 3 to 8) (size 9 to 14) (size 15 to 20)
#    0.000    2.750    0.000    2.250    0.000   10.000 
#    0.000    0.000   27.500    0.000    0.000    0.000 
#    0.000    0.000    0.000    0.000    0.000    0.000 
#
# Total GULP energy -178471.560678 kJ/mol
# GULP energy per Si atom -5577.236271 kJ/mol
# Density = 2.459834 g / cm^3
# Si number density = 24.654454 Si / 1000 Ang^3
#
#
#
# Elastic Constant Matrix: (Units=GPa)
#
#
# Indices 1 2 3 4 5 6 
#
# 1 42.1899 -2.4667 41.4999 0.0000 0.0000 0.0000
# 2 -2.4667 150.9741 17.4272 0.0000 0.0000 0.0000
# 3 41.4999 17.4272 184.0620 0.0000 0.0000 0.0000
# 4 0.0000 0.0000 0.0000 11.5449 0.0000 0.0000
# 5 0.0000 0.0000 0.0000 0.0000 81.2632 0.0000
# 6 0.0000 0.0000 0.0000 0.0000 0.0000 15.7238
#
#
#
# Elastic Compliance Matrix: (Units=1/GPa)
#
#
# Indices 1 2 3 4 5 6 
#
# 1 0.030713 0.001316 -0.007049 0.000000 0.000000 0.000000
# 2 0.001316 0.006753 -0.000936 0.000000 0.000000 0.000000
# 3 -0.007049 -0.000936 0.007111 0.000000 0.000000 0.000000
# 4 0.000000 0.000000 0.000000 0.086618 0.000000 0.000000
# 5 0.000000 0.000000 0.000000 0.000000 0.012306 0.000000
# 6 0.000000 0.000000 0.000000 0.000000 0.000000 0.063598
#
#
# Mechanical properties :
#
#
# Convention : Reuss Voigt Hill
#
# Bulk Modulus (GPa) = 32.01248 54.46074 43.23661
# Shear Modulus (GPa) = 21.65894 43.09077 32.37485
#
# Velocity S-wave (km/s) = 2.96717 4.18519 3.62766
# Velocity P-wave (km/s) = 4.97508 6.74478 5.92636
#
# Compressibility (1/GPa) = 0.03123781
#
# Stress axis : x y z
#
# Youngs Moduli (GPa) = 32.55907 148.07813 140.62759
#
# Poissons Ratio (x) = -0.19480 0.99134
# Poissons Ratio (y) = -0.04283 0.13163
# Poissons Ratio (z) = 0.22952 0.13860
#
# Static dielectric constant tensor:
#      x y z
#    x 1.871080 0.000000 0.000000 
#    y 0.000000 1.790750 0.000000 
#    z 0.000000 0.000000 2.075520 
# 
# From -- ./inp_files/40579.got.cif
#   From: 2010.05.17/outbox.cif.g08.bks.cpg/sg72_21_cif.got.tgz:40579.got - 2010.06.03 17:03:01.
