data_PCOD9526326
_publ_section_title
;
Structure prediction by ZEFSAII (Michael W. Deem and Ramdas Pophale) SiO2 
 PCOD9526326
Probable space group: I B A M
;
_chemical_formula_sum "Si O2"
_cell_formula_units_Z 104
_cell_length_a 14.690332
_cell_length_b 26.530503
_cell_length_c 14.862128
_cell_angle_alpha 90.000000
_cell_angle_beta 90.000000
_cell_angle_gamma 90.000000
_cell_volume 5792.393963
_symmetry_space_group_name_H-M "I B A M"
_symmetry_group_IT_number 72
_symmetry_cell_setting 'orthorhombic'
loop_
_space_group_symop_operation_xyz
x,y,z
-x,-y,z
x,-y,1/2-z
-x,y,1/2-z
-x,-y,-z
x,y,-z
-x,y,1/2+z
x,-y,1/2+z
1/2+x,1/2+y,1/2+z
1/2-x,1/2-y,1/2+z
1/2+x,1/2-y,-z
1/2-x,1/2+y,-z
1/2-x,1/2-y,1/2-z
1/2+x,1/2+y,1/2-z
1/2-x,1/2+y,z
1/2+x,1/2-y,z
loop_
_atom_site_type_symbol
_atom_site_label
_atom_site_fract_x
_atom_site_fract_y
_atom_site_fract_z
Si Si1 0.308816 0.265557 0.601189
Si Si2 0.315225 0.934400 0.000000
Si Si3 0.591651 0.222328 0.601943
Si Si4 0.720102 0.150129 0.153041
Si Si5 0.585849 0.880711 0.810195
Si Si6 0.893631 0.511626 0.644538
Si Si7 0.094227 0.184201 0.729687
O O1 0.342212 0.275203 0.500000
O O2 0.201879 0.279941 0.604363
O O3 0.311395 0.205937 0.622314
O O4 0.360273 0.295440 0.678844
O O5 0.299241 0.891013 0.921875
O O6 0.336229 0.976951 0.921126
O O7 0.563458 0.233315 0.500000
O O8 0.556136 0.168164 0.633603
O O9 0.567211 0.267142 0.669300
O O10 0.664483 0.136151 0.242327
O O11 0.827208 0.154811 0.176431
O O12 0.500000 0.897778 0.750000
O O13 0.617218 0.928349 0.867956
O O14 0.874516 0.500000 0.750000
O O15 0.000000 0.500000 0.626870
O O16 0.000000 0.156151 0.750000
#
# Coordination Sequence:
#
# PCOD9526326 Si02
#       7
#    16   8  16  16  16  16  16
#     4  10  19  36  57  82 119 156 199 251 295 353
#     4  12  23  38  62  86 117 160 202 250 306 353
#     4  10  21  35  55  84 121 159 199 244 294 362
#     4  11  21  38  60  82 116 160 203 239 295 363
#     4  12  21  37  57  81 120 162 196 245 301 354
#     4  11  22  39  53  83 125 158 203 258 298 355
#     4  11  22  39  56  85 126 158 196 252 298 358
#
# _framework density 17.954578999999999
#
# number of rings (size 3 to 8) (size 9 to 14) (size 15 to 20)
#    0.000    1.077    6.923    1.615    2.154    0.615 
#    1.385    0.000    0.000    0.000    0.000    3.231 
#    0.000    0.000    0.000    0.000    0.000    0.000 
#
# Total GULP energy -289494.343553 kJ/mol
# GULP energy per Si atom -5567.198914 kJ/mol
# Density = 1.791371 g / cm^3
# Si number density = 17.954579 Si / 1000 Ang^3
#
#
#
# Elastic Constant Matrix: (Units=GPa)
#
#
# Indices 1 2 3 4 5 6 
#
# 1 30.9385 2.2594 6.7207 0.0000 0.0000 0.0000
# 2 2.2594 76.9568 22.8148 0.0001 0.0000 0.0000
# 3 6.7207 22.8148 101.4097 0.0001 0.0000 0.0000
# 4 0.0000 0.0001 0.0001 31.7085 0.0000 0.0000
# 5 0.0000 0.0000 0.0000 0.0000 4.9487 0.0000
# 6 0.0000 0.0000 0.0000 0.0000 0.0000 11.3686
#
#
#
# Elastic Compliance Matrix: (Units=1/GPa)
#
#
# Indices 1 2 3 4 5 6 
#
# 1 0.032803 -0.000341 -0.002097 0.000000 0.000000 0.000000
# 2 -0.000341 0.013926 -0.003111 0.000000 0.000000 0.000000
# 3 -0.002097 -0.003111 0.010700 0.000000 0.000000 0.000000
# 4 0.000000 0.000000 0.000000 0.031537 0.000000 0.000000
# 5 0.000000 0.000000 0.000000 0.000000 0.202073 0.000000
# 6 0.000000 0.000000 0.000000 0.000000 0.000000 0.087962
#
#
# Mechanical properties :
#
#
# Convention : Reuss Voigt Hill
#
# Bulk Modulus (GPa) = 21.58384 30.32163 25.95273
# Shear Modulus (GPa) = 12.32915 21.43917 16.88416
#
# Velocity S-wave (km/s) = 2.62331 3.45929 3.06989
# Velocity P-wave (km/s) = 4.60686 5.73413 5.20112
#
# Compressibility (1/GPa) = 0.04633096
#
# Stress axis : x y z
#
# Youngs Moduli (GPa) = 30.48536 71.80569 93.46003
#
# Poissons Ratio (x) = 0.02451 0.19600
# Poissons Ratio (y) = 0.01041 0.29071
# Poissons Ratio (z) = 0.06393 0.22335
#
# Static dielectric constant tensor:
#      x y z
#    x 1.648370 0.000000 0.000000 
#    y 0.000000 1.614730 0.000000 
#    z 0.000000 0.000000 1.622620 
# 
# From -- ./inp_files/23498.got.cif
#   From: 2010.05.17/outbox.cif.g08.bks.cpg/sg72_12_cif.got.tgz:23498.got - 2010.06.03 17:03:01.
