data_PCOD9526278
_publ_section_title
;
Structure prediction by ZEFSAII (Michael W. Deem and Ramdas Pophale) SiO2 
 PCOD9526278
Probable space group: I B A M
;
_chemical_formula_sum "Si O2"
_cell_formula_units_Z 116
_cell_length_a 22.716583
_cell_length_b 26.426866
_cell_length_c 10.100935
_cell_angle_alpha 90.000000
_cell_angle_beta 90.000000
_cell_angle_gamma 90.000000
_cell_volume 6063.875065
_symmetry_space_group_name_H-M "I B A M"
_symmetry_group_IT_number 72
_symmetry_cell_setting 'orthorhombic'
loop_
_space_group_symop_operation_xyz
x,y,z
-x,-y,z
x,-y,1/2-z
-x,y,1/2-z
-x,-y,-z
x,y,-z
-x,y,1/2+z
x,-y,1/2+z
1/2+x,1/2+y,1/2+z
1/2-x,1/2-y,1/2+z
1/2+x,1/2-y,-z
1/2-x,1/2+y,-z
1/2-x,1/2-y,1/2-z
1/2+x,1/2+y,1/2-z
1/2-x,1/2+y,z
1/2+x,1/2-y,z
loop_
_atom_site_type_symbol
_atom_site_label
_atom_site_fract_x
_atom_site_fract_y
_atom_site_fract_z
Si Si1 0.549402 0.890205 0.655076
Si Si2 0.398624 0.425858 0.650644
Si Si3 0.668484 0.954478 0.651109
Si Si4 0.556063 0.310842 0.844012
Si Si5 0.256114 0.798750 0.841552
Si Si6 0.796262 0.905033 0.343948
Si Si7 0.388789 0.793192 0.158594
Si Si8 0.500000 0.500000 0.750000
O O1 0.500000 0.913036 0.750000
O O2 0.531378 0.889803 0.500000
O O3 0.611853 0.918504 0.662198
O O4 0.563490 0.833354 0.705855
O O5 0.377679 0.433144 0.500000
O O6 0.418534 0.367364 0.666959
O O7 0.345734 0.431647 0.755213
O O8 0.454589 0.462607 0.674031
O O9 0.670350 0.972862 0.500000
O O10 0.731325 0.927999 0.675968
O O11 0.661168 0.000000 0.750000
O O12 0.500000 0.307079 0.750000
O O13 0.599418 0.264854 0.803376
O O14 0.541004 0.303770 0.000000
O O15 0.250000 0.750000 0.750000
O O16 0.212548 0.845253 0.812284
O O17 0.323762 0.813413 0.812838
O O18 0.251477 0.787710 0.000000
O O19 0.811126 0.909303 0.500000
O O20 0.392954 0.794377 0.000000
#
# Coordination Sequence:
#
# PCOD9526278 Si02
#       8
#    16  16  16  16  16  16  16   4
#     4  10  20  37  60  87 120 159 202 245 298 359
#     4  11  25  43  65  92 121 159 206 260 316 375
#     4  10  22  41  62  87 120 160 203 251 306 366
#     4  10  20  36  57  84 117 155 198 248 302 359
#     4  10  19  35  59  88 124 164 201 245 304 366
#     4  10  22  41  65  92 124 163 205 254 314 374
#     4   9  17  33  58  83 117 160 197 239 296 362
#     4  12  26  48  68  90 126 168 210 258 328 384
#
# _framework density 19.129681000000001
#
# number of rings (size 3 to 8) (size 9 to 14) (size 15 to 20)
#    0.000    1.931    2.069    1.448    0.966    4.690 
#    0.000    2.759    0.000    0.000    0.000    0.000 
#    0.000    0.000    0.000    0.000    0.000    0.000 
#
# Total GULP energy -323339.325527 kJ/mol
# GULP energy per Si atom -5574.815957 kJ/mol
# Density = 1.908614 g / cm^3
# Si number density = 19.129681 Si / 1000 Ang^3
#
#
#
# Elastic Constant Matrix: (Units=GPa)
#
#
# Indices 1 2 3 4 5 6 
#
# 1 108.5904 24.8350 64.6901 0.0000 0.0000 0.0000
# 2 24.8350 83.1474 48.7409 0.0000 0.0000 0.0000
# 3 64.6901 48.7409 69.0767 0.0000 0.0000 0.0000
# 4 0.0000 0.0000 0.0000 23.9961 0.0000 0.0000
# 5 0.0000 0.0000 0.0000 0.0000 32.6748 0.0000
# 6 0.0000 0.0000 0.0000 0.0000 0.0000 27.8312
#
#
#
# Elastic Compliance Matrix: (Units=1/GPa)
#
#
# Indices 1 2 3 4 5 6 
#
# 1 0.025559 0.010910 -0.031634 0.000000 0.000000 0.000000
# 2 0.010910 0.025167 -0.027975 0.000000 0.000000 0.000000
# 3 -0.031634 -0.027975 0.063841 0.000000 0.000000 0.000000
# 4 0.000000 0.000000 0.000000 0.041673 0.000000 0.000000
# 5 0.000000 0.000000 0.000000 0.000000 0.030605 0.000000
# 6 0.000000 0.000000 0.000000 0.000000 0.000000 0.035931
#
#
# Mechanical properties :
#
#
# Convention : Reuss Voigt Hill
#
# Bulk Modulus (GPa) = 58.24514 59.70518 58.97516
# Shear Modulus (GPa) = 15.34230 25.07031 20.20631
#
# Velocity S-wave (km/s) = 2.83506 3.62407 3.25357
# Velocity P-wave (km/s) = 6.42109 6.98501 6.70898
#
# Compressibility (1/GPa) = 0.01716881
#
# Stress axis : x y z
#
# Youngs Moduli (GPa) = 39.12540 39.73433 15.66399
#
# Poissons Ratio (x) = -0.43348 0.49551
# Poissons Ratio (y) = -0.42684 0.43820
# Poissons Ratio (z) = 1.23768 1.11156
#
# Static dielectric constant tensor:
#      x y z
#    x 1.677750 0.000000 0.000000 
#    y 0.000000 1.712050 0.000000 
#    z 0.000000 0.000000 1.636310 
# 
# From -- ./inp_files/7337.got.cif
#   From: 2010.05.17/outbox.cif.g08.bks.cpg/sg72_4_cif.got.tgz:7337.got - 2010.06.03 17:03:01.
