data_PCOD9526502
_publ_section_title
;
Structure prediction by ZEFSAII (Michael W. Deem and Ramdas Pophale) SiO2 
 PCOD9526502
Probable space group: I B A M
;
_chemical_formula_sum "Si O2"
_cell_formula_units_Z 96
_cell_length_a 23.386029
_cell_length_b 9.266119
_cell_length_c 22.623283
_cell_angle_alpha 90.000000
_cell_angle_beta 90.000000
_cell_angle_gamma 90.000000
_cell_volume 4902.414018
_symmetry_space_group_name_H-M "I B A M"
_symmetry_group_IT_number 72
_symmetry_cell_setting 'orthorhombic'
loop_
_space_group_symop_operation_xyz
x,y,z
-x,-y,z
x,-y,1/2-z
-x,y,1/2-z
-x,-y,-z
x,y,-z
-x,y,1/2+z
x,-y,1/2+z
1/2+x,1/2+y,1/2+z
1/2-x,1/2-y,1/2+z
1/2+x,1/2-y,-z
1/2-x,1/2+y,-z
1/2-x,1/2-y,1/2-z
1/2+x,1/2+y,1/2-z
1/2-x,1/2+y,z
1/2+x,1/2-y,z
loop_
_atom_site_type_symbol
_atom_site_label
_atom_site_fract_x
_atom_site_fract_y
_atom_site_fract_z
Si Si1 0.000000 0.263166 0.250000
Si Si2 0.727985 0.802577 0.933920
Si Si3 0.878534 0.442224 0.115755
Si Si4 0.792453 0.027418 0.859218
Si Si5 0.000000 0.500000 0.353121
Si Si6 0.181113 0.625101 0.704014
Si Si7 0.378460 0.321033 0.210646
O O1 0.989199 0.367705 0.306886
O O2 0.057371 0.174880 0.264723
O O3 0.668936 0.894126 0.930965
O O4 0.712415 0.641674 0.913087
O O5 0.770099 0.876827 0.885632
O O6 0.751597 0.804599 0.000000
O O7 0.854919 0.587824 0.145989
O O8 0.876706 0.310418 0.163151
O O9 0.945212 0.467258 0.106580
O O10 0.745794 0.090049 0.813135
O O11 0.852650 0.045785 0.826018
O O12 0.163634 0.500000 0.750000
O O13 0.163947 0.770116 0.736881
#
# Coordination Sequence:
#
# PCOD9526502 Si02
#       7
#     8  16  16  16   8  16  16
#     4   9  14  20  40  64  99 132 150 181 225 296
#     4  10  20  35  49  67  94 127 168 217 255 283
#     4   8  15  24  41  65  95 126 157 191 237 291
#     4  10  20  31  49  71  97 128 163 201 247 295
#     4   9  12  22  39  64  96 130 157 176 233 306
#     4   9  15  27  43  70 103 128 152 188 231 294
#     4   9  15  24  39  68  99 125 154 182 234 289
#
# _framework density 19.582190000000001
#
# number of rings (size 3 to 8) (size 9 to 14) (size 15 to 20)
#    0.000    2.833    1.667    2.000    0.000    0.000 
#    0.000    0.417    0.000    0.000    0.000    5.250 
#    0.000    1.333    0.000    0.000    0.000    0.000 
#
# Total GULP energy -267397.087433 kJ/mol
# GULP energy per Si atom -5570.772655 kJ/mol
# Density = 1.953762 g / cm^3
# Si number density = 19.582190 Si / 1000 Ang^3
#
#
#
# Elastic Constant Matrix: (Units=GPa)
#
#
# Indices 1 2 3 4 5 6 
#
# 1 61.3748 -1.7923 -2.8852 0.0000 0.0000 0.0000
# 2 -1.7923 60.1454 12.7031 0.0000 0.0000 0.0000
# 3 -2.8852 12.7031 39.7805 0.0000 0.0000 0.0000
# 4 0.0000 0.0000 0.0000 1.5107 0.0000 0.0000
# 5 0.0000 0.0000 0.0000 0.0000 12.9343 0.0000
# 6 0.0000 0.0000 0.0000 0.0000 0.0000 16.4693
#
#
#
# Elastic Compliance Matrix: (Units=1/GPa)
#
#
# Indices 1 2 3 4 5 6 
#
# 1 0.016353 0.000254 0.001105 0.000000 0.000000 0.000000
# 2 0.000254 0.017833 -0.005676 0.000000 0.000000 0.000000
# 3 0.001105 -0.005676 0.027031 0.000000 0.000000 0.000000
# 4 0.000000 0.000000 0.000000 0.661937 0.000000 0.000000
# 5 0.000000 0.000000 0.000000 0.000000 0.077314 0.000000
# 6 0.000000 0.000000 0.000000 0.000000 0.000000 0.060719
#
#
# Mechanical properties :
#
#
# Convention : Reuss Voigt Hill
#
# Bulk Modulus (GPa) = 19.01807 19.70578 19.36193
# Shear Modulus (GPa) = 5.63477 16.40121 11.01799
#
# Velocity S-wave (km/s) = 1.69816 2.89720 2.37461
# Velocity P-wave (km/s) = 3.68483 4.61266 4.17460
#
# Compressibility (1/GPa) = 0.05258156
#
# Stress axis : x y z
#
# Youngs Moduli (GPa) = 61.15207 56.07654 36.99504
#
# Poissons Ratio (x) = -0.01424 -0.04088
# Poissons Ratio (y) = -0.01553 0.20999
# Poissons Ratio (z) = -0.06757 0.31830
#
# Static dielectric constant tensor:
#      x y z
#    x 1.719130 0.000000 0.000000 
#    y 0.000000 1.718230 0.000000 
#    z 0.000000 0.000000 1.685460 
# 
# From -- ./inp_files/45699.got.cif
#   From: 2010.05.17/outbox.cif.g08.bks.cpg/sg72_23_cif.got.tgz:45699.got - 2010.06.03 17:03:01.
