data_PCOD9526823
_publ_section_title
;
Structure prediction by ZEFSAII (Michael W. Deem and Ramdas Pophale) SiO2 
 PCOD9526823
Probable space group: I B A M
;
_chemical_formula_sum "Si O2"
_cell_formula_units_Z 116
_cell_length_a 24.643234
_cell_length_b 19.030416
_cell_length_c 14.389624
_cell_angle_alpha 90.000000
_cell_angle_beta 90.000000
_cell_angle_gamma 90.000000
_cell_volume 6748.316279
_symmetry_space_group_name_H-M "I B A M"
_symmetry_group_IT_number 72
_symmetry_cell_setting 'orthorhombic'
loop_
_space_group_symop_operation_xyz
x,y,z
-x,-y,z
x,-y,1/2-z
-x,y,1/2-z
-x,-y,-z
x,y,-z
-x,y,1/2+z
x,-y,1/2+z
1/2+x,1/2+y,1/2+z
1/2-x,1/2-y,1/2+z
1/2+x,1/2-y,-z
1/2-x,1/2+y,-z
1/2-x,1/2-y,1/2-z
1/2+x,1/2+y,1/2-z
1/2-x,1/2+y,z
1/2+x,1/2-y,z
loop_
_atom_site_type_symbol
_atom_site_label
_atom_site_fract_x
_atom_site_fract_y
_atom_site_fract_z
Si Si1 0.408673 0.292609 0.249400
Si Si2 0.827764 0.918130 0.746846
Si Si3 0.763359 0.409710 0.107913
Si Si4 0.997528 0.249588 0.891185
Si Si5 0.773056 0.424107 0.390020
Si Si6 0.848968 0.648876 0.257332
Si Si7 0.962233 0.405960 0.835304
Si Si8 0.500000 0.000000 0.500000
O O1 0.377910 0.365913 0.245155
O O2 0.450998 0.279046 0.333509
O O3 0.444420 0.283445 0.156448
O O4 0.365412 0.229477 0.256354
O O5 0.793510 0.902916 0.839865
O O6 0.784041 0.908090 0.662673
O O7 0.843493 0.000000 0.750000
O O8 0.780708 0.491592 0.120238
O O9 0.805768 0.361081 0.160719
O O10 0.759917 0.394287 0.000000
O O11 0.988876 0.333082 0.873929
O O12 0.002241 0.236033 0.000000
O O13 0.771780 0.407750 0.500000
O O14 0.820760 0.384910 0.333598
O O15 0.903388 0.610005 0.292169
O O16 0.963719 0.461084 0.918147
O O17 0.000000 0.426263 0.750000
#
# Coordination Sequence:
#
# PCOD9526823 Si02
#       8
#    16  16  16  16  16  16  16   4
#     4  10  21  37  59  82 106 147 183 232 284 338
#     4   9  19  38  61  82 109 139 180 228 285 350
#     4   9  19  34  53  79 113 150 180 224 277 329
#     4  10  20  40  59  75 114 150 182 225 288 337
#     4   9  19  36  54  80 115 151 184 226 280 334
#     4  10  20  35  53  77 111 146 186 233 274 325
#     4  11  22  41  52  80 115 149 198 244 270 315
#     4  12  26  32  60  82 108 156 208 232 272 318
#
# _framework density 17.189473
#
# number of rings (size 3 to 8) (size 9 to 14) (size 15 to 20)
#    0.000    2.207    3.448    1.448    0.966    6.621 
#    3.724    2.759    0.000    0.828    0.000    0.000 
#    0.000    0.000    0.000    0.000    0.000    0.000 
#
# Total GULP energy -322914.862936 kJ/mol
# GULP energy per Si atom -5567.497637 kJ/mol
# Density = 1.715035 g / cm^3
# Si number density = 17.189473 Si / 1000 Ang^3
#
#
#
# Elastic Constant Matrix: (Units=GPa)
#
#
# Indices 1 2 3 4 5 6 
#
# 1 64.3387 52.9886 36.9984 0.0000 0.0000 0.0000
# 2 52.9886 67.1906 38.0294 0.0000 0.0000 0.0000
# 3 36.9984 38.0294 150.3740 0.0000 0.0000 0.0000
# 4 0.0000 0.0000 0.0000 5.0618 0.0000 0.0000
# 5 0.0000 0.0000 0.0000 0.0000 5.8277 0.0000
# 6 0.0000 0.0000 0.0000 0.0000 0.0000 31.9574
#
#
#
# Elastic Compliance Matrix: (Units=1/GPa)
#
#
# Indices 1 2 3 4 5 6 
#
# 1 0.045108 -0.034185 -0.002453 0.000000 0.000000 0.000000
# 2 -0.034185 0.043276 -0.002534 0.000000 0.000000 0.000000
# 3 -0.002453 -0.002534 0.007894 0.000000 0.000000 0.000000
# 4 0.000000 0.000000 0.000000 0.197556 0.000000 0.000000
# 5 0.000000 0.000000 0.000000 0.000000 0.171595 0.000000
# 6 0.000000 0.000000 0.000000 0.000000 0.000000 0.031292
#
#
# Mechanical properties :
#
#
# Convention : Reuss Voigt Hill
#
# Bulk Modulus (GPa) = 55.75618 59.77069 57.76343
# Shear Modulus (GPa) = 8.60521 18.82851 13.71686
#
# Velocity S-wave (km/s) = 2.23986 3.31320 2.82792
# Velocity P-wave (km/s) = 6.26067 7.03445 6.65881
#
# Compressibility (1/GPa) = 0.01793523
#
# Stress axis : x y z
#
# Youngs Moduli (GPa) = 22.16913 23.10731 126.67219
#
# Poissons Ratio (x) = 0.78992 0.31074
# Poissons Ratio (y) = 0.75785 0.32093
# Poissons Ratio (z) = 0.05438 0.05854
#
# Static dielectric constant tensor:
#      x y z
#    x 1.576620 0.000000 0.000000 
#    y 0.000000 1.606110 0.000000 
#    z 0.000000 0.000000 1.580500 
# 
# From -- ./inp_files/25400.got.cif
#   From: 2010.05.17/outbox.cif.g08.bks.cpg/sg72_13_cif.got.tgz:25400.got - 2010.06.03 17:03:01.
