data_PCOD9526687
_publ_section_title
;
Structure prediction by ZEFSAII (Michael W. Deem and Ramdas Pophale) SiO2 
 PCOD9526687
Probable space group: I B A M
;
_chemical_formula_sum "Si O2"
_cell_formula_units_Z 96
_cell_length_a 21.089753
_cell_length_b 21.812649
_cell_length_c 10.546499
_cell_angle_alpha 90.000000
_cell_angle_beta 90.000000
_cell_angle_gamma 90.000000
_cell_volume 4851.636114
_symmetry_space_group_name_H-M "I B A M"
_symmetry_group_IT_number 72
_symmetry_cell_setting 'orthorhombic'
loop_
_space_group_symop_operation_xyz
x,y,z
-x,-y,z
x,-y,1/2-z
-x,y,1/2-z
-x,-y,-z
x,y,-z
-x,y,1/2+z
x,-y,1/2+z
1/2+x,1/2+y,1/2+z
1/2-x,1/2-y,1/2+z
1/2+x,1/2-y,-z
1/2-x,1/2+y,-z
1/2-x,1/2-y,1/2-z
1/2+x,1/2+y,1/2-z
1/2-x,1/2+y,z
1/2+x,1/2-y,z
loop_
_atom_site_type_symbol
_atom_site_label
_atom_site_fract_x
_atom_site_fract_y
_atom_site_fract_z
Si Si1 0.927424 0.407074 0.264199
Si Si2 0.545800 0.673947 0.361710
Si Si3 0.349280 0.912100 0.500000
Si Si4 0.719652 0.824208 0.500000
Si Si5 0.429382 0.469352 0.366174
Si Si6 0.125779 0.280782 0.785572
Si Si7 0.671138 0.224231 0.500000
Si Si8 0.657398 0.951241 0.500000
O O1 0.891954 0.410790 0.128271
O O2 0.925546 0.334955 0.302125
O O3 0.887438 0.440636 0.375396
O O4 0.000000 0.427491 0.250000
O O5 0.500000 0.692676 0.250000
O O6 0.515839 0.681583 0.500000
O O7 0.562219 0.602638 0.347440
O O8 0.605479 0.717458 0.348513
O O9 0.308446 0.848751 0.500000
O O10 0.317498 0.979160 0.500000
O O11 0.684412 0.804732 0.369198
O O12 0.781732 0.782105 0.500000
O O13 0.711385 0.898260 0.500000
O O14 0.500000 0.500000 0.372071
O O15 0.394802 0.500000 0.250000
O O16 0.397941 0.481224 0.500000
O O17 0.136203 0.271463 0.635867
#
# Coordination Sequence:
#
# PCOD9526687 Si02
#       8
#    16  16   8   8  16  16   8   8
#     4  10  20  34  52  78 124 157 177 221 270 331
#     4  11  21  32  52  78 113 151 182 227 274 328
#     4  10  21  36  54  87 111 143 198 226 270 346
#     4  10  20  41  63  78 107 144 182 242 299 335
#     4   9  16  29  45  68  99 138 192 217 251 314
#     4  10  21  37  53  84 112 140 193 232 280 339
#     4  10  22  39  63  80 105 146 186 244 295 341
#     4  10  21  34  58  85 111 147 192 230 270 342
#
# _framework density 19.787140000000001
#
# number of rings (size 3 to 8) (size 9 to 14) (size 15 to 20)
#    0.000    2.000    2.500    2.000    1.167    2.000 
#    3.000    0.000    0.000    2.000    0.000    0.000 
#    0.000    0.000    0.000    0.000    0.000    0.000 
#
# Total GULP energy -267236.713655 kJ/mol
# GULP energy per Si atom -5567.431534 kJ/mol
# Density = 1.974210 g / cm^3
# Si number density = 19.787140 Si / 1000 Ang^3
#
#
#
# Elastic Constant Matrix: (Units=GPa)
#
#
# Indices 1 2 3 4 5 6 
#
# 1 13.6381 21.0931 -4.2689 0.0000 0.0000 0.0000
# 2 21.0931 146.8648 6.7631 0.0000 0.0000 0.0000
# 3 -4.2689 6.7631 126.3199 0.0000 0.0000 0.0000
# 4 0.0000 0.0000 0.0000 19.4049 0.0000 0.0000
# 5 0.0000 0.0000 0.0000 0.0000 15.1681 0.0000
# 6 0.0000 0.0000 0.0000 0.0000 0.0000 7.5317
#
#
#
# Elastic Compliance Matrix: (Units=1/GPa)
#
#
# Indices 1 2 3 4 5 6 
#
# 1 0.096240 -0.014007 0.004002 0.000000 0.000000 0.000000
# 2 -0.014007 0.008864 -0.000948 0.000000 0.000000 0.000000
# 3 0.004002 -0.000948 0.008102 0.000000 0.000000 0.000000
# 4 0.000000 0.000000 0.000000 0.051533 0.000000 0.000000
# 5 0.000000 0.000000 0.000000 0.000000 0.065928 0.000000
# 6 0.000000 0.000000 0.000000 0.000000 0.000000 0.132773
#
#
# Mechanical properties :
#
#
# Convention : Reuss Voigt Hill
#
# Bulk Modulus (GPa) = 10.95263 37.11082 24.03172
# Shear Modulus (GPa) = 12.02561 25.96995 18.99778
#
# Velocity S-wave (km/s) = 2.46793 3.62673 3.10192
# Velocity P-wave (km/s) = 3.69705 6.02771 5.00007
#
# Compressibility (1/GPa) = 0.09130230
#
# Stress axis : x y z
#
# Youngs Moduli (GPa) = 10.39070 112.81228 123.41995
#
# Poissons Ratio (x) = 1.58011 -0.49396
# Poissons Ratio (y) = 0.14554 0.11699
# Poissons Ratio (z) = -0.04159 0.10694
#
# Static dielectric constant tensor:
#      x y z
#    x 1.659500 0.000000 0.000000 
#    y 0.000000 1.749980 0.000000 
#    z 0.000000 0.000000 1.725320 
# 
# From -- ./inp_files/15558.got.cif
#   From: 2010.05.17/outbox.cif.g08.bks.cpg/sg72_8_cif.got.tgz:15558.got - 2010.06.03 17:03:01.
