data_PCOD9526857
_publ_section_title
;
Structure prediction by ZEFSAII (Michael W. Deem and Ramdas Pophale) SiO2 
 PCOD9526857
Probable space group: I B A M
;
_chemical_formula_sum "Si O2"
_cell_formula_units_Z 112
_cell_length_a 17.320946
_cell_length_b 14.027757
_cell_length_c 23.760056
_cell_angle_alpha 90.000000
_cell_angle_beta 90.000000
_cell_angle_gamma 90.000000
_cell_volume 5773.076357
_symmetry_space_group_name_H-M "I B A M"
_symmetry_group_IT_number 72
_symmetry_cell_setting 'orthorhombic'
loop_
_space_group_symop_operation_xyz
x,y,z
-x,-y,z
x,-y,1/2-z
-x,y,1/2-z
-x,-y,-z
x,y,-z
-x,y,1/2+z
x,-y,1/2+z
1/2+x,1/2+y,1/2+z
1/2-x,1/2-y,1/2+z
1/2+x,1/2-y,-z
1/2-x,1/2+y,-z
1/2-x,1/2-y,1/2-z
1/2+x,1/2+y,1/2-z
1/2-x,1/2+y,z
1/2+x,1/2-y,z
loop_
_atom_site_type_symbol
_atom_site_label
_atom_site_fract_x
_atom_site_fract_y
_atom_site_fract_z
Si Si1 0.782471 0.643432 0.066051
Si Si2 0.204530 0.747602 0.159486
Si Si3 0.459576 0.724915 0.389073
Si Si4 0.937843 0.079453 0.330526
Si Si5 0.046991 0.408593 0.067170
Si Si6 0.121583 0.961949 0.063694
Si Si7 0.786838 0.895294 0.241752
O O1 0.757849 0.731251 0.105502
O O2 0.710843 0.569780 0.069915
O O3 0.863905 0.600587 0.085907
O O4 0.788653 0.670640 0.000000
O O5 0.117361 0.734236 0.139550
O O6 0.207394 0.841230 0.199080
O O7 0.236306 0.664300 0.198154
O O8 0.517256 0.676134 0.344734
O O9 0.503079 0.810026 0.420082
O O10 0.428310 0.634964 0.425958
O O11 0.871406 0.094883 0.285511
O O12 0.901453 0.036813 0.388418
O O13 0.000000 0.000000 0.313291
O O14 0.000000 0.500000 0.089977
O O15 0.050996 0.420295 0.000000
O O16 0.108315 0.996226 0.000000
O O17 0.754304 0.000000 0.250000
#
# Coordination Sequence:
#
# PCOD9526857 Si02
#       7
#    16  16  16  16  16  16  16
#     4   9  18  37  59  80 113 150 188 235 284 339
#     4  10  23  39  59  86 111 149 194 232 281 339
#     4  10  20  35  55  82 115 147 187 236 284 336
#     4  10  21  35  57  88 116 146 185 236 296 346
#     4  10  21  35  53  78 111 153 191 226 273 333
#     4   9  18  33  56  86 117 148 185 234 292 347
#     4  11  22  39  60  82 115 151 190 235 280 336
#
# _framework density 19.400402
#
# number of rings (size 3 to 8) (size 9 to 14) (size 15 to 20)
#    0.000    2.143    0.000    3.857    0.000    8.000 
#    0.000    0.714    0.000    6.000    0.000    5.000 
#    0.000    0.000    0.000    0.000    0.000    0.000 
#
# Total GULP energy -312759.480396 kJ/mol
# GULP energy per Si atom -5584.990721 kJ/mol
# Density = 1.935625 g / cm^3
# Si number density = 19.400402 Si / 1000 Ang^3
#
#
#
# Elastic Constant Matrix: (Units=GPa)
#
#
# Indices 1 2 3 4 5 6 
#
# 1 93.1155 35.8400 30.6469 0.0000 0.0000 0.0000
# 2 35.8400 52.7656 3.6522 0.0000 0.0000 0.0000
# 3 30.6469 3.6522 69.7370 0.0000 0.0000 0.0000
# 4 0.0000 0.0000 0.0000 -12.7997 0.0000 0.0000
# 5 0.0000 0.0000 0.0000 0.0000 9.2836 0.0000
# 6 0.0000 0.0000 0.0000 0.0000 0.0000 9.9472
#
#
#
# Elastic Compliance Matrix: (Units=1/GPa)
#
#
# Indices 1 2 3 4 5 6 
#
# 1 0.017435 -0.011353 -0.007068 0.000000 0.000000 0.000000
# 2 -0.011353 0.026414 0.003606 0.000000 0.000000 0.000000
# 3 -0.007068 0.003606 0.017257 0.000000 0.000000 0.000000
# 4 0.000000 0.000000 0.000000 -0.078127 0.000000 0.000000
# 5 0.000000 0.000000 0.000000 0.000000 0.107717 0.000000
# 6 0.000000 0.000000 0.000000 0.000000 0.000000 0.100531
#
#
# Mechanical properties :
#
#
# Convention : Reuss Voigt Hill
#
# Bulk Modulus (GPa) = 31.77033 39.54403 35.65718
# Shear Modulus (GPa) = 21.61230 10.98480 16.29855
#
# Velocity S-wave (km/s) = 3.34130 2.38211 2.90162
# Velocity P-wave (km/s) = 5.59441 5.29087 5.44475
#
# Compressibility (1/GPa) = 0.03147591
#
# Stress axis : x y z
#
# Youngs Moduli (GPa) = 57.35443 37.85907 57.94845
#
# Poissons Ratio (x) = 0.42983 0.40956
# Poissons Ratio (y) = 0.65117 -0.20897
# Poissons Ratio (z) = 0.40536 -0.13653
#
# Static dielectric constant tensor:
#      x y z
#    x 1.680820 0.000000 0.000000 
#    y 0.000000 1.670290 0.000000 
#    z 0.000000 0.000000 1.682140 
# 
# From -- ./inp_files/44363.got.cif
#   From: 2010.05.17/outbox.cif.g08.bks.cpg/sg72_23_cif.got.tgz:44363.got - 2010.06.03 17:03:01.
