data_PCOD9526234
_publ_section_title
;
Structure prediction by ZEFSAII (Michael W. Deem and Ramdas Pophale) SiO2 
 PCOD9526234
Probable space group: I B A M
;
_chemical_formula_sum "Si O2"
_cell_formula_units_Z 112
_cell_length_a 26.597125
_cell_length_b 12.451568
_cell_length_c 15.705878
_cell_angle_alpha 90.000000
_cell_angle_beta 90.000000
_cell_angle_gamma 90.000000
_cell_volume 5201.408448
_symmetry_space_group_name_H-M "I B A M"
_symmetry_group_IT_number 72
_symmetry_cell_setting 'orthorhombic'
loop_
_space_group_symop_operation_xyz
x,y,z
-x,-y,z
x,-y,1/2-z
-x,y,1/2-z
-x,-y,-z
x,y,-z
-x,y,1/2+z
x,-y,1/2+z
1/2+x,1/2+y,1/2+z
1/2-x,1/2-y,1/2+z
1/2+x,1/2-y,-z
1/2-x,1/2+y,-z
1/2-x,1/2-y,1/2-z
1/2+x,1/2+y,1/2-z
1/2-x,1/2+y,z
1/2+x,1/2-y,z
loop_
_atom_site_type_symbol
_atom_site_label
_atom_site_fract_x
_atom_site_fract_y
_atom_site_fract_z
Si Si1 0.894148 0.068469 0.898725
Si Si2 0.601742 0.325060 0.898080
Si Si3 0.808021 0.766539 0.604119
Si Si4 0.303639 0.189137 0.401217
Si Si5 0.010986 0.202003 0.343758
Si Si6 0.452741 0.054424 0.156004
Si Si7 0.657743 0.030382 0.349805
O O1 0.849549 0.146192 0.866510
O O2 0.948582 0.123470 0.886135
O O3 0.893127 0.946998 0.864045
O O4 0.886424 0.059641 0.000000
O O5 0.646908 0.249287 0.864090
O O6 0.544667 0.286539 0.882575
O O7 0.606865 0.328077 0.000000
O O8 0.808872 0.767559 0.500000
O O9 0.751358 0.787905 0.635325
O O10 0.822519 0.648958 0.635429
O O11 0.300943 0.222172 0.500000
O O12 0.312002 0.062410 0.395902
O O13 0.000000 0.159482 0.250000
O O14 0.036692 0.319225 0.337399
O O15 0.399300 0.030356 0.116287
O O16 0.500000 0.000000 0.111058
O O17 0.450344 0.000000 0.250000
O O18 0.658288 0.000000 0.250000
#
# Coordination Sequence:
#
# PCOD9526234 Si02
#       7
#    16  16  16  16  16  16  16
#     4  10  22  41  62  88 123 163 204 253 311 365
#     4  10  23  41  61  89 125 161 202 256 312 362
#     4  10  22  41  67  92 120 162 212 259 305 365
#     4  10  23  41  66  93 122 162 210 260 305 363
#     4  12  22  37  63  90 120 159 208 248 301 372
#     4  10  19  35  56  85 119 165 196 235 298 361
#     4  11  23  39  63  92 128 164 201 252 312 370
#
# _framework density 21.532629
#
# number of rings (size 3 to 8) (size 9 to 14) (size 15 to 20)
#    0.000    1.571    2.857    2.143    4.000    2.857 
#    0.000    0.000    0.000    3.429    0.000    0.000 
#    0.000    0.000    0.000    0.000    0.000    0.000 
#
# Total GULP energy -312700.509971 kJ/mol
# GULP energy per Si atom -5583.937678 kJ/mol
# Density = 2.148362 g / cm^3
# Si number density = 21.532629 Si / 1000 Ang^3
#
#
#
# Elastic Constant Matrix: (Units=GPa)
#
#
# Indices 1 2 3 4 5 6 
#
# 1 145.8300 18.5090 1.8528 0.0000 0.0000 0.0000
# 2 18.5090 76.2570 -4.8630 0.0000 0.0000 0.0000
# 3 1.8528 -4.8630 20.6921 0.0000 0.0000 0.0000
# 4 0.0000 0.0000 0.0000 30.8085 0.0000 0.0000
# 5 0.0000 0.0000 0.0000 0.0000 -3.5788 0.0000
# 6 0.0000 0.0000 0.0000 0.0000 0.0000 -17.7831
#
#
#
# Elastic Compliance Matrix: (Units=1/GPa)
#
#
# Indices 1 2 3 4 5 6 
#
# 1 0.007098 -0.001790 -0.001056 0.000000 0.000000 0.000000
# 2 -0.001790 0.013765 0.003395 0.000000 0.000000 0.000000
# 3 -0.001056 0.003395 0.049220 0.000000 0.000000 0.000000
# 4 0.000000 0.000000 0.000000 0.032459 0.000000 0.000000
# 5 0.000000 0.000000 0.000000 0.000000 -0.279422 0.000000
# 6 0.000000 0.000000 0.000000 0.000000 0.000000 -0.056233
#
#
# Mechanical properties :
#
#
# Convention : Reuss Voigt Hill
#
# Bulk Modulus (GPa) = 14.04883 30.41962 22.23422
# Shear Modulus (GPa) = -23.75464 17.04133 -3.35666
#
# Velocity S-wave (km/s) = -3.32504 2.81627 -1.24990
# Velocity P-wave (km/s) = 2.86401 4.97323 2.87493
#
# Compressibility (1/GPa) = 0.07118029
#
# Stress axis : x y z
#
# Youngs Moduli (GPa) = 140.88616 72.65023 20.31686
#
# Poissons Ratio (x) = 0.13006 0.02146
# Poissons Ratio (y) = 0.25221 -0.06898
# Poissons Ratio (z) = 0.14882 -0.24666
#
# Static dielectric constant tensor:
#      x y z
#    x 1.827980 0.000000 0.000000 
#    y 0.000000 1.795880 0.000000 
#    z 0.000000 0.000000 1.831720 
# 
# From -- ./inp_files/40345.got.cif
#   From: 2010.05.17/outbox.cif.g08.bks.cpg/sg72_21_cif.got.tgz:40345.got - 2010.06.03 17:03:01.
