data_PCOD9526411
_publ_section_title
;
Structure prediction by ZEFSAII (Michael W. Deem and Ramdas Pophale) SiO2 
 PCOD9526411
Probable space group: I B A M
;
_chemical_formula_sum "Si O2"
_cell_formula_units_Z 52
_cell_length_a 14.192926
_cell_length_b 9.565850
_cell_length_c 19.072781
_cell_angle_alpha 90.000000
_cell_angle_beta 90.000000
_cell_angle_gamma 90.000000
_cell_volume 2589.461910
_symmetry_space_group_name_H-M "I B A M"
_symmetry_group_IT_number 72
_symmetry_cell_setting 'orthorhombic'
loop_
_space_group_symop_operation_xyz
x,y,z
-x,-y,z
x,-y,1/2-z
-x,y,1/2-z
-x,-y,-z
x,y,-z
-x,y,1/2+z
x,-y,1/2+z
1/2+x,1/2+y,1/2+z
1/2-x,1/2-y,1/2+z
1/2+x,1/2-y,-z
1/2-x,1/2+y,-z
1/2-x,1/2-y,1/2-z
1/2+x,1/2+y,1/2-z
1/2-x,1/2+y,z
1/2+x,1/2-y,z
loop_
_atom_site_type_symbol
_atom_site_label
_atom_site_fract_x
_atom_site_fract_y
_atom_site_fract_z
Si Si1 0.560438 0.683771 0.871288
Si Si2 0.793982 0.368832 0.800983
Si Si3 0.000000 0.000000 0.750000
Si Si4 0.140207 0.091142 0.921489
O O1 0.614837 0.820919 0.846918
O O2 0.560452 0.596992 0.798924
O O3 0.452686 0.680721 0.898373
O O4 0.612516 0.573808 0.921828
O O5 0.812838 0.500000 0.750000
O O6 0.750000 0.250000 0.750000
O O7 0.716939 0.394580 0.861277
O O8 0.169175 0.132472 0.000000
#
# Coordination Sequence:
#
# PCOD9526411 Si02
#       4
#    16  16   4  16
#     4  10  19  37  64  89 124 168 217 263 326 389
#     4  12  23  41  66 100 133 171 222 279 334 397
#     4   8  16  36  64  88 116 162 216 260 312 404
#     4  10  22  39  65  95 130 176 224 271 334 405
#
# _framework density 20.081391
#
# number of rings (size 3 to 8) (size 9 to 14) (size 15 to 20)
#    0.000    1.846    3.077    5.538    2.154    2.462 
#    0.000    6.923    0.000    1.846    0.000    0.000 
#    0.000    0.000    0.000    0.000    0.000    0.000 
#
# Total GULP energy -144796.857056 kJ/mol
# GULP energy per Si atom -5569.109887 kJ/mol
# Density = 2.003568 g / cm^3
# Si number density = 20.081391 Si / 1000 Ang^3
#
#
#
# Elastic Constant Matrix: (Units=GPa)
#
#
# Indices 1 2 3 4 5 6 
#
# 1 93.0641 44.1354 55.1379 0.0000 0.0000 0.0000
# 2 44.1354 76.9036 33.0424 0.0000 0.0000 0.0000
# 3 55.1379 33.0424 159.8644 0.0000 0.0000 0.0000
# 4 0.0000 0.0000 0.0000 7.3806 0.0000 0.0000
# 5 0.0000 0.0000 0.0000 0.0000 10.3022 0.0000
# 6 0.0000 0.0000 0.0000 0.0000 0.0000 21.2367
#
#
#
# Elastic Compliance Matrix: (Units=1/GPa)
#
#
# Indices 1 2 3 4 5 6 
#
# 1 0.017021 -0.007952 -0.004227 0.000000 0.000000 0.000000
# 2 -0.007952 0.017986 -0.000975 0.000000 0.000000 0.000000
# 3 -0.004227 -0.000975 0.007915 0.000000 0.000000 0.000000
# 4 0.000000 0.000000 0.000000 0.135490 0.000000 0.000000
# 5 0.000000 0.000000 0.000000 0.000000 0.097067 0.000000
# 6 0.000000 0.000000 0.000000 0.000000 0.000000 0.047088
#
#
# Mechanical properties :
#
#
# Convention : Reuss Voigt Hill
#
# Bulk Modulus (GPa) = 60.19146 66.05150 63.12148
# Shear Modulus (GPa) = 14.10785 20.95165 17.52975
#
# Velocity S-wave (km/s) = 2.65341 3.23358 2.95775
# Velocity P-wave (km/s) = 6.27903 6.84870 6.57004
#
# Compressibility (1/GPa) = 0.01661365
#
# Stress axis : x y z
#
# Youngs Moduli (GPa) = 58.75097 55.59885 126.34775
#
# Poissons Ratio (x) = 0.44214 0.53407
# Poissons Ratio (y) = 0.46721 0.12316
# Poissons Ratio (z) = 0.24834 0.05419
#
# Static dielectric constant tensor:
#      x y z
#    x 1.817360 0.000000 0.000000 
#    y 0.000000 1.769310 0.000000 
#    z 0.000000 0.000000 1.832760 
# 
# From -- ./inp_files/37589.got.cif
#   From: 2010.05.17/outbox.cif.g08.bks.cpg/sg72_19_cif.got.tgz:37589.got - 2010.06.03 17:03:01.
