data_PCOD9526528
_publ_section_title
;
Structure prediction by ZEFSAII (Michael W. Deem and Ramdas Pophale) SiO2 
 PCOD9526528
Probable space group: I B A M
;
_chemical_formula_sum "Si O2"
_cell_formula_units_Z 80
_cell_length_a 20.300836
_cell_length_b 5.384685
_cell_length_c 31.516720
_cell_angle_alpha 90.000000
_cell_angle_beta 90.000000
_cell_angle_gamma 90.000000
_cell_volume 3445.206347
_symmetry_space_group_name_H-M "I B A M"
_symmetry_group_IT_number 72
_symmetry_cell_setting 'orthorhombic'
loop_
_space_group_symop_operation_xyz
x,y,z
-x,-y,z
x,-y,1/2-z
-x,y,1/2-z
-x,-y,-z
x,y,-z
-x,y,1/2+z
x,-y,1/2+z
1/2+x,1/2+y,1/2+z
1/2-x,1/2-y,1/2+z
1/2+x,1/2-y,-z
1/2-x,1/2+y,-z
1/2-x,1/2-y,1/2-z
1/2+x,1/2+y,1/2-z
1/2-x,1/2+y,z
1/2+x,1/2-y,z
loop_
_atom_site_type_symbol
_atom_site_label
_atom_site_fract_x
_atom_site_fract_y
_atom_site_fract_z
Si Si1 0.768100 0.671886 0.172452
Si Si2 0.218596 0.322079 0.500000
Si Si3 0.106254 0.672159 0.619196
Si Si4 0.000000 0.000000 0.842358
Si Si5 0.164316 0.172866 0.408553
Si Si6 0.575133 0.258019 0.731657
O O1 0.751266 0.420387 0.195297
O O2 0.843753 0.672150 0.159064
O O3 0.721291 0.675688 0.128662
O O4 0.221308 0.621316 0.500000
O O5 0.188294 0.242755 0.455113
O O6 0.113249 0.394612 0.601983
O O7 0.037102 0.783772 0.632783
O O8 0.136386 0.894300 0.590592
O O9 0.943462 0.152904 0.815909
O O10 0.610557 0.500000 0.750000
O O11 0.500000 0.252558 0.750000
O O12 0.602808 0.000000 0.750000
#
# Coordination Sequence:
#
# PCOD9526528 Si02
#       6
#    16   8  16   8  16  16
#     4   8  14  28  44  64  96 124 154 210 262 291
#     4  12  20  32  58  81 100 135 182 236 294 316
#     4  10  20  32  49  75 109 136 171 217 258 324
#     4  10  21  34  56  81 108 148 174 194 272 331
#     4  10  20  33  50  75 104 133 174 232 275 309
#     4   8  16  30  48  70  99 124 162 215 240 280
#
# _framework density 23.220669000000001
#
# number of rings (size 3 to 8) (size 9 to 14) (size 15 to 20)
#    0.000    2.800    0.000    4.800    0.000    7.200 
#    0.000    0.000    0.000    3.600    0.000    0.000 
#    0.000  374.400    0.000    0.000    0.000    0.000 
#
# Total GULP energy -222852.726060 kJ/mol
# GULP energy per Si atom -5571.318152 kJ/mol
# Density = 2.316782 g / cm^3
# Si number density = 23.220669 Si / 1000 Ang^3
#
#
#
# Elastic Constant Matrix: (Units=GPa)
#
#
# Indices 1 2 3 4 5 6 
#
# 1 45.7211 2.1352 14.1834 0.0000 0.0000 0.0000
# 2 2.1352 176.7497 8.3868 0.0000 0.0000 0.0000
# 3 14.1834 8.3868 64.8894 0.0000 0.0000 0.0000
# 4 0.0000 0.0000 0.0000 8.5136 0.0000 0.0000
# 5 0.0000 0.0000 0.0000 0.0000 23.6948 0.0000
# 6 0.0000 0.0000 0.0000 0.0000 0.0000 23.1681
#
#
#
# Elastic Compliance Matrix: (Units=1/GPa)
#
#
# Indices 1 2 3 4 5 6 
#
# 1 0.023463 -0.000040 -0.005123 0.000000 0.000000 0.000000
# 2 -0.000040 0.005693 -0.000727 0.000000 0.000000 0.000000
# 3 -0.005123 -0.000727 0.016625 0.000000 0.000000 0.000000
# 4 0.000000 0.000000 0.000000 0.117459 0.000000 0.000000
# 5 0.000000 0.000000 0.000000 0.000000 0.042203 0.000000
# 6 0.000000 0.000000 0.000000 0.000000 0.000000 0.043163
#
#
# Mechanical properties :
#
#
# Convention : Reuss Voigt Hill
#
# Bulk Modulus (GPa) = 29.41251 37.41902 33.41577
# Shear Modulus (GPa) = 18.40134 28.58563 23.49349
#
# Velocity S-wave (km/s) = 2.81811 3.51243 3.18425
# Velocity P-wave (km/s) = 4.82525 5.70956 5.28593
#
# Compressibility (1/GPa) = 0.03399913
#
# Stress axis : x y z
#
# Youngs Moduli (GPa) = 42.62036 175.66359 60.15169
#
# Poissons Ratio (x) = 0.00709 0.30817
# Poissons Ratio (y) = 0.00172 0.04373
# Poissons Ratio (z) = 0.21836 0.12770
#
# Static dielectric constant tensor:
#      x y z
#    x 1.904320 0.000000 0.000000 
#    y 0.000000 2.000620 0.000000 
#    z 0.000000 0.000000 1.959950 
# 
# From -- ./inp_files/52346.got.cif
#   From: 2010.05.17/outbox.cif.g08.bks.cpg/sg72_27_cif.got.tgz:52346.got - 2010.06.03 17:03:01.
