data_PCOD9526483
_publ_section_title
;
Structure prediction by ZEFSAII (Michael W. Deem and Ramdas Pophale) SiO2 
 PCOD9526483
Probable space group: I B A M
;
_chemical_formula_sum "Si O2"
_cell_formula_units_Z 64
_cell_length_a 28.817688
_cell_length_b 15.042243
_cell_length_c 5.711352
_cell_angle_alpha 90.000000
_cell_angle_beta 90.000000
_cell_angle_gamma 90.000000
_cell_volume 2475.772089
_symmetry_space_group_name_H-M "I B A M"
_symmetry_group_IT_number 72
_symmetry_cell_setting 'orthorhombic'
loop_
_space_group_symop_operation_xyz
x,y,z
-x,-y,z
x,-y,1/2-z
-x,y,1/2-z
-x,-y,-z
x,y,-z
-x,y,1/2+z
x,-y,1/2+z
1/2+x,1/2+y,1/2+z
1/2-x,1/2-y,1/2+z
1/2+x,1/2-y,-z
1/2-x,1/2+y,-z
1/2-x,1/2-y,1/2-z
1/2+x,1/2+y,1/2-z
1/2-x,1/2+y,z
1/2+x,1/2-y,z
loop_
_atom_site_type_symbol
_atom_site_label
_atom_site_fract_x
_atom_site_fract_y
_atom_site_fract_z
Si Si1 0.730912 0.602820 0.000000
Si Si2 0.296625 0.683932 0.000000
Si Si3 0.139163 0.975850 0.500000
Si Si4 0.670526 0.111930 0.000000
Si Si5 0.055698 0.164271 0.750890
Si Si6 0.419748 0.870912 0.248118
O O1 0.726477 0.656664 0.751411
O O2 0.781873 0.558054 0.000000
O O3 0.688091 0.534464 0.000000
O O4 0.342937 0.625131 0.000000
O O5 0.310750 0.786633 0.000000
O O6 0.118693 0.000000 0.750000
O O7 0.634299 0.103210 0.214355
O O8 0.068598 0.125074 0.500000
O O9 0.076405 0.263768 0.752129
O O10 0.000000 0.174783 0.750000
O O11 0.065623 0.119304 0.000000
O O12 0.437138 0.901597 0.500000
O O13 0.442430 0.898427 0.000000
#
# Coordination Sequence:
#
# PCOD9526483 Si02
#       6
#     8   8   8   8  16  16
#     4  10  20  30  44  58  75 100 132 164 199 238
#     4  10  20  30  44  58  75 100 132 164 199 238
#     4   8  16  32  44  56  72  94 128 160 192 236
#     4  10  20  26  42  58  84  98 130 166 204 228
#     4   8  12  20  32  45  63  94 130 153 167 214
#     4   8  16  24  33  50  76  99 123 156 190 227
#
# _framework density 25.850518999999998
#
# number of rings (size 3 to 8) (size 9 to 14) (size 15 to 20)
#    0.750    2.500    0.000    0.750    3.500    0.000 
#    0.000    0.000    0.000    0.000    0.000    0.000 
#    0.000    0.000    0.000    0.000    0.000   67.500 
#
# Total GULP energy -178407.973901 kJ/mol
# GULP energy per Si atom -5575.249184 kJ/mol
# Density = 2.579168 g / cm^3
# Si number density = 25.850519 Si / 1000 Ang^3
#
#
#
# Elastic Constant Matrix: (Units=GPa)
#
#
# Indices 1 2 3 4 5 6 
#
# 1 92.9594 22.9567 45.5446 0.0000 0.0000 0.0000
# 2 22.9567 68.3846 41.7976 0.0000 0.0000 0.0000
# 3 45.5446 41.7976 323.7144 0.0000 0.0000 0.0000
# 4 0.0000 0.0000 0.0000 -39.6159 0.0000 0.0000
# 5 0.0000 0.0000 0.0000 0.0000 27.0135 0.0000
# 6 0.0000 0.0000 0.0000 0.0000 0.0000 49.0640
#
#
#
# Elastic Compliance Matrix: (Units=1/GPa)
#
#
# Indices 1 2 3 4 5 6 
#
# 1 0.012207 -0.003309 -0.001290 0.000000 0.000000 0.000000
# 2 -0.003309 0.016773 -0.001700 0.000000 0.000000 0.000000
# 3 -0.001290 -0.001700 0.003490 0.000000 0.000000 0.000000
# 4 0.000000 0.000000 0.000000 -0.025242 0.000000 0.000000
# 5 0.000000 0.000000 0.000000 0.000000 0.037019 0.000000
# 6 0.000000 0.000000 0.000000 0.000000 0.000000 0.020382
#
#
# Mechanical properties :
#
#
# Convention : Reuss Voigt Hill
#
# Bulk Modulus (GPa) = 50.32440 78.40625 64.36532
# Shear Modulus (GPa) = 59.62988 32.27627 45.95308
#
# Velocity S-wave (km/s) = 4.80804 3.53735 4.22079
# Velocity P-wave (km/s) = 7.09456 6.86151 6.97900
#
# Compressibility (1/GPa) = 0.01987108
#
# Stress axis : x y z
#
# Youngs Moduli (GPa) = 81.92227 59.61879 286.51856
#
# Poissons Ratio (x) = 0.19729 0.36964
# Poissons Ratio (y) = 0.27110 0.48712
# Poissons Ratio (z) = 0.10569 0.10136
#
# Static dielectric constant tensor:
#      x y z
#    x 2.058670 0.000000 0.000000 
#    y 0.000000 2.086030 0.000000 
#    z 0.000000 0.000000 2.100150 
# 
# From -- ./inp_files/921.got.cif
#   From: 2010.05.17/outbox.cif.g08.bks.cpg/sg72_1_cif.got.tgz:921.got - 2010.06.03 17:03:01.
