data_PCOD9526509
_publ_section_title
;
Structure prediction by ZEFSAII (Michael W. Deem and Ramdas Pophale) SiO2 
 PCOD9526509
Probable space group: I B A M
;
_chemical_formula_sum "Si O2"
_cell_formula_units_Z 88
_cell_length_a 9.243434
_cell_length_b 14.901820
_cell_length_c 28.841899
_cell_angle_alpha 90.000000
_cell_angle_beta 90.000000
_cell_angle_gamma 90.000000
_cell_volume 3972.798237
_symmetry_space_group_name_H-M "I B A M"
_symmetry_group_IT_number 72
_symmetry_cell_setting 'orthorhombic'
loop_
_space_group_symop_operation_xyz
x,y,z
-x,-y,z
x,-y,1/2-z
-x,y,1/2-z
-x,-y,-z
x,y,-z
-x,y,1/2+z
x,-y,1/2+z
1/2+x,1/2+y,1/2+z
1/2-x,1/2-y,1/2+z
1/2+x,1/2-y,-z
1/2-x,1/2+y,-z
1/2-x,1/2-y,1/2-z
1/2+x,1/2+y,1/2-z
1/2-x,1/2+y,z
1/2+x,1/2-y,z
loop_
_atom_site_type_symbol
_atom_site_label
_atom_site_fract_x
_atom_site_fract_y
_atom_site_fract_z
Si Si1 0.341947 0.674346 0.597634
Si Si2 0.063530 0.150819 0.500000
Si Si3 0.772058 0.744967 0.189391
Si Si4 0.000000 0.284041 0.750000
Si Si5 0.410810 0.583014 0.160534
Si Si6 0.336707 0.998645 0.596810
Si Si7 0.272185 0.545268 0.000000
O O1 0.394182 0.702566 0.546885
O O2 0.271686 0.738601 0.635724
O O3 0.478654 0.627856 0.623487
O O4 0.220307 0.599286 0.590154
O O5 0.896430 0.120765 0.500000
O O6 0.145899 0.052921 0.500000
O O7 0.891177 0.675731 0.210214
O O8 0.624820 0.739908 0.218152
O O9 0.850259 0.841142 0.194208
O O10 0.500000 0.500000 0.181891
O O11 0.274333 0.544755 0.132731
O O12 0.500000 0.000000 0.613040
O O13 0.319433 0.951084 0.546952
#
# Coordination Sequence:
#
# PCOD9526509 Si02
#       7
#    16   8  16   8  16  16   8
#     4  10  20  37  62  88 129 171 214 263 324 387
#     4   9  16  32  57  89 123 176 213 255 312 398
#     4  11  22  43  67  93 124 167 217 273 327 407
#     4  10  24  40  71  91 118 162 220 262 348 398
#     4  10  21  39  63  91 128 173 211 267 333 393
#     4  10  20  31  56  90 127 169 218 269 314 376
#     4   9  15  30  53  81 126 170 222 254 312 381
#
# _framework density 22.150634
#
# number of rings (size 3 to 8) (size 9 to 14) (size 15 to 20)
#    0.000    2.000    3.636    0.273    2.545    0.000 
#    0.000    2.273    0.000    4.364    0.000    0.000 
#    0.000    0.000    0.000    0.000    0.000    0.000 
#
# Total GULP energy -245206.969218 kJ/mol
# GULP energy per Si atom -5572.885664 kJ/mol
# Density = 2.210022 g / cm^3
# Si number density = 22.150634 Si / 1000 Ang^3
#
#
#
# Elastic Constant Matrix: (Units=GPa)
#
#
# Indices 1 2 3 4 5 6 
#
# 1 161.0987 28.0033 30.7847 0.0000 0.0000 0.0000
# 2 28.0033 48.8846 33.3015 0.0000 0.0000 0.0000
# 3 30.7847 33.3015 120.9121 0.0000 0.0000 0.0000
# 4 0.0000 0.0000 0.0000 16.8169 0.0000 0.0000
# 5 0.0000 0.0000 0.0000 0.0000 19.7956 0.0000
# 6 0.0000 0.0000 0.0000 0.0000 0.0000 18.9942
#
#
#
# Elastic Compliance Matrix: (Units=1/GPa)
#
#
# Indices 1 2 3 4 5 6 
#
# 1 0.006961 -0.003422 -0.000830 0.000000 0.000000 0.000000
# 2 -0.003422 0.026863 -0.006527 0.000000 0.000000 0.000000
# 3 -0.000830 -0.006527 0.010279 0.000000 0.000000 0.000000
# 4 0.000000 0.000000 0.000000 0.059464 0.000000 0.000000
# 5 0.000000 0.000000 0.000000 0.000000 0.050516 0.000000
# 6 0.000000 0.000000 0.000000 0.000000 0.000000 0.052648
#
#
# Mechanical properties :
#
#
# Convention : Reuss Voigt Hill
#
# Bulk Modulus (GPa) = 44.35566 57.23048 50.79307
# Shear Modulus (GPa) = 21.20393 27.04172 24.12283
#
# Velocity S-wave (km/s) = 3.09732 3.49780 3.30363
# Velocity P-wave (km/s) = 5.73230 6.49660 6.12638
#
# Compressibility (1/GPa) = 0.02254504
#
# Stress axis : x y z
#
# Youngs Moduli (GPa) = 143.66155 37.22533 97.28111
#
# Poissons Ratio (x) = 0.12739 0.08071
# Poissons Ratio (y) = 0.49165 0.63499
# Poissons Ratio (z) = 0.11919 0.24298
#
# Static dielectric constant tensor:
#      x y z
#    x 1.794300 0.000000 0.000000 
#    y 0.000000 1.868600 0.000000 
#    z 0.000000 0.000000 1.877390 
# 
# From -- ./inp_files/50849.got.cif
#   From: 2010.05.17/outbox.cif.g08.bks.cpg/sg72_26_cif.got.tgz:50849.got - 2010.06.03 17:03:01.
