data_PCOD9526706
_publ_section_title
;
Structure prediction by ZEFSAII (Michael W. Deem and Ramdas Pophale) SiO2 
 PCOD9526706
Probable space group: I B A M
;
_chemical_formula_sum "Si O2"
_cell_formula_units_Z 84
_cell_length_a 24.468776
_cell_length_b 24.530319
_cell_length_c 9.046082
_cell_angle_alpha 90.000000
_cell_angle_beta 90.000000
_cell_angle_gamma 90.000000
_cell_volume 5429.701582
_symmetry_space_group_name_H-M "I B A M"
_symmetry_group_IT_number 72
_symmetry_cell_setting 'orthorhombic'
loop_
_space_group_symop_operation_xyz
x,y,z
-x,-y,z
x,-y,1/2-z
-x,y,1/2-z
-x,-y,-z
x,y,-z
-x,y,1/2+z
x,-y,1/2+z
1/2+x,1/2+y,1/2+z
1/2-x,1/2-y,1/2+z
1/2+x,1/2-y,-z
1/2-x,1/2+y,-z
1/2-x,1/2-y,1/2-z
1/2+x,1/2+y,1/2-z
1/2-x,1/2+y,z
1/2+x,1/2-y,z
loop_
_atom_site_type_symbol
_atom_site_label
_atom_site_fract_x
_atom_site_fract_y
_atom_site_fract_z
Si Si1 0.836824 0.253646 0.175825
Si Si2 0.750365 0.335740 0.675973
Si Si3 0.942906 0.702508 0.175689
Si Si4 0.790186 0.557688 0.675617
Si Si5 0.415974 0.908251 0.666087
Si Si6 0.000000 0.500000 0.250000
O O1 0.796268 0.298701 0.245111
O O2 0.806745 0.195833 0.199178
O O3 0.894153 0.261976 0.255613
O O4 0.841664 0.262674 0.000000
O O5 0.760907 0.337753 0.500000
O O6 0.755542 0.394787 0.747614
O O7 0.931669 0.639409 0.221242
O O8 0.000000 0.717883 0.250000
O O9 0.944798 0.707192 0.000000
O O10 0.778707 0.500000 0.750000
O O11 0.780808 0.556381 0.500000
O O12 0.854726 0.571279 0.697806
O O13 0.416762 0.884586 0.500000
O O14 0.458518 0.958281 0.670088
#
# Coordination Sequence:
#
# PCOD9526706 Si02
#       6
#    16  16  16  16  16   4
#     4  10  20  35  54  76 102 131 169 214 261 315
#     4  10  20  34  54  77 101 132 170 212 264 316
#     4  12  24  36  53  73 100 133 170 214 260 309
#     4  11  22  35  51  72 102 134 173 219 261 308
#     4  11  23  35  48  68  94 129 175 220 259 298
#     4  12  22  36  52  62  94 136 186 224 258 292
#
# _framework density 15.470464
#
# number of rings (size 3 to 8) (size 9 to 14) (size 15 to 20)
#    0.000    1.143    3.810    3.714    0.000    3.810 
#    0.000    0.000    0.000    0.000    0.000    0.000 
#    0.000    0.762    0.000    8.000    0.000    3.429 
#
# Total GULP energy -234583.730899 kJ/mol
# GULP energy per Si atom -5585.326926 kJ/mol
# Density = 1.543525 g / cm^3
# Si number density = 15.470464 Si / 1000 Ang^3
#
#
#
# Elastic Constant Matrix: (Units=GPa)
#
#
# Indices 1 2 3 4 5 6 
#
# 1 99.8169 66.2034 73.5608 0.0000 0.0000 0.0000
# 2 66.2034 102.2753 69.1930 0.0000 0.0000 0.0000
# 3 73.5608 69.1930 133.3108 0.0000 0.0000 0.0000
# 4 0.0000 0.0000 0.0000 25.0003 0.0000 0.0000
# 5 0.0000 0.0000 0.0000 0.0000 13.0840 0.0000
# 6 0.0000 0.0000 0.0000 0.0000 0.0000 27.1383
#
#
#
# Elastic Compliance Matrix: (Units=1/GPa)
#
#
# Indices 1 2 3 4 5 6 
#
# 1 0.021100 -0.008910 -0.007018 0.000000 0.000000 0.000000
# 2 -0.008910 0.018831 -0.004858 0.000000 0.000000 0.000000
# 3 -0.007018 -0.004858 0.013895 0.000000 0.000000 0.000000
# 4 0.000000 0.000000 0.000000 0.040000 0.000000 0.000000
# 5 0.000000 0.000000 0.000000 0.000000 0.076429 0.000000
# 6 0.000000 0.000000 0.000000 0.000000 0.000000 0.036848
#
#
# Mechanical properties :
#
#
# Convention : Reuss Voigt Hill
#
# Bulk Modulus (GPa) = 81.60119 83.70192 82.65155
# Shear Modulus (GPa) = 19.78150 21.47422 20.62786
#
# Velocity S-wave (km/s) = 3.57972 3.72974 3.65550
# Velocity P-wave (km/s) = 8.36342 8.53052 8.44738
#
# Compressibility (1/GPa) = 0.01225472
#
# Stress axis : x y z
#
# Youngs Moduli (GPa) = 47.39290 53.10282 71.96676
#
# Poissons Ratio (x) = 0.47315 0.50510
# Poissons Ratio (y) = 0.42227 0.34959
# Poissons Ratio (z) = 0.33262 0.25795
#
# Static dielectric constant tensor:
#      x y z
#    x 1.513440 0.000000 0.000000 
#    y 0.000000 1.505650 0.000000 
#    z 0.000000 0.000000 1.518660 
# 
# From -- ./inp_files/6801.got.cif
#   From: 2010.05.17/outbox.cif.g08.bks.cpg/sg72_4_cif.got.tgz:6801.got - 2010.06.03 17:03:01.
