data_PCOD9526196
_publ_section_title
;
Structure prediction by ZEFSAII (Michael W. Deem and Ramdas Pophale) SiO2 
 PCOD9526196
Probable space group: I B A M
;
_chemical_formula_sum "Si O2"
_cell_formula_units_Z 80
_cell_length_a 13.655675
_cell_length_b 9.459044
_cell_length_c 24.206913
_cell_angle_alpha 90.000000
_cell_angle_beta 90.000000
_cell_angle_gamma 90.000000
_cell_volume 3126.798012
_symmetry_space_group_name_H-M "I B A M"
_symmetry_group_IT_number 72
_symmetry_cell_setting 'orthorhombic'
loop_
_space_group_symop_operation_xyz
x,y,z
-x,-y,z
x,-y,1/2-z
-x,y,1/2-z
-x,-y,-z
x,y,-z
-x,y,1/2+z
x,-y,1/2+z
1/2+x,1/2+y,1/2+z
1/2-x,1/2-y,1/2+z
1/2+x,1/2-y,-z
1/2-x,1/2+y,-z
1/2-x,1/2-y,1/2-z
1/2+x,1/2+y,1/2-z
1/2-x,1/2+y,z
1/2+x,1/2-y,z
loop_
_atom_site_type_symbol
_atom_site_label
_atom_site_fract_x
_atom_site_fract_y
_atom_site_fract_z
Si Si1 0.272130 0.549284 0.138751
Si Si2 0.766035 0.207054 0.938236
Si Si3 0.047337 0.778148 0.674412
Si Si4 0.495806 0.669319 0.560479
Si Si5 0.353895 0.801423 0.725718
O O1 0.272838 0.642707 0.082586
O O2 0.253811 0.394837 0.114866
O O3 0.372761 0.593601 0.170985
O O4 0.183422 0.595455 0.178103
O O5 0.883090 0.211167 0.942549
O O6 0.731737 0.164672 0.000000
O O7 0.090087 0.664595 0.717196
O O8 0.038492 0.740249 0.610372
O O9 0.936027 0.799823 0.696751
O O10 0.500000 0.500000 0.573467
O O11 0.539916 0.687787 0.500000
O O12 0.250000 0.750000 0.750000
#
# Coordination Sequence:
#
# PCOD9526196 Si02
#       5
#    16  16  16  16  16
#     4  11  22  40  65  95 135 172 228 281 334 408
#     4  11  23  39  64  97 136 179 221 277 344 407
#     4  10  19  38  64  94 129 169 222 280 336 395
#     4  10  19  34  60  96 128 162 215 282 338 391
#     4   9  20  38  62  93 132 169 219 273 341 397
#
# _framework density 25.585277999999999
#
# number of rings (size 3 to 8) (size 9 to 14) (size 15 to 20)
#    0.000    1.800    4.000    0.600    0.000    0.800 
#    0.000   18.000    0.000    6.000    0.000    0.000 
#    0.000    0.000    0.000    0.000    0.000    0.000 
#
# Total GULP energy -222963.108667 kJ/mol
# GULP energy per Si atom -5574.077717 kJ/mol
# Density = 2.552705 g / cm^3
# Si number density = 25.585278 Si / 1000 Ang^3
#
#
#
# Elastic Constant Matrix: (Units=GPa)
#
#
# Indices 1 2 3 4 5 6 
#
# 1 148.7048 27.8030 38.7979 0.0000 0.0000 0.0000
# 2 27.8030 43.2761 23.1795 0.0000 0.0000 0.0000
# 3 38.7979 23.1795 223.1645 0.0000 0.0000 0.0000
# 4 0.0000 0.0000 0.0000 15.0305 0.0000 0.0000
# 5 0.0000 0.0000 0.0000 0.0000 86.6877 0.0000
# 6 0.0000 0.0000 0.0000 0.0000 0.0000 19.9609
#
#
#
# Elastic Compliance Matrix: (Units=1/GPa)
#
#
# Indices 1 2 3 4 5 6 
#
# 1 0.007805 -0.004540 -0.000885 0.000000 0.000000 0.000000
# 2 -0.004540 0.027110 -0.002027 0.000000 0.000000 0.000000
# 3 -0.000885 -0.002027 0.004845 0.000000 0.000000 0.000000
# 4 0.000000 0.000000 0.000000 0.066531 0.000000 0.000000
# 5 0.000000 0.000000 0.000000 0.000000 0.011536 0.000000
# 6 0.000000 0.000000 0.000000 0.000000 0.000000 0.050098
#
#
# Mechanical properties :
#
#
# Convention : Reuss Voigt Hill
#
# Bulk Modulus (GPa) = 40.23162 66.07849 53.15506
# Shear Modulus (GPa) = 26.16249 46.02681 36.09465
#
# Velocity S-wave (km/s) = 3.20122 4.24601 3.76008
# Velocity P-wave (km/s) = 5.42424 7.06548 6.29855
#
# Compressibility (1/GPa) = 0.02485607
#
# Stress axis : x y z
#
# Youngs Moduli (GPa) = 128.13084 36.88736 206.38121
#
# Poissons Ratio (x) = 0.16746 0.18271
# Poissons Ratio (y) = 0.58170 0.41824
# Poissons Ratio (z) = 0.11343 0.07475
#
# Static dielectric constant tensor:
#      x y z
#    x 2.084620 0.000000 0.000000 
#    y 0.000000 1.978280 0.000000 
#    z 0.000000 0.000000 2.029850 
# 
# From -- ./inp_files/44074.got.cif
#   From: 2010.05.17/outbox.cif.g08.bks.cpg/sg72_23_cif.got.tgz:44074.got - 2010.06.03 17:03:01.
