data_PCOD9526910
_publ_section_title
;
Structure prediction by ZEFSAII (Michael W. Deem and Ramdas Pophale) SiO2 
 PCOD9526910
Probable space group: I B A M
;
_chemical_formula_sum "Si O2"
_cell_formula_units_Z 112
_cell_length_a 14.255591
_cell_length_b 17.004885
_cell_length_c 22.400128
_cell_angle_alpha 90.000000
_cell_angle_beta 90.000000
_cell_angle_gamma 90.000000
_cell_volume 5430.119986
_symmetry_space_group_name_H-M "I B A M"
_symmetry_group_IT_number 72
_symmetry_cell_setting 'orthorhombic'
loop_
_space_group_symop_operation_xyz
x,y,z
-x,-y,z
x,-y,1/2-z
-x,y,1/2-z
-x,-y,-z
x,y,-z
-x,y,1/2+z
x,-y,1/2+z
1/2+x,1/2+y,1/2+z
1/2-x,1/2-y,1/2+z
1/2+x,1/2-y,-z
1/2-x,1/2+y,-z
1/2-x,1/2-y,1/2-z
1/2+x,1/2+y,1/2-z
1/2-x,1/2+y,z
1/2+x,1/2-y,z
loop_
_atom_site_type_symbol
_atom_site_label
_atom_site_fract_x
_atom_site_fract_y
_atom_site_fract_z
Si Si1 0.491257 0.234306 0.428423
Si Si2 0.724034 0.944646 0.067172
Si Si3 0.612266 0.592000 0.742841
Si Si4 0.314816 0.688848 0.128001
Si Si5 0.418252 0.935467 0.932213
Si Si6 0.908890 0.961877 0.566859
Si Si7 0.160679 0.184965 0.639241
O O1 0.513624 0.235112 0.500000
O O2 0.402617 0.291124 0.414801
O O3 0.458112 0.146577 0.409905
O O4 0.576501 0.260114 0.385817
O O5 0.731534 0.863179 0.099868
O O6 0.666092 0.015422 0.096926
O O7 0.831184 0.971448 0.063133
O O8 0.686001 0.932831 0.000000
O O9 0.643773 0.500000 0.750000
O O10 0.500000 0.590650 0.750000
O O11 0.645606 0.636358 0.682702
O O12 0.646853 0.647752 0.795977
O O13 0.260132 0.770592 0.139661
O O14 0.500000 0.000000 0.934216
O O15 0.385631 0.916248 0.000000
O O16 0.938348 0.937155 0.500000
O O17 0.856151 0.889565 0.596282
O O18 0.000000 0.000000 0.598115
#
# Coordination Sequence:
#
# PCOD9526910 Si02
#       7
#    16  16  16  16  16  16  16
#     4  11  23  38  60  95 134 168 204 252 312 377
#     4  10  20  35  57  87 124 165 203 243 298 369
#     4  11  25  46  70  90 119 166 218 268 325 389
#     4  12  24  41  64  95 129 162 210 269 324 373
#     4   9  18  34  54  80 120 167 204 233 280 358
#     4  10  21  36  58  91 130 167 206 250 303 369
#     4  12  24  40  65  94 125 165 210 269 324 375
#
# _framework density 20.625696000000001
#
# number of rings (size 3 to 8) (size 9 to 14) (size 15 to 20)
#    0.000    1.286    1.429    4.714    2.000    5.714 
#    0.000    0.000    0.000    0.000    0.000    2.000 
#    0.000    0.000    0.000    0.000    0.000    0.000 
#
# Total GULP energy -312273.757519 kJ/mol
# GULP energy per Si atom -5576.317099 kJ/mol
# Density = 2.057875 g / cm^3
# Si number density = 20.625696 Si / 1000 Ang^3
#
#
#
# Elastic Constant Matrix: (Units=GPa)
#
#
# Indices 1 2 3 4 5 6 
#
# 1 86.8251 30.3332 10.9157 0.0000 0.0000 0.0000
# 2 30.3332 118.8954 36.0822 0.0000 0.0000 0.0000
# 3 10.9157 36.0822 71.0547 0.0000 0.0000 0.0000
# 4 0.0000 0.0000 0.0000 11.1715 0.0000 0.0000
# 5 0.0000 0.0000 0.0000 0.0000 13.5950 0.0000
# 6 0.0000 0.0000 0.0000 0.0000 0.0000 46.2512
#
#
#
# Elastic Compliance Matrix: (Units=1/GPa)
#
#
# Indices 1 2 3 4 5 6 
#
# 1 0.012652 -0.003119 -0.000360 0.000000 0.000000 0.000000
# 2 -0.003119 0.010712 -0.004960 0.000000 0.000000 0.000000
# 3 -0.000360 -0.004960 0.016648 0.000000 0.000000 0.000000
# 4 0.000000 0.000000 0.000000 0.089513 0.000000 0.000000
# 5 0.000000 0.000000 0.000000 0.000000 0.073557 0.000000
# 6 0.000000 0.000000 0.000000 0.000000 0.000000 0.021621
#
#
# Mechanical properties :
#
#
# Convention : Reuss Voigt Hill
#
# Bulk Modulus (GPa) = 43.22692 47.93749 45.58221
# Shear Modulus (GPa) = 20.05678 27.49981 23.77829
#
# Velocity S-wave (km/s) = 3.12174 3.65537 3.39905
# Velocity P-wave (km/s) = 5.83070 6.41153 6.12800
#
# Compressibility (1/GPa) = 0.02313373
#
# Stress axis : x y z
#
# Youngs Moduli (GPa) = 79.03766 93.35518 60.06761
#
# Poissons Ratio (x) = 0.29114 0.02162
# Poissons Ratio (y) = 0.24649 0.29796
# Poissons Ratio (z) = 0.02845 0.46308
#
# Static dielectric constant tensor:
#      x y z
#    x 1.783820 0.000000 0.000000 
#    y 0.000000 1.859120 0.000000 
#    z 0.000000 0.000000 1.848300 
# 
# From -- ./inp_files/44365.got.cif
#   From: 2010.05.17/outbox.cif.g08.bks.cpg/sg72_23_cif.got.tgz:44365.got - 2010.06.03 17:03:01.
