data_PCOD9526711
_publ_section_title
;
Structure prediction by ZEFSAII (Michael W. Deem and Ramdas Pophale) SiO2 
 PCOD9526711
Probable space group: I B A M
;
_chemical_formula_sum "Si O2"
_cell_formula_units_Z 96
_cell_length_a 9.205760
_cell_length_b 31.488253
_cell_length_c 15.960516
_cell_angle_alpha 90.000000
_cell_angle_beta 90.000000
_cell_angle_gamma 90.000000
_cell_volume 4626.527442
_symmetry_space_group_name_H-M "I B A M"
_symmetry_group_IT_number 72
_symmetry_cell_setting 'orthorhombic'
loop_
_space_group_symop_operation_xyz
x,y,z
-x,-y,z
x,-y,1/2-z
-x,y,1/2-z
-x,-y,-z
x,y,-z
-x,y,1/2+z
x,-y,1/2+z
1/2+x,1/2+y,1/2+z
1/2-x,1/2-y,1/2+z
1/2+x,1/2-y,-z
1/2-x,1/2+y,-z
1/2-x,1/2-y,1/2-z
1/2+x,1/2+y,1/2-z
1/2-x,1/2+y,z
1/2+x,1/2-y,z
loop_
_atom_site_type_symbol
_atom_site_label
_atom_site_fract_x
_atom_site_fract_y
_atom_site_fract_z
Si Si1 0.286742 0.963165 0.101188
Si Si2 0.426415 0.389683 0.160155
Si Si3 0.395109 0.706831 0.668606
Si Si4 0.270756 0.365649 0.403670
Si Si5 0.185975 0.772055 0.402745
Si Si6 0.376622 0.052752 0.102417
O O1 0.177257 0.928445 0.137016
O O2 0.454338 0.952700 0.122252
O O3 0.277955 0.012596 0.128865
O O4 0.272091 0.961948 0.000000
O O5 0.500000 0.396808 0.250000
O O6 0.354298 0.342822 0.161332
O O7 0.564035 0.382340 0.099430
O O8 0.500000 0.711152 0.750000
O O9 0.254981 0.735733 0.654491
O O10 0.512075 0.722942 0.600094
O O11 0.225210 0.361666 0.500000
O O12 0.260695 0.318225 0.369153
O O13 0.178263 0.402745 0.362496
O O14 0.227380 0.765931 0.500000
O O15 0.367720 0.053093 0.000000
#
# Coordination Sequence:
#
# PCOD9526711 Si02
#       6
#    16  16  16  16  16  16
#     4   9  17  32  55  79 103 136 177 221 268 320
#     4  10  21  35  51  76 109 143 180 220 264 322
#     4  10  21  37  54  75 108 147 183 223 278 338
#     4   9  18  34  53  74 103 136 172 220 274 325
#     4  10  20  34  54  79 104 134 179 232 277 322
#     4   8  16  32  54  79 103 130 172 220 267 323
#
# _framework density 20.749904000000001
#
# number of rings (size 3 to 8) (size 9 to 14) (size 15 to 20)
#    0.000    2.667    0.000    2.500    0.000    4.000 
#    0.000    6.667    0.000    2.000    0.000    0.000 
#    0.000    0.000    0.000    0.000    0.000    0.000 
#
# Total GULP energy -267436.302741 kJ/mol
# GULP energy per Si atom -5571.589640 kJ/mol
# Density = 2.070268 g / cm^3
# Si number density = 20.749904 Si / 1000 Ang^3
#
#
#
# Elastic Constant Matrix: (Units=GPa)
#
#
# Indices 1 2 3 4 5 6 
#
# 1 11.9223 7.0493 -7.3226 0.0000 0.0000 0.0000
# 2 7.0493 48.7186 -4.2996 0.0000 0.0000 0.0000
# 3 -7.3226 -4.2996 38.5380 0.0000 0.0001 0.0000
# 4 0.0000 0.0000 0.0000 19.2171 0.0000 0.0000
# 5 0.0000 0.0000 0.0001 0.0000 19.6363 0.0000
# 6 0.0000 0.0000 0.0000 0.0000 0.0000 48.5573
#
#
#
# Elastic Compliance Matrix: (Units=1/GPa)
#
#
# Indices 1 2 3 4 5 6 
#
# 1 0.102820 -0.013284 0.018055 0.000000 0.000000 0.000000
# 2 -0.013284 0.022446 -0.000020 0.000000 0.000000 0.000000
# 3 0.018055 -0.000020 0.029377 0.000000 0.000000 0.000000
# 4 0.000000 0.000000 0.000000 0.052037 0.000000 0.000000
# 5 0.000000 0.000000 0.000000 0.000000 0.050926 0.000000
# 6 0.000000 0.000000 0.000000 0.000000 0.000000 0.020594
#
#
# Mechanical properties :
#
#
# Convention : Reuss Voigt Hill
#
# Bulk Modulus (GPa) = 6.09216 10.00367 8.04792
# Shear Modulus (GPa) = 15.46006 24.39893 19.92949
#
# Velocity S-wave (km/s) = 2.73255 3.43280 3.10249
# Velocity P-wave (km/s) = 3.59140 4.53251 4.08912
#
# Compressibility (1/GPa) = 0.16414534
#
# Stress axis : x y z
#
# Youngs Moduli (GPa) = 9.72571 44.55052 34.04044
#
# Poissons Ratio (x) = 0.59181 -0.61459
# Poissons Ratio (y) = 0.12920 0.00067
# Poissons Ratio (z) = -0.17560 0.00088
#
# Static dielectric constant tensor:
#      x y z
#    x 1.736870 0.000000 0.000000 
#    y 0.000000 1.773680 0.000000 
#    z 0.000000 0.000000 1.821220 
# 
# From -- ./inp_files/36008.got.cif
#   From: 2010.05.17/outbox.cif.g08.bks.cpg/sg72_19_cif.got.tgz:36008.got - 2010.06.03 17:03:01.
