data_PCOD9526435
_publ_section_title
;
Structure prediction by ZEFSAII (Michael W. Deem and Ramdas Pophale) SiO2 
 PCOD9526435
Probable space group: I B A M
;
_chemical_formula_sum "Si O2"
_cell_formula_units_Z 88
_cell_length_a 19.640309
_cell_length_b 14.688551
_cell_length_c 15.424776
_cell_angle_alpha 90.000000
_cell_angle_beta 90.000000
_cell_angle_gamma 90.000000
_cell_volume 4449.857849
_symmetry_space_group_name_H-M "I B A M"
_symmetry_group_IT_number 72
_symmetry_cell_setting 'orthorhombic'
loop_
_space_group_symop_operation_xyz
x,y,z
-x,-y,z
x,-y,1/2-z
-x,y,1/2-z
-x,-y,-z
x,y,-z
-x,y,1/2+z
x,-y,1/2+z
1/2+x,1/2+y,1/2+z
1/2-x,1/2-y,1/2+z
1/2+x,1/2-y,-z
1/2-x,1/2+y,-z
1/2-x,1/2-y,1/2-z
1/2+x,1/2+y,1/2-z
1/2-x,1/2+y,z
1/2+x,1/2-y,z
loop_
_atom_site_type_symbol
_atom_site_label
_atom_site_fract_x
_atom_site_fract_y
_atom_site_fract_z
Si Si1 0.537335 0.916092 0.844232
Si Si2 0.862135 0.883116 0.900831
Si Si3 0.772062 0.146279 0.238102
Si Si4 0.495474 0.718189 0.145642
Si Si5 0.116259 0.091557 0.402521
Si Si6 0.661682 0.000000 0.750000
O O1 0.500000 0.908180 0.750000
O O2 0.523905 0.817046 0.883007
O O3 0.612959 0.949801 0.820109
O O4 0.500000 0.000000 0.890612
O O5 0.802002 0.881004 0.831574
O O6 0.918607 0.806462 0.880562
O O7 0.893926 0.983760 0.889854
O O8 0.839275 0.873483 0.000000
O O9 0.750000 0.250000 0.250000
O O10 0.831682 0.131193 0.168215
O O11 0.710071 0.079508 0.214023
O O12 0.500000 0.712545 0.250000
O O13 0.545318 0.642929 0.107110
O O14 0.143345 0.104816 0.500000
#
# Coordination Sequence:
#
# PCOD9526435 Si02
#       6
#    16  16  16  16  16   8
#     4   8  18  34  60  93 122 156 210 263 312 369
#     4  11  24  41  62  94 132 166 209 265 320 380
#     4  12  24  39  66  93 127 173 214 258 320 387
#     4  11  20  35  65  95 122 165 212 261 320 374
#     4  11  23  41  61  92 128 164 208 261 319 380
#     4  10  19  38  60  93 126 162 212 260 306 387
#
# _framework density 19.775912999999999
#
# number of rings (size 3 to 8) (size 9 to 14) (size 15 to 20)
#    0.000    1.636    3.636    2.182    5.091    2.909 
#    0.000    0.000    0.000    3.273    0.000    0.000 
#    0.000    0.000    0.000    0.000    0.000    0.000 
#
# Total GULP energy -245529.259969 kJ/mol
# GULP energy per Si atom -5580.210454 kJ/mol
# Density = 1.973090 g / cm^3
# Si number density = 19.775913 Si / 1000 Ang^3
#
#
#
# Elastic Constant Matrix: (Units=GPa)
#
#
# Indices 1 2 3 4 5 6 
#
# 1 74.2384 18.4927 11.8420 0.0000 0.0000 0.0000
# 2 18.4927 123.1660 21.7591 0.0000 0.0000 0.0000
# 3 11.8420 21.7591 86.2690 0.0000 0.0000 0.0000
# 4 0.0000 0.0000 0.0000 -2.8955 0.0000 0.0000
# 5 0.0000 0.0000 0.0000 0.0000 -5.2560 0.0000
# 6 0.0000 0.0000 0.0000 0.0000 0.0000 30.9491
#
#
#
# Elastic Compliance Matrix: (Units=1/GPa)
#
#
# Indices 1 2 3 4 5 6 
#
# 1 0.014170 -0.001867 -0.001474 0.000000 0.000000 0.000000
# 2 -0.001867 0.008744 -0.001949 0.000000 0.000000 0.000000
# 3 -0.001474 -0.001949 0.012286 0.000000 0.000000 0.000000
# 4 0.000000 0.000000 0.000000 -0.345361 0.000000 0.000000
# 5 0.000000 0.000000 0.000000 0.000000 -0.190258 0.000000
# 6 0.000000 0.000000 0.000000 0.000000 0.000000 0.032311
#
#
# Mechanical properties :
#
#
# Convention : Reuss Voigt Hill
#
# Bulk Modulus (GPa) = 40.61924 43.09568 41.85746
# Shear Modulus (GPa) = -11.12791 19.99814 4.43511
#
# Velocity S-wave (km/s) = -2.37470 3.18345 1.49918
# Velocity P-wave (km/s) = 3.61461 5.94573 4.92022
#
# Compressibility (1/GPa) = 0.02461888
#
# Stress axis : x y z
#
# Youngs Moduli (GPa) = 70.56972 114.36667 81.39598
#
# Poissons Ratio (x) = 0.21354 0.11999
# Poissons Ratio (y) = 0.13177 0.15865
# Poissons Ratio (z) = 0.10403 0.22291
#
# Static dielectric constant tensor:
#      x y z
#    x 1.681700 0.000000 0.000000 
#    y 0.000000 1.746880 0.000000 
#    z 0.000000 0.000000 1.713980 
# 
# From -- ./inp_files/24054.got.cif
#   From: 2010.05.17/outbox.cif.g08.bks.cpg/sg72_13_cif.got.tgz:24054.got - 2010.06.03 17:03:01.
