data_PCOD9526683
_publ_section_title
;
Structure prediction by ZEFSAII (Michael W. Deem and Ramdas Pophale) SiO2 
 PCOD9526683
Probable space group: I B A M
;
_chemical_formula_sum "Si O2"
_cell_formula_units_Z 96
_cell_length_a 18.936407
_cell_length_b 33.059373
_cell_length_c 8.727821
_cell_angle_alpha 90.000000
_cell_angle_beta 90.000000
_cell_angle_gamma 90.000000
_cell_volume 5463.840620
_symmetry_space_group_name_H-M "I B A M"
_symmetry_group_IT_number 72
_symmetry_cell_setting 'orthorhombic'
loop_
_space_group_symop_operation_xyz
x,y,z
-x,-y,z
x,-y,1/2-z
-x,y,1/2-z
-x,-y,-z
x,y,-z
-x,y,1/2+z
x,-y,1/2+z
1/2+x,1/2+y,1/2+z
1/2-x,1/2-y,1/2+z
1/2+x,1/2-y,-z
1/2-x,1/2+y,-z
1/2-x,1/2-y,1/2-z
1/2+x,1/2+y,1/2-z
1/2-x,1/2+y,z
1/2+x,1/2-y,z
loop_
_atom_site_type_symbol
_atom_site_label
_atom_site_fract_x
_atom_site_fract_y
_atom_site_fract_z
Si Si1 0.077926 0.831528 0.816935
Si Si2 0.577338 0.244184 0.181976
Si Si3 0.214945 0.543807 0.316973
Si Si4 0.293717 0.379678 0.316428
Si Si5 0.152415 0.668851 0.181918
Si Si6 0.077096 0.415402 0.316661
O O1 0.098710 0.786888 0.756207
O O2 0.134520 0.863370 0.755351
O O3 0.000000 0.839501 0.750000
O O4 0.075384 0.831330 0.000000
O O5 0.500000 0.234073 0.250000
O O6 0.629599 0.208134 0.225959
O O7 0.571934 0.248964 0.000000
O O8 0.232328 0.500000 0.250000
O O9 0.216105 0.543359 0.500000
O O10 0.267575 0.578043 0.253092
O O11 0.137160 0.556826 0.258270
O O12 0.299203 0.383189 0.500000
O O13 0.230659 0.347631 0.283868
O O14 0.100453 0.631033 0.215192
O O15 0.147829 0.677361 0.000000
O O16 0.078360 0.420865 0.500000
O O17 0.000000 0.423316 0.250000
#
# Coordination Sequence:
#
# PCOD9526683 Si02
#       6
#    16  16  16  16  16  16
#     4  11  22  38  59  82 109 141 178 220 269 323
#     4  11  21  33  51  75 107 146 188 230 270 314
#     4  11  22  38  59  83 110 142 179 220 269 323
#     4  10  21  39  60  83 110 140 177 221 269 322
#     4   9  19  34  52  75 107 145 185 227 269 314
#     4  10  20  34  52  77 109 147 189 232 274 318
#
# _framework density 17.570059000000001
#
# number of rings (size 3 to 8) (size 9 to 14) (size 15 to 20)
#    0.000    1.667    0.000    8.000    0.000    6.333 
#    0.000    1.667    0.000    0.500    0.000    3.500 
#    0.000    0.000    0.000    0.000    0.000    0.000 
#
# Total GULP energy -268264.661410 kJ/mol
# GULP energy per Si atom -5588.847113 kJ/mol
# Density = 1.753007 g / cm^3
# Si number density = 17.570059 Si / 1000 Ang^3
#
#
#
# Elastic Constant Matrix: (Units=GPa)
#
#
# Indices 1 2 3 4 5 6 
#
# 1 81.3850 90.6320 70.9798 -0.0007 -0.0011 0.0003
# 2 90.6320 124.6663 83.6138 -0.0013 -0.0002 -0.0002
# 3 70.9798 83.6138 151.1793 -0.0005 -0.0005 0.0006
# 4 -0.0007 -0.0013 -0.0005 29.3475 0.0001 -0.0001
# 5 -0.0011 -0.0002 -0.0005 0.0001 29.6432 -0.0005
# 6 0.0003 -0.0002 0.0006 -0.0001 -0.0005 6.6659
#
#
#
# Elastic Compliance Matrix: (Units=1/GPa)
#
#
# Indices 1 2 3 4 5 6 
#
# 1 0.069428 -0.045483 -0.007441 0.000000 0.000002 -0.000004
# 2 -0.045483 0.042548 -0.002178 0.000001 -0.000001 0.000004
# 3 -0.007441 -0.002178 0.011313 0.000000 0.000000 -0.000001
# 4 0.000000 0.000001 0.000000 0.034074 0.000000 0.000001
# 5 0.000002 -0.000001 0.000000 0.000000 0.033735 0.000003
# 6 -0.000004 0.000004 -0.000001 0.000001 0.000003 0.150017
#
#
# Mechanical properties :
#
#
# Convention : Reuss Voigt Hill
#
# Bulk Modulus (GPa) = 76.42481 94.18686 85.30584
# Shear Modulus (GPa) = 10.97258 20.59833 15.78545
#
# Velocity S-wave (km/s) = 2.50172 3.42768 3.00063
# Velocity P-wave (km/s) = 7.20669 8.32996 7.78860
#
# Compressibility (1/GPa) = 0.01308476
#
# Stress axis : x y z
#
# Youngs Moduli (GPa) = 14.40334 23.50277 88.39489
#
# Poissons Ratio (x) = 1.06898 0.65778
# Poissons Ratio (y) = 0.65511 0.19250
# Poissons Ratio (z) = 0.10718 0.05118
#
# Static dielectric constant tensor:
#      x y z
#    x 1.580820 0.000000 0.000000 
#    y 0.000000 1.583830 0.000000 
#    z 0.000000 0.000000 1.580310 
# 
# From -- ./inp_files/5986.got.cif
#   From: 2010.05.17/outbox.cif.g08.bks.cpg/sg72_3_cif.got.tgz:5986.got - 2010.06.03 17:03:01.
