data_PCOD9526833
_publ_section_title
;
Structure prediction by ZEFSAII (Michael W. Deem and Ramdas Pophale) SiO2 
 PCOD9526833
Probable space group: I B A M
;
_chemical_formula_sum "Si O2"
_cell_formula_units_Z 116
_cell_length_a 30.053982
_cell_length_b 25.077819
_cell_length_c 8.996881
_cell_angle_alpha 90.000000
_cell_angle_beta 90.000000
_cell_angle_gamma 90.000000
_cell_volume 6780.844134
_symmetry_space_group_name_H-M "I B A M"
_symmetry_group_IT_number 72
_symmetry_cell_setting 'orthorhombic'
loop_
_space_group_symop_operation_xyz
x,y,z
-x,-y,z
x,-y,1/2-z
-x,y,1/2-z
-x,-y,-z
x,y,-z
-x,y,1/2+z
x,-y,1/2+z
1/2+x,1/2+y,1/2+z
1/2-x,1/2-y,1/2+z
1/2+x,1/2-y,-z
1/2-x,1/2+y,-z
1/2-x,1/2-y,1/2-z
1/2+x,1/2+y,1/2-z
1/2-x,1/2+y,z
1/2+x,1/2-y,z
loop_
_atom_site_type_symbol
_atom_site_label
_atom_site_fract_x
_atom_site_fract_y
_atom_site_fract_z
Si Si1 0.813932 0.649514 0.321713
Si Si2 0.731838 0.694728 0.178326
Si Si3 0.385915 0.224821 0.321542
Si Si4 0.952777 0.368889 0.323908
Si Si5 0.371895 0.057380 0.321230
Si Si6 0.409825 0.552440 0.329921
Si Si7 0.628386 0.666681 0.178948
Si Si8 0.500000 0.500000 0.250000
O O1 0.813027 0.651017 0.500000
O O2 0.765374 0.652604 0.250593
O O3 0.842967 0.699455 0.260003
O O4 0.838245 0.597888 0.257193
O O5 0.750000 0.750000 0.250000
O O6 0.681101 0.676530 0.208956
O O7 0.736706 0.698671 0.000000
O O8 0.378965 0.223698 0.500000
O O9 0.425978 0.184738 0.283154
O O10 0.394329 0.283905 0.262579
O O11 0.958490 0.367676 0.500000
O O12 0.920537 0.418171 0.288545
O O13 0.000000 0.372577 0.250000
O O14 0.365723 0.057547 0.500000
O O15 0.367185 0.000000 0.250000
O O16 0.390617 0.500000 0.250000
O O17 0.396104 0.550763 0.500000
O O18 0.392286 0.609567 0.272550
O O19 0.463478 0.540224 0.323623
O O20 0.622241 0.671214 0.000000
#
# Coordination Sequence:
#
# PCOD9526833 Si02
#       8
#    16  16  16  16  16  16  16   4
#     4  11  21  35  56  81 111 148 185 225 279 331
#     4  11  21  34  55  82 113 148 188 229 274 331
#     4  10  20  35  54  79 110 144 184 229 276 329
#     4   9  20  36  53  76 108 144 181 226 278 330
#     4  10  21  38  58  82 109 141 186 233 277 329
#     4   9  19  36  58  83 110 141 182 226 275 328
#     4  10  21  36  55  82 113 146 183 228 278 332
#     4   8  18  36  66  80 106 144 186 232 272 332
#
# _framework density 17.107015000000001
#
# number of rings (size 3 to 8) (size 9 to 14) (size 15 to 20)
#    0.414    1.655    1.379    3.517    0.000    4.690 
#    1.241    2.069    0.000    1.655    0.000    0.000 
#    0.000    0.000    0.000    0.000    0.000    0.000 
#
# Total GULP energy -322980.404119 kJ/mol
# GULP energy per Si atom -5568.627657 kJ/mol
# Density = 1.706808 g / cm^3
# Si number density = 17.107015 Si / 1000 Ang^3
#
#
#
# Elastic Constant Matrix: (Units=GPa)
#
#
# Indices 1 2 3 4 5 6 
#
# 1 68.9360 35.8951 25.4659 0.0000 0.0000 0.0000
# 2 35.8951 142.6561 40.0639 0.0000 0.0000 0.0000
# 3 25.4659 40.0639 58.9265 0.0000 0.0000 0.0000
# 4 0.0000 0.0000 0.0000 29.9753 0.0000 0.0000
# 5 0.0000 0.0000 0.0000 0.0000 22.9093 0.0000
# 6 0.0000 0.0000 0.0000 0.0000 0.0000 15.5812
#
#
#
# Elastic Compliance Matrix: (Units=1/GPa)
#
#
# Indices 1 2 3 4 5 6 
#
# 1 0.018202 -0.002930 -0.005874 0.000000 0.000000 0.000000
# 2 -0.002930 0.009136 -0.004945 0.000000 0.000000 0.000000
# 3 -0.005874 -0.004945 0.022871 0.000000 0.000000 0.000000
# 4 0.000000 0.000000 0.000000 0.033361 0.000000 0.000000
# 5 0.000000 0.000000 0.000000 0.000000 0.043650 0.000000
# 6 0.000000 0.000000 0.000000 0.000000 0.000000 0.064180
#
#
# Mechanical properties :
#
#
# Convention : Reuss Voigt Hill
#
# Bulk Modulus (GPa) = 44.03316 52.59648 48.31482
# Shear Modulus (GPa) = 22.07808 24.96606 23.52207
#
# Velocity S-wave (km/s) = 3.59637 3.82436 3.71212
# Velocity P-wave (km/s) = 6.56055 7.09319 6.83206
#
# Compressibility (1/GPa) = 0.02271016
#
# Stress axis : x y z
#
# Youngs Moduli (GPa) = 54.93931 109.45702 43.72355
#
# Poissons Ratio (x) = 0.32074 0.25683
# Poissons Ratio (y) = 0.16099 0.21622
# Poissons Ratio (z) = 0.32271 0.54128
#
# Static dielectric constant tensor:
#      x y z
#    x 1.656950 0.000000 0.000000 
#    y 0.000000 1.672710 0.000000 
#    z 0.000000 0.000000 1.577330 
# 
# From -- ./inp_files/9397.got.cif
#   From: 2010.05.17/outbox.cif.g08.bks.cpg/sg72_5_cif.got.tgz:9397.got - 2010.06.03 17:03:01.
