data_PCOD9526095
_publ_section_title
;
Structure prediction by ZEFSAII (Michael W. Deem and Ramdas Pophale) SiO2 
 PCOD9526095
Probable space group: I B A M
;
_chemical_formula_sum "Si O2"
_cell_formula_units_Z 48
_cell_length_a 17.574573
_cell_length_b 12.038216
_cell_length_c 9.701666
_cell_angle_alpha 90.000000
_cell_angle_beta 90.000000
_cell_angle_gamma 90.000000
_cell_volume 2052.547577
_symmetry_space_group_name_H-M "I B A M"
_symmetry_group_IT_number 72
_symmetry_cell_setting 'orthorhombic'
loop_
_space_group_symop_operation_xyz
x,y,z
-x,-y,z
x,-y,1/2-z
-x,y,1/2-z
-x,-y,-z
x,y,-z
-x,y,1/2+z
x,-y,1/2+z
1/2+x,1/2+y,1/2+z
1/2-x,1/2-y,1/2+z
1/2+x,1/2-y,-z
1/2-x,1/2+y,-z
1/2-x,1/2-y,1/2-z
1/2+x,1/2+y,1/2-z
1/2-x,1/2+y,z
1/2+x,1/2-y,z
loop_
_atom_site_type_symbol
_atom_site_label
_atom_site_fract_x
_atom_site_fract_y
_atom_site_fract_z
Si Si1 0.307109 0.419605 0.500000
Si Si2 0.045644 0.644684 0.000000
Si Si3 0.128650 0.322554 0.000000
Si Si4 0.676581 0.145569 0.698462
Si Si5 0.357777 0.666144 0.500000
O O1 0.361835 0.312008 0.500000
O O2 0.248899 0.410734 0.371347
O O3 0.349306 0.536458 0.500000
O O4 0.096508 0.605490 0.129559
O O5 0.058151 0.779869 0.000000
O O6 0.956818 0.629910 0.000000
O O7 0.168383 0.360377 0.860022
O O8 0.821882 0.228820 0.866432
#
# Coordination Sequence:
#
# PCOD9526095 Si02
#       5
#     8   8   8  16   8
#     4  10  19  34  54  73 117 162 201 242 284 369
#     4   7  18  35  52  78 117 155 189 229 303 366
#     4  12  17  30  58  81 117 155 187 257 297 352
#     4   8  20  35  50  84 110 156 200 237 303 350
#     4   7  18  37  50  74 117 153 198 233 294 364
#
# _framework density 23.385573999999998
#
# number of rings (size 3 to 8) (size 9 to 14) (size 15 to 20)
#    2.000    1.333    0.000    2.000    0.000    2.000 
#    0.000    1.667    7.333    0.000    0.000   18.667 
#    0.000   42.667    0.000   16.000    0.000    0.000 
#
# Total GULP energy -133868.759821 kJ/mol
# GULP energy per Si atom -5577.864993 kJ/mol
# Density = 2.333235 g / cm^3
# Si number density = 23.385574 Si / 1000 Ang^3
#
#
#
# Elastic Constant Matrix: (Units=GPa)
#
#
# Indices 1 2 3 4 5 6 
#
# 1 102.1690 -1.6549 25.1442 0.0000 0.0000 0.0000
# 2 -1.6549 124.6923 14.8761 0.0000 0.0000 0.0000
# 3 25.1442 14.8761 211.5006 0.0000 0.0000 0.0000
# 4 0.0000 0.0000 0.0000 16.5025 0.0000 0.0000
# 5 0.0000 0.0000 0.0000 0.0000 35.9292 0.0000
# 6 0.0000 0.0000 0.0000 0.0000 0.0000 29.0182
#
#
#
# Elastic Compliance Matrix: (Units=1/GPa)
#
#
# Indices 1 2 3 4 5 6 
#
# 1 0.010092 0.000279 -0.001219 0.000000 0.000000 0.000000
# 2 0.000279 0.008095 -0.000603 0.000000 0.000000 0.000000
# 3 -0.001219 -0.000603 0.004915 0.000000 0.000000 0.000000
# 4 0.000000 0.000000 0.000000 0.060597 0.000000 0.000000
# 5 0.000000 0.000000 0.000000 0.000000 0.027833 0.000000
# 6 0.000000 0.000000 0.000000 0.000000 0.000000 0.034461
#
#
# Mechanical properties :
#
#
# Convention : Reuss Voigt Hill
#
# Bulk Modulus (GPa) = 49.95540 57.23251 53.59396
# Shear Modulus (GPa) = 32.10239 42.95641 37.52940
#
# Velocity S-wave (km/s) = 3.70907 4.29053 4.01035
# Velocity P-wave (km/s) = 6.30484 7.00510 6.66417
#
# Compressibility (1/GPa) = 0.02001786
#
# Stress axis : x y z
#
# Youngs Moduli (GPa) = 99.08490 123.52776 203.43889
#
# Poissons Ratio (x) = -0.03452 0.24809
# Poissons Ratio (y) = -0.02769 0.12259
# Poissons Ratio (z) = 0.12083 0.07444
#
# Static dielectric constant tensor:
#      x y z
#    x 1.839470 0.000000 0.000000 
#    y 0.000000 1.979630 0.000000 
#    z 0.000000 0.000000 1.886270 
# 
# From -- ./inp_files/3037.got.cif
#   From: 2010.05.17/outbox.cif.g08.bks.cpg/sg72_2_cif.got.tgz:3037.got - 2010.06.03 17:03:01.
