data_PCOD9526330
_publ_section_title
;
Structure prediction by ZEFSAII (Michael W. Deem and Ramdas Pophale) SiO2 
 PCOD9526330
Probable space group: I B A M
;
_chemical_formula_sum "Si O2"
_cell_formula_units_Z 116
_cell_length_a 12.468732
_cell_length_b 27.347924
_cell_length_c 19.716426
_cell_angle_alpha 90.000000
_cell_angle_beta 90.000000
_cell_angle_gamma 90.000000
_cell_volume 6723.181688
_symmetry_space_group_name_H-M "I B A M"
_symmetry_group_IT_number 72
_symmetry_cell_setting 'orthorhombic'
loop_
_space_group_symop_operation_xyz
x,y,z
-x,-y,z
x,-y,1/2-z
-x,y,1/2-z
-x,-y,-z
x,y,-z
-x,y,1/2+z
x,-y,1/2+z
1/2+x,1/2+y,1/2+z
1/2-x,1/2-y,1/2+z
1/2+x,1/2-y,-z
1/2-x,1/2+y,-z
1/2-x,1/2-y,1/2-z
1/2+x,1/2+y,1/2-z
1/2-x,1/2+y,z
1/2+x,1/2-y,z
loop_
_atom_site_type_symbol
_atom_site_label
_atom_site_fract_x
_atom_site_fract_y
_atom_site_fract_z
Si Si1 0.876532 0.496590 0.667943
Si Si2 0.752444 0.732012 0.361413
Si Si3 0.863009 0.173836 0.079671
Si Si4 0.500000 0.500000 0.750000
Si Si5 0.179821 0.066402 0.817656
Si Si6 0.111528 0.149687 0.077762
Si Si7 0.776582 0.605672 0.177775
Si Si8 0.379569 0.802938 0.235128
O O1 0.883237 0.500000 0.750000
O O2 0.784094 0.537004 0.653655
O O3 0.828192 0.443769 0.649425
O O4 0.000000 0.500000 0.642706
O O5 0.827192 0.771760 0.398178
O O6 0.688853 0.695895 0.410086
O O7 0.670812 0.764361 0.316790
O O8 0.816318 0.700446 0.305844
O O9 0.798167 0.134964 0.125486
O O10 0.989256 0.166106 0.090714
O O11 0.839640 0.166943 0.000000
O O12 0.419449 0.468810 0.702369
O O13 0.143526 0.107220 0.870456
O O14 0.212628 0.090668 0.745746
O O15 0.119358 0.133051 0.000000
O O16 0.866823 0.643744 0.202546
O O17 0.500000 0.789838 0.250000
#
# Coordination Sequence:
#
# PCOD9526330 Si02
#       8
#    16  16  16   4  16  16  16  16
#     4   9  19  34  57  85 113 145 185 233 287 338
#     4  10  20  37  54  80 114 149 186 231 281 340
#     4  10  22  38  56  81 114 151 191 232 285 344
#     4  12  20  36  60  84 116 148 188 244 300 332
#     4  11  21  36  58  87 115 146 192 240 284 349
#     4  11  23  38  58  82 115 156 191 235 287 344
#     4  10  19  36  57  85 110 145 183 235 282 328
#     4  10  20  31  55  87 112 140 182 234 283 327
#
# _framework density 17.253736
#
# number of rings (size 3 to 8) (size 9 to 14) (size 15 to 20)
#    0.000    1.793    3.448    2.069    3.862    0.000 
#    1.241    1.034    0.000    7.448    0.000    0.000 
#    0.000    0.000    0.000    0.000    0.000    0.000 
#
# Total GULP energy -323448.067037 kJ/mol
# GULP energy per Si atom -5576.690811 kJ/mol
# Density = 1.721447 g / cm^3
# Si number density = 17.253736 Si / 1000 Ang^3
#
#
#
# Elastic Constant Matrix: (Units=GPa)
#
#
# Indices 1 2 3 4 5 6 
#
# 1 106.7281 51.8526 45.6389 0.0000 0.0000 0.0000
# 2 51.8526 102.8831 47.9315 0.0000 0.0000 0.0000
# 3 45.6389 47.9315 71.3303 0.0000 0.0000 0.0000
# 4 0.0000 0.0000 0.0000 10.4696 0.0000 0.0000
# 5 0.0000 0.0000 0.0000 0.0000 31.0767 0.0000
# 6 0.0000 0.0000 0.0000 0.0000 0.0000 32.2367
#
#
#
# Elastic Compliance Matrix: (Units=1/GPa)
#
#
# Indices 1 2 3 4 5 6 
#
# 1 0.014049 -0.004211 -0.006159 0.000000 0.000000 0.000000
# 2 -0.004211 0.015412 -0.007662 0.000000 0.000000 0.000000
# 3 -0.006159 -0.007662 0.023109 0.000000 0.000000 0.000000
# 4 0.000000 0.000000 0.000000 0.095515 0.000000 0.000000
# 5 0.000000 0.000000 0.000000 0.000000 0.032178 0.000000
# 6 0.000000 0.000000 0.000000 0.000000 0.000000 0.031021
#
#
# Mechanical properties :
#
#
# Convention : Reuss Voigt Hill
#
# Bulk Modulus (GPa) = 60.58722 63.53194 62.05958
# Shear Modulus (GPa) = 19.77459 23.79116 21.78288
#
# Velocity S-wave (km/s) = 3.38909 3.71738 3.55703
# Velocity P-wave (km/s) = 7.10677 7.43823 7.27439
#
# Compressibility (1/GPa) = 0.01650513
#
# Stress axis : x y z
#
# Youngs Moduli (GPa) = 71.17706 64.88590 43.27412
#
# Poissons Ratio (x) = 0.27326 0.26654
# Poissons Ratio (y) = 0.29975 0.33155
# Poissons Ratio (z) = 0.43840 0.49713
#
# Static dielectric constant tensor:
#      x y z
#    x 1.594210 0.000000 0.000000 
#    y 0.000000 1.593550 0.000000 
#    z 0.000000 0.000000 1.560890 
# 
# From -- ./inp_files/29702.got.cif
#   From: 2010.05.17/outbox.cif.g08.bks.cpg/sg72_15_cif.got.tgz:29702.got - 2010.06.03 17:03:01.
