data_PCOD9526536
_publ_section_title
;
Structure prediction by ZEFSAII (Michael W. Deem and Ramdas Pophale) SiO2 
 PCOD9526536
Probable space group: I B A M
;
_chemical_formula_sum "Si O2"
_cell_formula_units_Z 92
_cell_length_a 13.997133
_cell_length_b 16.350221
_cell_length_c 14.609826
_cell_angle_alpha 90.000000
_cell_angle_beta 90.000000
_cell_angle_gamma 90.000000
_cell_volume 3343.549523
_symmetry_space_group_name_H-M "I B A M"
_symmetry_group_IT_number 72
_symmetry_cell_setting 'orthorhombic'
loop_
_space_group_symop_operation_xyz
x,y,z
-x,-y,z
x,-y,1/2-z
-x,y,1/2-z
-x,-y,-z
x,y,-z
-x,y,1/2+z
x,-y,1/2+z
1/2+x,1/2+y,1/2+z
1/2-x,1/2-y,1/2+z
1/2+x,1/2-y,-z
1/2-x,1/2+y,-z
1/2-x,1/2-y,1/2-z
1/2+x,1/2+y,1/2-z
1/2-x,1/2+y,z
1/2+x,1/2-y,z
loop_
_atom_site_type_symbol
_atom_site_label
_atom_site_fract_x
_atom_site_fract_y
_atom_site_fract_z
Si Si1 0.492442 0.880172 0.354579
Si Si2 0.503693 0.301313 0.890004
Si Si3 0.663515 0.920474 0.000000
Si Si4 0.876814 0.039277 0.103087
Si Si5 0.789526 0.645424 0.145187
Si Si6 0.222265 0.824044 0.351412
Si Si7 0.500000 0.500000 0.750000
O O1 0.500000 0.908032 0.250000
O O2 0.459622 0.784644 0.358049
O O3 0.420502 0.927591 0.419510
O O4 0.602507 0.870935 0.384773
O O5 0.433633 0.376782 0.870713
O O6 0.607648 0.311343 0.844597
O O7 0.516268 0.297950 0.000000
O O8 0.742279 0.891707 0.921285
O O9 0.769276 0.068160 0.110511
O O10 0.918729 0.976215 0.174728
O O11 0.898586 0.015956 0.000000
O O12 0.751528 0.733131 0.110068
O O13 0.770736 0.655655 0.253954
#
# Coordination Sequence:
#
# PCOD9526536 Si02
#       7
#    16  16   8  16  16  16   4
#     4  11  22  33  51  83 129 169 204 233 276 347
#     4  10  20  33  52  83 115 158 199 235 289 359
#     4  12  20  32  48  74 122 172 200 232 269 329
#     4  11  25  41  66  87 119 156 205 256 317 363
#     4  10  22  35  53  83 117 163 204 242 290 357
#     4  10  20  32  51  80 124 165 204 232 274 351
#     4  12  26  48  64  86 114 148 206 280 324 368
#
# _framework density 27.515667000000001
#
# number of rings (size 3 to 8) (size 9 to 14) (size 15 to 20)
#    0.000    1.391    3.478    2.348   10.957    0.000 
#    0.000    0.000    0.000    0.000    0.000    0.609 
#    0.000    6.957    0.000    0.000    0.000    0.000 
#
# Total GULP energy -256580.975207 kJ/mol
# GULP energy per Si atom -5577.847287 kJ/mol
# Density = 2.745304 g / cm^3
# Si number density = 27.515667 Si / 1000 Ang^3
#
#
#
# Elastic Constant Matrix: (Units=GPa)
#
#
# Indices 1 2 3 4 5 6 
#
# 1 120.1761 -0.6850 -5.1207 0.0000 0.0000 0.0000
# 2 -0.6850 122.7631 -0.7254 0.0000 0.0000 0.0000
# 3 -5.1207 -0.7254 152.7767 0.0000 0.0000 0.0000
# 4 0.0000 0.0000 0.0000 6.6474 0.0000 0.0000
# 5 0.0000 0.0000 0.0000 0.0000 -32.1833 0.0000
# 6 0.0000 0.0000 0.0000 0.0000 0.0000 34.7736
#
#
#
# Elastic Compliance Matrix: (Units=1/GPa)
#
#
# Indices 1 2 3 4 5 6 
#
# 1 0.008333 0.000048 0.000280 0.000000 0.000000 0.000000
# 2 0.000048 0.008146 0.000040 0.000000 0.000000 0.000000
# 3 0.000280 0.000040 0.006555 0.000000 0.000000 0.000000
# 4 0.000000 0.000000 0.000000 0.150435 0.000000 0.000000
# 5 0.000000 0.000000 0.000000 0.000000 -0.031072 0.000000
# 6 0.000000 0.000000 0.000000 0.000000 0.000000 0.028757
#
#
# Mechanical properties :
#
#
# Convention : Reuss Voigt Hill
#
# Bulk Modulus (GPa) = 42.06875 42.51708 42.29292
# Shear Modulus (GPa) = 28.03586 28.66399 28.34992
#
# Velocity S-wave (km/s) = 3.19549 3.23109 3.21334
# Velocity P-wave (km/s) = 5.37932 5.42268 5.40104
#
# Compressibility (1/GPa) = 0.02377061
#
# Stress axis : x y z
#
# Youngs Moduli (GPa) = 120.00038 122.75542 152.55390
#
# Poissons Ratio (x) = -0.00591 -0.04264
# Poissons Ratio (y) = -0.00578 -0.00615
# Poissons Ratio (z) = -0.03354 -0.00495
#
# Static dielectric constant tensor:
#      x y z
#    x 2.190980 0.000000 0.000000 
#    y 0.000000 2.334540 0.000000 
#    z 0.000000 0.000000 2.010620 
# 
# From -- ./inp_files/21913.got.cif
#   From: 2010.05.17/outbox.cif.g08.bks.cpg/sg72_11_cif.got.tgz:21913.got - 2010.06.03 17:03:01.
