data_PCOD9526295
_publ_section_title
;
Structure prediction by ZEFSAII (Michael W. Deem and Ramdas Pophale) SiO2 
 PCOD9526295
Probable space group: I B A M
;
_chemical_formula_sum "Si O2"
_cell_formula_units_Z 68
_cell_length_a 16.947763
_cell_length_b 9.871869
_cell_length_c 18.715799
_cell_angle_alpha 90.000000
_cell_angle_beta 90.000000
_cell_angle_gamma 90.000000
_cell_volume 3131.267268
_symmetry_space_group_name_H-M "I B A M"
_symmetry_group_IT_number 72
_symmetry_cell_setting 'orthorhombic'
loop_
_space_group_symop_operation_xyz
x,y,z
-x,-y,z
x,-y,1/2-z
-x,y,1/2-z
-x,-y,-z
x,y,-z
-x,y,1/2+z
x,-y,1/2+z
1/2+x,1/2+y,1/2+z
1/2-x,1/2-y,1/2+z
1/2+x,1/2-y,-z
1/2-x,1/2+y,-z
1/2-x,1/2-y,1/2-z
1/2+x,1/2+y,1/2-z
1/2-x,1/2+y,z
1/2+x,1/2-y,z
loop_
_atom_site_type_symbol
_atom_site_label
_atom_site_fract_x
_atom_site_fract_y
_atom_site_fract_z
Si Si1 0.583855 0.753762 0.414912
Si Si2 0.500000 0.000000 0.250000
Si Si3 0.576657 0.340805 0.581085
Si Si4 0.386451 0.944912 0.367138
Si Si5 0.712936 0.539993 0.586635
O O1 0.573351 0.758261 0.500000
O O2 0.511397 0.661837 0.386763
O O3 0.581724 0.907597 0.389353
O O4 0.666888 0.681043 0.402459
O O5 0.437543 0.913586 0.296542
O O6 0.570581 0.393271 0.500000
O O7 0.650317 0.425089 0.610349
O O8 0.598453 0.181931 0.581588
O O9 0.292521 0.962503 0.368102
O O10 0.730273 0.524415 0.500000
#
# Coordination Sequence:
#
# PCOD9526295 Si02
#       5
#    16   4  16  16  16
#     4  10  19  35  62  95 125 151 179 229 304 371
#     4  12  28  44  58  78 110 164 224 256 268 316
#     4  10  19  35  62  95 125 151 179 229 304 371
#     4  12  22  40  60  78 117 158 209 248 275 330
#     4  10  21  36  61  99 128 143 175 237 310 369
#
# _framework density 21.716446999999999
#
# number of rings (size 3 to 8) (size 9 to 14) (size 15 to 20)
#    0.000    1.412    2.353    4.235    0.000    8.471 
#    0.000    4.706    0.000    1.412    0.000    0.000 
#    0.000    0.000    0.000    0.000    0.000    0.000 
#
# Total GULP energy -189541.461099 kJ/mol
# GULP energy per Si atom -5574.748856 kJ/mol
# Density = 2.166702 g / cm^3
# Si number density = 21.716447 Si / 1000 Ang^3
#
#
#
# Elastic Constant Matrix: (Units=GPa)
#
#
# Indices 1 2 3 4 5 6 
#
# 1 182.9446 28.1736 33.9292 0.0000 0.0000 0.0000
# 2 28.1736 85.1023 13.4513 0.0000 0.0000 0.0000
# 3 33.9292 13.4513 32.4417 0.0000 0.0000 0.0000
# 4 0.0000 0.0000 0.0000 2.3970 0.0000 0.0000
# 5 0.0000 0.0000 0.0000 0.0000 31.8047 0.0000
# 6 0.0000 0.0000 0.0000 0.0000 0.0000 35.8112
#
#
#
# Elastic Compliance Matrix: (Units=1/GPa)
#
#
# Indices 1 2 3 4 5 6 
#
# 1 0.006899 -0.001224 -0.006708 0.000000 0.000000 0.000000
# 2 -0.001224 0.012792 -0.004024 0.000000 0.000000 0.000000
# 3 -0.006708 -0.004024 0.039508 0.000000 0.000000 0.000000
# 4 0.000000 0.000000 0.000000 0.417186 0.000000 0.000000
# 5 0.000000 0.000000 0.000000 0.000000 0.031442 0.000000
# 6 0.000000 0.000000 0.000000 0.000000 0.000000 0.027924
#
#
# Mechanical properties :
#
#
# Convention : Reuss Voigt Hill
#
# Bulk Modulus (GPa) = 28.33833 50.17741 39.25787
# Shear Modulus (GPa) = 8.75007 28.99820 18.87414
#
# Velocity S-wave (km/s) = 2.00947 3.65815 2.95128
# Velocity P-wave (km/s) = 4.29669 6.40302 5.45253
#
# Compressibility (1/GPa) = 0.03528790
#
# Stress axis : x y z
#
# Youngs Moduli (GPa) = 144.95777 78.17566 25.31123
#
# Poissons Ratio (x) = 0.09566 0.16978
# Poissons Ratio (y) = 0.17737 0.10186
# Poissons Ratio (z) = 0.97231 0.31459
#
# Static dielectric constant tensor:
#      x y z
#    x 1.861920 0.000000 0.000000 
#    y 0.000000 1.810360 0.000000 
#    z 0.000000 0.000000 1.851440 
# 
# From -- ./inp_files/35482.got.cif
#   From: 2010.05.17/outbox.cif.g08.bks.cpg/sg72_18_cif.got.tgz:35482.got - 2010.06.03 17:03:01.
