data_PCOD9526674
_publ_section_title
;
Structure prediction by ZEFSAII (Michael W. Deem and Ramdas Pophale) SiO2 
 PCOD9526674
Probable space group: I B A M
;
_chemical_formula_sum "Si O2"
_cell_formula_units_Z 112
_cell_length_a 14.277660
_cell_length_b 27.695109
_cell_length_c 14.395006
_cell_angle_alpha 90.000000
_cell_angle_beta 90.000000
_cell_angle_gamma 90.000000
_cell_volume 5692.092705
_symmetry_space_group_name_H-M "I B A M"
_symmetry_group_IT_number 72
_symmetry_cell_setting 'orthorhombic'
loop_
_space_group_symop_operation_xyz
x,y,z
-x,-y,z
x,-y,1/2-z
-x,y,1/2-z
-x,-y,-z
x,y,-z
-x,y,1/2+z
x,-y,1/2+z
1/2+x,1/2+y,1/2+z
1/2-x,1/2-y,1/2+z
1/2+x,1/2-y,-z
1/2-x,1/2+y,-z
1/2-x,1/2-y,1/2-z
1/2+x,1/2+y,1/2-z
1/2-x,1/2+y,z
1/2+x,1/2-y,z
loop_
_atom_site_type_symbol
_atom_site_label
_atom_site_fract_x
_atom_site_fract_y
_atom_site_fract_z
Si Si1 0.202694 0.821458 0.267836
Si Si2 0.295196 0.152773 0.395656
Si Si3 0.103279 0.918666 0.725374
Si Si4 0.134874 0.486961 0.395030
Si Si5 0.394075 0.778091 0.216126
Si Si6 0.854227 0.989044 0.394714
Si Si7 0.097653 0.576512 0.276513
O O1 0.203068 0.827343 0.155139
O O2 0.168292 0.873422 0.303413
O O3 0.311827 0.803734 0.280830
O O4 0.136822 0.777327 0.294351
O O5 0.282456 0.137866 0.500000
O O6 0.373520 0.194037 0.380272
O O7 0.332232 0.109852 0.331524
O O8 0.102263 0.961681 0.648810
O O9 0.000000 0.899865 0.750000
O O10 0.132933 0.946500 0.819959
O O11 0.103602 0.476213 0.500000
O O12 0.242953 0.502624 0.399065
O O13 0.080778 0.531386 0.345859
O O14 0.134078 0.444044 0.320562
O O15 0.500000 0.782552 0.250000
O O16 0.887315 0.979423 0.500000
O O17 0.000000 0.601220 0.250000
#
# Coordination Sequence:
#
# PCOD9526674 Si02
#       7
#    16  16  16  16  16  16  16
#     4   9  20  37  62  88 115 149 198 239 290 354
#     4  10  20  36  57  83 114 149 191 234 287 357
#     4  11  21  35  59  85 115 156 195 237 291 345
#     4  10  20  34  52  74 107 152 200 249 302 355
#     4   9  19  39  64  85 115 154 191 244 302 346
#     4  10  21  37  54  81 117 152 195 240 284 345
#     4  11  21  32  51  77 111 152 196 250 299 351
#
# _framework density 19.676418999999999
#
# number of rings (size 3 to 8) (size 9 to 14) (size 15 to 20)
#    0.857    1.143    0.000    6.429    0.000    4.571 
#    0.000    1.429    0.000    5.143    0.000    0.000 
#    0.000    0.000    0.000    0.000    0.000    0.000 
#
# Total GULP energy -311792.310128 kJ/mol
# GULP energy per Si atom -5567.719824 kJ/mol
# Density = 1.963163 g / cm^3
# Si number density = 19.676419 Si / 1000 Ang^3
#
#
#
# Elastic Constant Matrix: (Units=GPa)
#
#
# Indices 1 2 3 4 5 6 
#
# 1 65.9039 15.2378 -5.6517 0.0000 0.0000 0.0000
# 2 15.2378 118.9578 28.2279 -0.0002 0.0000 0.0000
# 3 -5.6517 28.2279 122.0818 -0.0002 0.0000 0.0000
# 4 0.0000 -0.0002 -0.0002 10.4897 0.0000 0.0000
# 5 0.0000 0.0000 0.0000 0.0000 17.3800 0.0000
# 6 0.0000 0.0000 0.0000 0.0000 0.0000 11.4826
#
#
#
# Elastic Compliance Matrix: (Units=1/GPa)
#
#
# Indices 1 2 3 4 5 6 
#
# 1 0.015821 -0.002328 0.001271 0.000000 0.000000 0.000000
# 2 -0.002328 0.009237 -0.002244 0.000000 0.000000 0.000000
# 3 0.001271 -0.002244 0.008769 0.000000 0.000000 0.000000
# 4 0.000000 0.000000 0.000000 0.095332 0.000000 0.000000
# 5 0.000000 0.000000 0.000000 0.000000 0.057537 0.000000
# 6 0.000000 0.000000 0.000000 0.000000 0.000000 0.087089
#
#
# Mechanical properties :
#
#
# Convention : Reuss Voigt Hill
#
# Bulk Modulus (GPa) = 36.73128 42.50796 39.61962
# Shear Modulus (GPa) = 17.27349 25.81242 21.54295
#
# Velocity S-wave (km/s) = 2.96611 3.62587 3.31246
# Velocity P-wave (km/s) = 5.51712 6.25936 5.89993
#
# Compressibility (1/GPa) = 0.02722475
#
# Stress axis : x y z
#
# Youngs Moduli (GPa) = 63.20769 108.26098 114.04057
#
# Poissons Ratio (x) = 0.25204 -0.14491
# Poissons Ratio (y) = 0.14715 0.25586
# Poissons Ratio (z) = -0.08032 0.24289
#
# Static dielectric constant tensor:
#      x y z
#    x 1.775020 0.000000 0.000000 
#    y 0.000000 1.749240 0.000000 
#    z 0.000000 0.000000 1.705660 
# 
# From -- ./inp_files/22297.got.cif
#   From: 2010.05.17/outbox.cif.g08.bks.cpg/sg72_12_cif.got.tgz:22297.got - 2010.06.03 17:03:01.
