data_PCOD9526152
_publ_section_title
;
Structure prediction by ZEFSAII (Michael W. Deem and Ramdas Pophale) SiO2 
 PCOD9526152
Probable space group: I B A M
;
_chemical_formula_sum "Si O2"
_cell_formula_units_Z 116
_cell_length_a 29.031082
_cell_length_b 9.779007
_cell_length_c 22.600152
_cell_angle_alpha 90.000000
_cell_angle_beta 90.000000
_cell_angle_gamma 90.000000
_cell_volume 6416.073635
_symmetry_space_group_name_H-M "I B A M"
_symmetry_group_IT_number 72
_symmetry_cell_setting 'orthorhombic'
loop_
_space_group_symop_operation_xyz
x,y,z
-x,-y,z
x,-y,1/2-z
-x,y,1/2-z
-x,-y,-z
x,y,-z
-x,y,1/2+z
x,-y,1/2+z
1/2+x,1/2+y,1/2+z
1/2-x,1/2-y,1/2+z
1/2+x,1/2-y,-z
1/2-x,1/2+y,-z
1/2-x,1/2-y,1/2-z
1/2+x,1/2+y,1/2-z
1/2-x,1/2+y,z
1/2+x,1/2-y,z
loop_
_atom_site_type_symbol
_atom_site_label
_atom_site_fract_x
_atom_site_fract_y
_atom_site_fract_z
Si Si1 0.773274 0.139063 0.431317
Si Si2 0.367590 0.156196 0.747802
Si Si3 0.000000 0.000000 0.000000
Si Si4 0.352457 0.579729 0.570134
Si Si5 0.451015 0.657239 0.230826
Si Si6 0.070047 0.133596 0.095292
Si Si7 0.324203 0.142598 0.128720
Si Si8 0.648839 0.838589 0.610151
O O1 0.758586 0.142659 0.500000
O O2 0.728942 0.137798 0.390138
O O3 0.806643 0.267186 0.418359
O O4 0.805415 0.006339 0.421739
O O5 0.409079 0.259627 0.758680
O O6 0.330859 0.160219 0.800773
O O7 0.350388 0.188496 0.681352
O O8 0.385217 0.000000 0.750000
O O9 0.030006 0.085645 0.051221
O O10 0.361392 0.587417 0.500000
O O11 0.393699 0.491965 0.597556
O O12 0.347097 0.727573 0.597677
O O13 0.447965 0.500000 0.250000
O O14 0.500000 0.714660 0.250000
O O15 0.448815 0.662256 0.160192
O O16 0.103742 0.264457 0.082303
O O17 0.347813 0.001976 0.106631
#
# Coordination Sequence:
#
# PCOD9526152 Si02
#       8
#    16  16   4  16  16  16  16  16
#     4  10  21  36  55  80 112 150 198 235 272 330
#     4   9  20  37  54  79 114 147 181 227 292 343
#     4  12  20  36  62  82 104 148 184 232 292 344
#     4  10  20  36  53  81 113 148 189 233 283 327
#     4  10  19  34  57  85 106 138 187 234 276 340
#     4  10  21  37  57  81 111 144 183 229 284 341
#     4  11  20  33  57  83 113 150 185 236 279 329
#     4   9  21  39  56  79 112 149 188 229 280 341
#
# _framework density 18.079594
#
# number of rings (size 3 to 8) (size 9 to 14) (size 15 to 20)
#    0.000    2.069    0.690    2.897    0.966    3.034 
#    0.000    1.379    0.000    3.310    0.000    0.000 
#    0.000    0.000    0.000    0.000    0.000    0.000 
#
# Total GULP energy -322960.376296 kJ/mol
# GULP energy per Si atom -5568.282350 kJ/mol
# Density = 1.803844 g / cm^3
# Si number density = 18.079594 Si / 1000 Ang^3
#
#
#
# Elastic Constant Matrix: (Units=GPa)
#
#
# Indices 1 2 3 4 5 6 
#
# 1 75.1014 25.6558 58.1336 0.0000 0.0000 0.0000
# 2 25.6558 88.5159 35.3675 0.0000 0.0000 0.0000
# 3 58.1336 35.3675 78.4041 0.0000 0.0000 0.0000
# 4 0.0000 0.0000 0.0000 23.6118 0.0000 0.0000
# 5 0.0000 0.0000 0.0000 0.0000 39.7628 0.0000
# 6 0.0000 0.0000 0.0000 0.0000 0.0000 12.3885
#
#
#
# Elastic Compliance Matrix: (Units=1/GPa)
#
#
# Indices 1 2 3 4 5 6 
#
# 1 0.031257 0.000245 -0.023286 0.000000 0.000000 0.000000
# 2 0.000245 0.013783 -0.006399 0.000000 0.000000 0.000000
# 3 -0.023286 -0.006399 0.032907 0.000000 0.000000 0.000000
# 4 0.000000 0.000000 0.000000 0.042352 0.000000 0.000000
# 5 0.000000 0.000000 0.000000 0.000000 0.025149 0.000000
# 6 0.000000 0.000000 0.000000 0.000000 0.000000 0.080720
#
#
# Mechanical properties :
#
#
# Convention : Reuss Voigt Hill
#
# Bulk Modulus (GPa) = 52.44934 53.37058 52.90996
# Shear Modulus (GPa) = 17.15835 23.34360 20.25098
#
# Velocity S-wave (km/s) = 3.08400 3.59717 3.35042
# Velocity P-wave (km/s) = 6.46178 6.84373 6.65550
#
# Compressibility (1/GPa) = 0.01906602
#
# Stress axis : x y z
#
# Youngs Moduli (GPa) = 31.99307 72.55177 30.38900
#
# Poissons Ratio (x) = -0.01775 0.70764
# Poissons Ratio (y) = -0.00783 0.19446
# Poissons Ratio (z) = 0.74499 0.46425
#
# Static dielectric constant tensor:
#      x y z
#    x 1.619620 0.000000 0.000000 
#    y 0.000000 1.621910 0.000000 
#    z 0.000000 0.000000 1.626390 
# 
# From -- ./inp_files/46226.got.cif
#   From: 2010.05.17/outbox.cif.g08.bks.cpg/sg72_24_cif.got.tgz:46226.got - 2010.06.03 17:03:01.
