data_PCOD9526771
_publ_section_title
;
Structure prediction by ZEFSAII (Michael W. Deem and Ramdas Pophale) SiO2 
 PCOD9526771
Probable space group: I B A M
;
_chemical_formula_sum "Si O2"
_cell_formula_units_Z 96
_cell_length_a 24.423543
_cell_length_b 12.168907
_cell_length_c 15.825539
_cell_angle_alpha 90.000000
_cell_angle_beta 90.000000
_cell_angle_gamma 90.000000
_cell_volume 4703.474000
_symmetry_space_group_name_H-M "I B A M"
_symmetry_group_IT_number 72
_symmetry_cell_setting 'orthorhombic'
loop_
_space_group_symop_operation_xyz
x,y,z
-x,-y,z
x,-y,1/2-z
-x,y,1/2-z
-x,-y,-z
x,y,-z
-x,y,1/2+z
x,-y,1/2+z
1/2+x,1/2+y,1/2+z
1/2-x,1/2-y,1/2+z
1/2+x,1/2-y,-z
1/2-x,1/2+y,-z
1/2-x,1/2-y,1/2-z
1/2+x,1/2+y,1/2-z
1/2-x,1/2+y,z
1/2+x,1/2-y,z
loop_
_atom_site_type_symbol
_atom_site_label
_atom_site_fract_x
_atom_site_fract_y
_atom_site_fract_z
Si Si1 0.571639 0.301038 0.839777
Si Si2 0.840237 0.626191 0.843213
Si Si3 0.854957 0.619397 0.359097
Si Si4 0.447545 0.278207 0.862104
Si Si5 0.126515 0.980517 0.096657
Si Si6 0.221256 0.823810 0.900268
O O1 0.613238 0.209455 0.873515
O O2 0.511728 0.285724 0.879915
O O3 0.561792 0.289095 0.739145
O O4 0.600109 0.418208 0.854702
O O5 0.850714 0.617915 0.742749
O O6 0.844589 0.505841 0.884681
O O7 0.779830 0.673415 0.856940
O O8 0.913981 0.668417 0.385768
O O9 0.810561 0.709007 0.388491
O O10 0.416906 0.381312 0.902668
O O11 0.181676 0.922764 0.131508
O O12 0.136785 0.015399 0.000000
O O13 0.228822 0.840894 0.000000
#
# Coordination Sequence:
#
# PCOD9526771 Si02
#       6
#    16  16  16  16  16  16
#     4  10  20  34  57  85 112 142 185 231 275 334
#     4  10  21  36  57  84 110 144 186 227 277 330
#     4   9  20  39  57  80 111 144 185 224 281 334
#     4   9  19  37  57  81 112 146 181 227 283 331
#     4  10  21  36  54  80 112 148 187 230 280 326
#     4  10  22  38  56  78 111 152 188 229 278 327
#
# _framework density 20.410446
#
# number of rings (size 3 to 8) (size 9 to 14) (size 15 to 20)
#    0.000    2.333    0.000    1.500    2.333    4.667 
#    6.000    3.333    0.000    0.000    0.000    7.000 
#    0.000    0.000    0.000    0.000    0.000    0.000 
#
# Total GULP energy -267911.152486 kJ/mol
# GULP energy per Si atom -5581.482343 kJ/mol
# Density = 2.036399 g / cm^3
# Si number density = 20.410446 Si / 1000 Ang^3
#
#
#
# Elastic Constant Matrix: (Units=GPa)
#
#
# Indices 1 2 3 4 5 6 
#
# 1 145.7731 71.6774 8.5501 0.0000 0.0000 0.0000
# 2 71.6774 115.5166 6.7642 0.0000 0.0000 0.0000
# 3 8.5501 6.7642 17.1636 0.0000 0.0000 0.0000
# 4 0.0000 0.0000 0.0000 -13.1002 0.0000 0.0000
# 5 0.0000 0.0000 0.0000 0.0000 -5.3188 0.0000
# 6 0.0000 0.0000 0.0000 0.0000 0.0000 17.6986
#
#
#
# Elastic Compliance Matrix: (Units=1/GPa)
#
#
# Indices 1 2 3 4 5 6 
#
# 1 0.009983 -0.006043 -0.002592 0.000000 0.000000 0.000000
# 2 -0.006043 0.012519 -0.001923 0.000000 0.000000 0.000000
# 3 -0.002592 -0.001923 0.060312 0.000000 0.000000 0.000000
# 4 0.000000 0.000000 0.000000 -0.076335 0.000000 0.000000
# 5 0.000000 0.000000 0.000000 0.000000 -0.188013 0.000000
# 6 0.000000 0.000000 0.000000 0.000000 0.000000 0.056502
#
#
# Mechanical properties :
#
#
# Convention : Reuss Voigt Hill
#
# Bulk Modulus (GPa) = 16.20798 50.27076 33.23937
# Shear Modulus (GPa) = -59.98804 12.62002 -23.68401
#
# Velocity S-wave (km/s) = -5.42721 2.48929 -3.41014
# Velocity P-wave (km/s) = 5.59595 5.73981 0.90300
#
# Compressibility (1/GPa) = 0.06169801
#
# Stress axis : x y z
#
# Youngs Moduli (GPa) = 100.16757 79.87909 16.58050
#
# Poissons Ratio (x) = 0.48269 0.04297
# Poissons Ratio (y) = 0.60529 0.03189
# Poissons Ratio (z) = 0.25961 0.15365
#
# Static dielectric constant tensor:
#      x y z
#    x 1.711140 0.000000 0.000000 
#    y 0.000000 1.714820 0.000000 
#    z 0.000000 0.000000 1.958820 
# 
# From -- ./inp_files/33299.got.cif
#   From: 2010.05.17/outbox.cif.g08.bks.cpg/sg72_17_cif.got.tgz:33299.got - 2010.06.03 17:03:01.
