data_PCOD9526829
_publ_section_title
;
Structure prediction by ZEFSAII (Michael W. Deem and Ramdas Pophale) SiO2 
 PCOD9526829
Probable space group: I B A M
;
_chemical_formula_sum "Si O2"
_cell_formula_units_Z 112
_cell_length_a 18.327751
_cell_length_b 19.795014
_cell_length_c 14.936561
_cell_angle_alpha 90.000000
_cell_angle_beta 90.000000
_cell_angle_gamma 90.000000
_cell_volume 5418.955767
_symmetry_space_group_name_H-M "I B A M"
_symmetry_group_IT_number 72
_symmetry_cell_setting 'orthorhombic'
loop_
_space_group_symop_operation_xyz
x,y,z
-x,-y,z
x,-y,1/2-z
-x,y,1/2-z
-x,-y,-z
x,y,-z
-x,y,1/2+z
x,-y,1/2+z
1/2+x,1/2+y,1/2+z
1/2-x,1/2-y,1/2+z
1/2+x,1/2-y,-z
1/2-x,1/2+y,-z
1/2-x,1/2-y,1/2-z
1/2+x,1/2+y,1/2-z
1/2-x,1/2+y,z
1/2+x,1/2-y,z
loop_
_atom_site_type_symbol
_atom_site_label
_atom_site_fract_x
_atom_site_fract_y
_atom_site_fract_z
Si Si1 0.143414 0.435012 0.854909
Si Si2 0.369749 0.911757 0.357709
Si Si3 0.985109 0.340859 0.644392
Si Si4 0.431191 0.309113 0.608188
Si Si5 0.195094 0.041155 0.608144
Si Si6 0.963813 0.929105 0.609415
Si Si7 0.708883 0.386416 0.107056
O O1 0.131601 0.510849 0.892203
O O2 0.129836 0.426699 0.748752
O O3 0.082617 0.384665 0.892123
O O4 0.229455 0.422427 0.867837
O O5 0.438342 0.869367 0.392442
O O6 0.293998 0.873781 0.376442
O O7 0.962122 0.263534 0.633530
O O8 0.000000 0.350936 0.750000
O O9 0.429556 0.309725 0.500000
O O10 0.486652 0.367260 0.638721
O O11 0.350496 0.332341 0.640121
O O12 0.193092 0.038423 0.500000
O O13 0.119983 0.074517 0.639132
O O14 0.195817 0.963168 0.641574
O O15 0.964050 0.928855 0.500000
O O16 0.000000 0.000000 0.636398
O O17 0.698819 0.390188 0.000000
#
# Coordination Sequence:
#
# PCOD9526829 Si02
#       7
#    16  16  16  16  16  16  16
#     4   9  18  34  56  80 103 136 176 224 267 308
#     4   9  18  35  58  78 100 136 181 221 264 321
#     4  10  21  38  53  75 106 144 181 217 263 317
#     4  10  20  35  54  75 106 143 174 213 264 317
#     4   9  16  29  53  82 106 130 171 217 263 313
#     4   9  15  29  54  77 100 136 176 212 254 310
#     4   9  17  32  54  78 103 132 169 218 269 312
#
# _framework density 20.668188000000001
#
# number of rings (size 3 to 8) (size 9 to 14) (size 15 to 20)
#    0.000    2.714    1.429    0.429    0.000    2.857 
#    5.143    1.429    0.000    4.714    0.000    0.000 
#    0.000    0.000    0.000    0.000    0.000    0.000 
#
# Total GULP energy -312151.041262 kJ/mol
# GULP energy per Si atom -5574.125737 kJ/mol
# Density = 2.062115 g / cm^3
# Si number density = 20.668188 Si / 1000 Ang^3
#
#
#
# Elastic Constant Matrix: (Units=GPa)
#
#
# Indices 1 2 3 4 5 6 
#
# 1 239.6964 120.2828 6.9930 0.0000 0.0000 0.0000
# 2 120.2828 101.7723 -1.1096 0.0000 0.0000 0.0000
# 3 6.9930 -1.1096 41.0148 0.0000 0.0000 0.0000
# 4 0.0000 0.0000 0.0000 11.1590 0.0000 0.0000
# 5 0.0000 0.0000 0.0000 0.0000 23.7812 0.0000
# 6 0.0000 0.0000 0.0000 0.0000 0.0000 23.6356
#
#
#
# Elastic Compliance Matrix: (Units=1/GPa)
#
#
# Indices 1 2 3 4 5 6 
#
# 1 0.010432 -0.012353 -0.002113 0.000000 0.000000 0.000000
# 2 -0.012353 0.024456 0.002768 0.000000 0.000000 0.000000
# 3 -0.002113 0.002768 0.024817 0.000000 0.000000 0.000000
# 4 0.000000 0.000000 0.000000 0.089614 0.000000 0.000000
# 5 0.000000 0.000000 0.000000 0.000000 0.042050 0.000000
# 6 0.000000 0.000000 0.000000 0.000000 0.000000 0.042309
#
#
# Mechanical properties :
#
#
# Convention : Reuss Voigt Hill
#
# Bulk Modulus (GPa) = 27.54168 70.53511 49.03839
# Shear Modulus (GPa) = 18.57513 28.80297 23.68905
#
# Velocity S-wave (km/s) = 3.00114 3.73713 3.38917
# Velocity P-wave (km/s) = 5.03623 7.26794 6.25247
#
# Compressibility (1/GPa) = 0.03630860
#
# Stress axis : x y z
#
# Youngs Moduli (GPa) = 95.85442 40.89007 40.29567
#
# Poissons Ratio (x) = 0.50512 0.08514
# Poissons Ratio (y) = 1.18409 -0.11153
# Poissons Ratio (z) = 0.20253 -0.11318
#
# Static dielectric constant tensor:
#      x y z
#    x 1.763010 0.000000 0.000000 
#    y 0.000000 1.713760 0.000000 
#    z 0.000000 0.000000 1.814810 
# 
# From -- ./inp_files/39189.got.cif
#   From: 2010.05.17/outbox.cif.g08.bks.cpg/sg72_20_cif.got.tgz:39189.got - 2010.06.03 17:03:01.
