data_PCOD9526441
_publ_section_title
;
Structure prediction by ZEFSAII (Michael W. Deem and Ramdas Pophale) SiO2 
 PCOD9526441
Probable space group: I B A M
;
_chemical_formula_sum "Si O2"
_cell_formula_units_Z 64
_cell_length_a 13.056786
_cell_length_b 12.480302
_cell_length_c 17.544055
_cell_angle_alpha 90.000000
_cell_angle_beta 90.000000
_cell_angle_gamma 90.000000
_cell_volume 2858.849946
_symmetry_space_group_name_H-M "I B A M"
_symmetry_group_IT_number 72
_symmetry_cell_setting 'orthorhombic'
loop_
_space_group_symop_operation_xyz
x,y,z
-x,-y,z
x,-y,1/2-z
-x,y,1/2-z
-x,-y,-z
x,y,-z
-x,y,1/2+z
x,-y,1/2+z
1/2+x,1/2+y,1/2+z
1/2-x,1/2-y,1/2+z
1/2+x,1/2-y,-z
1/2-x,1/2+y,-z
1/2-x,1/2-y,1/2-z
1/2+x,1/2+y,1/2-z
1/2-x,1/2+y,z
1/2+x,1/2-y,z
loop_
_atom_site_type_symbol
_atom_site_label
_atom_site_fract_x
_atom_site_fract_y
_atom_site_fract_z
Si Si1 0.632965 0.895626 0.196718
Si Si2 0.251820 0.958551 0.089000
Si Si3 0.916997 0.306373 0.346321
Si Si4 0.462015 0.379397 0.914302
O O1 0.525777 0.869373 0.156769
O O2 0.637055 0.805878 0.263001
O O3 0.623710 0.000000 0.250000
O O4 0.717608 0.934181 0.136109
O O5 0.343761 0.873649 0.098810
O O6 0.151809 0.894846 0.118970
O O7 0.234690 0.984239 0.000000
O O8 0.954496 0.190220 0.370966
O O9 0.500000 0.500000 0.919358
O O10 0.452042 0.333356 0.000000
#
# Coordination Sequence:
#
# PCOD9526441 Si02
#       4
#    16  16  16  16
#     4   9  19  38  60  88 122 153 198 258 312 369
#     4  10  20  36  63  93 119 158 206 257 321 378
#     4  10  19  38  62  87 120 162 209 254 307 376
#     4  10  23  41  58  85 127 165 202 254 314 378
#
# _framework density 22.386624999999999
#
# number of rings (size 3 to 8) (size 9 to 14) (size 15 to 20)
#    0.000    2.250    0.000    6.000    0.000    5.000 
#    0.000   35.000    0.000    0.000    0.000    0.000 
#    0.000    0.000    0.000    0.000    0.000    0.000 
#
# Total GULP energy -178338.490355 kJ/mol
# GULP energy per Si atom -5573.077824 kJ/mol
# Density = 2.233567 g / cm^3
# Si number density = 22.386625 Si / 1000 Ang^3
#
#
#
# Elastic Constant Matrix: (Units=GPa)
#
#
# Indices 1 2 3 4 5 6 
#
# 1 97.4383 27.3722 37.5380 0.0000 0.0000 0.0000
# 2 27.3722 72.8341 50.7143 0.0000 0.0000 0.0000
# 3 37.5380 50.7143 80.7482 0.0000 0.0000 0.0000
# 4 0.0000 0.0000 0.0000 28.1076 0.0000 0.0000
# 5 0.0000 0.0000 0.0000 0.0000 16.0315 0.0000
# 6 0.0000 0.0000 0.0000 0.0000 0.0000 5.7134
#
#
#
# Elastic Compliance Matrix: (Units=1/GPa)
#
#
# Indices 1 2 3 4 5 6 
#
# 1 0.012557 -0.001163 -0.005107 0.000000 0.000000 0.000000
# 2 -0.001163 0.024508 -0.014852 0.000000 0.000000 0.000000
# 3 -0.005107 -0.014852 0.024086 0.000000 0.000000 0.000000
# 4 0.000000 0.000000 0.000000 0.035578 0.000000 0.000000
# 5 0.000000 0.000000 0.000000 0.000000 0.062377 0.000000
# 6 0.000000 0.000000 0.000000 0.000000 0.000000 0.175027
#
#
# Mechanical properties :
#
#
# Convention : Reuss Voigt Hill
#
# Bulk Modulus (GPa) = 52.88904 53.58551 53.23727
# Shear Modulus (GPa) = 13.06575 18.99691 16.03133
#
# Velocity S-wave (km/s) = 2.41849 2.91621 2.67893
# Velocity P-wave (km/s) = 5.61029 5.94368 5.77939
#
# Compressibility (1/GPa) = 0.01890751
#
# Stress axis : x y z
#
# Youngs Moduli (GPa) = 79.63609 40.80257 41.51783
#
# Poissons Ratio (x) = 0.04746 0.21203
# Poissons Ratio (y) = 0.09263 0.61661
# Poissons Ratio (z) = 0.40670 0.60599
#
# Static dielectric constant tensor:
#      x y z
#    x 1.864050 0.000000 0.000000 
#    y 0.000000 1.876520 0.000000 
#    z 0.000000 0.000000 1.892390 
# 
# From -- ./inp_files/36487.got.cif
#   From: 2010.05.17/outbox.cif.g08.bks.cpg/sg72_19_cif.got.tgz:36487.got - 2010.06.03 17:03:01.
