data_PCOD9526867
_publ_section_title
;
Structure prediction by ZEFSAII (Michael W. Deem and Ramdas Pophale) SiO2 
 PCOD9526867
Probable space group: I B A M
;
_chemical_formula_sum "Si O2"
_cell_formula_units_Z 128
_cell_length_a 26.854383
_cell_length_b 10.675730
_cell_length_c 21.191893
_cell_angle_alpha 90.000000
_cell_angle_beta 90.000000
_cell_angle_gamma 90.000000
_cell_volume 6075.506818
_symmetry_space_group_name_H-M "I B A M"
_symmetry_group_IT_number 72
_symmetry_cell_setting 'orthorhombic'
loop_
_space_group_symop_operation_xyz
x,y,z
-x,-y,z
x,-y,1/2-z
-x,y,1/2-z
-x,-y,-z
x,y,-z
-x,y,1/2+z
x,-y,1/2+z
1/2+x,1/2+y,1/2+z
1/2-x,1/2-y,1/2+z
1/2+x,1/2-y,-z
1/2-x,1/2+y,-z
1/2-x,1/2-y,1/2-z
1/2+x,1/2+y,1/2-z
1/2-x,1/2+y,z
1/2+x,1/2-y,z
loop_
_atom_site_type_symbol
_atom_site_label
_atom_site_fract_x
_atom_site_fract_y
_atom_site_fract_z
Si Si1 0.262545 0.798748 0.930982
Si Si2 0.982045 0.297380 0.322023
Si Si3 0.574318 0.056370 0.347884
Si Si4 0.652503 0.791166 0.228364
Si Si5 0.336125 0.011824 0.930372
Si Si6 0.678327 0.568384 0.863117
Si Si7 0.759704 0.390759 0.174867
Si Si8 0.597211 0.405545 0.188835
O O1 0.214131 0.890610 0.921060
O O2 0.264156 0.718228 0.867645
O O3 0.314319 0.872757 0.933156
O O4 0.257766 0.736304 0.000000
O O5 0.949380 0.423895 0.328232
O O6 0.951549 0.169742 0.335109
O O7 0.000000 0.285771 0.250000
O O8 0.032211 0.337765 0.358775
O O9 0.611313 0.111072 0.294640
O O10 0.607890 0.029007 0.408470
O O11 0.660585 0.693930 0.170925
O O12 0.707330 0.851444 0.234987
O O13 0.631695 0.707139 0.284370
O O14 0.301765 0.065880 0.875142
O O15 0.329189 0.066925 0.000000
O O16 0.717329 0.493600 0.818968
O O17 0.629147 0.481469 0.863293
O O18 0.588207 0.500000 0.250000
#
# Coordination Sequence:
#
# PCOD9526867 Si02
#       8
#    16  16  16  16  16  16  16  16
#     4   9  17  31  53  78 108 148 188 223 264 323
#     4  11  22  37  58  80 103 135 188 237 287 334
#     4  10  20  35  56  80 107 139 183 247 283 331
#     4   9  18  34  52  75 108 147 183 217 274 331
#     4   9  18  32  52  78 106 141 181 221 277 329
#     4   9  19  33  49  78 115 144 178 224 271 329
#     4   9  17  30  52  77 109 144 182 220 261 318
#     4  10  21  36  55  78 110 144 181 224 283 345
#
# _framework density 21.068200999999998
#
# number of rings (size 3 to 8) (size 9 to 14) (size 15 to 20)
#    0.000    2.500    1.250    1.125    1.750    1.250 
#    0.000    1.250    0.000    0.750    0.000    0.000 
#    0.000    8.500    0.000    0.000    0.000    0.000 
#
# Total GULP energy -356553.081435 kJ/mol
# GULP energy per Si atom -5571.141897 kJ/mol
# Density = 2.102025 g / cm^3
# Si number density = 21.068201 Si / 1000 Ang^3
#
#
#
# Elastic Constant Matrix: (Units=GPa)
#
#
# Indices 1 2 3 4 5 6 
#
# 1 118.5912 45.5507 17.7317 0.0000 0.0000 0.0000
# 2 45.5507 79.6442 4.7736 0.0000 0.0000 0.0000
# 3 17.7317 4.7736 46.6691 0.0000 0.0000 0.0000
# 4 0.0000 0.0000 0.0000 -32.5100 0.0000 0.0000
# 5 0.0000 0.0000 0.0000 0.0000 -19.7809 0.0000
# 6 0.0000 0.0000 0.0000 0.0000 0.0000 43.7226
#
#
#
# Elastic Compliance Matrix: (Units=1/GPa)
#
#
# Indices 1 2 3 4 5 6 
#
# 1 0.011404 -0.006301 -0.003688 0.000000 0.000000 0.000000
# 2 -0.006301 0.016115 0.000746 0.000000 0.000000 0.000000
# 3 -0.003688 0.000746 0.022753 0.000000 0.000000 0.000000
# 4 0.000000 0.000000 0.000000 -0.030760 0.000000 0.000000
# 5 0.000000 0.000000 0.000000 0.000000 -0.050554 0.000000
# 6 0.000000 0.000000 0.000000 0.000000 0.000000 0.022871
#
#
# Mechanical properties :
#
#
# Convention : Reuss Voigt Hill
#
# Bulk Modulus (GPa) = 31.46244 42.33518 36.89881
# Shear Modulus (GPa) = 239.09600 10.07622 124.58611
#
# Velocity S-wave (km/s) = 10.66457 2.18930 7.69825
# Velocity P-wave (km/s) = 12.90775 5.15060 9.82697
#
# Compressibility (1/GPa) = 0.03178393
#
# Stress axis : x y z
#
# Youngs Moduli (GPa) = 87.68755 62.05396 43.95107
#
# Poissons Ratio (x) = 0.39102 0.16211
# Poissons Ratio (y) = 0.55254 -0.03278
# Poissons Ratio (z) = 0.32343 -0.04628
#
# Static dielectric constant tensor:
#      x y z
#    x 1.826110 0.000000 0.000000 
#    y 0.000000 1.857600 0.000000 
#    z 0.000000 0.000000 1.773600 
# 
# From -- ./inp_files/49791.got.cif
#   From: 2010.05.17/outbox.cif.g08.bks.cpg/sg72_25_cif.got.tgz:49791.got - 2010.06.03 17:03:01.
