data_PCOD9526022
_publ_section_title
;
Structure prediction by ZEFSAII (Michael W. Deem and Ramdas Pophale) SiO2 
 PCOD9526022
Probable space group: I B A M
;
_chemical_formula_sum "Si O2"
_cell_formula_units_Z 88
_cell_length_a 12.705166
_cell_length_b 13.018039
_cell_length_c 24.412327
_cell_angle_alpha 90.000000
_cell_angle_beta 90.000000
_cell_angle_gamma 90.000000
_cell_volume 4037.709695
_symmetry_space_group_name_H-M "I B A M"
_symmetry_group_IT_number 72
_symmetry_cell_setting 'orthorhombic'
loop_
_space_group_symop_operation_xyz
x,y,z
-x,-y,z
x,-y,1/2-z
-x,y,1/2-z
-x,-y,-z
x,y,-z
-x,y,1/2+z
x,-y,1/2+z
1/2+x,1/2+y,1/2+z
1/2-x,1/2-y,1/2+z
1/2+x,1/2-y,-z
1/2-x,1/2+y,-z
1/2-x,1/2-y,1/2-z
1/2+x,1/2+y,1/2-z
1/2-x,1/2+y,z
1/2+x,1/2-y,z
loop_
_atom_site_type_symbol
_atom_site_label
_atom_site_fract_x
_atom_site_fract_y
_atom_site_fract_z
Si Si1 0.865277 0.261852 0.354332
Si Si2 0.522052 0.718749 0.940908
Si Si3 0.718015 0.140615 0.439135
Si Si4 0.373281 0.996015 0.148918
Si Si5 0.500000 0.500000 0.891718
Si Si6 0.668379 0.432587 0.197910
O O1 0.801431 0.192881 0.398547
O O2 0.833015 0.378487 0.345583
O O3 0.864186 0.187599 0.301859
O O4 0.974639 0.270103 0.386537
O O5 0.635548 0.767622 0.944828
O O6 0.521063 0.598612 0.928751
O O7 0.469055 0.741480 0.000000
O O8 0.756476 0.111692 0.500000
O O9 0.658691 0.045179 0.409926
O O10 0.294514 0.058979 0.188634
O O11 0.500000 0.000000 0.158353
O O12 0.399775 0.519860 0.852332
O O13 0.640158 0.500000 0.250000
#
# Coordination Sequence:
#
# PCOD9526022 Si02
#       6
#    16  16  16  16   8  16
#     4  10  21  38  59  88 124 163 205 265 311 375
#     4  10  19  33  55  86 121 161 203 242 300 372
#     4  10  21  35  56  88 126 170 213 252 307 377
#     4  11  22  40  63  90 130 169 210 263 327 383
#     4  10  20  38  62  88 124 160 204 264 320 374
#     4  10  23  41  65  90 118 161 214 266 326 385
#
# _framework density 21.794533000000001
#
# number of rings (size 3 to 8) (size 9 to 14) (size 15 to 20)
#    0.000    1.818    1.818    2.182    0.000    2.909 
#    0.000    4.545    8.000    0.000    0.000    0.000 
#    0.000    0.000    0.000    0.000    0.000    0.000 
#
# Total GULP energy -245157.712662 kJ/mol
# GULP energy per Si atom -5571.766197 kJ/mol
# Density = 2.174493 g / cm^3
# Si number density = 21.794533 Si / 1000 Ang^3
#
#
#
# Elastic Constant Matrix: (Units=GPa)
#
#
# Indices 1 2 3 4 5 6 
#
# 1 86.0313 -2.1017 9.4227 0.0000 0.0000 0.0000
# 2 -2.1017 111.7803 29.7488 0.0000 0.0000 0.0000
# 3 9.4227 29.7488 66.3373 0.0000 0.0000 0.0000
# 4 0.0000 0.0000 0.0000 20.3169 0.0000 0.0000
# 5 0.0000 0.0000 0.0000 0.0000 11.2078 0.0000
# 6 0.0000 0.0000 0.0000 0.0000 0.0000 24.1187
#
#
#
# Elastic Compliance Matrix: (Units=1/GPa)
#
#
# Indices 1 2 3 4 5 6 
#
# 1 0.011864 0.000763 -0.002027 0.000000 0.000000 0.000000
# 2 0.000763 0.010208 -0.004686 0.000000 0.000000 0.000000
# 3 -0.002027 -0.004686 0.017464 0.000000 0.000000 0.000000
# 4 0.000000 0.000000 0.000000 0.049220 0.000000 0.000000
# 5 0.000000 0.000000 0.000000 0.000000 0.089224 0.000000
# 6 0.000000 0.000000 0.000000 0.000000 0.000000 0.041462
#
#
# Mechanical properties :
#
#
# Convention : Reuss Voigt Hill
#
# Bulk Modulus (GPa) = 36.18640 37.58760 36.88700
# Shear Modulus (GPa) = 20.78537 26.26728 23.52632
#
# Velocity S-wave (km/s) = 3.09155 3.47540 3.28908
# Velocity P-wave (km/s) = 5.42061 5.77826 5.60229
#
# Compressibility (1/GPa) = 0.02763469
#
# Stress axis : x y z
#
# Youngs Moduli (GPa) = 84.28616 97.96678 57.26133
#
# Poissons Ratio (x) = -0.07471 0.11608
# Poissons Ratio (y) = -0.06428 0.26832
# Poissons Ratio (z) = 0.17087 0.45906
#
# Static dielectric constant tensor:
#      x y z
#    x 1.864310 0.000000 0.000000 
#    y 0.000000 1.780860 0.000000 
#    z 0.000000 0.000000 1.872670 
# 
# From -- ./inp_files/44149.got.cif
#   From: 2010.05.17/outbox.cif.g08.bks.cpg/sg72_23_cif.got.tgz:44149.got - 2010.06.03 17:03:01.
