data_PCOD9526855
_publ_section_title
;
Structure prediction by ZEFSAII (Michael W. Deem and Ramdas Pophale) SiO2 
 PCOD9526855
Probable space group: I B A M
;
_chemical_formula_sum "Si O2"
_cell_formula_units_Z 68
_cell_length_a 5.044699
_cell_length_b 25.055604
_cell_length_c 30.996099
_cell_angle_alpha 90.000000
_cell_angle_beta 90.000000
_cell_angle_gamma 90.000000
_cell_volume 3917.844315
_symmetry_space_group_name_H-M "I B A M"
_symmetry_group_IT_number 72
_symmetry_cell_setting 'orthorhombic'
loop_
_space_group_symop_operation_xyz
x,y,z
-x,-y,z
x,-y,1/2-z
-x,y,1/2-z
-x,-y,-z
x,y,-z
-x,y,1/2+z
x,-y,1/2+z
1/2+x,1/2+y,1/2+z
1/2-x,1/2-y,1/2+z
1/2+x,1/2-y,-z
1/2-x,1/2+y,-z
1/2-x,1/2-y,1/2-z
1/2+x,1/2+y,1/2-z
1/2-x,1/2+y,z
1/2+x,1/2-y,z
loop_
_atom_site_type_symbol
_atom_site_label
_atom_site_fract_x
_atom_site_fract_y
_atom_site_fract_z
Si Si1 0.259370 0.464281 0.833236
Si Si2 0.141312 0.555571 0.949103
Si Si3 0.345443 0.608190 0.409400
Si Si4 0.472652 0.713962 0.049754
Si Si5 0.500000 0.500000 0.750000
O O1 0.500000 0.500000 0.850534
O O2 0.265501 0.410712 0.861199
O O3 0.327135 0.463137 0.782148
O O4 0.000000 0.500000 0.838240
O O5 0.416378 0.570531 0.926670
O O6 0.000000 0.500000 0.935865
O O7 0.918498 0.599177 0.937640
O O8 0.190284 0.552935 0.000000
O O9 0.452627 0.667367 0.417342
O O10 0.180354 0.737714 0.054768
O O11 0.498765 0.693769 0.000000
#
# Coordination Sequence:
#
# PCOD9526855 Si02
#       5
#    16  16  16  16   4
#     4  10  20  35  55  82 112 136 170 214 262 336
#     4  11  22  33  47  74 112 148 180 212 258 318
#     4  12  21  34  55  77 104 146 185 229 264 309
#     4  10  21  36  52  72 102 143 192 236 266 297
#     4   8  22  36  58  80 112 140 162 208 274 340
#
# _framework density 17.356483999999998
#
# number of rings (size 3 to 8) (size 9 to 14) (size 15 to 20)
#    0.706    0.706    0.000    8.118    0.000    3.765 
#    0.000    0.000    0.000    0.000    0.000    1.647 
#    0.000    0.000    0.000    0.000    0.000    0.000 
#
# Total GULP energy -189594.768351 kJ/mol
# GULP energy per Si atom -5576.316716 kJ/mol
# Density = 1.731698 g / cm^3
# Si number density = 17.356484 Si / 1000 Ang^3
#
#
#
# Elastic Constant Matrix: (Units=GPa)
#
#
# Indices 1 2 3 4 5 6 
#
# 1 93.6087 -5.1274 17.9943 0.0000 0.0000 0.0000
# 2 -5.1274 51.1568 34.6456 0.0000 0.0000 0.0000
# 3 17.9943 34.6456 109.9568 0.0000 0.0000 0.0000
# 4 0.0000 0.0000 0.0000 15.4826 0.0000 0.0000
# 5 0.0000 0.0000 0.0000 0.0000 21.2293 0.0000
# 6 0.0000 0.0000 0.0000 0.0000 0.0000 21.1739
#
#
#
# Elastic Compliance Matrix: (Units=1/GPa)
#
#
# Indices 1 2 3 4 5 6 
#
# 1 0.011394 0.003057 -0.002828 0.000000 0.000000 0.000000
# 2 0.003057 0.025671 -0.008589 0.000000 0.000000 0.000000
# 3 -0.002828 -0.008589 0.012263 0.000000 0.000000 0.000000
# 4 0.000000 0.000000 0.000000 0.064589 0.000000 0.000000
# 5 0.000000 0.000000 0.000000 0.000000 0.047105 0.000000
# 6 0.000000 0.000000 0.000000 0.000000 0.000000 0.047228
#
#
# Mechanical properties :
#
#
# Convention : Reuss Voigt Hill
#
# Bulk Modulus (GPa) = 30.66624 38.86080 34.76352
# Shear Modulus (GPa) = 21.20098 25.39115 23.29607
#
# Velocity S-wave (km/s) = 3.49879 3.82896 3.66759
# Velocity P-wave (km/s) = 5.83343 6.47969 6.16503
#
# Compressibility (1/GPa) = 0.03260915
#
# Stress axis : x y z
#
# Youngs Moduli (GPa) = 87.76697 38.95469 81.54316
#
# Poissons Ratio (x) = -0.11909 0.23059
# Poissons Ratio (y) = -0.26832 0.70036
# Poissons Ratio (z) = 0.24819 0.33457
#
# Static dielectric constant tensor:
#      x y z
#    x 1.607020 0.000000 0.000000 
#    y 0.000000 1.603100 0.000000 
#    z 0.000000 0.000000 1.609930 
# 
# From -- ./inp_files/50217.got.cif
#   From: 2010.05.17/outbox.cif.g08.bks.cpg/sg72_26_cif.got.tgz:50217.got - 2010.06.03 17:03:01.
