data_PCOD9526987
_publ_section_title
;
Structure prediction by ZEFSAII (Michael W. Deem and Ramdas Pophale) SiO2 
 PCOD9526987
Probable space group: I B A M
;
_chemical_formula_sum "Si O2"
_cell_formula_units_Z 88
_cell_length_a 11.182598
_cell_length_b 32.022356
_cell_length_c 14.384709
_cell_angle_alpha 90.000000
_cell_angle_beta 90.000000
_cell_angle_gamma 90.000000
_cell_volume 5151.065530
_symmetry_space_group_name_H-M "I B A M"
_symmetry_group_IT_number 72
_symmetry_cell_setting 'orthorhombic'
loop_
_space_group_symop_operation_xyz
x,y,z
-x,-y,z
x,-y,1/2-z
-x,y,1/2-z
-x,-y,-z
x,y,-z
-x,y,1/2+z
x,-y,1/2+z
1/2+x,1/2+y,1/2+z
1/2-x,1/2-y,1/2+z
1/2+x,1/2-y,-z
1/2-x,1/2+y,-z
1/2-x,1/2-y,1/2-z
1/2+x,1/2+y,1/2-z
1/2-x,1/2+y,z
1/2+x,1/2-y,z
loop_
_atom_site_type_symbol
_atom_site_label
_atom_site_fract_x
_atom_site_fract_y
_atom_site_fract_z
Si Si1 0.239722 0.378381 0.135934
Si Si2 0.624899 0.056136 0.000000
Si Si3 0.645308 0.836101 0.000000
Si Si4 0.840086 0.541760 0.500000
Si Si5 0.612035 0.714447 0.500000
Si Si6 0.250685 0.104498 0.145164
Si Si7 0.994243 0.848374 0.140469
Si Si8 0.875814 0.687165 0.000000
O O1 0.179482 0.417832 0.085556
O O2 0.230454 0.388187 0.245581
O O3 0.379905 0.369629 0.114535
O O4 0.176038 0.337691 0.089956
O O5 0.480244 0.055497 0.000000
O O6 0.664195 0.008096 0.000000
O O7 0.756624 0.805414 0.000000
O O8 0.661790 0.864515 0.090431
O O9 0.517272 0.816904 0.000000
O O10 0.778229 0.561041 0.592741
O O11 0.538899 0.694036 0.586065
O O12 0.639048 0.763293 0.500000
O O13 0.115659 0.119843 0.123402
O O14 0.000000 0.839519 0.250000
#
# Coordination Sequence:
#
# PCOD9526987 Si02
#       8
#    16   8   8   8   8  16  16   8
#     4  10  20  36  56  80 108 141 182 220 273 319
#     4  10  22  35  52  84 114 139 177 227 265 325
#     4   9  20  35  49  77 104 135 185 215 264 322
#     4  10  21  36  55  81 112 140 182 220 268 323
#     4  10  20  36  53  73 109 143 172 228 275 302
#     4   9  18  37  59  75 104 145 179 217 267 323
#     4   9  19  37  58  79 104 145 182 219 266 329
#     4  11  23  32  51  81 104 140 178 226 262 320
#
# _framework density 17.083843999999999
#
# number of rings (size 3 to 8) (size 9 to 14) (size 15 to 20)
#    0.000    2.364    0.000    3.818    2.545    3.636 
#    3.273    6.364    0.000    3.273    0.000    0.000 
#    0.000    0.000    0.000    0.000    0.000    0.000 
#
# Total GULP energy -244966.708678 kJ/mol
# GULP energy per Si atom -5567.425197 kJ/mol
# Density = 1.704496 g / cm^3
# Si number density = 17.083844 Si / 1000 Ang^3
#
#
#
# Elastic Constant Matrix: (Units=GPa)
#
#
# Indices 1 2 3 4 5 6 
#
# 1 51.8834 49.7134 32.9222 0.0000 0.0000 0.0000
# 2 49.7134 157.8316 61.3567 0.0001 -0.0001 0.0000
# 3 32.9222 61.3567 124.6116 0.0003 -0.0003 -0.0001
# 4 0.0000 0.0001 0.0003 -4.1921 -0.0002 0.0000
# 5 0.0000 -0.0001 -0.0003 -0.0002 40.2635 0.0001
# 6 0.0000 0.0000 -0.0001 0.0000 0.0001 16.4062
#
#
#
# Elastic Compliance Matrix: (Units=1/GPa)
#
#
# Indices 1 2 3 4 5 6 
#
# 1 0.029078 -0.007634 -0.003924 0.000000 0.000000 0.000000
# 2 -0.007634 0.009840 -0.002828 0.000000 0.000000 0.000000
# 3 -0.003924 -0.002828 0.010454 0.000001 0.000000 0.000000
# 4 0.000000 0.000000 0.000001 -0.238541 -0.000001 -0.000001
# 5 0.000000 0.000000 0.000000 -0.000001 0.024836 0.000000
# 6 0.000000 0.000000 0.000000 -0.000001 0.000000 0.060952
#
#
# Mechanical properties :
#
#
# Convention : Reuss Voigt Hill
#
# Bulk Modulus (GPa) = 48.54137 69.14569 58.84353
# Shear Modulus (GPa) = -73.80891 23.18446 -25.31222
#
# Velocity S-wave (km/s) = -6.58010 3.68788 -3.85339
# Velocity P-wave (km/s) = 5.40879 7.66134 3.83674
#
# Compressibility (1/GPa) = 0.02060099
#
# Stress axis : x y z
#
# Youngs Moduli (GPa) = 34.39019 101.62905 95.65625
#
# Poissons Ratio (x) = 0.77580 0.37533
# Poissons Ratio (y) = 0.26252 0.27053
# Poissons Ratio (z) = 0.13494 0.28742
#
# Static dielectric constant tensor:
#      x y z
#    x 1.578480 0.000000 0.000000 
#    y 0.000000 1.567140 0.000000 
#    z 0.000000 0.000000 1.631090 
# 
# From -- ./inp_files/20625.got.cif
#   From: 2010.05.17/outbox.cif.g08.bks.cpg/sg72_11_cif.got.tgz:20625.got - 2010.06.03 17:03:01.
