data_PCOD9526579
_publ_section_title
;
Structure prediction by ZEFSAII (Michael W. Deem and Ramdas Pophale) SiO2 
 PCOD9526579
Probable space group: I B A M
;
_chemical_formula_sum "Si O2"
_cell_formula_units_Z 68
_cell_length_a 5.408232
_cell_length_b 14.101854
_cell_length_c 40.188924
_cell_angle_alpha 90.000000
_cell_angle_beta 90.000000
_cell_angle_gamma 90.000000
_cell_volume 3065.052419
_symmetry_space_group_name_H-M "I B A M"
_symmetry_group_IT_number 72
_symmetry_cell_setting 'orthorhombic'
loop_
_space_group_symop_operation_xyz
x,y,z
-x,-y,z
x,-y,1/2-z
-x,y,1/2-z
-x,-y,-z
x,y,-z
-x,y,1/2+z
x,-y,1/2+z
1/2+x,1/2+y,1/2+z
1/2-x,1/2-y,1/2+z
1/2+x,1/2-y,-z
1/2-x,1/2+y,-z
1/2-x,1/2-y,1/2-z
1/2+x,1/2+y,1/2-z
1/2-x,1/2+y,z
1/2+x,1/2-y,z
loop_
_atom_site_type_symbol
_atom_site_label
_atom_site_fract_x
_atom_site_fract_y
_atom_site_fract_z
Si Si1 0.497410 0.383604 0.356427
Si Si2 0.002842 0.388606 0.891445
Si Si3 0.890222 0.892230 0.216563
Si Si4 0.425833 0.188154 0.536514
Si Si5 0.000000 0.500000 0.250000
O O1 0.500000 0.500000 0.355551
O O2 0.266526 0.354824 0.379545
O O3 0.449341 0.348923 0.318812
O O4 0.760543 0.352294 0.370900
O O5 0.047577 0.372839 0.930409
O O6 0.000000 0.500000 0.884877
O O7 0.612749 0.922761 0.224229
O O8 0.000000 0.845252 0.250000
O O9 0.000000 0.000000 0.216270
O O10 0.440128 0.140191 0.500000
O O11 0.160361 0.240424 0.537792
#
# Coordination Sequence:
#
# PCOD9526579 Si02
#       5
#    16  16  16  16   4
#     4   9  18  28  44  67 105 139 168 208 257 305
#     4  10  20  33  51  78 107 137 168 209 261 309
#     4   8  15  22  35  58  90 137 176 204 244 301
#     4  10  21  38  59  79 103 135 171 211 254 305
#     4   8  14  20  36  54  88 136 180 200 238 304
#
# _framework density 22.185593000000001
#
# number of rings (size 3 to 8) (size 9 to 14) (size 15 to 20)
#    0.000    3.059    0.000    1.412   11.529    0.471 
#    0.000    0.000    0.000    8.471    0.000    0.000 
#    0.000   18.824    0.000    0.000    0.000    0.000 
#
# Total GULP energy -189345.407053 kJ/mol
# GULP energy per Si atom -5568.982560 kJ/mol
# Density = 2.213510 g / cm^3
# Si number density = 22.185593 Si / 1000 Ang^3
#
#
#
# Elastic Constant Matrix: (Units=GPa)
#
#
# Indices 1 2 3 4 5 6 
#
# 1 104.1861 1.2878 43.2759 0.0000 0.0000 0.0000
# 2 1.2878 45.9006 -3.0526 0.0000 0.0000 0.0000
# 3 43.2759 -3.0526 156.4675 0.0000 0.0000 0.0000
# 4 0.0000 0.0000 0.0000 -138.0377 0.0000 0.0000
# 5 0.0000 0.0000 0.0000 0.0000 50.1225 0.0000
# 6 0.0000 0.0000 0.0000 0.0000 0.0000 -13.8790
#
#
#
# Elastic Compliance Matrix: (Units=1/GPa)
#
#
# Indices 1 2 3 4 5 6 
#
# 1 0.010856 -0.000505 -0.003012 0.000000 0.000000 0.000000
# 2 -0.000505 0.021838 0.000566 0.000000 0.000000 0.000000
# 3 -0.003012 0.000566 0.007235 0.000000 0.000000 0.000000
# 4 0.000000 0.000000 0.000000 -0.007244 0.000000 0.000000
# 5 0.000000 0.000000 0.000000 0.000000 0.019951 0.000000
# 6 0.000000 0.000000 0.000000 0.000000 0.000000 -0.072051
#
#
# Mechanical properties :
#
#
# Convention : Reuss Voigt Hill
#
# Bulk Modulus (GPa) = 29.38939 43.28628 36.33784
# Shear Modulus (GPa) = -2303.70388 -2.68931 -1153.19659
#
# Velocity S-wave (km/s) = -32.25884 -1.10219 -22.82375
# Velocity P-wave (km/s) = 37.07067 4.23481 26.04132
#
# Compressibility (1/GPa) = 0.03402588
#
# Stress axis : x y z
#
# Youngs Moduli (GPa) = 92.11766 45.79178 138.21142
#
# Poissons Ratio (x) = 0.02312 0.41634
# Poissons Ratio (y) = 0.04651 -0.07819
# Poissons Ratio (z) = 0.27749 -0.02590
#
# Static dielectric constant tensor:
#      x y z
#    x 1.456090 0.000000 0.000000 
#    y 0.000000 1.812240 0.000000 
#    z 0.000000 0.000000 1.849030 
# 
# From -- ./inp_files/50214.got.cif
#   From: 2010.05.17/outbox.cif.g08.bks.cpg/sg72_26_cif.got.tgz:50214.got - 2010.06.03 17:03:01.
