data_PCOD9526141
_publ_section_title
;
Structure prediction by ZEFSAII (Michael W. Deem and Ramdas Pophale) SiO2 
 PCOD9526141
Probable space group: I B A M
;
_chemical_formula_sum "Si O2"
_cell_formula_units_Z 112
_cell_length_a 12.552227
_cell_length_b 22.696748
_cell_length_c 19.920554
_cell_angle_alpha 90.000000
_cell_angle_beta 90.000000
_cell_angle_gamma 90.000000
_cell_volume 5675.260914
_symmetry_space_group_name_H-M "I B A M"
_symmetry_group_IT_number 72
_symmetry_cell_setting 'orthorhombic'
loop_
_space_group_symop_operation_xyz
x,y,z
-x,-y,z
x,-y,1/2-z
-x,y,1/2-z
-x,-y,-z
x,y,-z
-x,y,1/2+z
x,-y,1/2+z
1/2+x,1/2+y,1/2+z
1/2-x,1/2-y,1/2+z
1/2+x,1/2-y,-z
1/2-x,1/2+y,-z
1/2-x,1/2-y,1/2-z
1/2+x,1/2+y,1/2-z
1/2-x,1/2+y,z
1/2+x,1/2-y,z
loop_
_atom_site_type_symbol
_atom_site_label
_atom_site_fract_x
_atom_site_fract_y
_atom_site_fract_z
Si Si1 0.540418 0.436364 0.580859
Si Si2 0.032362 0.712390 0.358100
Si Si3 0.609521 0.668185 0.578359
Si Si4 0.709721 0.902047 0.862080
Si Si5 0.733782 0.974215 0.419490
Si Si6 0.330396 0.802280 0.730404
Si Si7 0.518046 0.095310 0.076219
O O1 0.500000 0.500000 0.605100
O O2 0.525148 0.436668 0.500000
O O3 0.469642 0.382569 0.605360
O O4 0.666160 0.431598 0.593126
O O5 0.084279 0.773308 0.380625
O O6 0.098612 0.687075 0.295720
O O7 0.041840 0.664556 0.416747
O O8 0.911459 0.717791 0.329612
O O9 0.588914 0.679283 0.500000
O O10 0.727438 0.641204 0.587002
O O11 0.720114 0.864106 0.794101
O O12 0.585003 0.911474 0.877542
O O13 0.752801 0.967376 0.875579
O O14 0.736718 0.989479 0.500000
O O15 0.621017 0.943313 0.405808
O O16 0.250000 0.750000 0.750000
O O17 0.488429 0.079791 0.000000
#
# Coordination Sequence:
#
# PCOD9526141 Si02
#       7
#    16  16  16  16  16  16  16
#     4   9  17  30  49  78 117 153 188 230 285 358
#     4  10  22  38  58  82 112 152 202 250 291 353
#     4  11  20  33  58  89 118 152 193 241 300 361
#     4  11  20  34  59  86 116 153 199 242 288 358
#     4  10  19  34  56  85 124 162 190 233 304 366
#     4  10  21  40  59  80 108 153 205 247 293 336
#     4  10  21  36  55  86 122 152 189 242 305 359
#
# _framework density 19.734774999999999
#
# number of rings (size 3 to 8) (size 9 to 14) (size 15 to 20)
#    0.000    1.857    2.857    2.143    0.000    2.286 
#    0.000    0.714    0.000    3.429    0.000    2.000 
#    0.000    0.000    0.000    0.000    0.000    0.000 
#
# Total GULP energy -312104.268404 kJ/mol
# GULP energy per Si atom -5573.290507 kJ/mol
# Density = 1.968986 g / cm^3
# Si number density = 19.734775 Si / 1000 Ang^3
#
#
#
# Elastic Constant Matrix: (Units=GPa)
#
#
# Indices 1 2 3 4 5 6 
#
# 1 77.2153 23.2819 14.7391 0.0000 0.0000 0.0000
# 2 23.2819 92.2901 25.7849 0.0000 0.0000 0.0000
# 3 14.7391 25.7849 46.1490 0.0000 0.0000 0.0000
# 4 0.0000 0.0000 0.0000 27.5480 0.0000 0.0000
# 5 0.0000 0.0000 0.0000 0.0000 12.8967 0.0000
# 6 0.0000 0.0000 0.0000 0.0000 0.0000 33.0460
#
#
#
# Elastic Compliance Matrix: (Units=1/GPa)
#
#
# Indices 1 2 3 4 5 6 
#
# 1 0.014368 -0.002776 -0.003038 0.000000 0.000000 0.000000
# 2 -0.002776 0.013376 -0.006587 0.000000 0.000000 0.000000
# 3 -0.003038 -0.006587 0.026320 0.000000 0.000000 0.000000
# 4 0.000000 0.000000 0.000000 0.036300 0.000000 0.000000
# 5 0.000000 0.000000 0.000000 0.000000 0.077539 0.000000
# 6 0.000000 0.000000 0.000000 0.000000 0.000000 0.030261
#
#
# Mechanical properties :
#
#
# Convention : Reuss Voigt Hill
#
# Bulk Modulus (GPa) = 34.17421 38.14071 36.15746
# Shear Modulus (GPa) = 21.48514 24.82136 23.15325
#
# Velocity S-wave (km/s) = 3.30312 3.55032 3.42895
# Velocity P-wave (km/s) = 5.64817 6.01456 5.83424
#
# Compressibility (1/GPa) = 0.02926184
#
# Stress axis : x y z
#
# Youngs Moduli (GPa) = 69.60098 74.76078 37.99458
#
# Poissons Ratio (x) = 0.20752 0.11542
# Poissons Ratio (y) = 0.19320 0.25027
# Poissons Ratio (z) = 0.21144 0.49245
#
# Static dielectric constant tensor:
#      x y z
#    x 1.736040 0.000000 0.000000 
#    y 0.000000 1.699470 0.000000 
#    z 0.000000 0.000000 1.709180 
# 
# From -- ./inp_files/37328.got.cif
#   From: 2010.05.17/outbox.cif.g08.bks.cpg/sg72_19_cif.got.tgz:37328.got - 2010.06.03 17:03:01.
