data_PCOD9526401
_publ_section_title
;
Structure prediction by ZEFSAII (Michael W. Deem and Ramdas Pophale) SiO2 
 PCOD9526401
Probable space group: I B A M
;
_chemical_formula_sum "Si O2"
_cell_formula_units_Z 80
_cell_length_a 25.749755
_cell_length_b 11.444342
_cell_length_c 14.628091
_cell_angle_alpha 90.000000
_cell_angle_beta 90.000000
_cell_angle_gamma 90.000000
_cell_volume 4310.737547
_symmetry_space_group_name_H-M "I B A M"
_symmetry_group_IT_number 72
_symmetry_cell_setting 'orthorhombic'
loop_
_space_group_symop_operation_xyz
x,y,z
-x,-y,z
x,-y,1/2-z
-x,y,1/2-z
-x,-y,-z
x,y,-z
-x,y,1/2+z
x,-y,1/2+z
1/2+x,1/2+y,1/2+z
1/2-x,1/2-y,1/2+z
1/2+x,1/2-y,-z
1/2-x,1/2+y,-z
1/2-x,1/2-y,1/2-z
1/2+x,1/2+y,1/2-z
1/2-x,1/2+y,z
1/2+x,1/2-y,z
loop_
_atom_site_type_symbol
_atom_site_label
_atom_site_fract_x
_atom_site_fract_y
_atom_site_fract_z
Si Si1 0.026315 0.323677 0.000000
Si Si2 0.784410 0.889675 0.316605
Si Si3 0.327251 0.224633 0.330472
Si Si4 0.346059 0.404855 0.000000
Si Si5 0.880699 0.149061 0.500000
Si Si6 0.415607 0.031383 0.651015
Si Si7 0.094924 0.660808 0.000000
O O1 0.043638 0.399351 0.087898
O O2 0.063705 0.212084 0.000000
O O3 0.965518 0.302230 0.000000
O O4 0.730678 0.825739 0.341890
O O5 0.822018 0.801685 0.260899
O O6 0.811758 0.923423 0.410081
O O7 0.774261 0.000000 0.250000
O O8 0.348110 0.305213 0.412665
O O9 0.367022 0.116837 0.329019
O O10 0.386859 0.510494 0.000000
O O11 0.369790 0.275284 0.000000
O O12 0.437021 0.000000 0.750000
O O13 0.397560 0.921652 0.589150
#
# Coordination Sequence:
#
# PCOD9526401 Si02
#       7
#     8  16  16   8   8  16   8
#     4   9  22  38  60  85 114 151 193 247 298 350
#     4  11  22  38  59  87 122 155 197 235 287 349
#     4  10  21  38  59  89 119 156 191 237 288 348
#     4  12  24  38  58  85 117 160 196 248 280 348
#     4  10  20  41  60  83 118 156 196 235 295 344
#     4  10  19  37  62  86 118 150 187 242 297 349
#     4  11  24  39  56  91 117 147 202 245 298 344
#
# _framework density 18.558309000000001
#
# number of rings (size 3 to 8) (size 9 to 14) (size 15 to 20)
#    0.000    1.600    2.000    4.200    0.000    3.600 
#    3.600    0.000    0.000    0.000    0.000    0.000 
#    0.000    0.000    0.000    0.000    0.000    0.000 
#
# Total GULP energy -223343.161120 kJ/mol
# GULP energy per Si atom -5583.579028 kJ/mol
# Density = 1.851607 g / cm^3
# Si number density = 18.558309 Si / 1000 Ang^3
#
#
#
# Elastic Constant Matrix: (Units=GPa)
#
#
# Indices 1 2 3 4 5 6 
#
# 1 43.3542 0.8394 12.0189 0.0000 0.0000 0.0000
# 2 0.8394 83.8370 16.3599 0.0000 0.0000 0.0000
# 3 12.0189 16.3599 104.8403 0.0000 0.0000 0.0000
# 4 0.0000 0.0000 0.0000 -13.9604 0.0000 0.0000
# 5 0.0000 0.0000 0.0000 0.0000 5.5166 0.0000
# 6 0.0000 0.0000 0.0000 0.0000 0.0000 21.1923
#
#
#
# Elastic Compliance Matrix: (Units=1/GPa)
#
#
# Indices 1 2 3 4 5 6 
#
# 1 0.023830 0.000304 -0.002779 0.000000 0.000000 0.000000
# 2 0.000304 0.012306 -0.001955 0.000000 0.000000 0.000000
# 3 -0.002779 -0.001955 0.010162 0.000000 0.000000 0.000000
# 4 0.000000 0.000000 0.000000 -0.071631 0.000000 0.000000
# 5 0.000000 0.000000 0.000000 0.000000 0.181271 0.000000
# 6 0.000000 0.000000 0.000000 0.000000 0.000000 0.047187
#
#
# Mechanical properties :
#
#
# Convention : Reuss Voigt Hill
#
# Bulk Modulus (GPa) = 26.71126 32.27419 29.49272
# Shear Modulus (GPa) = 22.27513 16.07060 19.17287
#
# Velocity S-wave (km/s) = 3.46826 2.94590 3.21770
# Velocity P-wave (km/s) = 5.51932 5.38512 5.45263
#
# Compressibility (1/GPa) = 0.03743740
#
# Stress axis : x y z
#
# Youngs Moduli (GPa) = 41.96314 81.25854 98.40549
#
# Poissons Ratio (x) = -0.02468 0.27350
# Poissons Ratio (y) = -0.01275 0.19240
# Poissons Ratio (z) = 0.11663 0.15888
#
# Static dielectric constant tensor:
#      x y z
#    x 1.608510 0.000000 0.000000 
#    y 0.000000 1.655450 0.000000 
#    z 0.000000 0.000000 1.644630 
# 
# From -- ./inp_files/20264.got.cif
#   From: 2010.05.17/outbox.cif.g08.bks.cpg/sg72_11_cif.got.tgz:20264.got - 2010.06.03 17:03:01.
