data_PCOD9526964
_publ_section_title
;
Structure prediction by ZEFSAII (Michael W. Deem and Ramdas Pophale) SiO2 
 PCOD9526964
Probable space group: I B A M
;
_chemical_formula_sum "Si O2"
_cell_formula_units_Z 116
_cell_length_a 23.679195
_cell_length_b 15.864143
_cell_length_c 14.308362
_cell_angle_alpha 90.000000
_cell_angle_beta 90.000000
_cell_angle_gamma 90.000000
_cell_volume 5374.938126
_symmetry_space_group_name_H-M "I B A M"
_symmetry_group_IT_number 72
_symmetry_cell_setting 'orthorhombic'
loop_
_space_group_symop_operation_xyz
x,y,z
-x,-y,z
x,-y,1/2-z
-x,y,1/2-z
-x,-y,-z
x,y,-z
-x,y,1/2+z
x,-y,1/2+z
1/2+x,1/2+y,1/2+z
1/2-x,1/2-y,1/2+z
1/2+x,1/2-y,-z
1/2-x,1/2+y,-z
1/2-x,1/2-y,1/2-z
1/2+x,1/2+y,1/2-z
1/2-x,1/2+y,z
1/2+x,1/2-y,z
loop_
_atom_site_type_symbol
_atom_site_label
_atom_site_fract_x
_atom_site_fract_y
_atom_site_fract_z
Si Si1 0.370141 0.466208 0.109537
Si Si2 0.498092 0.718420 0.604687
Si Si3 0.500000 0.000000 0.750000
Si Si4 0.432824 0.107215 0.601963
Si Si5 0.773717 0.154102 0.895949
Si Si6 0.663095 0.187486 0.206326
Si Si7 0.374534 0.209021 0.104711
Si Si8 0.902218 0.866393 0.208919
O O1 0.305610 0.434151 0.120389
O O2 0.402822 0.412059 0.189318
O O3 0.378405 0.562621 0.138445
O O4 0.385470 0.451179 0.000000
O O5 0.495500 0.681306 0.500000
O O6 0.532558 0.805582 0.599984
O O7 0.434940 0.749016 0.629374
O O8 0.463494 0.660916 0.829266
O O9 0.460785 0.053809 0.682582
O O10 0.436087 0.066658 0.500000
O O11 0.370160 0.133866 0.629606
O O12 0.728265 0.179542 0.819385
O O13 0.825338 0.220745 0.898985
O O14 0.748163 0.154765 0.000000
O O15 0.644953 0.152977 0.308404
O O16 0.638313 0.283578 0.205169
O O17 0.379990 0.172562 0.000000
#
# Coordination Sequence:
#
# PCOD9526964 Si02
#       8
#    16  16   4  16  16  16  16  16
#     4  10  21  39  59  89 132 173 212 271 334 384
#     4   9  19  38  63  94 127 162 209 266 316 379
#     4  12  22  40  64  94 128 170 198 248 326 398
#     4  10  22  39  63  94 127 163 205 258 316 376
#     4  10  21  38  62  88 123 168 209 262 324 378
#     4  11  21  39  68  94 124 167 220 267 318 383
#     4  10  20  35  60  94 129 164 208 261 322 382
#     4  10  21  36  65  95 123 168 224 266 324 392
#
# _framework density 21.581643
#
# number of rings (size 3 to 8) (size 9 to 14) (size 15 to 20)
#    0.000    1.931    1.379    2.276    0.000    3.310 
#    0.000    2.759    6.069    4.966    0.000    0.000 
#    0.000    0.000    0.000    0.000    0.000    0.000 
#
# Total GULP energy -323754.080061 kJ/mol
# GULP energy per Si atom -5581.966898 kJ/mol
# Density = 2.153252 g / cm^3
# Si number density = 21.581643 Si / 1000 Ang^3
#
#
#
# Elastic Constant Matrix: (Units=GPa)
#
#
# Indices 1 2 3 4 5 6 
#
# 1 128.8513 14.0416 70.8057 0.0000 0.0000 0.0000
# 2 14.0416 39.0163 40.6896 0.0000 0.0000 0.0000
# 3 70.8057 40.6896 184.3540 0.0000 0.0000 0.0000
# 4 0.0000 0.0000 0.0000 41.2125 0.0000 0.0000
# 5 0.0000 0.0000 0.0000 0.0000 24.6745 0.0000
# 6 0.0000 0.0000 0.0000 0.0000 0.0000 19.9617
#
#
#
# Elastic Compliance Matrix: (Units=1/GPa)
#
#
# Indices 1 2 3 4 5 6 
#
# 1 0.009845 0.000520 -0.003896 0.000000 0.000000 0.000000
# 2 0.000520 0.033321 -0.007554 0.000000 0.000000 0.000000
# 3 -0.003896 -0.007554 0.008588 0.000000 0.000000 0.000000
# 4 0.000000 0.000000 0.000000 0.024264 0.000000 0.000000
# 5 0.000000 0.000000 0.000000 0.000000 0.040528 0.000000
# 6 0.000000 0.000000 0.000000 0.000000 0.000000 0.050096
#
#
# Mechanical properties :
#
#
# Convention : Reuss Voigt Hill
#
# Bulk Modulus (GPa) = 33.45154 67.03282 50.24218
# Shear Modulus (GPa) = 25.19297 32.28204 28.73751
#
# Velocity S-wave (km/s) = 3.42033 3.87177 3.65303
# Velocity P-wave (km/s) = 5.57960 7.14947 6.41275
#
# Compressibility (1/GPa) = 0.02989399
#
# Stress axis : x y z
#
# Youngs Moduli (GPa) = 101.57287 30.01074 116.44107
#
# Poissons Ratio (x) = -0.01560 0.45366
# Poissons Ratio (y) = -0.05281 0.87962
# Poissons Ratio (z) = 0.39573 0.22671
#
# Static dielectric constant tensor:
#      x y z
#    x 1.770850 0.000000 0.000000 
#    y 0.000000 1.793330 0.000000 
#    z 0.000000 0.000000 1.441500 
# 
# From -- ./inp_files/25389.got.cif
#   From: 2010.05.17/outbox.cif.g08.bks.cpg/sg72_13_cif.got.tgz:25389.got - 2010.06.03 17:03:01.
