data_PCOD9526844
_publ_section_title
;
Structure prediction by ZEFSAII (Michael W. Deem and Ramdas Pophale) SiO2 
 PCOD9526844
Probable space group: I B A M
;
_chemical_formula_sum "Si O2"
_cell_formula_units_Z 100
_cell_length_a 18.584877
_cell_length_b 33.335192
_cell_length_c 9.007088
_cell_angle_alpha 90.000000
_cell_angle_beta 90.000000
_cell_angle_gamma 90.000000
_cell_volume 5580.165220
_symmetry_space_group_name_H-M "I B A M"
_symmetry_group_IT_number 72
_symmetry_cell_setting 'orthorhombic'
loop_
_space_group_symop_operation_xyz
x,y,z
-x,-y,z
x,-y,1/2-z
-x,y,1/2-z
-x,-y,-z
x,y,-z
-x,y,1/2+z
x,-y,1/2+z
1/2+x,1/2+y,1/2+z
1/2-x,1/2-y,1/2+z
1/2+x,1/2-y,-z
1/2-x,1/2+y,-z
1/2-x,1/2-y,1/2-z
1/2+x,1/2+y,1/2-z
1/2-x,1/2+y,z
1/2+x,1/2-y,z
loop_
_atom_site_type_symbol
_atom_site_label
_atom_site_fract_x
_atom_site_fract_y
_atom_site_fract_z
Si Si1 0.500000 0.500000 0.750000
Si Si2 0.578351 0.728272 0.177893
Si Si3 0.079311 0.689969 0.321801
Si Si4 0.163420 0.853300 0.825648
Si Si5 0.813081 0.371832 0.177306
Si Si6 0.126359 0.941425 0.166402
Si Si7 0.272751 0.959945 0.675321
O O1 0.555826 0.469004 0.673798
O O2 0.500000 0.723047 0.250000
O O3 0.609520 0.768051 0.255789
O O4 0.622362 0.687782 0.205241
O O5 0.572873 0.734530 0.000000
O O6 0.075021 0.691588 0.500000
O O7 0.128981 0.654009 0.265357
O O8 0.000000 0.685770 0.250000
O O9 0.233613 0.857388 0.724813
O O10 0.115644 0.893795 0.806053
O O11 0.185001 0.852683 0.000000
O O12 0.813007 0.418979 0.217984
O O13 0.822973 0.367743 0.000000
O O14 0.189055 0.954925 0.277284
O O15 0.156719 0.945379 0.000000
O O16 0.275864 0.963782 0.500000
O O17 0.301414 0.000000 0.750000
#
# Coordination Sequence:
#
# PCOD9526844 Si02
#       7
#     4  16  16  16  16  16  16
#     4  12  22  28  52  78 106 148 192 240 282 320
#     4  10  20  35  55  78 110 148 188 231 278 330
#     4  11  22  38  61  86 113 143 176 219 271 331
#     4   9  20  37  54  76 108 149 190 234 280 327
#     4  10  21  37  58  85 112 143 183 226 272 326
#     4  10  21  35  49  71 106 143 188 235 277 322
#     4  10  20  35  56  79 107 141 179 222 268 319
#
# _framework density 17.920615999999999
#
# number of rings (size 3 to 8) (size 9 to 14) (size 15 to 20)
#    0.000    1.920    0.800    4.080    1.120    4.480 
#    0.000    0.000    0.000    0.480    0.000    3.360 
#    0.000    0.000    0.000    0.000    0.000    0.000 
#
# Total GULP energy -278857.784678 kJ/mol
# GULP energy per Si atom -5577.155694 kJ/mol
# Density = 1.787983 g / cm^3
# Si number density = 17.920616 Si / 1000 Ang^3
#
#
#
# Elastic Constant Matrix: (Units=GPa)
#
#
# Indices 1 2 3 4 5 6 
#
# 1 47.1409 60.4572 34.2823 -0.0002 -0.0001 0.0001
# 2 60.4572 177.4066 81.1369 -0.0005 -0.0003 0.0002
# 3 34.2823 81.1369 94.2419 -0.0094 -0.0002 0.0010
# 4 -0.0002 -0.0005 -0.0094 29.2176 0.0004 0.0007
# 5 -0.0001 -0.0003 -0.0002 0.0004 26.8817 0.0005
# 6 0.0001 0.0002 0.0010 0.0007 0.0005 29.7390
#
#
#
# Elastic Compliance Matrix: (Units=1/GPa)
#
#
# Indices 1 2 3 4 5 6 
#
# 1 0.038807 -0.011165 -0.004505 -0.000001 0.000000 0.000000
# 2 -0.011165 0.012510 -0.006709 -0.000002 0.000000 0.000000
# 3 -0.004505 -0.006709 0.018026 0.000006 0.000000 -0.000001
# 4 -0.000001 -0.000002 0.000006 0.034226 0.000000 -0.000001
# 5 0.000000 0.000000 0.000000 0.000000 0.037200 -0.000001
# 6 0.000000 0.000000 -0.000001 -0.000001 -0.000001 0.033626
#
#
# Mechanical properties :
#
#
# Convention : Reuss Voigt Hill
#
# Bulk Modulus (GPa) = 40.67314 74.50468 57.58891
# Shear Modulus (GPa) = 21.99283 26.69521 24.34402
#
# Velocity S-wave (km/s) = 3.50699 3.86377 3.68970
# Velocity P-wave (km/s) = 6.25653 7.84666 7.09628
#
# Compressibility (1/GPa) = 0.02458625
#
# Stress axis : x y z
#
# Youngs Moduli (GPa) = 25.76822 79.93734 55.47643
#
# Poissons Ratio (x) = 0.89247 0.24991
# Poissons Ratio (y) = 0.28769 0.37218
# Poissons Ratio (z) = 0.11608 0.53629
#
# Static dielectric constant tensor:
#      x y z
#    x 1.580320 0.000000 0.000000 
#    y 0.000000 1.651570 0.000000 
#    z 0.000000 0.000000 1.610840 
# 
# From -- ./inp_files/6389.got.cif
#   From: 2010.05.17/outbox.cif.g08.bks.cpg/sg72_4_cif.got.tgz:6389.got - 2010.06.03 17:03:01.
