data_PCOD9526173
_publ_section_title
;
Structure prediction by ZEFSAII (Michael W. Deem and Ramdas Pophale) SiO2 
 PCOD9526173
Probable space group: I B A M
;
_chemical_formula_sum "Si O2"
_cell_formula_units_Z 68
_cell_length_a 8.207049
_cell_length_b 14.302568
_cell_length_c 28.481857
_cell_angle_alpha 90.000000
_cell_angle_beta 90.000000
_cell_angle_gamma 90.000000
_cell_volume 3343.253818
_symmetry_space_group_name_H-M "I B A M"
_symmetry_group_IT_number 72
_symmetry_cell_setting 'orthorhombic'
loop_
_space_group_symop_operation_xyz
x,y,z
-x,-y,z
x,-y,1/2-z
-x,y,1/2-z
-x,-y,-z
x,y,-z
-x,y,1/2+z
x,-y,1/2+z
1/2+x,1/2+y,1/2+z
1/2-x,1/2-y,1/2+z
1/2+x,1/2-y,-z
1/2-x,1/2+y,-z
1/2-x,1/2-y,1/2-z
1/2+x,1/2+y,1/2-z
1/2-x,1/2+y,z
1/2+x,1/2-y,z
loop_
_atom_site_type_symbol
_atom_site_label
_atom_site_fract_x
_atom_site_fract_y
_atom_site_fract_z
Si Si1 0.500000 0.000000 0.750000
Si Si2 0.326233 0.298804 0.397385
Si Si3 0.821833 0.895981 0.604237
Si Si4 0.661211 0.951370 0.841165
Si Si5 0.358464 0.289191 0.500000
Si Si6 0.297986 0.395741 0.000000
O O1 0.615630 0.944945 0.786294
O O2 0.309358 0.187789 0.390711
O O3 0.506143 0.342104 0.392474
O O4 0.209359 0.353388 0.362501
O O5 0.275995 0.317875 0.451417
O O6 0.805191 0.941481 0.551668
O O7 0.798441 0.974078 0.643634
O O8 0.500000 0.000000 0.862875
O O9 0.539228 0.330981 0.500000
O O10 0.352254 0.176503 0.500000
#
# Coordination Sequence:
#
# PCOD9526173 Si02
#       6
#     4  16  16  16   8   8
#     4   8  24  44  62  70 112 134 194 256 308 306
#     4  10  19  34  58  87 118 152 185 220 271 336
#     4  10  19  34  58  87 118 152 185 220 271 336
#     4  10  21  40  60  76 108 148 185 244 290 328
#     4   8  16  29  48  81 122 152 178 215 258 321
#     4   8  16  29  48  81 122 152 178 215 258 321
#
# _framework density 20.339466999999999
#
# number of rings (size 3 to 8) (size 9 to 14) (size 15 to 20)
#    0.706    1.882    0.000    2.118    0.000    2.824 
#    0.000    8.235    0.000    0.000    0.000    0.000 
#    0.000    0.000    0.000    0.000    0.000    0.000 
#
# Total GULP energy -189297.362004 kJ/mol
# GULP energy per Si atom -5567.569471 kJ/mol
# Density = 2.029317 g / cm^3
# Si number density = 20.339467 Si / 1000 Ang^3
#
#
#
# Elastic Constant Matrix: (Units=GPa)
#
#
# Indices 1 2 3 4 5 6 
#
# 1 41.3848 4.8185 30.6528 0.0000 0.0000 0.0000
# 2 4.8185 69.5798 38.4297 0.0000 0.0000 0.0000
# 3 30.6528 38.4297 119.8345 0.0000 0.0000 0.0000
# 4 0.0000 0.0000 0.0000 15.7647 0.0000 0.0000
# 5 0.0000 0.0000 0.0000 0.0000 41.5187 0.0000
# 6 0.0000 0.0000 0.0000 0.0000 0.0000 23.7734
#
#
#
# Elastic Compliance Matrix: (Units=1/GPa)
#
#
# Indices 1 2 3 4 5 6 
#
# 1 0.030207 0.002644 -0.008575 0.000000 0.000000 0.000000
# 2 0.002644 0.017697 -0.006352 0.000000 0.000000 0.000000
# 3 -0.008575 -0.006352 0.012575 0.000000 0.000000 0.000000
# 4 0.000000 0.000000 0.000000 0.063433 0.000000 0.000000
# 5 0.000000 0.000000 0.000000 0.000000 0.024086 0.000000
# 6 0.000000 0.000000 0.000000 0.000000 0.000000 0.042064
#
#
# Mechanical properties :
#
#
# Convention : Reuss Voigt Hill
#
# Bulk Modulus (GPa) = 27.84407 42.06681 34.95544
# Shear Modulus (GPa) = 22.06567 26.67122 24.36844
#
# Velocity S-wave (km/s) = 3.29731 3.62512 3.46509
# Velocity P-wave (km/s) = 5.31185 6.18460 5.76476
#
# Compressibility (1/GPa) = 0.03591429
#
# Stress axis : x y z
#
# Youngs Moduli (GPa) = 33.10538 56.50706 79.52284
#
# Poissons Ratio (x) = -0.14940 0.68187
# Poissons Ratio (y) = -0.08753 0.50509
# Poissons Ratio (z) = 0.28386 0.35891
#
# Static dielectric constant tensor:
#      x y z
#    x 1.803440 0.000000 0.000000 
#    y 0.000000 1.733970 0.000000 
#    z 0.000000 0.000000 1.722370 
# 
# From -- ./inp_files/46999.got.cif
#   From: 2010.05.17/outbox.cif.g08.bks.cpg/sg72_24_cif.got.tgz:46999.got - 2010.06.03 17:03:01.
