data_PCOD9526907
_publ_section_title
;
Structure prediction by ZEFSAII (Michael W. Deem and Ramdas Pophale) SiO2 
 PCOD9526907
Probable space group: I B A M
;
_chemical_formula_sum "Si O2"
_cell_formula_units_Z 116
_cell_length_a 13.966540
_cell_length_b 23.652840
_cell_length_c 15.072087
_cell_angle_alpha 90.000000
_cell_angle_beta 90.000000
_cell_angle_gamma 90.000000
_cell_volume 4979.038860
_symmetry_space_group_name_H-M "I B A M"
_symmetry_group_IT_number 72
_symmetry_cell_setting 'orthorhombic'
loop_
_space_group_symop_operation_xyz
x,y,z
-x,-y,z
x,-y,1/2-z
-x,y,1/2-z
-x,-y,-z
x,y,-z
-x,y,1/2+z
x,-y,1/2+z
1/2+x,1/2+y,1/2+z
1/2-x,1/2-y,1/2+z
1/2+x,1/2-y,-z
1/2-x,1/2+y,-z
1/2-x,1/2-y,1/2-z
1/2+x,1/2+y,1/2-z
1/2-x,1/2+y,z
1/2+x,1/2-y,z
loop_
_atom_site_type_symbol
_atom_site_label
_atom_site_fract_x
_atom_site_fract_y
_atom_site_fract_z
Si Si1 0.095645 0.871407 0.702034
Si Si2 0.128530 0.328079 0.099393
Si Si3 0.800266 0.626628 0.730025
Si Si4 0.500000 0.000000 0.000000
Si Si5 0.891587 0.013336 0.643996
Si Si6 0.003365 0.227080 0.101382
Si Si7 0.200115 0.262747 0.395959
Si Si8 0.187967 0.526161 0.094836
O O1 0.189507 0.873803 0.760835
O O2 0.116116 0.919022 0.629105
O O3 0.069304 0.811301 0.662080
O O4 0.000000 0.890931 0.750000
O O5 0.136723 0.367943 0.182900
O O6 0.031051 0.292655 0.105380
O O7 0.208828 0.278632 0.110449
O O8 0.137646 0.352269 0.000000
O O9 0.802214 0.682719 0.667463
O O10 0.821213 0.570912 0.673845
O O11 0.586856 0.004286 0.923726
O O12 0.788228 0.991751 0.608298
O O13 0.889556 0.000000 0.750000
O O14 0.000000 0.000000 0.611968
O O15 0.892759 0.224840 0.125582
O O16 0.017134 0.208449 0.000000
O O17 0.193061 0.279743 0.500000
O O18 0.200263 0.558010 0.000000
#
# Coordination Sequence:
#
# PCOD9526907 Si02
#       8
#    16  16  16   4  16  16  16  16
#     4  11  21  34  61  90 127 167 225 276 327 415
#     4  10  21  37  55  85 136 180 221 285 328 390
#     4  11  21  35  63  97 123 180 240 276 344 421
#     4   8  20  48  72 108 138 168 228 310 346 424
#     4  10  20  40  66 100 142 177 218 282 358 430
#     4  10  22  36  55  86 128 175 219 270 332 384
#     4  10  20  35  57  86 132 178 222 279 330 399
#     4   9  21  41  76 101 136 173 229 291 358 425
#
# _framework density 23.29767
#
# number of rings (size 3 to 8) (size 9 to 14) (size 15 to 20)
#    0.414    1.517    2.759    1.655    1.931    2.483 
#    0.000    0.345   12.138    3.310    0.000    0.483 
#    0.000    0.000    0.000    0.000    0.000    0.000 
#
# Total GULP energy -322873.711104 kJ/mol
# GULP energy per Si atom -5566.788122 kJ/mol
# Density = 2.324464 g / cm^3
# Si number density = 23.297670 Si / 1000 Ang^3
#
#
#
# Elastic Constant Matrix: (Units=GPa)
#
#
# Indices 1 2 3 4 5 6 
#
# 1 135.8108 4.2557 27.8516 0.0000 0.0000 0.0000
# 2 4.2557 35.7997 35.0931 0.0003 -0.0001 0.0000
# 3 27.8516 35.0931 90.3621 0.0003 -0.0001 -0.0001
# 4 0.0000 0.0003 0.0003 22.9246 -0.0001 0.0000
# 5 0.0000 -0.0001 -0.0001 -0.0001 34.7849 0.0000
# 6 0.0000 0.0000 -0.0001 0.0000 0.0000 14.4597
#
#
#
# Elastic Compliance Matrix: (Units=1/GPa)
#
#
# Indices 1 2 3 4 5 6 
#
# 1 0.007982 0.002362 -0.003377 0.000000 0.000000 0.000000
# 2 0.002362 0.045803 -0.018516 0.000000 0.000000 0.000000
# 3 -0.003377 -0.018516 0.019299 0.000000 0.000000 0.000000
# 4 0.000000 0.000000 0.000000 0.043621 0.000000 0.000000
# 5 0.000000 0.000000 0.000000 0.000000 0.028748 0.000000
# 6 0.000000 0.000000 0.000000 0.000000 0.000000 0.069158
#
#
# Mechanical properties :
#
#
# Convention : Reuss Voigt Hill
#
# Bulk Modulus (GPa) = 29.39434 44.04148 36.71791
# Shear Modulus (GPa) = 18.86694 27.41866 23.14280
#
# Velocity S-wave (km/s) = 2.84882 3.43430 3.15517
# Velocity P-wave (km/s) = 4.84410 5.88818 5.39148
#
# Compressibility (1/GPa) = 0.03402015
#
# Stress axis : x y z
#
# Youngs Moduli (GPa) = 125.28482 21.83260 51.81737
#
# Poissons Ratio (x) = -0.05157 0.17501
# Poissons Ratio (y) = -0.29592 0.95946
# Poissons Ratio (z) = 0.42315 0.40426
#
# Static dielectric constant tensor:
#      x y z
#    x 1.952910 0.000000 0.000000 
#    y 0.000000 1.926670 0.000000 
#    z 0.000000 0.000000 1.905160 
# 
# From -- ./inp_files/30855.got.cif
#   From: 2010.05.17/outbox.cif.g08.bks.cpg/sg72_16_cif.got.tgz:30855.got - 2010.06.03 17:03:01.
