data_PCOD9526394
_publ_section_title
;
Structure prediction by ZEFSAII (Michael W. Deem and Ramdas Pophale) SiO2 
 PCOD9526394
Probable space group: I B A M
;
_chemical_formula_sum "Si O2"
_cell_formula_units_Z 80
_cell_length_a 9.256583
_cell_length_b 14.734855
_cell_length_c 24.368531
_cell_angle_alpha 90.000000
_cell_angle_beta 90.000000
_cell_angle_gamma 90.000000
_cell_volume 3323.731367
_symmetry_space_group_name_H-M "I B A M"
_symmetry_group_IT_number 72
_symmetry_cell_setting 'orthorhombic'
loop_
_space_group_symop_operation_xyz
x,y,z
-x,-y,z
x,-y,1/2-z
-x,y,1/2-z
-x,-y,-z
x,y,-z
-x,y,1/2+z
x,-y,1/2+z
1/2+x,1/2+y,1/2+z
1/2-x,1/2-y,1/2+z
1/2+x,1/2-y,-z
1/2-x,1/2+y,-z
1/2-x,1/2-y,1/2-z
1/2+x,1/2+y,1/2-z
1/2-x,1/2+y,z
1/2+x,1/2-y,z
loop_
_atom_site_type_symbol
_atom_site_label
_atom_site_fract_x
_atom_site_fract_y
_atom_site_fract_z
Si Si1 0.525765 0.258449 0.892048
Si Si2 0.719658 0.020710 0.500000
Si Si3 0.304257 0.813496 0.320941
Si Si4 0.638339 0.556159 0.109733
Si Si5 0.340364 0.386018 0.774392
Si Si6 0.475185 0.844435 0.000000
O O1 0.436950 0.177906 0.862072
O O2 0.657631 0.294514 0.855296
O O3 0.417811 0.342554 0.904969
O O4 0.571442 0.214109 0.948266
O O5 0.802181 0.999266 0.557406
O O6 0.608629 0.937954 0.500000
O O7 0.641935 0.119157 0.500000
O O8 0.348970 0.720446 0.290270
O O9 0.270539 0.888544 0.275859
O O10 0.500000 0.500000 0.127496
O O11 0.714349 0.569608 0.168800
O O12 0.500000 0.408217 0.750000
#
# Coordination Sequence:
#
# PCOD9526394 Si02
#       6
#    16   8  16  16  16   8
#     4  11  23  41  69  98 133 181 230 276 335 408
#     4  11  26  47  61  99 134 173 218 290 339 411
#     4  10  20  37  62  99 132 169 225 283 323 391
#     4  11  24  43  64  97 137 173 221 284 339 392
#     4  10  19  37  61  94 133 176 217 273 332 391
#     4  11  25  43  72  91 129 182 225 270 350 411
#
# _framework density 24.069334000000001
#
# number of rings (size 3 to 8) (size 9 to 14) (size 15 to 20)
#    0.000    1.400    4.000    3.300    2.800    1.200 
#    0.000    0.000    0.000    0.000    0.000    0.000 
#    0.000    0.000    0.000    0.000    0.000    0.000 
#
# Total GULP energy -223210.798234 kJ/mol
# GULP energy per Si atom -5580.269956 kJ/mol
# Density = 2.401455 g / cm^3
# Si number density = 24.069334 Si / 1000 Ang^3
#
#
#
# Elastic Constant Matrix: (Units=GPa)
#
#
# Indices 1 2 3 4 5 6 
#
# 1 54.0868 -6.2598 43.2657 0.0000 0.0000 0.0000
# 2 -6.2598 63.8257 14.5067 0.0000 0.0000 0.0000
# 3 43.2657 14.5067 170.9148 0.0000 0.0000 0.0000
# 4 0.0000 0.0000 0.0000 4.6884 0.0000 0.0000
# 5 0.0000 0.0000 0.0000 0.0000 46.9582 0.0000
# 6 0.0000 0.0000 0.0000 0.0000 0.0000 14.9117
#
#
#
# Elastic Compliance Matrix: (Units=1/GPa)
#
#
# Indices 1 2 3 4 5 6 
#
# 1 0.024062 0.003818 -0.006415 0.000000 0.000000 0.000000
# 2 0.003818 0.016582 -0.002374 0.000000 0.000000 0.000000
# 3 -0.006415 -0.002374 0.007676 0.000000 0.000000 0.000000
# 4 0.000000 0.000000 0.000000 0.213291 0.000000 0.000000
# 5 0.000000 0.000000 0.000000 0.000000 0.021296 0.000000
# 6 0.000000 0.000000 0.000000 0.000000 0.000000 0.067062
#
#
# Mechanical properties :
#
#
# Convention : Reuss Voigt Hill
#
# Bulk Modulus (GPa) = 26.05645 43.53917 34.79781
# Shear Modulus (GPa) = 13.41548 29.13263 21.27406
#
# Velocity S-wave (km/s) = 2.36343 3.48280 2.97621
# Velocity P-wave (km/s) = 4.27748 5.85675 5.12827
#
# Compressibility (1/GPa) = 0.03837821
#
# Stress axis : x y z
#
# Youngs Moduli (GPa) = 41.55853 60.30748 130.27049
#
# Poissons Ratio (x) = -0.23026 0.83572
# Poissons Ratio (y) = -0.15867 0.30925
# Poissons Ratio (z) = 0.26661 0.14316
#
# Static dielectric constant tensor:
#      x y z
#    x 2.018170 0.000000 0.000000 
#    y 0.000000 1.953360 0.000000 
#    z 0.000000 0.000000 2.013050 
# 
# From -- ./inp_files/47227.got.cif
#   From: 2010.05.17/outbox.cif.g08.bks.cpg/sg72_24_cif.got.tgz:47227.got - 2010.06.03 17:03:01.
