data_PCOD9526804
_publ_section_title
;
Structure prediction by ZEFSAII (Michael W. Deem and Ramdas Pophale) SiO2 
 PCOD9526804
Probable space group: I B A M
;
_chemical_formula_sum "Si O2"
_cell_formula_units_Z 88
_cell_length_a 27.138805
_cell_length_b 10.907586
_cell_length_c 15.984747
_cell_angle_alpha 90.000000
_cell_angle_beta 90.000000
_cell_angle_gamma 90.000000
_cell_volume 4731.786416
_symmetry_space_group_name_H-M "I B A M"
_symmetry_group_IT_number 72
_symmetry_cell_setting 'orthorhombic'
loop_
_space_group_symop_operation_xyz
x,y,z
-x,-y,z
x,-y,1/2-z
-x,y,1/2-z
-x,-y,-z
x,y,-z
-x,y,1/2+z
x,-y,1/2+z
1/2+x,1/2+y,1/2+z
1/2-x,1/2-y,1/2+z
1/2+x,1/2-y,-z
1/2-x,1/2+y,-z
1/2-x,1/2-y,1/2-z
1/2+x,1/2+y,1/2-z
1/2-x,1/2+y,z
1/2+x,1/2-y,z
loop_
_atom_site_type_symbol
_atom_site_label
_atom_site_fract_x
_atom_site_fract_y
_atom_site_fract_z
Si Si1 0.944344 0.282120 0.232482
Si Si2 0.382194 0.590674 0.828744
Si Si3 0.292892 0.962060 0.899626
Si Si4 0.781133 0.185613 0.400983
Si Si5 0.045549 0.919648 0.905247
Si Si6 0.630600 0.000000 0.250000
O O1 0.922605 0.191906 0.303540
O O2 0.946423 0.198999 0.150077
O O3 0.905143 0.389207 0.225587
O O4 0.000000 0.323970 0.250000
O O5 0.374919 0.500000 0.750000
O O6 0.331452 0.653553 0.853651
O O7 0.406346 0.505071 0.899065
O O8 0.267277 0.828434 0.885813
O O9 0.336491 0.968255 0.831525
O O10 0.258811 0.080515 0.881631
O O11 0.306305 0.966734 0.000000
O O12 0.790792 0.175622 0.500000
O O13 0.033837 0.887359 0.000000
O O14 0.000000 0.000000 0.870469
#
# Coordination Sequence:
#
# PCOD9526804 Si02
#       6
#    16  16  16  16  16   8
#     4  11  22  40  60  90 127 162 208 260 310 377
#     4  10  20  34  61  91 120 158 202 260 311 376
#     4  10  24  43  66  93 126 164 214 267 318 385
#     4  10  21  41  63  90 125 163 206 263 319 375
#     4  10  20  35  61  91 122 161 207 264 320 370
#     4  12  25  42  66  90 126 178 211 256 320 380
#
# _framework density 18.597626999999999
#
# number of rings (size 3 to 8) (size 9 to 14) (size 15 to 20)
#    0.000    1.636    3.636    0.818    1.273    4.364 
#    0.000    2.727    0.000    2.182    0.000    0.000 
#    0.000    0.000    0.000    0.000    0.000    0.000 
#
# Total GULP energy -245391.692817 kJ/mol
# GULP energy per Si atom -5577.083928 kJ/mol
# Density = 1.855530 g / cm^3
# Si number density = 18.597627 Si / 1000 Ang^3
#
#
#
# Elastic Constant Matrix: (Units=GPa)
#
#
# Indices 1 2 3 4 5 6 
#
# 1 95.5574 66.5297 45.1027 0.0000 0.0000 0.0000
# 2 66.5297 142.9698 46.2894 0.0000 0.0000 0.0000
# 3 45.1027 46.2894 52.0163 0.0000 0.0000 0.0000
# 4 0.0000 0.0000 0.0000 11.8824 0.0000 0.0000
# 5 0.0000 0.0000 0.0000 0.0000 41.3042 0.0000
# 6 0.0000 0.0000 0.0000 0.0000 0.0000 43.8219
#
#
#
# Elastic Compliance Matrix: (Units=1/GPa)
#
#
# Indices 1 2 3 4 5 6 
#
# 1 0.020159 -0.005228 -0.012828 0.000000 0.000000 0.000000
# 2 -0.005228 0.011181 -0.005417 0.000000 0.000000 0.000000
# 3 -0.012828 -0.005417 0.035168 0.000000 0.000000 0.000000
# 4 0.000000 0.000000 0.000000 0.084158 0.000000 0.000000
# 5 0.000000 0.000000 0.000000 0.000000 0.024211 0.000000
# 6 0.000000 0.000000 0.000000 0.000000 0.000000 0.022820
#
#
# Mechanical properties :
#
#
# Convention : Reuss Voigt Hill
#
# Bulk Modulus (GPa) = 51.11582 67.37634 59.24608
# Shear Modulus (GPa) = 19.90739 28.24313 24.07526
#
# Velocity S-wave (km/s) = 3.27529 3.90120 3.60187
# Velocity P-wave (km/s) = 6.46901 7.52327 7.01597
#
# Compressibility (1/GPa) = 0.01956341
#
# Stress axis : x y z
#
# Youngs Moduli (GPa) = 49.60523 89.43700 28.43473
#
# Poissons Ratio (x) = 0.46755 0.36475
# Poissons Ratio (y) = 0.25932 0.15404
# Poissons Ratio (z) = 0.63632 0.48450
#
# Static dielectric constant tensor:
#      x y z
#    x 1.628720 0.000000 0.000000 
#    y 0.000000 1.658500 0.000000 
#    z 0.000000 0.000000 1.636560 
# 
# From -- ./inp_files/24983.got.cif
#   From: 2010.05.17/outbox.cif.g08.bks.cpg/sg72_13_cif.got.tgz:24983.got - 2010.06.03 17:03:01.
