data_PCOD9526919
_publ_section_title
;
Structure prediction by ZEFSAII (Michael W. Deem and Ramdas Pophale) SiO2 
 PCOD9526919
Probable space group: I B A M
;
_chemical_formula_sum "Si O2"
_cell_formula_units_Z 64
_cell_length_a 11.960880
_cell_length_b 12.770440
_cell_length_c 17.719124
_cell_angle_alpha 90.000000
_cell_angle_beta 90.000000
_cell_angle_gamma 90.000000
_cell_volume 2706.520006
_symmetry_space_group_name_H-M "I B A M"
_symmetry_group_IT_number 72
_symmetry_cell_setting 'orthorhombic'
loop_
_space_group_symop_operation_xyz
x,y,z
-x,-y,z
x,-y,1/2-z
-x,y,1/2-z
-x,-y,-z
x,y,-z
-x,y,1/2+z
x,-y,1/2+z
1/2+x,1/2+y,1/2+z
1/2-x,1/2-y,1/2+z
1/2+x,1/2-y,-z
1/2-x,1/2+y,-z
1/2-x,1/2-y,1/2-z
1/2+x,1/2+y,1/2-z
1/2-x,1/2+y,z
1/2+x,1/2-y,z
loop_
_atom_site_type_symbol
_atom_site_label
_atom_site_fract_x
_atom_site_fract_y
_atom_site_fract_z
Si Si1 0.770691 0.554820 0.150129
Si Si2 0.736673 0.812387 0.500000
Si Si3 0.950872 0.128286 0.834391
Si Si4 0.995066 0.818965 0.000000
Si Si5 0.883142 0.643351 0.708759
O O1 0.639890 0.535885 0.161507
O O2 0.801394 0.630767 0.220038
O O3 0.844019 0.450527 0.154827
O O4 0.780504 0.615622 0.073056
O O5 0.870548 0.778085 0.500000
O O6 0.626006 0.739646 0.500000
O O7 0.894993 0.245760 0.831193
O O8 0.000000 0.124734 0.750000
O O9 0.008591 0.128367 0.916673
O O10 0.000000 0.621199 0.750000
#
# Coordination Sequence:
#
# PCOD9526919 Si02
#       5
#    16   8  16   8  16
#     4  10  20  35  58  86 119 156 200 248 305 368
#     4  10  20  37  59  89 126 160 200 259 311 365
#     4  10  21  39  62  86 121 165 200 251 314 365
#     4  10  22  37  59  93 122 158 212 251 302 381
#     4  10  20  36  57  87 119 151 203 260 304 359
#
# _framework density 23.646599999999999
#
# number of rings (size 3 to 8) (size 9 to 14) (size 15 to 20)
#    0.000    2.000    0.000    5.250    0.000    3.000 
#    0.000    6.250    0.000    9.000    0.000   35.000 
#    0.000    0.000    0.000    0.000    0.000    0.000 
#
# Total GULP energy -178150.907457 kJ/mol
# GULP energy per Si atom -5567.215858 kJ/mol
# Density = 2.359278 g / cm^3
# Si number density = 23.646600 Si / 1000 Ang^3
#
#
#
# Elastic Constant Matrix: (Units=GPa)
#
#
# Indices 1 2 3 4 5 6 
#
# 1 147.9558 44.2504 60.3709 0.0000 0.0000 0.0000
# 2 44.2504 107.4636 40.0942 0.0000 0.0000 0.0000
# 3 60.3709 40.0942 189.0179 0.0000 0.0000 0.0000
# 4 0.0000 0.0000 0.0000 11.9123 0.0000 0.0000
# 5 0.0000 0.0000 0.0000 0.0000 30.9982 0.0000
# 6 0.0000 0.0000 0.0000 0.0000 0.0000 -532.1967
#
#
#
# Elastic Compliance Matrix: (Units=1/GPa)
#
#
# Indices 1 2 3 4 5 6 
#
# 1 0.008426 -0.002677 -0.002123 0.000000 0.000000 0.000000
# 2 -0.002677 0.010956 -0.001469 0.000000 0.000000 0.000000
# 3 -0.002123 -0.001469 0.006280 0.000000 0.000000 0.000000
# 4 0.000000 0.000000 0.000000 0.083947 0.000000 0.000000
# 5 0.000000 0.000000 0.000000 0.000000 0.032260 0.000000
# 6 0.000000 0.000000 0.000000 0.000000 0.000000 -0.001879
#
#
# Mechanical properties :
#
#
# Convention : Reuss Voigt Hill
#
# Bulk Modulus (GPa) = 76.20105 81.54090 78.87098
# Shear Modulus (GPa) = 31.86686 -77.87577 -23.00446
#
# Velocity S-wave (km/s) = 3.67499 -5.74497 -3.12243
# Velocity P-wave (km/s) = 7.09241 3.07380 4.51963
#
# Compressibility (1/GPa) = 0.01312318
#
# Stress axis : x y z
#
# Youngs Moduli (GPa) = 118.68212 91.27460 159.23015
#
# Poissons Ratio (x) = 0.24437 0.33808
# Poissons Ratio (y) = 0.31775 0.23388
# Poissons Ratio (z) = 0.25199 0.13407
#
# Static dielectric constant tensor:
#      x y z
#    x 2.256380 0.000000 0.000000 
#    y 0.000000 1.942070 0.000000 
#    z 0.000000 0.000000 1.825960 
# 
# From -- ./inp_files/28846.got.cif
#   From: 2010.05.17/outbox.cif.g08.bks.cpg/sg72_15_cif.got.tgz:28846.got - 2010.06.03 17:03:01.
