data_PCOD9526682
_publ_section_title
;
Structure prediction by ZEFSAII (Michael W. Deem and Ramdas Pophale) SiO2 
 PCOD9526682
Probable space group: I B A M
;
_chemical_formula_sum "Si O2"
_cell_formula_units_Z 116
_cell_length_a 27.369370
_cell_length_b 21.928286
_cell_length_c 9.681357
_cell_angle_alpha 90.000000
_cell_angle_beta 90.000000
_cell_angle_gamma 90.000000
_cell_volume 5810.395872
_symmetry_space_group_name_H-M "I B A M"
_symmetry_group_IT_number 72
_symmetry_cell_setting 'orthorhombic'
loop_
_space_group_symop_operation_xyz
x,y,z
-x,-y,z
x,-y,1/2-z
-x,y,1/2-z
-x,-y,-z
x,y,-z
-x,y,1/2+z
x,-y,1/2+z
1/2+x,1/2+y,1/2+z
1/2-x,1/2-y,1/2+z
1/2+x,1/2-y,-z
1/2-x,1/2+y,-z
1/2-x,1/2-y,1/2-z
1/2+x,1/2+y,1/2-z
1/2-x,1/2+y,z
1/2+x,1/2-y,z
loop_
_atom_site_type_symbol
_atom_site_label
_atom_site_fract_x
_atom_site_fract_y
_atom_site_fract_z
Si Si1 0.544996 0.736282 0.157787
Si Si2 0.359282 0.405856 0.660866
Si Si3 0.139930 0.239925 0.160981
Si Si4 0.671982 0.840271 0.161870
Si Si5 0.500000 0.000000 0.250000
Si Si6 0.046271 0.911943 0.158195
Si Si7 0.097708 0.444537 0.658665
Si Si8 0.750778 0.944999 0.160661
O O1 0.500000 0.757995 0.250000
O O2 0.592605 0.751343 0.244794
O O3 0.542689 0.662248 0.150595
O O4 0.545190 0.759053 0.000000
O O5 0.371094 0.420277 0.500000
O O6 0.352114 0.332532 0.667828
O O7 0.403447 0.424721 0.760792
O O8 0.307075 0.433070 0.699293
O O9 0.178311 0.283399 0.236381
O O10 0.133330 0.255654 0.000000
O O11 0.623809 0.881323 0.198235
O O12 0.717741 0.885396 0.176041
O O13 0.667962 0.821789 0.000000
O O14 0.461152 0.044875 0.173213
O O15 0.000000 0.931586 0.250000
O O16 0.045600 0.934606 0.000000
O O17 0.117504 0.500000 0.750000
O O18 0.111107 0.453939 0.500000
O O19 0.731181 0.000000 0.250000
O O20 0.749965 0.961670 0.000000
#
# Coordination Sequence:
#
# PCOD9526682 Si02
#       8
#    16  16  16  16   4  16  16  16
#     4   9  16  28  46  70 103 143 184 223 264 314
#     4   9  19  36  56  81 114 147 184 229 276 329
#     4  10  20  34  52  77 108 146 187 226 274 335
#     4  10  21  37  54  77 110 146 183 231 289 339
#     4   8  18  32  54  76 102 136 186 232 282 320
#     4   9  16  27  49  80 111 146 182 216 259 315
#     4   9  18  32  52  74 100 136 180 230 279 328
#     4  10  22  40  62  84 108 141 181 232 287 339
#
# _framework density 19.964216
#
# number of rings (size 3 to 8) (size 9 to 14) (size 15 to 20)
#    0.414    2.207    0.000    1.862    0.000    6.069 
#    1.241    0.000    0.000    0.414    0.000    2.897 
#    0.000    0.000    0.000    0.000    0.000    0.000 
#
# Total GULP energy -323295.066279 kJ/mol
# GULP energy per Si atom -5574.052867 kJ/mol
# Density = 1.991878 g / cm^3
# Si number density = 19.964216 Si / 1000 Ang^3
#
#
#
# Elastic Constant Matrix: (Units=GPa)
#
#
# Indices 1 2 3 4 5 6 
#
# 1 97.7740 18.3784 48.8920 0.0000 0.0000 0.0000
# 2 18.3784 50.8308 43.4445 0.0000 0.0000 0.0000
# 3 48.8920 43.4445 115.3509 0.0000 0.0000 0.0000
# 4 0.0000 0.0000 0.0000 11.6244 0.0000 0.0000
# 5 0.0000 0.0000 0.0000 0.0000 21.8321 0.0000
# 6 0.0000 0.0000 0.0000 0.0000 0.0000 21.5855
#
#
#
# Elastic Compliance Matrix: (Units=1/GPa)
#
#
# Indices 1 2 3 4 5 6 
#
# 1 0.012978 0.000013 -0.005506 0.000000 0.000000 0.000000
# 2 0.000013 0.029012 -0.010932 0.000000 0.000000 0.000000
# 3 -0.005506 -0.010932 0.015120 0.000000 0.000000 0.000000
# 4 0.000000 0.000000 0.000000 0.086026 0.000000 0.000000
# 5 0.000000 0.000000 0.000000 0.000000 0.045804 0.000000
# 6 0.000000 0.000000 0.000000 0.000000 0.000000 0.046327
#
#
# Mechanical properties :
#
#
# Convention : Reuss Voigt Hill
#
# Bulk Modulus (GPa) = 41.21869 53.93173 47.57521
# Shear Modulus (GPa) = 18.10244 21.22446 19.66345
#
# Velocity S-wave (km/s) = 3.01449 3.26410 3.14177
# Velocity P-wave (km/s) = 5.72776 6.42484 6.08629
#
# Compressibility (1/GPa) = 0.02426084
#
# Stress axis : x y z
#
# Youngs Moduli (GPa) = 77.05086 34.46837 66.13558
#
# Poissons Ratio (x) = -0.00046 0.36415
# Poissons Ratio (y) = -0.00104 0.72303
# Poissons Ratio (z) = 0.42425 0.37683
#
# Static dielectric constant tensor:
#      x y z
#    x 1.734340 0.000000 0.000000 
#    y 0.000000 1.736540 0.000000 
#    z 0.000000 0.000000 1.677600 
# 
# From -- ./inp_files/8435.got.cif
#   From: 2010.05.17/outbox.cif.g08.bks.cpg/sg72_5_cif.got.tgz:8435.got - 2010.06.03 17:03:01.
