data_PCOD9526754
_publ_section_title
;
Structure prediction by ZEFSAII (Michael W. Deem and Ramdas Pophale) SiO2 
 PCOD9526754
Probable space group: I B A M
;
_chemical_formula_sum "Si O2"
_cell_formula_units_Z 116
_cell_length_a 9.583311
_cell_length_b 23.888221
_cell_length_c 20.643369
_cell_angle_alpha 90.000000
_cell_angle_beta 90.000000
_cell_angle_gamma 90.000000
_cell_volume 4725.850362
_symmetry_space_group_name_H-M "I B A M"
_symmetry_group_IT_number 72
_symmetry_cell_setting 'orthorhombic'
loop_
_space_group_symop_operation_xyz
x,y,z
-x,-y,z
x,-y,1/2-z
-x,y,1/2-z
-x,-y,-z
x,y,-z
-x,y,1/2+z
x,-y,1/2+z
1/2+x,1/2+y,1/2+z
1/2-x,1/2-y,1/2+z
1/2+x,1/2-y,-z
1/2-x,1/2+y,-z
1/2-x,1/2-y,1/2-z
1/2+x,1/2+y,1/2-z
1/2-x,1/2+y,z
1/2+x,1/2-y,z
loop_
_atom_site_type_symbol
_atom_site_label
_atom_site_fract_x
_atom_site_fract_y
_atom_site_fract_z
Si Si1 0.019873 0.142762 0.604453
Si Si2 0.578413 0.822994 0.078755
Si Si3 0.260458 0.926591 0.629331
Si Si4 0.154504 0.200084 0.724971
Si Si5 0.846628 0.598434 0.239438
Si Si6 0.341890 0.746249 0.072050
Si Si7 0.500000 0.500000 0.750000
Si Si8 0.807137 0.046029 0.867019
O O1 0.118054 0.176919 0.653750
O O2 0.120327 0.091134 0.585910
O O3 0.883794 0.108441 0.629089
O O4 0.948290 0.193559 0.566247
O O5 0.625810 0.885015 0.098362
O O6 0.432811 0.796147 0.103345
O O7 0.704391 0.781959 0.101892
O O8 0.575469 0.820482 0.000000
O O9 0.315660 0.942606 0.700814
O O10 0.225179 0.987052 0.599822
O O11 0.250000 0.250000 0.750000
O O12 0.234781 0.146452 0.752157
O O13 0.000000 0.211129 0.750000
O O14 0.825506 0.572903 0.168825
O O15 0.000000 0.621716 0.250000
O O16 0.301328 0.765655 0.000000
O O17 0.592325 0.464741 0.697520
#
# Coordination Sequence:
#
# PCOD9526754 Si02
#       8
#    16  16  16  16  16  16   4  16
#     4  10  20  34  56  84 110 148 193 235 285 344
#     4   9  20  38  61  86 109 142 188 237 289 346
#     4  11  19  35  59  81 113 151 191 235 288 336
#     4  11  23  37  54  80 118 155 192 232 287 342
#     4  11  23  38  54  83 118 156 195 237 280 340
#     4   9  19  37  59  81 109 141 184 235 288 347
#     4  12  16  32  58  76 106 156 198 224 268 346
#     4  11  20  33  57  81 114 152 197 231 282 343
#
# _framework density 24.545846000000001
#
# number of rings (size 3 to 8) (size 9 to 14) (size 15 to 20)
#    0.000    1.655    4.138    0.414    3.862    1.103 
#    4.966    0.690    0.000    3.310    0.000    1.931 
#    0.000    0.000    0.000    0.000    0.000    0.000 
#
# Total GULP energy -323330.380889 kJ/mol
# GULP energy per Si atom -5574.661739 kJ/mol
# Density = 2.448998 g / cm^3
# Si number density = 24.545846 Si / 1000 Ang^3
#
#
#
# Elastic Constant Matrix: (Units=GPa)
#
#
# Indices 1 2 3 4 5 6 
#
# 1 109.2921 27.4895 4.9246 0.0000 0.0000 0.0000
# 2 27.4895 139.6814 2.0710 0.0001 0.0000 0.0000
# 3 4.9246 2.0710 24.7019 0.0001 0.0000 0.0000
# 4 0.0000 0.0001 0.0001 300.9428 0.0000 0.0000
# 5 0.0000 0.0000 0.0000 0.0000 10.4078 0.0000
# 6 0.0000 0.0000 0.0000 0.0000 0.0000 30.6868
#
#
#
# Elastic Compliance Matrix: (Units=1/GPa)
#
#
# Indices 1 2 3 4 5 6 
#
# 1 0.009704 -0.001883 -0.001777 0.000000 0.000000 0.000000
# 2 -0.001883 0.007534 -0.000256 0.000000 0.000000 0.000000
# 3 -0.001777 -0.000256 0.040858 0.000000 0.000000 0.000000
# 4 0.000000 0.000000 0.000000 0.003323 0.000000 0.000000
# 5 0.000000 0.000000 0.000000 0.000000 0.096081 0.000000
# 6 0.000000 0.000000 0.000000 0.000000 0.000000 0.032587
#
#
# Mechanical properties :
#
#
# Convention : Reuss Voigt Hill
#
# Bulk Modulus (GPa) = 19.89521 38.07173 28.98347
# Shear Modulus (GPa) = 23.29116 84.35352 53.82234
#
# Velocity S-wave (km/s) = 3.08374 5.86859 4.68774
# Velocity P-wave (km/s) = 4.56094 7.83993 6.41353
#
# Compressibility (1/GPa) = 0.05026336
#
# Stress axis : x y z
#
# Youngs Moduli (GPa) = 103.05519 132.73890 24.47477
#
# Poissons Ratio (x) = 0.24999 0.04348
# Poissons Ratio (y) = 0.19409 0.00627
# Poissons Ratio (z) = 0.18309 0.03400
#
# Static dielectric constant tensor:
#      x y z
#    x 1.973000 0.000000 0.000000 
#    y 0.000000 1.972390 0.000000 
#    z 0.000000 0.000000 2.030410 
# 
# From -- ./inp_files/47594.got.cif
#   From: 2010.05.17/outbox.cif.g08.bks.cpg/sg72_24_cif.got.tgz:47594.got - 2010.06.03 17:03:01.
