data_PCOD9526544
_publ_section_title
;
Structure prediction by ZEFSAII (Michael W. Deem and Ramdas Pophale) SiO2 
 PCOD9526544
Probable space group: I B A M
;
_chemical_formula_sum "Si O2"
_cell_formula_units_Z 80
_cell_length_a 22.407565
_cell_length_b 9.208816
_cell_length_c 19.807076
_cell_angle_alpha 90.000000
_cell_angle_beta 90.000000
_cell_angle_gamma 90.000000
_cell_volume 4087.133546
_symmetry_space_group_name_H-M "I B A M"
_symmetry_group_IT_number 72
_symmetry_cell_setting 'orthorhombic'
loop_
_space_group_symop_operation_xyz
x,y,z
-x,-y,z
x,-y,1/2-z
-x,y,1/2-z
-x,-y,-z
x,y,-z
-x,y,1/2+z
x,-y,1/2+z
1/2+x,1/2+y,1/2+z
1/2-x,1/2-y,1/2+z
1/2+x,1/2-y,-z
1/2-x,1/2+y,-z
1/2-x,1/2-y,1/2-z
1/2+x,1/2+y,1/2-z
1/2-x,1/2+y,z
1/2+x,1/2-y,z
loop_
_atom_site_type_symbol
_atom_site_label
_atom_site_fract_x
_atom_site_fract_y
_atom_site_fract_z
Si Si1 0.946977 0.109506 0.076563
Si Si2 0.665564 0.394296 0.924150
Si Si3 0.858224 0.359384 0.674400
Si Si4 0.220352 0.084733 0.316805
Si Si5 0.115026 0.690993 0.821946
O O1 0.934437 0.230906 0.132517
O O2 0.887749 0.010672 0.073755
O O3 0.957807 0.165960 0.000000
O O4 0.000000 0.000000 0.094422
O O5 0.640455 0.252781 0.886616
O O6 0.715635 0.470911 0.878279
O O7 0.685813 0.362167 0.000000
O O8 0.788088 0.367734 0.694646
O O9 0.893873 0.307471 0.740832
O O10 0.877412 0.523142 0.658282
O O11 0.176501 0.218438 0.331814
O O12 0.198575 0.000000 0.250000
#
# Coordination Sequence:
#
# PCOD9526544 Si02
#       5
#    16  16  16  16  16
#     4   9  20  41  63  80 104 146 199 250 299 347
#     4  10  22  36  54  83 115 149 194 241 285 344
#     4  11  20  33  54  85 122 152 183 234 292 347
#     4  11  18  34  59  80 111 161 196 221 272 345
#     4  10  20  32  57  88 109 147 200 234 281 354
#
# _framework density 19.573620999999999
#
# number of rings (size 3 to 8) (size 9 to 14) (size 15 to 20)
#    0.000    1.800    4.000    1.800    0.000    1.600 
#    0.000    7.000    0.000    6.000    0.000    0.000 
#    0.000    0.000    0.000    0.000    0.000    0.000 
#
# Total GULP energy -223246.697657 kJ/mol
# GULP energy per Si atom -5581.167441 kJ/mol
# Density = 1.952907 g / cm^3
# Si number density = 19.573621 Si / 1000 Ang^3
#
#
#
# Elastic Constant Matrix: (Units=GPa)
#
#
# Indices 1 2 3 4 5 6 
#
# 1 36.9952 4.2601 18.4795 0.0000 0.0000 0.0000
# 2 4.2601 110.8302 85.4290 0.0000 0.0000 0.0000
# 3 18.4795 85.4290 157.1521 0.0000 0.0000 0.0000
# 4 0.0000 0.0000 0.0000 19.2891 0.0000 0.0000
# 5 0.0000 0.0000 0.0000 0.0000 21.0905 0.0000
# 6 0.0000 0.0000 0.0000 0.0000 0.0000 15.6627
#
#
#
# Elastic Compliance Matrix: (Units=1/GPa)
#
#
# Indices 1 2 3 4 5 6 
#
# 1 0.029152 0.002619 -0.004852 0.000000 0.000000 0.000000
# 2 0.002619 0.015766 -0.008878 0.000000 0.000000 0.000000
# 3 -0.004852 -0.008878 0.011760 0.000000 0.000000 0.000000
# 4 0.000000 0.000000 0.000000 0.051843 0.000000 0.000000
# 5 0.000000 0.000000 0.000000 0.000000 0.047415 0.000000
# 6 0.000000 0.000000 0.000000 0.000000 0.000000 0.063846
#
#
# Mechanical properties :
#
#
# Convention : Reuss Voigt Hill
#
# Bulk Modulus (GPa) = 29.02216 57.92386 43.47301
# Shear Modulus (GPa) = 19.72473 24.32906 22.02690
#
# Velocity S-wave (km/s) = 3.17790 3.52938 3.35824
# Velocity P-wave (km/s) = 5.32211 6.80189 6.10698
#
# Compressibility (1/GPa) = 0.03445643
#
# Stress axis : x y z
#
# Youngs Moduli (GPa) = 34.30240 63.42915 85.03322
#
# Poissons Ratio (x) = -0.16614 0.41258
# Poissons Ratio (y) = -0.08985 0.75495
# Poissons Ratio (z) = 0.16643 0.56314
#
# Static dielectric constant tensor:
#      x y z
#    x 1.683590 0.000000 0.000000 
#    y 0.000000 1.695940 0.000000 
#    z 0.000000 0.000000 1.724170 
# 
# From -- ./inp_files/28300.got.cif
#   From: 2010.05.17/outbox.cif.g08.bks.cpg/sg72_15_cif.got.tgz:28300.got - 2010.06.03 17:03:01.
