data_PCOD9526575
_publ_section_title
;
Structure prediction by ZEFSAII (Michael W. Deem and Ramdas Pophale) SiO2 
 PCOD9526575
Probable space group: I B A M
;
_chemical_formula_sum "Si O2"
_cell_formula_units_Z 80
_cell_length_a 18.275770
_cell_length_b 27.291012
_cell_length_c 8.857694
_cell_angle_alpha 90.000000
_cell_angle_beta 90.000000
_cell_angle_gamma 90.000000
_cell_volume 4417.901179
_symmetry_space_group_name_H-M "I B A M"
_symmetry_group_IT_number 72
_symmetry_cell_setting 'orthorhombic'
loop_
_space_group_symop_operation_xyz
x,y,z
-x,-y,z
x,-y,1/2-z
-x,y,1/2-z
-x,-y,-z
x,y,-z
-x,y,1/2+z
x,-y,1/2+z
1/2+x,1/2+y,1/2+z
1/2-x,1/2-y,1/2+z
1/2+x,1/2-y,-z
1/2-x,1/2+y,-z
1/2-x,1/2-y,1/2-z
1/2+x,1/2+y,1/2-z
1/2-x,1/2+y,z
1/2+x,1/2-y,z
loop_
_atom_site_type_symbol
_atom_site_label
_atom_site_fract_x
_atom_site_fract_y
_atom_site_fract_z
Si Si1 0.868804 0.191631 0.821511
Si Si2 0.922802 0.290855 0.680304
Si Si3 0.282383 0.157108 0.181172
Si Si4 0.076977 0.918798 0.822605
Si Si5 0.771795 0.049244 0.679109
O O1 0.908109 0.235117 0.733556
O O2 0.787597 0.184037 0.754572
O O3 0.910070 0.139772 0.804056
O O4 0.864965 0.203122 0.000000
O O5 0.924141 0.293620 0.500000
O O6 0.856076 0.322057 0.747977
O O7 0.000000 0.306870 0.750000
O O8 0.271378 0.099335 0.213758
O O9 0.281327 0.164096 0.000000
O O10 0.146686 0.943316 0.744420
O O11 0.000000 0.932792 0.750000
O O12 0.077389 0.929940 0.000000
O O13 0.776013 0.044237 0.500000
O O14 0.739706 0.000000 0.750000
#
# Coordination Sequence:
#
# PCOD9526575 Si02
#       5
#    16  16  16  16  16
#     4  10  20  35  55  80 111 148 185 220 259 310
#     4  12  24  37  55  80 111 145 180 221 266 316
#     4  10  21  38  58  81 109 142 179 220 265 316
#     4  10  20  33  51  76 109 145 182 221 263 310
#     4  10  21  37  58  80 104 135 175 221 269 320
#
# _framework density 18.108146999999999
#
# number of rings (size 3 to 8) (size 9 to 14) (size 15 to 20)
#    0.000    1.600    0.000    5.400    0.000    6.800 
#    0.000    2.000    0.000    0.600    0.000    4.200 
#    0.000    0.000    0.000    0.000    0.000    0.000 
#
# Total GULP energy -223667.112585 kJ/mol
# GULP energy per Si atom -5591.677815 kJ/mol
# Density = 1.806693 g / cm^3
# Si number density = 18.108147 Si / 1000 Ang^3
#
#
#
# Elastic Constant Matrix: (Units=GPa)
#
#
# Indices 1 2 3 4 5 6 
#
# 1 70.1136 4.8489 24.1346 0.0000 0.0000 0.0000
# 2 4.8489 51.2508 26.2648 0.0000 0.0000 0.0000
# 3 24.1346 26.2648 87.0674 0.0000 0.0000 0.0000
# 4 0.0000 0.0000 0.0000 29.9719 0.0000 0.0000
# 5 0.0000 0.0000 0.0000 0.0000 29.0374 0.0000
# 6 0.0000 0.0000 0.0000 0.0000 0.0000 -0.0104
#
#
#
# Elastic Compliance Matrix: (Units=1/GPa)
#
#
# Indices 1 2 3 4 5 6 
#
# 1 0.015801 0.000887 -0.004647 0.000000 0.000000 -0.000005
# 2 0.000887 0.023130 -0.007223 0.000000 0.000000 -0.000004
# 3 -0.004647 -0.007223 0.014953 0.000000 0.000000 0.000004
# 4 0.000000 0.000000 0.000000 0.033365 0.000000 -0.000002
# 5 0.000000 0.000000 0.000000 0.000000 0.034438 -0.000005
# 6 -0.000005 -0.000004 0.000004 -0.000002 -0.000005-96.524604
#
#
# Mechanical properties :
#
#
# Convention : Reuss Voigt Hill
#
# Bulk Modulus (GPa) = 31.33265 35.43649 33.38457
# Shear Modulus (GPa) = -0.05188 22.01202 10.98007
#
# Velocity S-wave (km/s) = -0.16945 3.49031 2.46511
# Velocity P-wave (km/s) = 4.15961 5.98789 5.15544
#
# Compressibility (1/GPa) = 0.03191559
#
# Stress axis : x y z
#
# Youngs Moduli (GPa) = 63.28714 43.23455 66.87836
#
# Poissons Ratio (x) = -0.03834 0.31081
# Poissons Ratio (y) = -0.05612 0.48307
# Poissons Ratio (z) = 0.29412 0.31229
#
# Static dielectric constant tensor:
#      x y z
#    x 1.588260 0.000000 0.000000 
#    y 0.000000 1.643440 0.000000 
#    z 0.000000 0.000000 1.597990 
# 
# From -- ./inp_files/4750.got.cif
#   From: 2010.05.17/outbox.cif.g08.bks.cpg/sg72_3_cif.got.tgz:4750.got - 2010.06.03 17:03:01.
