data_PCOD9526459
_publ_section_title
;
Structure prediction by ZEFSAII (Michael W. Deem and Ramdas Pophale) SiO2 
 PCOD9526459
Probable space group: I B A M
;
_chemical_formula_sum "Si O2"
_cell_formula_units_Z 104
_cell_length_a 15.152470
_cell_length_b 15.071081
_cell_length_c 21.482031
_cell_angle_alpha 90.000000
_cell_angle_beta 90.000000
_cell_angle_gamma 90.000000
_cell_volume 4905.724734
_symmetry_space_group_name_H-M "I B A M"
_symmetry_group_IT_number 72
_symmetry_cell_setting 'orthorhombic'
loop_
_space_group_symop_operation_xyz
x,y,z
-x,-y,z
x,-y,1/2-z
-x,y,1/2-z
-x,-y,-z
x,y,-z
-x,y,1/2+z
x,-y,1/2+z
1/2+x,1/2+y,1/2+z
1/2-x,1/2-y,1/2+z
1/2+x,1/2-y,-z
1/2-x,1/2+y,-z
1/2-x,1/2-y,1/2-z
1/2+x,1/2+y,1/2-z
1/2-x,1/2+y,z
1/2+x,1/2-y,z
loop_
_atom_site_type_symbol
_atom_site_label
_atom_site_fract_x
_atom_site_fract_y
_atom_site_fract_z
Si Si1 0.165197 0.593468 0.000000
Si Si2 0.001144 0.775217 0.356777
Si Si3 0.039103 0.745261 0.000000
Si Si4 0.603387 0.907875 0.500000
Si Si5 0.804899 0.737171 0.686631
Si Si6 0.777041 0.544656 0.363137
Si Si7 0.416305 0.455449 0.681371
Si Si8 0.158036 0.641481 0.367618
O O1 0.133670 0.695568 0.000000
O O2 0.092500 0.513663 0.000000
O O3 0.212967 0.572183 0.935363
O O4 0.981474 0.788998 0.431921
O O5 0.906299 0.767694 0.322632
O O6 0.058626 0.852359 0.324187
O O7 0.065248 0.689133 0.351497
O O8 0.978424 0.657670 0.000000
O O9 0.656781 0.881086 0.560184
O O10 0.750000 0.750000 0.750000
O O11 0.805023 0.632752 0.673114
O O12 0.740743 0.794177 0.642560
O O13 0.675111 0.526262 0.350843
O O14 0.828640 0.457091 0.340146
O O15 0.500000 0.500000 0.648929
O O16 0.410256 0.500000 0.750000
#
# Coordination Sequence:
#
# PCOD9526459 Si02
#       8
#     8  16   8   8  16  16  16  16
#     4  10  19  40  68 104 147 179 230 295 373 444
#     4  11  24  45  70 112 138 193 237 308 367 440
#     4  10  19  38  69 105 147 179 231 297 371 438
#     4   8  19  36  65  99 142 189 225 278 366 442
#     4  12  27  42  69 100 144 186 250 298 366 442
#     4  11  24  44  71 109 138 197 237 304 375 435
#     4  11  26  45  72  95 142 196 252 290 361 438
#     4  10  23  42  68 102 145 180 244 296 360 441
#
# _framework density 21.199722000000001
#
# number of rings (size 3 to 8) (size 9 to 14) (size 15 to 20)
#    0.000    1.385    3.077    1.154    6.462    3.077 
#    0.000    3.077    0.000    1.846    0.000    0.000 
#    0.000    0.000    0.000    0.000    0.000    0.000 
#
# Total GULP energy -289795.484393 kJ/mol
# GULP energy per Si atom -5572.990084 kJ/mol
# Density = 2.115147 g / cm^3
# Si number density = 21.199722 Si / 1000 Ang^3
#
#
#
# Elastic Constant Matrix: (Units=GPa)
#
#
# Indices 1 2 3 4 5 6 
#
# 1 99.1093 23.9863 56.0779 0.0000 0.0000 0.0000
# 2 23.9863 116.6012 54.4557 0.0000 0.0000 0.0000
# 3 56.0779 54.4557 89.1268 0.0000 0.0000 0.0000
# 4 0.0000 0.0000 0.0000 21.6955 0.0000 0.0000
# 5 0.0000 0.0000 0.0000 0.0000 43.2002 0.0000
# 6 0.0000 0.0000 0.0000 0.0000 0.0000 39.1484
#
#
#
# Elastic Compliance Matrix: (Units=1/GPa)
#
#
# Indices 1 2 3 4 5 6 
#
# 1 0.015985 0.001971 -0.011262 0.000000 0.000000 0.000000
# 2 0.001971 0.012244 -0.008721 0.000000 0.000000 0.000000
# 3 -0.011262 -0.008721 0.023635 0.000000 0.000000 0.000000
# 4 0.000000 0.000000 0.000000 0.046092 0.000000 0.000000
# 5 0.000000 0.000000 0.000000 0.000000 0.023148 0.000000
# 6 0.000000 0.000000 0.000000 0.000000 0.000000 0.025544
#
#
# Mechanical properties :
#
#
# Convention : Reuss Voigt Hill
#
# Bulk Modulus (GPa) = 63.13347 63.76411 63.44879
# Shear Modulus (GPa) = 26.60256 32.16332 29.38294
#
# Velocity S-wave (km/s) = 3.54624 3.89930 3.72695
# Velocity P-wave (km/s) = 6.82735 7.10041 6.96522
#
# Compressibility (1/GPa) = 0.01583946
#
# Stress axis : x y z
#
# Youngs Moduli (GPa) = 62.55797 81.67453 42.31066
#
# Poissons Ratio (x) = -0.16101 0.47651
# Poissons Ratio (y) = -0.12333 0.36900
# Poissons Ratio (z) = 0.70455 0.71230
#
# Static dielectric constant tensor:
#      x y z
#    x 1.564710 0.000000 0.000000 
#    y 0.000000 1.855060 0.000000 
#    z 0.000000 0.000000 1.850300 
# 
# From -- ./inp_files/39104.got.cif
#   From: 2010.05.17/outbox.cif.g08.bks.cpg/sg72_20_cif.got.tgz:39104.got - 2010.06.03 17:03:01.
