data_PCOD9526555
_publ_section_title
;
Structure prediction by ZEFSAII (Michael W. Deem and Ramdas Pophale) SiO2 
 PCOD9526555
Probable space group: I B A M
;
_chemical_formula_sum "Si O2"
_cell_formula_units_Z 64
_cell_length_a 7.506329
_cell_length_b 27.949081
_cell_length_c 13.914274
_cell_angle_alpha 90.000000
_cell_angle_beta 90.000000
_cell_angle_gamma 90.000000
_cell_volume 2919.145075
_symmetry_space_group_name_H-M "I B A M"
_symmetry_group_IT_number 72
_symmetry_cell_setting 'orthorhombic'
loop_
_space_group_symop_operation_xyz
x,y,z
-x,-y,z
x,-y,1/2-z
-x,y,1/2-z
-x,-y,-z
x,y,-z
-x,y,1/2+z
x,-y,1/2+z
1/2+x,1/2+y,1/2+z
1/2-x,1/2-y,1/2+z
1/2+x,1/2-y,-z
1/2-x,1/2+y,-z
1/2-x,1/2-y,1/2-z
1/2+x,1/2+y,1/2-z
1/2-x,1/2+y,z
1/2+x,1/2-y,z
loop_
_atom_site_type_symbol
_atom_site_label
_atom_site_fract_x
_atom_site_fract_y
_atom_site_fract_z
Si Si1 0.283134 0.918975 0.756038
Si Si2 0.230735 0.186311 0.302754
Si Si3 0.090944 0.724627 0.112256
Si Si4 0.783669 0.493985 0.892885
O O1 0.500000 0.911940 0.750000
O O2 0.200504 0.869720 0.791720
O O3 0.237467 0.943009 0.654067
O O4 0.229143 0.961168 0.828622
O O5 0.086040 0.219806 0.354270
O O6 0.405216 0.198009 0.367457
O O7 0.281426 0.203001 0.194656
O O8 0.140707 0.720725 0.000000
O O9 0.000000 0.500000 0.892541
O O10 0.718084 0.497596 0.000000
#
# Coordination Sequence:
#
# PCOD9526555 Si02
#       4
#    16  16  16  16
#     4   9  15  28  41  63  96 127 155 196 241 291
#     4  10  20  34  49  71 101 133 167 206 245 292
#     4  10  20  33  49  69  95 131 172 208 246 291
#     4   8  15  24  40  64  92 122 156 192 241 298
#
# _framework density 21.924227999999999
#
# number of rings (size 3 to 8) (size 9 to 14) (size 15 to 20)
#    0.000    2.750    2.500    2.250    0.000    3.000 
#    0.000    0.000    0.000    0.000    0.000    0.000 
#    0.000   72.000    0.000  133.500    0.000    0.000 
#
# Total GULP energy -178444.492942 kJ/mol
# GULP energy per Si atom -5576.390404 kJ/mol
# Density = 2.187433 g / cm^3
# Si number density = 21.924228 Si / 1000 Ang^3
#
#
#
# Elastic Constant Matrix: (Units=GPa)
#
#
# Indices 1 2 3 4 5 6 
#
# 1 34.2328 -10.3284 -9.0725 0.0000 0.0000 0.0000
# 2 -10.3284 160.3372 32.8541 0.0000 0.0000 0.0000
# 3 -9.0725 32.8541 160.0011 0.0000 0.0000 0.0000
# 4 0.0000 0.0000 0.0000 8.4330 0.0000 0.0000
# 5 0.0000 0.0000 0.0000 0.0000 4.9317 0.0000
# 6 0.0000 0.0000 0.0000 0.0000 0.0000 6.3395
#
#
#
# Elastic Compliance Matrix: (Units=1/GPa)
#
#
# Indices 1 2 3 4 5 6 
#
# 1 0.030074 0.001658 0.001365 0.000000 0.000000 0.000000
# 2 0.001658 0.006602 -0.001262 0.000000 0.000000 0.000000
# 3 0.001365 -0.001262 0.006586 0.000000 0.000000 0.000000
# 4 0.000000 0.000000 0.000000 0.118582 0.000000 0.000000
# 5 0.000000 0.000000 0.000000 0.000000 0.202771 0.000000
# 6 0.000000 0.000000 0.000000 0.000000 0.000000 0.157740
#
#
# Mechanical properties :
#
#
# Convention : Reuss Voigt Hill
#
# Bulk Modulus (GPa) = 21.37497 42.38639 31.88068
# Shear Modulus (GPa) = 9.35579 26.68204 18.01891
#
# Velocity S-wave (km/s) = 2.06799 3.49235 2.86994
# Velocity P-wave (km/s) = 3.93354 5.96969 5.05519
#
# Compressibility (1/GPa) = 0.04678370
#
# Stress axis : x y z
#
# Youngs Moduli (GPa) = 33.25180 151.46569 151.82759
#
# Poissons Ratio (x) = -0.25106 -0.20723
# Poissons Ratio (y) = -0.05512 0.19156
# Poissons Ratio (z) = -0.04539 0.19110
#
# Static dielectric constant tensor:
#      x y z
#    x 1.796050 0.000000 0.000000 
#    y 0.000000 1.800520 0.000000 
#    z 0.000000 0.000000 1.762940 
# 
# From -- ./inp_files/18973.got.cif
#   From: 2010.05.17/outbox.cif.g08.bks.cpg/sg72_10_cif.got.tgz:18973.got - 2010.06.03 17:03:01.
