data_PCOD9526590
_publ_section_title
;
Structure prediction by ZEFSAII (Michael W. Deem and Ramdas Pophale) SiO2 
 PCOD9526590
Probable space group: I B A M
;
_chemical_formula_sum "Si O2"
_cell_formula_units_Z 104
_cell_length_a 22.143300
_cell_length_b 23.639773
_cell_length_c 9.626065
_cell_angle_alpha 90.000000
_cell_angle_beta 90.000000
_cell_angle_gamma 90.000000
_cell_volume 5038.884873
_symmetry_space_group_name_H-M "I B A M"
_symmetry_group_IT_number 72
_symmetry_cell_setting 'orthorhombic'
loop_
_space_group_symop_operation_xyz
x,y,z
-x,-y,z
x,-y,1/2-z
-x,y,1/2-z
-x,-y,-z
x,y,-z
-x,y,1/2+z
x,-y,1/2+z
1/2+x,1/2+y,1/2+z
1/2-x,1/2-y,1/2+z
1/2+x,1/2-y,-z
1/2-x,1/2+y,-z
1/2-x,1/2-y,1/2-z
1/2+x,1/2+y,1/2-z
1/2-x,1/2+y,z
1/2+x,1/2-y,z
loop_
_atom_site_type_symbol
_atom_site_label
_atom_site_fract_x
_atom_site_fract_y
_atom_site_fract_z
Si Si1 0.940493 0.895139 0.842382
Si Si2 0.057725 0.673280 0.836999
Si Si3 0.652575 0.433950 0.643973
Si Si4 0.739131 0.000000 0.750000
Si Si5 0.183581 0.383883 0.658017
Si Si6 0.378912 0.729196 0.161470
Si Si7 0.276362 0.683428 0.341760
O O1 0.890155 0.936233 0.776627
O O2 0.912159 0.831736 0.840324
O O3 0.000000 0.896071 0.750000
O O4 0.953704 0.910074 0.000000
O O5 0.112851 0.629065 0.832607
O O6 0.082467 0.728738 0.757346
O O7 0.000000 0.653571 0.750000
O O8 0.044057 0.684919 0.000000
O O9 0.618558 0.443490 0.500000
O O10 0.712503 0.471433 0.647810
O O11 0.678462 0.370249 0.644381
O O12 0.700483 0.051137 0.688051
O O13 0.203661 0.369914 0.500000
O O14 0.218473 0.344471 0.767943
O O15 0.313408 0.722999 0.235308
O O16 0.374361 0.747697 0.000000
O O17 0.267281 0.705023 0.500000
#
# Coordination Sequence:
#
# PCOD9526590 Si02
#       7
#    16  16  16   8  16  16  16
#     4  10  20  33  52  79 113 153 193 231 270 319
#     4  11  24  41  60  84 117 155 194 238 287 344
#     4   9  18  32  53  81 111 142 180 229 280 333
#     4  10  20  38  66  88 106 136 182 234 296 356
#     4  10  22  40  62  88 117 149 189 239 293 349
#     4  10  20  35  58  86 119 160 199 236 280 332
#     4   9  18  33  56  88 121 153 191 234 282 337
#
# _framework density 20.639486999999999
#
# number of rings (size 3 to 8) (size 9 to 14) (size 15 to 20)
#    0.000    2.154    0.000    2.769    0.000    9.846 
#    0.000    0.769    0.000    3.692    0.000    0.000 
#    0.000    0.000    0.000    0.000    0.000    0.000 
#
# Total GULP energy -290266.273638 kJ/mol
# GULP energy per Si atom -5582.043724 kJ/mol
# Density = 2.059251 g / cm^3
# Si number density = 20.639487 Si / 1000 Ang^3
#
#
#
# Elastic Constant Matrix: (Units=GPa)
#
#
# Indices 1 2 3 4 5 6 
#
# 1 102.8627 19.4443 79.1748 0.0000 0.0000 0.0000
# 2 19.4443 76.1855 40.3778 0.0000 0.0000 0.0000
# 3 79.1748 40.3778 210.8481 0.0000 0.0000 0.0000
# 4 0.0000 0.0000 0.0000 50.1871 0.0000 0.0000
# 5 0.0000 0.0000 0.0000 0.0000 30.4698 0.0000
# 6 0.0000 0.0000 0.0000 0.0000 0.0000 20.2992
#
#
#
# Elastic Compliance Matrix: (Units=1/GPa)
#
#
# Indices 1 2 3 4 5 6 
#
# 1 0.013724 -0.000859 -0.004989 0.000000 0.000000 0.000000
# 2 -0.000859 0.014662 -0.002485 0.000000 0.000000 0.000000
# 3 -0.004989 -0.002485 0.007092 0.000000 0.000000 0.000000
# 4 0.000000 0.000000 0.000000 0.019925 0.000000 0.000000
# 5 0.000000 0.000000 0.000000 0.000000 0.032819 0.000000
# 6 0.000000 0.000000 0.000000 0.000000 0.000000 0.049263
#
#
# Mechanical properties :
#
#
# Convention : Reuss Voigt Hill
#
# Bulk Modulus (GPa) = 53.15649 74.21002 63.68326
# Shear Modulus (GPa) = 31.16753 36.91785 34.04269
#
# Velocity S-wave (km/s) = 3.89021 4.23389 4.06568
# Velocity P-wave (km/s) = 6.78151 7.74174 7.27748
#
# Compressibility (1/GPa) = 0.01881238
#
# Stress axis : x y z
#
# Youngs Moduli (GPa) = 72.86423 68.20237 141.00077
#
# Poissons Ratio (x) = 0.05855 0.70347
# Poissons Ratio (y) = 0.06256 0.35045
# Poissons Ratio (z) = 0.36353 0.16951
#
# Static dielectric constant tensor:
#      x y z
#    x 1.721180 0.000000 0.000000 
#    y 0.000000 1.764470 0.000000 
#    z 0.000000 0.000000 1.758060 
# 
# From -- ./inp_files/6211.got.cif
#   From: 2010.05.17/outbox.cif.g08.bks.cpg/sg72_4_cif.got.tgz:6211.got - 2010.06.03 17:03:01.
