data_PCOD9526153
_publ_section_title
;
Structure prediction by ZEFSAII (Michael W. Deem and Ramdas Pophale) SiO2 
 PCOD9526153
Probable space group: I B A M
;
_chemical_formula_sum "Si O2"
_cell_formula_units_Z 116
_cell_length_a 21.378672
_cell_length_b 30.720196
_cell_length_c 9.549054
_cell_angle_alpha 90.000000
_cell_angle_beta 90.000000
_cell_angle_gamma 90.000000
_cell_volume 6271.408001
_symmetry_space_group_name_H-M "I B A M"
_symmetry_group_IT_number 72
_symmetry_cell_setting 'orthorhombic'
loop_
_space_group_symop_operation_xyz
x,y,z
-x,-y,z
x,-y,1/2-z
-x,y,1/2-z
-x,-y,-z
x,y,-z
-x,y,1/2+z
x,-y,1/2+z
1/2+x,1/2+y,1/2+z
1/2-x,1/2-y,1/2+z
1/2+x,1/2-y,-z
1/2-x,1/2+y,-z
1/2-x,1/2-y,1/2-z
1/2+x,1/2+y,1/2-z
1/2-x,1/2+y,z
1/2+x,1/2-y,z
loop_
_atom_site_type_symbol
_atom_site_label
_atom_site_fract_x
_atom_site_fract_y
_atom_site_fract_z
Si Si1 0.060182 0.859752 0.334329
Si Si2 0.109461 0.067115 0.659046
Si Si3 0.264505 0.709890 0.346041
Si Si4 0.177174 0.630651 0.669073
Si Si5 0.589232 0.720448 0.843918
Si Si6 0.000000 0.000000 0.250000
Si Si7 0.935023 0.676512 0.332011
Si Si8 0.246010 0.458575 0.836876
O O1 0.055951 0.862845 0.500000
O O2 0.109531 0.893672 0.271008
O O3 0.066557 0.810291 0.280951
O O4 0.000000 0.876083 0.250000
O O5 0.104833 0.084884 0.500000
O O6 0.178482 0.046530 0.674229
O O7 0.051271 0.032903 0.677434
O O8 0.239279 0.720219 0.500000
O O9 0.250000 0.750000 0.250000
O O10 0.231324 0.665960 0.301368
O O11 0.338559 0.707115 0.353335
O O12 0.164297 0.631240 0.500000
O O13 0.117731 0.646902 0.757859
O O14 0.207351 0.584296 0.705701
O O15 0.582190 0.771872 0.816659
O O16 0.561240 0.711323 0.000000
O O17 0.939441 0.668451 0.500000
O O18 0.000000 0.669817 0.250000
O O19 0.225982 0.500000 0.750000
O O20 0.233073 0.465399 0.000000
#
# Coordination Sequence:
#
# PCOD9526153 Si02
#       8
#    16  16  16  16  16   4  16  16
#     4  12  25  38  55  79 110 152 202 249 300 354
#     4  11  23  40  61  86 121 158 204 256 307 358
#     4  10  19  34  57  85 119 156 195 240 287 345
#     4  10  21  38  62  89 124 164 203 249 309 365
#     4  10  21  38  58  83 119 158 199 245 297 351
#     4  12  22  36  68  90 118 164 212 256 306 356
#     4  11  23  39  62  90 122 159 202 249 303 368
#     4  10  22  41  64  91 122 159 199 251 309 365
#
# _framework density 18.496645000000001
#
# number of rings (size 3 to 8) (size 9 to 14) (size 15 to 20)
#    0.000    1.379    2.759    3.103    0.000    6.621 
#    0.000    1.379    0.000    0.414    0.000    2.897 
#    0.000    0.000    0.000    0.000    0.000    0.000 
#
# Total GULP energy -323316.025181 kJ/mol
# GULP energy per Si atom -5574.414227 kJ/mol
# Density = 1.845455 g / cm^3
# Si number density = 18.496645 Si / 1000 Ang^3
#
#
#
# Elastic Constant Matrix: (Units=GPa)
#
#
# Indices 1 2 3 4 5 6 
#
# 1 104.6190 56.1220 52.3217 0.0000 0.0000 0.0000
# 2 56.1220 145.7037 87.2487 0.0000 0.0000 0.0000
# 3 52.3217 87.2487 124.6686 0.0000 0.0000 0.0000
# 4 0.0000 0.0000 0.0000 32.5103 0.0000 0.0000
# 5 0.0000 0.0000 0.0000 0.0000 25.9414 0.0000
# 6 0.0000 0.0000 0.0000 0.0000 0.0000 25.8944
#
#
#
# Elastic Compliance Matrix: (Units=1/GPa)
#
#
# Indices 1 2 3 4 5 6 
#
# 1 0.012793 -0.002948 -0.003306 0.000000 0.000000 0.000000
# 2 -0.002948 0.012494 -0.007506 0.000000 0.000000 0.000000
# 3 -0.003306 -0.007506 0.014662 0.000000 0.000000 0.000000
# 4 0.000000 0.000000 0.000000 0.030759 0.000000 0.000000
# 5 0.000000 0.000000 0.000000 0.000000 0.038548 0.000000
# 6 0.000000 0.000000 0.000000 0.000000 0.000000 0.038618
#
#
# Mechanical properties :
#
#
# Convention : Reuss Voigt Hill
#
# Bulk Modulus (GPa) = 80.46229 85.15292 82.80760
# Shear Modulus (GPa) = 27.84911 28.82248 28.33580
#
# Velocity S-wave (km/s) = 3.88446 3.95176 3.91825
# Velocity P-wave (km/s) = 7.98211 8.18283 8.08309
#
# Compressibility (1/GPa) = 0.01242818
#
# Stress axis : x y z
#
# Youngs Moduli (GPa) = 78.16564 80.04068 68.20340
#
# Poissons Ratio (x) = 0.23597 0.22548
# Poissons Ratio (y) = 0.23044 0.51196
# Poissons Ratio (z) = 0.25842 0.60081
#
# Static dielectric constant tensor:
#      x y z
#    x 1.710470 0.000000 0.000000 
#    y 0.000000 1.628240 0.000000 
#    z 0.000000 0.000000 1.664060 
# 
# From -- ./inp_files/7529.got.cif
#   From: 2010.05.17/outbox.cif.g08.bks.cpg/sg72_4_cif.got.tgz:7529.got - 2010.06.03 17:03:01.
