data_PCOD9526935
_publ_section_title
;
Structure prediction by ZEFSAII (Michael W. Deem and Ramdas Pophale) SiO2 
 PCOD9526935
Probable space group: I B A M
;
_chemical_formula_sum "Si O2"
_cell_formula_units_Z 80
_cell_length_a 20.419980
_cell_length_b 9.914269
_cell_length_c 23.344632
_cell_angle_alpha 90.000000
_cell_angle_beta 90.000000
_cell_angle_gamma 90.000000
_cell_volume 4726.101482
_symmetry_space_group_name_H-M "I B A M"
_symmetry_group_IT_number 72
_symmetry_cell_setting 'orthorhombic'
loop_
_space_group_symop_operation_xyz
x,y,z
-x,-y,z
x,-y,1/2-z
-x,y,1/2-z
-x,-y,-z
x,y,-z
-x,y,1/2+z
x,-y,1/2+z
1/2+x,1/2+y,1/2+z
1/2-x,1/2-y,1/2+z
1/2+x,1/2-y,-z
1/2-x,1/2+y,-z
1/2-x,1/2-y,1/2-z
1/2+x,1/2+y,1/2-z
1/2-x,1/2+y,z
1/2+x,1/2-y,z
loop_
_atom_site_type_symbol
_atom_site_label
_atom_site_fract_x
_atom_site_fract_y
_atom_site_fract_z
Si Si1 0.302513 0.643275 0.268956
Si Si2 0.000023 0.658788 0.120791
Si Si3 0.898331 0.959461 0.500000
Si Si4 0.528879 0.727019 0.500000
Si Si5 0.886874 0.880611 0.626988
Si Si6 0.440198 0.366975 0.297079
O O1 0.274963 0.500000 0.250000
O O2 0.250000 0.750000 0.250000
O O3 0.322917 0.645129 0.335185
O O4 0.372719 0.653225 0.236905
O O5 0.067540 0.746492 0.125857
O O6 0.000000 0.500000 0.132969
O O7 0.974409 0.684263 0.056633
O O8 0.953655 0.738573 0.164102
O O9 0.869549 0.922457 0.562121
O O10 0.965345 0.871122 0.500000
O O11 0.912972 0.118731 0.500000
O O12 0.926765 0.003713 0.659874
O O13 0.500000 0.371784 0.250000
#
# Coordination Sequence:
#
# PCOD9526935 Si02
#       6
#    16  16   8   8  16  16
#     4  10  23  38  58  79 112 153 184 232 287 343
#     4  11  21  30  48  84 119 150 175 235 294 334
#     4   9  16  30  58  81  97 146 196 240 260 330
#     4   9  17  30  48  77 121 142 182 228 289 339
#     4  10  20  35  59  81 110 148 195 232 275 343
#     4  11  21  35  59  82 112 151 196 235 278 342
#
# _framework density 16.927271000000001
#
# number of rings (size 3 to 8) (size 9 to 14) (size 15 to 20)
#    0.000    1.800    4.000    0.900    5.600    2.000 
#    0.000    0.000    0.000    6.000    0.000    0.000 
#    0.000    0.000    0.000    0.000    0.000    0.000 
#
# Total GULP energy -222693.083941 kJ/mol
# GULP energy per Si atom -5567.327099 kJ/mol
# Density = 1.688874 g / cm^3
# Si number density = 16.927271 Si / 1000 Ang^3
#
#
#
# Elastic Constant Matrix: (Units=GPa)
#
#
# Indices 1 2 3 4 5 6 
#
# 1 65.6045 47.0724 41.9314 0.0000 0.0000 0.0000
# 2 47.0724 161.3867 63.9284 0.0000 0.0000 0.0000
# 3 41.9314 63.9284 154.4138 0.0000 0.0000 0.0000
# 4 0.0000 0.0000 0.0000 21.8982 0.0000 0.0000
# 5 0.0000 0.0000 0.0000 0.0000 1.6953 0.0000
# 6 0.0000 0.0000 0.0000 0.0000 0.0000 23.5405
#
#
#
# Elastic Compliance Matrix: (Units=1/GPa)
#
#
# Indices 1 2 3 4 5 6 
#
# 1 0.020976 -0.004619 -0.003784 0.000000 0.000000 0.000000
# 2 -0.004619 0.008429 -0.002235 0.000000 0.000000 0.000000
# 3 -0.003784 -0.002235 0.008429 0.000000 0.000000 0.000000
# 4 0.000000 0.000000 0.000000 0.045666 0.000000 0.000000
# 5 0.000000 0.000000 0.000000 0.000000 0.589879 0.000000
# 6 0.000000 0.000000 0.000000 0.000000 0.000000 0.042480
#
#
# Mechanical properties :
#
#
# Convention : Reuss Voigt Hill
#
# Bulk Modulus (GPa) = 60.39636 76.36327 68.37981
# Shear Modulus (GPa) = 6.73261 24.65833 15.69547
#
# Velocity S-wave (km/s) = 1.99650 3.82084 3.04835
# Velocity P-wave (km/s) = 6.40875 8.04212 7.27144
#
# Compressibility (1/GPa) = 0.01655729
#
# Stress axis : x y z
#
# Youngs Moduli (GPa) = 47.67460 118.63690 118.63851
#
# Poissons Ratio (x) = 0.54802 0.44887
# Poissons Ratio (y) = 0.22022 0.26519
# Poissons Ratio (z) = 0.18038 0.26519
#
# Static dielectric constant tensor:
#      x y z
#    x 1.577310 0.000000 0.000000 
#    y 0.000000 1.602670 0.000000 
#    z 0.000000 0.000000 1.634040 
# 
# From -- ./inp_files/45187.got.cif
#   From: 2010.05.17/outbox.cif.g08.bks.cpg/sg72_23_cif.got.tgz:45187.got - 2010.06.03 17:03:01.
