data_PCOD9526758
_publ_section_title
;
Structure prediction by ZEFSAII (Michael W. Deem and Ramdas Pophale) SiO2 
 PCOD9526758
Probable space group: I B A M
;
_chemical_formula_sum "Si O2"
_cell_formula_units_Z 96
_cell_length_a 28.438854
_cell_length_b 8.586181
_cell_length_c 18.977393
_cell_angle_alpha 90.000000
_cell_angle_beta 90.000000
_cell_angle_gamma 90.000000
_cell_volume 4633.921606
_symmetry_space_group_name_H-M "I B A M"
_symmetry_group_IT_number 72
_symmetry_cell_setting 'orthorhombic'
loop_
_space_group_symop_operation_xyz
x,y,z
-x,-y,z
x,-y,1/2-z
-x,y,1/2-z
-x,-y,-z
x,y,-z
-x,y,1/2+z
x,-y,1/2+z
1/2+x,1/2+y,1/2+z
1/2-x,1/2-y,1/2+z
1/2+x,1/2-y,-z
1/2-x,1/2+y,-z
1/2-x,1/2-y,1/2-z
1/2+x,1/2+y,1/2-z
1/2-x,1/2+y,z
1/2+x,1/2-y,z
loop_
_atom_site_type_symbol
_atom_site_label
_atom_site_fract_x
_atom_site_fract_y
_atom_site_fract_z
Si Si1 0.600309 0.827378 0.335293
Si Si2 0.098558 0.308322 0.335294
Si Si3 0.001580 0.820499 0.335626
Si Si4 0.263733 0.886148 0.647787
Si Si5 0.679586 0.384684 0.306045
Si Si6 0.310955 0.172929 0.581498
O O1 0.602762 0.806132 0.250735
O O2 0.550272 0.758333 0.358307
O O3 0.646300 0.758192 0.372590
O O4 0.602767 0.010495 0.353062
O O5 0.138718 0.183497 0.356779
O O6 0.046819 0.258125 0.358789
O O7 0.000000 0.811236 0.250000
O O8 0.000000 0.000000 0.355878
O O9 0.292027 0.780907 0.705225
O O10 0.236630 0.769307 0.596033
O O11 0.222083 0.998984 0.673643
O O12 0.299328 0.999725 0.608450
O O13 0.654629 0.500000 0.250000
O O14 0.323053 0.174736 0.500000
#
# Coordination Sequence:
#
# PCOD9526758 Si02
#       6
#    16  16  16  16  16  16
#     4  10  20  36  55  85 116 150 189 234 294 352
#     4  10  20  34  56  86 118 148 182 230 294 362
#     4   9  19  32  55  84 115 148 184 228 287 356
#     4  10  23  38  54  83 113 155 199 239 294 349
#     4  11  21  34  56  85 123 152 184 238 299 363
#     4  11  22  40  60  81 111 154 205 249 285 337
#
# _framework density 20.716795000000001
#
# number of rings (size 3 to 8) (size 9 to 14) (size 15 to 20)
#    0.000    1.833    1.667    2.500    7.000    3.333 
#    0.000    0.000    0.000    2.500    0.000    0.000 
#    0.000    0.000    0.000    0.000    0.000    0.000 
#
# Total GULP energy -267362.224780 kJ/mol
# GULP energy per Si atom -5570.046350 kJ/mol
# Density = 2.066964 g / cm^3
# Si number density = 20.716795 Si / 1000 Ang^3
#
#
#
# Elastic Constant Matrix: (Units=GPa)
#
#
# Indices 1 2 3 4 5 6 
#
# 1 160.4858 53.4910 16.8701 0.0000 0.0000 0.0000
# 2 53.4910 116.1473 16.9487 0.0000 0.0000 0.0000
# 3 16.8701 16.9487 25.1315 0.0000 0.0000 0.0000
# 4 0.0000 0.0000 0.0000 7.8404 0.0000 0.0000
# 5 0.0000 0.0000 0.0000 0.0000 9.7433 0.0000
# 6 0.0000 0.0000 0.0000 0.0000 0.0000 48.9645
#
#
#
# Elastic Compliance Matrix: (Units=1/GPa)
#
#
# Indices 1 2 3 4 5 6 
#
# 1 0.007563 -0.003042 -0.003026 0.000000 0.000000 0.000000
# 2 -0.003042 0.010773 -0.005223 0.000000 0.000000 0.000000
# 3 -0.003026 -0.005223 0.045344 0.000000 0.000000 0.000000
# 4 0.000000 0.000000 0.000000 0.127544 0.000000 0.000000
# 5 0.000000 0.000000 0.000000 0.000000 0.102634 0.000000
# 6 0.000000 0.000000 0.000000 0.000000 0.000000 0.020423
#
#
# Mechanical properties :
#
#
# Convention : Reuss Voigt Hill
#
# Bulk Modulus (GPa) = 24.33151 52.93159 38.63155
# Shear Modulus (GPa) = 14.26281 27.60664 20.93472
#
# Velocity S-wave (km/s) = 2.62671 3.65440 3.18232
# Velocity P-wave (km/s) = 4.57928 6.58876 5.67369
#
# Compressibility (1/GPa) = 0.04109897
#
# Stress axis : x y z
#
# Youngs Moduli (GPa) = 132.22450 92.82681 22.05344
#
# Poissons Ratio (x) = 0.28234 0.06672
# Poissons Ratio (y) = 0.40217 0.11519
# Poissons Ratio (z) = 0.40005 0.48487
#
# Static dielectric constant tensor:
#      x y z
#    x 1.792580 0.000000 0.000000 
#    y 0.000000 1.776220 0.000000 
#    z 0.000000 0.000000 1.762780 
# 
# From -- ./inp_files/40703.got.cif
#   From: 2010.05.17/outbox.cif.g08.bks.cpg/sg72_21_cif.got.tgz:40703.got - 2010.06.03 17:03:01.
