data_PCOD9526154
_publ_section_title
;
Structure prediction by ZEFSAII (Michael W. Deem and Ramdas Pophale) SiO2 
 PCOD9526154
Probable space group: I B A M
;
_chemical_formula_sum "Si O2"
_cell_formula_units_Z 80
_cell_length_a 25.516621
_cell_length_b 8.762499
_cell_length_c 15.187908
_cell_angle_alpha 90.000000
_cell_angle_beta 90.000000
_cell_angle_gamma 90.000000
_cell_volume 3395.854721
_symmetry_space_group_name_H-M "I B A M"
_symmetry_group_IT_number 72
_symmetry_cell_setting 'orthorhombic'
loop_
_space_group_symop_operation_xyz
x,y,z
-x,-y,z
x,-y,1/2-z
-x,y,1/2-z
-x,-y,-z
x,y,-z
-x,y,1/2+z
x,-y,1/2+z
1/2+x,1/2+y,1/2+z
1/2-x,1/2-y,1/2+z
1/2+x,1/2-y,-z
1/2-x,1/2+y,-z
1/2-x,1/2-y,1/2-z
1/2+x,1/2+y,1/2-z
1/2-x,1/2+y,z
1/2+x,1/2-y,z
loop_
_atom_site_type_symbol
_atom_site_label
_atom_site_fract_x
_atom_site_fract_y
_atom_site_fract_z
Si Si1 0.182499 0.384418 0.098857
Si Si2 0.619393 0.346785 0.606636
Si Si3 0.981870 0.332761 0.107439
Si Si4 0.911467 0.184672 0.607756
Si Si5 0.227746 0.301140 0.343132
O O1 0.129205 0.315103 0.138027
O O2 0.209885 0.524729 0.147456
O O3 0.223959 0.246009 0.094926
O O4 0.170846 0.441186 0.000000
O O5 0.618469 0.346853 0.500000
O O6 0.574141 0.229948 0.637366
O O7 0.606222 0.517781 0.636433
O O8 0.676327 0.295922 0.635967
O O9 0.000000 0.500000 0.136669
O O10 0.029047 0.220012 0.132263
O O11 0.979653 0.337116 0.000000
O O12 0.908845 0.188223 0.500000
O O13 0.250000 0.250000 0.250000
#
# Coordination Sequence:
#
# PCOD9526154 Si02
#       5
#    16  16  16  16  16
#     4  11  22  39  62  86 117 159 210 257 305 371
#     4  10  19  34  57  85 122 166 212 257 308 376
#     4   9  16  28  51  87 126 160 200 255 314 369
#     4   9  18  32  55  89 123 157 202 259 313 365
#     4  12  25  40  58  86 122 161 204 257 315 367
#
# _framework density 23.558133999999999
#
# number of rings (size 3 to 8) (size 9 to 14) (size 15 to 20)
#    0.000    1.800    0.000    5.400    0.000    7.200 
#    0.000    0.000    0.000    1.200    0.000    7.000 
#    0.000    0.000    0.000    0.000    0.000    8.000 
#
# Total GULP energy -223858.819860 kJ/mol
# GULP energy per Si atom -5596.470496 kJ/mol
# Density = 2.350451 g / cm^3
# Si number density = 23.558134 Si / 1000 Ang^3
#
#
#
# Elastic Constant Matrix: (Units=GPa)
#
#
# Indices 1 2 3 4 5 6 
#
# 1 108.0891 -2.4870 2.7092 0.0000 0.0000 0.0000
# 2 -2.4870 76.5325 9.1296 0.0000 0.0000 0.0000
# 3 2.7092 9.1296 56.8189 0.0000 0.0000 0.0000
# 4 0.0000 0.0000 0.0000 14.6569 0.0000 0.0000
# 5 0.0000 0.0000 0.0000 0.0000 -70.5399 0.0000
# 6 0.0000 0.0000 0.0000 0.0000 0.0000 50.4818
#
#
#
# Elastic Compliance Matrix: (Units=1/GPa)
#
#
# Indices 1 2 3 4 5 6 
#
# 1 0.009272 0.000361 -0.000500 0.000000 0.000000 0.000000
# 2 0.000361 0.013336 -0.002160 0.000000 0.000000 0.000000
# 3 -0.000500 -0.002160 0.017971 0.000000 0.000000 0.000000
# 4 0.000000 0.000000 0.000000 0.068227 0.000000 0.000000
# 5 0.000000 0.000000 0.000000 0.000000 -0.014176 0.000000
# 6 0.000000 0.000000 0.000000 0.000000 0.000000 0.019809
#
#
# Mechanical properties :
#
#
# Convention : Reuss Voigt Hill
#
# Bulk Modulus (GPa) = 27.79272 28.90488 28.34880
# Shear Modulus (GPa) = 38.15905 14.39235 26.27570
#
# Velocity S-wave (km/s) = 4.02902 2.47438 3.34332
# Velocity P-wave (km/s) = 5.78508 4.52323 5.19263
#
# Compressibility (1/GPa) = 0.03598065
#
# Stress axis : x y z
#
# Youngs Moduli (GPa) = 107.84615 74.98643 55.64618
#
# Poissons Ratio (x) = -0.02707 0.02783
# Poissons Ratio (y) = -0.03893 0.12020
# Poissons Ratio (z) = 0.05394 0.16197
#
# Static dielectric constant tensor:
#      x y z
#    x 1.822510 0.000000 0.000000 
#    y 0.000000 1.873400 0.000000 
#    z 0.000000 0.000000 1.929280 
# 
# From -- ./inp_files/33791.got.cif
#   From: 2010.05.17/outbox.cif.g08.bks.cpg/sg72_17_cif.got.tgz:33791.got - 2010.06.03 17:03:01.
