data_PCOD9526412
_publ_section_title
;
Structure prediction by ZEFSAII (Michael W. Deem and Ramdas Pophale) SiO2 
 PCOD9526412
Probable space group: I B A M
;
_chemical_formula_sum "Si O2"
_cell_formula_units_Z 96
_cell_length_a 21.151118
_cell_length_b 14.521745
_cell_length_c 16.881340
_cell_angle_alpha 90.000000
_cell_angle_beta 90.000000
_cell_angle_gamma 90.000000
_cell_volume 5185.122861
_symmetry_space_group_name_H-M "I B A M"
_symmetry_group_IT_number 72
_symmetry_cell_setting 'orthorhombic'
loop_
_space_group_symop_operation_xyz
x,y,z
-x,-y,z
x,-y,1/2-z
-x,y,1/2-z
-x,-y,-z
x,y,-z
-x,y,1/2+z
x,-y,1/2+z
1/2+x,1/2+y,1/2+z
1/2-x,1/2-y,1/2+z
1/2+x,1/2-y,-z
1/2-x,1/2+y,-z
1/2-x,1/2-y,1/2-z
1/2+x,1/2+y,1/2-z
1/2-x,1/2+y,z
1/2+x,1/2-y,z
loop_
_atom_site_type_symbol
_atom_site_label
_atom_site_fract_x
_atom_site_fract_y
_atom_site_fract_z
Si Si1 0.189604 0.900902 0.094622
Si Si2 0.313422 0.999768 0.656644
Si Si3 0.943430 0.946329 0.664956
Si Si4 0.834280 0.301683 0.091211
Si Si5 0.477922 0.255344 0.093204
Si Si6 0.446893 0.925090 0.904291
O O1 0.253601 0.950367 0.118148
O O2 0.126136 0.947474 0.128118
O O3 0.189967 0.795234 0.124605
O O4 0.182819 0.897479 0.000000
O O5 0.379115 0.046947 0.629958
O O6 0.308167 0.000000 0.750000
O O7 0.313048 0.893622 0.632081
O O8 0.967827 0.840599 0.653487
O O9 0.938211 0.000000 0.750000
O O10 0.000000 0.000000 0.621292
O O11 0.910373 0.296161 0.092698
O O12 0.814003 0.307259 0.000000
O O13 0.529742 0.178515 0.115602
O O14 0.487948 0.284935 0.000000
O O15 0.500000 0.000000 0.879195
O O16 0.443208 0.929624 0.000000
#
# Coordination Sequence:
#
# PCOD9526412 Si02
#       6
#    16  16  16  16  16  16
#     4  10  22  41  66  88 116 164 218 258 296 364
#     4  12  24  38  57  94 131 165 198 253 320 377
#     4  10  21  40  60  92 124 162 198 250 322 374
#     4   9  18  38  63  84 114 162 206 250 309 361
#     4   9  18  36  63  89 118 162 212 258 302 361
#     4  10  19  37  64  91 120 163 216 260 302 365
#
# _framework density 18.514507999999999
#
# number of rings (size 3 to 8) (size 9 to 14) (size 15 to 20)
#    0.000    2.000    1.667    3.500    0.000    2.333 
#   15.000    0.000    0.000    0.000    0.000    0.000 
#    0.000    0.000    0.000    0.000    0.000    0.000 
#
# Total GULP energy -267487.176333 kJ/mol
# GULP energy per Si atom -5572.649507 kJ/mol
# Density = 1.847237 g / cm^3
# Si number density = 18.514508 Si / 1000 Ang^3
#
#
#
# Elastic Constant Matrix: (Units=GPa)
#
#
# Indices 1 2 3 4 5 6 
#
# 1 118.2763 73.0807 33.1775 0.0000 0.0000 0.0000
# 2 73.0807 129.3587 55.5844 0.0000 0.0000 0.0000
# 3 33.1775 55.5844 62.5850 0.0000 0.0000 0.0000
# 4 0.0000 0.0000 0.0000 -238.4712 0.0000 0.0000
# 5 0.0000 0.0000 0.0000 0.0000 21.3910 0.0000
# 6 0.0000 0.0000 0.0000 0.0000 0.0000 0.3361
#
#
#
# Elastic Compliance Matrix: (Units=1/GPa)
#
#
# Indices 1 2 3 4 5 6 
#
# 1 0.013003 -0.007089 -0.000596 0.000000 0.000000 0.000000
# 2 -0.007089 0.016367 -0.010778 0.000000 0.000000 0.000000
# 3 -0.000596 -0.010778 0.025867 0.000000 0.000000 0.000000
# 4 0.000000 0.000000 0.000000 -0.004193 0.000000 0.000000
# 5 0.000000 0.000000 0.000000 0.000000 0.046749 0.000000
# 6 0.000000 0.000000 0.000000 0.000000 0.000000 2.975315
#
#
# Mechanical properties :
#
#
# Convention : Reuss Voigt Hill
#
# Bulk Modulus (GPa) = 54.61908 70.43391 62.52649
# Shear Modulus (GPa) = 1.60455 -33.45701 -15.92623
#
# Velocity S-wave (km/s) = 0.93195 -4.25558 -2.93610
# Velocity P-wave (km/s) = 5.54281 3.73879 4.72765
#
# Compressibility (1/GPa) = 0.01830862
#
# Stress axis : x y z
#
# Youngs Moduli (GPa) = 76.90823 61.09969 38.65982
#
# Poissons Ratio (x) = 0.43316 0.02306
# Poissons Ratio (y) = 0.54523 0.41667
# Poissons Ratio (z) = 0.04587 0.65852
#
# Static dielectric constant tensor:
#      x y z
#    x 1.621590 0.000000 0.000000 
#    y 0.000000 1.690590 0.000000 
#    z 0.000000 0.000000 1.651650 
# 
# From -- ./inp_files/24153.got.cif
#   From: 2010.05.17/outbox.cif.g08.bks.cpg/sg72_13_cif.got.tgz:24153.got - 2010.06.03 17:03:01.
