data_PCOD9526610
_publ_section_title
;
Structure prediction by ZEFSAII (Michael W. Deem and Ramdas Pophale) SiO2 
 PCOD9526610
Probable space group: I B A M
;
_chemical_formula_sum "Si O2"
_cell_formula_units_Z 112
_cell_length_a 13.160341
_cell_length_b 24.862581
_cell_length_c 14.660388
_cell_angle_alpha 90.000000
_cell_angle_beta 90.000000
_cell_angle_gamma 90.000000
_cell_volume 4796.879600
_symmetry_space_group_name_H-M "I B A M"
_symmetry_group_IT_number 72
_symmetry_cell_setting 'orthorhombic'
loop_
_space_group_symop_operation_xyz
x,y,z
-x,-y,z
x,-y,1/2-z
-x,y,1/2-z
-x,-y,-z
x,y,-z
-x,y,1/2+z
x,-y,1/2+z
1/2+x,1/2+y,1/2+z
1/2-x,1/2-y,1/2+z
1/2+x,1/2-y,-z
1/2-x,1/2+y,-z
1/2-x,1/2-y,1/2-z
1/2+x,1/2+y,1/2-z
1/2-x,1/2+y,z
1/2+x,1/2-y,z
loop_
_atom_site_type_symbol
_atom_site_label
_atom_site_fract_x
_atom_site_fract_y
_atom_site_fract_z
Si Si1 0.956140 0.829643 0.892344
Si Si2 0.410248 0.033559 0.396511
Si Si3 0.264156 0.540566 0.164830
Si Si4 0.347232 0.152538 0.603399
Si Si5 0.757362 0.335909 0.207139
Si Si6 0.981221 0.056610 0.601984
Si Si7 0.041205 0.281208 0.647343
O O1 0.853738 0.820839 0.832816
O O2 0.009248 0.885303 0.859785
O O3 0.031118 0.779684 0.885619
O O4 0.929281 0.837091 0.000000
O O5 0.443079 0.044576 0.500000
O O6 0.377572 0.092243 0.364856
O O7 0.500000 0.000000 0.349981
O O8 0.316617 0.993187 0.391551
O O9 0.286799 0.500000 0.250000
O O10 0.229385 0.599722 0.195279
O O11 0.360186 0.555215 0.103516
O O12 0.302974 0.151168 0.500000
O O13 0.276975 0.175798 0.685030
O O14 0.453637 0.184359 0.598386
O O15 0.846848 0.306402 0.150487
O O16 0.025983 0.053657 0.500000
O O17 0.000000 0.000000 0.649546
O O18 0.000000 0.281600 0.750000
#
# Coordination Sequence:
#
# PCOD9526610 Si02
#       7
#    16  16  16  16  16  16  16
#     4  10  22  42  68  97 129 170 219 267 327 398
#     4  10  20  33  53  85 126 168 212 265 323 389
#     4  11  20  35  59  93 123 166 210 260 317 396
#     4  10  20  36  58  88 128 171 219 272 326 391
#     4  10  22  41  64  94 130 172 219 271 335 386
#     4   9  20  41  64  88 124 164 209 265 318 380
#     4  10  22  40  62  89 126 171 214 272 322 388
#
# _framework density 23.348511999999999
#
# number of rings (size 3 to 8) (size 9 to 14) (size 15 to 20)
#    0.000    2.000    1.429    1.714    0.000    4.571 
#    5.143    1.429    0.000    7.714    0.000    0.000 
#    0.000    0.857    0.000    0.000    0.000    0.000 
#
# Total GULP energy -312376.470890 kJ/mol
# GULP energy per Si atom -5578.151266 kJ/mol
# Density = 2.329537 g / cm^3
# Si number density = 23.348512 Si / 1000 Ang^3
#
#
#
# Elastic Constant Matrix: (Units=GPa)
#
#
# Indices 1 2 3 4 5 6 
#
# 1 28.3611 46.6466 17.8300 0.0000 0.0000 0.0000
# 2 46.6466 166.0715 17.2341 0.0001 0.0000 0.0000
# 3 17.8300 17.2341 124.8281 0.0001 0.0001 0.0000
# 4 0.0000 0.0001 0.0001 -1.5812 0.0000 0.0000
# 5 0.0000 0.0000 0.0001 0.0000 39.4099 0.0000
# 6 0.0000 0.0000 0.0000 0.0000 0.0000 28.4892
#
#
#
# Elastic Compliance Matrix: (Units=1/GPa)
#
#
# Indices 1 2 3 4 5 6 
#
# 1 0.072007 -0.019437 -0.007602 -0.000002 0.000000 0.000000
# 2 -0.019437 0.011355 0.001208 0.000001 0.000000 0.000000
# 3 -0.007602 0.001208 0.008930 0.000000 0.000000 0.000000
# 4 -0.000002 0.000001 0.000000 -0.632425 0.000000 -0.000001
# 5 0.000000 0.000000 0.000000 0.000000 0.025374 0.000000
# 6 0.000000 0.000000 0.000000 -0.000001 0.000000 0.035101
#
#
# Mechanical properties :
#
#
# Convention : Reuss Voigt Hill
#
# Bulk Modulus (GPa) = 24.61081 53.63136 39.12108
# Shear Modulus (GPa) = -12.06409 29.10024 8.51808
#
# Velocity S-wave (km/s) = -2.27556 3.53419 1.91211
# Velocity P-wave (km/s) = 1.91292 6.29871 4.65473
#
# Compressibility (1/GPa) = 0.04063256
#
# Stress axis : x y z
#
# Youngs Moduli (GPa) = 13.88759 88.06315 111.98237
#
# Poissons Ratio (x) = 1.71165 0.85126
# Poissons Ratio (y) = 0.26993 -0.13533
# Poissons Ratio (z) = 0.10557 -0.10642
#
# Static dielectric constant tensor:
#      x y z
#    x 1.858350 0.000000 0.000000 
#    y 0.000000 1.954320 0.000000 
#    z 0.000000 0.000000 1.951190 
# 
# From -- ./inp_files/22115.got.cif
#   From: 2010.05.17/outbox.cif.g08.bks.cpg/sg72_12_cif.got.tgz:22115.got - 2010.06.03 17:03:01.
