data_PCOD9526611
_publ_section_title
;
Structure prediction by ZEFSAII (Michael W. Deem and Ramdas Pophale) SiO2 
 PCOD9526611
Probable space group: I B A M
;
_chemical_formula_sum "Si O2"
_cell_formula_units_Z 120
_cell_length_a 20.141603
_cell_length_b 17.471908
_cell_length_c 19.334226
_cell_angle_alpha 90.000000
_cell_angle_beta 90.000000
_cell_angle_gamma 90.000000
_cell_volume 6803.950676
_symmetry_space_group_name_H-M "I B A M"
_symmetry_group_IT_number 72
_symmetry_cell_setting 'orthorhombic'
loop_
_space_group_symop_operation_xyz
x,y,z
-x,-y,z
x,-y,1/2-z
-x,y,1/2-z
-x,-y,-z
x,y,-z
-x,y,1/2+z
x,-y,1/2+z
1/2+x,1/2+y,1/2+z
1/2-x,1/2-y,1/2+z
1/2+x,1/2-y,-z
1/2-x,1/2+y,-z
1/2-x,1/2-y,1/2-z
1/2+x,1/2+y,1/2-z
1/2-x,1/2+y,z
1/2+x,1/2-y,z
loop_
_atom_site_type_symbol
_atom_site_label
_atom_site_fract_x
_atom_site_fract_y
_atom_site_fract_z
Si Si1 0.007578 0.089923 0.171182
Si Si2 0.577901 0.694960 0.920293
Si Si3 0.871496 0.149506 0.580371
Si Si4 0.347742 0.255402 0.210320
Si Si5 0.729582 0.635475 0.693153
Si Si6 0.815524 0.500000 0.750000
Si Si7 0.070905 0.622976 0.282846
Si Si8 0.051217 0.303554 0.924789
O O1 0.075434 0.109732 0.131329
O O2 0.000000 0.122187 0.250000
O O3 0.951995 0.122318 0.119593
O O4 0.000000 0.000000 0.176635
O O5 0.632711 0.724674 0.867796
O O6 0.517436 0.756123 0.920714
O O7 0.596657 0.681077 0.000000
O O8 0.876264 0.124593 0.500000
O O9 0.801444 0.137504 0.616924
O O10 0.891871 0.238895 0.581173
O O11 0.327149 0.331320 0.253849
O O12 0.286173 0.198352 0.203807
O O13 0.404525 0.203308 0.247390
O O14 0.764330 0.553912 0.707268
O O15 0.868488 0.437378 0.721040
O O16 0.056911 0.639505 0.362410
O O17 0.000000 0.599362 0.250000
O O18 0.055425 0.340258 0.000000
#
# Coordination Sequence:
#
# PCOD9526611 Si02
#       8
#    16  16  16  16  16   8  16  16
#     4  10  21  34  53  81 113 147 180 221 283 345
#     4  10  20  33  53  86 116 137 178 238 291 339
#     4  10  20  34  55  81 112 150 189 229 279 336
#     4  10  20  34  59  83 105 148 190 240 281 322
#     4  10  21  38  54  78 113 149 195 232 269 331
#     4  10  25  38  54  84 117 152 198 236 284 336
#     4  11  19  36  64  87 111 145 191 247 291 350
#     4   9  18  32  56  89 115 139 179 237 295 341
#
# _framework density 17.636813
#
# number of rings (size 3 to 8) (size 9 to 14) (size 15 to 20)
#    0.000    2.000    2.667    2.200    1.867    3.733 
#    0.000    0.667    0.000    2.400    0.000    0.000 
#    0.000    0.000    0.000    0.000    0.000    0.000 
#
# Total GULP energy -334018.162847 kJ/mol
# GULP energy per Si atom -5566.969381 kJ/mol
# Density = 1.759667 g / cm^3
# Si number density = 17.636813 Si / 1000 Ang^3
#
#
#
# Elastic Constant Matrix: (Units=GPa)
#
#
# Indices 1 2 3 4 5 6 
#
# 1 60.5786 20.7590 34.4488 0.0000 0.0000 0.0000
# 2 20.7590 60.0935 45.0865 0.0000 0.0000 0.0000
# 3 34.4488 45.0865 164.9586 0.0000 0.0000 0.0000
# 4 0.0000 0.0000 0.0000 94.0061 0.0000 0.0000
# 5 0.0000 0.0000 0.0000 0.0000 37.0914 0.0000
# 6 0.0000 0.0000 0.0000 0.0000 0.0000 11.1118
#
#
#
# Elastic Compliance Matrix: (Units=1/GPa)
#
#
# Indices 1 2 3 4 5 6 
#
# 1 0.019727 -0.004684 -0.002839 0.000000 0.000000 0.000000
# 2 -0.004684 0.022046 -0.005047 0.000000 0.000000 0.000000
# 3 -0.002839 -0.005047 0.008035 0.000000 0.000000 0.000000
# 4 0.000000 0.000000 0.000000 0.010638 0.000000 0.000000
# 5 0.000000 0.000000 0.000000 0.000000 0.026960 0.000000
# 6 0.000000 0.000000 0.000000 0.000000 0.000000 0.089995
#
#
# Mechanical properties :
#
#
# Convention : Reuss Voigt Hill
#
# Bulk Modulus (GPa) = 40.54234 54.02439 47.28337
# Shear Modulus (GPa) = 23.72315 40.79761 32.26038
#
# Velocity S-wave (km/s) = 3.67153 4.81480 4.28150
# Velocity P-wave (km/s) = 6.40396 7.84907 7.16305
#
# Compressibility (1/GPa) = 0.02466557
#
# Stress axis : x y z
#
# Youngs Moduli (GPa) = 50.69097 45.36017 124.46158
#
# Poissons Ratio (x) = 0.21249 0.35339
# Poissons Ratio (y) = 0.23746 0.62819
# Poissons Ratio (z) = 0.14393 0.22895
#
# Static dielectric constant tensor:
#      x y z
#    x 1.655240 0.000000 0.000000 
#    y 0.000000 1.603390 0.000000 
#    z 0.000000 0.000000 1.754830 
# 
# From -- ./inp_files/32811.got.cif
#   From: 2010.05.17/outbox.cif.g08.bks.cpg/sg72_17_cif.got.tgz:32811.got - 2010.06.03 17:03:01.
