data_PCOD9526273
_publ_section_title
;
Structure prediction by ZEFSAII (Michael W. Deem and Ramdas Pophale) SiO2 
 PCOD9526273
Probable space group: I B A M
;
_chemical_formula_sum "Si O2"
_cell_formula_units_Z 88
_cell_length_a 14.647335
_cell_length_b 11.345431
_cell_length_c 22.256690
_cell_angle_alpha 90.000000
_cell_angle_beta 90.000000
_cell_angle_gamma 90.000000
_cell_volume 3698.624057
_symmetry_space_group_name_H-M "I B A M"
_symmetry_group_IT_number 72
_symmetry_cell_setting 'orthorhombic'
loop_
_space_group_symop_operation_xyz
x,y,z
-x,-y,z
x,-y,1/2-z
-x,y,1/2-z
-x,-y,-z
x,y,-z
-x,y,1/2+z
x,-y,1/2+z
1/2+x,1/2+y,1/2+z
1/2-x,1/2-y,1/2+z
1/2+x,1/2-y,-z
1/2-x,1/2+y,-z
1/2-x,1/2-y,1/2-z
1/2+x,1/2+y,1/2-z
1/2-x,1/2+y,z
1/2+x,1/2-y,z
loop_
_atom_site_type_symbol
_atom_site_label
_atom_site_fract_x
_atom_site_fract_y
_atom_site_fract_z
Si Si1 0.540304 0.868089 0.189521
Si Si2 0.210494 0.780163 0.824738
Si Si3 0.641945 0.378753 0.864695
Si Si4 0.446216 0.193224 0.566799
Si Si5 0.748123 0.573483 0.930711
Si Si6 0.357353 0.500000 0.750000
O O1 0.500000 0.808601 0.250000
O O2 0.645259 0.828320 0.191653
O O3 0.508749 0.830659 0.123575
O O4 0.500000 0.000000 0.192010
O O5 0.312728 0.733133 0.831373
O O6 0.192936 0.829447 0.892057
O O7 0.198323 0.890943 0.780165
O O8 0.584890 0.327253 0.919545
O O9 0.722461 0.455318 0.894915
O O10 0.595297 0.448144 0.809833
O O11 0.484820 0.178614 0.500000
O O12 0.355046 0.110469 0.570360
O O13 0.721021 0.567387 0.000000
#
# Coordination Sequence:
#
# PCOD9526273 Si02
#       6
#    16  16  16  16  16   8
#     4  11  24  40  58  84 120 159 200 250 306 366
#     4  10  21  36  57  84 115 153 198 246 299 364
#     4  10  19  35  59  85 112 148 194 242 295 356
#     4  10  21  38  59  84 116 151 191 242 300 362
#     4   9  19  36  59  87 116 149 192 245 302 359
#     4  10  20  34  57  86 117 150 192 248 300 356
#
# _framework density 23.792632000000001
#
# number of rings (size 3 to 8) (size 9 to 14) (size 15 to 20)
#    0.000    2.000    0.000    3.273    0.000    6.182 
#    0.000    8.636    0.000    5.455    0.000    0.000 
#    0.000    0.000    0.000    0.000    0.000    0.000 
#
# Total GULP energy -245100.562830 kJ/mol
# GULP energy per Si atom -5570.467337 kJ/mol
# Density = 2.373848 g / cm^3
# Si number density = 23.792632 Si / 1000 Ang^3
#
#
#
# Elastic Constant Matrix: (Units=GPa)
#
#
# Indices 1 2 3 4 5 6 
#
# 1 44.9755 15.3558 38.5948 0.0000 0.0000 0.0000
# 2 15.3558 78.4210 28.6913 0.0000 0.0000 0.0000
# 3 38.5948 28.6913 205.3103 0.0000 0.0000 0.0000
# 4 0.0000 0.0000 0.0000 35.7951 0.0000 0.0000
# 5 0.0000 0.0000 0.0000 0.0000 53.5882 0.0000
# 6 0.0000 0.0000 0.0000 0.0000 0.0000 7.9936
#
#
#
# Elastic Compliance Matrix: (Units=1/GPa)
#
#
# Indices 1 2 3 4 5 6 
#
# 1 0.027483 -0.003679 -0.004652 0.000000 0.000000 0.000000
# 2 -0.003679 0.013931 -0.001255 0.000000 0.000000 0.000000
# 3 -0.004652 -0.001255 0.005921 0.000000 0.000000 0.000000
# 4 0.000000 0.000000 0.000000 0.027937 0.000000 0.000000
# 5 0.000000 0.000000 0.000000 0.000000 0.018661 0.000000
# 6 0.000000 0.000000 0.000000 0.000000 0.000000 0.125100
#
#
# Mechanical properties :
#
#
# Convention : Reuss Voigt Hill
#
# Bulk Modulus (GPa) = 35.50980 54.88786 45.19883
# Shear Modulus (GPa) = 20.19446 35.87971 28.03708
#
# Velocity S-wave (km/s) = 2.91653 3.88753 3.43650
# Velocity P-wave (km/s) = 5.12822 6.57799 5.89782
#
# Compressibility (1/GPa) = 0.02816124
#
# Stress axis : x y z
#
# Youngs Moduli (GPa) = 36.38659 71.78038 168.90185
#
# Poissons Ratio (x) = 0.26411 0.78575
# Poissons Ratio (y) = 0.13388 0.21200
# Poissons Ratio (z) = 0.16927 0.09010
#
# Static dielectric constant tensor:
#      x y z
#    x 1.935140 0.000000 0.000000 
#    y 0.000000 1.922390 0.000000 
#    z 0.000000 0.000000 1.913650 
# 
# From -- ./inp_files/38904.got.cif
#   From: 2010.05.17/outbox.cif.g08.bks.cpg/sg72_20_cif.got.tgz:38904.got - 2010.06.03 17:03:01.
