data_PCOD9526244
_publ_section_title
;
Structure prediction by ZEFSAII (Michael W. Deem and Ramdas Pophale) SiO2 
 PCOD9526244
Probable space group: I B A M
;
_chemical_formula_sum "Si O2"
_cell_formula_units_Z 112
_cell_length_a 28.752382
_cell_length_b 14.381710
_cell_length_c 15.758644
_cell_angle_alpha 90.000000
_cell_angle_beta 90.000000
_cell_angle_gamma 90.000000
_cell_volume 6516.331978
_symmetry_space_group_name_H-M "I B A M"
_symmetry_group_IT_number 72
_symmetry_cell_setting 'orthorhombic'
loop_
_space_group_symop_operation_xyz
x,y,z
-x,-y,z
x,-y,1/2-z
-x,y,1/2-z
-x,-y,-z
x,y,-z
-x,y,1/2+z
x,-y,1/2+z
1/2+x,1/2+y,1/2+z
1/2-x,1/2-y,1/2+z
1/2+x,1/2-y,-z
1/2-x,1/2+y,-z
1/2-x,1/2-y,1/2-z
1/2+x,1/2+y,1/2-z
1/2-x,1/2+y,z
1/2+x,1/2-y,z
loop_
_atom_site_type_symbol
_atom_site_label
_atom_site_fract_x
_atom_site_fract_y
_atom_site_fract_z
Si Si1 0.045390 0.551914 0.903221
Si Si2 0.808129 0.923263 0.599844
Si Si3 0.611204 0.394651 0.261673
Si Si4 0.289393 0.165209 0.399304
Si Si5 0.827082 0.865191 0.902085
Si Si6 0.446180 0.213989 0.774233
Si Si7 0.881703 0.574807 0.825586
O O1 0.056460 0.646651 0.855245
O O2 0.088616 0.481879 0.894728
O O3 0.000000 0.500000 0.864321
O O4 0.034522 0.572586 0.000000
O O5 0.818202 0.900810 0.500000
O O6 0.849302 0.898349 0.664909
O O7 0.760852 0.872546 0.626977
O O8 0.802005 0.035009 0.604091
O O9 0.593058 0.500000 0.250000
O O10 0.634324 0.367154 0.171351
O O11 0.574310 0.316387 0.285601
O O12 0.293184 0.147178 0.500000
O O13 0.294963 0.275762 0.386731
O O14 0.332492 0.114199 0.355011
O O15 0.844886 0.857600 0.000000
O O16 0.500000 0.218475 0.750000
O O17 0.414433 0.159083 0.705921
O O18 0.875799 0.500000 0.750000
#
# Coordination Sequence:
#
# PCOD9526244 Si02
#       7
#    16  16  16  16  16  16  16
#     4  10  20  35  56  82 112 150 184 222 283 351
#     4   9  20  37  56  79 114 149 182 232 284 334
#     4  10  21  38  59  82 107 151 194 234 287 339
#     4  10  19  35  57  82 109 143 186 229 275 333
#     4   9  18  35  56  79 106 142 186 229 275 335
#     4  11  21  37  56  81 113 146 185 234 283 329
#     4  10  20  33  54  82 114 145 180 230 280 335
#
# _framework density 17.187584000000001
#
# number of rings (size 3 to 8) (size 9 to 14) (size 15 to 20)
#    0.000    2.143    2.857    0.429    0.000    3.143 
#    5.143    0.714    0.000    0.000    0.000    5.000 
#    0.000    0.000    0.000    0.000    0.000    0.000 
#
# Total GULP energy -312113.855347 kJ/mol
# GULP energy per Si atom -5573.461703 kJ/mol
# Density = 1.714846 g / cm^3
# Si number density = 17.187584 Si / 1000 Ang^3
#
#
#
# Elastic Constant Matrix: (Units=GPa)
#
#
# Indices 1 2 3 4 5 6 
#
# 1 67.4038 58.8518 26.8541 0.0000 0.0000 0.0000
# 2 58.8518 127.8831 41.2961 0.0000 0.0000 0.0000
# 3 26.8541 41.2961 55.8591 0.0000 0.0000 0.0000
# 4 0.0000 0.0000 0.0000 13.5549 0.0000 0.0000
# 5 0.0000 0.0000 0.0000 0.0000 17.9534 0.0000
# 6 0.0000 0.0000 0.0000 0.0000 0.0000 29.9768
#
#
#
# Elastic Compliance Matrix: (Units=1/GPa)
#
#
# Indices 1 2 3 4 5 6 
#
# 1 0.025726 -0.010306 -0.004749 0.000000 0.000000 0.000000
# 2 -0.010306 0.014400 -0.005692 0.000000 0.000000 0.000000
# 3 -0.004749 -0.005692 0.024393 0.000000 0.000000 0.000000
# 4 0.000000 0.000000 0.000000 0.073774 0.000000 0.000000
# 5 0.000000 0.000000 0.000000 0.000000 0.055700 0.000000
# 6 0.000000 0.000000 0.000000 0.000000 0.000000 0.033359
#
#
# Mechanical properties :
#
#
# Convention : Reuss Voigt Hill
#
# Bulk Modulus (GPa) = 43.42715 56.12778 49.77747
# Shear Modulus (GPa) = 18.08189 20.57329 19.32759
#
# Velocity S-wave (km/s) = 3.24702 3.46350 3.35701
# Velocity P-wave (km/s) = 6.27527 6.98007 6.63703
#
# Compressibility (1/GPa) = 0.02302707
#
# Stress axis : x y z
#
# Youngs Moduli (GPa) = 38.87116 69.44357 40.99555
#
# Poissons Ratio (x) = 0.71566 0.19468
# Poissons Ratio (y) = 0.40059 0.23333
# Poissons Ratio (z) = 0.18460 0.39524
#
# Static dielectric constant tensor:
#      x y z
#    x 1.557590 0.000000 0.000000 
#    y 0.000000 1.579430 0.000000 
#    z 0.000000 0.000000 1.598390 
# 
# From -- ./inp_files/22132.got.cif
#   From: 2010.05.17/outbox.cif.g08.bks.cpg/sg72_12_cif.got.tgz:22132.got - 2010.06.03 17:03:01.
