data_PCOD9526858
_publ_section_title
;
Structure prediction by ZEFSAII (Michael W. Deem and Ramdas Pophale) SiO2 
 PCOD9526858
Probable space group: I B A M
;
_chemical_formula_sum "Si O2"
_cell_formula_units_Z 96
_cell_length_a 14.057380
_cell_length_b 19.439057
_cell_length_c 15.868576
_cell_angle_alpha 90.000000
_cell_angle_beta 90.000000
_cell_angle_gamma 90.000000
_cell_volume 4336.282165
_symmetry_space_group_name_H-M "I B A M"
_symmetry_group_IT_number 72
_symmetry_cell_setting 'orthorhombic'
loop_
_space_group_symop_operation_xyz
x,y,z
-x,-y,z
x,-y,1/2-z
-x,y,1/2-z
-x,-y,-z
x,y,-z
-x,y,1/2+z
x,-y,1/2+z
1/2+x,1/2+y,1/2+z
1/2-x,1/2-y,1/2+z
1/2+x,1/2-y,-z
1/2-x,1/2+y,-z
1/2-x,1/2-y,1/2-z
1/2+x,1/2+y,1/2-z
1/2-x,1/2+y,z
1/2+x,1/2-y,z
loop_
_atom_site_type_symbol
_atom_site_label
_atom_site_fract_x
_atom_site_fract_y
_atom_site_fract_z
Si Si1 0.997587 0.114042 0.151620
Si Si2 0.110515 0.348851 0.776870
Si Si3 0.443139 0.240998 0.590261
Si Si4 0.637339 0.989069 0.653005
Si Si5 0.147668 0.002114 0.600558
Si Si6 0.384613 0.869202 0.407531
O O1 0.012707 0.183955 0.101567
O O2 0.000000 0.129964 0.250000
O O3 0.081363 0.060136 0.130843
O O4 0.901951 0.072767 0.129352
O O5 0.129744 0.406754 0.848283
O O6 0.162195 0.355079 0.685598
O O7 0.000000 0.356904 0.750000
O O8 0.118903 0.278026 0.827798
O O9 0.392597 0.236706 0.500000
O O10 0.529216 0.185344 0.588673
O O11 0.610145 0.000000 0.750000
O O12 0.747688 0.004507 0.637009
O O13 0.585947 0.049786 0.601194
O O14 0.151588 0.001104 0.500000
O O15 0.334876 0.863422 0.500000
#
# Coordination Sequence:
#
# PCOD9526858 Si02
#       6
#    16  16  16  16  16  16
#     4  11  21  38  61  82 110 149 195 243 295 353
#     4   9  19  35  55  82 115 152 189 233 286 345
#     4  10  20  35  56  83 113 149 194 237 287 351
#     4  10  20  35  55  82 116 149 190 236 290 348
#     4  11  22  37  58  84 113 148 193 243 293 348
#     4   9  18  32  52  78 109 146 185 230 282 336
#
# _framework density 22.138780000000001
#
# number of rings (size 3 to 8) (size 9 to 14) (size 15 to 20)
#    0.000    2.000    0.000    6.000    0.000    9.000 
#    0.000    5.833    0.000   13.000    0.000    0.000 
#    0.000    0.000    0.000    0.000    0.000    0.000 
#
# Total GULP energy -267425.308507 kJ/mol
# GULP energy per Si atom -5571.360594 kJ/mol
# Density = 2.208839 g / cm^3
# Si number density = 22.138780 Si / 1000 Ang^3
#
#
#
# Elastic Constant Matrix: (Units=GPa)
#
#
# Indices 1 2 3 4 5 6 
#
# 1 30.6301 5.9991 11.1459 0.0000 0.0000 0.0000
# 2 5.9991 113.0156 40.8604 0.0000 0.0000 0.0000
# 3 11.1459 40.8604 159.3489 0.0000 0.0000 0.0000
# 4 0.0000 0.0000 0.0000 7.7972 0.0000 0.0000
# 5 0.0000 0.0000 0.0000 0.0000 8.4727 0.0000
# 6 0.0000 0.0000 0.0000 0.0000 0.0000 8.6422
#
#
#
# Elastic Compliance Matrix: (Units=1/GPa)
#
#
# Indices 1 2 3 4 5 6 
#
# 1 0.033609 -0.001030 -0.002087 0.000000 0.000000 0.000000
# 2 -0.001030 0.009784 -0.002437 0.000000 0.000000 0.000000
# 3 -0.002087 -0.002437 0.007046 0.000000 0.000000 0.000000
# 4 0.000000 0.000000 0.000000 0.128251 0.000000 0.000000
# 5 0.000000 0.000000 0.000000 0.000000 0.118027 0.000000
# 6 0.000000 0.000000 0.000000 0.000000 0.000000 0.115711
#
#
# Mechanical properties :
#
#
# Convention : Reuss Voigt Hill
#
# Bulk Modulus (GPa) = 25.42416 46.55616 35.99016
# Shear Modulus (GPa) = 11.45096 21.31504 16.38300
#
# Velocity S-wave (km/s) = 2.27675 3.10625 2.72327
# Velocity P-wave (km/s) = 4.29190 5.82580 5.11666
#
# Compressibility (1/GPa) = 0.03933266
#
# Stress axis : x y z
#
# Youngs Moduli (GPa) = 29.75428 102.20757 141.91738
#
# Poissons Ratio (x) = 0.10523 0.29615
# Poissons Ratio (y) = 0.03063 0.34583
# Poissons Ratio (z) = 0.06209 0.24906
#
# Static dielectric constant tensor:
#      x y z
#    x 1.824590 0.000000 0.000000 
#    y 0.000000 1.897730 0.000000 
#    z 0.000000 0.000000 1.882260 
# 
# From -- ./inp_files/21856.got.cif
#   From: 2010.05.17/outbox.cif.g08.bks.cpg/sg72_11_cif.got.tgz:21856.got - 2010.06.03 17:03:01.
