data_PCOD9526012
_publ_section_title
;
Structure prediction by ZEFSAII (Michael W. Deem and Ramdas Pophale) SiO2 
 PCOD9526012
Probable space group: I B A M
;
_chemical_formula_sum "Si O2"
_cell_formula_units_Z 116
_cell_length_a 32.584694
_cell_length_b 21.885629
_cell_length_c 9.173350
_cell_angle_alpha 90.000000
_cell_angle_beta 90.000000
_cell_angle_gamma 90.000000
_cell_volume 6541.850932
_symmetry_space_group_name_H-M "I B A M"
_symmetry_group_IT_number 72
_symmetry_cell_setting 'orthorhombic'
loop_
_space_group_symop_operation_xyz
x,y,z
-x,-y,z
x,-y,1/2-z
-x,y,1/2-z
-x,-y,-z
x,y,-z
-x,y,1/2+z
x,-y,1/2+z
1/2+x,1/2+y,1/2+z
1/2-x,1/2-y,1/2+z
1/2+x,1/2-y,-z
1/2-x,1/2+y,-z
1/2-x,1/2-y,1/2-z
1/2+x,1/2+y,1/2-z
1/2-x,1/2+y,z
1/2+x,1/2-y,z
loop_
_atom_site_type_symbol
_atom_site_label
_atom_site_fract_x
_atom_site_fract_y
_atom_site_fract_z
Si Si1 0.192752 0.701583 0.169626
Si Si2 0.574277 0.562736 0.326820
Si Si3 0.957579 0.804952 0.175292
Si Si4 0.394845 0.196043 0.325021
Si Si5 0.960252 0.620264 0.665750
Si Si6 0.671965 0.436992 0.826794
Si Si7 0.771802 0.839261 0.330778
Si Si8 0.000000 0.500000 0.750000
O O1 0.149626 0.698345 0.252280
O O2 0.209086 0.771273 0.173324
O O3 0.227806 0.663140 0.251810
O O4 0.188660 0.683643 0.000000
O O5 0.560862 0.500000 0.250000
O O6 0.567962 0.556146 0.500000
O O7 0.553357 0.625734 0.278176
O O8 0.623149 0.570681 0.301717
O O9 0.921163 0.757315 0.210019
O O10 0.000000 0.787236 0.250000
O O11 0.961986 0.804491 0.000000
O O12 0.391973 0.191068 0.500000
O O13 0.420934 0.140437 0.256792
O O14 0.957622 0.642026 0.500000
O O15 0.000000 0.646491 0.750000
O O16 0.970635 0.547721 0.666352
O O17 0.684189 0.500000 0.750000
O O18 0.697562 0.383144 0.754756
O O19 0.678594 0.439338 0.000000
O O20 0.767753 0.857178 0.500000
#
# Coordination Sequence:
#
# PCOD9526012 Si02
#       8
#    16  16  16  16  16  16  16   4
#     4  10  21  36  56  82 111 144 181 223 272 327
#     4   9  19  35  53  75 104 140 184 228 271 319
#     4  10  22  37  52  75 107 143 181 224 274 325
#     4  11  22  36  56  81 112 146 182 227 278 328
#     4  10  20  35  57  83 111 142 181 223 269 322
#     4  10  19  33  55  80 108 142 181 226 273 323
#     4  10  20  35  56  82 111 143 181 222 270 328
#     4   8  22  36  62  84 114 144 184 224 266 320
#
# _framework density 17.731985000000002
#
# number of rings (size 3 to 8) (size 9 to 14) (size 15 to 20)
#    0.414    1.655    0.000    3.517    0.000    6.345 
#    0.000    1.379    1.517    0.000    0.000    0.000 
#    0.000    0.000    0.000    0.000    0.000    0.000 
#
# Total GULP energy -323516.746610 kJ/mol
# GULP energy per Si atom -5577.874942 kJ/mol
# Density = 1.769163 g / cm^3
# Si number density = 17.731985 Si / 1000 Ang^3
#
#
#
# Elastic Constant Matrix: (Units=GPa)
#
#
# Indices 1 2 3 4 5 6 
#
# 1 86.2311 16.7467 49.8526 0.0000 0.0000 0.0000
# 2 16.7467 69.7722 26.2008 0.0000 0.0000 0.0000
# 3 49.8526 26.2008 100.9286 0.0000 0.0000 0.0000
# 4 0.0000 0.0000 0.0000 23.6161 0.0000 0.0000
# 5 0.0000 0.0000 0.0000 0.0000 29.5956 0.0000
# 6 0.0000 0.0000 0.0000 0.0000 0.0000 26.7827
#
#
#
# Elastic Compliance Matrix: (Units=1/GPa)
#
#
# Indices 1 2 3 4 5 6 
#
# 1 0.016293 -0.000985 -0.007792 0.000000 0.000000 0.000000
# 2 -0.000985 0.015940 -0.003652 0.000000 0.000000 0.000000
# 3 -0.007792 -0.003652 0.014705 0.000000 0.000000 0.000000
# 4 0.000000 0.000000 0.000000 0.042344 0.000000 0.000000
# 5 0.000000 0.000000 0.000000 0.000000 0.033789 0.000000
# 6 0.000000 0.000000 0.000000 0.000000 0.000000 0.037337
#
#
# Mechanical properties :
#
#
# Convention : Reuss Voigt Hill
#
# Bulk Modulus (GPa) = 45.28787 49.17021 47.22904
# Shear Modulus (GPa) = 25.95725 26.94102 26.44914
#
# Velocity S-wave (km/s) = 3.83020 3.90211 3.86632
# Velocity P-wave (km/s) = 6.71984 6.93482 6.82818
#
# Compressibility (1/GPa) = 0.02208097
#
# Stress axis : x y z
#
# Youngs Moduli (GPa) = 61.37701 62.73555 68.00523
#
# Poissons Ratio (x) = 0.06176 0.52990
# Poissons Ratio (y) = 0.06043 0.24833
# Poissons Ratio (z) = 0.47825 0.22909
#
# Static dielectric constant tensor:
#      x y z
#    x 1.582570 0.000000 0.000000 
#    y 0.000000 1.616480 0.000000 
#    z 0.000000 0.000000 1.595040 
# 
# From -- ./inp_files/9345.got.cif
#   From: 2010.05.17/outbox.cif.g08.bks.cpg/sg72_5_cif.got.tgz:9345.got - 2010.06.03 17:03:01.
