data_PCOD9526235
_publ_section_title
;
Structure prediction by ZEFSAII (Michael W. Deem and Ramdas Pophale) SiO2 
 PCOD9526235
Probable space group: I B A M
;
_chemical_formula_sum "Si O2"
_cell_formula_units_Z 64
_cell_length_a 13.918309
_cell_length_b 18.501134
_cell_length_c 11.694189
_cell_angle_alpha 90.000000
_cell_angle_beta 90.000000
_cell_angle_gamma 90.000000
_cell_volume 3011.306290
_symmetry_space_group_name_H-M "I B A M"
_symmetry_group_IT_number 72
_symmetry_cell_setting 'orthorhombic'
loop_
_space_group_symop_operation_xyz
x,y,z
-x,-y,z
x,-y,1/2-z
-x,y,1/2-z
-x,-y,-z
x,y,-z
-x,y,1/2+z
x,-y,1/2+z
1/2+x,1/2+y,1/2+z
1/2-x,1/2-y,1/2+z
1/2+x,1/2-y,-z
1/2-x,1/2+y,-z
1/2-x,1/2-y,1/2-z
1/2+x,1/2+y,1/2-z
1/2-x,1/2+y,z
1/2+x,1/2-y,z
loop_
_atom_site_type_symbol
_atom_site_label
_atom_site_fract_x
_atom_site_fract_y
_atom_site_fract_z
Si Si1 0.850363 0.512106 0.626058
Si Si2 0.226831 0.674442 0.877585
Si Si3 0.896444 0.193960 0.803856
Si Si4 0.133732 0.963890 0.126893
O O1 0.897775 0.500000 0.750000
O O2 0.893532 0.495511 0.500000
O O3 0.821297 0.596195 0.626118
O O4 0.749868 0.467697 0.629595
O O5 0.145611 0.735500 0.865256
O O6 0.311673 0.679150 0.787185
O O7 0.274774 0.684335 0.000000
O O8 0.902211 0.118362 0.870952
O O9 0.000000 0.208900 0.750000
O O10 0.104858 0.000000 0.250000
O O11 0.108551 0.996428 0.000000
#
# Coordination Sequence:
#
# PCOD9526235 Si02
#       4
#    16  16  16  16
#     4   9  16  32  56  84 116 153 197 243 297 363
#     4  10  21  39  59  83 119 163 206 254 309 368
#     4  11  23  38  58  88 122 161 208 259 310 372
#     4  10  19  35  56  86 123 161 201 246 305 372
#
# _framework density 21.253233999999999
#
# number of rings (size 3 to 8) (size 9 to 14) (size 15 to 20)
#    0.000    2.000    5.000    0.750    0.000    2.500 
#    0.000    1.250    0.000    0.750    0.000    3.500 
#    0.000    0.000    0.000    0.000    0.000    0.000 
#
# Total GULP energy -178186.665172 kJ/mol
# GULP energy per Si atom -5568.333287 kJ/mol
# Density = 2.120486 g / cm^3
# Si number density = 21.253234 Si / 1000 Ang^3
#
#
#
# Elastic Constant Matrix: (Units=GPa)
#
#
# Indices 1 2 3 4 5 6 
#
# 1 89.0658 8.9913 21.9781 0.0000 0.0000 0.0000
# 2 8.9913 55.2322 18.0660 0.0000 0.0000 0.0000
# 3 21.9781 18.0660 205.8903 0.0000 0.0000 0.0000
# 4 0.0000 0.0000 0.0000 13.8517 0.0000 0.0000
# 5 0.0000 0.0000 0.0000 0.0000 -16.7943 0.0000
# 6 0.0000 0.0000 0.0000 0.0000 0.0000 -21.8213
#
#
#
# Elastic Compliance Matrix: (Units=1/GPa)
#
#
# Indices 1 2 3 4 5 6 
#
# 1 0.011656 -0.001535 -0.001110 0.000000 0.000000 0.000000
# 2 -0.001535 0.018842 -0.001490 0.000000 0.000000 0.000000
# 3 -0.001110 -0.001490 0.005106 0.000000 0.000000 0.000000
# 4 0.000000 0.000000 0.000000 0.072193 0.000000 0.000000
# 5 0.000000 0.000000 0.000000 0.000000 -0.059544 0.000000
# 6 0.000000 0.000000 0.000000 0.000000 0.000000 -0.045827
#
#
# Mechanical properties :
#
#
# Convention : Reuss Voigt Hill
#
# Bulk Modulus (GPa) = 36.57992 49.80656 43.19324
# Shear Modulus (GPa) = 252.43091 15.12409 133.77750
#
# Velocity S-wave (km/s) = 10.91012 2.67050 7.94237
# Velocity P-wave (km/s) = 13.26486 5.74408 10.22133
#
# Compressibility (1/GPa) = 0.02733740
#
# Stress axis : x y z
#
# Youngs Moduli (GPa) = 85.78991 53.07173 195.84406
#
# Poissons Ratio (x) = 0.08144 0.21731
# Poissons Ratio (y) = 0.13165 0.29171
# Poissons Ratio (z) = 0.09519 0.07905
#
# Static dielectric constant tensor:
#      x y z
#    x 1.701320 0.000000 0.000000 
#    y 0.000000 1.755070 0.000000 
#    z 0.000000 0.000000 1.905220 
# 
# From -- ./inp_files/12356.got.cif
#   From: 2010.05.17/outbox.cif.g08.bks.cpg/sg72_7_cif.got.tgz:12356.got - 2010.06.03 17:03:01.
