data_PCOD9526966
_publ_section_title
;
Structure prediction by ZEFSAII (Michael W. Deem and Ramdas Pophale) SiO2 
 PCOD9526966
Probable space group: I B A M
;
_chemical_formula_sum "Si O2"
_cell_formula_units_Z 96
_cell_length_a 20.230541
_cell_length_b 7.691599
_cell_length_c 22.231640
_cell_angle_alpha 90.000000
_cell_angle_beta 90.000000
_cell_angle_gamma 90.000000
_cell_volume 3459.358987
_symmetry_space_group_name_H-M "I B A M"
_symmetry_group_IT_number 72
_symmetry_cell_setting 'orthorhombic'
loop_
_space_group_symop_operation_xyz
x,y,z
-x,-y,z
x,-y,1/2-z
-x,y,1/2-z
-x,-y,-z
x,y,-z
-x,y,1/2+z
x,-y,1/2+z
1/2+x,1/2+y,1/2+z
1/2-x,1/2-y,1/2+z
1/2+x,1/2-y,-z
1/2-x,1/2+y,-z
1/2-x,1/2-y,1/2-z
1/2+x,1/2+y,1/2-z
1/2-x,1/2+y,z
1/2+x,1/2-y,z
loop_
_atom_site_type_symbol
_atom_site_label
_atom_site_fract_x
_atom_site_fract_y
_atom_site_fract_z
Si Si1 0.203287 0.065946 0.433384
Si Si2 0.412274 0.707687 0.068684
Si Si3 0.763042 0.107813 0.312359
Si Si4 0.977670 0.304519 0.163069
Si Si5 0.366295 0.795516 0.256919
Si Si6 0.129866 0.590804 0.933881
O O1 0.232923 0.029280 0.500000
O O2 0.134236 0.960366 0.430446
O O3 0.237834 0.003624 0.372419
O O4 0.311057 0.770326 0.432972
O O5 0.464337 0.714217 0.124048
O O6 0.366340 0.881876 0.073538
O O7 0.441632 0.713767 0.000000
O O8 0.693804 0.208877 0.304911
O O9 0.831428 0.213960 0.301961
O O10 0.761951 0.000000 0.250000
O O11 0.934600 0.218896 0.217354
O O12 0.921665 0.343797 0.114372
O O13 0.000000 0.500000 0.180837
O O14 0.378552 0.000000 0.250000
O O15 0.099653 0.612746 0.000000
#
# Coordination Sequence:
#
# PCOD9526966 Si02
#       6
#    16  16  16  16  16  16
#     4  10  21  39  68 102 137 180 234 290 352 422
#     4   9  19  36  61  99 139 180 223 274 349 431
#     4  10  22  44  68  95 134 181 238 294 353 433
#     4  10  20  35  60  96 129 171 224 282 337 422
#     4  10  23  41  67  92 127 182 230 285 358 417
#     4   9  18  34  59  91 132 175 215 271 341 414
#
# _framework density 27.750805
#
# number of rings (size 3 to 8) (size 9 to 14) (size 15 to 20)
#    0.000    2.333    0.000    1.500    4.667    3.000 
#    0.000    4.167    0.000    9.000    0.000    0.000 
#    0.000    0.000    0.000    0.000    0.000    0.000 
#
# Total GULP energy -268344.778186 kJ/mol
# GULP energy per Si atom -5590.516212 kJ/mol
# Density = 2.768764 g / cm^3
# Si number density = 27.750805 Si / 1000 Ang^3
#
#
#
# Elastic Constant Matrix: (Units=GPa)
#
#
# Indices 1 2 3 4 5 6 
#
# 1 142.8466 48.2661 91.4650 0.0000 0.0000 0.0000
# 2 48.2661 110.5125 45.7290 0.0000 0.0000 0.0000
# 3 91.4650 45.7290 180.8374 0.0000 0.0000 0.0000
# 4 0.0000 0.0000 0.0000 49.7075 0.0000 0.0000
# 5 0.0000 0.0000 0.0000 0.0000 27.4366 0.0000
# 6 0.0000 0.0000 0.0000 0.0000 0.0000 27.8951
#
#
#
# Elastic Compliance Matrix: (Units=1/GPa)
#
#
# Indices 1 2 3 4 5 6 
#
# 1 0.011087 -0.002816 -0.004895 0.000000 0.000000 0.000000
# 2 -0.002816 0.010822 -0.001312 0.000000 0.000000 0.000000
# 3 -0.004895 -0.001312 0.008338 0.000000 0.000000 0.000000
# 4 0.000000 0.000000 0.000000 0.020118 0.000000 0.000000
# 5 0.000000 0.000000 0.000000 0.000000 0.036448 0.000000
# 6 0.000000 0.000000 0.000000 0.000000 0.000000 0.035849
#
#
# Mechanical properties :
#
#
# Convention : Reuss Voigt Hill
#
# Bulk Modulus (GPa) = 81.97746 89.45742 85.71744
# Shear Modulus (GPa) = 34.53676 37.59028 36.06352
#
# Velocity S-wave (km/s) = 3.53162 3.68444 3.60884
# Velocity P-wave (km/s) = 6.79959 7.09972 6.95128
#
# Compressibility (1/GPa) = 0.01219847
#
# Stress axis : x y z
#
# Youngs Moduli (GPa) = 90.19906 92.40674 119.93942
#
# Poissons Ratio (x) = 0.26026 0.58713
# Poissons Ratio (y) = 0.25404 0.15736
# Poissons Ratio (z) = 0.44155 0.12124
#
# Static dielectric constant tensor:
#      x y z
#    x 2.235660 0.000000 0.000000 
#    y 0.000000 2.207330 0.000000 
#    z 0.000000 0.000000 2.205740 
# 
# From -- ./inp_files/44808.got.cif
#   From: 2010.05.17/outbox.cif.g08.bks.cpg/sg72_23_cif.got.tgz:44808.got - 2010.06.03 17:03:01.
