data_PCOD9526941
_publ_section_title
;
Structure prediction by ZEFSAII (Michael W. Deem and Ramdas Pophale) SiO2 
 PCOD9526941
Probable space group: I B A M
;
_chemical_formula_sum "Si O2"
_cell_formula_units_Z 72
_cell_length_a 18.300949
_cell_length_b 22.334767
_cell_length_c 8.374963
_cell_angle_alpha 90.000000
_cell_angle_beta 90.000000
_cell_angle_gamma 90.000000
_cell_volume 3423.244618
_symmetry_space_group_name_H-M "I B A M"
_symmetry_group_IT_number 72
_symmetry_cell_setting 'orthorhombic'
loop_
_space_group_symop_operation_xyz
x,y,z
-x,-y,z
x,-y,1/2-z
-x,y,1/2-z
-x,-y,-z
x,y,-z
-x,y,1/2+z
x,-y,1/2+z
1/2+x,1/2+y,1/2+z
1/2-x,1/2-y,1/2+z
1/2+x,1/2-y,-z
1/2-x,1/2+y,-z
1/2-x,1/2-y,1/2-z
1/2+x,1/2+y,1/2-z
1/2-x,1/2+y,z
1/2+x,1/2-y,z
loop_
_atom_site_type_symbol
_atom_site_label
_atom_site_fract_x
_atom_site_fract_y
_atom_site_fract_z
Si Si1 0.286380 0.890608 0.690124
Si Si2 0.835916 0.807311 0.313466
Si Si3 0.425529 0.589101 0.176177
Si Si4 0.198764 0.000000 0.750000
Si Si5 0.917135 0.687680 0.692290
O O1 0.284230 0.906451 0.500000
O O2 0.233081 0.833528 0.717465
O O3 0.254055 0.945805 0.792597
O O4 0.367170 0.869309 0.735498
O O5 0.816381 0.800651 0.500000
O O6 0.895807 0.859454 0.291736
O O7 0.873346 0.746833 0.251831
O O8 0.500000 0.565248 0.250000
O O9 0.361530 0.540347 0.160070
O O10 0.439084 0.614292 0.000000
O O11 0.917854 0.691011 0.500000
O O12 0.000000 0.685969 0.750000
#
# Coordination Sequence:
#
# PCOD9526941 Si02
#       5
#    16  16  16   8  16
#     4  10  22  40  60  83 114 149 189 235 281 332
#     4  10  20  35  59  89 119 150 186 225 275 339
#     4  11  23  37  56  84 119 154 189 229 276 333
#     4  10  21  36  57  76 104 146 188 232 279 324
#     4  10  22  39  59  86 116 148 186 232 284 336
#
# _framework density 21.032678000000001
#
# number of rings (size 3 to 8) (size 9 to 14) (size 15 to 20)
#    0.000    1.778    0.000    5.000    0.000   14.222 
#    0.000    0.556    0.000    2.667    0.000    0.000 
#    0.000    0.000    0.000    0.000    0.000    0.000 
#
# Total GULP energy -200535.580917 kJ/mol
# GULP energy per Si atom -5570.432803 kJ/mol
# Density = 2.098481 g / cm^3
# Si number density = 21.032678 Si / 1000 Ang^3
#
#
#
# Elastic Constant Matrix: (Units=GPa)
#
#
# Indices 1 2 3 4 5 6 
#
# 1 127.9356 72.7532 -2.6093 0.0000 0.0000 0.0000
# 2 72.7532 96.5559 9.2196 0.0000 0.0000 0.0000
# 3 -2.6093 9.2196 29.3787 0.0000 0.0000 0.0000
# 4 0.0000 0.0000 0.0000 82.7727 0.0000 0.0000
# 5 0.0000 0.0000 0.0000 0.0000 22.9028 0.0000
# 6 0.0000 0.0000 0.0000 0.0000 0.0000 11.1893
#
#
#
# Elastic Compliance Matrix: (Units=1/GPa)
#
#
# Indices 1 2 3 4 5 6 
#
# 1 0.014303 -0.011235 0.004796 0.000000 0.000000 0.000000
# 2 -0.011235 0.019502 -0.007118 0.000000 0.000000 0.000000
# 3 0.004796 -0.007118 0.036698 0.000000 0.000000 0.000000
# 4 0.000000 0.000000 0.000000 0.012081 0.000000 0.000000
# 5 0.000000 0.000000 0.000000 0.000000 0.043663 0.000000
# 6 0.000000 0.000000 0.000000 0.000000 0.000000 0.089371
#
#
# Mechanical properties :
#
#
# Convention : Reuss Voigt Hill
#
# Bulk Modulus (GPa) = 23.04721 45.84415 34.44568
# Shear Modulus (GPa) = 19.44043 35.00674 27.22359
#
# Velocity S-wave (km/s) = 3.04352 4.08413 3.60161
# Velocity P-wave (km/s) = 4.83035 6.63959 5.80588
#
# Compressibility (1/GPa) = 0.04338920
#
# Stress axis : x y z
#
# Youngs Moduli (GPa) = 69.91296 51.27666 27.24947
#
# Poissons Ratio (x) = 0.57611 -0.13070
# Poissons Ratio (y) = 0.78550 0.19396
# Poissons Ratio (z) = -0.33532 0.36499
#
# Static dielectric constant tensor:
#      x y z
#    x 1.754350 0.000000 0.000000 
#    y 0.000000 1.782600 0.000000 
#    z 0.000000 0.000000 1.647850 
# 
# From -- ./inp_files/4609.got.cif
#   From: 2010.05.17/outbox.cif.g08.bks.cpg/sg72_3_cif.got.tgz:4609.got - 2010.06.03 17:03:01.
