data_PCOD9526210
_publ_section_title
;
Structure prediction by ZEFSAII (Michael W. Deem and Ramdas Pophale) SiO2 
 PCOD9526210
Probable space group: I B A M
;
_chemical_formula_sum "Si O2"
_cell_formula_units_Z 60
_cell_length_a 14.466028
_cell_length_b 9.856054
_cell_length_c 18.827214
_cell_angle_alpha 90.000000
_cell_angle_beta 90.000000
_cell_angle_gamma 90.000000
_cell_volume 2684.345635
_symmetry_space_group_name_H-M "I B A M"
_symmetry_group_IT_number 72
_symmetry_cell_setting 'orthorhombic'
loop_
_space_group_symop_operation_xyz
x,y,z
-x,-y,z
x,-y,1/2-z
-x,y,1/2-z
-x,-y,-z
x,y,-z
-x,y,1/2+z
x,-y,1/2+z
1/2+x,1/2+y,1/2+z
1/2-x,1/2-y,1/2+z
1/2+x,1/2-y,-z
1/2-x,1/2+y,-z
1/2-x,1/2-y,1/2-z
1/2+x,1/2+y,1/2-z
1/2-x,1/2+y,z
1/2+x,1/2-y,z
loop_
_atom_site_type_symbol
_atom_site_label
_atom_site_fract_x
_atom_site_fract_y
_atom_site_fract_z
Si Si1 0.336879 0.029797 0.844400
Si Si2 0.689548 0.736618 0.624366
Si Si3 0.320869 0.659864 0.500000
Si Si4 0.082938 0.109260 0.000000
Si Si5 0.000000 0.500000 0.750000
Si Si6 0.407081 0.081370 0.000000
O O1 0.330869 0.868827 0.828750
O O2 0.428794 0.078049 0.802657
O O3 0.242392 0.114887 0.834768
O O4 0.357514 0.039229 0.927989
O O5 0.764955 0.793001 0.568415
O O6 0.604128 0.690508 0.573347
O O7 0.333456 0.501117 0.500000
O O8 0.412930 0.754671 0.500000
O O9 0.000000 0.000000 0.000000
O O10 0.500000 0.000000 0.000000
#
# Coordination Sequence:
#
# PCOD9526210 Si02
#       6
#    16  16   8   8   4   8
#     4  11  23  43  66  95 126 167 217 260 326 381
#     4  10  21  39  63  87 133 170 200 264 327 374
#     4   9  18  33  56  96 127 160 200 247 321 385
#     4  11  21  31  59 104 135 160 206 263 321 379
#     4  12  28  42  68  94 118 174 232 258 300 402
#     4  10  19  34  64  94 125 159 203 268 311 368
#
# _framework density 22.351814999999998
#
# number of rings (size 3 to 8) (size 9 to 14) (size 15 to 20)
#    0.000    1.600    4.000    2.400    3.733    1.067 
#    0.000    0.000    0.000    1.600    0.000    0.000 
#    0.000    0.000    0.000    0.000    0.000    0.000 
#
# Total GULP energy -167193.279163 kJ/mol
# GULP energy per Si atom -5573.109305 kJ/mol
# Density = 2.230094 g / cm^3
# Si number density = 22.351815 Si / 1000 Ang^3
#
#
#
# Elastic Constant Matrix: (Units=GPa)
#
#
# Indices 1 2 3 4 5 6 
#
# 1 67.4871 18.3721 26.9972 0.0000 0.0000 0.0000
# 2 18.3721 125.6663 7.5501 0.0000 0.0000 0.0000
# 3 26.9972 7.5501 85.5933 0.0000 0.0000 0.0000
# 4 0.0000 0.0000 0.0000 -6.2785 0.0000 0.0000
# 5 0.0000 0.0000 0.0000 0.0000 27.3250 0.0000
# 6 0.0000 0.0000 0.0000 0.0000 0.0000 11.4004
#
#
#
# Elastic Compliance Matrix: (Units=1/GPa)
#
#
# Indices 1 2 3 4 5 6 
#
# 1 0.017567 -0.002247 -0.005343 0.000000 0.000000 0.000000
# 2 -0.002247 0.008287 -0.000022 0.000000 0.000000 0.000000
# 3 -0.005343 -0.000022 0.013370 0.000000 0.000000 0.000000
# 4 0.000000 0.000000 0.000000 -0.159274 0.000000 0.000000
# 5 0.000000 0.000000 0.000000 0.000000 0.036597 0.000000
# 6 0.000000 0.000000 0.000000 0.000000 0.000000 0.087716
#
#
# Mechanical properties :
#
#
# Convention : Reuss Voigt Hill
#
# Bulk Modulus (GPa) = 41.66603 42.73173 42.19888
# Shear Modulus (GPa) = 181.90627 21.54453 101.72540
#
# Velocity S-wave (km/s) = 9.03105 3.10801 6.75350
# Velocity P-wave (km/s) = 11.28840 5.66030 8.92936
#
# Compressibility (1/GPa) = 0.02400037
#
# Stress axis : x y z
#
# Youngs Moduli (GPa) = 56.92625 120.66427 74.79314
#
# Poissons Ratio (x) = 0.27116 0.39958
# Poissons Ratio (y) = 0.12793 0.00166
# Poissons Ratio (z) = 0.30413 0.00268
#
# Static dielectric constant tensor:
#      x y z
#    x 1.979690 0.000000 0.000000 
#    y 0.000000 1.943910 0.000000 
#    z 0.000000 0.000000 1.846820 
# 
# From -- ./inp_files/27554.got.cif
#   From: 2010.05.17/outbox.cif.g08.bks.cpg/sg72_14_cif.got.tgz:27554.got - 2010.06.03 17:03:01.
