data_PCOD9526700
_publ_section_title
;
Structure prediction by ZEFSAII (Michael W. Deem and Ramdas Pophale) SiO2 
 PCOD9526700
Probable space group: I B A M
;
_chemical_formula_sum "Si O2"
_cell_formula_units_Z 96
_cell_length_a 10.014965
_cell_length_b 20.975027
_cell_length_c 25.981363
_cell_angle_alpha 90.000000
_cell_angle_beta 90.000000
_cell_angle_gamma 90.000000
_cell_volume 5457.753227
_symmetry_space_group_name_H-M "I B A M"
_symmetry_group_IT_number 72
_symmetry_cell_setting 'orthorhombic'
loop_
_space_group_symop_operation_xyz
x,y,z
-x,-y,z
x,-y,1/2-z
-x,y,1/2-z
-x,-y,-z
x,y,-z
-x,y,1/2+z
x,-y,1/2+z
1/2+x,1/2+y,1/2+z
1/2-x,1/2-y,1/2+z
1/2+x,1/2-y,-z
1/2-x,1/2+y,-z
1/2-x,1/2-y,1/2-z
1/2+x,1/2+y,1/2-z
1/2-x,1/2+y,z
1/2+x,1/2-y,z
loop_
_atom_site_type_symbol
_atom_site_label
_atom_site_fract_x
_atom_site_fract_y
_atom_site_fract_z
Si Si1 0.019306 0.281281 0.690984
Si Si2 0.027359 0.144693 0.346038
Si Si3 0.767784 0.385514 0.183330
Si Si4 0.397714 0.558903 0.441190
Si Si5 0.191442 0.394628 0.799708
Si Si6 0.147712 0.500216 0.615358
O O1 0.010164 0.220787 0.654313
O O2 0.907081 0.336087 0.686698
O O3 0.000000 0.257596 0.750000
O O4 0.160626 0.316536 0.682187
O O5 0.891382 0.117907 0.321499
O O6 0.054120 0.112793 0.401364
O O7 0.157813 0.126496 0.312945
O O8 0.813405 0.410371 0.239333
O O9 0.816152 0.430736 0.137319
O O10 0.500000 0.500000 0.437910
O O11 0.391418 0.581273 0.500000
O O12 0.257233 0.529849 0.422375
O O13 0.150719 0.453650 0.834840
O O14 0.000000 0.500000 0.592758
#
# Coordination Sequence:
#
# PCOD9526700 Si02
#       6
#    16  16  16  16  16  16
#     4  10  20  34  53  80 119 162 187 212 263 334
#     4  11  21  35  56  81 109 147 191 234 274 334
#     4  11  20  33  53  84 117 157 187 218 268 330
#     4  10  22  42  63  82 102 134 186 244 300 337
#     4  10  21  32  52  82 121 156 187 222 263 328
#     4  11  21  36  57  85 113 148 189 233 281 330
#
# _framework density 17.589655
#
# number of rings (size 3 to 8) (size 9 to 14) (size 15 to 20)
#    0.000    1.500    3.333    3.000    0.000    3.667 
#    0.000    1.667    0.000   10.000    0.000    0.000 
#    0.000    0.000    0.000    0.000    0.000    0.000 
#
# Total GULP energy -267946.456802 kJ/mol
# GULP energy per Si atom -5582.217850 kJ/mol
# Density = 1.754962 g / cm^3
# Si number density = 17.589655 Si / 1000 Ang^3
#
#
#
# Elastic Constant Matrix: (Units=GPa)
#
#
# Indices 1 2 3 4 5 6 
#
# 1 113.0866 10.7620 16.0774 0.0000 0.0000 0.0000
# 2 10.7620 56.4718 32.8837 0.0000 0.0000 0.0000
# 3 16.0774 32.8837 81.4724 0.0000 0.0000 0.0000
# 4 0.0000 0.0000 0.0000 20.2376 0.0000 0.0000
# 5 0.0000 0.0000 0.0000 0.0000 11.8485 0.0000
# 6 0.0000 0.0000 0.0000 0.0000 0.0000 17.5241
#
#
#
# Elastic Compliance Matrix: (Units=1/GPa)
#
#
# Indices 1 2 3 4 5 6 
#
# 1 0.009133 -0.000903 -0.001438 0.000000 0.000000 0.000000
# 2 -0.000903 0.023238 -0.009201 0.000000 0.000000 0.000000
# 3 -0.001438 -0.009201 0.016271 0.000000 0.000000 0.000000
# 4 0.000000 0.000000 0.000000 0.049413 0.000000 0.000000
# 5 0.000000 0.000000 0.000000 0.000000 0.084399 0.000000
# 6 0.000000 0.000000 0.000000 0.000000 0.000000 0.057064
#
#
# Mechanical properties :
#
#
# Convention : Reuss Voigt Hill
#
# Bulk Modulus (GPa) = 39.12594 41.16411 40.14502
# Shear Modulus (GPa) = 18.44190 22.67591 20.55890
#
# Velocity S-wave (km/s) = 3.24149 3.59438 3.42249
# Velocity P-wave (km/s) = 6.02509 6.37804 6.20408
#
# Compressibility (1/GPa) = 0.02555849
#
# Stress axis : x y z
#
# Youngs Moduli (GPa) = 109.49130 43.03327 61.45733
#
# Poissons Ratio (x) = 0.03887 0.08836
# Poissons Ratio (y) = 0.09891 0.56546
# Poissons Ratio (z) = 0.15741 0.39595
#
# Static dielectric constant tensor:
#      x y z
#    x 1.626110 0.000000 0.000000 
#    y 0.000000 1.590660 0.000000 
#    z 0.000000 0.000000 1.562850 
# 
# From -- ./inp_files/42406.got.cif
#   From: 2010.05.17/outbox.cif.g08.bks.cpg/sg72_22_cif.got.tgz:42406.got - 2010.06.03 17:03:01.
