data_PCOD9526607
_publ_section_title
;
Structure prediction by ZEFSAII (Michael W. Deem and Ramdas Pophale) SiO2 
 PCOD9526607
Probable space group: I B A M
;
_chemical_formula_sum "Si O2"
_cell_formula_units_Z 88
_cell_length_a 22.005647
_cell_length_b 22.066494
_cell_length_c 9.834613
_cell_angle_alpha 90.000000
_cell_angle_beta 90.000000
_cell_angle_gamma 90.000000
_cell_volume 4775.564919
_symmetry_space_group_name_H-M "I B A M"
_symmetry_group_IT_number 72
_symmetry_cell_setting 'orthorhombic'
loop_
_space_group_symop_operation_xyz
x,y,z
-x,-y,z
x,-y,1/2-z
-x,y,1/2-z
-x,-y,-z
x,y,-z
-x,y,1/2+z
x,-y,1/2+z
1/2+x,1/2+y,1/2+z
1/2-x,1/2-y,1/2+z
1/2+x,1/2-y,-z
1/2-x,1/2+y,-z
1/2-x,1/2-y,1/2-z
1/2+x,1/2+y,1/2-z
1/2-x,1/2+y,z
1/2+x,1/2-y,z
loop_
_atom_site_type_symbol
_atom_site_label
_atom_site_fract_x
_atom_site_fract_y
_atom_site_fract_z
Si Si1 0.531077 0.567686 0.500000
Si Si2 0.556596 0.838828 0.500000
Si Si3 0.732628 0.060266 0.342965
Si Si4 0.385725 0.128990 0.214113
Si Si5 0.367973 0.572064 0.772932
Si Si6 0.093243 0.136959 0.500000
Si Si7 0.063364 0.276496 0.500000
Si Si8 0.043022 0.557775 0.000000
O O1 0.500000 0.500000 0.500000
O O2 0.574699 0.579922 0.628174
O O3 0.475176 0.612476 0.500000
O O4 0.594760 0.853552 0.365586
O O5 0.511215 0.780112 0.500000
O O6 0.504566 0.888584 0.500000
O O7 0.720152 0.044073 0.500000
O O8 0.684542 0.111052 0.297123
O O9 0.801471 0.084703 0.333231
O O10 0.726801 0.000000 0.250000
O O11 0.408928 0.186083 0.126528
O O12 0.417921 0.071086 0.136991
O O13 0.367605 0.500000 0.750000
O O14 0.376107 0.608761 0.634089
O O15 0.088704 0.208994 0.500000
O O16 0.000000 0.500000 0.000000
#
# Coordination Sequence:
#
# PCOD9526607 Si02
#       8
#     8   8  16  16  16   8   8   8
#     4  12  22  38  63  95 133 161 192 254 328 399
#     4  10  22  35  60  92 119 166 219 265 318 363
#     4  11  24  41  64  94 132 172 214 265 326 384
#     4  10  22  40  63  85 129 175 211 274 315 367
#     4  11  23  41  63  96 135 159 202 263 323 383
#     4  12  26  39  71 101 123 169 213 250 319 405
#     4  10  22  47  61  87 135 172 212 260 322 372
#     4  10  20  33  53  83 128 168 207 269 324 379
#
# _framework density 18.427139
#
# number of rings (size 3 to 8) (size 9 to 14) (size 15 to 20)
#    0.000    1.455    4.545    2.727    7.636    3.636 
#    0.000    0.909    0.000    0.000    0.000    0.000 
#    0.000    0.000    0.000    0.000    0.000    0.000 
#
# Total GULP energy -245226.738265 kJ/mol
# GULP energy per Si atom -5573.334961 kJ/mol
# Density = 1.838520 g / cm^3
# Si number density = 18.427139 Si / 1000 Ang^3
#
#
#
# Elastic Constant Matrix: (Units=GPa)
#
#
# Indices 1 2 3 4 5 6 
#
# 1 112.6098 34.8901 55.7871 0.0000 0.0000 0.0000
# 2 34.8901 90.0209 39.0059 0.0000 0.0000 0.0000
# 3 55.7871 39.0059 167.4242 0.0000 0.0000 0.0000
# 4 0.0000 0.0000 0.0000 11.4682 0.0000 0.0000
# 5 0.0000 0.0000 0.0000 0.0000 48.9273 0.0000
# 6 0.0000 0.0000 0.0000 0.0000 0.0000 -145.5640
#
#
#
# Elastic Compliance Matrix: (Units=1/GPa)
#
#
# Indices 1 2 3 4 5 6 
#
# 1 0.011351 -0.003070 -0.003067 0.000000 0.000000 0.000000
# 2 -0.003070 0.013186 -0.002049 0.000000 0.000000 0.000000
# 3 -0.003067 -0.002049 0.007472 0.000000 0.000000 0.000000
# 4 0.000000 0.000000 0.000000 0.087198 0.000000 0.000000
# 5 0.000000 0.000000 0.000000 0.000000 0.020438 0.000000
# 6 0.000000 0.000000 0.000000 0.000000 0.000000 -0.006870
#
#
# Mechanical properties :
#
#
# Convention : Reuss Voigt Hill
#
# Bulk Modulus (GPa) = 63.95207 69.93569 66.94388
# Shear Modulus (GPa) = 32.39164 -1.00891 15.69136
#
# Velocity S-wave (km/s) = 4.19719 -0.74075 2.92127
# Velocity P-wave (km/s) = 7.63343 6.10765 6.91276
#
# Compressibility (1/GPa) = 0.01563671
#
# Stress axis : x y z
#
# Youngs Moduli (GPa) = 88.09889 75.83563 133.83079
#
# Poissons Ratio (x) = 0.23285 0.41044
# Poissons Ratio (y) = 0.27051 0.27422
# Poissons Ratio (z) = 0.27019 0.15539
#
# Static dielectric constant tensor:
#      x y z
#    x 1.693660 0.000000 0.000000 
#    y 0.000000 1.473040 0.000000 
#    z 0.000000 0.000000 1.642190 
# 
# From -- ./inp_files/5822.got.cif
#   From: 2010.05.17/outbox.cif.g08.bks.cpg/sg72_3_cif.got.tgz:5822.got - 2010.06.03 17:03:01.
