data_PCOD9526773
_publ_section_title
;
Structure prediction by ZEFSAII (Michael W. Deem and Ramdas Pophale) SiO2 
 PCOD9526773
Probable space group: I B A M
;
_chemical_formula_sum "Si O2"
_cell_formula_units_Z 80
_cell_length_a 9.606767
_cell_length_b 13.265249
_cell_length_c 28.049834
_cell_angle_alpha 90.000000
_cell_angle_beta 90.000000
_cell_angle_gamma 90.000000
_cell_volume 3574.563031
_symmetry_space_group_name_H-M "I B A M"
_symmetry_group_IT_number 72
_symmetry_cell_setting 'orthorhombic'
loop_
_space_group_symop_operation_xyz
x,y,z
-x,-y,z
x,-y,1/2-z
-x,y,1/2-z
-x,-y,-z
x,y,-z
-x,y,1/2+z
x,-y,1/2+z
1/2+x,1/2+y,1/2+z
1/2-x,1/2-y,1/2+z
1/2+x,1/2-y,-z
1/2-x,1/2+y,-z
1/2-x,1/2-y,1/2-z
1/2+x,1/2+y,1/2-z
1/2-x,1/2+y,z
1/2+x,1/2-y,z
loop_
_atom_site_type_symbol
_atom_site_label
_atom_site_fract_x
_atom_site_fract_y
_atom_site_fract_z
Si Si1 0.396056 0.584086 0.360283
Si Si2 0.739928 0.250913 0.905565
Si Si3 0.874072 0.800286 0.195318
Si Si4 0.518752 0.881878 0.056658
Si Si5 0.696422 0.093103 0.777769
O O1 0.500000 0.500000 0.378765
O O2 0.340458 0.654399 0.401506
O O3 0.489632 0.646025 0.323040
O O4 0.269287 0.552180 0.326146
O O5 0.722474 0.292268 0.851575
O O6 0.594247 0.199153 0.922076
O O7 0.826142 0.337174 0.933063
O O8 0.805078 0.856462 0.239890
O O9 0.901996 0.684334 0.207939
O O10 0.500000 0.000000 0.073347
O O11 0.495666 0.882921 0.000000
O O12 0.638363 0.000000 0.750000
#
# Coordination Sequence:
#
# PCOD9526773 Si02
#       5
#    16  16  16  16  16
#     4  11  21  36  64  92 129 178 225 272 326 391
#     4  11  24  44  68  97 135 171 218 277 335 404
#     4  10  21  35  57  93 125 169 218 271 321 383
#     4  11  26  47  73 102 134 171 215 276 349 421
#     4  10  20  34  57  85 126 175 222 269 318 378
#
# _framework density 22.380357
#
# number of rings (size 3 to 8) (size 9 to 14) (size 15 to 20)
#    0.000    1.400    4.000    1.200    2.800    0.000 
#    0.000    0.000    0.000    9.600    0.000    0.000 
#    0.000    0.000    0.000    0.000    0.000    0.000 
#
# Total GULP energy -223199.433341 kJ/mol
# GULP energy per Si atom -5579.985834 kJ/mol
# Density = 2.232942 g / cm^3
# Si number density = 22.380357 Si / 1000 Ang^3
#
#
#
# Elastic Constant Matrix: (Units=GPa)
#
#
# Indices 1 2 3 4 5 6 
#
# 1 61.6516 23.3030 -5.3709 0.0000 0.0000 0.0000
# 2 23.3030 91.0632 2.4560 0.0000 0.0000 0.0000
# 3 -5.3709 2.4560 36.4760 0.0000 0.0000 0.0000
# 4 0.0000 0.0000 0.0000 32.0856 0.0000 0.0000
# 5 0.0000 0.0000 0.0000 0.0000 40.1771 0.0000
# 6 0.0000 0.0000 0.0000 0.0000 0.0000 27.6923
#
#
#
# Elastic Compliance Matrix: (Units=1/GPa)
#
#
# Indices 1 2 3 4 5 6 
#
# 1 0.018282 -0.004759 0.003012 0.000000 0.000000 0.000000
# 2 -0.004759 0.012240 -0.001525 0.000000 0.000000 0.000000
# 3 0.003012 -0.001525 0.027961 0.000000 0.000000 0.000000
# 4 0.000000 0.000000 0.000000 0.031167 0.000000 0.000000
# 5 0.000000 0.000000 0.000000 0.000000 0.024890 0.000000
# 6 0.000000 0.000000 0.000000 0.000000 0.000000 0.036111
#
#
# Mechanical properties :
#
#
# Convention : Reuss Voigt Hill
#
# Bulk Modulus (GPa) = 19.25327 25.55190 22.40258
# Shear Modulus (GPa) = 28.65191 31.24452 29.94821
#
# Velocity S-wave (km/s) = 3.58191 3.74045 3.66204
# Velocity P-wave (km/s) = 5.07229 5.48603 5.28321
#
# Compressibility (1/GPa) = 0.05193923
#
# Stress axis : x y z
#
# Youngs Moduli (GPa) = 54.69988 81.69632 35.76349
#
# Poissons Ratio (x) = 0.38883 -0.10773
# Poissons Ratio (y) = 0.26034 0.05454
# Poissons Ratio (z) = -0.16477 0.12459
#
# Static dielectric constant tensor:
#      x y z
#    x 2.001250 0.000000 0.000000 
#    y 0.000000 1.902490 0.000000 
#    z 0.000000 0.000000 1.793910 
# 
# From -- ./inp_files/47969.got.cif
#   From: 2010.05.17/outbox.cif.g08.bks.cpg/sg72_24_cif.got.tgz:47969.got - 2010.06.03 17:03:01.
