data_PCOD9526456
_publ_section_title
;
Structure prediction by ZEFSAII (Michael W. Deem and Ramdas Pophale) SiO2 
 PCOD9526456
Probable space group: I B A M
;
_chemical_formula_sum "Si O2"
_cell_formula_units_Z 88
_cell_length_a 11.824646
_cell_length_b 13.595691
_cell_length_c 26.170145
_cell_angle_alpha 90.000000
_cell_angle_beta 90.000000
_cell_angle_gamma 90.000000
_cell_volume 4207.223294
_symmetry_space_group_name_H-M "I B A M"
_symmetry_group_IT_number 72
_symmetry_cell_setting 'orthorhombic'
loop_
_space_group_symop_operation_xyz
x,y,z
-x,-y,z
x,-y,1/2-z
-x,y,1/2-z
-x,-y,-z
x,y,-z
-x,y,1/2+z
x,-y,1/2+z
1/2+x,1/2+y,1/2+z
1/2-x,1/2-y,1/2+z
1/2+x,1/2-y,-z
1/2-x,1/2+y,-z
1/2-x,1/2-y,1/2-z
1/2+x,1/2+y,1/2-z
1/2-x,1/2+y,z
1/2+x,1/2-y,z
loop_
_atom_site_type_symbol
_atom_site_label
_atom_site_fract_x
_atom_site_fract_y
_atom_site_fract_z
Si Si1 0.773967 0.000000 0.250000
Si Si2 0.927755 0.131866 0.802091
Si Si3 0.642465 0.212500 0.500000
Si Si4 0.185461 0.335261 0.683370
Si Si5 0.597755 0.313762 0.888990
Si Si6 0.970627 0.612943 0.406187
Si Si7 0.398142 0.678907 0.000000
O O1 0.850924 0.035737 0.202646
O O2 0.706674 0.092590 0.269886
O O3 0.852808 0.229014 0.798613
O O4 0.000000 0.130318 0.750000
O O5 0.997378 0.143399 0.853977
O O6 0.616971 0.149766 0.550762
O O7 0.530647 0.283643 0.500000
O O8 0.776305 0.241725 0.500000
O O9 0.293493 0.320857 0.646856
O O10 0.088153 0.381946 0.648590
O O11 0.567185 0.198908 0.903280
O O12 0.609669 0.367814 0.943532
O O13 0.000000 0.500000 0.417639
#
# Coordination Sequence:
#
# PCOD9526456 Si02
#       7
#     8  16   8  16  16  16   8
#     4  12  25  40  65  90 126 176 215 278 337 402
#     4  11  24  41  63  94 129 168 222 269 336 404
#     4  10  19  38  66  96 131 174 226 277 337 407
#     4  11  24  39  64  93 125 171 216 274 333 403
#     4  10  22  40  65  91 130 170 216 275 329 408
#     4  10  22  38  61  95 128 168 218 278 331 396
#     4  10  20  40  66  99 131 178 224 278 349 398
#
# _framework density 20.916408000000001
#
# number of rings (size 3 to 8) (size 9 to 14) (size 15 to 20)
#    0.000    1.455    3.636    1.091    2.545    1.455 
#    0.000    0.000    0.000    3.273    0.000    0.000 
#    0.000    0.000    0.000    0.000    0.000    0.000 
#
# Total GULP energy -245153.186926 kJ/mol
# GULP energy per Si atom -5571.663339 kJ/mol
# Density = 2.086880 g / cm^3
# Si number density = 20.916408 Si / 1000 Ang^3
#
#
#
# Elastic Constant Matrix: (Units=GPa)
#
#
# Indices 1 2 3 4 5 6 
#
# 1 64.6020 9.9330 10.2736 0.0000 0.0000 0.0000
# 2 9.9330 55.9587 13.1959 0.0000 0.0000 0.0000
# 3 10.2736 13.1959 82.3303 0.0000 0.0000 0.0000
# 4 0.0000 0.0000 0.0000 16.0507 0.0000 0.0000
# 5 0.0000 0.0000 0.0000 0.0000 28.8431 0.0000
# 6 0.0000 0.0000 0.0000 0.0000 0.0000 10.8504
#
#
#
# Elastic Compliance Matrix: (Units=1/GPa)
#
#
# Indices 1 2 3 4 5 6 
#
# 1 0.016117 -0.002480 -0.001614 0.000000 0.000000 0.000000
# 2 -0.002480 0.018954 -0.002728 0.000000 0.000000 0.000000
# 3 -0.001614 -0.002728 0.012785 0.000000 0.000000 0.000000
# 4 0.000000 0.000000 0.000000 0.062303 0.000000 0.000000
# 5 0.000000 0.000000 0.000000 0.000000 0.034670 0.000000
# 6 0.000000 0.000000 0.000000 0.000000 0.000000 0.092163
#
#
# Mechanical properties :
#
#
# Convention : Reuss Voigt Hill
#
# Bulk Modulus (GPa) = 29.23012 29.96623 29.59817
# Shear Modulus (GPa) = 19.08101 22.44808 20.76454
#
# Velocity S-wave (km/s) = 3.02363 3.27957 3.15419
# Velocity P-wave (km/s) = 5.11809 5.35710 5.23896
#
# Compressibility (1/GPa) = 0.03421129
#
# Stress axis : x y z
#
# Youngs Moduli (GPa) = 62.04476 52.75930 78.21750
#
# Poissons Ratio (x) = 0.13086 0.12622
# Poissons Ratio (y) = 0.15390 0.21341
# Poissons Ratio (z) = 0.10012 0.14395
#
# Static dielectric constant tensor:
#      x y z
#    x 1.815470 0.000000 0.000000 
#    y 0.000000 1.735840 0.000000 
#    z 0.000000 0.000000 1.744530 
# 
# From -- ./inp_files/48061.got.cif
#   From: 2010.05.17/outbox.cif.g08.bks.cpg/sg72_25_cif.got.tgz:48061.got - 2010.06.03 17:03:01.
