data_PCOD9526892
_publ_section_title
;
Structure prediction by ZEFSAII (Michael W. Deem and Ramdas Pophale) SiO2 
 PCOD9526892
Probable space group: I B A M
;
_chemical_formula_sum "Si O2"
_cell_formula_units_Z 100
_cell_length_a 28.430428
_cell_length_b 20.998744
_cell_length_c 9.279802
_cell_angle_alpha 90.000000
_cell_angle_beta 90.000000
_cell_angle_gamma 90.000000
_cell_volume 5540.072226
_symmetry_space_group_name_H-M "I B A M"
_symmetry_group_IT_number 72
_symmetry_cell_setting 'orthorhombic'
loop_
_space_group_symop_operation_xyz
x,y,z
-x,-y,z
x,-y,1/2-z
-x,y,1/2-z
-x,-y,-z
x,y,-z
-x,y,1/2+z
x,-y,1/2+z
1/2+x,1/2+y,1/2+z
1/2-x,1/2-y,1/2+z
1/2+x,1/2-y,-z
1/2-x,1/2+y,-z
1/2-x,1/2-y,1/2-z
1/2+x,1/2+y,1/2-z
1/2-x,1/2+y,z
1/2+x,1/2-y,z
loop_
_atom_site_type_symbol
_atom_site_label
_atom_site_fract_x
_atom_site_fract_y
_atom_site_fract_z
Si Si1 0.725621 0.308765 0.827009
Si Si2 0.894391 0.567968 0.673484
Si Si3 0.449589 0.817465 0.174108
Si Si4 0.115583 0.805918 0.669750
Si Si5 0.456534 0.376493 0.840420
Si Si6 0.783441 0.566484 0.671370
Si Si7 0.000000 0.000000 0.250000
O O1 0.750000 0.250000 0.750000
O O2 0.670339 0.303975 0.794712
O O3 0.750160 0.375178 0.782557
O O4 0.731342 0.303700 0.000000
O O5 0.903198 0.500000 0.750000
O O6 0.902701 0.565434 0.500000
O O7 0.925812 0.621001 0.751633
O O8 0.838670 0.582518 0.695887
O O9 0.500000 0.806874 0.250000
O O10 0.413685 0.758559 0.199630
O O11 0.454668 0.824943 0.000000
O O12 0.110825 0.818845 0.500000
O O13 0.090667 0.861051 0.758915
O O14 0.500000 0.348130 0.750000
O O15 0.468096 0.451518 0.839581
O O16 0.456439 0.350354 0.000000
O O17 0.773193 0.500000 0.750000
O O18 0.777545 0.557411 0.500000
#
# Coordination Sequence:
#
# PCOD9526892 Si02
#       7
#    16  16  16  16  16  16   4
#     4  10  21  38  59  85 115 150 190 239 286 337
#     4  10  20  36  59  85 112 146 183 226 274 333
#     4  11  23  38  56  81 111 147 185 229 280 332
#     4  10  22  38  57  82 116 151 189 237 285 331
#     4  10  20  35  57  81 110 146 188 231 278 332
#     4   9  19  36  58  84 116 150 187 229 279 331
#     4   8  22  36  58  84 110 148 192 232 278 328
#
# _framework density 18.050305999999999
#
# number of rings (size 3 to 8) (size 9 to 14) (size 15 to 20)
#    0.480    1.600    0.000    3.120    0.000    4.800 
#    1.440    1.600    0.000    0.000    0.000    0.000 
#    0.000    0.000    0.000    0.000    0.000    0.000 
#
# Total GULP energy -278821.602943 kJ/mol
# GULP energy per Si atom -5576.432059 kJ/mol
# Density = 1.800922 g / cm^3
# Si number density = 18.050306 Si / 1000 Ang^3
#
#
#
# Elastic Constant Matrix: (Units=GPa)
#
#
# Indices 1 2 3 4 5 6 
#
# 1 128.3924 84.9753 77.2563 0.0000 0.0000 0.0000
# 2 84.9753 126.8808 59.8870 0.0000 0.0000 0.0000
# 3 77.2563 59.8870 65.6882 0.0000 0.0000 0.0000
# 4 0.0000 0.0000 0.0000 22.8417 0.0000 0.0000
# 5 0.0000 0.0000 0.0000 0.0000 25.3192 0.0000
# 6 0.0000 0.0000 0.0000 0.0000 0.0000 37.7536
#
#
#
# Elastic Compliance Matrix: (Units=1/GPa)
#
#
# Indices 1 2 3 4 5 6 
#
# 1 0.028897 -0.005814 -0.028686 0.000000 0.000000 0.000000
# 2 -0.005814 0.015004 -0.006842 0.000000 0.000000 0.000000
# 3 -0.028686 -0.006842 0.055199 0.000000 0.000000 0.000000
# 4 0.000000 0.000000 0.000000 0.043780 0.000000 0.000000
# 5 0.000000 0.000000 0.000000 0.000000 0.039496 0.000000
# 6 0.000000 0.000000 0.000000 0.000000 0.000000 0.026488
#
#
# Mechanical properties :
#
#
# Convention : Reuss Voigt Hill
#
# Bulk Modulus (GPa) = 60.91056 85.02209 72.96632
# Shear Modulus (GPa) = 16.83392 23.77241 20.30317
#
# Velocity S-wave (km/s) = 3.05718 3.63300 3.35746
# Velocity P-wave (km/s) = 6.80294 8.05005 7.45263
#
# Compressibility (1/GPa) = 0.01641751
#
# Stress axis : x y z
#
# Youngs Moduli (GPa) = 34.60516 66.64816 18.11623
#
# Poissons Ratio (x) = 0.38746 0.51969
# Poissons Ratio (y) = 0.20118 0.12395
# Poissons Ratio (z) = 0.99269 0.45599
#
# Static dielectric constant tensor:
#      x y z
#    x 1.668730 0.000000 0.000000 
#    y 0.000000 1.613440 0.000000 
#    z 0.000000 0.000000 1.614930 
# 
# From -- ./inp_files/8173.got.cif
#   From: 2010.05.17/outbox.cif.g08.bks.cpg/sg72_5_cif.got.tgz:8173.got - 2010.06.03 17:03:01.
