data_PCOD9526396
_publ_section_title
;
Structure prediction by ZEFSAII (Michael W. Deem and Ramdas Pophale) SiO2 
 PCOD9526396
Probable space group: I B A M
;
_chemical_formula_sum "Si O2"
_cell_formula_units_Z 80
_cell_length_a 12.739688
_cell_length_b 9.885725
_cell_length_c 24.651982
_cell_angle_alpha 90.000000
_cell_angle_beta 90.000000
_cell_angle_gamma 90.000000
_cell_volume 3104.696551
_symmetry_space_group_name_H-M "I B A M"
_symmetry_group_IT_number 72
_symmetry_cell_setting 'orthorhombic'
loop_
_space_group_symop_operation_xyz
x,y,z
-x,-y,z
x,-y,1/2-z
-x,y,1/2-z
-x,-y,-z
x,y,-z
-x,y,1/2+z
x,-y,1/2+z
1/2+x,1/2+y,1/2+z
1/2-x,1/2-y,1/2+z
1/2+x,1/2-y,-z
1/2-x,1/2+y,-z
1/2-x,1/2-y,1/2-z
1/2+x,1/2+y,1/2-z
1/2-x,1/2+y,z
1/2+x,1/2-y,z
loop_
_atom_site_type_symbol
_atom_site_label
_atom_site_fract_x
_atom_site_fract_y
_atom_site_fract_z
Si Si1 0.613272 0.053709 0.565816
Si Si2 0.756500 0.712681 0.063537
Si Si3 0.085572 0.903753 0.382209
Si Si4 0.584107 0.232293 0.213681
Si Si5 0.711551 0.586188 0.203192
O O1 0.604355 0.062907 0.500000
O O2 0.698744 0.935998 0.577379
O O3 0.500000 0.000000 0.586408
O O4 0.657406 0.199280 0.586526
O O5 0.851855 0.815587 0.075055
O O6 0.734459 0.701754 0.000000
O O7 0.032842 0.805066 0.337886
O O8 0.158105 0.996650 0.342607
O O9 0.000000 0.000000 0.408667
O O10 0.500000 0.151894 0.250000
O O11 0.627513 0.335798 0.259583
O O12 0.692071 0.179549 0.186169
O O13 0.769099 0.500000 0.250000
#
# Coordination Sequence:
#
# PCOD9526396 Si02
#       5
#    16  16  16  16  16
#     4   9  20  43  69  94 130 179 229 283 342 402
#     4  10  23  41  65  97 136 178 223 279 339 403
#     4  11  22  37  63  91 124 169 221 268 333 403
#     4  10  19  37  62  84 118 159 206 264 332 396
#     4   9  20  36  58  87 115 156 203 263 319 391
#
# _framework density 25.767413999999999
#
# number of rings (size 3 to 8) (size 9 to 14) (size 15 to 20)
#    0.000    2.200    2.000    0.000    2.800    2.400 
#    0.000    4.000    0.000    0.000    0.000    0.000 
#    0.000    0.000    0.000    0.000    0.000    0.000 
#
# Total GULP energy -223057.265787 kJ/mol
# GULP energy per Si atom -5576.431645 kJ/mol
# Density = 2.570877 g / cm^3
# Si number density = 25.767414 Si / 1000 Ang^3
#
#
#
# Elastic Constant Matrix: (Units=GPa)
#
#
# Indices 1 2 3 4 5 6 
#
# 1 78.2999 33.9763 16.3188 0.0000 0.0000 0.0000
# 2 33.9763 97.8484 10.7960 0.0000 0.0000 0.0000
# 3 16.3188 10.7960 18.5501 0.0000 0.0000 0.0000
# 4 0.0000 0.0000 0.0000 8.3323 0.0000 0.0000
# 5 0.0000 0.0000 0.0000 0.0000 41.6546 0.0000
# 6 0.0000 0.0000 0.0000 0.0000 0.0000 30.1559
#
#
#
# Elastic Compliance Matrix: (Units=1/GPa)
#
#
# Indices 1 2 3 4 5 6 
#
# 1 0.017422 -0.004657 -0.012615 0.000000 0.000000 0.000000
# 2 -0.004657 0.012166 -0.002983 0.000000 0.000000 0.000000
# 3 -0.012615 -0.002983 0.066743 0.000000 0.000000 0.000000
# 4 0.000000 0.000000 0.000000 0.120014 0.000000 0.000000
# 5 0.000000 0.000000 0.000000 0.000000 0.024007 0.000000
# 6 0.000000 0.000000 0.000000 0.000000 0.000000 0.033161
#
#
# Mechanical properties :
#
#
# Convention : Reuss Voigt Hill
#
# Bulk Modulus (GPa) = 17.91548 35.20897 26.56223
# Shear Modulus (GPa) = 15.03164 24.93571 19.98368
#
# Velocity S-wave (km/s) = 2.41790 3.11420 2.78787
# Velocity P-wave (km/s) = 3.84225 5.15992 4.54905
#
# Compressibility (1/GPa) = 0.05581765
#
# Stress axis : x y z
#
# Youngs Moduli (GPa) = 57.39982 82.19425 14.98294
#
# Poissons Ratio (x) = 0.38282 0.18902
# Poissons Ratio (y) = 0.26734 0.04470
# Poissons Ratio (z) = 0.72413 0.24522
#
# Static dielectric constant tensor:
#      x y z
#    x 2.096330 0.000000 0.000000 
#    y 0.000000 2.218660 0.000000 
#    z 0.000000 0.000000 2.828490 
# 
# From -- ./inp_files/51242.got.cif
#   From: 2010.05.17/outbox.cif.g08.bks.cpg/sg72_26_cif.got.tgz:51242.got - 2010.06.03 17:03:01.
