data_PCOD9526676
_publ_section_title
;
Structure prediction by ZEFSAII (Michael W. Deem and Ramdas Pophale) SiO2 
 PCOD9526676
Probable space group: I B A M
;
_chemical_formula_sum "Si O2"
_cell_formula_units_Z 96
_cell_length_a 28.727746
_cell_length_b 18.827115
_cell_length_c 9.217929
_cell_angle_alpha 90.000000
_cell_angle_beta 90.000000
_cell_angle_gamma 90.000000
_cell_volume 4985.614404
_symmetry_space_group_name_H-M "I B A M"
_symmetry_group_IT_number 72
_symmetry_cell_setting 'orthorhombic'
loop_
_space_group_symop_operation_xyz
x,y,z
-x,-y,z
x,-y,1/2-z
-x,y,1/2-z
-x,-y,-z
x,y,-z
-x,y,1/2+z
x,-y,1/2+z
1/2+x,1/2+y,1/2+z
1/2-x,1/2-y,1/2+z
1/2+x,1/2-y,-z
1/2-x,1/2+y,-z
1/2-x,1/2-y,1/2-z
1/2+x,1/2+y,1/2-z
1/2-x,1/2+y,z
1/2+x,1/2-y,z
loop_
_atom_site_type_symbol
_atom_site_label
_atom_site_fract_x
_atom_site_fract_y
_atom_site_fract_z
Si Si1 0.548600 0.282993 0.329505
Si Si2 0.724008 0.576289 0.672105
Si Si3 0.645428 0.684002 0.326991
Si Si4 0.706926 0.183143 0.164246
Si Si5 0.046387 0.388602 0.667780
Si Si6 0.865323 0.440667 0.338779
O O1 0.500000 0.303841 0.250000
O O2 0.547028 0.302365 0.500000
O O3 0.596079 0.310485 0.254192
O O4 0.551005 0.196973 0.321268
O O5 0.728042 0.500000 0.750000
O O6 0.733490 0.568966 0.500000
O O7 0.672236 0.609529 0.690546
O O8 0.757636 0.637246 0.739294
O O9 0.638063 0.696536 0.500000
O O10 0.682897 0.744784 0.278345
O O11 0.663612 0.130345 0.151181
O O12 0.725720 0.196166 0.000000
O O13 0.043992 0.407544 0.500000
O O14 0.089455 0.423430 0.747244
O O15 0.000000 0.409779 0.750000
O O16 0.837617 0.500000 0.250000
O O17 0.875779 0.465985 0.500000
#
# Coordination Sequence:
#
# PCOD9526676 Si02
#       6
#    16  16  16  16  16  16
#     4  10  20  34  58  89 120 154 190 238 291 348
#     4  11  24  40  61  87 121 159 196 241 294 351
#     4  10  21  39  62  90 120 154 196 244 293 346
#     4  10  21  38  60  85 115 151 195 244 291 341
#     4  10  20  34  52  75 104 141 186 233 286 342
#     4  11  22  35  52  74 106 147 189 238 288 339
#
# _framework density 19.255400000000002
#
# number of rings (size 3 to 8) (size 9 to 14) (size 15 to 20)
#    0.000    1.667    1.667    3.000    0.000    6.333 
#    0.000    1.667    0.000    0.500    0.000    3.500 
#    0.000    0.000    0.000    0.000    0.000    0.000 
#
# Total GULP energy -267876.290390 kJ/mol
# GULP energy per Si atom -5580.756050 kJ/mol
# Density = 1.921157 g / cm^3
# Si number density = 19.255400 Si / 1000 Ang^3
#
#
#
# Elastic Constant Matrix: (Units=GPa)
#
#
# Indices 1 2 3 4 5 6 
#
# 1 125.4616 58.2068 81.8956 0.0000 0.0000 0.0000
# 2 58.2068 59.8418 42.6299 0.0000 0.0000 0.0000
# 3 81.8956 42.6299 145.2436 0.0000 0.0000 0.0000
# 4 0.0000 0.0000 0.0000 19.0904 0.0000 0.0000
# 5 0.0000 0.0000 0.0000 0.0000 23.5953 0.0000
# 6 0.0000 0.0000 0.0000 0.0000 0.0000 144.3482
#
#
#
# Elastic Compliance Matrix: (Units=1/GPa)
#
#
# Indices 1 2 3 4 5 6 
#
# 1 0.018310 -0.013219 -0.006444 0.000000 0.000000 0.000000
# 2 -0.013219 0.030672 -0.001549 0.000000 0.000000 0.000000
# 3 -0.006444 -0.001549 0.010973 0.000000 0.000000 0.000000
# 4 0.000000 0.000000 0.000000 0.052382 0.000000 0.000000
# 5 0.000000 0.000000 0.000000 0.000000 0.042381 0.000000
# 6 0.000000 0.000000 0.000000 0.000000 0.000000 0.006928
#
#
# Mechanical properties :
#
#
# Convention : Reuss Voigt Hill
#
# Bulk Modulus (GPa) = 57.04219 77.33461 67.18840
# Shear Modulus (GPa) = 23.81933 47.26110 35.54022
#
# Velocity S-wave (km/s) = 3.52095 4.95960 4.30085
# Velocity P-wave (km/s) = 6.79836 8.54673 7.72219
#
# Compressibility (1/GPa) = 0.01753088
#
# Stress axis : x y z
#
# Youngs Moduli (GPa) = 54.61568 32.60324 91.13168
#
# Poissons Ratio (x) = 0.43098 0.58727
# Poissons Ratio (y) = 0.72196 0.14116
# Poissons Ratio (z) = 0.35195 0.05050
#
# Static dielectric constant tensor:
#      x y z
#    x 1.680930 0.000000 0.000000 
#    y 0.000000 1.690950 0.000000 
#    z 0.000000 0.000000 1.716250 
# 
# From -- ./inp_files/5981.got.cif
#   From: 2010.05.17/outbox.cif.g08.bks.cpg/sg72_3_cif.got.tgz:5981.got - 2010.06.03 17:03:01.
