data_PCOD9526802
_publ_section_title
;
Structure prediction by ZEFSAII (Michael W. Deem and Ramdas Pophale) SiO2 
 PCOD9526802
Probable space group: I B A M
;
_chemical_formula_sum "Si O2"
_cell_formula_units_Z 96
_cell_length_a 9.895433
_cell_length_b 27.663501
_cell_length_c 16.696759
_cell_angle_alpha 90.000000
_cell_angle_beta 90.000000
_cell_angle_gamma 90.000000
_cell_volume 4570.609557
_symmetry_space_group_name_H-M "I B A M"
_symmetry_group_IT_number 72
_symmetry_cell_setting 'orthorhombic'
loop_
_space_group_symop_operation_xyz
x,y,z
-x,-y,z
x,-y,1/2-z
-x,y,1/2-z
-x,-y,-z
x,y,-z
-x,y,1/2+z
x,-y,1/2+z
1/2+x,1/2+y,1/2+z
1/2-x,1/2-y,1/2+z
1/2+x,1/2-y,-z
1/2-x,1/2+y,-z
1/2-x,1/2-y,1/2-z
1/2+x,1/2+y,1/2-z
1/2-x,1/2+y,z
1/2+x,1/2-y,z
loop_
_atom_site_type_symbol
_atom_site_label
_atom_site_fract_x
_atom_site_fract_y
_atom_site_fract_z
Si Si1 0.965118 0.851151 0.343208
Si Si2 0.798192 0.317831 0.407655
Si Si3 0.065346 0.953378 0.341986
Si Si4 0.617530 0.968647 0.167782
Si Si5 0.060573 0.354637 0.665430
Si Si6 0.199139 0.794168 0.405768
O O1 0.805743 0.848441 0.355183
O O2 0.000000 0.846242 0.250000
O O3 0.022378 0.901799 0.375025
O O4 0.044948 0.809434 0.389374
O O5 0.756855 0.321618 0.500000
O O6 0.949068 0.337252 0.397776
O O7 0.785971 0.261837 0.383120
O O8 0.224552 0.962058 0.351898
O O9 0.000000 0.951702 0.250000
O O10 0.000000 0.000000 0.381297
O O11 0.570215 0.912841 0.169948
O O12 0.500000 0.000000 0.122616
O O13 0.628862 0.000000 0.250000
O O14 0.000000 0.337467 0.750000
O O15 0.201815 0.329233 0.643890
O O16 0.229273 0.799239 0.500000
#
# Coordination Sequence:
#
# PCOD9526802 Si02
#       6
#    16  16  16  16  16  16
#     4  11  23  38  67 100 129 164 221 282 324 382
#     4  11  26  44  65  92 135 186 219 262 339 408
#     4  10  20  34  60  93 129 163 204 263 325 389
#     4  11  21  36  62  98 133 170 210 271 336 402
#     4  12  24  39  67 104 131 167 228 286 322 385
#     4  11  24  45  65  89 133 186 223 262 334 407
#
# _framework density 21.003762999999999
#
# number of rings (size 3 to 8) (size 9 to 14) (size 15 to 20)
#    0.000    1.000    5.000    3.000    4.667    6.667 
#    0.000    0.000    0.000    6.000    0.000    0.000 
#    0.000    0.000    0.000    0.000    0.000    0.000 
#
# Total GULP energy -267714.561924 kJ/mol
# GULP energy per Si atom -5577.386707 kJ/mol
# Density = 2.095596 g / cm^3
# Si number density = 21.003763 Si / 1000 Ang^3
#
#
#
# Elastic Constant Matrix: (Units=GPa)
#
#
# Indices 1 2 3 4 5 6 
#
# 1 107.5035 26.2359 -3.7616 0.0000 0.0000 0.0000
# 2 26.2359 114.4612 18.0044 0.0000 0.0000 0.0000
# 3 -3.7616 18.0044 27.3949 0.0001 -0.0001 -0.0001
# 4 0.0000 0.0000 0.0001 13.2578 0.0000 0.0000
# 5 0.0000 0.0000 -0.0001 0.0000 26.4899 0.0000
# 6 0.0000 0.0000 -0.0001 0.0000 0.0000 40.8204
#
#
#
# Elastic Compliance Matrix: (Units=1/GPa)
#
#
# Indices 1 2 3 4 5 6 
#
# 1 0.010105 -0.002827 0.003245 0.000000 0.000000 0.000000
# 2 -0.002827 0.010535 -0.007312 0.000000 0.000000 0.000000
# 3 0.003245 -0.007312 0.041754 0.000000 0.000000 0.000000
# 4 0.000000 0.000000 0.000000 0.075428 0.000000 0.000000
# 5 0.000000 0.000000 0.000000 0.000000 0.037750 0.000000
# 6 0.000000 0.000000 0.000000 0.000000 0.000000 0.024498
#
#
# Mechanical properties :
#
#
# Convention : Reuss Voigt Hill
#
# Bulk Modulus (GPa) = 20.57273 36.70189 28.63731
# Shear Modulus (GPa) = 21.73362 30.03902 25.88632
#
# Velocity S-wave (km/s) = 3.22024 3.78587 3.51445
# Velocity P-wave (km/s) = 4.86237 6.05163 5.48930
#
# Compressibility (1/GPa) = 0.04860803
#
# Stress axis : x y z
#
# Youngs Moduli (GPa) = 98.95655 94.92505 23.94975
#
# Poissons Ratio (x) = 0.26833 -0.07773
# Poissons Ratio (y) = 0.27973 0.17511
# Poissons Ratio (z) = -0.32115 0.69406
#
# Static dielectric constant tensor:
#      x y z
#    x 1.802960 0.000000 0.000000 
#    y 0.000000 1.771150 0.000000 
#    z 0.000000 0.000000 1.806210 
# 
# From -- ./inp_files/35993.got.cif
#   From: 2010.05.17/outbox.cif.g08.bks.cpg/sg72_18_cif.got.tgz:35993.got - 2010.06.03 17:03:01.
