data_PCOD9526890
_publ_section_title
;
Structure prediction by ZEFSAII (Michael W. Deem and Ramdas Pophale) SiO2 
 PCOD9526890
Probable space group: I B A M
;
_chemical_formula_sum "Si O2"
_cell_formula_units_Z 84
_cell_length_a 12.584688
_cell_length_b 13.003133
_cell_length_c 24.056125
_cell_angle_alpha 90.000000
_cell_angle_beta 90.000000
_cell_angle_gamma 90.000000
_cell_volume 3936.553240
_symmetry_space_group_name_H-M "I B A M"
_symmetry_group_IT_number 72
_symmetry_cell_setting 'orthorhombic'
loop_
_space_group_symop_operation_xyz
x,y,z
-x,-y,z
x,-y,1/2-z
-x,y,1/2-z
-x,-y,-z
x,y,-z
-x,y,1/2+z
x,-y,1/2+z
1/2+x,1/2+y,1/2+z
1/2-x,1/2-y,1/2+z
1/2+x,1/2-y,-z
1/2-x,1/2+y,-z
1/2-x,1/2-y,1/2-z
1/2+x,1/2+y,1/2-z
1/2-x,1/2+y,z
1/2+x,1/2-y,z
loop_
_atom_site_type_symbol
_atom_site_label
_atom_site_fract_x
_atom_site_fract_y
_atom_site_fract_z
Si Si1 0.630620 0.073146 0.564619
Si Si2 0.481174 0.750741 0.113381
Si Si3 0.338812 0.907049 0.163308
Si Si4 0.596043 0.430048 0.333765
Si Si5 0.131233 0.927354 0.560010
Si Si6 0.500000 0.000000 0.750000
O O1 0.608948 0.042899 0.500000
O O2 0.548787 0.157507 0.586892
O O3 0.749948 0.116572 0.564441
O O4 0.638990 0.981638 0.609981
O O5 0.374630 0.795383 0.141630
O O6 0.549925 0.683790 0.156826
O O7 0.447092 0.667228 0.068098
O O8 0.218466 0.920301 0.186038
O O9 0.423139 0.934980 0.210588
O O10 0.500000 0.500000 0.308494
O O11 0.614287 0.489369 0.392337
O O12 0.120954 0.977203 0.500000
#
# Coordination Sequence:
#
# PCOD9526890 Si02
#       6
#    16  16  16  16  16   4
#     4  10  20  35  56  89 128 163 206 259 313 379
#     4  11  19  34  58  92 124 162 208 256 306 369
#     4  11  23  42  65  90 124 166 214 258 323 375
#     4   9  21  39  63  88 130 167 207 255 304 380
#     4   9  19  33  54  87 131 177 206 243 310 381
#     4  12  24  48  68  88 122 168 212 272 328 372
#
# _framework density 21.338463999999998
#
# number of rings (size 3 to 8) (size 9 to 14) (size 15 to 20)
#    0.000    1.905    1.905    1.714    0.000    6.476 
#    0.000    5.238    0.000    0.000    0.000    0.000 
#    0.000    0.000    0.000    0.000    0.000    0.000 
#
# Total GULP energy -234100.848830 kJ/mol
# GULP energy per Si atom -5573.829734 kJ/mol
# Density = 2.128990 g / cm^3
# Si number density = 21.338464 Si / 1000 Ang^3
#
#
#
# Elastic Constant Matrix: (Units=GPa)
#
#
# Indices 1 2 3 4 5 6 
#
# 1 180.2117 38.4261 23.5509 0.0000 0.0000 0.0000
# 2 38.4261 60.5434 12.9844 0.0000 0.0000 0.0000
# 3 23.5509 12.9844 78.5186 0.0000 0.0000 0.0000
# 4 0.0000 0.0000 0.0000 -8.3351 0.0000 0.0000
# 5 0.0000 0.0000 0.0000 0.0000 26.9732 0.0000
# 6 0.0000 0.0000 0.0000 0.0000 0.0000 32.3812
#
#
#
# Elastic Compliance Matrix: (Units=1/GPa)
#
#
# Indices 1 2 3 4 5 6 
#
# 1 0.006548 -0.003872 -0.001324 0.000000 0.000000 0.000000
# 2 -0.003872 0.019414 -0.002049 0.000000 0.000000 0.000000
# 3 -0.001324 -0.002049 0.013472 0.000000 0.000000 0.000000
# 4 0.000000 0.000000 0.000000 -0.119975 0.000000 0.000000
# 5 0.000000 0.000000 0.000000 0.000000 0.037074 0.000000
# 6 0.000000 0.000000 0.000000 0.000000 0.000000 0.030882
#
#
# Mechanical properties :
#
#
# Convention : Reuss Voigt Hill
#
# Bulk Modulus (GPa) = 40.08959 52.13296 46.11128
# Shear Modulus (GPa) = 489.34402 26.49135 257.91768
#
# Velocity S-wave (km/s) = 15.15990 3.52729 11.00601
# Velocity P-wave (km/s) = 18.03493 6.40886 13.53388
#
# Compressibility (1/GPa) = 0.02494413
#
# Stress axis : x y z
#
# Youngs Moduli (GPa) = 152.72824 51.50939 74.22970
#
# Poissons Ratio (x) = 0.19943 0.09825
# Poissons Ratio (y) = 0.59133 0.15211
# Poissons Ratio (z) = 0.20215 0.10555
#
# Static dielectric constant tensor:
#      x y z
#    x 1.849100 0.000000 0.000000 
#    y 0.000000 1.764490 0.000000 
#    z 0.000000 0.000000 1.809970 
# 
# From -- ./inp_files/44136.got.cif
#   From: 2010.05.17/outbox.cif.g08.bks.cpg/sg72_23_cif.got.tgz:44136.got - 2010.06.03 17:03:01.
