data_PCOD9526052
_publ_section_title
;
Structure prediction by ZEFSAII (Michael W. Deem and Ramdas Pophale) SiO2 
 PCOD9526052
Probable space group: I B A M
;
_chemical_formula_sum "Si O2"
_cell_formula_units_Z 112
_cell_length_a 15.550267
_cell_length_b 16.585156
_cell_length_c 24.582648
_cell_angle_alpha 90.000000
_cell_angle_beta 90.000000
_cell_angle_gamma 90.000000
_cell_volume 6339.953516
_symmetry_space_group_name_H-M "I B A M"
_symmetry_group_IT_number 72
_symmetry_cell_setting 'orthorhombic'
loop_
_space_group_symop_operation_xyz
x,y,z
-x,-y,z
x,-y,1/2-z
-x,y,1/2-z
-x,-y,-z
x,y,-z
-x,y,1/2+z
x,-y,1/2+z
1/2+x,1/2+y,1/2+z
1/2-x,1/2-y,1/2+z
1/2+x,1/2-y,-z
1/2-x,1/2+y,-z
1/2-x,1/2-y,1/2-z
1/2+x,1/2+y,1/2-z
1/2-x,1/2+y,z
1/2+x,1/2-y,z
loop_
_atom_site_type_symbol
_atom_site_label
_atom_site_fract_x
_atom_site_fract_y
_atom_site_fract_z
Si Si1 0.254030 0.413060 0.228624
Si Si2 0.304731 0.103719 0.938945
Si Si3 0.218323 0.928994 0.062797
Si Si4 0.845181 0.332978 0.368656
Si Si5 0.303162 0.342697 0.661999
Si Si6 0.995054 0.595398 0.938045
Si Si7 0.601325 0.512797 0.843434
O O1 0.224069 0.500000 0.250000
O O2 0.189090 0.383607 0.182688
O O3 0.260821 0.350850 0.278419
O O4 0.347615 0.432975 0.201306
O O5 0.261686 0.147156 0.888288
O O6 0.405788 0.120901 0.936742
O O7 0.281098 0.008119 0.932861
O O8 0.273410 0.125891 0.000000
O O9 0.271233 0.853772 0.086773
O O10 0.135512 0.949598 0.099733
O O11 0.196467 0.917959 0.000000
O O12 0.849475 0.241186 0.349157
O O13 0.933644 0.362216 0.395106
O O14 0.361063 0.422629 0.659851
O O15 0.000000 0.500000 0.927999
O O16 0.961672 0.607369 0.000000
O O17 0.500000 0.500000 0.837554
#
# Coordination Sequence:
#
# PCOD9526052 Si02
#       7
#    16  16  16  16  16  16  16
#     4   9  20  37  59  76 102 149 188 222 274 335
#     4   9  18  35  56  78 107 147 182 215 266 329
#     4   9  17  32  56  81 107 147 185 215 265 332
#     4  11  20  34  55  82 113 141 182 231 278 321
#     4  10  21  36  57  80 111 140 181 236 282 325
#     4  10  19  33  58  83 110 148 187 221 260 330
#     4   9  19  37  60  81 103 142 190 232 271 331
#
# _framework density 17.665745000000001
#
# number of rings (size 3 to 8) (size 9 to 14) (size 15 to 20)
#    0.000    2.429    1.429    1.714    0.000    4.000 
#    5.143    0.714    3.143    0.000    0.000    0.000 
#    0.000    0.000    0.000    0.000    0.000    0.000 
#
# Total GULP energy -311988.116164 kJ/mol
# GULP energy per Si atom -5571.216360 kJ/mol
# Density = 1.762554 g / cm^3
# Si number density = 17.665745 Si / 1000 Ang^3
#
#
#
# Elastic Constant Matrix: (Units=GPa)
#
#
# Indices 1 2 3 4 5 6 
#
# 1 73.1748 21.7208 45.2454 0.0000 0.0000 0.0000
# 2 21.7208 50.5422 44.0303 0.0000 0.0000 0.0000
# 3 45.2454 44.0303 143.3798 0.0000 0.0000 0.0000
# 4 0.0000 0.0000 0.0000 18.8214 0.0000 0.0000
# 5 0.0000 0.0000 0.0000 0.0000 15.5255 0.0000
# 6 0.0000 0.0000 0.0000 0.0000 0.0000 10.7861
#
#
#
# Elastic Compliance Matrix: (Units=1/GPa)
#
#
# Indices 1 2 3 4 5 6 
#
# 1 0.017470 -0.003693 -0.004379 0.000000 0.000000 0.000000
# 2 -0.003693 0.027792 -0.007369 0.000000 0.000000 0.000000
# 3 -0.004379 -0.007369 0.010619 0.000000 0.000000 0.000000
# 4 0.000000 0.000000 0.000000 0.053131 0.000000 0.000000
# 5 0.000000 0.000000 0.000000 0.000000 0.064410 0.000000
# 6 0.000000 0.000000 0.000000 0.000000 0.000000 0.092712
#
#
# Mechanical properties :
#
#
# Convention : Reuss Voigt Hill
#
# Bulk Modulus (GPa) = 40.00152 54.34331 47.17241
# Shear Modulus (GPa) = 16.37466 19.43328 17.90397
#
# Velocity S-wave (km/s) = 3.04783 3.32031 3.18698
# Velocity P-wave (km/s) = 5.92270 6.74744 6.34848
#
# Compressibility (1/GPa) = 0.02499905
#
# Stress axis : x y z
#
# Youngs Moduli (GPa) = 57.24246 35.98103 94.16863
#
# Poissons Ratio (x) = 0.13288 0.41233
# Poissons Ratio (y) = 0.21140 0.69396
# Poissons Ratio (z) = 0.25064 0.26516
#
# Static dielectric constant tensor:
#      x y z
#    x 1.595260 0.000000 0.000000 
#    y 0.000000 1.600880 0.000000 
#    z 0.000000 0.000000 1.635720 
# 
# From -- ./inp_files/44324.got.cif
#   From: 2010.05.17/outbox.cif.g08.bks.cpg/sg72_23_cif.got.tgz:44324.got - 2010.06.03 17:03:01.
