data_PCOD9526995
_publ_section_title
;
Structure prediction by ZEFSAII (Michael W. Deem and Ramdas Pophale) SiO2 
 PCOD9526995
Probable space group: I B A M
;
_chemical_formula_sum "Si O2"
_cell_formula_units_Z 96
_cell_length_a 21.190860
_cell_length_b 8.577365
_cell_length_c 29.100873
_cell_angle_alpha 90.000000
_cell_angle_beta 90.000000
_cell_angle_gamma 90.000000
_cell_volume 5289.425338
_symmetry_space_group_name_H-M "I B A M"
_symmetry_group_IT_number 72
_symmetry_cell_setting 'orthorhombic'
loop_
_space_group_symop_operation_xyz
x,y,z
-x,-y,z
x,-y,1/2-z
-x,y,1/2-z
-x,-y,-z
x,y,-z
-x,y,1/2+z
x,-y,1/2+z
1/2+x,1/2+y,1/2+z
1/2-x,1/2-y,1/2+z
1/2+x,1/2-y,-z
1/2-x,1/2+y,-z
1/2-x,1/2-y,1/2-z
1/2+x,1/2+y,1/2-z
1/2-x,1/2+y,z
1/2+x,1/2-y,z
loop_
_atom_site_type_symbol
_atom_site_label
_atom_site_fract_x
_atom_site_fract_y
_atom_site_fract_z
Si Si1 0.269372 0.483354 0.092455
Si Si2 0.827721 0.310154 0.140698
Si Si3 0.440471 0.162935 0.722660
Si Si4 0.340553 0.778522 0.052932
Si Si5 0.564972 0.941725 0.619209
Si Si6 0.680738 0.317051 0.257949
O O1 0.232185 0.572119 0.134081
O O2 0.311353 0.339059 0.109451
O O3 0.309720 0.613723 0.066754
O O4 0.214016 0.408200 0.061629
O O5 0.888309 0.411951 0.127469
O O6 0.836314 0.241759 0.191198
O O7 0.500000 0.238074 0.750000
O O8 0.452175 0.130374 0.669098
O O9 0.374599 0.251748 0.725904
O O10 0.431536 0.000000 0.750000
O O11 0.396916 0.822410 0.087360
O O12 0.359770 0.779815 0.000000
O O13 0.500000 0.000000 0.597519
O O14 0.683122 0.500000 0.250000
O O15 0.750000 0.250000 0.250000
#
# Coordination Sequence:
#
# PCOD9526995 Si02
#       6
#    16  16  16  16  16  16
#     4   9  20  36  60  84 120 148 189 235 301 359
#     4  10  20  36  54  85 116 154 188 237 289 351
#     4  11  21  41  61  81 116 163 202 235 290 355
#     4  10  21  37  63  89 116 150 192 245 300 354
#     4  11  22  39  62  84 114 157 201 242 284 347
#     4  12  25  33  55  86 123 152 194 245 295 342
#
# _framework density 18.149419999999999
#
# number of rings (size 3 to 8) (size 9 to 14) (size 15 to 20)
#    0.000    1.500    3.333    2.000    9.333    0.667 
#    0.000    1.667    0.000    1.000    0.000    0.000 
#    0.000    0.000    0.000    0.000    0.000    0.000 
#
# Total GULP energy -267882.450679 kJ/mol
# GULP energy per Si atom -5580.884389 kJ/mol
# Density = 1.810811 g / cm^3
# Si number density = 18.149420 Si / 1000 Ang^3
#
#
#
# Elastic Constant Matrix: (Units=GPa)
#
#
# Indices 1 2 3 4 5 6 
#
# 1 111.8617 32.7835 17.7698 0.0000 0.0000 0.0000
# 2 32.7835 70.5857 4.2574 0.0000 0.0000 0.0000
# 3 17.7698 4.2574 70.0366 0.0000 0.0000 0.0000
# 4 0.0000 0.0000 0.0000 8.8368 0.0000 0.0000
# 5 0.0000 0.0000 0.0000 0.0000 16.5778 0.0000
# 6 0.0000 0.0000 0.0000 0.0000 0.0000 23.2224
#
#
#
# Elastic Compliance Matrix: (Units=1/GPa)
#
#
# Indices 1 2 3 4 5 6 
#
# 1 0.010746 -0.004844 -0.002432 0.000000 0.000000 0.000000
# 2 -0.004844 0.016403 0.000232 0.000000 0.000000 0.000000
# 3 -0.002432 0.000232 0.014881 0.000000 0.000000 0.000000
# 4 0.000000 0.000000 0.000000 0.113164 0.000000 0.000000
# 5 0.000000 0.000000 0.000000 0.000000 0.060322 0.000000
# 6 0.000000 0.000000 0.000000 0.000000 0.000000 0.043062
#
#
# Mechanical properties :
#
#
# Convention : Reuss Voigt Hill
#
# Bulk Modulus (GPa) = 35.78888 40.23394 38.01141
# Shear Modulus (GPa) = 17.73181 22.90562 20.31872
#
# Velocity S-wave (km/s) = 3.12908 3.55640 3.34956
# Velocity P-wave (km/s) = 5.72858 6.25142 5.99570
#
# Compressibility (1/GPa) = 0.02794164
#
# Stress axis : x y z
#
# Youngs Moduli (GPa) = 93.06130 60.96437 67.19894
#
# Poissons Ratio (x) = 0.29532 0.16342
# Poissons Ratio (y) = 0.45080 -0.01559
# Poissons Ratio (z) = 0.22632 -0.01414
#
# Static dielectric constant tensor:
#      x y z
#    x 2.017640 0.000000 0.000000 
#    y 0.000000 1.618240 0.000000 
#    z 0.000000 0.000000 1.627220 
# 
# From -- ./inp_files/45646.got.cif
#   From: 2010.05.17/outbox.cif.g08.bks.cpg/sg72_23_cif.got.tgz:45646.got - 2010.06.03 17:03:01.
