data_PCOD9526612
_publ_section_title
;
Structure prediction by ZEFSAII (Michael W. Deem and Ramdas Pophale) SiO2 
 PCOD9526612
Probable space group: I B A M
;
_chemical_formula_sum "Si O2"
_cell_formula_units_Z 112
_cell_length_a 15.553012
_cell_length_b 22.595920
_cell_length_c 14.952347
_cell_angle_alpha 90.000000
_cell_angle_beta 90.000000
_cell_angle_gamma 90.000000
_cell_volume 5254.772310
_symmetry_space_group_name_H-M "I B A M"
_symmetry_group_IT_number 72
_symmetry_cell_setting 'orthorhombic'
loop_
_space_group_symop_operation_xyz
x,y,z
-x,-y,z
x,-y,1/2-z
-x,y,1/2-z
-x,-y,-z
x,y,-z
-x,y,1/2+z
x,-y,1/2+z
1/2+x,1/2+y,1/2+z
1/2-x,1/2-y,1/2+z
1/2+x,1/2-y,-z
1/2-x,1/2+y,-z
1/2-x,1/2-y,1/2-z
1/2+x,1/2+y,1/2-z
1/2-x,1/2+y,z
1/2+x,1/2-y,z
loop_
_atom_site_type_symbol
_atom_site_label
_atom_site_fract_x
_atom_site_fract_y
_atom_site_fract_z
Si Si1 0.162783 0.361057 0.101853
Si Si2 0.902327 0.492010 0.642952
Si Si3 0.268459 0.441025 0.395195
Si Si4 0.617597 0.734916 0.600934
Si Si5 0.085835 0.972630 0.102894
Si Si6 0.205715 0.832086 0.740559
Si Si7 0.039608 0.847933 0.160266
O O1 0.125030 0.425965 0.115455
O O2 0.098155 0.304855 0.106666
O O3 0.224709 0.348767 0.185560
O O4 0.200669 0.358948 0.000000
O O5 0.902124 0.500000 0.750000
O O6 0.830488 0.538422 0.609991
O O7 0.000000 0.500000 0.611145
O O8 0.285114 0.424770 0.500000
O O9 0.325990 0.497980 0.365144
O O10 0.295320 0.389201 0.326537
O O11 0.644570 0.722054 0.500000
O O12 0.696963 0.719782 0.666983
O O13 0.534071 0.694182 0.621080
O O14 0.075341 0.902525 0.104826
O O15 0.085288 0.991352 0.000000
O O16 0.000000 0.000000 0.144884
O O17 0.122599 0.815778 0.801008
O O18 0.000000 0.876290 0.250000
#
# Coordination Sequence:
#
# PCOD9526612 Si02
#       7
#    16  16  16  16  16  16  16
#     4  11  24  43  69  96 129 171 218 279 339 402
#     4  11  24  46  69  99 131 172 223 282 349 410
#     4  11  23  39  66  99 137 180 222 275 338 405
#     4  10  22  42  65  93 132 179 225 272 332 395
#     4  10  20  33  53  86 127 171 215 259 316 384
#     4  11  22  41  64  96 134 172 222 275 329 402
#     4  10  21  34  55  85 123 170 216 266 317 383
#
# _framework density 21.313960000000002
#
# number of rings (size 3 to 8) (size 9 to 14) (size 15 to 20)
#    0.000    1.429    1.429    4.286    0.000    6.000 
#    7.714    0.000    0.000    1.714    0.000    0.000 
#    0.000    0.000    0.000    0.000    0.000    0.000 
#
# Total GULP energy -311876.036041 kJ/mol
# GULP energy per Si atom -5569.214929 kJ/mol
# Density = 2.126545 g / cm^3
# Si number density = 21.313960 Si / 1000 Ang^3
#
#
#
# Elastic Constant Matrix: (Units=GPa)
#
#
# Indices 1 2 3 4 5 6 
#
# 1 65.1714 1.1882 35.0202 0.0000 0.0000 0.0000
# 2 1.1882 83.2711 38.0305 -0.0001 0.0000 0.0000
# 3 35.0202 38.0305 132.8241 -0.0003 0.0000 0.0000
# 4 0.0000 -0.0001 -0.0003 66.5358 -0.0001 0.0000
# 5 0.0000 0.0000 0.0000 -0.0001 17.6016 0.0000
# 6 0.0000 0.0000 0.0000 0.0000 0.0000 15.7216
#
#
#
# Elastic Compliance Matrix: (Units=1/GPa)
#
#
# Indices 1 2 3 4 5 6 
#
# 1 0.018229 0.002226 -0.005443 0.000000 0.000000 0.000000
# 2 0.002226 0.014087 -0.004620 0.000000 0.000000 0.000000
# 3 -0.005443 -0.004620 0.010287 0.000000 0.000000 0.000000
# 4 0.000000 0.000000 0.000000 0.015030 0.000000 0.000000
# 5 0.000000 0.000000 0.000000 0.000000 0.056813 0.000000
# 6 0.000000 0.000000 0.000000 0.000000 0.000000 0.063607
#
#
# Mechanical properties :
#
#
# Convention : Reuss Voigt Hill
#
# Bulk Modulus (GPa) = 37.13734 47.74938 42.44336
# Shear Modulus (GPa) = 24.66653 33.77365 29.22009
#
# Velocity S-wave (km/s) = 3.40559 3.98500 3.70663
# Velocity P-wave (km/s) = 5.73811 6.60493 6.18672
#
# Compressibility (1/GPa) = 0.02692707
#
# Stress axis : x y z
#
# Youngs Moduli (GPa) = 54.85865 70.98552 97.21092
#
# Poissons Ratio (x) = -0.15801 0.52917
# Poissons Ratio (y) = -0.12211 0.44916
# Poissons Ratio (z) = 0.29862 0.32798
#
# Static dielectric constant tensor:
#      x y z
#    x 1.824510 0.000000 0.000000 
#    y 0.000000 1.794270 0.000000 
#    z 0.000000 0.000000 1.822300 
# 
# From -- ./inp_files/22137.got.cif
#   From: 2010.05.17/outbox.cif.g08.bks.cpg/sg72_12_cif.got.tgz:22137.got - 2010.06.03 17:03:01.
