data_PCOD9526062
_publ_section_title
;
Structure prediction by ZEFSAII (Michael W. Deem and Ramdas Pophale) SiO2 
 PCOD9526062
Probable space group: I B A M
;
_chemical_formula_sum "Si O2"
_cell_formula_units_Z 96
_cell_length_a 10.276271
_cell_length_b 14.653908
_cell_length_c 26.974355
_cell_angle_alpha 90.000000
_cell_angle_beta 90.000000
_cell_angle_gamma 90.000000
_cell_volume 4062.001488
_symmetry_space_group_name_H-M "I B A M"
_symmetry_group_IT_number 72
_symmetry_cell_setting 'orthorhombic'
loop_
_space_group_symop_operation_xyz
x,y,z
-x,-y,z
x,-y,1/2-z
-x,y,1/2-z
-x,-y,-z
x,y,-z
-x,y,1/2+z
x,-y,1/2+z
1/2+x,1/2+y,1/2+z
1/2-x,1/2-y,1/2+z
1/2+x,1/2-y,-z
1/2-x,1/2+y,-z
1/2-x,1/2-y,1/2-z
1/2+x,1/2+y,1/2-z
1/2-x,1/2+y,z
1/2+x,1/2-y,z
loop_
_atom_site_type_symbol
_atom_site_label
_atom_site_fract_x
_atom_site_fract_y
_atom_site_fract_z
Si Si1 0.616217 0.427935 0.608390
Si Si2 0.897371 0.809949 0.096604
Si Si3 0.249258 0.828621 0.692488
Si Si4 0.691163 0.060046 0.443701
Si Si5 0.992456 0.371356 0.363443
Si Si6 0.771412 0.614344 0.203563
O O1 0.500000 0.500000 0.605040
O O2 0.546173 0.338249 0.586643
O O3 0.731926 0.471648 0.576675
O O4 0.659355 0.409724 0.664742
O O5 0.848316 0.855265 0.148569
O O6 0.793739 0.854609 0.059737
O O7 0.901888 0.702817 0.108114
O O8 0.394841 0.825388 0.670367
O O9 0.208953 0.724843 0.704500
O O10 0.246066 0.898621 0.738278
O O11 0.649819 0.048453 0.500000
O O12 0.575118 0.080183 0.405900
O O13 0.899705 0.422881 0.324160
#
# Coordination Sequence:
#
# PCOD9526062 Si02
#       6
#    16  16  16  16  16  16
#     4  10  21  39  59  85 123 163 201 259 311 367
#     4   9  19  36  61  87 120 157 203 262 308 358
#     4   9  18  33  59  92 119 154 200 244 297 371
#     4  10  23  41  61  86 119 166 213 261 320 366
#     4  10  19  37  60  87 125 155 203 264 301 356
#     4  10  19  33  59  89 121 161 195 236 311 372
#
# _framework density 23.633668
#
# number of rings (size 3 to 8) (size 9 to 14) (size 15 to 20)
#    0.000    2.333    1.667    0.500    0.000    5.000 
#    0.000   13.333    0.000    6.000    0.000    0.000 
#    0.000    0.000    0.000    0.000    0.000    0.000 
#
# Total GULP energy -267915.971265 kJ/mol
# GULP energy per Si atom -5581.582735 kJ/mol
# Density = 2.357988 g / cm^3
# Si number density = 23.633668 Si / 1000 Ang^3
#
#
#
# Elastic Constant Matrix: (Units=GPa)
#
#
# Indices 1 2 3 4 5 6 
#
# 1 93.4119 8.8797 36.5755 0.0000 0.0000 0.0000
# 2 8.8797 43.8272 12.0309 0.0000 0.0000 0.0000
# 3 36.5755 12.0309 140.2792 0.0000 0.0000 0.0000
# 4 0.0000 0.0000 0.0000 21.0828 0.0000 0.0000
# 5 0.0000 0.0000 0.0000 0.0000 8.8348 0.0000
# 6 0.0000 0.0000 0.0000 0.0000 0.0000 40.7288
#
#
#
# Elastic Compliance Matrix: (Units=1/GPa)
#
#
# Indices 1 2 3 4 5 6 
#
# 1 0.012033 -0.001615 -0.002999 0.000000 0.000000 0.000000
# 2 -0.001615 0.023584 -0.001602 0.000000 0.000000 0.000000
# 3 -0.002999 -0.001602 0.008048 0.000000 0.000000 0.000000
# 4 0.000000 0.000000 0.000000 0.047432 0.000000 0.000000
# 5 0.000000 0.000000 0.000000 0.000000 0.113189 0.000000
# 6 0.000000 0.000000 0.000000 0.000000 0.000000 0.024553
#
#
# Mechanical properties :
#
#
# Convention : Reuss Voigt Hill
#
# Bulk Modulus (GPa) = 32.01635 43.61006 37.81321
# Shear Modulus (GPa) = 19.86647 28.79809 24.33228
#
# Velocity S-wave (km/s) = 2.90246 3.49452 3.21216
# Velocity P-wave (km/s) = 4.98083 5.89701 5.45818
#
# Compressibility (1/GPa) = 0.03123404
#
# Stress axis : x y z
#
# Youngs Moduli (GPa) = 83.10475 42.40218 124.25566
#
# Poissons Ratio (x) = 0.06847 0.37263
# Poissons Ratio (y) = 0.13419 0.19901
# Poissons Ratio (z) = 0.24922 0.06791
#
# Static dielectric constant tensor:
#      x y z
#    x 1.924570 0.000000 0.000000 
#    y 0.000000 2.015710 0.000000 
#    z 0.000000 0.000000 1.906160 
# 
# From -- ./inp_files/43357.got.cif
#   From: 2010.05.17/outbox.cif.g08.bks.cpg/sg72_22_cif.got.tgz:43357.got - 2010.06.03 17:03:01.
