data_PCOD9526640
_publ_section_title
;
Structure prediction by ZEFSAII (Michael W. Deem and Ramdas Pophale) SiO2 
 PCOD9526640
Probable space group: I B A M
;
_chemical_formula_sum "Si O2"
_cell_formula_units_Z 92
_cell_length_a 27.717802
_cell_length_b 20.701020
_cell_length_c 9.344175
_cell_angle_alpha 90.000000
_cell_angle_beta 90.000000
_cell_angle_gamma 90.000000
_cell_volume 5361.564025
_symmetry_space_group_name_H-M "I B A M"
_symmetry_group_IT_number 72
_symmetry_cell_setting 'orthorhombic'
loop_
_space_group_symop_operation_xyz
x,y,z
-x,-y,z
x,-y,1/2-z
-x,y,1/2-z
-x,-y,-z
x,y,-z
-x,y,1/2+z
x,-y,1/2+z
1/2+x,1/2+y,1/2+z
1/2-x,1/2-y,1/2+z
1/2+x,1/2-y,-z
1/2-x,1/2+y,-z
1/2-x,1/2-y,1/2-z
1/2+x,1/2+y,1/2-z
1/2-x,1/2+y,z
1/2+x,1/2-y,z
loop_
_atom_site_type_symbol
_atom_site_label
_atom_site_fract_x
_atom_site_fract_y
_atom_site_fract_z
Si Si1 0.500000 0.101136 0.250000
Si Si2 0.813447 0.693611 0.330665
Si Si3 0.870577 0.068942 0.827503
Si Si4 0.220741 0.159676 0.667910
Si Si5 0.088350 0.306608 0.832383
Si Si6 0.500000 0.000000 0.000000
Si Si7 0.948425 0.159860 0.671994
O O1 0.455290 0.146435 0.292472
O O2 0.512852 0.054065 0.378240
O O3 0.815142 0.683729 0.500000
O O4 0.802502 0.769761 0.303376
O O5 0.768805 0.655281 0.261679
O O6 0.864259 0.678397 0.258779
O O7 0.819819 0.106130 0.805532
O O8 0.911812 0.111434 0.750878
O O9 0.869377 0.000000 0.750000
O O10 0.878578 0.064099 0.000000
O O11 0.233820 0.158218 0.500000
O O12 0.071495 0.232729 0.808772
O O13 0.099735 0.313901 0.000000
O O14 0.951800 0.147606 0.500000
O O15 0.000000 0.154927 0.750000
#
# Coordination Sequence:
#
# PCOD9526640 Si02
#       7
#     8  16  16  16  16   4  16
#     4  11  22  42  64  90 119 166 196 242 295 356
#     4  10  20  33  59  90 120 149 196 251 301 351
#     4  11  23  41  63  86 120 166 206 248 306 369
#     4   9  19  37  57  84 119 156 192 247 303 355
#     4  11  22  36  60  93 123 159 199 250 306 351
#     4  10  24  42  64  86 124 158 206 234 284 378
#     4  11  23  38  59  91 125 157 202 257 300 357
#
# _framework density 17.159172000000002
#
# number of rings (size 3 to 8) (size 9 to 14) (size 15 to 20)
#    0.000    1.565    3.478    1.565    1.217    3.130 
#    0.000    1.739    3.826    0.000    0.000    0.000 
#    0.000    0.000    0.000    0.000    0.000    0.000 
#
# Total GULP energy -256231.291353 kJ/mol
# GULP energy per Si atom -5570.245464 kJ/mol
# Density = 1.712012 g / cm^3
# Si number density = 17.159172 Si / 1000 Ang^3
#
#
#
# Elastic Constant Matrix: (Units=GPa)
#
#
# Indices 1 2 3 4 5 6 
#
# 1 118.5785 31.2770 52.1401 0.0000 0.0000 0.0000
# 2 31.2770 78.2173 41.2257 0.0000 0.0000 0.0000
# 3 52.1401 41.2257 94.1350 0.0000 0.0000 0.0000
# 4 0.0000 0.0000 0.0000 8.3142 0.0000 0.0000
# 5 0.0000 0.0000 0.0000 0.0000 46.4870 0.0000
# 6 0.0000 0.0000 0.0000 0.0000 0.0000 -5.6882
#
#
#
# Elastic Compliance Matrix: (Units=1/GPa)
#
#
# Indices 1 2 3 4 5 6 
#
# 1 0.011298 -0.001585 -0.005563 0.000000 0.000000 0.000000
# 2 -0.001585 0.016844 -0.006499 0.000000 0.000000 0.000000
# 3 -0.005563 -0.006499 0.016550 0.000000 0.000000 0.000000
# 4 0.000000 0.000000 0.000000 0.120276 0.000000 0.000000
# 5 0.000000 0.000000 0.000000 0.000000 0.021511 0.000000
# 6 0.000000 0.000000 0.000000 0.000000 0.000000 -0.175802
#
#
# Mechanical properties :
#
#
# Convention : Reuss Voigt Hill
#
# Bulk Modulus (GPa) = 57.47921 60.02406 58.75164
# Shear Modulus (GPa) = 114.22910 20.90845 67.56878
#
# Velocity S-wave (km/s) = 8.16791 3.49449 6.28197
# Velocity P-wave (km/s) = 11.06903 7.16510 9.32368
#
# Compressibility (1/GPa) = 0.01739759
#
# Stress axis : x y z
#
# Youngs Moduli (GPa) = 88.51405 59.36815 60.42114
#
# Poissons Ratio (x) = 0.09412 0.33614
# Poissons Ratio (y) = 0.14033 0.39265
# Poissons Ratio (z) = 0.49243 0.38581
#
# Static dielectric constant tensor:
#      x y z
#    x 1.552380 0.000000 0.000000 
#    y 0.000000 1.567580 0.000000 
#    z 0.000000 0.000000 1.570260 
# 
# From -- ./inp_files/8104.got.cif
#   From: 2010.05.17/outbox.cif.g08.bks.cpg/sg72_5_cif.got.tgz:8104.got - 2010.06.03 17:03:01.
