data_PCOD9526627
_publ_section_title
;
Structure prediction by ZEFSAII (Michael W. Deem and Ramdas Pophale) SiO2 
 PCOD9526627
Probable space group: I B A M
;
_chemical_formula_sum "Si O2"
_cell_formula_units_Z 96
_cell_length_a 9.383438
_cell_length_b 30.311538
_cell_length_c 14.588461
_cell_angle_alpha 90.000000
_cell_angle_beta 90.000000
_cell_angle_gamma 90.000000
_cell_volume 4149.343991
_symmetry_space_group_name_H-M "I B A M"
_symmetry_group_IT_number 72
_symmetry_cell_setting 'orthorhombic'
loop_
_space_group_symop_operation_xyz
x,y,z
-x,-y,z
x,-y,1/2-z
-x,y,1/2-z
-x,-y,-z
x,y,-z
-x,y,1/2+z
x,-y,1/2+z
1/2+x,1/2+y,1/2+z
1/2-x,1/2-y,1/2+z
1/2+x,1/2-y,-z
1/2-x,1/2+y,-z
1/2-x,1/2-y,1/2-z
1/2+x,1/2+y,1/2-z
1/2-x,1/2+y,z
1/2+x,1/2-y,z
loop_
_atom_site_type_symbol
_atom_site_label
_atom_site_fract_x
_atom_site_fract_y
_atom_site_fract_z
Si Si1 0.607589 0.535836 0.104607
Si Si2 0.625400 0.027480 0.604827
Si Si3 0.633132 0.289877 0.365170
Si Si4 0.221311 0.382372 0.105503
Si Si5 0.106622 0.623550 0.888961
Si Si6 0.191655 0.205760 0.148263
O O1 0.500000 0.500000 0.147292
O O2 0.747011 0.506003 0.099886
O O3 0.665534 0.582000 0.145938
O O4 0.551974 0.545407 0.000000
O O5 0.577943 0.037457 0.500000
O O6 0.663183 0.075485 0.641498
O O7 0.500000 0.000000 0.650471
O O8 0.711168 0.334242 0.394964
O O9 0.713763 0.245232 0.393427
O O10 0.467720 0.293755 0.392836
O O11 0.654703 0.287919 0.255313
O O12 0.059736 0.377237 0.142241
O O13 0.203480 0.397949 0.000000
O O14 0.211672 0.661957 0.856423
O O15 0.107176 0.628497 0.000000
#
# Coordination Sequence:
#
# PCOD9526627 Si02
#       6
#    16  16  16  16  16  16
#     4   9  17  28  46  76 112 147 182 219 265 320
#     4   9  15  28  48  74 110 146 179 216 259 318
#     4  10  22  40  60  80 106 141 187 230 279 339
#     4  10  20  34  54  85 117 145 182 230 280 328
#     4  10  20  33  55  86 115 145 184 229 279 328
#     4  10  22  40  60  81 104 142 188 230 279 341
#
# _framework density 23.136185999999999
#
# number of rings (size 3 to 8) (size 9 to 14) (size 15 to 20)
#    0.000    2.333    1.667    1.000    2.333    3.333 
#    0.000    0.000    0.000    1.000    0.000    0.000 
#    0.000    0.000    0.000    0.000    0.000    0.000 
#
# Total GULP energy -267597.660431 kJ/mol
# GULP energy per Si atom -5574.951259 kJ/mol
# Density = 2.308353 g / cm^3
# Si number density = 23.136186 Si / 1000 Ang^3
#
#
#
# Elastic Constant Matrix: (Units=GPa)
#
#
# Indices 1 2 3 4 5 6 
#
# 1 69.7455 48.4646 15.1234 0.0000 0.0000 0.0000
# 2 48.4646 200.3429 -2.0755 0.0001 0.0000 0.0000
# 3 15.1234 -2.0755 63.6028 0.0006 0.0000 0.0000
# 4 0.0000 0.0001 0.0006 31.4175 0.0000 0.0000
# 5 0.0000 0.0000 0.0000 0.0000 14.8273 0.0000
# 6 0.0000 0.0000 0.0000 0.0000 0.0000 45.1155
#
#
#
# Elastic Compliance Matrix: (Units=1/GPa)
#
#
# Indices 1 2 3 4 5 6 
#
# 1 0.018456 -0.004512 -0.004536 0.000000 0.000000 0.000000
# 2 -0.004512 0.006096 0.001272 0.000000 0.000000 0.000000
# 3 -0.004536 0.001272 0.016843 0.000000 0.000000 0.000000
# 4 0.000000 0.000000 0.000000 0.031829 0.000000 0.000000
# 5 0.000000 0.000000 0.000000 0.000000 0.067443 0.000000
# 6 0.000000 0.000000 0.000000 0.000000 0.000000 0.022165
#
#
# Mechanical properties :
#
#
# Convention : Reuss Voigt Hill
#
# Bulk Modulus (GPa) = 38.69446 50.74622 44.72034
# Shear Modulus (GPa) = 26.73811 36.41731 31.57771
#
# Velocity S-wave (km/s) = 3.40322 3.97172 3.69841
# Velocity P-wave (km/s) = 5.67482 6.55851 6.13260
#
# Compressibility (1/GPa) = 0.02584349
#
# Stress axis : x y z
#
# Youngs Moduli (GPa) = 54.18148 164.04061 59.37332
#
# Poissons Ratio (x) = 0.74011 0.26930
# Poissons Ratio (y) = 0.24445 -0.07551
# Poissons Ratio (z) = 0.24576 -0.20862
#
# Static dielectric constant tensor:
#      x y z
#    x 1.816980 0.000000 0.000000 
#    y 0.000000 1.840290 0.000000 
#    z 0.000000 0.000000 1.998770 
# 
# From -- ./inp_files/36050.got.cif
#   From: 2010.05.17/outbox.cif.g08.bks.cpg/sg72_19_cif.got.tgz:36050.got - 2010.06.03 17:03:01.
