data_PCOD9526543
_publ_section_title
;
Structure prediction by ZEFSAII (Michael W. Deem and Ramdas Pophale) SiO2 
 PCOD9526543
Probable space group: I B A M
;
_chemical_formula_sum "Si O2"
_cell_formula_units_Z 80
_cell_length_a 13.478743
_cell_length_b 11.643393
_cell_length_c 24.815617
_cell_angle_alpha 90.000000
_cell_angle_beta 90.000000
_cell_angle_gamma 90.000000
_cell_volume 3894.520792
_symmetry_space_group_name_H-M "I B A M"
_symmetry_group_IT_number 72
_symmetry_cell_setting 'orthorhombic'
loop_
_space_group_symop_operation_xyz
x,y,z
-x,-y,z
x,-y,1/2-z
-x,y,1/2-z
-x,-y,-z
x,y,-z
-x,y,1/2+z
x,-y,1/2+z
1/2+x,1/2+y,1/2+z
1/2-x,1/2-y,1/2+z
1/2+x,1/2-y,-z
1/2-x,1/2+y,-z
1/2-x,1/2-y,1/2-z
1/2+x,1/2+y,1/2-z
1/2-x,1/2+y,z
1/2+x,1/2-y,z
loop_
_atom_site_type_symbol
_atom_site_label
_atom_site_fract_x
_atom_site_fract_y
_atom_site_fract_z
Si Si1 0.644357 0.310569 0.252935
Si Si2 0.095349 0.749848 0.362465
Si Si3 0.612783 0.456177 0.938383
Si Si4 0.242111 0.946614 0.155659
Si Si5 0.428319 0.106364 0.177056
O O1 0.750000 0.250000 0.250000
O O2 0.600986 0.327549 0.192735
O O3 0.667771 0.413392 0.295053
O O4 0.585152 0.205900 0.279785
O O5 0.112034 0.829098 0.413441
O O6 0.184526 0.660212 0.354526
O O7 0.993411 0.676570 0.366975
O O8 0.500000 0.500000 0.936391
O O9 0.679606 0.528879 0.897525
O O10 0.647514 0.460173 0.000000
O O11 0.319713 0.051495 0.166488
O O12 0.500000 0.000000 0.191706
#
# Coordination Sequence:
#
# PCOD9526543 Si02
#       5
#    16  16  16  16  16
#     4  10  20  32  55  91 124 155 190 230 287 356
#     4  10  22  38  59  89 122 156 197 241 296 362
#     4  11  25  43  61  82 113 156 203 253 306 354
#     4  10  21  39  63  90 120 154 198 245 297 360
#     4  10  21  37  59  89 125 161 193 239 298 360
#
# _framework density 20.541678999999998
#
# number of rings (size 3 to 8) (size 9 to 14) (size 15 to 20)
#    0.000    1.800    0.000    4.200    0.000   16.000 
#    0.000    4.000    0.000    3.600    0.000    0.000 
#    0.000    0.000    0.000    0.000    0.000    0.000 
#
# Total GULP energy -223054.098665 kJ/mol
# GULP energy per Si atom -5576.352467 kJ/mol
# Density = 2.049492 g / cm^3
# Si number density = 20.541679 Si / 1000 Ang^3
#
#
#
# Elastic Constant Matrix: (Units=GPa)
#
#
# Indices 1 2 3 4 5 6 
#
# 1 93.1267 36.3884 51.6077 0.0000 0.0000 0.0000
# 2 36.3884 93.2913 58.0146 0.0000 0.0000 0.0000
# 3 51.6077 58.0146 152.5462 0.0000 0.0000 0.0000
# 4 0.0000 0.0000 0.0000 -492.3788 0.0000 0.0000
# 5 0.0000 0.0000 0.0000 0.0000 25.4772 0.0000
# 6 0.0000 0.0000 0.0000 0.0000 0.0000 3.2531
#
#
#
# Elastic Compliance Matrix: (Units=1/GPa)
#
#
# Indices 1 2 3 4 5 6 
#
# 1 0.013943 -0.003281 -0.003469 0.000000 0.000000 0.000000
# 2 -0.003281 0.014812 -0.004523 0.000000 0.000000 0.000000
# 3 -0.003469 -0.004523 0.009449 0.000000 0.000000 0.000000
# 4 0.000000 0.000000 0.000000 -0.002031 0.000000 0.000000
# 5 0.000000 0.000000 0.000000 0.000000 0.039251 0.000000
# 6 0.000000 0.000000 0.000000 0.000000 0.000000 0.307398
#
#
# Mechanical properties :
#
#
# Convention : Reuss Voigt Hill
#
# Bulk Modulus (GPa) = 63.86876 70.10951 66.98914
# Shear Modulus (GPa) = 12.17770 -79.86611 -33.84420
#
# Velocity S-wave (km/s) = 2.43745 -6.24215 -4.06345
# Velocity P-wave (km/s) = 6.25151 4.21285 3.26598
#
# Compressibility (1/GPa) = 0.01565711
#
# Stress axis : x y z
#
# Youngs Moduli (GPa) = 71.72301 67.51495 105.82983
#
# Poissons Ratio (x) = 0.22152 0.36713
# Poissons Ratio (y) = 0.23532 0.47866
# Poissons Ratio (z) = 0.24881 0.30537
#
# Static dielectric constant tensor:
#      x y z
#    x 1.875240 0.000000 0.000000 
#    y 0.000000 1.783670 0.000000 
#    z 0.000000 0.000000 1.731640 
# 
# From -- ./inp_files/43105.got.cif
#   From: 2010.05.17/outbox.cif.g08.bks.cpg/sg72_22_cif.got.tgz:43105.got - 2010.06.03 17:03:01.
