data_PCOD9526133
_publ_section_title
;
Structure prediction by ZEFSAII (Michael W. Deem and Ramdas Pophale) SiO2 
 PCOD9526133
Probable space group: I B A M
;
_chemical_formula_sum "Si O2"
_cell_formula_units_Z 96
_cell_length_a 12.864328
_cell_length_b 19.610738
_cell_length_c 20.550350
_cell_angle_alpha 90.000000
_cell_angle_beta 90.000000
_cell_angle_gamma 90.000000
_cell_volume 5184.421048
_symmetry_space_group_name_H-M "I B A M"
_symmetry_group_IT_number 72
_symmetry_cell_setting 'orthorhombic'
loop_
_space_group_symop_operation_xyz
x,y,z
-x,-y,z
x,-y,1/2-z
-x,y,1/2-z
-x,-y,-z
x,y,-z
-x,y,1/2+z
x,-y,1/2+z
1/2+x,1/2+y,1/2+z
1/2-x,1/2-y,1/2+z
1/2+x,1/2-y,-z
1/2-x,1/2+y,-z
1/2-x,1/2-y,1/2-z
1/2+x,1/2+y,1/2-z
1/2-x,1/2+y,z
1/2+x,1/2-y,z
loop_
_atom_site_type_symbol
_atom_site_label
_atom_site_fract_x
_atom_site_fract_y
_atom_site_fract_z
Si Si1 0.387878 0.193983 0.716788
Si Si2 0.208770 0.164907 0.193229
Si Si3 0.213649 0.512370 0.426432
Si Si4 0.415965 0.146263 0.572993
Si Si5 0.881987 0.018896 0.675178
Si Si6 0.662493 0.146859 0.427912
O O1 0.500000 0.180740 0.750000
O O2 0.300021 0.150802 0.754562
O O3 0.358576 0.273815 0.722441
O O4 0.379994 0.179829 0.640011
O O5 0.140677 0.099801 0.173659
O O6 0.273415 0.183938 0.128213
O O7 0.256290 0.519268 0.500000
O O8 0.121821 0.567582 0.421045
O O9 0.302498 0.519511 0.372482
O O10 0.175007 0.434776 0.419379
O O11 0.380299 0.168622 0.500000
O O12 0.539569 0.157653 0.574590
O O13 0.863860 0.000000 0.750000
O O14 0.000000 0.000000 0.658318
O O15 0.700939 0.165021 0.500000
#
# Coordination Sequence:
#
# PCOD9526133 Si02
#       6
#    16  16  16  16  16  16
#     4  11  22  37  58  81 109 150 190 230 273 329
#     4  10  22  38  56  80 111 148 186 229 276 331
#     4   9  18  33  55  81 110 143 178 225 278 332
#     4  10  19  34  56  83 112 140 180 227 276 331
#     4  10  21  36  56  81 109 146 184 232 281 333
#     4   9  17  33  56  81 109 142 178 222 281 332
#
# _framework density 18.517014
#
# number of rings (size 3 to 8) (size 9 to 14) (size 15 to 20)
#    0.000    2.167    1.667    1.500    2.333    3.000 
#    0.000    0.000    0.000    0.000    0.000    0.000 
#    0.000    0.000    0.000    0.000    0.000    0.000 
#
# Total GULP energy -267338.474959 kJ/mol
# GULP energy per Si atom -5569.551562 kJ/mol
# Density = 1.847487 g / cm^3
# Si number density = 18.517014 Si / 1000 Ang^3
#
#
#
# Elastic Constant Matrix: (Units=GPa)
#
#
# Indices 1 2 3 4 5 6 
#
# 1 53.2797 14.4942 26.3312 0.0000 0.0000 0.0000
# 2 14.4942 26.6963 -4.8590 0.0000 0.0000 0.0000
# 3 26.3312 -4.8590 95.9586 0.0000 0.0000 0.0000
# 4 0.0000 0.0000 0.0000 26.9283 0.0000 0.0000
# 5 0.0000 0.0000 0.0000 0.0000 22.3875 0.0000
# 6 0.0000 0.0000 0.0000 0.0000 0.0000 18.1716
#
#
#
# Elastic Compliance Matrix: (Units=1/GPa)
#
#
# Indices 1 2 3 4 5 6 
#
# 1 0.027335 -0.016357 -0.008329 0.000000 0.000000 0.000000
# 2 -0.016357 0.047595 0.006898 0.000000 0.000000 0.000000
# 3 -0.008329 0.006898 0.013056 0.000000 0.000000 0.000000
# 4 0.000000 0.000000 0.000000 0.037136 0.000000 0.000000
# 5 0.000000 0.000000 0.000000 0.000000 0.044668 0.000000
# 6 0.000000 0.000000 0.000000 0.000000 0.000000 0.055031
#
#
# Mechanical properties :
#
#
# Convention : Reuss Voigt Hill
#
# Bulk Modulus (GPa) = 19.08017 27.54084 23.31050
# Shear Modulus (GPa) = 17.99435 22.82869 20.41152
#
# Velocity S-wave (km/s) = 3.12071 3.51500 3.32371
# Velocity P-wave (km/s) = 4.82821 5.60172 5.22928
#
# Compressibility (1/GPa) = 0.05241044
#
# Stress axis : x y z
#
# Youngs Moduli (GPa) = 36.58331 21.01076 76.59341
#
# Poissons Ratio (x) = 0.34367 0.63795
# Poissons Ratio (y) = 0.59839 -0.52837
# Poissons Ratio (z) = 0.30470 -0.14494
#
# Static dielectric constant tensor:
#      x y z
#    x 1.621500 0.000000 0.000000 
#    y 0.000000 1.631770 0.000000 
#    z 0.000000 0.000000 1.669870 
# 
# From -- ./inp_files/37100.got.cif
#   From: 2010.05.17/outbox.cif.g08.bks.cpg/sg72_19_cif.got.tgz:37100.got - 2010.06.03 17:03:01.
