data_PCOD9526972
_publ_section_title
;
Structure prediction by ZEFSAII (Michael W. Deem and Ramdas Pophale) SiO2 
 PCOD9526972
Probable space group: I B A M
;
_chemical_formula_sum "Si O2"
_cell_formula_units_Z 88
_cell_length_a 18.884510
_cell_length_b 8.881094
_cell_length_c 22.516673
_cell_angle_alpha 90.000000
_cell_angle_beta 90.000000
_cell_angle_gamma 90.000000
_cell_volume 3776.386254
_symmetry_space_group_name_H-M "I B A M"
_symmetry_group_IT_number 72
_symmetry_cell_setting 'orthorhombic'
loop_
_space_group_symop_operation_xyz
x,y,z
-x,-y,z
x,-y,1/2-z
-x,y,1/2-z
-x,-y,-z
x,y,-z
-x,y,1/2+z
x,-y,1/2+z
1/2+x,1/2+y,1/2+z
1/2-x,1/2-y,1/2+z
1/2+x,1/2-y,-z
1/2-x,1/2+y,-z
1/2-x,1/2-y,1/2-z
1/2+x,1/2+y,1/2-z
1/2-x,1/2+y,z
1/2+x,1/2-y,z
loop_
_atom_site_type_symbol
_atom_site_label
_atom_site_fract_x
_atom_site_fract_y
_atom_site_fract_z
Si Si1 0.500000 0.500000 0.348043
Si Si2 0.430289 0.254753 0.434174
Si Si3 0.891422 0.425871 0.667671
Si Si4 0.228118 0.167944 0.651358
Si Si5 0.903389 0.241635 0.780700
Si Si6 0.219833 0.907067 0.566571
O O1 0.463750 0.382948 0.393322
O O2 0.449021 0.605361 0.307684
O O3 0.461437 0.244283 0.500000
O O4 0.426051 0.104362 0.395744
O O5 0.348196 0.302184 0.439865
O O6 0.806995 0.388750 0.667319
O O7 0.918837 0.297044 0.713859
O O8 0.908364 0.595369 0.686930
O O9 0.177464 0.187590 0.707620
O O10 0.230709 0.320496 0.612944
O O11 0.197144 0.053590 0.602615
O O12 0.247886 0.938582 0.500000
#
# Coordination Sequence:
#
# PCOD9526972 Si02
#       6
#     8  16  16  16  16  16
#     4  12  25  45  70  98 131 183 236 288 348 403
#     4  10  23  44  65  95 134 177 231 283 343 415
#     4  10  24  44  68  97 139 180 225 290 350 413
#     4  11  19  40  63 100 137 175 227 283 352 411
#     4  11  24  43  67 102 137 179 232 286 347 417
#     4  10  20  35  61  96 138 179 223 280 345 416
#
# _framework density 23.302702
#
# number of rings (size 3 to 8) (size 9 to 14) (size 15 to 20)
#    0.000    1.455    3.636    1.364    0.000    3.636 
#    0.000    4.545    0.000    0.000    0.000    0.000 
#    0.000    0.000    0.000    0.000    0.000    0.000 
#
# Total GULP energy -245718.426878 kJ/mol
# GULP energy per Si atom -5584.509702 kJ/mol
# Density = 2.324966 g / cm^3
# Si number density = 23.302702 Si / 1000 Ang^3
#
#
#
# Elastic Constant Matrix: (Units=GPa)
#
#
# Indices 1 2 3 4 5 6 
#
# 1 67.6565 21.9850 35.9050 0.0000 0.0000 0.0000
# 2 21.9850 101.0872 51.0945 0.0000 0.0000 0.0000
# 3 35.9050 51.0945 126.7122 0.0000 0.0000 0.0000
# 4 0.0000 0.0000 0.0000 1957.8328 0.0000 0.0000
# 5 0.0000 0.0000 0.0000 0.0000 16.2915 0.0000
# 6 0.0000 0.0000 0.0000 0.0000 0.0000 17.8244
#
#
#
# Elastic Compliance Matrix: (Units=1/GPa)
#
#
# Indices 1 2 3 4 5 6 
#
# 1 0.017611 -0.001643 -0.004328 0.000000 0.000000 0.000000
# 2 -0.001643 0.012578 -0.004606 0.000000 0.000000 0.000000
# 3 -0.004328 -0.004606 0.010976 0.000000 0.000000 0.000000
# 4 0.000000 0.000000 0.000000 0.000511 0.000000 0.000000
# 5 0.000000 0.000000 0.000000 0.000000 0.061382 0.000000
# 6 0.000000 0.000000 0.000000 0.000000 0.000000 0.056103
#
#
# Mechanical properties :
#
#
# Convention : Reuss Voigt Hill
#
# Bulk Modulus (GPa) = 49.97263 57.04719 53.50991
# Shear Modulus (GPa) = 26.74018 410.82116 218.78067
#
# Velocity S-wave (km/s) = 3.39117 13.29212 9.70001
# Velocity P-wave (km/s) = 6.06836 16.12786 12.18468
#
# Compressibility (1/GPa) = 0.02001096
#
# Stress axis : x y z
#
# Youngs Moduli (GPa) = 56.78232 79.50383 91.11038
#
# Poissons Ratio (x) = 0.13060 0.39432
# Poissons Ratio (y) = 0.09327 0.41969
# Poissons Ratio (z) = 0.24575 0.36623
#
# Static dielectric constant tensor:
#      x y z
#    x 1.925020 0.000000 0.000000 
#    y 0.000000 1.921420 0.000000 
#    z 0.000000 0.000000 1.921290 
# 
# From -- ./inp_files/45245.got.cif
#   From: 2010.05.17/outbox.cif.g08.bks.cpg/sg72_23_cif.got.tgz:45245.got - 2010.06.03 17:03:01.
