data_PCOD9526730
_publ_section_title
;
Structure prediction by ZEFSAII (Michael W. Deem and Ramdas Pophale) SiO2 
 PCOD9526730
Probable space group: I B A M
;
_chemical_formula_sum "Si O2"
_cell_formula_units_Z 112
_cell_length_a 32.582768
_cell_length_b 10.395491
_cell_length_c 14.030924
_cell_angle_alpha 90.000000
_cell_angle_beta 90.000000
_cell_angle_gamma 90.000000
_cell_volume 4752.468589
_symmetry_space_group_name_H-M "I B A M"
_symmetry_group_IT_number 72
_symmetry_cell_setting 'orthorhombic'
loop_
_space_group_symop_operation_xyz
x,y,z
-x,-y,z
x,-y,1/2-z
-x,y,1/2-z
-x,-y,-z
x,y,-z
-x,y,1/2+z
x,-y,1/2+z
1/2+x,1/2+y,1/2+z
1/2-x,1/2-y,1/2+z
1/2+x,1/2-y,-z
1/2-x,1/2+y,-z
1/2-x,1/2-y,1/2-z
1/2+x,1/2+y,1/2-z
1/2-x,1/2+y,z
1/2+x,1/2-y,z
loop_
_atom_site_type_symbol
_atom_site_label
_atom_site_fract_x
_atom_site_fract_y
_atom_site_fract_z
Si Si1 0.741909 0.839350 0.891730
Si Si2 0.584205 0.056006 0.888097
Si Si3 0.036664 0.691791 0.886004
Si Si4 0.826017 0.557427 0.893377
Si Si5 0.468054 0.385532 0.388291
Si Si6 0.810258 0.798041 0.757765
Si Si7 0.403399 0.690463 0.757383
O O1 0.782547 0.875310 0.832855
O O2 0.717788 0.727983 0.834162
O O3 0.710135 0.955938 0.892709
O O4 0.751215 0.802118 0.000000
O O5 0.548928 0.954703 0.861251
O O6 0.629467 0.989945 0.880896
O O7 0.591529 0.178706 0.821790
O O8 0.577608 0.090484 0.000000
O O9 0.070885 0.779737 0.836746
O O10 0.992580 0.753608 0.861455
O O11 0.039640 0.700447 0.000000
O O12 0.817016 0.661761 0.813022
O O13 0.828374 0.617213 0.000000
O O14 0.500000 0.500000 0.372572
O O15 0.458299 0.381375 0.500000
O O16 0.428092 0.405053 0.325749
O O17 0.856331 0.843026 0.739494
#
# Coordination Sequence:
#
# PCOD9526730 Si02
#       7
#    16  16  16  16  16  16  16
#     4  10  20  34  55  81 116 156 191 233 291 352
#     4   9  18  33  56  90 123 150 187 240 298 352
#     4  10  21  36  57  86 120 153 192 240 298 360
#     4   9  17  32  56  81 111 150 185 230 290 349
#     4  10  23  43  65  85 111 154 202 250 301 356
#     4  10  21  35  56  86 114 149 195 242 285 349
#     4  11  21  36  62  90 117 153 197 248 298 354
#
# _framework density 23.566700000000001
#
# number of rings (size 3 to 8) (size 9 to 14) (size 15 to 20)
#    0.000    2.143    0.000    3.000    0.000    7.429 
#    0.000    3.571   15.714    0.000    0.000    0.000 
#    0.000    0.000    0.000    0.000    0.000    0.000 
#
# Total GULP energy -313211.542673 kJ/mol
# GULP energy per Si atom -5593.063262 kJ/mol
# Density = 2.351306 g / cm^3
# Si number density = 23.566700 Si / 1000 Ang^3
#
#
#
# Elastic Constant Matrix: (Units=GPa)
#
#
# Indices 1 2 3 4 5 6 
#
# 1 143.4355 -0.5897 8.3402 0.0000 0.0000 0.0000
# 2 -0.5897 47.7129 -8.6967 0.0000 0.0000 0.0000
# 3 8.3402 -8.6967 85.1221 0.0000 0.0000 0.0000
# 4 0.0000 0.0000 0.0000 25.0590 0.0000 0.0000
# 5 0.0000 0.0000 0.0000 0.0000 23.9566 0.0000
# 6 0.0000 0.0000 0.0000 0.0000 0.0000 33.1352
#
#
#
# Elastic Compliance Matrix: (Units=1/GPa)
#
#
# Indices 1 2 3 4 5 6 
#
# 1 0.007012 -0.000039 -0.000691 0.000000 0.000000 0.000000
# 2 -0.000039 0.021357 0.002186 0.000000 0.000000 0.000000
# 3 -0.000691 0.002186 0.012039 0.000000 0.000000 0.000000
# 4 0.000000 0.000000 0.000000 0.039906 0.000000 0.000000
# 5 0.000000 0.000000 0.000000 0.000000 0.041742 0.000000
# 6 0.000000 0.000000 0.000000 0.000000 0.000000 0.030179
#
#
# Mechanical properties :
#
#
# Convention : Reuss Voigt Hill
#
# Bulk Modulus (GPa) = 23.08496 30.48644 26.78570
# Shear Modulus (GPa) = 30.53189 34.91125 32.72157
#
# Velocity S-wave (km/s) = 3.60328 3.85305 3.73026
# Velocity P-wave (km/s) = 5.20849 5.72354 5.47208
#
# Compressibility (1/GPa) = 0.04331825
#
# Stress axis : x y z
#
# Youngs Moduli (GPa) = 142.61683 46.82386 83.06435
#
# Poissons Ratio (x) = 0.00184 0.05740
# Poissons Ratio (y) = 0.00560 -0.18156
# Poissons Ratio (z) = 0.09855 -0.10235
#
# Static dielectric constant tensor:
#      x y z
#    x 1.889060 0.000000 0.000000 
#    y 0.000000 1.979730 0.000000 
#    z 0.000000 0.000000 1.898150 
# 
# From -- ./inp_files/26390.got.cif
#   From: 2010.05.17/outbox.cif.g08.bks.cpg/sg72_14_cif.got.tgz:26390.got - 2010.06.03 17:03:01.
