data_PCOD9526135
_publ_section_title
;
Structure prediction by ZEFSAII (Michael W. Deem and Ramdas Pophale) SiO2 
 PCOD9526135
Probable space group: I B A M
;
_chemical_formula_sum "Si O2"
_cell_formula_units_Z 96
_cell_length_a 9.426655
_cell_length_b 27.539138
_cell_length_c 19.375651
_cell_angle_alpha 90.000000
_cell_angle_beta 90.000000
_cell_angle_gamma 90.000000
_cell_volume 5029.956839
_symmetry_space_group_name_H-M "I B A M"
_symmetry_group_IT_number 72
_symmetry_cell_setting 'orthorhombic'
loop_
_space_group_symop_operation_xyz
x,y,z
-x,-y,z
x,-y,1/2-z
-x,y,1/2-z
-x,-y,-z
x,y,-z
-x,y,1/2+z
x,-y,1/2+z
1/2+x,1/2+y,1/2+z
1/2-x,1/2-y,1/2+z
1/2+x,1/2-y,-z
1/2-x,1/2+y,-z
1/2-x,1/2-y,1/2-z
1/2+x,1/2+y,1/2-z
1/2-x,1/2+y,z
1/2+x,1/2-y,z
loop_
_atom_site_type_symbol
_atom_site_label
_atom_site_fract_x
_atom_site_fract_y
_atom_site_fract_z
Si Si1 0.896168 0.453154 0.422071
Si Si2 0.331194 0.947292 0.767936
Si Si3 0.698844 0.647516 0.297628
Si Si4 0.550437 0.220542 0.671796
Si Si5 0.090029 0.171058 0.354886
Si Si6 0.871665 0.653974 0.076238
O O1 0.833189 0.459035 0.500000
O O2 0.810760 0.447369 0.350711
O O3 0.954564 0.397644 0.423125
O O4 0.000000 0.500000 0.413245
O O5 0.500000 0.945108 0.750000
O O6 0.262880 0.904640 0.722992
O O7 0.274971 0.000000 0.750000
O O8 0.812812 0.685917 0.325302
O O9 0.650437 0.666741 0.222771
O O10 0.564389 0.646566 0.348628
O O11 0.500000 0.230325 0.750000
O O12 0.574314 0.271341 0.633616
O O13 0.431467 0.189380 0.633659
O O14 0.204735 0.148183 0.406387
O O15 0.887692 0.674808 0.000000
#
# Coordination Sequence:
#
# PCOD9526135 Si02
#       6
#    16  16  16  16  16  16
#     4  10  19  34  56  83 114 151 190 235 298 368
#     4  11  20  34  59  90 120 147 197 263 312 341
#     4  11  21  35  59  92 117 153 200 256 299 355
#     4  12  20  36  63  90 117 156 209 259 292 353
#     4  11  22  37  58  86 123 162 202 242 309 365
#     4  11  24  40  61  88 123 165 202 247 309 363
#
# _framework density 19.085650999999999
#
# number of rings (size 3 to 8) (size 9 to 14) (size 15 to 20)
#    0.000    1.000    6.667    3.000    0.000    0.667 
#    0.000    2.500    0.000    2.000    0.000    2.333 
#    0.000    0.000    0.000    0.000    0.000    0.000 
#
# Total GULP energy -267283.092278 kJ/mol
# GULP energy per Si atom -5568.397756 kJ/mol
# Density = 1.904221 g / cm^3
# Si number density = 19.085651 Si / 1000 Ang^3
#
#
#
# Elastic Constant Matrix: (Units=GPa)
#
#
# Indices 1 2 3 4 5 6 
#
# 1 73.3087 35.8050 2.8970 0.0000 0.0000 0.0000
# 2 35.8050 141.4317 14.1539 0.0000 0.0000 0.0000
# 3 2.8970 14.1539 66.0781 -0.0001 0.0000 0.0000
# 4 0.0000 0.0000 -0.0001 11.6766 0.0000 0.0000
# 5 0.0000 0.0000 0.0000 0.0000 14.9872 0.0000
# 6 0.0000 0.0000 0.0000 0.0000 0.0000 -9.7110
#
#
#
# Elastic Compliance Matrix: (Units=1/GPa)
#
#
# Indices 1 2 3 4 5 6 
#
# 1 0.015567 -0.003958 0.000165 0.000000 0.000000 0.000000
# 2 -0.003958 0.008232 -0.001590 0.000000 0.000000 0.000000
# 3 0.000165 -0.001590 0.015467 0.000000 0.000000 0.000000
# 4 0.000000 0.000000 0.000000 0.085641 0.000000 0.000000
# 5 0.000000 0.000000 0.000000 0.000000 0.066724 0.000000
# 6 0.000000 0.000000 0.000000 0.000000 0.000000 -0.102976
#
#
# Mechanical properties :
#
#
# Convention : Reuss Voigt Hill
#
# Bulk Modulus (GPa) = 35.08567 42.94781 39.01674
# Shear Modulus (GPa) = 45.90544 18.58806 32.24675
#
# Velocity S-wave (km/s) = 4.90964 3.12417 4.11491
# Velocity P-wave (km/s) = 7.11074 5.96368 6.56232
#
# Compressibility (1/GPa) = 0.02850167
#
# Stress axis : x y z
#
# Youngs Moduli (GPa) = 64.23698 121.48392 64.65426
#
# Poissons Ratio (x) = 0.48078 -0.01068
# Poissons Ratio (y) = 0.25422 0.10278
# Poissons Ratio (z) = -0.01061 0.19312
#
# Static dielectric constant tensor:
#      x y z
#    x 1.728020 0.000000 0.000000 
#    y 0.000000 1.700440 0.000000 
#    z 0.000000 0.000000 1.691880 
# 
# From -- ./inp_files/36016.got.cif
#   From: 2010.05.17/outbox.cif.g08.bks.cpg/sg72_19_cif.got.tgz:36016.got - 2010.06.03 17:03:01.
