data_PCOD9526917
_publ_section_title
;
Structure prediction by ZEFSAII (Michael W. Deem and Ramdas Pophale) SiO2 
 PCOD9526917
Probable space group: I B A M
;
_chemical_formula_sum "Si O2"
_cell_formula_units_Z 96
_cell_length_a 28.985458
_cell_length_b 10.717144
_cell_length_c 14.984836
_cell_angle_alpha 90.000000
_cell_angle_beta 90.000000
_cell_angle_gamma 90.000000
_cell_volume 4654.909344
_symmetry_space_group_name_H-M "I B A M"
_symmetry_group_IT_number 72
_symmetry_cell_setting 'orthorhombic'
loop_
_space_group_symop_operation_xyz
x,y,z
-x,-y,z
x,-y,1/2-z
-x,y,1/2-z
-x,-y,-z
x,y,-z
-x,y,1/2+z
x,-y,1/2+z
1/2+x,1/2+y,1/2+z
1/2-x,1/2-y,1/2+z
1/2+x,1/2-y,-z
1/2-x,1/2+y,-z
1/2-x,1/2-y,1/2-z
1/2+x,1/2+y,1/2-z
1/2-x,1/2+y,z
1/2+x,1/2-y,z
loop_
_atom_site_type_symbol
_atom_site_label
_atom_site_fract_x
_atom_site_fract_y
_atom_site_fract_z
Si Si1 0.120239 0.263279 0.391340
Si Si2 0.527400 0.882778 0.896338
Si Si3 0.782168 0.985306 0.857094
Si Si4 0.480071 0.629419 0.151082
Si Si5 0.276263 0.760674 0.345530
Si Si6 0.887873 0.027629 0.395488
O O1 0.126734 0.274940 0.500000
O O2 0.077996 0.348974 0.359529
O O3 0.168885 0.285221 0.342738
O O4 0.105895 0.119262 0.375526
O O5 0.497048 0.756667 0.893192
O O6 0.500000 0.000000 0.856629
O O7 0.536095 0.913143 0.000000
O O8 0.748164 0.878630 0.890222
O O9 0.834643 0.946189 0.875337
O O10 0.777840 0.000000 0.750000
O O11 0.772760 0.125071 0.891673
O O12 0.500000 0.500000 0.109619
O O13 0.500000 0.635171 0.250000
O O14 0.425259 0.611012 0.153934
O O15 0.250000 0.750000 0.250000
O O16 0.896277 0.046220 0.500000
#
# Coordination Sequence:
#
# PCOD9526917 Si02
#       6
#    16  16  16  16  16  16
#     4   9  18  34  58  83 112 151 188 231 295 351
#     4  10  21  39  61  84 118 159 198 241 292 353
#     4   9  19  34  56  77 111 143 186 231 284 338
#     4  11  23  35  59  86 117 148 194 237 289 340
#     4   9  18  34  55  78 108 144 186 228 283 342
#     4  10  20  35  58  86 111 146 190 238 289 343
#
# _framework density 20.623387000000001
#
# number of rings (size 3 to 8) (size 9 to 14) (size 15 to 20)
#    0.000    2.333    1.667    0.500    2.333    3.000 
#    3.000    0.000    3.667    0.000    0.000    0.000 
#    0.000    0.000    0.000    0.000    0.000    0.000 
#
# Total GULP energy -267790.475210 kJ/mol
# GULP energy per Si atom -5578.968234 kJ/mol
# Density = 2.057645 g / cm^3
# Si number density = 20.623387 Si / 1000 Ang^3
#
#
#
# Elastic Constant Matrix: (Units=GPa)
#
#
# Indices 1 2 3 4 5 6 
#
# 1 181.1791 98.7548 24.1334 0.0000 0.0000 0.0000
# 2 98.7548 123.2104 5.5929 0.0000 0.0000 0.0000
# 3 24.1334 5.5929 57.1405 0.0000 0.0000 0.0000
# 4 0.0000 0.0000 0.0000 10.3053 0.0000 0.0000
# 5 0.0000 0.0000 0.0000 0.0000 13.9463 0.0000
# 6 0.0000 0.0000 0.0000 0.0000 0.0000 36.4936
#
#
#
# Elastic Compliance Matrix: (Units=1/GPa)
#
#
# Indices 1 2 3 4 5 6 
#
# 1 0.010500 -0.008251 -0.003627 0.000000 0.000000 0.000000
# 2 -0.008251 0.014637 0.002052 0.000000 0.000000 0.000000
# 3 -0.003627 0.002052 0.018832 0.000000 0.000000 0.000000
# 4 0.000000 0.000000 0.000000 0.097038 0.000000 0.000000
# 5 0.000000 0.000000 0.000000 0.000000 0.071704 0.000000
# 6 0.000000 0.000000 0.000000 0.000000 0.000000 0.027402
#
#
# Mechanical properties :
#
#
# Convention : Reuss Voigt Hill
#
# Bulk Modulus (GPa) = 41.12476 68.72137 54.92306
# Shear Modulus (GPa) = 18.66584 27.68563 23.17573
#
# Velocity S-wave (km/s) = 3.01172 3.66790 3.35589
# Velocity P-wave (km/s) = 5.66375 7.16467 6.45796
#
# Compressibility (1/GPa) = 0.02431625
#
# Stress axis : x y z
#
# Youngs Moduli (GPa) = 95.23781 68.32219 53.10183
#
# Poissons Ratio (x) = 0.56374 0.19260
# Poissons Ratio (y) = 0.78583 -0.10898
# Poissons Ratio (z) = 0.34544 -0.14022
#
# Static dielectric constant tensor:
#      x y z
#    x 1.750600 0.000000 0.000000 
#    y 0.000000 1.776820 0.000000 
#    z 0.000000 0.000000 1.799920 
# 
# From -- ./inp_files/33238.got.cif
#   From: 2010.05.17/outbox.cif.g08.bks.cpg/sg72_17_cif.got.tgz:33238.got - 2010.06.03 17:03:01.
