data_PCOD9526223
_publ_section_title
;
Structure prediction by ZEFSAII (Michael W. Deem and Ramdas Pophale) SiO2 
 PCOD9526223
Probable space group: I B A M
;
_chemical_formula_sum "Si O2"
_cell_formula_units_Z 112
_cell_length_a 11.864252
_cell_length_b 27.594158
_cell_length_c 20.480555
_cell_angle_alpha 90.000000
_cell_angle_beta 90.000000
_cell_angle_gamma 90.000000
_cell_volume 6705.006924
_symmetry_space_group_name_H-M "I B A M"
_symmetry_group_IT_number 72
_symmetry_cell_setting 'orthorhombic'
loop_
_space_group_symop_operation_xyz
x,y,z
-x,-y,z
x,-y,1/2-z
-x,y,1/2-z
-x,-y,-z
x,y,-z
-x,y,1/2+z
x,-y,1/2+z
1/2+x,1/2+y,1/2+z
1/2-x,1/2-y,1/2+z
1/2+x,1/2-y,-z
1/2-x,1/2+y,-z
1/2-x,1/2-y,1/2-z
1/2+x,1/2+y,1/2-z
1/2-x,1/2+y,z
1/2+x,1/2-y,z
loop_
_atom_site_type_symbol
_atom_site_label
_atom_site_fract_x
_atom_site_fract_y
_atom_site_fract_z
Si Si1 0.293353 0.816063 0.813310
Si Si2 0.232646 0.394166 0.075816
Si Si3 0.344658 0.095703 0.229629
Si Si4 0.540015 0.945691 0.349684
Si Si5 0.912344 0.887571 0.189729
Si Si6 0.470904 0.556570 0.425707
Si Si7 0.107853 0.219646 0.209566
O O1 0.256728 0.848911 0.874338
O O2 0.362840 0.852932 0.766701
O O3 0.194159 0.797626 0.766077
O O4 0.353457 0.765926 0.831352
O O5 0.117330 0.421723 0.095027
O O6 0.339782 0.429664 0.086024
O O7 0.231490 0.379660 0.000000
O O8 0.380268 0.056764 0.284915
O O9 0.429557 0.085574 0.170275
O O10 0.213270 0.095793 0.210607
O O11 0.500000 0.000000 0.363657
O O12 0.912445 0.830414 0.172121
O O13 0.000000 0.893293 0.250000
O O14 0.956323 0.916780 0.128392
O O15 0.500000 0.500000 0.421328
O O16 0.496715 0.572281 0.500000
O O17 0.000000 0.235501 0.250000
#
# Coordination Sequence:
#
# PCOD9526223 Si02
#       7
#    16  16  16  16  16  16  16
#     4   9  18  32  51  80 105 136 174 215 272 329
#     4  10  21  37  55  74 104 143 185 223 259 325
#     4   9  18  31  50  76 107 134 166 218 278 314
#     4  10  20  33  50  74 108 142 175 215 268 321
#     4  10  19  35  54  85 110 135 180 232 274 322
#     4  10  22  39  57  77 105 145 182 222 281 333
#     4   9  17  29  54  81 106 134 168 218 275 325
#
# _framework density 16.703935000000001
#
# number of rings (size 3 to 8) (size 9 to 14) (size 15 to 20)
#    0.000    2.429    0.000    4.286    6.000    0.571 
#    2.571    1.429    0.000    0.857    0.000    0.000 
#    0.000    0.000    0.000    0.000    0.000    0.000 
#
# Total GULP energy -311773.890749 kJ/mol
# GULP energy per Si atom -5567.390906 kJ/mol
# Density = 1.666592 g / cm^3
# Si number density = 16.703935 Si / 1000 Ang^3
#
#
#
# Elastic Constant Matrix: (Units=GPa)
#
#
# Indices 1 2 3 4 5 6 
#
# 1 94.3430 40.8717 38.8518 0.0000 0.0000 0.0000
# 2 40.8717 102.4496 60.6463 0.0000 0.0000 0.0000
# 3 38.8518 60.6463 78.4080 0.0000 0.0000 0.0000
# 4 0.0000 0.0000 0.0000 10.8735 0.0000 0.0000
# 5 0.0000 0.0000 0.0000 0.0000 23.3812 0.0000
# 6 0.0000 0.0000 0.0000 0.0000 0.0000 11.2523
#
#
#
# Elastic Compliance Matrix: (Units=1/GPa)
#
#
# Indices 1 2 3 4 5 6 
#
# 1 0.013702 -0.002669 -0.004725 0.000000 0.000000 0.000000
# 2 -0.002669 0.018525 -0.013006 0.000000 0.000000 0.000000
# 3 -0.004725 -0.013006 0.025154 0.000000 0.000000 0.000000
# 4 0.000000 0.000000 0.000000 0.091966 0.000000 0.000000
# 5 0.000000 0.000000 0.000000 0.000000 0.042769 0.000000
# 6 0.000000 0.000000 0.000000 0.000000 0.000000 0.088871
#
#
# Mechanical properties :
#
#
# Convention : Reuss Voigt Hill
#
# Bulk Modulus (GPa) = 60.30812 61.77114 61.03963
# Shear Modulus (GPa) = 15.27587 18.09013 16.68300
#
# Velocity S-wave (km/s) = 3.02736 3.29445 3.16372
# Velocity P-wave (km/s) = 6.95718 7.17854 7.06873
#
# Compressibility (1/GPa) = 0.01658152
#
# Stress axis : x y z
#
# Youngs Moduli (GPa) = 72.98345 53.98200 39.75466
#
# Poissons Ratio (x) = 0.14410 0.18782
# Poissons Ratio (y) = 0.19483 0.51703
# Poissons Ratio (z) = 0.34481 0.70207
#
# Static dielectric constant tensor:
#      x y z
#    x 1.606070 0.000000 0.000000 
#    y 0.000000 1.595030 0.000000 
#    z 0.000000 0.000000 1.545230 
# 
# From -- ./inp_files/37418.got.cif
#   From: 2010.05.17/outbox.cif.g08.bks.cpg/sg72_19_cif.got.tgz:37418.got - 2010.06.03 17:03:01.
