data_PCOD9526569
_publ_section_title
;
Structure prediction by ZEFSAII (Michael W. Deem and Ramdas Pophale) SiO2 
 PCOD9526569
Probable space group: I B A M
;
_chemical_formula_sum "Si O2"
_cell_formula_units_Z 96
_cell_length_a 9.191914
_cell_length_b 16.354969
_cell_length_c 27.275218
_cell_angle_alpha 90.000000
_cell_angle_beta 90.000000
_cell_angle_gamma 90.000000
_cell_volume 4100.378127
_symmetry_space_group_name_H-M "I B A M"
_symmetry_group_IT_number 72
_symmetry_cell_setting 'orthorhombic'
loop_
_space_group_symop_operation_xyz
x,y,z
-x,-y,z
x,-y,1/2-z
-x,y,1/2-z
-x,-y,-z
x,y,-z
-x,y,1/2+z
x,-y,1/2+z
1/2+x,1/2+y,1/2+z
1/2-x,1/2-y,1/2+z
1/2+x,1/2-y,-z
1/2-x,1/2+y,-z
1/2-x,1/2-y,1/2-z
1/2+x,1/2+y,1/2-z
1/2-x,1/2+y,z
1/2+x,1/2-y,z
loop_
_atom_site_type_symbol
_atom_site_label
_atom_site_fract_x
_atom_site_fract_y
_atom_site_fract_z
Si Si1 0.403547 0.698108 0.555347
Si Si2 0.838312 0.005383 0.665980
Si Si3 0.344598 0.561786 0.944704
Si Si4 0.517224 0.119194 0.446712
Si Si5 0.674613 0.137051 0.868098
Si Si6 0.557761 0.091887 0.695493
O O1 0.336551 0.697127 0.500000
O O2 0.523381 0.626638 0.557272
O O3 0.490583 0.782923 0.558716
O O4 0.286599 0.689645 0.599265
O O5 0.852055 0.015390 0.606916
O O6 0.730211 0.076027 0.686663
O O7 0.766001 0.916087 0.670327
O O8 0.000000 0.000000 0.686911
O O9 0.186918 0.603017 0.941792
O O10 0.349498 0.523344 0.000000
O O11 0.470315 0.093001 0.500000
O O12 0.404714 0.081253 0.409312
O O13 0.526087 0.158540 0.838232
O O14 0.500000 0.107291 0.750000
O O15 0.500000 0.000000 0.683235
#
# Coordination Sequence:
#
# PCOD9526569 Si02
#       6
#    16  16  16  16  16  16
#     4  10  20  34  53  80 116 154 197 237 273 329
#     4  11  21  37  58  84 118 149 187 230 289 349
#     4  10  20  33  50  79 119 154 185 230 279 335
#     4  10  20  34  53  80 112 155 201 233 270 330
#     4  11  20  34  59  81 110 150 190 237 289 340
#     4   9  20  39  60  84 110 139 184 243 296 344
#
# _framework density 23.412474
#
# number of rings (size 3 to 8) (size 9 to 14) (size 15 to 20)
#    0.000    1.833    3.333    1.500    0.000    4.333 
#    0.000    8.333    0.000    1.000    0.000    0.000 
#    0.000    0.000    0.000    0.000    0.000    0.000 
#
# Total GULP energy -267386.490956 kJ/mol
# GULP energy per Si atom -5570.551895 kJ/mol
# Density = 2.335919 g / cm^3
# Si number density = 23.412474 Si / 1000 Ang^3
#
#
#
# Elastic Constant Matrix: (Units=GPa)
#
#
# Indices 1 2 3 4 5 6 
#
# 1 171.6600 18.8816 38.6755 0.0000 0.0000 0.0000
# 2 18.8816 40.2119 10.6896 0.0000 0.0000 0.0000
# 3 38.6755 10.6896 109.5505 0.0000 0.0000 0.0000
# 4 0.0000 0.0000 0.0000 17.4996 0.0000 0.0000
# 5 0.0000 0.0000 0.0000 0.0000 10.2946 0.0000
# 6 0.0000 0.0000 0.0000 0.0000 0.0000 30.3239
#
#
#
# Elastic Compliance Matrix: (Units=1/GPa)
#
#
# Indices 1 2 3 4 5 6 
#
# 1 0.006571 -0.002535 -0.002073 0.000000 0.000000 0.000000
# 2 -0.002535 0.026508 -0.001692 0.000000 0.000000 0.000000
# 3 -0.002073 -0.001692 0.010025 0.000000 0.000000 0.000000
# 4 0.000000 0.000000 0.000000 0.057144 0.000000 0.000000
# 5 0.000000 0.000000 0.000000 0.000000 0.097138 0.000000
# 6 0.000000 0.000000 0.000000 0.000000 0.000000 0.032977
#
#
# Mechanical properties :
#
#
# Convention : Reuss Voigt Hill
#
# Bulk Modulus (GPa) = 32.77992 50.87951 41.82971
# Shear Modulus (GPa) = 19.75265 28.50199 24.12732
#
# Velocity S-wave (km/s) = 2.90777 3.49289 3.21367
# Velocity P-wave (km/s) = 5.03040 6.16814 5.62810
#
# Compressibility (1/GPa) = 0.03050648
#
# Stress axis : x y z
#
# Youngs Moduli (GPa) = 152.17885 37.72429 99.75078
#
# Poissons Ratio (x) = 0.09562 0.20674
# Poissons Ratio (y) = 0.38571 0.16876
# Poissons Ratio (z) = 0.31540 0.06382
#
# Static dielectric constant tensor:
#      x y z
#    x 1.990630 0.000000 0.000000 
#    y 0.000000 1.923550 0.000000 
#    z 0.000000 0.000000 1.974450 
# 
# From -- ./inp_files/47300.got.cif
#   From: 2010.05.17/outbox.cif.g08.bks.cpg/sg72_24_cif.got.tgz:47300.got - 2010.06.03 17:03:01.
