data_PCOD9526368
_publ_section_title
;
Structure prediction by ZEFSAII (Michael W. Deem and Ramdas Pophale) SiO2 
 PCOD9526368
Probable space group: I B A M
;
_chemical_formula_sum "Si O2"
_cell_formula_units_Z 96
_cell_length_a 9.082152
_cell_length_b 19.273425
_cell_length_c 25.877570
_cell_angle_alpha 90.000000
_cell_angle_beta 90.000000
_cell_angle_gamma 90.000000
_cell_volume 4529.717902
_symmetry_space_group_name_H-M "I B A M"
_symmetry_group_IT_number 72
_symmetry_cell_setting 'orthorhombic'
loop_
_space_group_symop_operation_xyz
x,y,z
-x,-y,z
x,-y,1/2-z
-x,y,1/2-z
-x,-y,-z
x,y,-z
-x,y,1/2+z
x,-y,1/2+z
1/2+x,1/2+y,1/2+z
1/2-x,1/2-y,1/2+z
1/2+x,1/2-y,-z
1/2-x,1/2+y,-z
1/2-x,1/2-y,1/2-z
1/2+x,1/2+y,1/2-z
1/2-x,1/2+y,z
1/2+x,1/2-y,z
loop_
_atom_site_type_symbol
_atom_site_label
_atom_site_fract_x
_atom_site_fract_y
_atom_site_fract_z
Si Si1 0.347702 0.059353 0.716852
Si Si2 0.787401 0.209735 0.801869
Si Si3 0.992312 0.667857 0.940571
Si Si4 0.565696 0.705920 0.631590
Si Si5 0.350382 0.034867 0.596707
Si Si6 0.811359 0.907772 0.059763
O O1 0.500000 0.069687 0.750000
O O2 0.277955 0.133831 0.708141
O O3 0.358782 0.030704 0.658619
O O4 0.265813 0.000000 0.750000
O O5 0.750000 0.250000 0.750000
O O6 0.709883 0.256620 0.845714
O O7 0.953910 0.200371 0.820630
O O8 0.994633 0.738521 0.909287
O O9 0.868145 0.614854 0.919058
O O10 0.151425 0.630579 0.936787
O O11 0.960201 0.681674 0.000000
O O12 0.592839 0.634097 0.601559
O O13 0.500000 0.000000 0.574984
O O14 0.218657 0.987872 0.575196
O O15 0.861126 0.902715 0.000000
#
# Coordination Sequence:
#
# PCOD9526368 Si02
#       6
#    16  16  16  16  16  16
#     4  11  22  39  68  99 129 174 230 286 338 400
#     4  12  27  43  68  98 132 178 223 284 348 412
#     4  10  20  37  65  98 133 177 228 279 334 404
#     4  12  23  44  67  97 138 175 224 280 343 414
#     4  10  19  36  63  97 133 171 223 280 337 401
#     4  10  22  39  66 100 136 176 222 280 339 404
#
# _framework density 21.193372
#
# number of rings (size 3 to 8) (size 9 to 14) (size 15 to 20)
#    0.000    1.167    5.000    2.500    2.333    2.000 
#    0.000    0.833    0.000    1.000    0.000    0.000 
#    0.000    0.000    0.000    0.000    0.000    0.000 
#
# Total GULP energy -267859.187421 kJ/mol
# GULP energy per Si atom -5580.399738 kJ/mol
# Density = 2.114514 g / cm^3
# Si number density = 21.193372 Si / 1000 Ang^3
#
#
#
# Elastic Constant Matrix: (Units=GPa)
#
#
# Indices 1 2 3 4 5 6 
#
# 1 46.5054 22.0803 24.3456 0.0000 0.0000 0.0000
# 2 22.0803 92.8814 32.7656 0.0000 0.0000 0.0000
# 3 24.3456 32.7656 125.1002 0.0000 0.0000 0.0000
# 4 0.0000 0.0000 0.0000 33.0841 0.0000 0.0000
# 5 0.0000 0.0000 0.0000 0.0000 23.1554 0.0000
# 6 0.0000 0.0000 0.0000 0.0000 0.0000 12.6330
#
#
#
# Elastic Compliance Matrix: (Units=1/GPa)
#
#
# Indices 1 2 3 4 5 6 
#
# 1 0.025745 -0.004796 -0.003754 0.000000 0.000000 0.000000
# 2 -0.004796 0.012756 -0.002408 0.000000 0.000000 0.000000
# 3 -0.003754 -0.002408 0.009355 0.000000 0.000000 0.000000
# 4 0.000000 0.000000 0.000000 0.030226 0.000000 0.000000
# 5 0.000000 0.000000 0.000000 0.000000 0.043187 0.000000
# 6 0.000000 0.000000 0.000000 0.000000 0.000000 0.079158
#
#
# Mechanical properties :
#
#
# Convention : Reuss Voigt Hill
#
# Bulk Modulus (GPa) = 38.54979 46.98554 42.76766
# Shear Modulus (GPa) = 21.64614 26.12754 23.88684
#
# Velocity S-wave (km/s) = 3.19934 3.51496 3.36086
# Velocity P-wave (km/s) = 5.64595 6.22023 5.94004
#
# Compressibility (1/GPa) = 0.02594048
#
# Stress axis : x y z
#
# Youngs Moduli (GPa) = 38.84219 78.39532 106.89747
#
# Poissons Ratio (x) = 0.37598 0.40130
# Poissons Ratio (y) = 0.18629 0.25737
# Poissons Ratio (z) = 0.14582 0.18875
#
# Static dielectric constant tensor:
#      x y z
#    x 1.818260 0.000000 0.000000 
#    y 0.000000 1.758990 0.000000 
#    z 0.000000 0.000000 1.818130 
# 
# From -- ./inp_files/47338.got.cif
#   From: 2010.05.17/outbox.cif.g08.bks.cpg/sg72_24_cif.got.tgz:47338.got - 2010.06.03 17:03:01.
