data_PCOD9526675
_publ_section_title
;
Structure prediction by ZEFSAII (Michael W. Deem and Ramdas Pophale) SiO2 
 PCOD9526675
Probable space group: I B A M
;
_chemical_formula_sum "Si O2"
_cell_formula_units_Z 96
_cell_length_a 25.850964
_cell_length_b 25.668092
_cell_length_c 8.535433
_cell_angle_alpha 90.000000
_cell_angle_beta 90.000000
_cell_angle_gamma 90.000000
_cell_volume 5663.643226
_symmetry_space_group_name_H-M "I B A M"
_symmetry_group_IT_number 72
_symmetry_cell_setting 'orthorhombic'
loop_
_space_group_symop_operation_xyz
x,y,z
-x,-y,z
x,-y,1/2-z
-x,y,1/2-z
-x,-y,-z
x,y,-z
-x,y,1/2+z
x,-y,1/2+z
1/2+x,1/2+y,1/2+z
1/2-x,1/2-y,1/2+z
1/2+x,1/2-y,-z
1/2-x,1/2+y,-z
1/2-x,1/2-y,1/2-z
1/2+x,1/2+y,1/2-z
1/2-x,1/2+y,z
1/2+x,1/2-y,z
loop_
_atom_site_type_symbol
_atom_site_label
_atom_site_fract_x
_atom_site_fract_y
_atom_site_fract_z
Si Si1 0.332364 0.746349 0.185288
Si Si2 0.746428 0.664993 0.814305
Si Si3 0.375403 0.554467 0.315526
Si Si4 0.739708 0.446737 0.813135
Si Si5 0.555204 0.250082 0.316710
Si Si6 0.550615 0.635308 0.683156
O O1 0.306597 0.694490 0.261620
O O2 0.291710 0.792874 0.214722
O O3 0.389124 0.763708 0.243022
O O4 0.335428 0.736392 0.000000
O O5 0.760002 0.611072 0.727192
O O6 0.742949 0.654932 0.000000
O O7 0.396641 0.500000 0.250000
O O8 0.384808 0.560116 0.500000
O O9 0.314735 0.554079 0.279002
O O10 0.400411 0.600582 0.218099
O O11 0.766666 0.500000 0.750000
O O12 0.732395 0.451432 0.000000
O O13 0.500000 0.229589 0.250000
O O14 0.556367 0.239641 0.500000
O O15 0.553837 0.311874 0.281560
O O16 0.500000 0.606606 0.750000
O O17 0.545680 0.647350 0.500000
#
# Coordination Sequence:
#
# PCOD9526675 Si02
#       6
#    16  16  16  16  16  16
#     4  10  20  34  52  75 103 134 168 206 249 296
#     4  10  20  34  52  75 103 134 168 206 249 296
#     4  11  21  34  48  64  85 113 151 193 239 284
#     4  11  21  34  51  71  96 126 161 199 241 289
#     4  11  21  34  51  71  96 126 161 199 241 289
#     4  11  21  34  48  64  85 113 151 193 239 284
#
# _framework density 16.950219000000001
#
# number of rings (size 3 to 8) (size 9 to 14) (size 15 to 20)
#    0.000    1.333    0.000   10.000    0.000    2.333 
#    0.000    1.667    0.000    0.000    0.000    0.000 
#    0.000    0.667    0.000    7.000    0.000    3.000 
#
# Total GULP energy -267729.716704 kJ/mol
# GULP energy per Si atom -5577.702431 kJ/mol
# Density = 1.691164 g / cm^3
# Si number density = 16.950219 Si / 1000 Ang^3
#
#
#
# Elastic Constant Matrix: (Units=GPa)
#
#
# Indices 1 2 3 4 5 6 
#
# 1 79.5360 10.7104 19.5171 0.0000 0.0000 0.0000
# 2 10.7104 60.3967 31.8224 0.0000 0.0000 0.0000
# 3 19.5171 31.8224 59.4063 0.0000 0.0000 0.0000
# 4 0.0000 0.0000 0.0000 23.9635 0.0000 0.0000
# 5 0.0000 0.0000 0.0000 0.0000 26.0008 0.0000
# 6 0.0000 0.0000 0.0000 0.0000 0.0000 0.7370
#
#
#
# Elastic Compliance Matrix: (Units=1/GPa)
#
#
# Indices 1 2 3 4 5 6 
#
# 1 0.013676 -0.000081 -0.004450 0.000000 0.000000 0.000000
# 2 -0.000081 0.023068 -0.012331 0.000000 0.000000 0.000000
# 3 -0.004450 -0.012331 0.024900 0.000000 0.000000 0.000000
# 4 0.000000 0.000000 0.000000 0.041730 0.000000 0.000000
# 5 0.000000 0.000000 0.000000 0.000000 0.038460 0.000000
# 6 0.000000 0.000000 0.000000 0.000000 0.000000 1.356791
#
#
# Mechanical properties :
#
#
# Convention : Reuss Voigt Hill
#
# Bulk Modulus (GPa) = 35.81358 35.93762 35.87560
# Shear Modulus (GPa) = 3.24327 19.29287 11.26807
#
# Velocity S-wave (km/s) = 1.38476 3.37739 2.58112
# Velocity P-wave (km/s) = 4.87148 6.03796 5.48581
#
# Compressibility (1/GPa) = 0.02792237
#
# Stress axis : x y z
#
# Youngs Moduli (GPa) = 73.12241 43.34942 40.16017
#
# Poissons Ratio (x) = 0.00350 0.17870
# Poissons Ratio (y) = 0.00590 0.49520
# Poissons Ratio (z) = 0.32538 0.53452
#
# Static dielectric constant tensor:
#      x y z
#    x 1.644000 0.000000 0.000000 
#    y 0.000000 1.609500 0.000000 
#    z 0.000000 0.000000 1.566320 
# 
# From -- ./inp_files/8286.got.cif
#   From: 2010.05.17/outbox.cif.g08.bks.cpg/sg72_5_cif.got.tgz:8286.got - 2010.06.03 17:03:01.
