data_PCOD9526367
_publ_section_title
;
Structure prediction by ZEFSAII (Michael W. Deem and Ramdas Pophale) SiO2 
 PCOD9526367
Probable space group: I B A M
;
_chemical_formula_sum "Si O2"
_cell_formula_units_Z 80
_cell_length_a 15.269413
_cell_length_b 8.898266
_cell_length_c 26.476856
_cell_angle_alpha 90.000000
_cell_angle_beta 90.000000
_cell_angle_gamma 90.000000
_cell_volume 3597.444806
_symmetry_space_group_name_H-M "I B A M"
_symmetry_group_IT_number 72
_symmetry_cell_setting 'orthorhombic'
loop_
_space_group_symop_operation_xyz
x,y,z
-x,-y,z
x,-y,1/2-z
-x,y,1/2-z
-x,-y,-z
x,y,-z
-x,y,1/2+z
x,-y,1/2+z
1/2+x,1/2+y,1/2+z
1/2-x,1/2-y,1/2+z
1/2+x,1/2-y,-z
1/2-x,1/2+y,-z
1/2-x,1/2-y,1/2-z
1/2+x,1/2+y,1/2-z
1/2-x,1/2+y,z
1/2+x,1/2-y,z
loop_
_atom_site_type_symbol
_atom_site_label
_atom_site_fract_x
_atom_site_fract_y
_atom_site_fract_z
Si Si1 0.253118 0.919216 0.799513
Si Si2 0.718715 0.184763 0.373160
Si Si3 0.915468 0.824707 0.442051
Si Si4 0.910343 0.839568 0.899050
Si Si5 0.046654 0.337493 0.800594
O O1 0.264635 0.026585 0.847463
O O2 0.351423 0.865734 0.787582
O O3 0.216268 0.000000 0.750000
O O4 0.198765 0.784277 0.823344
O O5 0.643388 0.203483 0.413546
O O6 0.812180 0.224812 0.398616
O O7 0.889660 0.847390 0.500000
O O8 0.017751 0.783224 0.438703
O O9 0.904527 0.982309 0.411379
O O10 0.951006 0.783456 0.845685
O O11 0.000000 0.500000 0.813815
O O12 0.000000 0.283142 0.750000
#
# Coordination Sequence:
#
# PCOD9526367 Si02
#       5
#    16  16  16  16  16
#     4  11  21  38  64  93 134 172 211 255 326 394
#     4  11  23  42  65 101 132 173 217 275 325 397
#     4  11  24  44  69  92 128 174 224 286 339 386
#     4  10  22  42  66  95 132 172 224 274 334 403
#     4  10  19  36  63  93 131 176 207 265 329 396
#
# _framework density 22.238005000000001
#
# number of rings (size 3 to 8) (size 9 to 14) (size 15 to 20)
#    0.000    1.400    4.000    3.000    0.000    1.600 
#    0.000    2.000    0.000    7.200    0.000    0.000 
#    0.000    0.000    0.000    0.000    0.000    0.000 
#
# Total GULP energy -223245.992566 kJ/mol
# GULP energy per Si atom -5581.149814 kJ/mol
# Density = 2.218739 g / cm^3
# Si number density = 22.238005 Si / 1000 Ang^3
#
#
#
# Elastic Constant Matrix: (Units=GPa)
#
#
# Indices 1 2 3 4 5 6 
#
# 1 69.3797 -15.7378 29.4214 0.0000 0.0000 0.0000
# 2 -15.7378 40.0111 28.2353 0.0000 0.0000 0.0000
# 3 29.4214 28.2353 107.8087 0.0000 0.0000 0.0000
# 4 0.0000 0.0000 0.0000 20.1391 0.0000 0.0000
# 5 0.0000 0.0000 0.0000 0.0000 25.8532 0.0000
# 6 0.0000 0.0000 0.0000 0.0000 0.0000 15.8619
#
#
#
# Elastic Compliance Matrix: (Units=1/GPa)
#
#
# Indices 1 2 3 4 5 6 
#
# 1 0.022472 0.016152 -0.010363 0.000000 0.000000 0.000000
# 2 0.016152 0.042269 -0.015478 0.000000 0.000000 0.000000
# 3 -0.010363 -0.015478 0.016157 0.000000 0.000000 0.000000
# 4 0.000000 0.000000 0.000000 0.049655 0.000000 0.000000
# 5 0.000000 0.000000 0.000000 0.000000 0.038680 0.000000
# 6 0.000000 0.000000 0.000000 0.000000 0.000000 0.063044
#
#
# Mechanical properties :
#
#
# Convention : Reuss Voigt Hill
#
# Bulk Modulus (GPa) = 16.25498 33.44860 24.85179
# Shear Modulus (GPa) = 18.37143 24.05620 21.21381
#
# Velocity S-wave (km/s) = 2.87736 3.29258 3.09195
# Velocity P-wave (km/s) = 4.28537 5.43403 4.89352
#
# Compressibility (1/GPa) = 0.06151962
#
# Stress axis : x y z
#
# Youngs Moduli (GPa) = 44.50044 23.65812 61.89081
#
# Poissons Ratio (x) = -0.38212 0.64136
# Poissons Ratio (y) = -0.71876 0.95795
# Poissons Ratio (z) = 0.46115 0.36618
#
# Static dielectric constant tensor:
#      x y z
#    x 1.858590 0.000000 0.000000 
#    y 0.000000 1.919280 0.000000 
#    z 0.000000 0.000000 1.806840 
# 
# From -- ./inp_files/48942.got.cif
#   From: 2010.05.17/outbox.cif.g08.bks.cpg/sg72_25_cif.got.tgz:48942.got - 2010.06.03 17:03:01.
