data_PCOD9526514
_publ_section_title
;
Structure prediction by ZEFSAII (Michael W. Deem and Ramdas Pophale) SiO2 
 PCOD9526514
Probable space group: I B A M
;
_chemical_formula_sum "Si O2"
_cell_formula_units_Z 128
_cell_length_a 13.613606
_cell_length_b 22.794943
_cell_length_c 20.307665
_cell_angle_alpha 90.000000
_cell_angle_beta 90.000000
_cell_angle_gamma 90.000000
_cell_volume 6301.902481
_symmetry_space_group_name_H-M "I B A M"
_symmetry_group_IT_number 72
_symmetry_cell_setting 'orthorhombic'
loop_
_space_group_symop_operation_xyz
x,y,z
-x,-y,z
x,-y,1/2-z
-x,y,1/2-z
-x,-y,-z
x,y,-z
-x,y,1/2+z
x,-y,1/2+z
1/2+x,1/2+y,1/2+z
1/2-x,1/2-y,1/2+z
1/2+x,1/2-y,-z
1/2-x,1/2+y,-z
1/2-x,1/2-y,1/2-z
1/2+x,1/2+y,1/2-z
1/2-x,1/2+y,z
1/2+x,1/2-y,z
loop_
_atom_site_type_symbol
_atom_site_label
_atom_site_fract_x
_atom_site_fract_y
_atom_site_fract_z
Si Si1 0.053858 0.933027 0.819641
Si Si2 0.857371 0.682561 0.658282
Si Si3 0.871799 0.778340 0.146099
Si Si4 0.183122 0.426601 0.424115
Si Si5 0.414310 0.393263 0.573917
Si Si6 0.163315 0.659390 0.692192
Si Si7 0.278604 0.027348 0.322449
Si Si8 0.611684 0.698083 0.203225
O O1 0.159442 0.964117 0.826801
O O2 0.075714 0.864087 0.819738
O O3 0.000000 0.943499 0.750000
O O4 0.974516 0.935771 0.877685
O O5 0.742655 0.700507 0.648093
O O6 0.873334 0.628866 0.608636
O O7 0.877808 0.661006 0.733146
O O8 0.909729 0.745931 0.657529
O O9 0.918141 0.824727 0.095769
O O10 0.880844 0.707571 0.141802
O O11 0.910453 0.791044 0.219979
O O12 0.154029 0.436388 0.500000
O O13 0.299483 0.410476 0.423861
O O14 0.179270 0.483197 0.376979
O O15 0.451465 0.399606 0.500000
O O16 0.174663 0.592211 0.671205
O O17 0.271048 0.687125 0.702758
O O18 0.296986 0.000000 0.250000
#
# Coordination Sequence:
#
# PCOD9526514 Si02
#       8
#    16  16  16  16  16  16  16  16
#     4  11  20  30  44  65  91 124 162 195 222 259
#     4   8  13  26  45  64  81 104 141 186 236 278
#     4   8  13  26  45  64  81 104 141 186 236 278
#     4  10  20  32  44  60  88 125 159 189 225 271
#     4  10  20  32  44  60  88 125 159 189 225 271
#     4   8  14  25  45  66  83 103 140 192 234 266
#     4  11  20  30  44  65  91 124 162 195 222 259
#     4   8  14  25  45  66  83 103 140 192 234 266
#
# _framework density 20.311326999999999
#
# number of rings (size 3 to 8) (size 9 to 14) (size 15 to 20)
#    0.000    2.750    2.500    2.250    0.000    2.250 
#    0.000    2.500    0.000    4.500    0.000    0.000 
#    0.000    1.000    2.000    2.250    0.000    0.250 
#
# Total GULP energy -356489.930037 kJ/mol
# GULP energy per Si atom -5570.155157 kJ/mol
# Density = 2.026510 g / cm^3
# Si number density = 20.311327 Si / 1000 Ang^3
#
#
#
# Elastic Constant Matrix: (Units=GPa)
#
#
# Indices 1 2 3 4 5 6 
#
# 1 18.9516 1.6304 1.5086 0.0000 0.0000 0.0000
# 2 1.6304 172.5465 62.3065 0.0000 0.0000 0.0000
# 3 1.5086 62.3065 112.3747 0.0000 0.0000 0.0000
# 4 0.0000 0.0000 0.0000 -12.3827 0.0000 0.0000
# 5 0.0000 0.0000 0.0000 0.0000 13.0134 0.0000
# 6 0.0000 0.0000 0.0000 0.0000 0.0000 19.8933
#
#
#
# Elastic Compliance Matrix: (Units=1/GPa)
#
#
# Indices 1 2 3 4 5 6 
#
# 1 0.052835 -0.000304 -0.000541 0.000000 0.000000 0.000000
# 2 -0.000304 0.007248 -0.004015 0.000000 0.000000 0.000000
# 3 -0.000541 -0.004015 0.011132 0.000000 0.000000 0.000000
# 4 0.000000 0.000000 0.000000 -0.080758 0.000000 0.000000
# 5 0.000000 0.000000 0.000000 0.000000 0.076844 0.000000
# 6 0.000000 0.000000 0.000000 0.000000 0.000000 0.050268
#
#
# Mechanical properties :
#
#
# Convention : Reuss Voigt Hill
#
# Bulk Modulus (GPa) = 16.26110 48.30707 32.28409
# Shear Modulus (GPa) = 33.83245 19.99996 26.91620
#
# Velocity S-wave (km/s) = 4.08572 3.14135 3.64425
# Velocity P-wave (km/s) = 5.50280 6.08214 5.79970
#
# Compressibility (1/GPa) = 0.06149645
#
# Stress axis : x y z
#
# Youngs Moduli (GPa) = 18.92682 137.96716 89.83113
#
# Poissons Ratio (x) = 0.04194 0.04858
# Poissons Ratio (y) = 0.00575 0.36064
# Poissons Ratio (z) = 0.01023 0.55389
#
# Static dielectric constant tensor:
#      x y z
#    x 1.841880 0.000000 0.000000 
#    y 0.000000 1.753710 0.000000 
#    z 0.000000 0.000000 1.691630 
# 
# From -- ./inp_files/33568.got.cif
#   From: 2010.05.17/outbox.cif.g08.bks.cpg/sg72_17_cif.got.tgz:33568.got - 2010.06.03 17:03:01.
