data_PCOD9526686
_publ_section_title
;
Structure prediction by ZEFSAII (Michael W. Deem and Ramdas Pophale) SiO2 
 PCOD9526686
Probable space group: I B A M
;
_chemical_formula_sum "Si O2"
_cell_formula_units_Z 112
_cell_length_a 10.083957
_cell_length_b 22.223953
_cell_length_c 26.326378
_cell_angle_alpha 90.000000
_cell_angle_beta 90.000000
_cell_angle_gamma 90.000000
_cell_volume 5899.883115
_symmetry_space_group_name_H-M "I B A M"
_symmetry_group_IT_number 72
_symmetry_cell_setting 'orthorhombic'
loop_
_space_group_symop_operation_xyz
x,y,z
-x,-y,z
x,-y,1/2-z
-x,y,1/2-z
-x,-y,-z
x,y,-z
-x,y,1/2+z
x,-y,1/2+z
1/2+x,1/2+y,1/2+z
1/2-x,1/2-y,1/2+z
1/2+x,1/2-y,-z
1/2-x,1/2+y,-z
1/2-x,1/2-y,1/2-z
1/2+x,1/2+y,1/2-z
1/2-x,1/2+y,z
1/2+x,1/2-y,z
loop_
_atom_site_type_symbol
_atom_site_label
_atom_site_fract_x
_atom_site_fract_y
_atom_site_fract_z
Si Si1 0.876512 0.749756 0.713832
Si Si2 0.005848 0.320451 0.375264
Si Si3 0.106561 0.081047 0.942077
Si Si4 0.518803 0.701121 0.060855
Si Si5 0.025526 0.567474 0.441830
Si Si6 0.206753 0.848590 0.856492
Si Si7 0.815150 0.042461 0.912553
O O1 0.750000 0.750000 0.750000
O O2 0.876601 0.814129 0.685706
O O3 0.000000 0.741320 0.750000
O O4 0.891402 0.701240 0.667979
O O5 0.035344 0.380890 0.406751
O O6 0.860668 0.332026 0.350967
O O7 0.989811 0.265819 0.415229
O O8 0.095382 0.151092 0.927029
O O9 0.951899 0.060526 0.939951
O O10 0.183741 0.029934 0.910823
O O11 0.154045 0.076844 0.000000
O O12 0.649766 0.677888 0.090266
O O13 0.533817 0.702784 0.000000
O O14 0.980376 0.573115 0.500000
O O15 0.185853 0.568876 0.440067
O O16 0.000000 0.500000 0.423016
O O17 0.185378 0.920095 0.860146
#
# Coordination Sequence:
#
# PCOD9526686 Si02
#       7
#    16  16  16  16  16  16  16
#     4  11  21  39  64  88 111 144 192 254 311 369
#     4  10  20  36  55  82 113 149 200 242 301 352
#     4   9  15  26  46  73 101 145 193 228 273 324
#     4   9  18  30  47  79 119 153 189 237 286 341
#     4  10  20  34  52  78 117 166 202 230 279 351
#     4   9  19  33  53  82 106 145 192 234 290 359
#     4   9  16  29  48  72 106 142 191 236 270 333
#
# _framework density 18.983426999999999
#
# number of rings (size 3 to 8) (size 9 to 14) (size 15 to 20)
#    0.000    2.429    1.429    2.143    0.000    4.571 
#    5.143    1.429    0.000    0.429    0.000   34.000 
#    0.000    0.000    0.000    0.000    0.000    0.000 
#
# Total GULP energy -311863.434355 kJ/mol
# GULP energy per Si atom -5568.989899 kJ/mol
# Density = 1.894022 g / cm^3
# Si number density = 18.983427 Si / 1000 Ang^3
#
#
#
# Elastic Constant Matrix: (Units=GPa)
#
#
# Indices 1 2 3 4 5 6 
#
# 1 55.8336 22.7329 21.9442 0.0000 0.0000 0.0000
# 2 22.7329 161.6609 66.0930 0.0000 0.0000 0.0000
# 3 21.9442 66.0930 91.2155 0.0000 0.0000 0.0000
# 4 0.0000 0.0000 0.0000 21.0046 0.0000 0.0000
# 5 0.0000 0.0000 0.0000 0.0000 17.1423 0.0000
# 6 0.0000 0.0000 0.0000 0.0000 0.0000 21.2429
#
#
#
# Elastic Compliance Matrix: (Units=1/GPa)
#
#
# Indices 1 2 3 4 5 6 
#
# 1 0.019943 -0.001198 -0.003930 0.000000 0.000000 0.000000
# 2 -0.001198 0.008862 -0.006133 0.000000 0.000000 0.000000
# 3 -0.003930 -0.006133 0.016352 0.000000 0.000000 0.000000
# 4 0.000000 0.000000 0.000000 0.047609 0.000000 0.000000
# 5 0.000000 0.000000 0.000000 0.000000 0.058335 0.000000
# 6 0.000000 0.000000 0.000000 0.000000 0.000000 0.047075
#
#
# Mechanical properties :
#
#
# Convention : Reuss Voigt Hill
#
# Bulk Modulus (GPa) = 44.17816 58.91669 51.54742
# Shear Modulus (GPa) = 21.90672 25.07395 23.49034
#
# Velocity S-wave (km/s) = 3.40073 3.63827 3.52150
# Velocity P-wave (km/s) = 6.22434 6.98230 6.61419
#
# Compressibility (1/GPa) = 0.02263562
#
# Stress axis : x y z
#
# Youngs Moduli (GPa) = 50.14409 112.84767 61.15403
#
# Poissons Ratio (x) = 0.13515 0.24033
# Poissons Ratio (y) = 0.06005 0.37504
# Poissons Ratio (z) = 0.19706 0.69207
#
# Static dielectric constant tensor:
#      x y z
#    x 1.712880 0.000000 0.000000 
#    y 0.000000 1.725200 0.000000 
#    z 0.000000 0.000000 1.674820 
# 
# From -- ./inp_files/43520.got.cif
#   From: 2010.05.17/outbox.cif.g08.bks.cpg/sg72_22_cif.got.tgz:43520.got - 2010.06.03 17:03:01.
