data_PCOD9526163
_publ_section_title
;
Structure prediction by ZEFSAII (Michael W. Deem and Ramdas Pophale) SiO2 
 PCOD9526163
Probable space group: I B A M
;
_chemical_formula_sum "Si O2"
_cell_formula_units_Z 112
_cell_length_a 12.329196
_cell_length_b 29.174308
_cell_length_c 16.437425
_cell_angle_alpha 90.000000
_cell_angle_beta 90.000000
_cell_angle_gamma 90.000000
_cell_volume 5912.472102
_symmetry_space_group_name_H-M "I B A M"
_symmetry_group_IT_number 72
_symmetry_cell_setting 'orthorhombic'
loop_
_space_group_symop_operation_xyz
x,y,z
-x,-y,z
x,-y,1/2-z
-x,y,1/2-z
-x,-y,-z
x,y,-z
-x,y,1/2+z
x,-y,1/2+z
1/2+x,1/2+y,1/2+z
1/2-x,1/2-y,1/2+z
1/2+x,1/2-y,-z
1/2-x,1/2+y,-z
1/2-x,1/2-y,1/2-z
1/2+x,1/2+y,1/2-z
1/2-x,1/2+y,z
1/2+x,1/2-y,z
loop_
_atom_site_type_symbol
_atom_site_label
_atom_site_fract_x
_atom_site_fract_y
_atom_site_fract_z
Si Si1 0.872893 0.660899 0.598986
Si Si2 0.297828 0.585687 0.096393
Si Si3 0.619924 0.170740 0.099822
Si Si4 0.689817 0.606793 0.903928
Si Si5 0.123365 0.992670 0.153705
Si Si6 0.978012 0.153330 0.344628
Si Si7 0.687149 0.728881 0.597856
O O1 0.876011 0.662966 0.500000
O O2 0.810060 0.613842 0.619771
O O3 0.795309 0.702592 0.627092
O O4 0.996165 0.664559 0.627270
O O5 0.301788 0.532113 0.115224
O O6 0.397831 0.610127 0.141884
O O7 0.314728 0.593084 0.000000
O O8 0.700154 0.130431 0.126503
O O9 0.667809 0.219642 0.127053
O O10 0.620207 0.170851 0.000000
O O11 0.662300 0.558385 0.864146
O O12 0.590546 0.641465 0.887947
O O13 0.699089 0.599121 0.000000
O O14 0.121899 0.000000 0.250000
O O15 0.000000 0.000000 0.122410
O O16 0.914576 0.196803 0.380002
O O17 0.000000 0.159673 0.250000
O O18 0.694108 0.730544 0.500000
#
# Coordination Sequence:
#
# PCOD9526163 Si02
#       7
#    16  16  16  16  16  16  16
#     4   8  16  32  53  80 111 142 185 232 280 331
#     4  10  19  34  58  82 105 147 193 232 277 339
#     4   9  19  34  56  85 115 144 185 242 289 322
#     4  11  22  35  57  89 117 143 186 240 282 328
#     4  11  22  36  57  83 116 149 180 225 294 347
#     4  11  21  34  53  80 119 152 184 229 282 335
#     4   9  18  33  58  83 107 149 195 234 277 332
#
# _framework density 18.943006
#
# number of rings (size 3 to 8) (size 9 to 14) (size 15 to 20)
#    0.000    2.143    1.429    3.429    2.000    0.571 
#    0.000    1.429    3.143    4.286    0.000    0.000 
#    0.000    0.000    0.000    0.000    0.000    0.000 
#
# Total GULP energy -312640.403082 kJ/mol
# GULP energy per Si atom -5582.864341 kJ/mol
# Density = 1.889989 g / cm^3
# Si number density = 18.943006 Si / 1000 Ang^3
#
#
#
# Elastic Constant Matrix: (Units=GPa)
#
#
# Indices 1 2 3 4 5 6 
#
# 1 163.0555 90.7937 13.8268 0.0000 0.0000 -0.0013
# 2 90.7937 131.3512 12.6278 0.0001 0.0000 0.0017
# 3 13.8268 12.6278 17.3436 0.0004 0.0000 -0.0013
# 4 0.0000 0.0001 0.0004 8.6355 0.0000 0.0022
# 5 0.0000 0.0000 0.0000 0.0000 -11.2432 -0.0005
# 6 -0.0013 0.0017 -0.0013 0.0022 -0.0005 -141.5499
#
#
#
# Elastic Compliance Matrix: (Units=1/GPa)
#
#
# Indices 1 2 3 4 5 6 
#
# 1 0.010133 -0.006696 -0.003203 0.000000 0.000000 0.000000
# 2 -0.006696 0.012612 -0.003844 0.000000 0.000000 0.000000
# 3 -0.003203 -0.003844 0.063010 -0.000003 0.000000 -0.000001
# 4 0.000000 0.000000 -0.000003 0.115801 0.000000 0.000002
# 5 0.000000 0.000000 0.000000 0.000000 -0.088942 0.000000
# 6 0.000000 0.000000 -0.000001 0.000002 0.000000 -0.007065
#
#
# Mechanical properties :
#
#
# Convention : Reuss Voigt Hill
#
# Bulk Modulus (GPa) = 17.16187 60.69412 38.92799
# Shear Modulus (GPa) = 32.79597 -15.86472 8.46562
#
# Velocity S-wave (km/s) = 4.16540 -2.89709 2.11629
# Velocity P-wave (km/s) = 5.67569 4.57374 5.15425
#
# Compressibility (1/GPa) = 0.05826871
#
# Stress axis : x y z
#
# Youngs Moduli (GPa) = 98.68484 79.29263 15.87047
#
# Poissons Ratio (x) = 0.53098 0.05083
# Poissons Ratio (y) = 0.66084 0.06100
# Poissons Ratio (z) = 0.31607 0.30478
#
# Static dielectric constant tensor:
#      x y z
#    x 1.653210 0.000000 0.000000 
#    y 0.000000 1.652210 0.000000 
#    z 0.000000 0.000000 1.659650 
# 
# From -- ./inp_files/20683.got.cif
#   From: 2010.05.17/outbox.cif.g08.bks.cpg/sg72_11_cif.got.tgz:20683.got - 2010.06.03 17:03:01.
