data_PCOD9526648
_publ_section_title
;
Structure prediction by ZEFSAII (Michael W. Deem and Ramdas Pophale) SiO2 
 PCOD9526648
Probable space group: I B A M
;
_chemical_formula_sum "Si O2"
_cell_formula_units_Z 112
_cell_length_a 16.063242
_cell_length_b 28.076580
_cell_length_c 14.832655
_cell_angle_alpha 90.000000
_cell_angle_beta 90.000000
_cell_angle_gamma 90.000000
_cell_volume 6689.540741
_symmetry_space_group_name_H-M "I B A M"
_symmetry_group_IT_number 72
_symmetry_cell_setting 'orthorhombic'
loop_
_space_group_symop_operation_xyz
x,y,z
-x,-y,z
x,-y,1/2-z
-x,y,1/2-z
-x,-y,-z
x,y,-z
-x,y,1/2+z
x,-y,1/2+z
1/2+x,1/2+y,1/2+z
1/2-x,1/2-y,1/2+z
1/2+x,1/2-y,-z
1/2-x,1/2+y,-z
1/2-x,1/2-y,1/2-z
1/2+x,1/2+y,1/2-z
1/2-x,1/2+y,z
1/2+x,1/2-y,z
loop_
_atom_site_type_symbol
_atom_site_label
_atom_site_fract_x
_atom_site_fract_y
_atom_site_fract_z
Si Si1 0.766332 0.661181 0.108295
Si Si2 0.906774 0.978698 0.106928
Si Si3 0.973152 0.881973 0.150590
Si Si4 0.651478 0.423620 0.605036
Si Si5 0.610381 0.285197 0.100861
Si Si6 0.302896 0.765522 0.395736
Si Si7 0.910630 0.300253 0.270411
O O1 0.715587 0.615180 0.141376
O O2 0.710617 0.708950 0.120555
O O3 0.849385 0.669645 0.165513
O O4 0.781979 0.658103 0.000000
O O5 0.910874 0.927297 0.152916
O O6 0.851830 0.022631 0.142886
O O7 0.891027 0.970954 0.000000
O O8 0.000000 0.000000 0.114717
O O9 0.931356 0.836632 0.105801
O O10 0.000000 0.867848 0.250000
O O11 0.058879 0.900798 0.107075
O O12 0.672524 0.429725 0.500000
O O13 0.710025 0.287269 0.115341
O O14 0.575178 0.248884 0.174239
O O15 0.598273 0.265226 0.000000
O O16 0.329018 0.772098 0.500000
O O17 0.363349 0.787426 0.321963
O O18 0.000000 0.322418 0.250000
#
# Coordination Sequence:
#
# PCOD9526648 Si02
#       7
#    16  16  16  16  16  16  16
#     4   9  18  33  51  70  94 129 168 211 252 298
#     4   8  15  30  44  61  94 130 163 201 234 276
#     4  11  21  27  45  72 104 137 169 201 243 291
#     4   9  18  31  49  67  91 134 173 203 245 289
#     4  10  20  34  49  70  98 136 175 211 247 292
#     4   9  20  35  51  67  95 129 163 210 256 296
#     4  11  22  33  50  71  98 128 165 216 259 302
#
# _framework density 16.742553999999998
#
# number of rings (size 3 to 8) (size 9 to 14) (size 15 to 20)
#    0.000    2.429    0.000    5.571    6.000    3.714 
#    0.000    0.000    0.000    0.000    0.000    0.000 
#    0.000    2.286    0.000    8.429    0.000    0.000 
#
# Total GULP energy -312176.915925 kJ/mol
# GULP energy per Si atom -5574.587784 kJ/mol
# Density = 1.670445 g / cm^3
# Si number density = 16.742554 Si / 1000 Ang^3
#
#
#
# Elastic Constant Matrix: (Units=GPa)
#
#
# Indices 1 2 3 4 5 6 
#
# 1 58.3831 40.2764 27.3337 0.0000 0.0000 0.0000
# 2 40.2764 76.1511 15.6705 0.0000 0.0000 0.0000
# 3 27.3337 15.6705 58.7987 0.0000 0.0000 0.0000
# 4 0.0000 0.0000 0.0000 13.0986 0.0000 0.0000
# 5 0.0000 0.0000 0.0000 0.0000 10.6480 0.0000
# 6 0.0000 0.0000 0.0000 0.0000 0.0000 25.6549
#
#
#
# Elastic Compliance Matrix: (Units=1/GPa)
#
#
# Indices 1 2 3 4 5 6 
#
# 1 0.032729 -0.015002 -0.011217 0.000000 0.000000 0.000000
# 2 -0.015002 0.020771 0.001439 0.000000 0.000000 0.000000
# 3 -0.011217 0.001439 0.021838 0.000000 0.000000 0.000000
# 4 0.000000 0.000000 0.000000 0.076344 0.000000 0.000000
# 5 0.000000 0.000000 0.000000 0.000000 0.093915 0.000000
# 6 0.000000 0.000000 0.000000 0.000000 0.000000 0.038979
#
#
# Mechanical properties :
#
#
# Convention : Reuss Voigt Hill
#
# Bulk Modulus (GPa) = 38.79408 39.98822 39.39115
# Shear Modulus (GPa) = 14.58882 17.21712 15.90297
#
# Velocity S-wave (km/s) = 2.95509 3.21026 3.08531
# Velocity P-wave (km/s) = 5.90463 6.13816 6.02253
#
# Compressibility (1/GPa) = 0.02577713
#
# Stress axis : x y z
#
# Youngs Moduli (GPa) = 30.55376 48.14513 45.79173
#
# Poissons Ratio (x) = 0.72229 0.51362
# Poissons Ratio (y) = 0.45838 -0.06588
# Poissons Ratio (z) = 0.34271 -0.06926
#
# Static dielectric constant tensor:
#      x y z
#    x 1.565470 0.000000 0.000000 
#    y 0.000000 1.581160 0.000000 
#    z 0.000000 0.000000 1.608820 
# 
# From -- ./inp_files/22302.got.cif
#   From: 2010.05.17/outbox.cif.g08.bks.cpg/sg72_12_cif.got.tgz:22302.got - 2010.06.03 17:03:01.
