data_PCOD9526417
_publ_section_title
;
Structure prediction by ZEFSAII (Michael W. Deem and Ramdas Pophale) SiO2 
 PCOD9526417
Probable space group: I B A M
;
_chemical_formula_sum "Si O2"
_cell_formula_units_Z 96
_cell_length_a 24.311929
_cell_length_b 8.504448
_cell_length_c 18.979068
_cell_angle_alpha 90.000000
_cell_angle_beta 90.000000
_cell_angle_gamma 90.000000
_cell_volume 3924.103293
_symmetry_space_group_name_H-M "I B A M"
_symmetry_group_IT_number 72
_symmetry_cell_setting 'orthorhombic'
loop_
_space_group_symop_operation_xyz
x,y,z
-x,-y,z
x,-y,1/2-z
-x,y,1/2-z
-x,-y,-z
x,y,-z
-x,y,1/2+z
x,-y,1/2+z
1/2+x,1/2+y,1/2+z
1/2-x,1/2-y,1/2+z
1/2+x,1/2-y,-z
1/2-x,1/2+y,-z
1/2-x,1/2-y,1/2-z
1/2+x,1/2+y,1/2-z
1/2-x,1/2+y,z
1/2+x,1/2-y,z
loop_
_atom_site_type_symbol
_atom_site_label
_atom_site_fract_x
_atom_site_fract_y
_atom_site_fract_z
Si Si1 0.637618 0.044824 0.581920
Si Si2 0.637893 0.374121 0.419777
Si Si3 0.336465 0.380141 0.310417
Si Si4 0.032963 0.340049 0.919478
Si Si5 0.050567 0.828290 0.287170
Si Si6 0.769023 0.319713 0.417947
O O1 0.641846 0.089739 0.500000
O O2 0.595741 0.901926 0.585297
O O3 0.697563 0.979647 0.599308
O O4 0.615862 0.209321 0.611551
O O5 0.620392 0.409593 0.500000
O O6 0.629749 0.515545 0.366989
O O7 0.704247 0.347654 0.418646
O O8 0.315672 0.500000 0.250000
O O9 0.385906 0.271776 0.280304
O O10 0.290519 0.293864 0.356286
O O11 0.029988 0.194813 0.867286
O O12 0.000000 0.500000 0.901081
O O13 0.018571 0.301376 0.000000
O O14 0.000000 0.738778 0.250000
O O15 0.052756 0.000000 0.250000
O O16 0.784046 0.272784 0.500000
#
# Coordination Sequence:
#
# PCOD9526417 Si02
#       6
#    16  16  16  16  16  16
#     4   9  18  34  58  90 124 156 204 266 322 380
#     4  10  21  37  62  97 130 165 215 267 322 388
#     4  11  23  38  59  88 131 174 215 263 317 385
#     4  10  21  39  67  97 124 161 217 285 346 395
#     4  10  23  43  63  88 128 174 222 266 327 404
#     4  10  19  37  65  92 125 172 215 262 324 385
#
# _framework density 24.464188
#
# number of rings (size 3 to 8) (size 9 to 14) (size 15 to 20)
#    0.000    2.000    1.667    1.500    0.000    8.333 
#    0.000    2.500    0.000    1.000    0.000    0.000 
#    0.000    0.000    0.000    0.000    0.000    0.000 
#
# Total GULP energy -267573.803937 kJ/mol
# GULP energy per Si atom -5574.454249 kJ/mol
# Density = 2.440851 g / cm^3
# Si number density = 24.464188 Si / 1000 Ang^3
#
#
#
# Elastic Constant Matrix: (Units=GPa)
#
#
# Indices 1 2 3 4 5 6 
#
# 1 79.0635 -8.9322 15.0458 0.0000 0.0000 0.0000
# 2 -8.9322 53.1780 47.2030 0.0000 0.0000 0.0000
# 3 15.0458 47.2030 124.1628 0.0000 0.0000 0.0000
# 4 0.0000 0.0000 0.0000 37.5879 0.0000 0.0000
# 5 0.0000 0.0000 0.0000 0.0000 13.1087 0.0000
# 6 0.0000 0.0000 0.0000 0.0000 0.0000 30.0567
#
#
#
# Elastic Compliance Matrix: (Units=1/GPa)
#
#
# Indices 1 2 3 4 5 6 
#
# 1 0.014055 0.005845 -0.003925 0.000000 0.000000 0.000000
# 2 0.005845 0.030813 -0.012423 0.000000 0.000000 0.000000
# 3 -0.003925 -0.012423 0.013252 0.000000 0.000000 0.000000
# 4 0.000000 0.000000 0.000000 0.026604 0.000000 0.000000
# 5 0.000000 0.000000 0.000000 0.000000 0.076285 0.000000
# 6 0.000000 0.000000 0.000000 0.000000 0.000000 0.033270
#
#
# Mechanical properties :
#
#
# Convention : Reuss Voigt Hill
#
# Bulk Modulus (GPa) = 26.94291 40.33752 33.64021
# Shear Modulus (GPa) = 21.96269 29.68983 25.82626
#
# Velocity S-wave (km/s) = 2.99950 3.48746 3.25264
# Velocity P-wave (km/s) = 4.79928 5.72195 5.28080
#
# Compressibility (1/GPa) = 0.03711552
#
# Stress axis : x y z
#
# Youngs Moduli (GPa) = 71.14684 32.45337 75.45835
#
# Poissons Ratio (x) = -0.18970 0.29620
# Poissons Ratio (y) = -0.41587 0.93739
# Poissons Ratio (z) = 0.27928 0.40316
#
# Static dielectric constant tensor:
#      x y z
#    x 2.030570 0.000000 0.000000 
#    y 0.000000 2.056500 0.000000 
#    z 0.000000 0.000000 1.985410 
# 
# From -- ./inp_files/40713.got.cif
#   From: 2010.05.17/outbox.cif.g08.bks.cpg/sg72_21_cif.got.tgz:40713.got - 2010.06.03 17:03:01.
