data_PCOD9526276
_publ_section_title
;
Structure prediction by ZEFSAII (Michael W. Deem and Ramdas Pophale) SiO2 
 PCOD9526276
Probable space group: I B A M
;
_chemical_formula_sum "Si O2"
_cell_formula_units_Z 104
_cell_length_a 8.956445
_cell_length_b 35.985832
_cell_length_c 17.330222
_cell_angle_alpha 90.000000
_cell_angle_beta 90.000000
_cell_angle_gamma 90.000000
_cell_volume 5585.619369
_symmetry_space_group_name_H-M "I B A M"
_symmetry_group_IT_number 72
_symmetry_cell_setting 'orthorhombic'
loop_
_space_group_symop_operation_xyz
x,y,z
-x,-y,z
x,-y,1/2-z
-x,y,1/2-z
-x,-y,-z
x,y,-z
-x,y,1/2+z
x,-y,1/2+z
1/2+x,1/2+y,1/2+z
1/2-x,1/2-y,1/2+z
1/2+x,1/2-y,-z
1/2-x,1/2+y,-z
1/2-x,1/2-y,1/2-z
1/2+x,1/2+y,1/2-z
1/2-x,1/2+y,z
1/2+x,1/2-y,z
loop_
_atom_site_type_symbol
_atom_site_label
_atom_site_fract_x
_atom_site_fract_y
_atom_site_fract_z
Si Si1 0.552471 0.038962 0.660260
Si Si2 0.813763 0.731299 0.327240
Si Si3 0.641239 0.566763 0.296227
Si Si4 0.480833 0.708065 0.908757
Si Si5 0.528034 0.622746 0.910707
Si Si6 0.167616 0.603919 0.341911
Si Si7 0.500000 0.167158 0.250000
O O1 0.500000 0.037852 0.750000
O O2 0.732208 0.042487 0.660830
O O3 0.459761 0.074802 0.630915
O O4 0.500000 0.000000 0.624616
O O5 0.750000 0.750000 0.250000
O O6 0.685356 0.719306 0.385563
O O7 0.916063 0.762334 0.366035
O O8 0.899090 0.694478 0.300582
O O9 0.500000 0.549005 0.250000
O O10 0.568739 0.595964 0.355784
O O11 0.740120 0.587097 0.230812
O O12 0.510527 0.665502 0.884552
O O13 0.505212 0.710164 0.000000
O O14 0.702591 0.612334 0.902644
O O15 0.480956 0.619691 0.000000
O O16 0.090243 0.640540 0.307938
#
# Coordination Sequence:
#
# PCOD9526276 Si02
#       7
#    16  16  16  16  16  16   8
#     4   9  17  33  57  89 121 145 182 238 289 343
#     4  12  23  39  58  84 112 151 195 244 293 351
#     4   9  17  34  59  85 114 148 188 237 284 336
#     4  11  24  41  56  80 117 155 192 244 301 348
#     4  10  22  38  57  81 115 154 196 241 286 342
#     4  10  19  35  59  87 113 147 188 237 287 340
#     4  12  20  34  61  84 110 142 196 238 289 334
#
# _framework density 18.619242
#
# number of rings (size 3 to 8) (size 9 to 14) (size 15 to 20)
#    0.000    1.692    3.846    2.308    0.000    2.462 
#    0.000   14.615    0.000    2.769    0.000    0.000 
#    0.000    0.000    0.000    0.000    0.000    0.000 
#
# Total GULP energy -289990.236570 kJ/mol
# GULP energy per Si atom -5576.735319 kJ/mol
# Density = 1.857686 g / cm^3
# Si number density = 18.619242 Si / 1000 Ang^3
#
#
#
# Elastic Constant Matrix: (Units=GPa)
#
#
# Indices 1 2 3 4 5 6 
#
# 1 139.0715 73.6565 19.4531 0.0000 0.0000 0.0000
# 2 73.6565 113.1717 27.1917 -0.0001 0.0000 0.0000
# 3 19.4531 27.1917 31.6159 -0.0001 0.0000 0.0000
# 4 0.0000 -0.0001 -0.0001 15.9678 0.0000 0.0000
# 5 0.0000 0.0000 0.0000 0.0000 23.8313 0.0000
# 6 0.0000 0.0000 0.0000 0.0000 0.0000 6.7637
#
#
#
# Elastic Compliance Matrix: (Units=1/GPa)
#
#
# Indices 1 2 3 4 5 6 
#
# 1 0.010988 -0.006966 -0.000769 0.000000 0.000000 0.000000
# 2 -0.006966 0.015555 -0.009092 0.000000 0.000000 0.000000
# 3 -0.000769 -0.009092 0.039922 0.000000 0.000000 0.000000
# 4 0.000000 0.000000 0.000000 0.062626 0.000000 0.000000
# 5 0.000000 0.000000 0.000000 0.000000 0.041962 0.000000
# 6 0.000000 0.000000 0.000000 0.000000 0.000000 0.147849
#
#
# Mechanical properties :
#
#
# Convention : Reuss Voigt Hill
#
# Bulk Modulus (GPa) = 30.47816 58.27352 44.37584
# Shear Modulus (GPa) = 13.75547 20.21641 16.98594
#
# Velocity S-wave (km/s) = 2.72099 3.29869 3.02367
# Velocity P-wave (km/s) = 5.12606 6.77303 6.00626
#
# Compressibility (1/GPa) = 0.03281038
#
# Stress axis : x y z
#
# Youngs Moduli (GPa) = 91.01013 64.28968 25.04873
#
# Poissons Ratio (x) = 0.44787 0.01927
# Poissons Ratio (y) = 0.63402 0.22773
# Poissons Ratio (z) = 0.07000 0.58449
#
# Static dielectric constant tensor:
#      x y z
#    x 1.663650 0.000000 0.000000 
#    y 0.000000 1.597090 0.000000 
#    z 0.000000 0.000000 1.643790 
# 
# From -- ./inp_files/36273.got.cif
#   From: 2010.05.17/outbox.cif.g08.bks.cpg/sg72_19_cif.got.tgz:36273.got - 2010.06.03 17:03:01.
