data_PCOD9526336
_publ_section_title
;
Structure prediction by ZEFSAII (Michael W. Deem and Ramdas Pophale) SiO2 
 PCOD9526336
Probable space group: I B A M
;
_chemical_formula_sum "Si O2"
_cell_formula_units_Z 72
_cell_length_a 26.425301
_cell_length_b 8.862443
_cell_length_c 17.762160
_cell_angle_alpha 90.000000
_cell_angle_beta 90.000000
_cell_angle_gamma 90.000000
_cell_volume 4159.768632
_symmetry_space_group_name_H-M "I B A M"
_symmetry_group_IT_number 72
_symmetry_cell_setting 'orthorhombic'
loop_
_space_group_symop_operation_xyz
x,y,z
-x,-y,z
x,-y,1/2-z
-x,y,1/2-z
-x,-y,-z
x,y,-z
-x,y,1/2+z
x,-y,1/2+z
1/2+x,1/2+y,1/2+z
1/2-x,1/2-y,1/2+z
1/2+x,1/2-y,-z
1/2-x,1/2+y,-z
1/2-x,1/2-y,1/2-z
1/2+x,1/2+y,1/2-z
1/2-x,1/2+y,z
1/2+x,1/2-y,z
loop_
_atom_site_type_symbol
_atom_site_label
_atom_site_fract_x
_atom_site_fract_y
_atom_site_fract_z
Si Si1 0.095479 0.826805 0.588992
Si Si2 0.405766 0.385145 0.816187
Si Si3 0.323259 0.262701 0.299050
Si Si4 0.749778 0.000000 0.750000
Si Si5 0.996651 0.673711 0.659303
O O1 0.095956 0.814317 0.500000
O O2 0.139830 0.736407 0.631230
O O3 0.042284 0.766924 0.622116
O O4 0.105759 0.997175 0.617700
O O5 0.426772 0.500000 0.750000
O O6 0.359772 0.301153 0.772820
O O7 0.444443 0.263974 0.849696
O O8 0.286600 0.123026 0.286606
O O9 0.286967 0.408521 0.305529
O O10 0.000000 0.500000 0.632722
O O11 0.000000 0.669865 0.750000
#
# Coordination Sequence:
#
# PCOD9526336 Si02
#       5
#    16  16  16   8  16
#     4  11  23  38  57  85 123 157 183 232 295 350
#     4  10  19  36  58  84 113 152 191 231 274 343
#     4  10  20  37  62  89 112 144 196 247 276 342
#     4  10  20  36  66  88 104 142 202 248 284 316
#     4  11  22  34  59  87 112 154 196 236 276 336
#
# _framework density 17.308654000000001
#
# number of rings (size 3 to 8) (size 9 to 14) (size 15 to 20)
#    0.000    1.556    7.778    0.667    3.111    2.222 
#    0.000    1.111    0.000    0.000    0.000    0.000 
#    0.000    0.000    0.000    0.000    0.000    0.000 
#
# Total GULP energy -200442.095824 kJ/mol
# GULP energy per Si atom -5567.835995 kJ/mol
# Density = 1.726926 g / cm^3
# Si number density = 17.308654 Si / 1000 Ang^3
#
#
#
# Elastic Constant Matrix: (Units=GPa)
#
#
# Indices 1 2 3 4 5 6 
#
# 1 127.6945 48.7552 51.0378 0.0000 0.0000 0.0000
# 2 48.7552 74.6940 14.4426 0.0000 0.0000 0.0000
# 3 51.0378 14.4426 91.4440 0.0000 0.0000 0.0000
# 4 0.0000 0.0000 0.0000 6.8734 0.0000 0.0000
# 5 0.0000 0.0000 0.0000 0.0000 11.6471 0.0000
# 6 0.0000 0.0000 0.0000 0.0000 0.0000 38.7503
#
#
#
# Elastic Compliance Matrix: (Units=1/GPa)
#
#
# Indices 1 2 3 4 5 6 
#
# 1 0.013099 -0.007362 -0.006149 0.000000 0.000000 0.000000
# 2 -0.007362 0.017947 0.001274 0.000000 0.000000 0.000000
# 3 -0.006149 0.001274 0.014166 0.000000 0.000000 0.000000
# 4 0.000000 0.000000 0.000000 0.145487 0.000000 0.000000
# 5 0.000000 0.000000 0.000000 0.000000 0.085858 0.000000
# 6 0.000000 0.000000 0.000000 0.000000 0.000000 0.025806
#
#
# Mechanical properties :
#
#
# Convention : Reuss Voigt Hill
#
# Bulk Modulus (GPa) = 48.21482 58.03375 53.12428
# Shear Modulus (GPa) = 14.98131 23.42730 19.20430
#
# Velocity S-wave (km/s) = 2.94520 3.68299 3.33456
# Velocity P-wave (km/s) = 6.28347 7.18940 6.75164
#
# Compressibility (1/GPa) = 0.02074051
#
# Stress axis : x y z
#
# Youngs Moduli (GPa) = 76.33940 55.72057 70.59119
#
# Poissons Ratio (x) = 0.41019 0.43403
# Poissons Ratio (y) = 0.56198 -0.08995
# Poissons Ratio (z) = 0.46937 -0.07100
#
# Static dielectric constant tensor:
#      x y z
#    x 1.619700 0.000000 0.000000 
#    y 0.000000 1.628620 0.000000 
#    z 0.000000 0.000000 1.572860 
# 
# From -- ./inp_files/33714.got.cif
#   From: 2010.05.17/outbox.cif.g08.bks.cpg/sg72_17_cif.got.tgz:33714.got - 2010.06.03 17:03:01.
