data_PCOD9526816
_publ_section_title
;
Structure prediction by ZEFSAII (Michael W. Deem and Ramdas Pophale) SiO2 
 PCOD9526816
Probable space group: I B A M
;
_chemical_formula_sum "Si O2"
_cell_formula_units_Z 96
_cell_length_a 18.872294
_cell_length_b 27.127332
_cell_length_c 10.191200
_cell_angle_alpha 90.000000
_cell_angle_beta 90.000000
_cell_angle_gamma 90.000000
_cell_volume 5217.435643
_symmetry_space_group_name_H-M "I B A M"
_symmetry_group_IT_number 72
_symmetry_cell_setting 'orthorhombic'
loop_
_space_group_symop_operation_xyz
x,y,z
-x,-y,z
x,-y,1/2-z
-x,y,1/2-z
-x,-y,-z
x,y,-z
-x,y,1/2+z
x,-y,1/2+z
1/2+x,1/2+y,1/2+z
1/2-x,1/2-y,1/2+z
1/2+x,1/2-y,-z
1/2-x,1/2+y,-z
1/2-x,1/2-y,1/2-z
1/2+x,1/2+y,1/2-z
1/2-x,1/2+y,z
1/2+x,1/2-y,z
loop_
_atom_site_type_symbol
_atom_site_label
_atom_site_fract_x
_atom_site_fract_y
_atom_site_fract_z
Si Si1 0.717556 0.284955 0.858269
Si Si2 0.194313 0.047139 0.657832
Si Si3 0.917285 0.771958 0.280020
Si Si4 0.711559 0.108959 0.347552
Si Si5 0.435212 0.162559 0.148888
Si Si6 0.062421 0.120959 0.644027
O O1 0.750000 0.250000 0.750000
O O2 0.633356 0.278547 0.844463
O O3 0.741577 0.341101 0.840649
O O4 0.742479 0.268271 0.000000
O O5 0.206012 0.037898 0.500000
O O6 0.259676 0.073402 0.734037
O O7 0.126755 0.083562 0.667083
O O8 0.179139 0.000000 0.750000
O O9 0.904058 0.718384 0.341651
O O10 0.907017 0.823231 0.355349
O O11 0.000000 0.770817 0.250000
O O12 0.718250 0.090616 0.500000
O O13 0.630392 0.125937 0.326742
O O14 0.500000 0.157359 0.250000
O O15 0.460841 0.155542 0.000000
O O16 0.031820 0.111075 0.500000
O O17 0.000000 0.117044 0.750000
#
# Coordination Sequence:
#
# PCOD9526816 Si02
#       6
#    16  16  16  16  16  16
#     4  11  22  36  56  83 117 158 199 242 291 340
#     4  11  24  42  63  88 112 146 191 246 302 357
#     4  10  20  35  52  82 119 160 204 234 277 328
#     4  10  21  39  60  85 116 153 192 240 293 347
#     4  10  21  36  57  86 122 160 195 234 279 336
#     4  10  22  37  57  83 116 156 200 243 287 339
#
# _framework density 18.399843000000001
#
# number of rings (size 3 to 8) (size 9 to 14) (size 15 to 20)
#    0.000    1.667    3.333    1.000    0.000    9.000 
#    0.000    1.667    0.000    0.500    0.000    3.500 
#    0.000    0.000    0.000    0.000    0.000    0.000 
#
# Total GULP energy -267484.531393 kJ/mol
# GULP energy per Si atom -5572.594404 kJ/mol
# Density = 1.835796 g / cm^3
# Si number density = 18.399843 Si / 1000 Ang^3
#
#
#
# Elastic Constant Matrix: (Units=GPa)
#
#
# Indices 1 2 3 4 5 6 
#
# 1 75.1504 14.0159 49.5261 0.0000 0.0000 0.0000
# 2 14.0159 64.3572 47.2054 0.0000 0.0000 0.0000
# 3 49.5261 47.2054 153.2033 0.0000 0.0000 0.0000
# 4 0.0000 0.0000 0.0000 17.7567 0.0000 0.0000
# 5 0.0000 0.0000 0.0000 0.0000 34.7374 0.0000
# 6 0.0000 0.0000 0.0000 0.0000 0.0000 22.2345
#
#
#
# Elastic Compliance Matrix: (Units=1/GPa)
#
#
# Indices 1 2 3 4 5 6 
#
# 1 0.016918 0.000423 -0.005599 0.000000 0.000000 0.000000
# 2 0.000423 0.020086 -0.006326 0.000000 0.000000 0.000000
# 3 -0.005599 -0.006326 0.010286 0.000000 0.000000 0.000000
# 4 0.000000 0.000000 0.000000 0.056317 0.000000 0.000000
# 5 0.000000 0.000000 0.000000 0.000000 0.028787 0.000000
# 6 0.000000 0.000000 0.000000 0.000000 0.000000 0.044975
#
#
# Mechanical properties :
#
#
# Convention : Reuss Voigt Hill
#
# Bulk Modulus (GPa) = 41.17635 57.13398 49.15516
# Shear Modulus (GPa) = 23.98433 27.07662 25.53048
#
# Velocity S-wave (km/s) = 3.61433 3.84026 3.72901
# Velocity P-wave (km/s) = 6.31229 7.12617 6.73154
#
# Compressibility (1/GPa) = 0.02428579
#
# Stress axis : x y z
#
# Youngs Moduli (GPa) = 59.10905 49.78595 97.21585
#
# Poissons Ratio (x) = -0.02104 0.54434
# Poissons Ratio (y) = -0.02498 0.61494
# Poissons Ratio (z) = 0.33097 0.31492
#
# Static dielectric constant tensor:
#      x y z
#    x 1.692440 0.000000 0.000000 
#    y 0.000000 1.644910 0.000000 
#    z 0.000000 0.000000 1.656590 
# 
# From -- ./inp_files/5965.got.cif
#   From: 2010.05.17/outbox.cif.g08.bks.cpg/sg72_3_cif.got.tgz:5965.got - 2010.06.03 17:03:01.
