data_PCOD9526519
_publ_section_title
;
Structure prediction by ZEFSAII (Michael W. Deem and Ramdas Pophale) SiO2 
 PCOD9526519
Probable space group: I B A M
;
_chemical_formula_sum "Si O2"
_cell_formula_units_Z 68
_cell_length_a 37.467605
_cell_length_b 5.483514
_cell_length_c 14.517770
_cell_angle_alpha 90.000000
_cell_angle_beta 90.000000
_cell_angle_gamma 90.000000
_cell_volume 2982.735900
_symmetry_space_group_name_H-M "I B A M"
_symmetry_group_IT_number 72
_symmetry_cell_setting 'orthorhombic'
loop_
_space_group_symop_operation_xyz
x,y,z
-x,-y,z
x,-y,1/2-z
-x,y,1/2-z
-x,-y,-z
x,y,-z
-x,y,1/2+z
x,-y,1/2+z
1/2+x,1/2+y,1/2+z
1/2-x,1/2-y,1/2+z
1/2+x,1/2-y,-z
1/2-x,1/2+y,-z
1/2-x,1/2-y,1/2-z
1/2+x,1/2+y,1/2-z
1/2-x,1/2+y,z
1/2+x,1/2-y,z
loop_
_atom_site_type_symbol
_atom_site_label
_atom_site_fract_x
_atom_site_fract_y
_atom_site_fract_z
Si Si1 0.500000 0.500000 0.250000
Si Si2 0.735383 0.400713 0.107332
Si Si3 0.885164 0.495157 0.862621
Si Si4 0.036004 0.609337 0.853456
Si Si5 0.652639 0.504849 0.361017
O O1 0.527406 0.383655 0.324412
O O2 0.744629 0.136222 0.148290
O O3 0.693517 0.454580 0.111904
O O4 0.746716 0.382046 0.000000
O O5 0.885090 0.500000 0.750000
O O6 0.925829 0.449146 0.893892
O O7 0.862192 0.258664 0.891322
O O8 0.869770 0.757313 0.891660
O O9 0.036729 0.500000 0.750000
O O10 0.000000 0.500000 0.897122
O O11 0.651083 0.500000 0.250000
#
# Coordination Sequence:
#
# PCOD9526519 Si02
#       5
#     4  16  16  16  16
#     4   8  14  20  36  54  84 128 172 192 222 276
#     4  10  21  37  56  74  95 123 157 197 238 284
#     4   9  18  28  43  64 100 131 159 196 237 282
#     4   8  15  22  35  57  86 130 168 194 227 275
#     4  10  20  32  48  73  99 128 156 192 242 288
#
# _framework density 22.797863
#
# number of rings (size 3 to 8) (size 9 to 14) (size 15 to 20)
#    0.000    3.059    0.000    1.412   11.529    0.941 
#    0.000    0.000    0.000    0.000    0.000    0.000 
#    0.000    5.647    0.000    0.000    0.000    0.000 
#
# Total GULP energy -189451.531889 kJ/mol
# GULP energy per Si atom -5572.103879 kJ/mol
# Density = 2.274597 g / cm^3
# Si number density = 22.797863 Si / 1000 Ang^3
#
#
#
# Elastic Constant Matrix: (Units=GPa)
#
#
# Indices 1 2 3 4 5 6 
#
# 1 142.8921 61.9694 -16.1951 0.0000 0.0000 0.0000
# 2 61.9694 154.8135 7.9122 0.0000 0.0000 0.0000
# 3 -16.1951 7.9122 81.0842 0.0000 0.0000 0.0000
# 4 0.0000 0.0000 0.0000 -12.1443 0.0000 0.0000
# 5 0.0000 0.0000 0.0000 0.0000 77.9481 0.0000
# 6 0.0000 0.0000 0.0000 0.0000 0.0000 63.1959
#
#
#
# Elastic Compliance Matrix: (Units=1/GPa)
#
#
# Indices 1 2 3 4 5 6 
#
# 1 0.008815 -0.003637 0.002116 0.000000 0.000000 0.000000
# 2 -0.003637 0.007992 -0.001506 0.000000 0.000000 0.000000
# 3 0.002116 -0.001506 0.012902 0.000000 0.000000 0.000000
# 4 0.000000 0.000000 0.000000 -0.082343 0.000000 0.000000
# 5 0.000000 0.000000 0.000000 0.000000 0.012829 0.000000
# 6 0.000000 0.000000 0.000000 0.000000 0.000000 0.015824
#
#
# Mechanical properties :
#
#
# Convention : Reuss Voigt Hill
#
# Bulk Modulus (GPa) = 42.27456 54.01810 48.14633
# Shear Modulus (GPa) = -497.95789 47.47352 -225.24219
#
# Velocity S-wave (km/s) = -14.79518 4.56825 -9.95059
# Velocity P-wave (km/s) = 16.53117 7.18129 10.52874
#
# Compressibility (1/GPa) = 0.02365489
#
# Stress axis : x y z
#
# Youngs Moduli (GPa) = 113.44002 125.12375 77.50511
#
# Poissons Ratio (x) = 0.45504 -0.16397
# Poissons Ratio (y) = 0.41255 0.11674
# Poissons Ratio (z) = -0.23999 0.18847
#
# Static dielectric constant tensor:
#      x y z
#    x 1.826650 0.000000 0.000000 
#    y 0.000000 1.733750 0.000000 
#    z 0.000000 0.000000 1.942320 
# 
# From -- ./inp_files/34926.got.cif
#   From: 2010.05.17/outbox.cif.g08.bks.cpg/sg72_18_cif.got.tgz:34926.got - 2010.06.03 17:03:01.
