data_PCOD9526205
_publ_section_title
;
Structure prediction by ZEFSAII (Michael W. Deem and Ramdas Pophale) SiO2 
 PCOD9526205
Probable space group: I B A M
;
_chemical_formula_sum "Si O2"
_cell_formula_units_Z 88
_cell_length_a 19.593116
_cell_length_b 8.966311
_cell_length_c 23.354011
_cell_angle_alpha 90.000000
_cell_angle_beta 90.000000
_cell_angle_gamma 90.000000
_cell_volume 4102.785279
_symmetry_space_group_name_H-M "I B A M"
_symmetry_group_IT_number 72
_symmetry_cell_setting 'orthorhombic'
loop_
_space_group_symop_operation_xyz
x,y,z
-x,-y,z
x,-y,1/2-z
-x,y,1/2-z
-x,-y,-z
x,y,-z
-x,y,1/2+z
x,-y,1/2+z
1/2+x,1/2+y,1/2+z
1/2-x,1/2-y,1/2+z
1/2+x,1/2-y,-z
1/2-x,1/2+y,-z
1/2-x,1/2-y,1/2-z
1/2+x,1/2+y,1/2-z
1/2-x,1/2+y,z
1/2+x,1/2-y,z
loop_
_atom_site_type_symbol
_atom_site_label
_atom_site_fract_x
_atom_site_fract_y
_atom_site_fract_z
Si Si1 0.764281 0.195821 0.344549
Si Si2 0.561042 0.615677 0.842278
Si Si3 0.340627 0.500000 0.750000
Si Si4 0.533982 0.143371 0.890113
Si Si5 0.658581 0.986356 0.317966
Si Si6 0.126723 0.093983 0.066105
O O1 0.798336 0.109006 0.290922
O O2 0.781207 0.367471 0.333237
O O3 0.805072 0.146776 0.401165
O O4 0.686670 0.140512 0.344635
O O5 0.500000 0.500000 0.828922
O O6 0.611895 0.602849 0.789522
O O7 0.524944 0.770865 0.855275
O O8 0.597340 0.545727 0.898340
O O9 0.591601 0.080759 0.847104
O O10 0.572161 0.270242 0.926974
O O11 0.500000 0.000000 0.919975
O O12 0.650216 0.000000 0.250000
O O13 0.137648 0.060530 0.000000
#
# Coordination Sequence:
#
# PCOD9526205 Si02
#       6
#    16  16   8  16  16  16
#     4  10  22  38  60  89 116 158 203 253 301 354
#     4   9  19  35  57  87 121 159 196 240 290 363
#     4  10  19  34  62  84 121 156 204 242 296 358
#     4  10  23  38  56  92 124 156 195 248 307 362
#     4  11  23  38  57  87 123 162 194 243 302 364
#     4   9  20  42  67  87 113 159 210 253 299 359
#
# _framework density 21.448843
#
# number of rings (size 3 to 8) (size 9 to 14) (size 15 to 20)
#    0.000    2.182    0.909    1.909    2.545    5.455 
#    6.545    3.636    0.000    0.000    0.000    0.000 
#    0.000    0.000    0.000    0.000    0.000    0.000 
#
# Total GULP energy -246041.670053 kJ/mol
# GULP energy per Si atom -5591.856138 kJ/mol
# Density = 2.140002 g / cm^3
# Si number density = 21.448843 Si / 1000 Ang^3
#
#
#
# Elastic Constant Matrix: (Units=GPa)
#
#
# Indices 1 2 3 4 5 6 
#
# 1 70.9396 32.8184 50.4477 0.0000 0.0000 0.0000
# 2 32.8184 104.2009 23.5719 0.0000 0.0000 0.0000
# 3 50.4477 23.5719 123.5099 0.0000 0.0000 0.0000
# 4 0.0000 0.0000 0.0000 11.3617 0.0000 0.0000
# 5 0.0000 0.0000 0.0000 0.0000 7.5988 0.0000
# 6 0.0000 0.0000 0.0000 0.0000 0.0000 41.4853
#
#
#
# Elastic Compliance Matrix: (Units=1/GPa)
#
#
# Indices 1 2 3 4 5 6 
#
# 1 0.022252 -0.005176 -0.008101 0.000000 0.000000 0.000000
# 2 -0.005176 0.011234 -0.000030 0.000000 0.000000 0.000000
# 3 -0.008101 -0.000030 0.011411 0.000000 0.000000 0.000000
# 4 0.000000 0.000000 0.000000 0.088015 0.000000 0.000000
# 5 0.000000 0.000000 0.000000 0.000000 0.131599 0.000000
# 6 0.000000 0.000000 0.000000 0.000000 0.000000 0.024105
#
#
# Mechanical properties :
#
#
# Convention : Reuss Voigt Hill
#
# Bulk Modulus (GPa) = 54.69453 56.92515 55.80984
# Shear Modulus (GPa) = 15.56066 24.87666 20.21866
#
# Velocity S-wave (km/s) = 2.69639 3.40930 3.07358
# Velocity P-wave (km/s) = 5.93712 6.48809 6.21871
#
# Compressibility (1/GPa) = 0.01828336
#
# Stress axis : x y z
#
# Youngs Moduli (GPa) = 44.94018 89.01772 87.63410
#
# Poissons Ratio (x) = 0.46073 0.70992
# Poissons Ratio (y) = 0.23260 0.00262
# Poissons Ratio (z) = 0.36406 0.00267
#
# Static dielectric constant tensor:
#      x y z
#    x 1.826690 0.000000 0.000000 
#    y 0.000000 1.836050 0.000000 
#    z 0.000000 0.000000 1.703510 
# 
# From -- ./inp_files/45264.got.cif
#   From: 2010.05.17/outbox.cif.g08.bks.cpg/sg72_23_cif.got.tgz:45264.got - 2010.06.03 17:03:01.
