data_PCOD9526240
_publ_section_title
;
Structure prediction by ZEFSAII (Michael W. Deem and Ramdas Pophale) SiO2 
 PCOD9526240
Probable space group: I B A M
;
_chemical_formula_sum "Si O2"
_cell_formula_units_Z 116
_cell_length_a 25.704827
_cell_length_b 28.548721
_cell_length_c 9.242900
_cell_angle_alpha 90.000000
_cell_angle_beta 90.000000
_cell_angle_gamma 90.000000
_cell_volume 6782.809129
_symmetry_space_group_name_H-M "I B A M"
_symmetry_group_IT_number 72
_symmetry_cell_setting 'orthorhombic'
loop_
_space_group_symop_operation_xyz
x,y,z
-x,-y,z
x,-y,1/2-z
-x,y,1/2-z
-x,-y,-z
x,y,-z
-x,y,1/2+z
x,-y,1/2+z
1/2+x,1/2+y,1/2+z
1/2-x,1/2-y,1/2+z
1/2+x,1/2-y,-z
1/2-x,1/2+y,-z
1/2-x,1/2-y,1/2-z
1/2+x,1/2+y,1/2-z
1/2-x,1/2+y,z
1/2+x,1/2-y,z
loop_
_atom_site_type_symbol
_atom_site_label
_atom_site_fract_x
_atom_site_fract_y
_atom_site_fract_z
Si Si1 0.171187 0.620767 0.173380
Si Si2 0.375142 0.544379 0.335842
Si Si3 0.801690 0.728905 0.326035
Si Si4 0.712178 0.598961 0.670679
Si Si5 0.856895 0.190474 0.672001
Si Si6 0.945982 0.135525 0.168066
Si Si7 0.895451 0.545738 0.166640
Si Si8 0.000000 0.500000 0.750000
O O1 0.181443 0.675588 0.209339
O O2 0.227111 0.597305 0.206898
O O3 0.125799 0.592304 0.254747
O O4 0.162500 0.618036 0.000000
O O5 0.395048 0.500000 0.250000
O O6 0.363839 0.531386 0.500000
O O7 0.323235 0.564128 0.261270
O O8 0.417067 0.585642 0.333042
O O9 0.795144 0.731431 0.500000
O O10 0.750000 0.750000 0.250000
O O11 0.844798 0.763704 0.263885
O O12 0.705996 0.589550 0.500000
O O13 0.688693 0.651374 0.693946
O O14 0.859979 0.199235 0.500000
O O15 0.908703 0.168413 0.737639
O O16 0.000000 0.132116 0.250000
O O17 0.951011 0.150604 0.000000
O O18 0.873147 0.500000 0.250000
O O19 0.957969 0.534525 0.172937
O O20 0.879646 0.546462 0.000000
#
# Coordination Sequence:
#
# PCOD9526240 Si02
#       8
#    16  16  16  16  16  16  16   4
#     4  10  21  36  55  85 120 150 189 234 277 332
#     4  10  21  35  52  76 105 141 183 227 281 334
#     4  11  21  35  56  85 119 156 191 232 280 336
#     4   9  18  34  52  74 108 148 183 221 273 329
#     4  10  19  35  57  81 109 148 189 229 279 336
#     4  10  21  37  57  81 105 139 185 235 284 338
#     4  10  21  37  61  87 112 146 187 234 288 344
#     4   8  22  40  66  88 110 148 194 236 292 348
#
# _framework density 17.102059000000001
#
# number of rings (size 3 to 8) (size 9 to 14) (size 15 to 20)
#    0.414    1.655    1.379    2.276    0.000    4.690 
#    0.000    1.379    1.517    0.000    0.000    0.000 
#    0.000    0.000    0.000    0.000    0.000    0.000 
#
# Total GULP energy -323093.913848 kJ/mol
# GULP energy per Si atom -5570.584722 kJ/mol
# Density = 1.706313 g / cm^3
# Si number density = 17.102059 Si / 1000 Ang^3
#
#
#
# Elastic Constant Matrix: (Units=GPa)
#
#
# Indices 1 2 3 4 5 6 
#
# 1 81.5760 34.0200 41.0856 0.0000 0.0000 0.0000
# 2 34.0200 83.4988 48.1906 0.0000 0.0000 0.0000
# 3 41.0856 48.1906 87.8489 0.0000 0.0000 0.0000
# 4 0.0000 0.0000 0.0000 26.1643 0.0000 0.0000
# 5 0.0000 0.0000 0.0000 0.0000 20.7858 0.0000
# 6 0.0000 0.0000 0.0000 0.0000 0.0000 13.3294
#
#
#
# Elastic Compliance Matrix: (Units=1/GPa)
#
#
# Indices 1 2 3 4 5 6 
#
# 1 0.016653 -0.003351 -0.005950 0.000000 0.000000 0.000000
# 2 -0.003351 0.018199 -0.008416 0.000000 0.000000 0.000000
# 3 -0.005950 -0.008416 0.018783 0.000000 0.000000 0.000000
# 4 0.000000 0.000000 0.000000 0.038220 0.000000 0.000000
# 5 0.000000 0.000000 0.000000 0.000000 0.048110 0.000000
# 6 0.000000 0.000000 0.000000 0.000000 0.000000 0.075022
#
#
# Mechanical properties :
#
#
# Convention : Reuss Voigt Hill
#
# Bulk Modulus (GPa) = 54.94432 55.50181 55.22307
# Shear Modulus (GPa) = 19.49421 20.69771 20.09596
#
# Velocity S-wave (km/s) = 3.37987 3.48263 3.43163
# Velocity P-wave (km/s) = 6.88683 6.97821 6.93267
#
# Compressibility (1/GPa) = 0.01820024
#
# Stress axis : x y z
#
# Youngs Moduli (GPa) = 60.05047 54.94912 53.24065
#
# Poissons Ratio (x) = 0.18412 0.31679
# Poissons Ratio (y) = 0.20122 0.44807
# Poissons Ratio (z) = 0.35731 0.46245
#
# Static dielectric constant tensor:
#      x y z
#    x 1.604070 0.000000 0.000000 
#    y 0.000000 1.590810 0.000000 
#    z 0.000000 0.000000 1.578770 
# 
# From -- ./inp_files/8601.got.cif
#   From: 2010.05.17/outbox.cif.g08.bks.cpg/sg72_5_cif.got.tgz:8601.got - 2010.06.03 17:03:01.
