data_PCOD9526446
_publ_section_title
;
Structure prediction by ZEFSAII (Michael W. Deem and Ramdas Pophale) SiO2 
 PCOD9526446
Probable space group: I B A M
;
_chemical_formula_sum "Si O2"
_cell_formula_units_Z 72
_cell_length_a 14.936749
_cell_length_b 23.791552
_cell_length_c 9.889825
_cell_angle_alpha 90.000000
_cell_angle_beta 90.000000
_cell_angle_gamma 90.000000
_cell_volume 3514.531688
_symmetry_space_group_name_H-M "I B A M"
_symmetry_group_IT_number 72
_symmetry_cell_setting 'orthorhombic'
loop_
_space_group_symop_operation_xyz
x,y,z
-x,-y,z
x,-y,1/2-z
-x,y,1/2-z
-x,-y,-z
x,y,-z
-x,y,1/2+z
x,-y,1/2+z
1/2+x,1/2+y,1/2+z
1/2-x,1/2-y,1/2+z
1/2+x,1/2-y,-z
1/2-x,1/2+y,-z
1/2-x,1/2-y,1/2-z
1/2+x,1/2+y,1/2-z
1/2-x,1/2+y,z
1/2+x,1/2-y,z
loop_
_atom_site_type_symbol
_atom_site_label
_atom_site_fract_x
_atom_site_fract_y
_atom_site_fract_z
Si Si1 0.150808 0.000000 0.250000
Si Si2 0.695702 0.336668 0.500000
Si Si3 0.735897 0.373566 0.000000
Si Si4 0.390891 0.215223 0.000000
Si Si5 0.108015 0.613503 0.500000
Si Si6 0.600324 0.620710 0.736330
Si Si7 0.000000 0.331502 0.750000
Si Si8 0.775020 0.493846 0.500000
O O1 0.094700 0.946153 0.293064
O O2 0.216306 0.019374 0.368880
O O3 0.665949 0.272063 0.500000
O O4 0.800982 0.349546 0.500000
O O5 0.649509 0.365256 0.626851
O O6 0.821753 0.335550 0.000000
O O7 0.670176 0.360087 0.123756
O O8 0.774906 0.437689 0.000000
O O9 0.445938 0.207068 0.859059
O O10 0.056152 0.630218 0.640331
O O11 0.139477 0.547708 0.500000
O O12 0.500000 0.643569 0.750000
#
# Coordination Sequence:
#
# PCOD9526446 Si02
#       8
#     8   8   8   8   8  16   8   8
#     4  10  19  38  62  95 138 178 206 269 322 408
#     4  12  25  42  71  93 136 175 225 265 328 406
#     4  10  24  42  66  94 137 181 222 269 333 401
#     4  11  26  49  65 101 129 180 221 274 339 388
#     4  11  22  48  69 103 128 176 222 278 343 388
#     4  11  22  38  62 102 134 175 217 270 324 396
#     4  10  26  46  73  94 138 167 224 288 334 386
#     4  10  21  37  68  94 132 170 221 267 328 402
#
# _framework density 20.486371999999999
#
# number of rings (size 3 to 8) (size 9 to 14) (size 15 to 20)
#    0.000    1.333    2.222    2.333    4.667    3.556 
#    4.000    7.778    0.000    0.000    0.000    0.000 
#    0.000    0.000    0.000    0.000    0.000    0.000 
#
# Total GULP energy -200611.143002 kJ/mol
# GULP energy per Si atom -5572.531750 kJ/mol
# Density = 2.043974 g / cm^3
# Si number density = 20.486372 Si / 1000 Ang^3
#
#
#
# Elastic Constant Matrix: (Units=GPa)
#
#
# Indices 1 2 3 4 5 6 
#
# 1 118.8068 40.0391 63.5900 0.0000 0.0000 0.0000
# 2 40.0391 98.0972 20.3882 -0.0001 0.0000 0.0000
# 3 63.5900 20.3882 177.5527 -0.0003 -0.0002 -0.0002
# 4 0.0000 -0.0001 -0.0003 15.6403 -0.0001 0.0000
# 5 0.0000 0.0000 -0.0002 -0.0001 39.3668 0.0001
# 6 0.0000 0.0000 -0.0002 0.0000 0.0001 49.4737
#
#
#
# Elastic Compliance Matrix: (Units=1/GPa)
#
#
# Indices 1 2 3 4 5 6 
#
# 1 0.011787 -0.004030 -0.003759 0.000000 0.000000 0.000000
# 2 -0.004030 0.011821 0.000086 0.000000 0.000000 0.000000
# 3 -0.003759 0.000086 0.006968 0.000000 0.000000 0.000000
# 4 0.000000 0.000000 0.000000 0.063938 0.000000 0.000000
# 5 0.000000 0.000000 0.000000 0.000000 0.025402 0.000000
# 6 0.000000 0.000000 0.000000 0.000000 0.000000 0.020213
#
#
# Mechanical properties :
#
#
# Convention : Reuss Voigt Hill
#
# Bulk Modulus (GPa) = 65.91491 71.38792 68.65141
# Shear Modulus (GPa) = 31.13502 38.92544 35.03023
#
# Velocity S-wave (km/s) = 3.90268 4.36370 4.13961
# Velocity P-wave (km/s) = 7.24933 7.76604 7.51213
#
# Compressibility (1/GPa) = 0.01517107
#
# Stress axis : x y z
#
# Youngs Moduli (GPa) = 84.84003 84.59601 143.50407
#
# Poissons Ratio (x) = 0.34090 0.53939
# Poissons Ratio (y) = 0.34188 -0.01232
# Poissons Ratio (z) = 0.31889 -0.00726
#
# Static dielectric constant tensor:
#      x y z
#    x 1.722930 0.000000 0.000000 
#    y 0.000000 1.804160 0.000000 
#    z 0.000000 0.000000 1.685760 
# 
# From -- ./inp_files/3747.got.cif
#   From: 2010.05.17/outbox.cif.g08.bks.cpg/sg72_2_cif.got.tgz:3747.got - 2010.06.03 17:03:01.
