data_PCOD9526690
_publ_section_title
;
Structure prediction by ZEFSAII (Michael W. Deem and Ramdas Pophale) SiO2 
 PCOD9526690
Probable space group: I B A M
;
_chemical_formula_sum "Si O2"
_cell_formula_units_Z 88
_cell_length_a 22.482422
_cell_length_b 8.618424
_cell_length_c 25.375429
_cell_angle_alpha 90.000000
_cell_angle_beta 90.000000
_cell_angle_gamma 90.000000
_cell_volume 4916.820400
_symmetry_space_group_name_H-M "I B A M"
_symmetry_group_IT_number 72
_symmetry_cell_setting 'orthorhombic'
loop_
_space_group_symop_operation_xyz
x,y,z
-x,-y,z
x,-y,1/2-z
-x,y,1/2-z
-x,-y,-z
x,y,-z
-x,y,1/2+z
x,-y,1/2+z
1/2+x,1/2+y,1/2+z
1/2-x,1/2-y,1/2+z
1/2+x,1/2-y,-z
1/2-x,1/2+y,-z
1/2-x,1/2-y,1/2-z
1/2+x,1/2+y,1/2-z
1/2-x,1/2+y,z
1/2+x,1/2-y,z
loop_
_atom_site_type_symbol
_atom_site_label
_atom_site_fract_x
_atom_site_fract_y
_atom_site_fract_z
Si Si1 0.166281 0.769526 0.203038
Si Si2 0.423200 0.803414 0.500000
Si Si3 0.243300 0.500000 0.750000
Si Si4 0.064695 0.674771 0.272169
Si Si5 0.582721 0.348731 0.609611
Si Si6 0.932549 0.341293 0.500000
Si Si7 0.558406 0.290591 0.114062
O O1 0.202193 0.613439 0.215915
O O2 0.214289 0.903710 0.211091
O O3 0.115416 0.781223 0.247476
O O4 0.129307 0.773219 0.149450
O O5 0.403306 0.707536 0.550801
O O6 0.495333 0.821128 0.500000
O O7 0.406870 0.984623 0.500000
O O8 0.071913 0.500000 0.250000
O O9 0.071963 0.685604 0.335009
O O10 0.000000 0.725790 0.250000
O O11 0.513798 0.297423 0.616009
O O12 0.581806 0.533539 0.619126
O O13 0.918424 0.268545 0.557321
#
# Coordination Sequence:
#
# PCOD9526690 Si02
#       7
#    16   8   8  16  16   8  16
#     4  11  21  40  56  82 110 156 189 248 276 350
#     4   9  19  31  53  83 110 155 187 232 278 346
#     4  10  24  38  58  76 108 150 210 230 290 326
#     4  11  22  33  56  87 123 148 185 236 297 353
#     4  10  20  35  56  80 119 149 192 231 287 342
#     4   9  19  31  53  77 122 155 193 214 270 356
#     4  10  20  34  52  85 119 160 181 225 282 356
#
# _framework density 17.897745
#
# number of rings (size 3 to 8) (size 9 to 14) (size 15 to 20)
#    0.000    1.818    2.727    1.636    2.545    3.636 
#    0.000    0.000    0.000    1.091    0.000    5.091 
#    0.000    0.000    0.000    0.000    0.000    0.000 
#
# Total GULP energy -245202.885631 kJ/mol
# GULP energy per Si atom -5572.792855 kJ/mol
# Density = 1.785701 g / cm^3
# Si number density = 17.897745 Si / 1000 Ang^3
#
#
#
# Elastic Constant Matrix: (Units=GPa)
#
#
# Indices 1 2 3 4 5 6 
#
# 1 76.8888 31.8108 30.9513 0.0000 0.0000 0.0000
# 2 31.8108 77.1505 54.8690 0.0000 0.0000 0.0000
# 3 30.9513 54.8690 162.7098 0.0000 0.0000 0.0000
# 4 0.0000 0.0000 0.0000 23.4915 0.0000 0.0000
# 5 0.0000 0.0000 0.0000 0.0000 11.7361 0.0000
# 6 0.0000 0.0000 0.0000 0.0000 0.0000 -5.5752
#
#
#
# Elastic Compliance Matrix: (Units=1/GPa)
#
#
# Indices 1 2 3 4 5 6 
#
# 1 0.015820 -0.005765 -0.001065 0.000000 0.000000 0.000000
# 2 -0.005765 0.019152 -0.005362 0.000000 0.000000 0.000000
# 3 -0.001065 -0.005362 0.008157 0.000000 0.000000 0.000000
# 4 0.000000 0.000000 0.000000 0.042569 0.000000 0.000000
# 5 0.000000 0.000000 0.000000 0.000000 0.085207 0.000000
# 6 0.000000 0.000000 0.000000 0.000000 0.000000 -0.179367
#
#
# Mechanical properties :
#
#
# Convention : Reuss Voigt Hill
#
# Bulk Modulus (GPa) = 53.35017 61.33460 57.34238
# Shear Modulus (GPa) = 225.52636 19.20502 122.36569
#
# Velocity S-wave (km/s) = 11.23752 3.27928 8.27755
# Velocity P-wave (km/s) = 14.08008 6.97726 11.11150
#
# Compressibility (1/GPa) = 0.01874408
#
# Stress axis : x y z
#
# Youngs Moduli (GPa) = 63.21190 52.21359 122.59986
#
# Poissons Ratio (x) = 0.30103 0.13058
# Poissons Ratio (y) = 0.36444 0.65735
# Poissons Ratio (z) = 0.06733 0.27996
#
# Static dielectric constant tensor:
#      x y z
#    x 1.597420 0.000000 0.000000 
#    y 0.000000 1.651600 0.000000 
#    z 0.000000 0.000000 1.626020 
# 
# From -- ./inp_files/45322.got.cif
#   From: 2010.05.17/outbox.cif.g08.bks.cpg/sg72_23_cif.got.tgz:45322.got - 2010.06.03 17:03:01.
