data_PCOD9526785
_publ_section_title
;
Structure prediction by ZEFSAII (Michael W. Deem and Ramdas Pophale) SiO2 
 PCOD9526785
Probable space group: I B A M
;
_chemical_formula_sum "Si O2"
_cell_formula_units_Z 80
_cell_length_a 15.475196
_cell_length_b 16.553716
_cell_length_c 14.020076
_cell_angle_alpha 90.000000
_cell_angle_beta 90.000000
_cell_angle_gamma 90.000000
_cell_volume 3591.550904
_symmetry_space_group_name_H-M "I B A M"
_symmetry_group_IT_number 72
_symmetry_cell_setting 'orthorhombic'
loop_
_space_group_symop_operation_xyz
x,y,z
-x,-y,z
x,-y,1/2-z
-x,y,1/2-z
-x,-y,-z
x,y,-z
-x,y,1/2+z
x,-y,1/2+z
1/2+x,1/2+y,1/2+z
1/2-x,1/2-y,1/2+z
1/2+x,1/2-y,-z
1/2-x,1/2+y,-z
1/2-x,1/2-y,1/2-z
1/2+x,1/2+y,1/2-z
1/2-x,1/2+y,z
1/2+x,1/2-y,z
loop_
_atom_site_type_symbol
_atom_site_label
_atom_site_fract_x
_atom_site_fract_y
_atom_site_fract_z
Si Si1 0.394802 0.244356 0.185525
Si Si2 0.692747 0.965728 0.389106
Si Si3 0.753058 0.640874 0.388875
Si Si4 0.065008 0.325670 0.889959
Si Si5 0.637507 0.586811 0.771502
O O1 0.301385 0.220184 0.146909
O O2 0.398803 0.219949 0.296657
O O3 0.463708 0.191638 0.126163
O O4 0.411916 0.340143 0.177489
O O5 0.717127 0.957877 0.500000
O O6 0.604884 0.915351 0.376737
O O7 0.772948 0.930609 0.328874
O O8 0.687155 0.061306 0.369396
O O9 0.736671 0.646081 0.500000
O O10 0.668089 0.621656 0.329734
O O11 0.087059 0.302188 0.000000
O O12 0.596838 0.500000 0.750000
#
# Coordination Sequence:
#
# PCOD9526785 Si02
#       5
#    16  16  16  16  16
#     4  11  22  37  58  86 115 153 198 245 301 352
#     4   9  19  36  57  84 120 159 195 238 299 361
#     4  10  20  34  57  90 121 152 196 243 295 360
#     4  10  22  38  56  82 118 156 197 242 294 361
#     4  10  21  39  59  85 117 154 199 250 303 357
#
# _framework density 22.2745
#
# number of rings (size 3 to 8) (size 9 to 14) (size 15 to 20)
#    0.000    2.000    2.000    1.200    0.000    3.200 
#    0.000    7.000    0.000    1.200    0.000    0.000 
#    0.000    0.000    0.000    0.000    0.000    0.000 
#
# Total GULP energy -223107.827408 kJ/mol
# GULP energy per Si atom -5577.695685 kJ/mol
# Density = 2.222380 g / cm^3
# Si number density = 22.274500 Si / 1000 Ang^3
#
#
#
# Elastic Constant Matrix: (Units=GPa)
#
#
# Indices 1 2 3 4 5 6 
#
# 1 54.8060 16.7615 6.9333 0.0000 0.0000 0.0000
# 2 16.7615 97.6851 12.7959 0.0000 0.0000 0.0000
# 3 6.9333 12.7959 92.8351 0.0000 0.0000 0.0000
# 4 0.0000 0.0000 0.0000 15.8604 0.0000 0.0000
# 5 0.0000 0.0000 0.0000 0.0000 4.3155 0.0000
# 6 0.0000 0.0000 0.0000 0.0000 0.0000 -1.5324
#
#
#
# Elastic Compliance Matrix: (Units=1/GPa)
#
#
# Indices 1 2 3 4 5 6 
#
# 1 0.019348 -0.003188 -0.001006 0.000000 0.000000 0.000000
# 2 -0.003188 0.010951 -0.001271 0.000000 0.000000 0.000000
# 3 -0.001006 -0.001271 0.011022 0.000000 0.000000 0.000000
# 4 0.000000 0.000000 0.000000 0.063050 0.000000 0.000000
# 5 0.000000 0.000000 0.000000 0.000000 0.231725 0.000000
# 6 0.000000 0.000000 0.000000 0.000000 0.000000 -0.652585
#
#
# Mechanical properties :
#
#
# Convention : Reuss Voigt Hill
#
# Bulk Modulus (GPa) = 32.90445 35.36750 34.13597
# Shear Modulus (GPa) = -16.92459 17.65107 0.36324
#
# Velocity S-wave (km/s) = -2.75947 2.81807 0.40426
# Velocity P-wave (km/s) = 2.15671 5.14793 3.94668
#
# Compressibility (1/GPa) = 0.03039103
#
# Stress axis : x y z
#
# Youngs Moduli (GPa) = 51.68369 91.31959 90.72672
#
# Poissons Ratio (x) = 0.29115 0.09123
# Poissons Ratio (y) = 0.16478 0.11534
# Poissons Ratio (z) = 0.05197 0.11609
#
# Static dielectric constant tensor:
#      x y z
#    x 1.850920 0.000000 0.000000 
#    y 0.000000 1.880940 0.000000 
#    z 0.000000 0.000000 1.794140 
# 
# From -- ./inp_files/21602.got.cif
#   From: 2010.05.17/outbox.cif.g08.bks.cpg/sg72_11_cif.got.tgz:21602.got - 2010.06.03 17:03:01.
