data_PCOD9526130
_publ_section_title
;
Structure prediction by ZEFSAII (Michael W. Deem and Ramdas Pophale) SiO2 
 PCOD9526130
Probable space group: I B A M
;
_chemical_formula_sum "Si O2"
_cell_formula_units_Z 96
_cell_length_a 21.174196
_cell_length_b 11.710316
_cell_length_c 20.321043
_cell_angle_alpha 90.000000
_cell_angle_beta 90.000000
_cell_angle_gamma 90.000000
_cell_volume 5038.735231
_symmetry_space_group_name_H-M "I B A M"
_symmetry_group_IT_number 72
_symmetry_cell_setting 'orthorhombic'
loop_
_space_group_symop_operation_xyz
x,y,z
-x,-y,z
x,-y,1/2-z
-x,y,1/2-z
-x,-y,-z
x,y,-z
-x,y,1/2+z
x,-y,1/2+z
1/2+x,1/2+y,1/2+z
1/2-x,1/2-y,1/2+z
1/2+x,1/2-y,-z
1/2-x,1/2+y,-z
1/2-x,1/2-y,1/2-z
1/2+x,1/2+y,1/2-z
1/2-x,1/2+y,z
1/2+x,1/2-y,z
loop_
_atom_site_type_symbol
_atom_site_label
_atom_site_fract_x
_atom_site_fract_y
_atom_site_fract_z
Si Si1 0.350417 0.948749 0.133607
Si Si2 0.440193 0.851867 0.425183
Si Si3 0.710055 0.518363 0.327448
Si Si4 0.029927 0.626642 0.687168
Si Si5 0.666784 0.668793 0.072536
Si Si6 0.800514 0.219816 0.426037
O O1 0.395359 0.889659 0.188368
O O2 0.331402 0.844090 0.086129
O O3 0.395369 0.044431 0.100714
O O4 0.285677 0.002079 0.160585
O O5 0.457914 0.876691 0.500000
O O6 0.501718 0.829332 0.381017
O O7 0.396601 0.740521 0.422348
O O8 0.697706 0.500000 0.250000
O O9 0.676863 0.418785 0.369084
O O10 0.688401 0.634235 0.364898
O O11 0.000000 0.500000 0.687834
O O12 0.000000 0.688231 0.750000
O O13 0.725427 0.756389 0.074386
O O14 0.669986 0.612622 0.000000
O O15 0.817250 0.178316 0.500000
#
# Coordination Sequence:
#
# PCOD9526130 Si02
#       6
#    16  16  16  16  16  16
#     4  10  21  34  54  81 110 141 181 224 266 322
#     4  10  19  34  56  81 108 139 181 227 271 322
#     4  11  23  34  53  80 112 148 182 222 265 328
#     4   9  20  33  51  76 109 148 176 216 271 323
#     4   9  19  35  55  77 106 144 182 225 273 321
#     4  10  20  35  54  76 107 144 181 226 274 318
#
# _framework density 19.052399000000001
#
# number of rings (size 3 to 8) (size 9 to 14) (size 15 to 20)
#    0.000    2.167    1.667    1.000    4.667    9.000 
#    0.000    0.000    0.000    1.000    0.000    5.833 
#    0.000    0.000    0.000    0.000    0.000    0.000 
#
# Total GULP energy -267341.888585 kJ/mol
# GULP energy per Si atom -5569.622679 kJ/mol
# Density = 1.900904 g / cm^3
# Si number density = 19.052399 Si / 1000 Ang^3
#
#
#
# Elastic Constant Matrix: (Units=GPa)
#
#
# Indices 1 2 3 4 5 6 
#
# 1 42.3709 2.9345 7.0107 0.0000 0.0000 0.0000
# 2 2.9345 51.2044 41.7497 0.0000 0.0000 0.0000
# 3 7.0107 41.7497 149.2506 0.0000 0.0000 0.0000
# 4 0.0000 0.0000 0.0000 144.1040 0.0000 0.0000
# 5 0.0000 0.0000 0.0000 0.0000 12.4800 0.0000
# 6 0.0000 0.0000 0.0000 0.0000 0.0000 14.8904
#
#
#
# Elastic Compliance Matrix: (Units=1/GPa)
#
#
# Indices 1 2 3 4 5 6 
#
# 1 0.023800 -0.000586 -0.000954 0.000000 0.000000 0.000000
# 2 -0.000586 0.025314 -0.007054 0.000000 0.000000 0.000000
# 3 -0.000954 -0.007054 0.008718 0.000000 0.000000 0.000000
# 4 0.000000 0.000000 0.000000 0.006939 0.000000 0.000000
# 5 0.000000 0.000000 0.000000 0.000000 0.080128 0.000000
# 6 0.000000 0.000000 0.000000 0.000000 0.000000 0.067157
#
#
# Mechanical properties :
#
#
# Convention : Reuss Voigt Hill
#
# Bulk Modulus (GPa) = 24.60355 38.46841 31.53598
# Shear Modulus (GPa) = 20.59371 47.03695 33.81533
#
# Velocity S-wave (km/s) = 3.29127 4.97411 4.21748
# Velocity P-wave (km/s) = 5.23306 7.29546 6.34857
#
# Compressibility (1/GPa) = 0.04064455
#
# Stress axis : x y z
#
# Youngs Moduli (GPa) = 42.01762 39.50322 114.70447
#
# Poissons Ratio (x) = 0.02315 0.10942
# Poissons Ratio (y) = 0.02463 0.80908
# Poissons Ratio (z) = 0.04008 0.27864
#
# Static dielectric constant tensor:
#      x y z
#    x 1.667530 0.000000 0.000000 
#    y 0.000000 1.671800 0.000000 
#    z 0.000000 0.000000 1.781590 
# 
# From -- ./inp_files/29414.got.cif
#   From: 2010.05.17/outbox.cif.g08.bks.cpg/sg72_15_cif.got.tgz:29414.got - 2010.06.03 17:03:01.
