data_PCOD9526563
_publ_section_title
;
Structure prediction by ZEFSAII (Michael W. Deem and Ramdas Pophale) SiO2 
 PCOD9526563
Probable space group: I B A M
;
_chemical_formula_sum "Si O2"
_cell_formula_units_Z 96
_cell_length_a 21.993433
_cell_length_b 21.495491
_cell_length_c 9.184135
_cell_angle_alpha 90.000000
_cell_angle_beta 90.000000
_cell_angle_gamma 90.000000
_cell_volume 4341.888367
_symmetry_space_group_name_H-M "I B A M"
_symmetry_group_IT_number 72
_symmetry_cell_setting 'orthorhombic'
loop_
_space_group_symop_operation_xyz
x,y,z
-x,-y,z
x,-y,1/2-z
-x,y,1/2-z
-x,-y,-z
x,y,-z
-x,y,1/2+z
x,-y,1/2+z
1/2+x,1/2+y,1/2+z
1/2-x,1/2-y,1/2+z
1/2+x,1/2-y,-z
1/2-x,1/2+y,-z
1/2-x,1/2-y,1/2-z
1/2+x,1/2+y,1/2-z
1/2-x,1/2+y,z
1/2+x,1/2-y,z
loop_
_atom_site_type_symbol
_atom_site_label
_atom_site_fract_x
_atom_site_fract_y
_atom_site_fract_z
Si Si1 0.096621 0.937187 0.833358
Si Si2 0.603138 0.683530 0.662333
Si Si3 0.246447 0.185204 0.163342
Si Si4 0.254565 0.563024 0.333569
Si Si5 0.433320 0.940764 0.673836
Si Si6 0.065277 0.696280 0.172640
O O1 0.076741 0.875597 0.747134
O O2 0.171010 0.935872 0.837104
O O3 0.078898 0.000000 0.750000
O O4 0.075475 0.937028 0.000000
O O5 0.576652 0.691008 0.500000
O O6 0.674762 0.672211 0.646270
O O7 0.598637 0.746048 0.755498
O O8 0.250000 0.250000 0.250000
O O9 0.267966 0.125225 0.253234
O O10 0.273522 0.190186 0.000000
O O11 0.238291 0.500000 0.250000
O O12 0.233355 0.561597 0.500000
O O13 0.500000 0.937473 0.750000
O O14 0.438988 0.950391 0.500000
O O15 0.406601 0.872095 0.697727
O O16 0.402706 0.000000 0.750000
O O17 0.000000 0.696458 0.250000
O O18 0.058913 0.704416 0.000000
#
# Coordination Sequence:
#
# PCOD9526563 Si02
#       6
#    16  16  16  16  16  16
#     4   9  16  27  45  69  96 125 159 200 242 284
#     4  10  20  33  50  73 100 130 164 202 244 290
#     4  10  20  33  50  73 100 130 164 203 247 294
#     4   9  16  27  45  69  96 125 159 200 243 286
#     4   9  16  26  43  67  93 121 155 195 237 279
#     4  10  20  33  50  73 100 130 163 200 243 290
#
# _framework density 22.110194
#
# number of rings (size 3 to 8) (size 9 to 14) (size 15 to 20)
#    0.000    2.500    0.000    3.500    0.000    8.000 
#    0.000    0.000    0.000    1.500    0.000    5.833 
#    0.000    0.000    0.000    0.000    0.000    0.000 
#
# Total GULP energy -268028.053043 kJ/mol
# GULP energy per Si atom -5583.917772 kJ/mol
# Density = 2.205987 g / cm^3
# Si number density = 22.110194 Si / 1000 Ang^3
#
#
#
# Elastic Constant Matrix: (Units=GPa)
#
#
# Indices 1 2 3 4 5 6 
#
# 1 45.5787 0.6206 12.0807 0.0000 0.0000 0.0000
# 2 0.6206 230.5390 145.1411 0.0000 0.0000 0.0000
# 3 12.0807 145.1411 226.8816 0.0000 0.0000 0.0000
# 4 0.0000 0.0000 0.0000 40.0918 0.0000 0.0000
# 5 0.0000 0.0000 0.0000 0.0000 11.6626 0.0000
# 6 0.0000 0.0000 0.0000 0.0000 0.0000 3.1369
#
#
#
# Elastic Compliance Matrix: (Units=1/GPa)
#
#
# Indices 1 2 3 4 5 6 
#
# 1 0.022437 0.001158 -0.001936 0.000000 0.000000 0.000000
# 2 0.001158 0.007323 -0.004746 0.000000 0.000000 0.000000
# 3 -0.001936 -0.004746 0.007547 0.000000 0.000000 0.000000
# 4 0.000000 0.000000 0.000000 0.024943 0.000000 0.000000
# 5 0.000000 0.000000 0.000000 0.000000 0.085744 0.000000
# 6 0.000000 0.000000 0.000000 0.000000 0.000000 0.318791
#
#
# Mechanical properties :
#
#
# Convention : Reuss Voigt Hill
#
# Bulk Modulus (GPa) = 38.08110 90.96490 64.52300
# Shear Modulus (GPa) = 10.27570 33.98870 22.13220
#
# Velocity S-wave (km/s) = 2.15814 3.92502 3.16728
# Velocity P-wave (km/s) = 4.84467 7.85951 6.52851
#
# Compressibility (1/GPa) = 0.02625975
#
# Stress axis : x y z
#
# Youngs Moduli (GPa) = 44.56850 136.56475 132.50626
#
# Poissons Ratio (x) = -0.15818 0.25649
# Poissons Ratio (y) = -0.05162 0.62888
# Poissons Ratio (z) = 0.08627 0.64814
#
# Static dielectric constant tensor:
#      x y z
#    x 1.878410 0.000000 0.000000 
#    y 0.000000 1.805370 0.000000 
#    z 0.000000 0.000000 1.780400 
# 
# From -- ./inp_files/8054.got.cif
#   From: 2010.05.17/outbox.cif.g08.bks.cpg/sg72_5_cif.got.tgz:8054.got - 2010.06.03 17:03:01.
