data_PCOD9526792
_publ_section_title
;
Structure prediction by ZEFSAII (Michael W. Deem and Ramdas Pophale) SiO2 
 PCOD9526792
Probable space group: I B A M
;
_chemical_formula_sum "Si O2"
_cell_formula_units_Z 96
_cell_length_a 11.683820
_cell_length_b 16.320026
_cell_length_c 22.971905
_cell_angle_alpha 90.000000
_cell_angle_beta 90.000000
_cell_angle_gamma 90.000000
_cell_volume 4380.288501
_symmetry_space_group_name_H-M "I B A M"
_symmetry_group_IT_number 72
_symmetry_cell_setting 'orthorhombic'
loop_
_space_group_symop_operation_xyz
x,y,z
-x,-y,z
x,-y,1/2-z
-x,y,1/2-z
-x,-y,-z
x,y,-z
-x,y,1/2+z
x,-y,1/2+z
1/2+x,1/2+y,1/2+z
1/2-x,1/2-y,1/2+z
1/2+x,1/2-y,-z
1/2-x,1/2+y,-z
1/2-x,1/2-y,1/2-z
1/2+x,1/2+y,1/2-z
1/2-x,1/2+y,z
1/2+x,1/2-y,z
loop_
_atom_site_type_symbol
_atom_site_label
_atom_site_fract_x
_atom_site_fract_y
_atom_site_fract_z
Si Si1 0.124625 0.463554 0.937196
Si Si2 0.656636 0.527222 0.874013
Si Si3 0.528175 0.623383 0.569494
Si Si4 0.901348 0.678562 0.293561
Si Si5 0.284525 0.349242 0.786811
Si Si6 0.586575 0.198396 0.117390
O O1 0.211738 0.489388 0.888047
O O2 0.114510 0.365973 0.932533
O O3 0.000000 0.500000 0.929495
O O4 0.170220 0.489694 0.000000
O O5 0.592099 0.445345 0.891986
O O6 0.603710 0.599151 0.915955
O O7 0.655355 0.570198 0.811516
O O8 0.547296 0.615348 0.500000
O O9 0.569948 0.710620 0.593275
O O10 0.783532 0.637026 0.273368
O O11 0.873382 0.774748 0.282377
O O12 0.000000 0.648786 0.250000
O O13 0.963338 0.673135 0.355114
O O14 0.186868 0.316209 0.833680
#
# Coordination Sequence:
#
# PCOD9526792 Si02
#       6
#    16  16  16  16  16  16
#     4  10  21  38  57  82 119 158 198 244 300 361
#     4  10  20  37  57  83 120 157 196 247 302 360
#     4  11  21  35  58  88 124 162 201 245 302 368
#     4   9  17  33  57  84 110 145 194 247 303 354
#     4   9  18  34  59  82 111 152 192 247 304 358
#     4  10  20  34  58  87 114 154 199 248 298 368
#
# _framework density 21.916364999999999
#
# number of rings (size 3 to 8) (size 9 to 14) (size 15 to 20)
#    0.000    2.167    1.667    2.500    0.000    1.333 
#    0.000    0.000    0.000   38.500    0.000    0.000 
#    0.000    0.000    0.000    0.000    0.000    0.000 
#
# Total GULP energy -267510.308206 kJ/mol
# GULP energy per Si atom -5573.131421 kJ/mol
# Density = 2.186648 g / cm^3
# Si number density = 21.916365 Si / 1000 Ang^3
#
#
#
# Elastic Constant Matrix: (Units=GPa)
#
#
# Indices 1 2 3 4 5 6 
#
# 1 38.7595 3.8407 9.8371 0.0000 0.0000 0.0000
# 2 3.8407 85.9997 22.0687 0.0000 0.0000 0.0000
# 3 9.8371 22.0687 57.9558 0.0000 0.0000 0.0000
# 4 0.0000 0.0000 0.0000 7.3519 0.0000 0.0000
# 5 0.0000 0.0000 0.0000 0.0000 6.9612 0.0000
# 6 0.0000 0.0000 0.0000 0.0000 0.0000 23.7453
#
#
#
# Elastic Compliance Matrix: (Units=1/GPa)
#
#
# Indices 1 2 3 4 5 6 
#
# 1 0.026962 -0.000033 -0.004564 0.000000 0.000000 0.000000
# 2 -0.000033 0.012887 -0.004902 0.000000 0.000000 0.000000
# 3 -0.004564 -0.004902 0.019896 0.000000 0.000000 0.000000
# 4 0.000000 0.000000 0.000000 0.136019 0.000000 0.000000
# 5 0.000000 0.000000 0.000000 0.000000 0.143654 0.000000
# 6 0.000000 0.000000 0.000000 0.000000 0.000000 0.042114
#
#
# Mechanical properties :
#
#
# Convention : Reuss Voigt Hill
#
# Bulk Modulus (GPa) = 24.54123 28.24533 26.39328
# Shear Modulus (GPa) = 12.07406 17.40957 14.74181
#
# Velocity S-wave (km/s) = 2.34970 2.82150 2.59634
# Velocity P-wave (km/s) = 4.31085 4.85080 4.58878
#
# Compressibility (1/GPa) = 0.04074775
#
# Stress axis : x y z
#
# Youngs Moduli (GPa) = 37.08964 77.59605 50.26223
#
# Poissons Ratio (x) = 0.00256 0.22939
# Poissons Ratio (y) = 0.00122 0.24637
# Poissons Ratio (z) = 0.16927 0.38035
#
# Static dielectric constant tensor:
#      x y z
#    x 1.861870 0.000000 0.000000 
#    y 0.000000 1.785450 0.000000 
#    z 0.000000 0.000000 1.827150 
# 
# From -- ./inp_files/48120.got.cif
#   From: 2010.05.17/outbox.cif.g08.bks.cpg/sg72_25_cif.got.tgz:48120.got - 2010.06.03 17:03:01.
