data_PCOD9526820
_publ_section_title
;
Structure prediction by ZEFSAII (Michael W. Deem and Ramdas Pophale) SiO2 
 PCOD9526820
Probable space group: I B A M
;
_chemical_formula_sum "Si O2"
_cell_formula_units_Z 112
_cell_length_a 15.154974
_cell_length_b 25.707926
_cell_length_c 14.263957
_cell_angle_alpha 90.000000
_cell_angle_beta 90.000000
_cell_angle_gamma 90.000000
_cell_volume 5557.279728
_symmetry_space_group_name_H-M "I B A M"
_symmetry_group_IT_number 72
_symmetry_cell_setting 'orthorhombic'
loop_
_space_group_symop_operation_xyz
x,y,z
-x,-y,z
x,-y,1/2-z
-x,y,1/2-z
-x,-y,-z
x,y,-z
-x,y,1/2+z
x,-y,1/2+z
1/2+x,1/2+y,1/2+z
1/2-x,1/2-y,1/2+z
1/2+x,1/2-y,-z
1/2-x,1/2+y,-z
1/2-x,1/2-y,1/2-z
1/2+x,1/2+y,1/2-z
1/2-x,1/2+y,z
1/2+x,1/2-y,z
loop_
_atom_site_type_symbol
_atom_site_label
_atom_site_fract_x
_atom_site_fract_y
_atom_site_fract_z
Si Si1 0.455571 0.138806 0.105838
Si Si2 0.860682 0.373011 0.298333
Si Si3 0.870161 0.250232 0.897288
Si Si4 0.405755 0.322390 0.723104
Si Si5 0.187512 0.076295 0.749665
Si Si6 0.605042 0.492481 0.610246
Si Si7 0.169827 0.263258 0.107255
O O1 0.554739 0.122349 0.133318
O O2 0.395849 0.121475 0.192328
O O3 0.436084 0.200979 0.108990
O O4 0.433732 0.121963 0.000000
O O5 0.782911 0.415106 0.298144
O O6 0.829147 0.314210 0.325876
O O7 0.883124 0.210507 0.814778
O O8 0.766012 0.264302 0.890338
O O9 0.881786 0.226065 0.000000
O O10 0.500000 0.345505 0.750000
O O11 0.338092 0.368405 0.707085
O O12 0.400290 0.279438 0.641567
O O13 0.163852 0.034056 0.830213
O O14 0.126575 0.061436 0.661547
O O15 0.500000 0.500000 0.621580
O O16 0.625495 0.494035 0.500000
O O17 0.153040 0.279832 0.000000
#
# Coordination Sequence:
#
# PCOD9526820 Si02
#       7
#    16  16  16  16  16  16  16
#     4  10  21  36  55  83 122 169 213 250 298 356
#     4  11  21  37  61  86 123 166 209 259 304 359
#     4  10  20  35  53  75 113 163 209 251 292 343
#     4  12  22  34  55  84 122 161 202 247 298 355
#     4  11  23  40  66  93 122 154 202 256 315 377
#     4  10  23  46  71  95 124 155 193 251 323 389
#     4  11  22  36  54  81 122 169 214 256 298 351
#
# _framework density 20.153745000000001
#
# number of rings (size 3 to 8) (size 9 to 14) (size 15 to 20)
#    0.000    1.286    2.857    4.286    0.000    4.571 
#    0.000    0.000    0.000    6.857    0.000    8.000 
#    0.000    0.000    0.000    0.000    0.000    0.000 
#
# Total GULP energy -312081.078707 kJ/mol
# GULP energy per Si atom -5572.876405 kJ/mol
# Density = 2.010787 g / cm^3
# Si number density = 20.153745 Si / 1000 Ang^3
#
#
#
# Elastic Constant Matrix: (Units=GPa)
#
#
# Indices 1 2 3 4 5 6 
#
# 1 79.0099 14.8249 32.1527 0.0000 0.0000 0.0000
# 2 14.8249 35.8302 22.3964 0.0000 -0.0001 0.0000
# 3 32.1527 22.3964 123.5475 0.0002 0.0000 0.0000
# 4 0.0000 0.0000 0.0002 12.2742 0.0000 0.0000
# 5 0.0000 -0.0001 0.0000 0.0000 20.8464 0.0000
# 6 0.0000 0.0000 0.0000 0.0000 0.0000 36.3838
#
#
#
# Elastic Compliance Matrix: (Units=1/GPa)
#
#
# Indices 1 2 3 4 5 6 
#
# 1 0.014685 -0.004158 -0.003068 0.000000 0.000000 0.000000
# 2 -0.004158 0.032654 -0.004837 0.000000 0.000000 0.000000
# 3 -0.003068 -0.004837 0.009769 0.000000 0.000000 0.000000
# 4 0.000000 0.000000 0.000000 0.081472 0.000000 0.000000
# 5 0.000000 0.000000 0.000000 0.000000 0.047970 0.000000
# 6 0.000000 0.000000 0.000000 0.000000 0.000000 0.027485
#
#
# Mechanical properties :
#
#
# Convention : Reuss Voigt Hill
#
# Bulk Modulus (GPa) = 30.32032 41.90395 36.11213
# Shear Modulus (GPa) = 20.06776 25.16843 22.61810
#
# Velocity S-wave (km/s) = 3.15895 3.53770 3.35368
# Velocity P-wave (km/s) = 5.32752 6.12571 5.74051
#
# Compressibility (1/GPa) = 0.03298119
#
# Stress axis : x y z
#
# Youngs Moduli (GPa) = 68.09477 30.62450 102.36097
#
# Poissons Ratio (x) = 0.12735 0.31404
# Poissons Ratio (y) = 0.28317 0.49514
# Poissons Ratio (z) = 0.20891 0.14814
#
# Static dielectric constant tensor:
#      x y z
#    x 1.817850 0.000000 0.000000 
#    y 0.000000 1.698540 0.000000 
#    z 0.000000 0.000000 1.710830 
# 
# From -- ./inp_files/22152.got.cif
#   From: 2010.05.17/outbox.cif.g08.bks.cpg/sg72_12_cif.got.tgz:22152.got - 2010.06.03 17:03:01.
