data_PCOD9526504
_publ_section_title
;
Structure prediction by ZEFSAII (Michael W. Deem and Ramdas Pophale) SiO2 
 PCOD9526504
Probable space group: I B A M
;
_chemical_formula_sum "Si O2"
_cell_formula_units_Z 112
_cell_length_a 26.421677
_cell_length_b 8.837470
_cell_length_c 23.594388
_cell_angle_alpha 90.000000
_cell_angle_beta 90.000000
_cell_angle_gamma 90.000000
_cell_volume 5509.307951
_symmetry_space_group_name_H-M "I B A M"
_symmetry_group_IT_number 72
_symmetry_cell_setting 'orthorhombic'
loop_
_space_group_symop_operation_xyz
x,y,z
-x,-y,z
x,-y,1/2-z
-x,y,1/2-z
-x,-y,-z
x,y,-z
-x,y,1/2+z
x,-y,1/2+z
1/2+x,1/2+y,1/2+z
1/2-x,1/2-y,1/2+z
1/2+x,1/2-y,-z
1/2-x,1/2+y,-z
1/2-x,1/2-y,1/2-z
1/2+x,1/2+y,1/2-z
1/2-x,1/2+y,z
1/2+x,1/2-y,z
loop_
_atom_site_type_symbol
_atom_site_label
_atom_site_fract_x
_atom_site_fract_y
_atom_site_fract_z
Si Si1 0.765366 0.213163 0.936421
Si Si2 0.124402 0.337914 0.432941
Si Si3 0.871386 0.128318 0.832782
Si Si4 0.559248 0.017377 0.152893
Si Si5 0.206807 0.924882 0.629472
Si Si6 0.788471 0.360360 0.783396
Si Si7 0.058149 0.740460 0.250384
O O1 0.813876 0.327063 0.932238
O O2 0.786153 0.050247 0.919039
O O3 0.719808 0.263738 0.896270
O O4 0.747186 0.212453 0.000000
O O5 0.110490 0.332262 0.500000
O O6 0.108765 0.193520 0.393155
O O7 0.097727 0.473956 0.397808
O O8 0.845644 0.966294 0.841791
O O9 0.827591 0.248994 0.814015
O O10 0.909044 0.135398 0.781060
O O11 0.563606 0.894482 0.203561
O O12 0.500000 0.000000 0.134276
O O13 0.569563 0.173234 0.187210
O O14 0.251319 0.947878 0.674327
O O15 0.814234 0.500000 0.750000
O O16 0.750000 0.250000 0.750000
O O17 0.000000 0.785551 0.250000
#
# Coordination Sequence:
#
# PCOD9526504 Si02
#       7
#    16  16  16  16  16  16  16
#     4  10  20  33  52  72 104 147 191 227 260 312
#     4   9  17  28  42  66  97 138 180 219 273 328
#     4  10  20  31  50  72 104 142 182 227 276 324
#     4   8  14  25  42  65  95 132 174 226 280 341
#     4  11  19  36  49  76 105 142 184 223 269 325
#     4  12  22  34  49  73 106 140 178 218 271 325
#     4   8  15  28  46  71  98 134 181 226 275 340
#
# _framework density 20.329232000000001
#
# number of rings (size 3 to 8) (size 9 to 14) (size 15 to 20)
#    0.000    2.286    4.286    1.286    4.000    0.857 
#    0.000    0.000    0.000    0.000    0.000    2.000 
#    0.000    5.714    0.000    1.143    0.571  155.857 
#
# Total GULP energy -311816.904445 kJ/mol
# GULP energy per Si atom -5568.159008 kJ/mol
# Density = 2.028296 g / cm^3
# Si number density = 20.329232 Si / 1000 Ang^3
#
#
#
# Elastic Constant Matrix: (Units=GPa)
#
#
# Indices 1 2 3 4 5 6 
#
# 1 61.6984 16.7629 42.6067 0.0000 0.0000 0.0000
# 2 16.7629 37.5351 24.3307 0.0000 0.0000 0.0000
# 3 42.6067 24.3307 108.6727 0.0000 0.0000 0.0000
# 4 0.0000 0.0000 0.0000 22.0678 0.0000 0.0000
# 5 0.0000 0.0000 0.0000 0.0000 22.0100 0.0000
# 6 0.0000 0.0000 0.0000 0.0000 0.0000 -0.2382
#
#
#
# Elastic Compliance Matrix: (Units=1/GPa)
#
#
# Indices 1 2 3 4 5 6 
#
# 1 0.023059 -0.005191 -0.007878 0.000000 0.000000 0.000000
# 2 -0.005191 0.032333 -0.005204 0.000000 0.000000 0.000000
# 3 -0.007878 -0.005204 0.013456 0.000000 0.000000 0.000000
# 4 0.000000 0.000000 0.000000 0.045315 0.000000 0.000000
# 5 0.000000 0.000000 0.000000 0.000000 0.045434 0.000000
# 6 0.000000 0.000000 0.000000 0.000000 0.000000 -4.198014
#
#
# Mechanical properties :
#
#
# Convention : Reuss Voigt Hill
#
# Bulk Modulus (GPa) = 30.95846 41.70077 36.32961
# Shear Modulus (GPa) = -1.25279 17.04833 7.89777
#
# Velocity S-wave (km/s) = -0.78587 2.89902 1.97316
# Velocity P-wave (km/s) = 3.79976 5.63587 4.80631
#
# Compressibility (1/GPa) = 0.03230135
#
# Stress axis : x y z
#
# Youngs Moduli (GPa) = 43.36763 30.92797 74.31737
#
# Poissons Ratio (x) = 0.16055 0.58549
# Poissons Ratio (y) = 0.22512 0.38673
# Poissons Ratio (z) = 0.34166 0.16094
#
# Static dielectric constant tensor:
#      x y z
#    x 1.785540 0.000000 0.000000 
#    y 0.000000 1.807990 0.000000 
#    z 0.000000 0.000000 1.757150 
# 
# From -- ./inp_files/40876.got.cif
#   From: 2010.05.17/outbox.cif.g08.bks.cpg/sg72_21_cif.got.tgz:40876.got - 2010.06.03 17:03:01.
