data_PCOD9526680
_publ_section_title
;
Structure prediction by ZEFSAII (Michael W. Deem and Ramdas Pophale) SiO2 
 PCOD9526680
Probable space group: I B A M
;
_chemical_formula_sum "Si O2"
_cell_formula_units_Z 80
_cell_length_a 18.312710
_cell_length_b 14.152443
_cell_length_c 15.062275
_cell_angle_alpha 90.000000
_cell_angle_beta 90.000000
_cell_angle_gamma 90.000000
_cell_volume 3903.683553
_symmetry_space_group_name_H-M "I B A M"
_symmetry_group_IT_number 72
_symmetry_cell_setting 'orthorhombic'
loop_
_space_group_symop_operation_xyz
x,y,z
-x,-y,z
x,-y,1/2-z
-x,y,1/2-z
-x,-y,-z
x,y,-z
-x,y,1/2+z
x,-y,1/2+z
1/2+x,1/2+y,1/2+z
1/2-x,1/2-y,1/2+z
1/2+x,1/2-y,-z
1/2-x,1/2+y,-z
1/2-x,1/2-y,1/2-z
1/2+x,1/2+y,1/2-z
1/2-x,1/2+y,z
1/2+x,1/2-y,z
loop_
_atom_site_type_symbol
_atom_site_label
_atom_site_fract_x
_atom_site_fract_y
_atom_site_fract_z
Si Si1 0.179919 0.176548 0.108143
Si Si2 0.133527 0.619415 0.602644
Si Si3 0.166881 0.411901 0.392216
Si Si4 0.981091 0.303892 0.853936
Si Si5 0.976006 0.100301 0.352788
O O1 0.167322 0.284097 0.141086
O O2 0.256783 0.133486 0.136522
O O3 0.110579 0.116045 0.139551
O O4 0.177295 0.177471 0.000000
O O5 0.156790 0.617625 0.500000
O O6 0.156315 0.519055 0.641587
O O7 0.046144 0.633278 0.605527
O O8 0.167407 0.414617 0.500000
O O9 0.097397 0.349291 0.366457
O O10 0.000000 0.300092 0.750000
O O11 0.988444 0.196886 0.890299
O O12 0.000000 0.097895 0.250000
O O13 0.000000 0.000000 0.392454
#
# Coordination Sequence:
#
# PCOD9526680 Si02
#       5
#    16  16  16  16  16
#     4   9  19  35  54  79 106 131 170 219 256 297
#     4   9  18  34  53  74 105 138 168 211 260 303
#     4  10  20  34  54  78 105 138 171 209 262 309
#     4  10  20  34  52  77 104 135 177 213 249 306
#     4   9  19  37  55  74 104 140 173 208 257 309
#
# _framework density 20.493463999999999
#
# number of rings (size 3 to 8) (size 9 to 14) (size 15 to 20)
#    0.000    2.600    0.000    1.200    0.000    6.000 
#    0.000   15.000    0.000    0.000    0.000    0.000 
#    0.000    0.000    0.000    0.000    0.000    0.000 
#
# Total GULP energy -223213.430503 kJ/mol
# GULP energy per Si atom -5580.335763 kJ/mol
# Density = 2.044682 g / cm^3
# Si number density = 20.493464 Si / 1000 Ang^3
#
#
#
# Elastic Constant Matrix: (Units=GPa)
#
#
# Indices 1 2 3 4 5 6 
#
# 1 202.0443 148.7693 8.8506 0.0000 0.0000 0.0000
# 2 148.7693 182.3095 10.7078 0.0000 0.0000 0.0000
# 3 8.8506 10.7078 43.8613 0.0000 0.0000 0.0000
# 4 0.0000 0.0000 0.0000 9.0832 0.0000 0.0000
# 5 0.0000 0.0000 0.0000 0.0000 -281.1843 0.0000
# 6 0.0000 0.0000 0.0000 0.0000 0.0000 18.9959
#
#
#
# Elastic Compliance Matrix: (Units=1/GPa)
#
#
# Indices 1 2 3 4 5 6 
#
# 1 0.012400 -0.010117 -0.000032 0.000000 0.000000 0.000000
# 2 -0.010117 0.013819 -0.001332 0.000000 0.000000 0.000000
# 3 -0.000032 -0.001332 0.023131 0.000000 0.000000 0.000000
# 4 0.000000 0.000000 0.000000 0.110093 0.000000 0.000000
# 5 0.000000 0.000000 0.000000 0.000000 -0.003556 0.000000
# 6 0.000000 0.000000 0.000000 0.000000 0.000000 0.052643
#
#
# Mechanical properties :
#
#
# Convention : Reuss Voigt Hill
#
# Bulk Modulus (GPa) = 37.89715 84.98561 61.44138
# Shear Modulus (GPa) = 20.80832 -33.29521 -6.24345
#
# Velocity S-wave (km/s) = 3.18993 -4.03510 -1.74733
# Velocity P-wave (km/s) = 5.66569 4.45537 5.09658
#
# Compressibility (1/GPa) = 0.02638721
#
# Stress axis : x y z
#
# Youngs Moduli (GPa) = 80.64445 72.36371 43.23223
#
# Poissons Ratio (x) = 0.73210 0.00140
# Poissons Ratio (y) = 0.81587 0.05759
# Poissons Ratio (z) = 0.00261 0.09640
#
# Static dielectric constant tensor:
#      x y z
#    x 1.671390 0.000000 0.000000 
#    y 0.000000 1.770350 0.000000 
#    z 0.000000 0.000000 1.805450 
# 
# From -- ./inp_files/30465.got.cif
#   From: 2010.05.17/outbox.cif.g08.bks.cpg/sg72_16_cif.got.tgz:30465.got - 2010.06.03 17:03:01.
