data_PCOD9526753
_publ_section_title
;
Structure prediction by ZEFSAII (Michael W. Deem and Ramdas Pophale) SiO2 
 PCOD9526753
Probable space group: I B A M
;
_chemical_formula_sum "Si O2"
_cell_formula_units_Z 96
_cell_length_a 11.339813
_cell_length_b 21.523443
_cell_length_c 23.518416
_cell_angle_alpha 90.000000
_cell_angle_beta 90.000000
_cell_angle_gamma 90.000000
_cell_volume 5740.182567
_symmetry_space_group_name_H-M "I B A M"
_symmetry_group_IT_number 72
_symmetry_cell_setting 'orthorhombic'
loop_
_space_group_symop_operation_xyz
x,y,z
-x,-y,z
x,-y,1/2-z
-x,y,1/2-z
-x,-y,-z
x,y,-z
-x,y,1/2+z
x,-y,1/2+z
1/2+x,1/2+y,1/2+z
1/2-x,1/2-y,1/2+z
1/2+x,1/2-y,-z
1/2-x,1/2+y,-z
1/2-x,1/2-y,1/2-z
1/2+x,1/2+y,1/2-z
1/2-x,1/2+y,z
1/2+x,1/2-y,z
loop_
_atom_site_type_symbol
_atom_site_label
_atom_site_fract_x
_atom_site_fract_y
_atom_site_fract_z
Si Si1 0.742139 0.181182 0.774804
Si Si2 0.591357 0.408825 0.797945
Si Si3 0.000000 0.500000 0.664463
Si Si4 0.758338 0.001338 0.377815
Si Si5 0.000000 0.611606 0.250000
Si Si6 0.383728 0.632507 0.376139
Si Si7 0.061361 0.891277 0.000000
Si Si8 0.670272 0.531937 0.500000
O O1 0.750000 0.250000 0.750000
O O2 0.824892 0.137856 0.735915
O O3 0.610763 0.153271 0.768874
O O4 0.797560 0.175181 0.838206
O O5 0.500000 0.433295 0.750000
O O6 0.673960 0.457871 0.830354
O O7 0.508888 0.374349 0.844126
O O8 0.878283 0.488035 0.632804
O O9 0.971565 0.562210 0.700354
O O10 0.767030 0.034131 0.439164
O O11 0.826566 0.936141 0.375903
O O12 0.404176 0.644999 0.442743
O O13 0.926004 0.913393 0.000000
O O14 0.119895 0.960695 0.000000
#
# Coordination Sequence:
#
# PCOD9526753 Si02
#       8
#    16  16   8  16   8  16   8   8
#     4  11  24  38  55  82 108 144 190 239 288 334
#     4  10  21  32  52  81 109 139 176 232 282 334
#     4  11  22  35  54  78 116 155 182 219 284 354
#     4  11  19  35  51  82 117 146 184 220 279 343
#     4  11  22  38  54  78 116 151 178 226 286 345
#     4  10  20  34  56  84 108 144 182 231 278 336
#     4   9  16  32  54  81 113 145 180 220 284 328
#     4   9  18  29  52  81 115 150 173 223 271 334
#
# _framework density 16.724207
#
# number of rings (size 3 to 8) (size 9 to 14) (size 15 to 20)
#    0.000    1.667    5.000    0.500    3.500    5.000 
#    0.000    0.000    0.000    2.000    0.000    0.000 
#    0.000    0.000    0.000    0.000    0.000    0.000 
#
# Total GULP energy -267403.739204 kJ/mol
# GULP energy per Si atom -5570.911233 kJ/mol
# Density = 1.668614 g / cm^3
# Si number density = 16.724207 Si / 1000 Ang^3
#
#
#
# Elastic Constant Matrix: (Units=GPa)
#
#
# Indices 1 2 3 4 5 6 
#
# 1 72.9268 -5.4656 23.0100 0.0000 0.0000 0.0000
# 2 -5.4656 49.3587 15.9040 0.0000 0.0000 0.0000
# 3 23.0100 15.9040 124.1939 0.0000 0.0000 0.0000
# 4 0.0000 0.0000 0.0000 14.9916 0.0000 0.0000
# 5 0.0000 0.0000 0.0000 0.0000 -66.2344 0.0000
# 6 0.0000 0.0000 0.0000 0.0000 0.0000 8.1783
#
#
#
# Elastic Compliance Matrix: (Units=1/GPa)
#
#
# Indices 1 2 3 4 5 6 
#
# 1 0.014888 0.002647 -0.003097 0.000000 0.000000 0.000000
# 2 0.002647 0.021602 -0.003257 0.000000 0.000000 0.000000
# 3 -0.003097 -0.003257 0.009043 0.000000 0.000000 0.000000
# 4 0.000000 0.000000 0.000000 0.066704 0.000000 0.000000
# 5 0.000000 0.000000 0.000000 0.000000 -0.015098 0.000000
# 6 0.000000 0.000000 0.000000 0.000000 0.000000 0.122275
#
#
# Mechanical properties :
#
#
# Convention : Reuss Voigt Hill
#
# Bulk Modulus (GPa) = 26.23411 34.81955 30.52683
# Shear Modulus (GPa) = 20.87378 5.58917 13.23148
#
# Velocity S-wave (km/s) = 3.53670 1.83009 2.81580
# Velocity P-wave (km/s) = 5.69193 5.03296 5.37256
#
# Compressibility (1/GPa) = 0.03811831
#
# Stress axis : x y z
#
# Youngs Moduli (GPa) = 67.16828 46.29141 110.58504
#
# Poissons Ratio (x) = -0.12251 0.34251
# Poissons Ratio (y) = -0.17777 0.36014
# Poissons Ratio (z) = 0.20804 0.15076
#
# Static dielectric constant tensor:
#      x y z
#    x 1.510620 0.000000 0.000000 
#    y 0.000000 1.537140 0.000000 
#    z 0.000000 0.000000 1.604060 
# 
# From -- ./inp_files/43499.got.cif
#   From: 2010.05.17/outbox.cif.g08.bks.cpg/sg72_22_cif.got.tgz:43499.got - 2010.06.03 17:03:01.
