data_PCOD9526004
_publ_section_title
;
Structure prediction by ZEFSAII (Michael W. Deem and Ramdas Pophale) SiO2 
 PCOD9526004
Probable space group: I B A M
;
_chemical_formula_sum "Si O2"
_cell_formula_units_Z 96
_cell_length_a 9.826216
_cell_length_b 21.567413
_cell_length_c 25.780179
_cell_angle_alpha 90.000000
_cell_angle_beta 90.000000
_cell_angle_gamma 90.000000
_cell_volume 5463.491728
_symmetry_space_group_name_H-M "I B A M"
_symmetry_group_IT_number 72
_symmetry_cell_setting 'orthorhombic'
loop_
_space_group_symop_operation_xyz
x,y,z
-x,-y,z
x,-y,1/2-z
-x,y,1/2-z
-x,-y,-z
x,y,-z
-x,y,1/2+z
x,-y,1/2+z
1/2+x,1/2+y,1/2+z
1/2-x,1/2-y,1/2+z
1/2+x,1/2-y,-z
1/2-x,1/2+y,-z
1/2-x,1/2-y,1/2-z
1/2+x,1/2+y,1/2-z
1/2-x,1/2+y,z
1/2+x,1/2-y,z
loop_
_atom_site_type_symbol
_atom_site_label
_atom_site_fract_x
_atom_site_fract_y
_atom_site_fract_z
Si Si1 0.262066 0.365643 0.871683
Si Si2 0.029097 0.685088 0.874067
Si Si3 0.524617 0.697733 0.939265
Si Si4 0.240641 0.118879 0.939812
Si Si5 0.871298 0.777256 0.714945
Si Si6 0.842080 0.019696 0.940334
O O1 0.100915 0.358123 0.865583
O O2 0.331654 0.321041 0.914677
O O3 0.325796 0.336836 0.819028
O O4 0.301054 0.432495 0.895343
O O5 0.978988 0.739203 0.912589
O O6 0.151848 0.649505 0.901630
O O7 0.081112 0.722166 0.823768
O O8 0.410380 0.645574 0.928508
O O9 0.537115 0.705048 0.000000
O O10 0.239047 0.044722 0.935944
O O11 0.270550 0.135542 0.000000
O O12 0.750000 0.750000 0.750000
O O13 0.000000 0.793881 0.750000
O O14 0.823267 0.044589 0.000000
O O15 0.000000 0.000000 0.936405
#
# Coordination Sequence:
#
# PCOD9526004 Si02
#       6
#    16  16  16  16  16  16
#     4  11  22  36  59  87 114 156 202 245 298 357
#     4  11  23  35  56  91 118 151 195 252 313 362
#     4  10  19  33  54  83 121 159 194 238 295 358
#     4  10  21  36  56  86 126 165 199 240 286 356
#     4  11  23  42  64  90 116 149 197 258 319 371
#     4  10  20  37  60  86 122 170 209 236 281 357
#
# _framework density 17.571179999999998
#
# number of rings (size 3 to 8) (size 9 to 14) (size 15 to 20)
#    0.000    1.500    3.333    3.000    2.333    4.667 
#    0.000    1.667    0.000    3.500    0.000    0.000 
#    0.000    0.000    0.000    0.000    0.000    0.000 
#
# Total GULP energy -267748.681030 kJ/mol
# GULP energy per Si atom -5578.097521 kJ/mol
# Density = 1.753119 g / cm^3
# Si number density = 17.571180 Si / 1000 Ang^3
#
#
#
# Elastic Constant Matrix: (Units=GPa)
#
#
# Indices 1 2 3 4 5 6 
#
# 1 88.2678 20.6828 57.2841 0.0000 0.0000 0.0000
# 2 20.6828 76.1556 46.6326 0.0000 0.0000 0.0000
# 3 57.2841 46.6326 106.9365 0.0000 0.0000 0.0000
# 4 0.0000 0.0000 0.0000 34.3230 0.0000 0.0000
# 5 0.0000 0.0000 0.0000 0.0000 26.9838 0.0000
# 6 0.0000 0.0000 0.0000 0.0000 0.0000 12.5872
#
#
#
# Elastic Compliance Matrix: (Units=1/GPa)
#
#
# Indices 1 2 3 4 5 6 
#
# 1 0.017467 0.001345 -0.009943 0.000000 0.000000 0.000000
# 2 0.001345 0.018018 -0.008578 0.000000 0.000000 0.000000
# 3 -0.009943 -0.008578 0.018418 0.000000 0.000000 0.000000
# 4 0.000000 0.000000 0.000000 0.029135 0.000000 0.000000
# 5 0.000000 0.000000 0.000000 0.000000 0.037059 0.000000
# 6 0.000000 0.000000 0.000000 0.000000 0.000000 0.079446
#
#
# Mechanical properties :
#
#
# Convention : Reuss Voigt Hill
#
# Bulk Modulus (GPa) = 51.14769 57.83988 54.49379
# Shear Modulus (GPa) = 20.79755 24.56283 22.68019
#
# Velocity S-wave (km/s) = 3.44411 3.74291 3.59661
# Velocity P-wave (km/s) = 6.70730 7.18805 6.95183
#
# Compressibility (1/GPa) = 0.01955122
#
# Stress axis : x y z
#
# Youngs Moduli (GPa) = 57.25077 55.49939 54.29376
#
# Poissons Ratio (x) = -0.07463 0.53985
# Poissons Ratio (y) = -0.07699 0.46572
# Poissons Ratio (z) = 0.56926 0.47606
#
# Static dielectric constant tensor:
#      x y z
#    x 1.597880 0.000000 0.000000 
#    y 0.000000 1.612990 0.000000 
#    z 0.000000 0.000000 1.593980 
# 
# From -- ./inp_files/42400.got.cif
#   From: 2010.05.17/outbox.cif.g08.bks.cpg/sg72_22_cif.got.tgz:42400.got - 2010.06.03 17:03:01.
