data_PCOD9526990
_publ_section_title
;
Structure prediction by ZEFSAII (Michael W. Deem and Ramdas Pophale) SiO2 
 PCOD9526990
Probable space group: I B A M
;
_chemical_formula_sum "Si O2"
_cell_formula_units_Z 80
_cell_length_a 27.418676
_cell_length_b 19.059319
_cell_length_c 8.648796
_cell_angle_alpha 90.000000
_cell_angle_beta 90.000000
_cell_angle_gamma 90.000000
_cell_volume 4519.698992
_symmetry_space_group_name_H-M "I B A M"
_symmetry_group_IT_number 72
_symmetry_cell_setting 'orthorhombic'
loop_
_space_group_symop_operation_xyz
x,y,z
-x,-y,z
x,-y,1/2-z
-x,y,1/2-z
-x,-y,-z
x,y,-z
-x,y,1/2+z
x,-y,1/2+z
1/2+x,1/2+y,1/2+z
1/2-x,1/2-y,1/2+z
1/2+x,1/2-y,-z
1/2-x,1/2+y,-z
1/2-x,1/2-y,1/2-z
1/2+x,1/2+y,1/2-z
1/2-x,1/2+y,z
1/2+x,1/2-y,z
loop_
_atom_site_type_symbol
_atom_site_label
_atom_site_fract_x
_atom_site_fract_y
_atom_site_fract_z
Si Si1 0.799013 0.217007 0.314922
Si Si2 0.945072 0.425972 0.184998
Si Si3 0.552462 0.644502 0.184904
Si Si4 0.849917 0.924126 0.186151
Si Si5 0.097874 0.715536 0.314059
O O1 0.795338 0.216031 0.500000
O O2 0.750000 0.250000 0.250000
O O3 0.812603 0.137684 0.265086
O O4 0.846748 0.262758 0.274919
O O5 0.925833 0.500000 0.250000
O O6 0.915551 0.359483 0.245910
O O7 0.000000 0.418745 0.250000
O O8 0.946393 0.427670 0.000000
O O9 0.500000 0.622311 0.250000
O O10 0.596911 0.598004 0.250127
O O11 0.563867 0.723511 0.243596
O O12 0.552379 0.642495 0.000000
O O13 0.836350 0.000000 0.250000
O O14 0.852167 0.924934 0.000000
O O15 0.092374 0.715988 0.500000
#
# Coordination Sequence:
#
# PCOD9526990 Si02
#       5
#    16  16  16  16  16
#     4   9  20  37  59  82 107 136 174 220 267 316
#     4  11  21  34  52  76 106 143 180 220 267 320
#     4  11  21  34  53  79 109 145 182 220 261 311
#     4  10  21  38  57  82 111 142 177 219 265 316
#     4  10  20  36  54  77 107 140 178 223 267 317
#
# _framework density 17.700295000000001
#
# number of rings (size 3 to 8) (size 9 to 14) (size 15 to 20)
#    0.000    1.800    0.000    7.200    0.000    5.200 
#    0.000    3.000    0.000    2.400    0.000    0.000 
#    0.000    0.000    0.000    0.000    0.000    0.000 
#
# Total GULP energy -223420.916941 kJ/mol
# GULP energy per Si atom -5585.522924 kJ/mol
# Density = 1.766001 g / cm^3
# Si number density = 17.700295 Si / 1000 Ang^3
#
#
#
# Elastic Constant Matrix: (Units=GPa)
#
#
# Indices 1 2 3 4 5 6 
#
# 1 103.1644 61.6120 37.5147 0.0000 0.0000 0.0000
# 2 61.6120 158.8208 50.2642 0.0000 0.0000 0.0000
# 3 37.5147 50.2642 112.3806 0.0000 0.0000 0.0000
# 4 0.0000 0.0000 0.0000 33.9468 0.0000 0.0000
# 5 0.0000 0.0000 0.0000 0.0000 29.8946 0.0000
# 6 0.0000 0.0000 0.0000 0.0000 0.0000 9.4571
#
#
#
# Elastic Compliance Matrix: (Units=1/GPa)
#
#
# Indices 1 2 3 4 5 6 
#
# 1 0.013175 -0.004333 -0.002460 0.000000 0.000000 0.000000
# 2 -0.004333 0.008759 -0.002471 0.000000 0.000000 0.000000
# 3 -0.002460 -0.002471 0.010825 0.000000 0.000000 0.000000
# 4 0.000000 0.000000 0.000000 0.029458 0.000000 0.000000
# 5 0.000000 0.000000 0.000000 0.000000 0.033451 0.000000
# 6 0.000000 0.000000 0.000000 0.000000 0.000000 0.105740
#
#
# Mechanical properties :
#
#
# Convention : Reuss Voigt Hill
#
# Bulk Modulus (GPa) = 70.26908 74.79418 72.53163
# Shear Modulus (GPa) = 22.25371 29.65802 25.95587
#
# Velocity S-wave (km/s) = 3.54962 4.09781 3.83353
# Velocity P-wave (km/s) = 7.52232 8.04593 7.78853
#
# Compressibility (1/GPa) = 0.01423101
#
# Stress axis : x y z
#
# Youngs Moduli (GPa) = 75.89877 114.16401 92.37815
#
# Poissons Ratio (x) = 0.49462 0.22729
# Poissons Ratio (y) = 0.32883 0.22831
# Poissons Ratio (z) = 0.18674 0.28215
#
# Static dielectric constant tensor:
#      x y z
#    x 1.586080 0.000000 0.000000 
#    y 0.000000 1.608830 0.000000 
#    z 0.000000 0.000000 1.592380 
# 
# From -- ./inp_files/4740.got.cif
#   From: 2010.05.17/outbox.cif.g08.bks.cpg/sg72_3_cif.got.tgz:4740.got - 2010.06.03 17:03:01.
