data_PCOD9526145
_publ_section_title
;
Structure prediction by ZEFSAII (Michael W. Deem and Ramdas Pophale) SiO2 
 PCOD9526145
Probable space group: I B A M
;
_chemical_formula_sum "Si O2"
_cell_formula_units_Z 80
_cell_length_a 9.100456
_cell_length_b 27.810749
_cell_length_c 16.226772
_cell_angle_alpha 90.000000
_cell_angle_beta 90.000000
_cell_angle_gamma 90.000000
_cell_volume 4106.841800
_symmetry_space_group_name_H-M "I B A M"
_symmetry_group_IT_number 72
_symmetry_cell_setting 'orthorhombic'
loop_
_space_group_symop_operation_xyz
x,y,z
-x,-y,z
x,-y,1/2-z
-x,y,1/2-z
-x,-y,-z
x,y,-z
-x,y,1/2+z
x,-y,1/2+z
1/2+x,1/2+y,1/2+z
1/2-x,1/2-y,1/2+z
1/2+x,1/2-y,-z
1/2-x,1/2+y,-z
1/2-x,1/2-y,1/2-z
1/2+x,1/2+y,1/2-z
1/2-x,1/2+y,z
1/2+x,1/2-y,z
loop_
_atom_site_type_symbol
_atom_site_label
_atom_site_fract_x
_atom_site_fract_y
_atom_site_fract_z
Si Si1 0.364256 0.159168 0.500000
Si Si2 0.148588 0.027568 0.666681
Si Si3 0.480494 0.793810 0.656727
Si Si4 0.754147 0.941453 0.500000
Si Si5 0.465629 0.355482 0.000000
Si Si6 0.500000 0.617042 0.750000
Si Si7 0.640271 0.691826 0.647388
O O1 0.437422 0.178691 0.583061
O O2 0.364268 0.101254 0.500000
O O3 0.190725 0.172318 0.500000
O O4 0.249192 0.030280 0.586033
O O5 0.089751 0.080475 0.691480
O O6 0.203341 0.000000 0.750000
O O7 0.000000 0.000000 0.642595
O O8 0.500000 0.813538 0.750000
O O9 0.547876 0.740294 0.658563
O O10 0.308364 0.794025 0.635195
O O11 0.909246 0.910661 0.500000
O O12 0.562891 0.339053 0.923757
O O13 0.624647 0.654456 0.721636
#
# Coordination Sequence:
#
# PCOD9526145 Si02
#       7
#     8  16  16   8   8   8  16
#     4  10  24  43  59  91 128 164 227 256 322 382
#     4   9  19  34  59  98 129 153 204 265 335 391
#     4  12  26  39  61  89 128 181 223 276 320 373
#     4  10  19  36  66  84 135 156 204 255 335 369
#     4  10  22  37  65  83 123 169 210 273 314 383
#     4  10  19  34  56  90 122 158 210 266 309 390
#     4  12  23  38  59  86 131 170 227 266 325 376
#
# _framework density 19.479690000000002
#
# number of rings (size 3 to 8) (size 9 to 14) (size 15 to 20)
#    0.600    1.000    3.000    3.300    5.600    0.000 
#    0.000    0.000    0.000    0.000    0.000   16.800 
#    0.000    0.000    0.000    0.000    0.000    0.000 
#
# Total GULP energy -222803.114555 kJ/mol
# GULP energy per Si atom -5570.077864 kJ/mol
# Density = 1.943535 g / cm^3
# Si number density = 19.479690 Si / 1000 Ang^3
#
#
#
# Elastic Constant Matrix: (Units=GPa)
#
#
# Indices 1 2 3 4 5 6 
#
# 1 91.7077 25.7951 9.4629 0.0000 0.0000 0.0000
# 2 25.7951 97.1708 46.4496 0.0000 0.0001 0.0000
# 3 9.4629 46.4496 112.4468 -0.0001 0.0008 0.0000
# 4 0.0000 0.0000 -0.0001 19.2619 0.0004 0.0000
# 5 0.0000 0.0001 0.0008 0.0004 331.9075 0.0000
# 6 0.0000 0.0000 0.0000 0.0000 0.0000 14.9273
#
#
#
# Elastic Compliance Matrix: (Units=1/GPa)
#
#
# Indices 1 2 3 4 5 6 
#
# 1 0.011797 -0.003311 0.000375 0.000000 0.000000 0.000000
# 2 -0.003311 0.013752 -0.005402 0.000000 0.000000 0.000000
# 3 0.000375 -0.005402 0.011093 0.000000 0.000000 0.000000
# 4 0.000000 0.000000 0.000000 0.051916 0.000000 0.000000
# 5 0.000000 0.000000 0.000000 0.000000 0.003013 0.000000
# 6 0.000000 0.000000 0.000000 0.000000 0.000000 0.066991
#
#
# Mechanical properties :
#
#
# Convention : Reuss Voigt Hill
#
# Bulk Modulus (GPa) = 50.08517 51.63783 50.86150
# Shear Modulus (GPa) = 27.48852 87.86051 57.67452
#
# Velocity S-wave (km/s) = 3.76059 6.72321 5.44718
# Velocity P-wave (km/s) = 6.68007 9.31852 8.10735
#
# Compressibility (1/GPa) = 0.01996599
#
# Stress axis : x y z
#
# Youngs Moduli (GPa) = 84.76896 72.71449 90.14610
#
# Poissons Ratio (x) = 0.24074 -0.03379
# Poissons Ratio (y) = 0.28065 0.48699
# Poissons Ratio (z) = -0.03178 0.39282
#
# Static dielectric constant tensor:
#      x y z
#    x 1.669330 0.000000 0.000000 
#    y 0.000000 1.666920 0.000000 
#    z 0.000000 0.000000 1.924620 
# 
# From -- ./inp_files/28252.got.cif
#   From: 2010.05.17/outbox.cif.g08.bks.cpg/sg72_15_cif.got.tgz:28252.got - 2010.06.03 17:03:01.
