data_PCOD9526219
_publ_section_title
;
Structure prediction by ZEFSAII (Michael W. Deem and Ramdas Pophale) SiO2 
 PCOD9526219
Probable space group: I B A M
;
_chemical_formula_sum "Si O2"
_cell_formula_units_Z 116
_cell_length_a 28.589989
_cell_length_b 23.709890
_cell_length_c 8.214221
_cell_angle_alpha 90.000000
_cell_angle_beta 90.000000
_cell_angle_gamma 90.000000
_cell_volume 5568.136978
_symmetry_space_group_name_H-M "I B A M"
_symmetry_group_IT_number 72
_symmetry_cell_setting 'orthorhombic'
loop_
_space_group_symop_operation_xyz
x,y,z
-x,-y,z
x,-y,1/2-z
-x,y,1/2-z
-x,-y,-z
x,y,-z
-x,y,1/2+z
x,-y,1/2+z
1/2+x,1/2+y,1/2+z
1/2-x,1/2-y,1/2+z
1/2+x,1/2-y,-z
1/2-x,1/2+y,-z
1/2-x,1/2-y,1/2-z
1/2+x,1/2+y,1/2-z
1/2-x,1/2+y,z
1/2+x,1/2-y,z
loop_
_atom_site_type_symbol
_atom_site_label
_atom_site_fract_x
_atom_site_fract_y
_atom_site_fract_z
Si Si1 0.000000 0.000000 0.250000
Si Si2 0.148013 0.250662 0.812551
Si Si3 0.070854 0.089885 0.305512
Si Si4 0.262404 0.063222 0.696641
Si Si5 0.171813 0.871901 0.194379
Si Si6 0.145398 0.624958 0.302929
Si Si7 0.949985 0.222085 0.189466
Si Si8 0.448240 0.935205 0.307125
O O1 0.039107 0.952591 0.298894
O O2 0.167457 0.194448 0.729909
O O3 0.158751 0.312295 0.743450
O O4 0.092006 0.245708 0.796054
O O5 0.162600 0.248684 0.000000
O O6 0.067733 0.073231 0.500000
O O7 0.124807 0.095361 0.249701
O O8 0.052489 0.154004 0.296933
O O9 0.262640 0.066232 0.500000
O O10 0.219944 0.102255 0.757095
O O11 0.313400 0.083475 0.752821
O O12 0.253396 0.000000 0.750000
O O13 0.170649 0.878165 0.000000
O O14 0.145394 0.627171 0.500000
O O15 0.094515 0.603287 0.251991
O O16 0.000000 0.241985 0.250000
O O17 0.942070 0.236198 0.000000
O O18 0.500000 0.917094 0.250000
O O19 0.448211 0.935204 0.500000
O O20 0.441083 0.000000 0.250000
#
# Coordination Sequence:
#
# PCOD9526219 Si02
#       8
#     4  16  16  16  16  16  16  16
#     4  12  18  28  48  78 108 144 190 232 282 332
#     4  10  21  37  58  84 113 150 196 244 295 352
#     4   9  19  32  47  72 107 144 184 231 282 338
#     4  10  22  40  63  88 118 155 192 240 297 352
#     4   9  20  40  59  80 115 154 193 242 300 354
#     4  10  22  40  60  88 123 155 196 247 295 352
#     4  10  19  35  54  76 109 148 191 237 291 348
#     4  11  22  38  62  91 125 164 201 242 294 353
#
# _framework density 20.832822
#
# number of rings (size 3 to 8) (size 9 to 14) (size 15 to 20)
#    0.000    2.069    0.690    3.931    0.966    4.414 
#    0.000    0.690    0.000    0.000    0.000    0.000 
#    0.000    0.000    0.000    0.000    0.000    0.000 
#
# Total GULP energy -323475.384012 kJ/mol
# GULP energy per Si atom -5577.161793 kJ/mol
# Density = 2.078541 g / cm^3
# Si number density = 20.832822 Si / 1000 Ang^3
#
#
#
# Elastic Constant Matrix: (Units=GPa)
#
#
# Indices 1 2 3 4 5 6 
#
# 1 130.1338 52.3846 14.9476 0.0000 0.0000 0.0000
# 2 52.3846 84.6575 8.3711 0.0000 0.0000 0.0000
# 3 14.9476 8.3711 29.7580 0.0000 0.0000 0.0000
# 4 0.0000 0.0000 0.0000 14.9023 0.0000 0.0000
# 5 0.0000 0.0000 0.0000 0.0000 -0.8727 0.0000
# 6 0.0000 0.0000 0.0000 0.0000 0.0000 2.9765
#
#
#
# Elastic Compliance Matrix: (Units=1/GPa)
#
#
# Indices 1 2 3 4 5 6 
#
# 1 0.010591 -0.006200 -0.003576 0.000000 0.000000 0.000000
# 2 -0.006200 0.015780 -0.001325 0.000000 0.000000 0.000000
# 3 -0.003576 -0.001325 0.035773 0.000000 0.000000 0.000000
# 4 0.000000 0.000000 0.000000 0.067104 0.000000 0.000000
# 5 0.000000 0.000000 0.000000 0.000000 -1.145838 0.000000
# 6 0.000000 0.000000 0.000000 0.000000 0.000000 0.335964
#
#
# Mechanical properties :
#
#
# Convention : Reuss Voigt Hill
#
# Bulk Modulus (GPa) = 25.03562 43.99510 34.51536
# Shear Modulus (GPa) = -7.75060 14.65760 3.45350
#
# Velocity S-wave (km/s) = -1.93092 2.65539 1.28892
# Velocity P-wave (km/s) = 2.65936 5.52861 4.33807
#
# Compressibility (1/GPa) = 0.03994309
#
# Stress axis : x y z
#
# Youngs Moduli (GPa) = 94.42123 63.37269 27.95386
#
# Poissons Ratio (x) = 0.39290 0.09996
# Poissons Ratio (y) = 0.58540 0.03703
# Poissons Ratio (z) = 0.33763 0.08395
#
# Static dielectric constant tensor:
#      x y z
#    x 1.752460 0.000000 0.000000 
#    y 0.000000 1.743970 0.000000 
#    z 0.000000 0.000000 1.788070 
# 
# From -- ./inp_files/7368.got.cif
#   From: 2010.05.17/outbox.cif.g08.bks.cpg/sg72_4_cif.got.tgz:7368.got - 2010.06.03 17:03:01.
