data_PCOD9526868
_publ_section_title
;
Structure prediction by ZEFSAII (Michael W. Deem and Ramdas Pophale) SiO2 
 PCOD9526868
Probable space group: I B A M
;
_chemical_formula_sum "Si O2"
_cell_formula_units_Z 116
_cell_length_a 9.557375
_cell_length_b 29.594950
_cell_length_c 22.881472
_cell_angle_alpha 90.000000
_cell_angle_beta 90.000000
_cell_angle_gamma 90.000000
_cell_volume 6472.025162
_symmetry_space_group_name_H-M "I B A M"
_symmetry_group_IT_number 72
_symmetry_cell_setting 'orthorhombic'
loop_
_space_group_symop_operation_xyz
x,y,z
-x,-y,z
x,-y,1/2-z
-x,y,1/2-z
-x,-y,-z
x,y,-z
-x,y,1/2+z
x,-y,1/2+z
1/2+x,1/2+y,1/2+z
1/2-x,1/2-y,1/2+z
1/2+x,1/2-y,-z
1/2-x,1/2+y,-z
1/2-x,1/2-y,1/2-z
1/2+x,1/2+y,1/2-z
1/2-x,1/2+y,z
1/2+x,1/2-y,z
loop_
_atom_site_type_symbol
_atom_site_label
_atom_site_fract_x
_atom_site_fract_y
_atom_site_fract_z
Si Si1 0.752034 0.892506 0.633916
Si Si2 0.000000 0.500000 0.250000
Si Si3 0.673414 0.073129 0.327867
Si Si4 0.006285 0.659182 0.186832
Si Si5 0.492019 0.449896 0.680617
Si Si6 0.511201 0.782676 0.569224
Si Si7 0.984063 0.554206 0.066227
Si Si8 0.334457 0.695425 0.433363
O O1 0.636518 0.869228 0.675536
O O2 0.659483 0.925486 0.592549
O O3 0.825800 0.850458 0.602394
O O4 0.873808 0.921454 0.662295
O O5 0.900958 0.467129 0.210473
O O6 0.625361 0.121541 0.304591
O O7 0.838644 0.068973 0.332024
O O8 0.605806 0.071016 0.391825
O O9 0.029300 0.685825 0.125241
O O10 0.000000 0.684418 0.250000
O O11 0.500000 0.500000 0.654213
O O12 0.500000 0.453403 0.750000
O O13 0.472796 0.794688 0.500000
O O14 0.445445 0.733858 0.582115
O O15 0.679427 0.782841 0.570108
O O16 0.000000 0.500000 0.067222
O O17 0.997135 0.570178 0.000000
O O18 0.361388 0.682578 0.500000
#
# Coordination Sequence:
#
# PCOD9526868 Si02
#       8
#    16   4  16  16  16  16  16  16
#     4  10  21  37  56  80 116 153 190 235 299 350
#     4  12  20  36  60  84 108 152 210 238 288 336
#     4  11  22  34  59  82 111 150 198 244 282 341
#     4  10  20  35  56  82 112 148 191 236 286 346
#     4  11  23  35  53  82 117 151 194 244 292 345
#     4   9  19  36  59  84 109 141 186 232 284 347
#     4  10  20  35  56  80 108 149 194 235 279 340
#     4   9  18  36  60  82 105 144 188 233 283 346
#
# _framework density 17.923293000000001
#
# number of rings (size 3 to 8) (size 9 to 14) (size 15 to 20)
#    0.000    1.931    1.379    2.897    3.862    4.414 
#    0.000    4.828    0.000    3.724    0.000    0.000 
#    0.000    0.000    0.000    0.000    0.000    0.000 
#
# Total GULP energy -323027.399033 kJ/mol
# GULP energy per Si atom -5569.437914 kJ/mol
# Density = 1.788250 g / cm^3
# Si number density = 17.923293 Si / 1000 Ang^3
#
#
#
# Elastic Constant Matrix: (Units=GPa)
#
#
# Indices 1 2 3 4 5 6 
#
# 1 79.7128 39.3304 39.0687 0.0000 0.0000 0.0000
# 2 39.3304 91.4354 46.2501 0.0000 0.0000 0.0000
# 3 39.0687 46.2501 122.5074 -0.0001 0.0000 0.0000
# 4 0.0000 0.0000 -0.0001 23.8965 0.0000 0.0000
# 5 0.0000 0.0000 0.0000 0.0000 7.9340 0.0000
# 6 0.0000 0.0000 0.0000 0.0000 0.0000 39.3783
#
#
#
# Elastic Compliance Matrix: (Units=1/GPa)
#
#
# Indices 1 2 3 4 5 6 
#
# 1 0.016925 -0.005624 -0.003274 0.000000 0.000000 0.000000
# 2 -0.005624 0.015387 -0.004015 0.000000 0.000000 0.000000
# 3 -0.003274 -0.004015 0.010723 0.000000 0.000000 0.000000
# 4 0.000000 0.000000 0.000000 0.041847 0.000000 0.000000
# 5 0.000000 0.000000 0.000000 0.000000 0.126040 0.000000
# 6 0.000000 0.000000 0.000000 0.000000 0.000000 0.025395
#
#
# Mechanical properties :
#
#
# Convention : Reuss Voigt Hill
#
# Bulk Modulus (GPa) = 58.11504 60.32821 59.22163
# Shear Modulus (GPa) = 18.66511 25.50885 22.08698
#
# Velocity S-wave (km/s) = 3.23056 3.77666 3.51423
# Velocity P-wave (km/s) = 6.81249 7.26290 7.04130
#
# Compressibility (1/GPa) = 0.01720725
#
# Stress axis : x y z
#
# Youngs Moduli (GPa) = 59.08555 64.99047 93.25814
#
# Poissons Ratio (x) = 0.36550 0.30535
# Poissons Ratio (y) = 0.33229 0.37448
# Poissons Ratio (z) = 0.19346 0.26097
#
# Static dielectric constant tensor:
#      x y z
#    x 1.573680 0.000000 0.000000 
#    y 0.000000 1.648400 0.000000 
#    z 0.000000 0.000000 1.657930 
# 
# From -- ./inp_files/42753.got.cif
#   From: 2010.05.17/outbox.cif.g08.bks.cpg/sg72_22_cif.got.tgz:42753.got - 2010.06.03 17:03:01.
