data_PCOD9526897
_publ_section_title
;
Structure prediction by ZEFSAII (Michael W. Deem and Ramdas Pophale) SiO2 
 PCOD9526897
Probable space group: I B A M
;
_chemical_formula_sum "Si O2"
_cell_formula_units_Z 96
_cell_length_a 11.770358
_cell_length_b 21.692679
_cell_length_c 16.145367
_cell_angle_alpha 90.000000
_cell_angle_beta 90.000000
_cell_angle_gamma 90.000000
_cell_volume 4122.406208
_symmetry_space_group_name_H-M "I B A M"
_symmetry_group_IT_number 72
_symmetry_cell_setting 'orthorhombic'
loop_
_space_group_symop_operation_xyz
x,y,z
-x,-y,z
x,-y,1/2-z
-x,y,1/2-z
-x,-y,-z
x,y,-z
-x,y,1/2+z
x,-y,1/2+z
1/2+x,1/2+y,1/2+z
1/2-x,1/2-y,1/2+z
1/2+x,1/2-y,-z
1/2-x,1/2+y,-z
1/2-x,1/2-y,1/2-z
1/2+x,1/2+y,1/2-z
1/2-x,1/2+y,z
1/2+x,1/2-y,z
loop_
_atom_site_type_symbol
_atom_site_label
_atom_site_fract_x
_atom_site_fract_y
_atom_site_fract_z
Si Si1 0.380289 0.200768 0.595599
Si Si2 0.799368 0.503070 0.398964
Si Si3 0.694672 0.313873 0.718102
Si Si4 0.003946 0.176388 0.906900
Si Si5 0.397341 0.571378 0.815706
Si Si6 0.501870 0.090389 0.599460
O O1 0.361886 0.187591 0.500000
O O2 0.280419 0.170683 0.645233
O O3 0.395624 0.273573 0.602335
O O4 0.491060 0.161943 0.621980
O O5 0.779602 0.501765 0.500000
O O6 0.682481 0.515633 0.348606
O O7 0.887385 0.447520 0.377536
O O8 0.881178 0.560129 0.373535
O O9 0.750000 0.250000 0.750000
O O10 0.577558 0.305546 0.668473
O O11 0.677215 0.372760 0.776364
O O12 0.044558 0.106747 0.893289
O O13 0.957096 0.185044 0.000000
O O14 0.500000 0.560700 0.750000
O O15 0.506723 0.084079 0.500000
#
# Coordination Sequence:
#
# PCOD9526897 Si02
#       6
#    16  16  16  16  16  16
#     4  10  20  35  57  83 112 153 198 244 298 361
#     4   9  17  35  61  89 120 154 199 256 309 363
#     4  11  22  36  51  79 119 158 192 249 306 355
#     4  10  21  36  55  81 115 157 208 250 290 364
#     4  10  21  36  55  84 121 164 207 246 305 369
#     4   8  17  33  58  91 118 145 197 259 310 361
#
# _framework density 23.287369999999999
#
# number of rings (size 3 to 8) (size 9 to 14) (size 15 to 20)
#    0.000    2.333    1.667    2.000    2.333    0.000 
#    0.000    0.833    0.000    9.000    0.000   15.167 
#    0.000    0.000    0.000   64.000    0.000    0.000 
#
# Total GULP energy -267392.914832 kJ/mol
# GULP energy per Si atom -5570.685726 kJ/mol
# Density = 2.323437 g / cm^3
# Si number density = 23.287370 Si / 1000 Ang^3
#
#
#
# Elastic Constant Matrix: (Units=GPa)
#
#
# Indices 1 2 3 4 5 6 
#
# 1 84.9116 18.7127 38.9335 0.0000 0.0000 0.0000
# 2 18.7127 61.5387 14.5654 0.0000 0.0000 0.0000
# 3 38.9335 14.5654 64.9570 0.0000 0.0000 0.0000
# 4 0.0000 0.0000 0.0000 8.3159 0.0000 0.0000
# 5 0.0000 0.0000 0.0000 0.0000 42.8874 0.0000
# 6 0.0000 0.0000 0.0000 0.0000 0.0000 13.7054
#
#
#
# Elastic Compliance Matrix: (Units=1/GPa)
#
#
# Indices 1 2 3 4 5 6 
#
# 1 0.016704 -0.002862 -0.009370 0.000000 0.000000 0.000000
# 2 -0.002862 0.017651 -0.002243 0.000000 0.000000 0.000000
# 3 -0.009370 -0.002243 0.021514 0.000000 0.000000 0.000000
# 4 0.000000 0.000000 0.000000 0.120252 0.000000 0.000000
# 5 0.000000 0.000000 0.000000 0.000000 0.023317 0.000000
# 6 0.000000 0.000000 0.000000 0.000000 0.000000 0.072964
#
#
# Mechanical properties :
#
#
# Convention : Reuss Voigt Hill
#
# Bulk Modulus (GPa) = 37.14745 39.53671 38.34208
# Shear Modulus (GPa) = 16.11222 22.26148 19.18685
#
# Velocity S-wave (km/s) = 2.63323 3.09519 2.87351
# Velocity P-wave (km/s) = 5.02310 5.45786 5.24499
#
# Compressibility (1/GPa) = 0.02691975
#
# Stress axis : x y z
#
# Youngs Moduli (GPa) = 59.86577 56.65436 46.48136
#
# Poissons Ratio (x) = 0.16212 0.43554
# Poissons Ratio (y) = 0.17131 0.10425
# Poissons Ratio (z) = 0.56096 0.12706
#
# Static dielectric constant tensor:
#      x y z
#    x 1.924700 0.000000 0.000000 
#    y 0.000000 1.951010 0.000000 
#    z 0.000000 0.000000 1.804230 
# 
# From -- ./inp_files/29420.got.cif
#   From: 2010.05.17/outbox.cif.g08.bks.cpg/sg72_15_cif.got.tgz:29420.got - 2010.06.03 17:03:01.
