data_PCOD9526794
_publ_section_title
;
Structure prediction by ZEFSAII (Michael W. Deem and Ramdas Pophale) SiO2 
 PCOD9526794
Probable space group: I B A M
;
_chemical_formula_sum "Si O2"
_cell_formula_units_Z 96
_cell_length_a 29.072753
_cell_length_b 20.403978
_cell_length_c 8.799441
_cell_angle_alpha 90.000000
_cell_angle_beta 90.000000
_cell_angle_gamma 90.000000
_cell_volume 5219.826752
_symmetry_space_group_name_H-M "I B A M"
_symmetry_group_IT_number 72
_symmetry_cell_setting 'orthorhombic'
loop_
_space_group_symop_operation_xyz
x,y,z
-x,-y,z
x,-y,1/2-z
-x,y,1/2-z
-x,-y,-z
x,y,-z
-x,y,1/2+z
x,-y,1/2+z
1/2+x,1/2+y,1/2+z
1/2-x,1/2-y,1/2+z
1/2+x,1/2-y,-z
1/2-x,1/2+y,-z
1/2-x,1/2-y,1/2-z
1/2+x,1/2+y,1/2-z
1/2-x,1/2+y,z
1/2+x,1/2-y,z
loop_
_atom_site_type_symbol
_atom_site_label
_atom_site_fract_x
_atom_site_fract_y
_atom_site_fract_z
Si Si1 0.135867 0.927091 0.316658
Si Si2 0.221837 0.150072 0.325314
Si Si3 0.949685 0.165900 0.316981
Si Si4 0.689628 0.801541 0.826875
Si Si5 0.949117 0.565338 0.679840
Si Si6 0.592692 0.193844 0.820612
O O1 0.138088 0.928698 0.500000
O O2 0.181293 0.891183 0.252469
O O3 0.090427 0.885149 0.272365
O O4 0.132969 0.000000 0.250000
O O5 0.228436 0.128553 0.500000
O O6 0.269489 0.152114 0.232823
O O7 0.206746 0.226344 0.329145
O O8 0.952763 0.164514 0.500000
O O9 0.932466 0.238812 0.272742
O O10 0.000000 0.152075 0.250000
O O11 0.646519 0.801539 0.715078
O O12 0.676441 0.818976 0.000000
O O13 0.926588 0.500000 0.750000
O O14 0.951756 0.558904 0.500000
O O15 0.925068 0.631810 0.728821
O O16 0.000000 0.568868 0.750000
O O17 0.584530 0.184728 0.000000
#
# Coordination Sequence:
#
# PCOD9526794 Si02
#       6
#    16  16  16  16  16  16
#     4  11  23  41  61  86 118 159 203 252 306 363
#     4  10  20  36  59  87 116 152 192 236 287 347
#     4  10  23  39  59  85 118 155 200 252 303 355
#     4  10  20  34  58  89 119 151 189 237 287 345
#     4  11  22  38  58  83 114 154 197 239 289 350
#     4  11  21  37  59  88 121 157 196 245 297 351
#
# _framework density 18.391414999999999
#
# number of rings (size 3 to 8) (size 9 to 14) (size 15 to 20)
#    0.000    1.500    1.667    4.500    0.000    5.667 
#    0.000    2.500    0.000    0.000    0.000    0.000 
#    0.000    0.000    0.000    0.000    0.000    0.000 
#
# Total GULP energy -268037.638855 kJ/mol
# GULP energy per Si atom -5584.117476 kJ/mol
# Density = 1.834956 g / cm^3
# Si number density = 18.391415 Si / 1000 Ang^3
#
#
#
# Elastic Constant Matrix: (Units=GPa)
#
#
# Indices 1 2 3 4 5 6 
#
# 1 69.5042 33.9907 12.7868 0.0000 0.0000 0.0000
# 2 33.9907 104.4336 41.3276 0.0000 0.0000 0.0000
# 3 12.7868 41.3276 94.7487 0.0000 0.0000 0.0000
# 4 0.0000 0.0000 0.0000 30.2259 0.0000 0.0000
# 5 0.0000 0.0000 0.0000 0.0000 33.7389 0.0000
# 6 0.0000 0.0000 0.0000 0.0000 0.0000 4.9369
#
#
#
# Elastic Compliance Matrix: (Units=1/GPa)
#
#
# Indices 1 2 3 4 5 6 
#
# 1 0.017113 -0.005627 0.000145 0.000000 0.000000 0.000000
# 2 -0.005627 0.013423 -0.005096 0.000000 0.000000 0.000000
# 3 0.000145 -0.005096 0.012757 0.000000 0.000000 0.000000
# 4 0.000000 0.000000 0.000000 0.033084 0.000000 0.000000
# 5 0.000000 0.000000 0.000000 0.000000 0.029639 0.000000
# 6 0.000000 0.000000 0.000000 0.000000 0.000000 0.202555
#
#
# Mechanical properties :
#
#
# Convention : Reuss Voigt Hill
#
# Bulk Modulus (GPa) = 45.17128 49.43298 47.30213
# Shear Modulus (GPa) = 14.83205 25.81910 20.32558
#
# Velocity S-wave (km/s) = 2.84292 3.75089 3.32801
# Velocity P-wave (km/s) = 5.94900 6.75984 6.36734
#
# Compressibility (1/GPa) = 0.02213796
#
# Stress axis : x y z
#
# Youngs Moduli (GPa) = 58.43537 74.49624 78.38657
#
# Poissons Ratio (x) = 0.41921 -0.01137
# Poissons Ratio (y) = 0.32883 0.39943
# Poissons Ratio (z) = -0.00847 0.37961
#
# Static dielectric constant tensor:
#      x y z
#    x 1.654110 0.000000 0.000000 
#    y 0.000000 1.631550 0.000000 
#    z 0.000000 0.000000 1.628400 
# 
# From -- ./inp_files/6037.got.cif
#   From: 2010.05.17/outbox.cif.g08.bks.cpg/sg72_4_cif.got.tgz:6037.got - 2010.06.03 17:03:01.
