data_PCOD9526487
_publ_section_title
;
Structure prediction by ZEFSAII (Michael W. Deem and Ramdas Pophale) SiO2 
 PCOD9526487
Probable space group: I B A M
;
_chemical_formula_sum "Si O2"
_cell_formula_units_Z 104
_cell_length_a 8.793977
_cell_length_b 22.918243
_cell_length_c 26.288483
_cell_angle_alpha 90.000000
_cell_angle_beta 90.000000
_cell_angle_gamma 90.000000
_cell_volume 5298.246633
_symmetry_space_group_name_H-M "I B A M"
_symmetry_group_IT_number 72
_symmetry_cell_setting 'orthorhombic'
loop_
_space_group_symop_operation_xyz
x,y,z
-x,-y,z
x,-y,1/2-z
-x,y,1/2-z
-x,-y,-z
x,y,-z
-x,y,1/2+z
x,-y,1/2+z
1/2+x,1/2+y,1/2+z
1/2-x,1/2-y,1/2+z
1/2+x,1/2-y,-z
1/2-x,1/2+y,-z
1/2-x,1/2-y,1/2-z
1/2+x,1/2+y,1/2-z
1/2-x,1/2+y,z
1/2+x,1/2-y,z
loop_
_atom_site_type_symbol
_atom_site_label
_atom_site_fract_x
_atom_site_fract_y
_atom_site_fract_z
Si Si1 0.000000 0.236311 0.250000
Si Si2 0.329812 0.172577 0.000000
Si Si3 0.072070 0.093333 0.440303
Si Si4 0.082197 0.382934 0.607215
Si Si5 0.754582 0.706000 0.321388
Si Si6 0.898115 0.257083 0.500000
Si Si7 0.778548 0.316026 0.396675
Si Si8 0.745514 0.474707 0.060292
O O1 0.885732 0.276793 0.218345
O O2 0.899843 0.199337 0.289540
O O3 0.379410 0.140707 0.949451
O O4 0.155588 0.190686 0.000000
O O5 0.422497 0.233288 0.000000
O O6 0.098879 0.105192 0.500000
O O7 0.123711 0.148698 0.407492
O O8 0.902212 0.067999 0.434604
O O9 0.184782 0.039174 0.427965
O O10 0.192221 0.348943 0.645847
O O11 0.127286 0.449952 0.598276
O O12 0.911744 0.361463 0.619160
O O13 0.737628 0.762693 0.357812
O O14 0.836711 0.287879 0.449369
O O15 0.789598 0.474269 0.000000
#
# Coordination Sequence:
#
# PCOD9526487 Si02
#       8
#     8   8  16  16  16   8  16  16
#     4  10  24  42  56  76 110 138 180 240 286 334
#     4  10  20  30  43  74 117 143 176 206 254 315
#     4   9  19  34  51  76 114 155 189 218 252 307
#     4  11  21  33  52  82 111 149 181 218 262 330
#     4  11  22  39  58  82 108 141 182 229 286 332
#     4  10  20  30  43  74 117 143 176 206 254 315
#     4  11  21  33  52  82 111 149 181 218 262 330
#     4   9  19  34  51  76 114 155 189 218 252 307
#
# _framework density 19.629135999999999
#
# number of rings (size 3 to 8) (size 9 to 14) (size 15 to 20)
#    0.000    1.846    4.615    0.923    2.154    1.846 
#    0.000    1.538    0.000    0.000    0.000    6.462 
#    0.000    0.000    0.000    0.000    0.000    0.000 
#
# Total GULP energy -290349.005915 kJ/mol
# GULP energy per Si atom -5583.634729 kJ/mol
# Density = 1.958446 g / cm^3
# Si number density = 19.629136 Si / 1000 Ang^3
#
#
#
# Elastic Constant Matrix: (Units=GPa)
#
#
# Indices 1 2 3 4 5 6 
#
# 1 54.0413 23.6830 21.3344 0.0000 0.0000 0.0000
# 2 23.6830 56.1356 18.8901 0.0000 0.0000 0.0000
# 3 21.3344 18.8901 76.8545 0.0000 0.0000 0.0000
# 4 0.0000 0.0000 0.0000 -82.0831 0.0000 0.0000
# 5 0.0000 0.0000 0.0000 0.0000 27.6470 0.0000
# 6 0.0000 0.0000 0.0000 0.0000 0.0000 34.6680
#
#
#
# Elastic Compliance Matrix: (Units=1/GPa)
#
#
# Indices 1 2 3 4 5 6 
#
# 1 0.024087 -0.008625 -0.004566 0.000000 0.000000 0.000000
# 2 -0.008625 0.022509 -0.003138 0.000000 0.000000 0.000000
# 3 -0.004566 -0.003138 0.015051 0.000000 0.000000 0.000000
# 4 0.000000 0.000000 0.000000 -0.012183 0.000000 0.000000
# 5 0.000000 0.000000 0.000000 0.000000 0.036170 0.000000
# 6 0.000000 0.000000 0.000000 0.000000 0.000000 0.028845
#
#
# Mechanical properties :
#
#
# Convention : Reuss Voigt Hill
#
# Bulk Modulus (GPa) = 34.49858 34.98292 34.74075
# Shear Modulus (GPa) = 31.88749 4.25464 18.07107
#
# Velocity S-wave (km/s) = 4.03488 1.47385 3.03747
# Velocity P-wave (km/s) = 6.27059 4.55598 5.48075
#
# Compressibility (1/GPa) = 0.02898670
#
# Stress axis : x y z
#
# Youngs Moduli (GPa) = 41.51600 44.42668 66.44286
#
# Poissons Ratio (x) = 0.38320 0.30340
# Poissons Ratio (y) = 0.35809 0.20851
# Poissons Ratio (z) = 0.18958 0.13942
#
# Static dielectric constant tensor:
#      x y z
#    x 1.752860 0.000000 0.000000 
#    y 0.000000 1.726850 0.000000 
#    z 0.000000 0.000000 1.657060 
# 
# From -- ./inp_files/50977.got.cif
#   From: 2010.05.17/outbox.cif.g08.bks.cpg/sg72_26_cif.got.tgz:50977.got - 2010.06.03 17:03:01.
