data_PCOD9526655
_publ_section_title
;
Structure prediction by ZEFSAII (Michael W. Deem and Ramdas Pophale) SiO2 
 PCOD9526655
Probable space group: I B A M
;
_chemical_formula_sum "Si O2"
_cell_formula_units_Z 92
_cell_length_a 16.229666
_cell_length_b 19.316753
_cell_length_c 14.915635
_cell_angle_alpha 90.000000
_cell_angle_beta 90.000000
_cell_angle_gamma 90.000000
_cell_volume 4676.117938
_symmetry_space_group_name_H-M "I B A M"
_symmetry_group_IT_number 72
_symmetry_cell_setting 'orthorhombic'
loop_
_space_group_symop_operation_xyz
x,y,z
-x,-y,z
x,-y,1/2-z
-x,y,1/2-z
-x,-y,-z
x,y,-z
-x,y,1/2+z
x,-y,1/2+z
1/2+x,1/2+y,1/2+z
1/2-x,1/2-y,1/2+z
1/2+x,1/2-y,-z
1/2-x,1/2+y,-z
1/2-x,1/2-y,1/2-z
1/2+x,1/2+y,1/2-z
1/2-x,1/2+y,z
1/2+x,1/2-y,z
loop_
_atom_site_type_symbol
_atom_site_label
_atom_site_fract_x
_atom_site_fract_y
_atom_site_fract_z
Si Si1 0.257416 0.838369 0.896007
Si Si2 0.210052 0.310205 0.603312
Si Si3 0.482044 0.239424 0.101858
Si Si4 0.000000 0.364182 0.750000
Si Si5 0.327839 0.078786 0.759594
Si Si6 0.500000 0.500000 0.750000
Si Si7 0.930871 0.107862 0.105771
O O1 0.259064 0.758026 0.866888
O O2 0.312531 0.885362 0.834781
O O3 0.164144 0.867661 0.888220
O O4 0.279583 0.840524 0.000000
O O5 0.230220 0.325801 0.500000
O O6 0.114143 0.285307 0.605116
O O7 0.219988 0.375929 0.666601
O O8 0.525748 0.189170 0.171485
O O9 0.482669 0.321214 0.122827
O O10 0.511061 0.230210 0.000000
O O11 0.924391 0.411419 0.780617
O O12 0.303142 0.000000 0.750000
O O13 0.450699 0.550274 0.680524
O O14 0.944988 0.087704 0.000000
#
# Coordination Sequence:
#
# PCOD9526655 Si02
#       7
#    16  16  16   8  16   4  16
#     4   9  19  37  58  76 103 145 191 229 267 323
#     4   8  16  34  56  75  98 135 179 225 270 318
#     4   8  15  31  53  71  96 136 178 222 269 313
#     4  10  20  34  50  78 108 142 186 230 265 323
#     4  11  22  33  53  80 114 147 181 223 281 331
#     4  12  20  28  56  80 112 146 168 208 280 344
#     4   9  19  34  52  79 109 139 179 224 272 327
#
# _framework density 19.674440000000001
#
# number of rings (size 3 to 8) (size 9 to 14) (size 15 to 20)
#    0.000    2.783    0.000    3.652    1.217    1.391 
#    0.000    0.000    0.000    7.304    0.000    0.000 
#    0.000    0.000    0.000    0.000    0.000    0.000 
#
# Total GULP energy -256448.511233 kJ/mol
# GULP energy per Si atom -5574.967635 kJ/mol
# Density = 1.962966 g / cm^3
# Si number density = 19.674440 Si / 1000 Ang^3
#
#
#
# Elastic Constant Matrix: (Units=GPa)
#
#
# Indices 1 2 3 4 5 6 
#
# 1 11.9641 16.5555 6.2931 0.0000 0.0000 0.0000
# 2 16.5555 158.3024 81.3222 0.0000 0.0000 0.0000
# 3 6.2931 81.3222 93.8782 0.0000 0.0000 0.0000
# 4 0.0000 0.0000 0.0000 216.1810 0.0000 0.0000
# 5 0.0000 0.0000 0.0000 0.0000 20.4800 0.0000
# 6 0.0000 0.0000 0.0000 0.0000 0.0000 28.1208
#
#
#
# Elastic Compliance Matrix: (Units=1/GPa)
#
#
# Indices 1 2 3 4 5 6 
#
# 1 0.098630 -0.012466 0.004187 0.000000 0.000000 0.000000
# 2 -0.012466 0.012958 -0.010389 0.000000 0.000000 0.000000
# 3 0.004187 -0.010389 0.019371 0.000000 0.000000 0.000000
# 4 0.000000 0.000000 0.000000 0.004626 0.000000 0.000000
# 5 0.000000 0.000000 0.000000 0.000000 0.048828 0.000000
# 6 0.000000 0.000000 0.000000 0.000000 0.000000 0.035561
#
#
# Mechanical properties :
#
#
# Convention : Reuss Voigt Hill
#
# Bulk Modulus (GPa) = 10.68112 52.49848 31.58980
# Shear Modulus (GPa) = 17.32998 63.62129 40.47564
#
# Velocity S-wave (km/s) = 2.97111 5.69273 4.54063
# Velocity P-wave (km/s) = 4.14858 8.36368 6.60159
#
# Compressibility (1/GPa) = 0.09362317
#
# Stress axis : x y z
#
# Youngs Moduli (GPa) = 10.13887 77.17440 51.62380
#
# Poissons Ratio (x) = 0.96203 -0.21614
# Poissons Ratio (y) = 0.12639 0.53632
# Poissons Ratio (z) = -0.04245 0.80176
#
# Static dielectric constant tensor:
#      x y z
#    x 1.716430 0.000000 0.000000 
#    y 0.000000 1.671080 0.000000 
#    z 0.000000 0.000000 1.694090 
# 
# From -- ./inp_files/24448.got.cif
#   From: 2010.05.17/outbox.cif.g08.bks.cpg/sg72_13_cif.got.tgz:24448.got - 2010.06.03 17:03:01.
