data_PCOD9526271
_publ_section_title
;
Structure prediction by ZEFSAII (Michael W. Deem and Ramdas Pophale) SiO2 
 PCOD9526271
Probable space group: I B A M
;
_chemical_formula_sum "Si O2"
_cell_formula_units_Z 100
_cell_length_a 19.030323
_cell_length_b 20.830169
_cell_length_c 13.978864
_cell_angle_alpha 90.000000
_cell_angle_beta 90.000000
_cell_angle_gamma 90.000000
_cell_volume 5541.289406
_symmetry_space_group_name_H-M "I B A M"
_symmetry_group_IT_number 72
_symmetry_cell_setting 'orthorhombic'
loop_
_space_group_symop_operation_xyz
x,y,z
-x,-y,z
x,-y,1/2-z
-x,y,1/2-z
-x,-y,-z
x,y,-z
-x,y,1/2+z
x,-y,1/2+z
1/2+x,1/2+y,1/2+z
1/2-x,1/2-y,1/2+z
1/2+x,1/2-y,-z
1/2-x,1/2+y,-z
1/2-x,1/2-y,1/2-z
1/2+x,1/2+y,1/2-z
1/2-x,1/2+y,z
1/2+x,1/2-y,z
loop_
_atom_site_type_symbol
_atom_site_label
_atom_site_fract_x
_atom_site_fract_y
_atom_site_fract_z
Si Si1 0.915441 0.426468 0.245848
Si Si2 0.190930 0.806047 0.384104
Si Si3 0.500000 0.500000 0.750000
Si Si4 0.944245 0.109138 0.616268
Si Si5 0.349222 0.175398 0.884795
Si Si6 0.605465 0.816278 0.385756
Si Si7 0.530373 0.267125 0.615284
O O1 0.891993 0.500000 0.250000
O O2 0.887769 0.387756 0.154144
O O3 0.888447 0.383532 0.333667
O O4 0.000000 0.425835 0.250000
O O5 0.192281 0.807724 0.500000
O O6 0.129076 0.855603 0.358110
O O7 0.269035 0.821502 0.350329
O O8 0.165923 0.734357 0.359665
O O9 0.543977 0.453836 0.820908
O O10 0.945343 0.098219 0.500000
O O11 0.005752 0.161215 0.639887
O O12 0.396084 0.236795 0.852911
O O13 0.349054 0.174829 0.000000
O O14 0.604430 0.823814 0.500000
O O15 0.532379 0.781383 0.356957
O O16 0.531184 0.266682 0.500000
#
# Coordination Sequence:
#
# PCOD9526271 Si02
#       7
#    16  16   4  16  16  16  16
#     4  11  23  34  48  77 112 147 182 214 254 312
#     4   8  17  35  60  82 105 135 175 227 281 316
#     4  12  22  32  56  82 104 156 194 200 256 330
#     4   9  19  36  54  81 113 138 176 228 266 314
#     4  10  19  35  59  84 105 136 179 225 273 321
#     4   9  17  34  56  77 102 138 175 219 271 315
#     4   8  15  30  55  80 101 128 172 226 271 305
#
# _framework density 18.046341000000002
#
# number of rings (size 3 to 8) (size 9 to 14) (size 15 to 20)
#    0.000    2.720    1.600    2.160    0.000    3.840 
#    1.440    1.600    0.000    0.000    0.000    0.000 
#    0.000    0.000    0.000    0.000    0.000    0.000 
#
# Total GULP energy -278796.221464 kJ/mol
# GULP energy per Si atom -5575.924429 kJ/mol
# Density = 1.800527 g / cm^3
# Si number density = 18.046341 Si / 1000 Ang^3
#
#
#
# Elastic Constant Matrix: (Units=GPa)
#
#
# Indices 1 2 3 4 5 6 
#
# 1 115.6014 64.7930 24.8035 0.0000 0.0000 0.0000
# 2 64.7930 152.0417 43.5070 0.0000 0.0000 0.0000
# 3 24.8035 43.5070 78.9874 0.0000 0.0000 0.0000
# 4 0.0000 0.0000 0.0000 33.3364 0.0000 0.0000
# 5 0.0000 0.0000 0.0000 0.0000 17.1099 0.0000
# 6 0.0000 0.0000 0.0000 0.0000 0.0000 19.7712
#
#
#
# Elastic Compliance Matrix: (Units=1/GPa)
#
#
# Indices 1 2 3 4 5 6 
#
# 1 0.011442 -0.004568 -0.001077 0.000000 0.000000 0.000000
# 2 -0.004568 0.009631 -0.003871 0.000000 0.000000 0.000000
# 3 -0.001077 -0.003871 0.015130 0.000000 0.000000 0.000000
# 4 0.000000 0.000000 0.000000 0.029997 0.000000 0.000000
# 5 0.000000 0.000000 0.000000 0.000000 0.058446 0.000000
# 6 0.000000 0.000000 0.000000 0.000000 0.000000 0.050579
#
#
# Mechanical properties :
#
#
# Convention : Reuss Voigt Hill
#
# Bulk Modulus (GPa) = 58.23192 68.09303 63.16247
# Shear Modulus (GPa) = 25.00256 28.27864 26.64060
#
# Velocity S-wave (km/s) = 3.72622 3.96283 3.84635
# Velocity P-wave (km/s) = 7.13099 7.66505 7.40284
#
# Compressibility (1/GPa) = 0.01717271
#
# Stress axis : x y z
#
# Youngs Moduli (GPa) = 87.40015 103.82832 66.09207
#
# Poissons Ratio (x) = 0.47426 0.07118
# Poissons Ratio (y) = 0.39922 0.25582
# Poissons Ratio (z) = 0.09412 0.40188
#
# Static dielectric constant tensor:
#      x y z
#    x 1.624850 0.000000 0.000000 
#    y 0.000000 1.593990 0.000000 
#    z 0.000000 0.000000 1.666140 
# 
# From -- ./inp_files/23358.got.cif
#   From: 2010.05.17/outbox.cif.g08.bks.cpg/sg72_12_cif.got.tgz:23358.got - 2010.06.03 17:03:01.
