data_PCOD9526078
_publ_section_title
;
Structure prediction by ZEFSAII (Michael W. Deem and Ramdas Pophale) SiO2 
 PCOD9526078
Probable space group: I B A M
;
_chemical_formula_sum "Si O2"
_cell_formula_units_Z 88
_cell_length_a 33.661604
_cell_length_b 4.987953
_cell_length_c 26.658900
_cell_angle_alpha 90.000000
_cell_angle_beta 90.000000
_cell_angle_gamma 90.000000
_cell_volume 4476.095921
_symmetry_space_group_name_H-M "I B A M"
_symmetry_group_IT_number 72
_symmetry_cell_setting 'orthorhombic'
loop_
_space_group_symop_operation_xyz
x,y,z
-x,-y,z
x,-y,1/2-z
-x,y,1/2-z
-x,-y,-z
x,y,-z
-x,y,1/2+z
x,-y,1/2+z
1/2+x,1/2+y,1/2+z
1/2-x,1/2-y,1/2+z
1/2+x,1/2-y,-z
1/2-x,1/2+y,-z
1/2-x,1/2-y,1/2-z
1/2+x,1/2+y,1/2-z
1/2-x,1/2+y,z
1/2+x,1/2-y,z
loop_
_atom_site_type_symbol
_atom_site_label
_atom_site_fract_x
_atom_site_fract_y
_atom_site_fract_z
Si Si1 0.456243 0.549766 0.337413
Si Si2 0.849287 0.590618 0.133269
Si Si3 0.065235 0.459225 0.899360
Si Si4 0.722609 0.152126 0.057659
Si Si5 0.369951 0.389606 0.804198
Si Si6 0.529096 0.753607 0.500000
O O1 0.500000 0.500000 0.315134
O O2 0.444379 0.256823 0.356723
O O3 0.418187 0.649715 0.305771
O O4 0.457651 0.767018 0.383600
O O5 0.887802 0.489478 0.102233
O O6 0.811246 0.593862 0.097946
O O7 0.848594 0.383625 0.179603
O O8 0.858304 0.885555 0.154854
O O9 0.054427 0.305581 0.950200
O O10 0.759114 0.946753 0.063773
O O11 0.708014 0.122821 0.000000
O O12 0.359010 0.500000 0.750000
O O13 0.500000 0.500000 0.500000
O O14 0.500000 0.000000 0.500000
#
# Coordination Sequence:
#
# PCOD9526078 Si02
#       6
#    16  16  16  16  16   8
#     4  10  19  34  52  74 106 143 188 243 288 327
#     4  10  21  38  60  83 115 150 183 235 285 341
#     4  10  21  33  50  75 104 149 188 227 280 336
#     4  10  21  38  63  93 119 148 181 226 283 340
#     4  10  21  37  58  84 111 151 197 235 289 338
#     4  12  22  32  48  72 106 148 192 234 272 322
#
# _framework density 19.659988999999999
#
# number of rings (size 3 to 8) (size 9 to 14) (size 15 to 20)
#    0.000    1.818    0.000    4.909    1.273    0.364 
#    0.000    0.000    0.000   17.455    0.000    0.000 
#    0.000    0.000    0.000    0.000    0.000    0.000 
#
# Total GULP energy -245389.536042 kJ/mol
# GULP energy per Si atom -5577.034910 kJ/mol
# Density = 1.961524 g / cm^3
# Si number density = 19.659989 Si / 1000 Ang^3
#
#
#
# Elastic Constant Matrix: (Units=GPa)
#
#
# Indices 1 2 3 4 5 6 
#
# 1 69.2516 -3.5096 30.9075 0.0000 0.0000 0.0000
# 2 -3.5096 88.2527 -5.6435 0.0000 0.0000 0.0000
# 3 30.9075 -5.6435 57.5064 0.0000 0.0000 0.0000
# 4 0.0000 0.0000 0.0000 23.8191 0.0000 0.0000
# 5 0.0000 0.0000 0.0000 0.0000 13.2142 0.0000
# 6 0.0000 0.0000 0.0000 0.0000 0.0000 19.5487
#
#
#
# Elastic Compliance Matrix: (Units=1/GPa)
#
#
# Indices 1 2 3 4 5 6 
#
# 1 0.018998 0.000103 -0.010201 0.000000 0.000000 0.000000
# 2 0.000103 0.011403 0.001064 0.000000 0.000000 0.000000
# 3 -0.010201 0.001064 0.022976 0.000000 0.000000 0.000000
# 4 0.000000 0.000000 0.000000 0.041983 0.000000 0.000000
# 5 0.000000 0.000000 0.000000 0.000000 0.075676 0.000000
# 6 0.000000 0.000000 0.000000 0.000000 0.000000 0.051154
#
#
# Mechanical properties :
#
#
# Convention : Reuss Voigt Hill
#
# Bulk Modulus (GPa) = 28.32071 28.72438 28.52254
# Shear Modulus (GPa) = 19.83905 24.20016 22.01961
#
# Velocity S-wave (km/s) = 3.18009 3.51227 3.35030
# Velocity P-wave (km/s) = 5.28399 5.57588 5.43189
#
# Compressibility (1/GPa) = 0.03530985
#
# Stress axis : x y z
#
# Youngs Moduli (GPa) = 52.63739 87.69452 43.52345
#
# Poissons Ratio (x) = -0.00905 0.44396
# Poissons Ratio (y) = -0.00543 -0.04629
# Poissons Ratio (z) = 0.53693 -0.09327
#
# Static dielectric constant tensor:
#      x y z
#    x 1.694690 0.000000 0.000000 
#    y 0.000000 1.687520 0.000000 
#    z 0.000000 0.000000 1.648770 
# 
# From -- ./inp_files/49953.got.cif
#   From: 2010.05.17/outbox.cif.g08.bks.cpg/sg72_25_cif.got.tgz:49953.got - 2010.06.03 17:03:01.
