data_PCOD9526333
_publ_section_title
;
Structure prediction by ZEFSAII (Michael W. Deem and Ramdas Pophale) SiO2 
 PCOD9526333
Probable space group: I B A M
;
_chemical_formula_sum "Si O2"
_cell_formula_units_Z 96
_cell_length_a 26.223390
_cell_length_b 11.236944
_cell_length_c 14.934614
_cell_angle_alpha 90.000000
_cell_angle_beta 90.000000
_cell_angle_gamma 90.000000
_cell_volume 4400.794131
_symmetry_space_group_name_H-M "I B A M"
_symmetry_group_IT_number 72
_symmetry_cell_setting 'orthorhombic'
loop_
_space_group_symop_operation_xyz
x,y,z
-x,-y,z
x,-y,1/2-z
-x,y,1/2-z
-x,-y,-z
x,y,-z
-x,y,1/2+z
x,-y,1/2+z
1/2+x,1/2+y,1/2+z
1/2-x,1/2-y,1/2+z
1/2+x,1/2-y,-z
1/2-x,1/2+y,-z
1/2-x,1/2-y,1/2-z
1/2+x,1/2+y,1/2-z
1/2-x,1/2+y,z
1/2+x,1/2-y,z
loop_
_atom_site_type_symbol
_atom_site_label
_atom_site_fract_x
_atom_site_fract_y
_atom_site_fract_z
Si Si1 0.080030 0.577149 0.609534
Si Si2 0.176193 0.700187 0.303117
Si Si3 0.968973 0.327160 0.891423
Si Si4 0.351069 0.434920 0.597552
Si Si5 0.711203 0.390856 0.680154
Si Si6 0.947886 0.934467 0.609725
O O1 0.088730 0.584871 0.500000
O O2 0.127552 0.623942 0.667201
O O3 0.064902 0.441322 0.632945
O O4 0.028388 0.650733 0.631468
O O5 0.173857 0.817550 0.364047
O O6 0.228738 0.631607 0.320830
O O7 0.183592 0.766976 0.207156
O O8 0.948910 0.201175 0.857398
O O9 0.968413 0.325261 0.000000
O O10 0.368890 0.398118 0.500000
O O11 0.312921 0.546611 0.594981
O O12 0.401103 0.487329 0.644440
O O13 0.701467 0.500000 0.750000
O O14 0.944603 0.928259 0.500000
O O15 0.000000 0.000000 0.631872
#
# Coordination Sequence:
#
# PCOD9526333 Si02
#       6
#    16  16  16  16  16  16
#     4   9  16  28  52  83 114 148 189 237 282 334
#     4  10  19  36  58  77 104 150 195 224 282 348
#     4   8  15  28  45  79 123 150 179 229 288 341
#     4  10  20  34  56  85 110 135 181 240 279 324
#     4   9  21  40  56  76 107 147 190 232 285 345
#     4   9  16  28  49  79 113 147 176 212 276 339
#
# _framework density 21.814243999999999
#
# number of rings (size 3 to 8) (size 9 to 14) (size 15 to 20)
#    0.000    2.833    0.000    2.500    0.000    4.000 
#    9.000    0.000    0.000   11.500    0.000    0.000 
#    0.000    0.000    0.000    0.000    0.000    0.000 
#
# Total GULP energy -267585.385115 kJ/mol
# GULP energy per Si atom -5574.695523 kJ/mol
# Density = 2.176459 g / cm^3
# Si number density = 21.814244 Si / 1000 Ang^3
#
#
#
# Elastic Constant Matrix: (Units=GPa)
#
#
# Indices 1 2 3 4 5 6 
#
# 1 71.1881 19.6537 22.5333 0.0000 0.0000 0.0000
# 2 19.6537 57.7191 9.4476 0.0000 0.0000 0.0000
# 3 22.5333 9.4476 41.0065 0.0000 0.0000 0.0000
# 4 0.0000 0.0000 0.0000 134.7958 0.0000 0.0000
# 5 0.0000 0.0000 0.0000 0.0000 22.2388 0.0000
# 6 0.0000 0.0000 0.0000 0.0000 0.0000 39.3163
#
#
#
# Elastic Compliance Matrix: (Units=1/GPa)
#
#
# Indices 1 2 3 4 5 6 
#
# 1 0.018169 -0.004731 -0.008894 0.000000 0.000000 0.000000
# 2 -0.004731 0.019236 -0.001832 0.000000 0.000000 0.000000
# 3 -0.008894 -0.001832 0.029696 0.000000 0.000000 0.000000
# 4 0.000000 0.000000 0.000000 0.007419 0.000000 0.000000
# 5 0.000000 0.000000 0.000000 0.000000 0.044967 0.000000
# 6 0.000000 0.000000 0.000000 0.000000 0.000000 0.025435
#
#
# Mechanical properties :
#
#
# Convention : Reuss Voigt Hill
#
# Bulk Modulus (GPa) = 27.63448 30.35366 28.99407
# Shear Modulus (GPa) = 26.61048 47.15545 36.88297
#
# Velocity S-wave (km/s) = 3.49645 4.65443 4.11636
# Velocity P-wave (km/s) = 5.38477 6.54445 5.99273
#
# Compressibility (1/GPa) = 0.03618668
#
# Stress axis : x y z
#
# Youngs Moduli (GPa) = 55.04024 51.98574 33.67495
#
# Poissons Ratio (x) = 0.24593 0.29950
# Poissons Ratio (y) = 0.26038 0.06170
# Poissons Ratio (z) = 0.48952 0.09525
#
# Static dielectric constant tensor:
#      x y z
#    x 1.779410 0.000000 0.000000 
#    y 0.000000 1.776020 0.000000 
#    z 0.000000 0.000000 1.936930 
# 
# From -- ./inp_files/40277.got.cif
#   From: 2010.05.17/outbox.cif.g08.bks.cpg/sg72_21_cif.got.tgz:40277.got - 2010.06.03 17:03:01.
