data_PCOD9526165
_publ_section_title
;
Structure prediction by ZEFSAII (Michael W. Deem and Ramdas Pophale) SiO2 
 PCOD9526165
Probable space group: I B A M
;
_chemical_formula_sum "Si O2"
_cell_formula_units_Z 80
_cell_length_a 18.557422
_cell_length_b 12.933518
_cell_length_c 16.342622
_cell_angle_alpha 90.000000
_cell_angle_beta 90.000000
_cell_angle_gamma 90.000000
_cell_volume 3922.437672
_symmetry_space_group_name_H-M "I B A M"
_symmetry_group_IT_number 72
_symmetry_cell_setting 'orthorhombic'
loop_
_space_group_symop_operation_xyz
x,y,z
-x,-y,z
x,-y,1/2-z
-x,y,1/2-z
-x,-y,-z
x,y,-z
-x,y,1/2+z
x,-y,1/2+z
1/2+x,1/2+y,1/2+z
1/2-x,1/2-y,1/2+z
1/2+x,1/2-y,-z
1/2-x,1/2+y,-z
1/2-x,1/2-y,1/2-z
1/2+x,1/2+y,1/2-z
1/2-x,1/2+y,z
1/2+x,1/2-y,z
loop_
_atom_site_type_symbol
_atom_site_label
_atom_site_fract_x
_atom_site_fract_y
_atom_site_fract_z
Si Si1 0.984320 0.378192 0.098081
Si Si2 0.715728 0.573038 0.095207
Si Si3 0.139076 0.325594 0.092939
Si Si4 0.305570 0.361677 0.670978
Si Si5 0.348544 0.236355 0.171688
O O1 0.917900 0.329951 0.147724
O O2 0.000000 0.500000 0.108215
O O3 0.059539 0.329325 0.128471
O O4 0.972261 0.359602 0.000000
O O5 0.796124 0.603870 0.126803
O O6 0.684936 0.480779 0.149855
O O7 0.669937 0.677906 0.102936
O O8 0.720235 0.541943 0.000000
O O9 0.168215 0.209652 0.096434
O O10 0.130122 0.361837 0.000000
O O11 0.346660 0.308216 0.747002
O O12 0.220633 0.338277 0.680661
#
# Coordination Sequence:
#
# PCOD9526165 Si02
#       5
#    16  16  16  16  16
#     4  10  20  36  58  83 113 148 189 241 296 347
#     4  10  19  34  58  83 110 150 196 242 292 347
#     4   9  19  34  54  82 111 143 191 242 287 345
#     4  10  20  35  54  79 115 153 189 235 292 350
#     4  10  21  35  54  83 116 150 193 242 293 351
#
# _framework density 20.395479999999999
#
# number of rings (size 3 to 8) (size 9 to 14) (size 15 to 20)
#    0.000    2.200    0.000    3.000    0.000    4.800 
#    0.000    5.000    0.000    6.000    0.000    0.000 
#    0.000    0.000    0.000    0.000    0.000    0.000 
#
# Total GULP energy -222943.270589 kJ/mol
# GULP energy per Si atom -5573.581765 kJ/mol
# Density = 2.034906 g / cm^3
# Si number density = 20.395480 Si / 1000 Ang^3
#
#
#
# Elastic Constant Matrix: (Units=GPa)
#
#
# Indices 1 2 3 4 5 6 
#
# 1 141.4002 56.5728 42.1891 0.0000 0.0000 0.0000
# 2 56.5728 104.3860 32.5244 0.0000 0.0000 0.0000
# 3 42.1891 32.5244 75.5241 0.0000 0.0000 0.0000
# 4 0.0000 0.0000 0.0000 21.1172 0.0000 0.0000
# 5 0.0000 0.0000 0.0000 0.0000 21.4867 0.0000
# 6 0.0000 0.0000 0.0000 0.0000 0.0000 23.4285
#
#
#
# Elastic Compliance Matrix: (Units=1/GPa)
#
#
# Indices 1 2 3 4 5 6 
#
# 1 0.009851 -0.004186 -0.003700 0.000000 0.000000 0.000000
# 2 -0.004186 0.012843 -0.003193 0.000000 0.000000 0.000000
# 3 -0.003700 -0.003193 0.016683 0.000000 0.000000 0.000000
# 4 0.000000 0.000000 0.000000 0.047355 0.000000 0.000000
# 5 0.000000 0.000000 0.000000 0.000000 0.046541 0.000000
# 6 0.000000 0.000000 0.000000 0.000000 0.000000 0.042683
#
#
# Mechanical properties :
#
#
# Convention : Reuss Voigt Hill
#
# Bulk Modulus (GPa) = 58.07419 64.87587 61.47503
# Shear Modulus (GPa) = 24.52757 25.87473 25.20115
#
# Velocity S-wave (km/s) = 3.47161 3.56568 3.51896
# Velocity P-wave (km/s) = 6.67872 6.98785 6.83503
#
# Compressibility (1/GPa) = 0.01721935
#
# Stress axis : x y z
#
# Youngs Moduli (GPa) = 101.51388 77.86270 59.94223
#
# Poissons Ratio (x) = 0.32592 0.22180
# Poissons Ratio (y) = 0.42492 0.19137
# Poissons Ratio (z) = 0.37563 0.24858
#
# Static dielectric constant tensor:
#      x y z
#    x 1.732430 0.000000 0.000000 
#    y 0.000000 1.745120 0.000000 
#    z 0.000000 0.000000 1.845230 
# 
# From -- ./inp_files/31362.got.cif
#   From: 2010.05.17/outbox.cif.g08.bks.cpg/sg72_16_cif.got.tgz:31362.got - 2010.06.03 17:03:01.
