data_PCOD9526296
_publ_section_title
;
Structure prediction by ZEFSAII (Michael W. Deem and Ramdas Pophale) SiO2 
 PCOD9526296
Probable space group: I B A M
;
_chemical_formula_sum "Si O2"
_cell_formula_units_Z 116
_cell_length_a 27.972963
_cell_length_b 21.404469
_cell_length_c 8.846786
_cell_angle_alpha 90.000000
_cell_angle_beta 90.000000
_cell_angle_gamma 90.000000
_cell_volume 5296.981440
_symmetry_space_group_name_H-M "I B A M"
_symmetry_group_IT_number 72
_symmetry_cell_setting 'orthorhombic'
loop_
_space_group_symop_operation_xyz
x,y,z
-x,-y,z
x,-y,1/2-z
-x,y,1/2-z
-x,-y,-z
x,y,-z
-x,y,1/2+z
x,-y,1/2+z
1/2+x,1/2+y,1/2+z
1/2-x,1/2-y,1/2+z
1/2+x,1/2-y,-z
1/2-x,1/2+y,-z
1/2-x,1/2-y,1/2-z
1/2+x,1/2+y,1/2-z
1/2-x,1/2+y,z
1/2+x,1/2-y,z
loop_
_atom_site_type_symbol
_atom_site_label
_atom_site_fract_x
_atom_site_fract_y
_atom_site_fract_z
Si Si1 0.220782 0.378596 0.319910
Si Si2 0.628680 0.063354 0.179032
Si Si3 0.500000 0.500000 0.750000
Si Si4 0.452204 0.140633 0.174890
Si Si5 0.682077 0.385269 0.321838
Si Si6 0.182330 0.250376 0.174359
Si Si7 0.082598 0.097608 0.827817
Si Si8 0.931150 0.759207 0.828944
O O1 0.219076 0.373041 0.500000
O O2 0.178663 0.421735 0.257942
O O3 0.271089 0.407891 0.266994
O O4 0.208647 0.310212 0.246191
O O5 0.591725 0.115778 0.228719
O O6 0.609214 0.000000 0.250000
O O7 0.634033 0.060424 0.000000
O O8 0.460938 0.451662 0.679149
O O9 0.500000 0.114605 0.250000
O O10 0.452303 0.214994 0.201532
O O11 0.447633 0.124901 0.000000
O O12 0.687792 0.393015 0.500000
O O13 0.684961 0.311888 0.275260
O O14 0.630386 0.412486 0.271855
O O15 0.125173 0.257569 0.165435
O O16 0.199180 0.240511 0.000000
O O17 0.064090 0.167514 0.792349
O O18 0.100454 0.100340 0.000000
O O19 0.949769 0.747445 0.000000
#
# Coordination Sequence:
#
# PCOD9526296 Si02
#       8
#    16  16   4  16  16  16  16  16
#     4  12  23  39  65  98 136 181 228 279 344 412
#     4  12  26  47  70  98 135 178 230 281 339 411
#     4  12  26  48  80 110 134 184 238 290 364 424
#     4  12  25  42  67 100 136 178 227 281 342 400
#     4  11  23  40  64  98 137 178 229 285 344 410
#     4  10  19  35  62  96 138 181 223 277 345 415
#     4  10  24  46  70  99 137 177 227 284 347 417
#     4   9  19  38  64  96 135 177 223 283 346 411
#
# _framework density 21.899265
#
# number of rings (size 3 to 8) (size 9 to 14) (size 15 to 20)
#    0.000    1.103    1.379    6.828    0.966    3.586 
#    1.241    1.379    0.000    0.000    0.000    0.000 
#    0.000    0.000    0.000    0.000    0.000    0.000 
#
# Total GULP energy -323946.859084 kJ/mol
# GULP energy per Si atom -5585.290674 kJ/mol
# Density = 2.184942 g / cm^3
# Si number density = 21.899265 Si / 1000 Ang^3
#
#
#
# Elastic Constant Matrix: (Units=GPa)
#
#
# Indices 1 2 3 4 5 6 
#
# 1 97.6274 24.1240 36.2039 0.0000 0.0000 0.0000
# 2 24.1240 70.5912 22.4170 0.0000 0.0000 0.0000
# 3 36.2039 22.4170 134.1726 0.0000 0.0000 0.0000
# 4 0.0000 0.0000 0.0000 7.0876 0.0000 0.0000
# 5 0.0000 0.0000 0.0000 0.0000 27.9204 0.0000
# 6 0.0000 0.0000 0.0000 0.0000 0.0000 10.0615
#
#
#
# Elastic Compliance Matrix: (Units=1/GPa)
#
#
# Indices 1 2 3 4 5 6 
#
# 1 0.012052 -0.003259 -0.002708 0.000000 0.000000 0.000000
# 2 -0.003259 0.015841 -0.001767 0.000000 0.000000 0.000000
# 3 -0.002708 -0.001767 0.008479 0.000000 0.000000 0.000000
# 4 0.000000 0.000000 0.000000 0.141091 0.000000 0.000000
# 5 0.000000 0.000000 0.000000 0.000000 0.035816 0.000000
# 6 0.000000 0.000000 0.000000 0.000000 0.000000 0.099389
#
#
# Mechanical properties :
#
#
# Convention : Reuss Voigt Hill
#
# Bulk Modulus (GPa) = 47.83629 51.98677 49.91153
# Shear Modulus (GPa) = 14.92070 23.65697 19.28884
#
# Velocity S-wave (km/s) = 2.61307 3.29030 2.97104
# Velocity P-wave (km/s) = 5.56735 6.18267 5.88306
#
# Compressibility (1/GPa) = 0.02090463
#
# Stress axis : x y z
#
# Youngs Moduli (GPa) = 82.97087 63.12725 117.93908
#
# Poissons Ratio (x) = 0.20573 0.31933
# Poissons Ratio (y) = 0.27040 0.20843
# Poissons Ratio (z) = 0.22465 0.11156
#
# Static dielectric constant tensor:
#      x y z
#    x 1.806470 0.000000 0.000000 
#    y 0.000000 1.769310 0.000000 
#    z 0.000000 0.000000 1.740130 
# 
# From -- ./inp_files/8432.got.cif
#   From: 2010.05.17/outbox.cif.g08.bks.cpg/sg72_5_cif.got.tgz:8432.got - 2010.06.03 17:03:01.
