data_PCOD9526066
_publ_section_title
;
Structure prediction by ZEFSAII (Michael W. Deem and Ramdas Pophale) SiO2 
 PCOD9526066
Probable space group: I B A M
;
_chemical_formula_sum "Si O2"
_cell_formula_units_Z 96
_cell_length_a 10.949737
_cell_length_b 24.341636
_cell_length_c 14.568630
_cell_angle_alpha 90.000000
_cell_angle_beta 90.000000
_cell_angle_gamma 90.000000
_cell_volume 3883.042693
_symmetry_space_group_name_H-M "I B A M"
_symmetry_group_IT_number 72
_symmetry_cell_setting 'orthorhombic'
loop_
_space_group_symop_operation_xyz
x,y,z
-x,-y,z
x,-y,1/2-z
-x,y,1/2-z
-x,-y,-z
x,y,-z
-x,y,1/2+z
x,-y,1/2+z
1/2+x,1/2+y,1/2+z
1/2-x,1/2-y,1/2+z
1/2+x,1/2-y,-z
1/2-x,1/2+y,-z
1/2-x,1/2-y,1/2-z
1/2+x,1/2+y,1/2-z
1/2-x,1/2+y,z
1/2+x,1/2-y,z
loop_
_atom_site_type_symbol
_atom_site_label
_atom_site_fract_x
_atom_site_fract_y
_atom_site_fract_z
Si Si1 0.754634 0.117671 0.642685
Si Si2 0.686200 0.240161 0.601846
Si Si3 0.738870 0.892956 0.364445
Si Si4 0.428675 0.798676 0.843272
Si Si5 0.493599 0.434575 0.862000
Si Si6 0.365515 0.006955 0.861236
O O1 0.713456 0.175613 0.606055
O O2 0.745120 0.117518 0.754093
O O3 0.887236 0.098894 0.611923
O O4 0.673896 0.066893 0.612581
O O5 0.707381 0.262794 0.500000
O O6 0.538437 0.240797 0.619108
O O7 0.797686 0.266565 0.661842
O O8 0.625787 0.853460 0.391995
O O9 0.881468 0.894683 0.390530
O O10 0.710707 0.955237 0.391533
O O11 0.500000 0.816604 0.750000
O O12 0.500000 0.500000 0.890324
O O13 0.500000 0.437688 0.750000
O O14 0.500000 0.000000 0.893199
O O15 0.360914 0.000000 0.750000
#
# Coordination Sequence:
#
# PCOD9526066 Si02
#       6
#    16  16  16  16  16  16
#     4  10  19  34  60  91 133 176 220 272 342 415
#     4  12  28  48  69  95 140 186 230 292 369 434
#     4  10  19  33  59  99 134 166 219 292 343 393
#     4  12  26  46  72 103 131 179 244 306 349 418
#     4   9  16  29  53  96 139 169 209 270 336 397
#     4   9  16  26  50  88 130 164 206 271 341 403
#
# _framework density 24.72288
#
# number of rings (size 3 to 8) (size 9 to 14) (size 15 to 20)
#    0.000    1.667    3.333    2.000    4.667    0.667 
#    0.000    0.000    0.000    6.000    0.000    0.000 
#    0.000    0.000    0.000    0.000    0.000    0.000 
#
# Total GULP energy -267297.967050 kJ/mol
# GULP energy per Si atom -5568.707647 kJ/mol
# Density = 2.466661 g / cm^3
# Si number density = 24.722880 Si / 1000 Ang^3
#
#
#
# Elastic Constant Matrix: (Units=GPa)
#
#
# Indices 1 2 3 4 5 6 
#
# 1 184.4148 33.1909 12.6680 0.0000 0.0000 0.0000
# 2 33.1909 100.4875 -4.3965 0.0001 0.0000 0.0000
# 3 12.6680 -4.3965 87.5728 0.0002 -0.0002 0.0000
# 4 0.0000 0.0001 0.0002 -2.3966 0.0000 0.0000
# 5 0.0000 0.0000 -0.0002 0.0000 2.2438 0.0000
# 6 0.0000 0.0000 0.0000 0.0000 0.0000 57.4807
#
#
#
# Elastic Compliance Matrix: (Units=1/GPa)
#
#
# Indices 1 2 3 4 5 6 
#
# 1 0.005842 -0.001971 -0.000944 0.000000 0.000000 0.000000
# 2 -0.001971 0.010638 0.000819 0.000001 0.000000 0.000000
# 3 -0.000944 0.000819 0.011597 0.000001 0.000001 0.000000
# 4 0.000000 0.000001 0.000001 -0.417265 -0.000006 0.000000
# 5 0.000000 0.000000 0.000001 -0.000006 0.445669 0.000000
# 6 0.000000 0.000000 0.000000 0.000000 0.000000 0.017397
#
#
# Mechanical properties :
#
#
# Convention : Reuss Voigt Hill
#
# Bulk Modulus (GPa) = 41.86618 50.59996 46.23307
# Shear Modulus (GPa) = 58.11768 33.53311 45.82540
#
# Velocity S-wave (km/s) = 4.85373 3.68687 4.30997
# Velocity P-wave (km/s) = 6.95575 6.21573 6.59613
#
# Compressibility (1/GPa) = 0.02388563
#
# Stress axis : x y z
#
# Youngs Moduli (GPa) = 171.17015 93.99967 86.23097
#
# Poissons Ratio (x) = 0.18527 0.08141
# Poissons Ratio (y) = 0.33737 -0.07064
# Poissons Ratio (z) = 0.16159 -0.07700
#
# Static dielectric constant tensor:
#      x y z
#    x 2.091160 0.000000 0.000000 
#    y 0.000000 1.722550 0.000000 
#    z 0.000000 0.000000 1.998560 
# 
# From -- ./inp_files/29495.got.cif
#   From: 2010.05.17/outbox.cif.g08.bks.cpg/sg72_15_cif.got.tgz:29495.got - 2010.06.03 17:03:01.
