data_PCOD9526043
_publ_section_title
;
Structure prediction by ZEFSAII (Michael W. Deem and Ramdas Pophale) SiO2 
 PCOD9526043
Probable space group: I B A M
;
_chemical_formula_sum "Si O2"
_cell_formula_units_Z 116
_cell_length_a 27.651819
_cell_length_b 23.193636
_cell_length_c 9.057035
_cell_angle_alpha 90.000000
_cell_angle_beta 90.000000
_cell_angle_gamma 90.000000
_cell_volume 5808.695204
_symmetry_space_group_name_H-M "I B A M"
_symmetry_group_IT_number 72
_symmetry_cell_setting 'orthorhombic'
loop_
_space_group_symop_operation_xyz
x,y,z
-x,-y,z
x,-y,1/2-z
-x,y,1/2-z
-x,-y,-z
x,y,-z
-x,y,1/2+z
x,-y,1/2+z
1/2+x,1/2+y,1/2+z
1/2-x,1/2-y,1/2+z
1/2+x,1/2-y,-z
1/2-x,1/2+y,-z
1/2-x,1/2-y,1/2-z
1/2+x,1/2+y,1/2-z
1/2-x,1/2+y,z
1/2+x,1/2-y,z
loop_
_atom_site_type_symbol
_atom_site_label
_atom_site_fract_x
_atom_site_fract_y
_atom_site_fract_z
Si Si1 0.500000 0.000000 0.250000
Si Si2 0.576135 0.909522 0.834606
Si Si3 0.194349 0.679322 0.734366
Si Si4 0.803332 0.199308 0.847112
Si Si5 0.606912 0.332487 0.824940
Si Si6 0.584746 0.202643 0.165035
Si Si7 0.053449 0.939592 0.821063
Si Si8 0.829103 0.558731 0.177011
O O1 0.533290 0.955296 0.161815
O O2 0.564044 0.845216 0.776249
O O3 0.614242 0.934330 0.715842
O O4 0.597282 0.905250 0.000000
O O5 0.191967 0.731588 0.847420
O O6 0.246408 0.688208 0.660953
O O7 0.142594 0.688586 0.654896
O O8 0.193961 0.611967 0.765622
O O9 0.836400 0.175665 0.716018
O O10 0.823182 0.174965 0.000000
O O11 0.582615 0.269875 0.789470
O O12 0.584420 0.384933 0.733644
O O13 0.601214 0.341808 0.000000
O O14 0.564261 0.195923 0.000000
O O15 0.000000 0.932191 0.750000
O O16 0.071936 0.000000 0.750000
O O17 0.051183 0.943156 0.000000
O O18 0.811911 0.500000 0.250000
O O19 0.821226 0.562286 0.000000
#
# Coordination Sequence:
#
# PCOD9526043 Si02
#       8
#     4  16  16  16  16  16  16  16
#     4  12  26  40  56  78 114 148 188 244 298 352
#     4  11  23  38  58  80 105 142 190 239 292 353
#     4   9  19  33  55  83 115 149 190 240 287 340
#     4  10  19  33  57  87 117 153 195 237 286 343
#     4  10  21  38  59  88 125 160 193 237 292 343
#     4   9  19  37  59  82 115 154 193 242 294 341
#     4  11  22  40  67  95 122 155 195 237 284 348
#     4  11  22  37  56  77 105 141 184 233 283 336
#
# _framework density 19.970061999999999
#
# number of rings (size 3 to 8) (size 9 to 14) (size 15 to 20)
#    0.000    1.793    0.690    5.172    0.000   11.586 
#    1.241    0.690    0.000    0.000    0.000    0.000 
#    0.000    0.000    0.000    0.000    0.000    0.000 
#
# Total GULP energy -322875.332496 kJ/mol
# GULP energy per Si atom -5566.816078 kJ/mol
# Density = 1.992461 g / cm^3
# Si number density = 19.970062 Si / 1000 Ang^3
#
#
#
# Elastic Constant Matrix: (Units=GPa)
#
#
# Indices 1 2 3 4 5 6 
#
# 1 45.3745 41.9608 31.0281 0.0000 0.0000 0.0000
# 2 41.9608 166.4087 51.1873 0.0000 0.0000 0.0000
# 3 31.0281 51.1873 100.9528 0.0000 0.0000 0.0000
# 4 0.0000 0.0000 0.0000 21.6291 0.0000 0.0000
# 5 0.0000 0.0000 0.0000 0.0000 -1.1308 0.0000
# 6 0.0000 0.0000 0.0000 0.0000 0.0000 34.1561
#
#
#
# Elastic Compliance Matrix: (Units=1/GPa)
#
#
# Indices 1 2 3 4 5 6 
#
# 1 0.032320 -0.006035 -0.006874 0.000000 0.000000 0.000000
# 2 -0.006035 0.008247 -0.002326 0.000000 0.000000 0.000000
# 3 -0.006874 -0.002326 0.013198 0.000000 0.000000 0.000000
# 4 0.000000 0.000000 0.000000 0.046234 0.000000 0.000000
# 5 0.000000 0.000000 0.000000 0.000000 -0.884311 0.000000
# 6 0.000000 0.000000 0.000000 0.000000 0.000000 0.029277
#
#
# Mechanical properties :
#
#
# Convention : Reuss Voigt Hill
#
# Bulk Modulus (GPa) = 42.92921 62.34318 52.63620
# Shear Modulus (GPa) = -6.97546 23.50152 8.26303
#
# Velocity S-wave (km/s) = -1.87097 3.43423 2.03634
# Velocity P-wave (km/s) = 4.10805 6.85648 5.65188
#
# Compressibility (1/GPa) = 0.02329416
#
# Stress axis : x y z
#
# Youngs Moduli (GPa) = 30.94012 121.25921 75.77001
#
# Poissons Ratio (x) = 0.73186 0.52081
# Poissons Ratio (y) = 0.18674 0.17628
# Poissons Ratio (z) = 0.21267 0.28210
#
# Static dielectric constant tensor:
#      x y z
#    x 1.723980 0.000000 0.000000 
#    y 0.000000 1.737060 0.000000 
#    z 0.000000 0.000000 1.706000 
# 
# From -- ./inp_files/8392.got.cif
#   From: 2010.05.17/outbox.cif.g08.bks.cpg/sg72_5_cif.got.tgz:8392.got - 2010.06.03 17:03:01.
