data_PCOD9526049
_publ_section_title
;
Structure prediction by ZEFSAII (Michael W. Deem and Ramdas Pophale) SiO2 
 PCOD9526049
Probable space group: I B A M
;
_chemical_formula_sum "Si O2"
_cell_formula_units_Z 80
_cell_length_a 27.068680
_cell_length_b 7.471471
_cell_length_c 17.061667
_cell_angle_alpha 90.000000
_cell_angle_beta 90.000000
_cell_angle_gamma 90.000000
_cell_volume 3450.600290
_symmetry_space_group_name_H-M "I B A M"
_symmetry_group_IT_number 72
_symmetry_cell_setting 'orthorhombic'
loop_
_space_group_symop_operation_xyz
x,y,z
-x,-y,z
x,-y,1/2-z
-x,y,1/2-z
-x,-y,-z
x,y,-z
-x,y,1/2+z
x,-y,1/2+z
1/2+x,1/2+y,1/2+z
1/2-x,1/2-y,1/2+z
1/2+x,1/2-y,-z
1/2-x,1/2+y,-z
1/2-x,1/2-y,1/2-z
1/2+x,1/2+y,1/2-z
1/2-x,1/2+y,z
1/2+x,1/2-y,z
loop_
_atom_site_type_symbol
_atom_site_label
_atom_site_fract_x
_atom_site_fract_y
_atom_site_fract_z
Si Si1 0.206747 0.976435 0.657019
Si Si2 0.814114 0.436586 0.658217
Si Si3 0.389142 0.363913 0.090887
Si Si4 0.076327 0.516706 0.843587
Si Si5 0.534011 0.339600 0.908642
O O1 0.189294 0.775001 0.648208
O O2 0.210995 0.000000 0.750000
O O3 0.262220 0.993729 0.623992
O O4 0.165577 0.115855 0.627137
O O5 0.815341 0.500000 0.750000
O O6 0.867502 0.486899 0.625711
O O7 0.412973 0.561362 0.096007
O O8 0.427012 0.223719 0.131243
O O9 0.385826 0.315731 0.000000
O O10 0.074878 0.500000 0.750000
O O11 0.041141 0.358408 0.874108
O O12 0.500000 0.500000 0.874633
O O13 0.519477 0.318150 0.000000
#
# Coordination Sequence:
#
# PCOD9526049 Si02
#       5
#    16  16  16  16  16
#     4  11  19  35  60  88 131 172 222 267 319 399
#     4  10  19  33  57  94 127 172 219 265 327 396
#     4  11  24  41  63  93 130 173 221 278 342 403
#     4  11  22  41  68  98 132 172 224 282 339 402
#     4  10  23  45  69  93 129 179 226 274 341 410
#
# _framework density 23.184373000000001
#
# number of rings (size 3 to 8) (size 9 to 14) (size 15 to 20)
#    0.000    1.400    2.000    6.600    0.000    0.800 
#    0.000   11.000    0.000    0.000    0.000    0.000 
#    0.000    0.000    0.000    0.000    0.000    0.000 
#
# Total GULP energy -223208.259977 kJ/mol
# GULP energy per Si atom -5580.206499 kJ/mol
# Density = 2.313160 g / cm^3
# Si number density = 23.184373 Si / 1000 Ang^3
#
#
#
# Elastic Constant Matrix: (Units=GPa)
#
#
# Indices 1 2 3 4 5 6 
#
# 1 110.7674 46.0355 15.8998 0.0000 0.0000 0.0000
# 2 46.0355 175.0158 35.4868 0.0000 0.0000 0.0000
# 3 15.8998 35.4868 55.8742 0.0000 0.0000 0.0000
# 4 0.0000 0.0000 0.0000 27.6098 0.0000 0.0000
# 5 0.0000 0.0000 0.0000 0.0000 16.7681 0.0000
# 6 0.0000 0.0000 0.0000 0.0000 0.0000 42.1635
#
#
#
# Elastic Compliance Matrix: (Units=1/GPa)
#
#
# Indices 1 2 3 4 5 6 
#
# 1 0.010228 -0.002411 -0.001379 0.000000 0.000000 0.000000
# 2 -0.002411 0.007126 -0.003840 0.000000 0.000000 0.000000
# 3 -0.001379 -0.003840 0.020729 0.000000 0.000000 0.000000
# 4 0.000000 0.000000 0.000000 0.036219 0.000000 0.000000
# 5 0.000000 0.000000 0.000000 0.000000 0.059637 0.000000
# 6 0.000000 0.000000 0.000000 0.000000 0.000000 0.023717
#
#
# Mechanical properties :
#
#
# Convention : Reuss Voigt Hill
#
# Bulk Modulus (GPa) = 43.81609 59.61130 51.71369
# Shear Modulus (GPa) = 27.69704 33.59061 30.64383
#
# Velocity S-wave (km/s) = 3.46011 3.81050 3.63953
# Velocity P-wave (km/s) = 5.90789 6.71771 6.32577
#
# Compressibility (1/GPa) = 0.02282267
#
# Stress axis : x y z
#
# Youngs Moduli (GPa) = 97.77287 140.32149 48.24187
#
# Poissons Ratio (x) = 0.33826 0.06655
# Poissons Ratio (y) = 0.23569 0.18526
# Poissons Ratio (z) = 0.13487 0.53886
#
# Static dielectric constant tensor:
#      x y z
#    x 1.974780 0.000000 0.000000 
#    y 0.000000 2.060550 0.000000 
#    z 0.000000 0.000000 1.818830 
# 
# From -- ./inp_files/33776.got.cif
#   From: 2010.05.17/outbox.cif.g08.bks.cpg/sg72_17_cif.got.tgz:33776.got - 2010.06.03 17:03:01.
