data_PCOD9526845
_publ_section_title
;
Structure prediction by ZEFSAII (Michael W. Deem and Ramdas Pophale) SiO2 
 PCOD9526845
Probable space group: I B A M
;
_chemical_formula_sum "Si O2"
_cell_formula_units_Z 112
_cell_length_a 14.498488
_cell_length_b 26.248876
_cell_length_c 15.575910
_cell_angle_alpha 90.000000
_cell_angle_beta 90.000000
_cell_angle_gamma 90.000000
_cell_volume 5927.708706
_symmetry_space_group_name_H-M "I B A M"
_symmetry_group_IT_number 72
_symmetry_cell_setting 'orthorhombic'
loop_
_space_group_symop_operation_xyz
x,y,z
-x,-y,z
x,-y,1/2-z
-x,y,1/2-z
-x,-y,-z
x,y,-z
-x,y,1/2+z
x,-y,1/2+z
1/2+x,1/2+y,1/2+z
1/2-x,1/2-y,1/2+z
1/2+x,1/2-y,-z
1/2-x,1/2+y,-z
1/2-x,1/2-y,1/2-z
1/2+x,1/2+y,1/2-z
1/2-x,1/2+y,z
1/2+x,1/2-y,z
loop_
_atom_site_type_symbol
_atom_site_label
_atom_site_fract_x
_atom_site_fract_y
_atom_site_fract_z
Si Si1 0.079238 0.182373 0.599073
Si Si2 0.325505 0.209452 0.900111
Si Si3 0.894508 0.905360 0.738004
Si Si4 0.906516 0.524516 0.597439
Si Si5 0.868407 0.162222 0.401749
Si Si6 0.716840 0.955457 0.683639
Si Si7 0.104013 0.620284 0.782933
O O1 0.095821 0.165777 0.500000
O O2 0.135543 0.234063 0.613083
O O3 0.104736 0.140527 0.669276
O O4 0.968356 0.188503 0.608199
O O5 0.215448 0.201643 0.892080
O O6 0.367437 0.172146 0.828860
O O7 0.348940 0.195477 0.000000
O O8 0.861459 0.881775 0.829431
O O9 0.824320 0.946251 0.699132
O O10 0.000000 0.923012 0.750000
O O11 0.926964 0.537962 0.500000
O O12 0.826059 0.481920 0.600680
O O13 0.884934 0.576618 0.645336
O O14 0.000000 0.500000 0.635973
O O15 0.863729 0.141860 0.500000
O O16 0.668223 0.901999 0.706855
O O17 0.687376 0.000000 0.750000
O O18 0.000000 0.622640 0.750000
#
# Coordination Sequence:
#
# PCOD9526845 Si02
#       7
#    16  16  16  16  16  16  16
#     4   9  20  37  56  79 113 150 186 232 283 339
#     4  10  20  36  57  81 108 144 189 233 276 332
#     4  10  20  37  59  82 108 149 190 230 291 342
#     4  10  20  35  55  78 112 154 186 225 285 350
#     4   9  18  35  56  79 107 142 185 228 276 336
#     4  10  21  36  55  81 109 142 182 232 280 334
#     4  11  20  34  54  81 112 142 182 230 278 331
#
# _framework density 18.894316
#
# number of rings (size 3 to 8) (size 9 to 14) (size 15 to 20)
#    0.000    2.143    2.857    0.429    0.000    3.143 
#    2.571    0.000    0.000    0.000    0.000    6.000 
#    0.000    0.000    0.000    0.000    0.000    0.000 
#
# Total GULP energy -311970.426507 kJ/mol
# GULP energy per Si atom -5570.900473 kJ/mol
# Density = 1.885131 g / cm^3
# Si number density = 18.894316 Si / 1000 Ang^3
#
#
#
# Elastic Constant Matrix: (Units=GPa)
#
#
# Indices 1 2 3 4 5 6 
#
# 1 87.7134 20.5288 23.3288 0.0000 0.0000 0.0000
# 2 20.5288 35.2375 20.3918 0.0000 0.0000 0.0000
# 3 23.3288 20.3918 62.4359 -0.0001 0.0000 0.0000
# 4 0.0000 0.0000 -0.0001 15.3969 0.0000 0.0000
# 5 0.0000 0.0000 0.0000 0.0000 17.5286 0.0000
# 6 0.0000 0.0000 0.0000 0.0000 0.0000 27.2863
#
#
#
# Elastic Compliance Matrix: (Units=1/GPa)
#
#
# Indices 1 2 3 4 5 6 
#
# 1 0.013668 -0.006174 -0.003090 0.000000 0.000000 0.000000
# 2 -0.006174 0.037782 -0.010033 0.000000 0.000000 0.000000
# 3 -0.003090 -0.010033 0.020448 0.000000 0.000000 0.000000
# 4 0.000000 0.000000 0.000000 0.064948 0.000000 0.000000
# 5 0.000000 0.000000 0.000000 0.000000 0.057050 0.000000
# 6 0.000000 0.000000 0.000000 0.000000 0.000000 0.036648
#
#
# Mechanical properties :
#
#
# Convention : Reuss Voigt Hill
#
# Bulk Modulus (GPa) = 30.02752 34.87618 32.45185
# Shear Modulus (GPa) = 17.84193 20.11820 18.98007
#
# Velocity S-wave (km/s) = 3.07628 3.26663 3.17288
# Velocity P-wave (km/s) = 5.34274 5.72070 5.53495
#
# Compressibility (1/GPa) = 0.03330278
#
# Stress axis : x y z
#
# Youngs Moduli (GPa) = 73.16507 26.46779 48.90499
#
# Poissons Ratio (x) = 0.16342 0.15113
# Poissons Ratio (y) = 0.45174 0.49065
# Poissons Ratio (z) = 0.22610 0.26554
#
# Static dielectric constant tensor:
#      x y z
#    x 1.694710 0.000000 0.000000 
#    y 0.000000 1.643040 0.000000 
#    z 0.000000 0.000000 1.717790 
# 
# From -- ./inp_files/22318.got.cif
#   From: 2010.05.17/outbox.cif.g08.bks.cpg/sg72_12_cif.got.tgz:22318.got - 2010.06.03 17:03:01.
