data_PCOD9526014
_publ_section_title
;
Structure prediction by ZEFSAII (Michael W. Deem and Ramdas Pophale) SiO2 
 PCOD9526014
Probable space group: I B A M
;
_chemical_formula_sum "Si O2"
_cell_formula_units_Z 112
_cell_length_a 17.058413
_cell_length_b 17.946664
_cell_length_c 20.663704
_cell_angle_alpha 90.000000
_cell_angle_beta 90.000000
_cell_angle_gamma 90.000000
_cell_volume 6326.019538
_symmetry_space_group_name_H-M "I B A M"
_symmetry_group_IT_number 72
_symmetry_cell_setting 'orthorhombic'
loop_
_space_group_symop_operation_xyz
x,y,z
-x,-y,z
x,-y,1/2-z
-x,y,1/2-z
-x,-y,-z
x,y,-z
-x,y,1/2+z
x,-y,1/2+z
1/2+x,1/2+y,1/2+z
1/2-x,1/2-y,1/2+z
1/2+x,1/2-y,-z
1/2-x,1/2+y,-z
1/2-x,1/2-y,1/2-z
1/2+x,1/2+y,1/2-z
1/2-x,1/2+y,z
1/2+x,1/2-y,z
loop_
_atom_site_type_symbol
_atom_site_label
_atom_site_fract_x
_atom_site_fract_y
_atom_site_fract_z
Si Si1 0.858173 0.134449 0.888664
Si Si2 0.451627 0.773848 0.185532
Si Si3 0.977547 0.897015 0.179014
Si Si4 0.276439 0.782878 0.819164
Si Si5 0.424376 0.790757 0.572002
Si Si6 0.365836 0.469621 0.572705
Si Si7 0.259290 0.158038 0.924775
O O1 0.786169 0.155760 0.842306
O O2 0.880450 0.210058 0.926688
O O3 0.938415 0.119610 0.851287
O O4 0.844011 0.056611 0.924320
O O5 0.500000 0.792361 0.250000
O O6 0.437419 0.684200 0.186807
O O7 0.365985 0.809796 0.184324
O O8 0.507104 0.791052 0.124550
O O9 0.926192 0.946402 0.129775
O O10 0.000000 0.924850 0.250000
O O11 0.250000 0.750000 0.750000
O O12 0.271969 0.718472 0.873921
O O13 0.455359 0.803440 0.500000
O O14 0.352828 0.847165 0.586367
O O15 0.398421 0.453650 0.500000
O O16 0.289894 0.417505 0.581899
O O17 0.249179 0.182490 0.000000
#
# Coordination Sequence:
#
# PCOD9526014 Si02
#       7
#    16  16  16  16  16  16  16
#     4  10  22  33  52  80 109 145 183 227 277 326
#     4  10  19  33  55  81 108 142 186 230 280 333
#     4  10  20  36  51  79 115 149 186 222 271 343
#     4  11  20  37  57  80 111 146 187 234 281 332
#     4   9  18  34  54  76 105 140 183 230 276 326
#     4  11  22  36  55  80 115 155 190 229 285 344
#     4   9  19  35  54  77 107 146 186 227 277 342
#
# _framework density 17.704656
#
# number of rings (size 3 to 8) (size 9 to 14) (size 15 to 20)
#    0.000    2.000    1.429    4.286    0.000    5.714 
#    0.000    0.000    0.000    0.857    0.000    4.000 
#    0.000    0.000    0.000    0.000    0.000    0.000 
#
# Total GULP energy -312046.650199 kJ/mol
# GULP energy per Si atom -5572.261611 kJ/mol
# Density = 1.766436 g / cm^3
# Si number density = 17.704656 Si / 1000 Ang^3
#
#
#
# Elastic Constant Matrix: (Units=GPa)
#
#
# Indices 1 2 3 4 5 6 
#
# 1 127.7229 32.1972 64.5970 0.0000 0.0000 0.0000
# 2 32.1972 49.9382 17.7317 0.0000 0.0000 0.0000
# 3 64.5970 17.7317 121.0579 0.0000 0.0000 0.0000
# 4 0.0000 0.0000 0.0000 17.1263 0.0000 0.0000
# 5 0.0000 0.0000 0.0000 0.0000 27.9226 0.0000
# 6 0.0000 0.0000 0.0000 0.0000 0.0000 24.4185
#
#
#
# Elastic Compliance Matrix: (Units=1/GPa)
#
#
# Indices 1 2 3 4 5 6 
#
# 1 0.012146 -0.005833 -0.005627 0.000000 0.000000 0.000000
# 2 -0.005833 0.023925 -0.000392 0.000000 0.000000 0.000000
# 3 -0.005627 -0.000392 0.011320 0.000000 0.000000 0.000000
# 4 0.000000 0.000000 0.000000 0.058390 0.000000 0.000000
# 5 0.000000 0.000000 0.000000 0.000000 0.035813 0.000000
# 6 0.000000 0.000000 0.000000 0.000000 0.000000 0.040952
#
#
# Mechanical properties :
#
#
# Convention : Reuss Voigt Hill
#
# Bulk Modulus (GPa) = 42.21584 58.64119 50.42852
# Shear Modulus (GPa) = 23.34875 26.17303 24.76089
#
# Velocity S-wave (km/s) = 3.63546 3.84906 3.74378
# Velocity P-wave (km/s) = 6.44347 7.27650 6.87262
#
# Compressibility (1/GPa) = 0.02368779
#
# Stress axis : x y z
#
# Youngs Moduli (GPa) = 82.33500 41.79807 88.33725
#
# Poissons Ratio (x) = 0.24380 0.49703
# Poissons Ratio (y) = 0.48025 0.03462
# Poissons Ratio (z) = 0.46326 0.01638
#
# Static dielectric constant tensor:
#      x y z
#    x 1.603530 0.000000 0.000000 
#    y 0.000000 1.635650 0.000000 
#    z 0.000000 0.000000 1.570940 
# 
# From -- ./inp_files/31895.got.cif
#   From: 2010.05.17/outbox.cif.g08.bks.cpg/sg72_16_cif.got.tgz:31895.got - 2010.06.03 17:03:01.
