data_PCOD9526017
_publ_section_title
;
Structure prediction by ZEFSAII (Michael W. Deem and Ramdas Pophale) SiO2 
 PCOD9526017
Probable space group: I B A M
;
_chemical_formula_sum "Si O2"
_cell_formula_units_Z 80
_cell_length_a 19.764180
_cell_length_b 7.959168
_cell_length_c 26.190029
_cell_angle_alpha 90.000000
_cell_angle_beta 90.000000
_cell_angle_gamma 90.000000
_cell_volume 4119.859937
_symmetry_space_group_name_H-M "I B A M"
_symmetry_group_IT_number 72
_symmetry_cell_setting 'orthorhombic'
loop_
_space_group_symop_operation_xyz
x,y,z
-x,-y,z
x,-y,1/2-z
-x,y,1/2-z
-x,-y,-z
x,y,-z
-x,y,1/2+z
x,-y,1/2+z
1/2+x,1/2+y,1/2+z
1/2-x,1/2-y,1/2+z
1/2+x,1/2-y,-z
1/2-x,1/2+y,-z
1/2-x,1/2-y,1/2-z
1/2+x,1/2+y,1/2-z
1/2-x,1/2+y,z
1/2+x,1/2-y,z
loop_
_atom_site_type_symbol
_atom_site_label
_atom_site_fract_x
_atom_site_fract_y
_atom_site_fract_z
Si Si1 0.710650 0.982935 0.000000
Si Si2 0.319108 0.206456 0.895403
Si Si3 0.216664 0.590518 0.669683
Si Si4 0.850895 0.898275 0.204122
Si Si5 0.080070 0.017385 0.898636
Si Si6 0.853582 0.148279 0.500000
O O1 0.678682 0.166973 0.000000
O O2 0.689989 0.881400 0.949598
O O3 0.792016 0.985306 0.000000
O O4 0.249371 0.298371 0.876795
O O5 0.379132 0.340639 0.897433
O O6 0.327786 0.057985 0.854034
O O7 0.177490 0.709589 0.709084
O O8 0.283767 0.509250 0.693341
O O9 0.885387 0.000000 0.250000
O O10 0.895935 0.894756 0.153446
O O11 0.000000 0.000000 0.899791
O O12 0.104384 0.116157 0.948791
#
# Coordination Sequence:
#
# PCOD9526017 Si02
#       6
#     8  16  16  16  16   8
#     4  12  20  33  60  90 108 133 177 234 295 340
#     4  10  19  33  55  82 115 147 179 230 283 336
#     4   9  18  33  54  86 115 137 176 232 295 336
#     4  10  19  34  58  85 112 144 181 232 284 334
#     4  11  24  40  54  75 112 156 193 224 266 332
#     4  12  23  37  59  84 111 141 178 232 287 340
#
# _framework density 19.418136000000001
#
# number of rings (size 3 to 8) (size 9 to 14) (size 15 to 20)
#    0.000    1.600    0.000    8.700    0.000    0.400 
#    0.000    5.000    0.000    0.000    0.000   14.000 
#    0.000    0.000    0.000    0.000    0.000    0.000 
#
# Total GULP energy -223437.647740 kJ/mol
# GULP energy per Si atom -5585.941193 kJ/mol
# Density = 1.937394 g / cm^3
# Si number density = 19.418136 Si / 1000 Ang^3
#
#
#
# Elastic Constant Matrix: (Units=GPa)
#
#
# Indices 1 2 3 4 5 6 
#
# 1 80.6837 6.9645 4.3069 0.0000 0.0000 0.0000
# 2 6.9645 79.7694 -0.8333 0.0000 0.0000 0.0000
# 3 4.3069 -0.8333 69.7609 0.0000 0.0000 0.0000
# 4 0.0000 0.0000 0.0000 17.8746 0.0000 0.0000
# 5 0.0000 0.0000 0.0000 0.0000 4.1849 0.0000
# 6 0.0000 0.0000 0.0000 0.0000 0.0000 11.2856
#
#
#
# Elastic Compliance Matrix: (Units=1/GPa)
#
#
# Indices 1 2 3 4 5 6 
#
# 1 0.012531 -0.001102 -0.000787 0.000000 0.000000 0.000000
# 2 -0.001102 0.012635 0.000219 0.000000 0.000000 0.000000
# 3 -0.000787 0.000219 0.014386 0.000000 0.000000 0.000000
# 4 0.000000 0.000000 0.000000 0.055945 0.000000 0.000000
# 5 0.000000 0.000000 0.000000 0.000000 0.238954 0.000000
# 6 0.000000 0.000000 0.000000 0.000000 0.000000 0.088609
#
#
# Mechanical properties :
#
#
# Convention : Reuss Voigt Hill
#
# Bulk Modulus (GPa) = 27.61556 27.89892 27.75724
# Shear Modulus (GPa) = 11.40329 21.32075 16.36202
#
# Velocity S-wave (km/s) = 2.42595 3.31718 2.90593
# Velocity P-wave (km/s) = 4.70100 5.39168 5.05814
#
# Compressibility (1/GPa) = 0.03621147
#
# Stress axis : x y z
#
# Youngs Moduli (GPa) = 79.80070 79.14734 69.51270
#
# Poissons Ratio (x) = 0.08724 0.05469
# Poissons Ratio (y) = 0.08796 -0.01522
# Poissons Ratio (z) = 0.06279 -0.01733
#
# Static dielectric constant tensor:
#      x y z
#    x 1.625550 0.000000 0.000000 
#    y 0.000000 1.723030 0.000000 
#    z 0.000000 0.000000 1.765270 
# 
# From -- ./inp_files/45197.got.cif
#   From: 2010.05.17/outbox.cif.g08.bks.cpg/sg72_23_cif.got.tgz:45197.got - 2010.06.03 17:03:01.
