data_PCOD9526998
_publ_section_title
;
Structure prediction by ZEFSAII (Michael W. Deem and Ramdas Pophale) SiO2 
 PCOD9526998
Probable space group: I B A M
;
_chemical_formula_sum "Si O2"
_cell_formula_units_Z 96
_cell_length_a 26.812038
_cell_length_b 23.833688
_cell_length_c 7.756033
_cell_angle_alpha 90.000000
_cell_angle_beta 90.000000
_cell_angle_gamma 90.000000
_cell_volume 4956.335816
_symmetry_space_group_name_H-M "I B A M"
_symmetry_group_IT_number 72
_symmetry_cell_setting 'orthorhombic'
loop_
_space_group_symop_operation_xyz
x,y,z
-x,-y,z
x,-y,1/2-z
-x,y,1/2-z
-x,-y,-z
x,y,-z
-x,y,1/2+z
x,-y,1/2+z
1/2+x,1/2+y,1/2+z
1/2-x,1/2-y,1/2+z
1/2+x,1/2-y,-z
1/2-x,1/2+y,-z
1/2-x,1/2-y,1/2-z
1/2+x,1/2+y,1/2-z
1/2-x,1/2+y,z
1/2+x,1/2-y,z
loop_
_atom_site_type_symbol
_atom_site_label
_atom_site_fract_x
_atom_site_fract_y
_atom_site_fract_z
Si Si1 0.692153 0.751951 0.207029
Si Si2 0.942852 0.316483 0.292130
Si Si3 0.651779 0.632595 0.695281
Si Si4 0.847456 0.372030 0.300778
Si Si5 0.057189 0.187633 0.791851
Si Si6 0.750671 0.564880 0.202888
O O1 0.750000 0.750000 0.250000
O O2 0.669513 0.696854 0.291921
O O3 0.671789 0.808278 0.290887
O O4 0.684412 0.751758 0.000000
O O5 0.937816 0.314799 0.500000
O O6 0.902985 0.362346 0.225207
O O7 0.933342 0.252083 0.228697
O O8 0.000000 0.329804 0.250000
O O9 0.644794 0.613334 0.500000
O O10 0.596618 0.641300 0.775916
O O11 0.698637 0.596590 0.760073
O O12 0.853750 0.390214 0.500000
O O13 0.801815 0.407939 0.220622
O O14 0.000000 0.174556 0.750000
O O15 0.062358 0.189121 0.000000
O O16 0.746793 0.500000 0.250000
O O17 0.756927 0.570300 0.000000
#
# Coordination Sequence:
#
# PCOD9526998 Si02
#       6
#    16  16  16  16  16  16
#     4  12  22  31  49  79 112 145 179 217 270 330
#     4   9  17  31  49  76 112 146 179 217 261 318
#     4  11  21  36  56  80 112 146 182 225 271 323
#     4  10  20  36  55  77 109 145 182 223 272 324
#     4   9  18  31  50  77 113 149 178 215 261 316
#     4  11  24  40  59  80 105 142 184 231 282 330
#
# _framework density 19.369147999999999
#
# number of rings (size 3 to 8) (size 9 to 14) (size 15 to 20)
#    0.000    1.667    3.333    2.500    0.000    2.667 
#    0.000    0.000    0.000    1.000    0.000    7.000 
#    0.000    0.000    0.000    0.000    0.000    0.000 
#
# Total GULP energy -267362.568819 kJ/mol
# GULP energy per Si atom -5570.053517 kJ/mol
# Density = 1.932506 g / cm^3
# Si number density = 19.369148 Si / 1000 Ang^3
#
#
#
# Elastic Constant Matrix: (Units=GPa)
#
#
# Indices 1 2 3 4 5 6 
#
# 1 185.4155 58.9335 5.5271 0.0000 0.0000 0.0000
# 2 58.9335 83.0129 -6.9553 0.0000 0.0000 0.0000
# 3 5.5271 -6.9553 47.1676 0.0000 0.0000 0.0000
# 4 0.0000 0.0000 0.0000 7.5707 0.0000 0.0000
# 5 0.0000 0.0000 0.0000 0.0000 25.1228 0.0000
# 6 0.0000 0.0000 0.0000 0.0000 0.0000 14.5974
#
#
#
# Elastic Compliance Matrix: (Units=1/GPa)
#
#
# Indices 1 2 3 4 5 6 
#
# 1 0.007081 -0.005160 -0.001591 0.000000 0.000000 0.000000
# 2 -0.005160 0.015958 0.002958 0.000000 0.000000 0.000000
# 3 -0.001591 0.002958 0.021824 0.000000 0.000000 0.000000
# 4 0.000000 0.000000 0.000000 0.132089 0.000000 0.000000
# 5 0.000000 0.000000 0.000000 0.000000 0.039804 0.000000
# 6 0.000000 0.000000 0.000000 0.000000 0.000000 0.068505
#
#
# Mechanical properties :
#
#
# Convention : Reuss Voigt Hill
#
# Bulk Modulus (GPa) = 26.82714 47.84521 37.33618
# Shear Modulus (GPa) = 16.37885 26.66423 21.52154
#
# Velocity S-wave (km/s) = 2.91110 3.71433 3.33697
# Velocity P-wave (km/s) = 5.01795 6.56889 5.84509
#
# Compressibility (1/GPa) = 0.03727568
#
# Stress axis : x y z
#
# Youngs Moduli (GPa) = 141.22592 62.66638 45.82214
#
# Poissons Ratio (x) = 0.32337 0.07289
# Poissons Ratio (y) = 0.72875 -0.13553
# Poissons Ratio (z) = 0.22464 -0.18535
#
# Static dielectric constant tensor:
#      x y z
#    x 1.821710 0.000000 0.000000 
#    y 0.000000 1.705860 0.000000 
#    z 0.000000 0.000000 1.723770 
# 
# From -- ./inp_files/6026.got.cif
#   From: 2010.05.17/outbox.cif.g08.bks.cpg/sg72_4_cif.got.tgz:6026.got - 2010.06.03 17:03:01.
