data_PCOD9526670
_publ_section_title
;
Structure prediction by ZEFSAII (Michael W. Deem and Ramdas Pophale) SiO2 
 PCOD9526670
Probable space group: I B A M
;
_chemical_formula_sum "Si O2"
_cell_formula_units_Z 96
_cell_length_a 12.073835
_cell_length_b 15.964070
_cell_length_c 19.624672
_cell_angle_alpha 90.000000
_cell_angle_beta 90.000000
_cell_angle_gamma 90.000000
_cell_volume 3782.607391
_symmetry_space_group_name_H-M "I B A M"
_symmetry_group_IT_number 72
_symmetry_cell_setting 'orthorhombic'
loop_
_space_group_symop_operation_xyz
x,y,z
-x,-y,z
x,-y,1/2-z
-x,y,1/2-z
-x,-y,-z
x,y,-z
-x,y,1/2+z
x,-y,1/2+z
1/2+x,1/2+y,1/2+z
1/2-x,1/2-y,1/2+z
1/2+x,1/2-y,-z
1/2-x,1/2+y,-z
1/2-x,1/2-y,1/2-z
1/2+x,1/2+y,1/2-z
1/2-x,1/2+y,z
1/2+x,1/2-y,z
loop_
_atom_site_type_symbol
_atom_site_label
_atom_site_fract_x
_atom_site_fract_y
_atom_site_fract_z
Si Si1 0.076051 0.807404 0.000000
Si Si2 0.253403 0.652663 0.274030
Si Si3 0.470791 0.377322 0.143930
Si Si4 0.684380 0.711427 0.500000
Si Si5 0.586808 0.066006 0.579859
Si Si6 0.701258 0.585781 0.370831
Si Si7 0.967456 0.688309 0.172731
O O1 0.070706 0.863459 0.932466
O O2 0.949091 0.761974 0.000000
O O3 0.198589 0.763425 0.000000
O O4 0.250000 0.750000 0.250000
O O5 0.366360 0.619534 0.306778
O O6 0.244042 0.605481 0.202221
O O7 0.156072 0.651589 0.330129
O O8 0.576163 0.438630 0.143621
O O9 0.528140 0.288171 0.165868
O O10 0.694502 0.657819 0.429841
O O11 0.572557 0.079233 0.500000
O O12 0.707692 0.028826 0.593795
O O13 0.554365 0.150675 0.619360
O O14 0.500000 0.000000 0.606620
O O15 0.000000 0.666911 0.250000
#
# Coordination Sequence:
#
# PCOD9526670 Si02
#       7
#     8  16  16   8  16  16  16
#     4  10  22  32  48  80 123 180 210 254 303 381
#     4  12  20  35  54  88 135 170 202 246 328 403
#     4  11  23  35  56  91 134 173 207 253 332 397
#     4  10  20  34  51  80 123 162 216 257 314 380
#     4  11  25  45  66  87 120 169 225 278 330 381
#     4  11  20  37  59  85 121 166 208 263 320 393
#     4  12  22  36  59  92 128 166 208 264 322 391
#
# _framework density 25.379318000000001
#
# number of rings (size 3 to 8) (size 9 to 14) (size 15 to 20)
#    0.000    0.833    5.833    2.500    3.500    0.333 
#    1.500    0.000    0.000    1.000    0.000    4.667 
#    0.000    0.000    0.000    0.000    0.000    0.000 
#
# Total GULP energy -268010.392022 kJ/mol
# GULP energy per Si atom -5583.549834 kJ/mol
# Density = 2.532155 g / cm^3
# Si number density = 25.379318 Si / 1000 Ang^3
#
#
#
# Elastic Constant Matrix: (Units=GPa)
#
#
# Indices 1 2 3 4 5 6 
#
# 1 180.6543 15.5211 18.9321 0.0000 0.0000 0.0000
# 2 15.5211 11.3191 -4.4035 0.0000 0.0000 0.0000
# 3 18.9321 -4.4035 107.0225 0.0000 0.0000 0.0000
# 4 0.0000 0.0000 0.0000 -0.7258 0.0000 0.0000
# 5 0.0000 0.0000 0.0000 0.0000 56.7412 0.0000
# 6 0.0000 0.0000 0.0000 0.0000 0.0000 37.5598
#
#
#
# Elastic Compliance Matrix: (Units=1/GPa)
#
#
# Indices 1 2 3 4 5 6 
#
# 1 0.006517 -0.009537 -0.001545 0.000000 0.000000 0.000000
# 2 -0.009537 0.103740 0.005956 0.000001 0.000000 0.000000
# 3 -0.001545 0.005956 0.009862 0.000000 0.000000 0.000000
# 4 0.000000 0.000001 0.000000 -1.377793 0.000000 0.000000
# 5 0.000000 0.000000 0.000000 0.000000 0.017624 0.000000
# 6 0.000000 0.000000 0.000000 0.000000 0.000000 0.026624
#
#
# Mechanical properties :
#
#
# Convention : Reuss Voigt Hill
#
# Bulk Modulus (GPa) = 9.10202 39.89949 24.50076
# Shear Modulus (GPa) = -4.28614 36.64479 16.17932
#
# Velocity S-wave (km/s) = -1.30096 3.80397 2.52762
# Velocity P-wave (km/s) = 1.15651 5.92022 4.26535
#
# Compressibility (1/GPa) = 0.10986570
#
# Stress axis : x y z
#
# Youngs Moduli (GPa) = 153.45069 9.63946 101.39709
#
# Poissons Ratio (x) = 0.09193 0.15668
# Poissons Ratio (y) = 1.46347 -0.60387
# Poissons Ratio (z) = 0.23711 -0.05741
#
# Static dielectric constant tensor:
#      x y z
#    x 2.269610 0.000000 0.000000 
#    y 0.000000 2.151350 0.000000 
#    z 0.000000 0.000000 1.944530 
# 
# From -- ./inp_files/37167.got.cif
#   From: 2010.05.17/outbox.cif.g08.bks.cpg/sg72_19_cif.got.tgz:37167.got - 2010.06.03 17:03:01.
