data_PCOD9526388
_publ_section_title
;
Structure prediction by ZEFSAII (Michael W. Deem and Ramdas Pophale) SiO2 
 PCOD9526388
Probable space group: I B A M
;
_chemical_formula_sum "Si O2"
_cell_formula_units_Z 116
_cell_length_a 26.304608
_cell_length_b 12.319263
_cell_length_c 17.290069
_cell_angle_alpha 90.000000
_cell_angle_beta 90.000000
_cell_angle_gamma 90.000000
_cell_volume 5602.905370
_symmetry_space_group_name_H-M "I B A M"
_symmetry_group_IT_number 72
_symmetry_cell_setting 'orthorhombic'
loop_
_space_group_symop_operation_xyz
x,y,z
-x,-y,z
x,-y,1/2-z
-x,y,1/2-z
-x,-y,-z
x,y,-z
-x,y,1/2+z
x,-y,1/2+z
1/2+x,1/2+y,1/2+z
1/2-x,1/2-y,1/2+z
1/2+x,1/2-y,-z
1/2-x,1/2+y,-z
1/2-x,1/2-y,1/2-z
1/2+x,1/2+y,1/2-z
1/2-x,1/2+y,z
1/2+x,1/2-y,z
loop_
_atom_site_type_symbol
_atom_site_label
_atom_site_fract_x
_atom_site_fract_y
_atom_site_fract_z
Si Si1 0.620087 0.503086 0.158509
Si Si2 0.319325 0.943990 0.672611
Si Si3 0.000000 0.500000 0.750000
Si Si4 0.528592 0.390174 0.909339
Si Si5 0.438761 0.807760 0.177216
Si Si6 0.708554 0.647779 0.690467
Si Si7 0.870300 0.230641 0.816944
Si Si8 0.332421 0.161288 0.590259
O O1 0.603568 0.500000 0.250000
O O2 0.586759 0.423707 0.107061
O O3 0.676245 0.453714 0.158595
O O4 0.615229 0.627227 0.132143
O O5 0.265629 0.892493 0.698219
O O6 0.353922 0.843763 0.645971
O O7 0.341987 0.000000 0.750000
O O8 0.314241 0.040480 0.612134
O O9 0.033930 0.580584 0.698263
O O10 0.500000 0.500000 0.882608
O O11 0.523066 0.279739 0.861098
O O12 0.518266 0.373862 0.000000
O O13 0.414008 0.756830 0.254710
O O14 0.390078 0.826735 0.122039
O O15 0.678300 0.685614 0.767345
O O16 0.701856 0.749890 0.633987
O O17 0.331122 0.180189 0.500000
#
# Coordination Sequence:
#
# PCOD9526388 Si02
#       8
#    16  16   4  16  16  16  16  16
#     4  10  19  37  60  92 118 148 205 251 310 361
#     4  12  21  36  64  93 127 159 217 265 300 356
#     4  12  28  40  68 108 116 148 222 282 312 364
#     4  11  24  41  63  91 122 163 206 253 320 392
#     4  11  22  44  66  91 127 161 203 262 317 382
#     4  10  21  34  62  91 119 160 204 260 302 358
#     4  10  20  37  61  94 121 157 197 256 320 358
#     4  11  24  43  62  84 126 177 207 242 314 386
#
# _framework density 20.703544999999998
#
# number of rings (size 3 to 8) (size 9 to 14) (size 15 to 20)
#    0.000    1.241    6.897    2.897    3.862    0.828 
#    0.000    2.069    0.000    0.000    0.000    0.000 
#    0.000    0.000    0.000    0.000    0.000    0.000 
#
# Total GULP energy -323932.112123 kJ/mol
# GULP energy per Si atom -5585.036416 kJ/mol
# Density = 2.065642 g / cm^3
# Si number density = 20.703545 Si / 1000 Ang^3
#
#
#
# Elastic Constant Matrix: (Units=GPa)
#
#
# Indices 1 2 3 4 5 6 
#
# 1 40.2800 26.5968 2.7805 0.0000 0.0000 0.0000
# 2 26.5968 184.0008 29.5639 0.0000 0.0000 0.0000
# 3 2.7805 29.5639 35.8654 0.0000 0.0000 0.0000
# 4 0.0000 0.0000 0.0000 19.4512 0.0000 0.0000
# 5 0.0000 0.0000 0.0000 0.0000 6.7254 0.0000
# 6 0.0000 0.0000 0.0000 0.0000 0.0000 41.5410
#
#
#
# Elastic Compliance Matrix: (Units=1/GPa)
#
#
# Indices 1 2 3 4 5 6 
#
# 1 0.027500 -0.004187 0.001319 0.000000 0.000000 0.000000
# 2 -0.004187 0.006902 -0.005365 0.000000 0.000000 0.000000
# 3 0.001319 -0.005365 0.032202 0.000000 0.000000 0.000000
# 4 0.000000 0.000000 0.000000 0.051411 0.000000 0.000000
# 5 0.000000 0.000000 0.000000 0.000000 0.148689 0.000000
# 6 0.000000 0.000000 0.000000 0.000000 0.000000 0.024073
#
#
# Mechanical properties :
#
#
# Convention : Reuss Voigt Hill
#
# Bulk Modulus (GPa) = 19.94456 42.00317 30.97387
# Shear Modulus (GPa) = 15.43430 26.95719 21.19574
#
# Velocity S-wave (km/s) = 2.73333 3.61232 3.20312
# Velocity P-wave (km/s) = 4.42897 6.14251 5.35473
#
# Compressibility (1/GPa) = 0.05013898
#
# Stress axis : x y z
#
# Youngs Moduli (GPa) = 36.36390 144.88702 31.05417
#
# Poissons Ratio (x) = 0.60664 -0.04097
# Poissons Ratio (y) = 0.15226 0.16659
# Poissons Ratio (z) = -0.04798 0.77727
#
# Static dielectric constant tensor:
#      x y z
#    x 1.786670 0.000000 0.000000 
#    y 0.000000 1.807000 0.000000 
#    z 0.000000 0.000000 1.714830 
# 
# From -- ./inp_files/33982.got.cif
#   From: 2010.05.17/outbox.cif.g08.bks.cpg/sg72_17_cif.got.tgz:33982.got - 2010.06.03 17:03:01.
