data_PCOD9526551
_publ_section_title
;
Structure prediction by ZEFSAII (Michael W. Deem and Ramdas Pophale) SiO2 
 PCOD9526551
Probable space group: I B A M
;
_chemical_formula_sum "Si O2"
_cell_formula_units_Z 84
_cell_length_a 23.935937
_cell_length_b 6.970933
_cell_length_c 21.613639
_cell_angle_alpha 90.000000
_cell_angle_beta 90.000000
_cell_angle_gamma 90.000000
_cell_volume 3606.361310
_symmetry_space_group_name_H-M "I B A M"
_symmetry_group_IT_number 72
_symmetry_cell_setting 'orthorhombic'
loop_
_space_group_symop_operation_xyz
x,y,z
-x,-y,z
x,-y,1/2-z
-x,y,1/2-z
-x,-y,-z
x,y,-z
-x,y,1/2+z
x,-y,1/2+z
1/2+x,1/2+y,1/2+z
1/2-x,1/2-y,1/2+z
1/2+x,1/2-y,-z
1/2-x,1/2+y,-z
1/2-x,1/2-y,1/2-z
1/2+x,1/2+y,1/2-z
1/2-x,1/2+y,z
1/2+x,1/2-y,z
loop_
_atom_site_type_symbol
_atom_site_label
_atom_site_fract_x
_atom_site_fract_y
_atom_site_fract_z
Si Si1 0.500000 0.000000 0.250000
Si Si2 0.166492 0.841209 0.500000
Si Si3 0.007409 0.270186 0.430769
Si Si4 0.895097 0.219455 0.625331
Si Si5 0.388298 0.207939 0.762954
Si Si6 0.205815 0.404612 0.500000
Si Si7 0.870100 0.679166 0.392861
O O1 0.546460 0.854413 0.221168
O O2 0.135945 0.874630 0.566176
O O3 0.177304 0.612450 0.500000
O O4 0.228377 0.926579 0.500000
O O5 0.990884 0.212467 0.500000
O O6 0.961180 0.188784 0.385071
O O7 0.000000 0.500000 0.427384
O O8 0.072484 0.239248 0.420613
O O9 0.884847 0.181629 0.698289
O O10 0.882036 0.449872 0.618052
O O11 0.361807 0.276097 0.826472
O O12 0.360943 0.000000 0.750000
O O13 0.181089 0.303747 0.439291
#
# Coordination Sequence:
#
# PCOD9526551 Si02
#       7
#     4   8  16  16  16   8  16
#     4   8  12  20  32  62 100 128 130 154 232 294
#     4  10  20  33  47  63  85 118 159 194 226 258
#     4   9  13  18  33  59  88 112 134 169 222 280
#     4   9  15  24  38  61  88 116 144 175 223 275
#     4   8  14  20  33  57  91 121 140 159 216 282
#     4  10  20  33  47  63  85 118 159 194 226 258
#     4   9  15  24  38  61  88 116 144 175 223 275
#
# _framework density 23.292173999999999
#
# number of rings (size 3 to 8) (size 9 to 14) (size 15 to 20)
#    0.571    2.476    1.905    1.143    2.667    0.000 
#    0.000    0.952    0.000    0.000    0.000    2.667 
#    0.000    0.000    0.000    5.524    0.000    0.000 
#
# Total GULP energy -234077.983673 kJ/mol
# GULP energy per Si atom -5573.285326 kJ/mol
# Density = 2.323916 g / cm^3
# Si number density = 23.292174 Si / 1000 Ang^3
#
#
#
# Elastic Constant Matrix: (Units=GPa)
#
#
# Indices 1 2 3 4 5 6 
#
# 1 100.1191 16.2838 72.3026 0.0000 0.0000 0.0000
# 2 16.2838 86.6110 13.2052 0.0000 0.0000 0.0000
# 3 72.3026 13.2052 214.6818 0.0000 0.0000 0.0000
# 4 0.0000 0.0000 0.0000 -4.6969 0.0000 0.0000
# 5 0.0000 0.0000 0.0000 0.0000 11.3984 0.0000
# 6 0.0000 0.0000 0.0000 0.0000 0.0000 3.8628
#
#
#
# Elastic Compliance Matrix: (Units=1/GPa)
#
#
# Indices 1 2 3 4 5 6 
#
# 1 0.013489 -0.001861 -0.004428 0.000000 0.000000 0.000000
# 2 -0.001861 0.011912 -0.000106 0.000000 0.000000 0.000000
# 3 -0.004428 -0.000106 0.006156 0.000000 0.000000 0.000000
# 4 0.000000 0.000000 0.000000 -0.212905 0.000000 0.000000
# 5 0.000000 0.000000 0.000000 0.000000 0.087732 0.000000
# 6 0.000000 0.000000 0.000000 0.000000 0.000000 0.258882
#
#
# Mechanical properties :
#
#
# Convention : Reuss Voigt Hill
#
# Bulk Modulus (GPa) = 53.28735 67.22169 60.25452
# Shear Modulus (GPa) = 27.12801 22.08753 24.60777
#
# Velocity S-wave (km/s) = 3.41645 3.08276 3.25388
# Velocity P-wave (km/s) = 6.20405 6.44935 6.32789
#
# Compressibility (1/GPa) = 0.01876618
#
# Stress axis : x y z
#
# Youngs Moduli (GPa) = 74.13546 83.94973 162.44236
#
# Poissons Ratio (x) = 0.15622 0.71937
# Poissons Ratio (y) = 0.13795 0.01722
# Poissons Ratio (z) = 0.32830 0.00890
#
# Static dielectric constant tensor:
#      x y z
#    x 1.817200 0.000000 0.000000 
#    y 0.000000 2.007060 0.000000 
#    z 0.000000 0.000000 1.928710 
# 
# From -- ./inp_files/45350.got.cif
#   From: 2010.05.17/outbox.cif.g08.bks.cpg/sg72_23_cif.got.tgz:45350.got - 2010.06.03 17:03:01.
