data_PCOD9526835
_publ_section_title
;
Structure prediction by ZEFSAII (Michael W. Deem and Ramdas Pophale) SiO2 
 PCOD9526835
Probable space group: I B A M
;
_chemical_formula_sum "Si O2"
_cell_formula_units_Z 96
_cell_length_a 19.190089
_cell_length_b 32.047198
_cell_length_c 8.721561
_cell_angle_alpha 90.000000
_cell_angle_beta 90.000000
_cell_angle_gamma 90.000000
_cell_volume 5363.660431
_symmetry_space_group_name_H-M "I B A M"
_symmetry_group_IT_number 72
_symmetry_cell_setting 'orthorhombic'
loop_
_space_group_symop_operation_xyz
x,y,z
-x,-y,z
x,-y,1/2-z
-x,y,1/2-z
-x,-y,-z
x,y,-z
-x,y,1/2+z
x,-y,1/2+z
1/2+x,1/2+y,1/2+z
1/2-x,1/2-y,1/2+z
1/2+x,1/2-y,-z
1/2-x,1/2+y,-z
1/2-x,1/2-y,1/2-z
1/2+x,1/2+y,1/2-z
1/2-x,1/2+y,z
1/2+x,1/2-y,z
loop_
_atom_site_type_symbol
_atom_site_label
_atom_site_fract_x
_atom_site_fract_y
_atom_site_fract_z
Si Si1 0.167029 0.295748 0.824481
Si Si2 0.827087 0.617571 0.317830
Si Si3 0.077910 0.544500 0.683910
Si Si4 0.336365 0.289850 0.822626
Si Si5 0.329053 0.618145 0.314463
Si Si6 0.077863 0.044224 0.816036
O O1 0.147236 0.335631 0.723398
O O2 0.251613 0.292108 0.817227
O O3 0.140324 0.250736 0.769797
O O4 0.147927 0.303952 0.000000
O O5 0.825182 0.612124 0.500000
O O6 0.874697 0.582384 0.241314
O O7 0.749368 0.614281 0.248552
O O8 0.103673 0.500000 0.750000
O O9 0.075837 0.542795 0.500000
O O10 0.000000 0.550055 0.750000
O O11 0.358147 0.335937 0.769463
O O12 0.355984 0.284305 0.000000
O O13 0.327559 0.616616 0.500000
O O14 0.375080 0.581627 0.244959
O O15 0.000000 0.049483 0.750000
O O16 0.104127 0.000000 0.750000
O O17 0.076089 0.042940 0.000000
#
# Coordination Sequence:
#
# PCOD9526835 Si02
#       6
#    16  16  16  16  16  16
#     4   9  16  27  45  71 103 138 174 213 257 306
#     4  11  21  34  53  80 110 141 177 218 264 309
#     4  11  22  39  59  80 105 137 176 215 260 314
#     4   8  15  27  45  70 102 137 171 210 257 308
#     4  10  20  35  54  80 110 139 175 220 266 310
#     4  11  22  38  58  79 104 138 177 216 261 315
#
# _framework density 17.898223999999999
#
# number of rings (size 3 to 8) (size 9 to 14) (size 15 to 20)
#    0.000    2.000    0.000    7.500    0.000    5.333 
#    0.000    3.333    0.000    1.000    0.000    2.333 
#    0.000    0.000    0.000    0.000    0.000    0.000 
#
# Total GULP energy -267837.215422 kJ/mol
# GULP energy per Si atom -5579.941988 kJ/mol
# Density = 1.785749 g / cm^3
# Si number density = 17.898224 Si / 1000 Ang^3
#
#
#
# Elastic Constant Matrix: (Units=GPa)
#
#
# Indices 1 2 3 4 5 6 
#
# 1 30.0700 54.4816 29.2772 -0.0002 -0.0006 0.0002
# 2 54.4816 178.5738 76.6412 0.0000 -0.0005 0.0006
# 3 29.2772 76.6412 151.7228 -0.0044 0.0038 0.0026
# 4 -0.0002 0.0000 -0.0044 34.6923 0.0016 0.0004
# 5 -0.0006 -0.0005 0.0038 0.0016 23.3969 0.0103
# 6 0.0002 0.0006 0.0026 0.0004 0.0103 -32.5253
#
#
#
# Elastic Compliance Matrix: (Units=1/GPa)
#
#
# Indices 1 2 3 4 5 6 
#
# 1 0.076013 -0.021573 -0.003771 0.000000 0.000002 0.000000
# 2 -0.021573 0.013272 -0.002542 0.000000 0.000000 0.000000
# 3 -0.003771 -0.002542 0.008602 0.000001 -0.000002 0.000001
# 4 0.000000 0.000000 0.000001 0.028825 -0.000002 0.000000
# 5 0.000002 0.000000 -0.000002 -0.000002 0.042741 0.000014
# 6 0.000000 0.000000 0.000001 0.000000 0.000014 -0.030745
#
#
# Mechanical properties :
#
#
# Convention : Reuss Voigt Hill
#
# Bulk Modulus (GPa) = 23.74291 75.68517 49.71404
# Shear Modulus (GPa) = 23.97885 18.44391 21.21138
#
# Velocity S-wave (km/s) = 3.66421 3.21360 3.44628
# Velocity P-wave (km/s) = 5.58536 7.49319 6.60848
#
# Compressibility (1/GPa) = 0.04211783
#
# Stress axis : x y z
#
# Youngs Moduli (GPa) = 13.15567 75.34405 116.24590
#
# Poissons Ratio (x) = 1.62538 0.43832
# Poissons Ratio (y) = 0.28380 0.29546
# Poissons Ratio (z) = 0.04960 0.19150
#
# Static dielectric constant tensor:
#      x y z
#    x 1.592560 0.000000 0.000000 
#    y 0.000000 1.632580 0.000000 
#    z 0.000000 0.000000 1.597700 
# 
# From -- ./inp_files/5984.got.cif
#   From: 2010.05.17/outbox.cif.g08.bks.cpg/sg72_3_cif.got.tgz:5984.got - 2010.06.03 17:03:01.
