data_PCOD9526593
_publ_section_title
;
Structure prediction by ZEFSAII (Michael W. Deem and Ramdas Pophale) SiO2 
 PCOD9526593
Probable space group: I B A M
;
_chemical_formula_sum "Si O2"
_cell_formula_units_Z 96
_cell_length_a 24.194152
_cell_length_b 12.294035
_cell_length_c 14.969333
_cell_angle_alpha 90.000000
_cell_angle_beta 90.000000
_cell_angle_gamma 90.000000
_cell_volume 4452.534565
_symmetry_space_group_name_H-M "I B A M"
_symmetry_group_IT_number 72
_symmetry_cell_setting 'orthorhombic'
loop_
_space_group_symop_operation_xyz
x,y,z
-x,-y,z
x,-y,1/2-z
-x,y,1/2-z
-x,-y,-z
x,y,-z
-x,y,1/2+z
x,-y,1/2+z
1/2+x,1/2+y,1/2+z
1/2-x,1/2-y,1/2+z
1/2+x,1/2-y,-z
1/2-x,1/2+y,-z
1/2-x,1/2-y,1/2-z
1/2+x,1/2+y,1/2-z
1/2-x,1/2+y,z
1/2+x,1/2-y,z
loop_
_atom_site_type_symbol
_atom_site_label
_atom_site_fract_x
_atom_site_fract_y
_atom_site_fract_z
Si Si1 0.410110 0.794781 0.600351
Si Si2 0.135630 0.126653 0.108179
Si Si3 0.704616 0.833065 0.391483
Si Si4 0.671819 0.387557 0.610041
Si Si5 0.403656 0.037417 0.391333
Si Si6 0.473516 0.753984 0.845882
O O1 0.388252 0.813190 0.500000
O O2 0.369326 0.707074 0.642806
O O3 0.471785 0.748777 0.594473
O O4 0.412433 0.914876 0.642043
O O5 0.180735 0.216322 0.137738
O O6 0.075178 0.169378 0.134920
O O7 0.150905 0.006055 0.138366
O O8 0.136437 0.127273 0.000000
O O9 0.706849 0.830360 0.500000
O O10 0.765761 0.862722 0.360855
O O11 0.657822 0.921394 0.368670
O O12 0.670718 0.387949 0.500000
O O13 0.409938 0.040311 0.500000
O O14 0.446313 0.127014 0.356439
O O15 0.500000 0.738180 0.750000
#
# Coordination Sequence:
#
# PCOD9526593 Si02
#       6
#    16  16  16  16  16  16
#     4  10  20  33  52  81 112 140 177 223 276 333
#     4   9  18  34  55  80 113 147 181 226 281 329
#     4   8  15  28  50  80 110 137 173 221 271 322
#     4   9  18  30  51  83 112 144 180 221 271 332
#     4   9  18  33  55  82 111 142 175 225 282 325
#     4  11  22  36  54  76 104 147 189 231 272 325
#
# _framework density 21.560753999999999
#
# number of rings (size 3 to 8) (size 9 to 14) (size 15 to 20)
#    0.000    2.667    0.000    3.000    2.333    3.333 
#    0.000    4.167    0.000    4.000    8.667    0.000 
#    0.000    0.000    0.000    0.000    0.000    0.000 
#
# Total GULP energy -268030.698736 kJ/mol
# GULP energy per Si atom -5583.972890 kJ/mol
# Density = 2.151168 g / cm^3
# Si number density = 21.560754 Si / 1000 Ang^3
#
#
#
# Elastic Constant Matrix: (Units=GPa)
#
#
# Indices 1 2 3 4 5 6 
#
# 1 161.8450 22.4560 -1.7758 0.0000 0.0000 0.0000
# 2 22.4560 -113.4378 -16.2519 0.0000 0.0000 0.0000
# 3 -1.7758 -16.2519 41.1878 0.0000 0.0000 0.0000
# 4 0.0000 0.0000 0.0000 3.0374 0.0000 0.0000
# 5 0.0000 0.0000 0.0000 0.0000 -5.3076 0.0000
# 6 0.0000 0.0000 0.0000 0.0000 0.0000 12.3008
#
#
#
# Elastic Compliance Matrix: (Units=1/GPa)
#
#
# Indices 1 2 3 4 5 6 
#
# 1 0.006034 0.001095 0.000692 0.000000 0.000000 0.000000
# 2 0.001095 -0.008145 -0.003167 0.000000 0.000000 0.000000
# 3 0.000692 -0.003167 0.023059 0.000000 0.000000 0.000000
# 4 0.000000 0.000000 0.000000 0.329234 0.000000 0.000000
# 5 0.000000 0.000000 0.000000 0.000000 -0.188408 0.000000
# 6 0.000000 0.000000 0.000000 0.000000 0.000000 0.081295
#
#
# Mechanical properties :
#
#
# Convention : Reuss Voigt Hill
#
# Bulk Modulus (GPa) = 54.97171 10.93906 32.95539
# Shear Modulus (GPa) = 19.84982 7.68389 13.76686
#
# Velocity S-wave (km/s) = 3.03751 1.88986 2.52963
# Velocity P-wave (km/s) = 6.15252 3.13795 4.88366
#
# Compressibility (1/GPa) = 0.01819117
#
# Stress axis : x y z
#
# Youngs Moduli (GPa) = 165.71740 -122.77617 43.36626
#
# Poissons Ratio (x) = 0.13448 -0.03003
# Poissons Ratio (y) = -0.18152 0.13732
# Poissons Ratio (z) = -0.11474 -0.38878
#
# Static dielectric constant tensor:
#      x y z
#    x 1.742310 0.000000 0.000000 
#    y 0.000000 1.764940 0.000000 
#    z 0.000000 0.000000 2.451510 
# 
# From -- ./inp_files/33237.got.cif
#   From: 2010.05.17/outbox.cif.g08.bks.cpg/sg72_17_cif.got.tgz:33237.got - 2010.06.03 17:03:01.
