data_PCOD9526214
_publ_section_title
;
Structure prediction by ZEFSAII (Michael W. Deem and Ramdas Pophale) SiO2 
 PCOD9526214
Probable space group: I B A M
;
_chemical_formula_sum "Si O2"
_cell_formula_units_Z 116
_cell_length_a 8.023701
_cell_length_b 31.655273
_cell_length_c 24.799416
_cell_angle_alpha 90.000000
_cell_angle_beta 90.000000
_cell_angle_gamma 90.000000
_cell_volume 6298.864320
_symmetry_space_group_name_H-M "I B A M"
_symmetry_group_IT_number 72
_symmetry_cell_setting 'orthorhombic'
loop_
_space_group_symop_operation_xyz
x,y,z
-x,-y,z
x,-y,1/2-z
-x,y,1/2-z
-x,-y,-z
x,y,-z
-x,y,1/2+z
x,-y,1/2+z
1/2+x,1/2+y,1/2+z
1/2-x,1/2-y,1/2+z
1/2+x,1/2-y,-z
1/2-x,1/2+y,-z
1/2-x,1/2-y,1/2-z
1/2+x,1/2+y,1/2-z
1/2-x,1/2+y,z
1/2+x,1/2-y,z
loop_
_atom_site_type_symbol
_atom_site_label
_atom_site_fract_x
_atom_site_fract_y
_atom_site_fract_z
Si Si1 0.268773 0.895288 0.437659
Si Si2 0.665524 0.356654 0.216289
Si Si3 0.447540 0.190335 0.096764
Si Si4 0.000000 0.500000 0.750000
Si Si5 0.886913 0.570840 0.671215
Si Si6 0.706610 0.270515 0.561199
Si Si7 0.483369 0.655401 0.613838
Si Si8 0.352799 0.142975 0.680696
O O1 0.272373 0.908966 0.500000
O O2 0.373235 0.851370 0.431406
O O3 0.346855 0.927672 0.393232
O O4 0.083242 0.880415 0.419068
O O5 0.500000 0.364904 0.250000
O O6 0.741231 0.399905 0.194571
O O7 0.606211 0.331876 0.163283
O O8 0.795029 0.340957 0.260999
O O9 0.321388 0.229225 0.097042
O O10 0.613481 0.208350 0.068315
O O11 0.513288 0.174101 0.154129
O O12 0.898194 0.529396 0.707851
O O13 0.057169 0.597524 0.681642
O O14 0.684628 0.256692 0.500000
O O15 0.569751 0.305547 0.576949
O O16 0.310473 0.641014 0.642307
#
# Coordination Sequence:
#
# PCOD9526214 Si02
#       8
#    16  16  16   4  16  16  16  16
#     4  10  19  35  53  77 105 144 184 220 266 325
#     4   9  16  32  54  76 107 138 175 219 266 315
#     4  10  21  31  49  72 100 138 183 224 274 316
#     4  12  20  36  60  92 112 132 178 210 276 316
#     4  10  20  33  58  83 112 139 174 218 263 325
#     4  11  19  30  43  68 101 136 178 233 273 309
#     4   9  19  29  51  74 101 139 184 220 272 312
#     4   9  17  34  52  75 104 138 178 221 268 319
#
# _framework density 18.416018000000001
#
# number of rings (size 3 to 8) (size 9 to 14) (size 15 to 20)
#    0.000    2.207    1.379    2.483    0.000    0.000 
#    0.000    2.069    0.000   11.586    0.000    0.966 
#    0.000    0.000    0.000    0.000    0.000    0.000 
#
# Total GULP energy -323112.664876 kJ/mol
# GULP energy per Si atom -5570.908015 kJ/mol
# Density = 1.837410 g / cm^3
# Si number density = 18.416018 Si / 1000 Ang^3
#
#
#
# Elastic Constant Matrix: (Units=GPa)
#
#
# Indices 1 2 3 4 5 6 
#
# 1 72.0268 18.4118 26.0276 0.0000 0.0000 0.0000
# 2 18.4118 56.8571 23.5605 0.0000 0.0000 0.0000
# 3 26.0276 23.5605 112.9681 0.0000 0.0000 0.0000
# 4 0.0000 0.0000 0.0000 26.0943 0.0000 0.0000
# 5 0.0000 0.0000 0.0000 0.0000 25.5426 0.0000
# 6 0.0000 0.0000 0.0000 0.0000 0.0000 8.2116
#
#
#
# Elastic Compliance Matrix: (Units=1/GPa)
#
#
# Indices 1 2 3 4 5 6 
#
# 1 0.015927 -0.003981 -0.002839 0.000000 0.000000 0.000000
# 2 -0.003981 0.020247 -0.003305 0.000000 0.000000 0.000000
# 3 -0.002839 -0.003305 0.010196 0.000000 0.000000 0.000000
# 4 0.000000 0.000000 0.000000 0.038323 0.000000 0.000000
# 5 0.000000 0.000000 0.000000 0.000000 0.039150 0.000000
# 6 0.000000 0.000000 0.000000 0.000000 0.000000 0.121779
#
#
# Mechanical properties :
#
#
# Convention : Reuss Voigt Hill
#
# Bulk Modulus (GPa) = 38.28765 41.98354 40.13559
# Shear Modulus (GPa) = 18.20968 23.55985 20.88477
#
# Velocity S-wave (km/s) = 3.14792 3.58063 3.37123
# Velocity P-wave (km/s) = 5.83508 6.31991 6.08233
#
# Compressibility (1/GPa) = 0.02611808
#
# Stress axis : x y z
#
# Youngs Moduli (GPa) = 62.78483 49.39042 98.08144
#
# Poissons Ratio (x) = 0.19663 0.27849
# Poissons Ratio (y) = 0.24995 0.32420
# Poissons Ratio (z) = 0.17827 0.16326
#
# Static dielectric constant tensor:
#      x y z
#    x 1.692420 0.000000 0.000000 
#    y 0.000000 1.605590 0.000000 
#    z 0.000000 0.000000 1.680060 
# 
# From -- ./inp_files/42776.got.cif
#   From: 2010.05.17/outbox.cif.g08.bks.cpg/sg72_22_cif.got.tgz:42776.got - 2010.06.03 17:03:01.
