data_PCOD9526280
_publ_section_title
;
Structure prediction by ZEFSAII (Michael W. Deem and Ramdas Pophale) SiO2 
 PCOD9526280
Probable space group: I B A M
;
_chemical_formula_sum "Si O2"
_cell_formula_units_Z 120
_cell_length_a 9.349352
_cell_length_b 30.107241
_cell_length_c 22.782307
_cell_angle_alpha 90.000000
_cell_angle_beta 90.000000
_cell_angle_gamma 90.000000
_cell_volume 6412.836538
_symmetry_space_group_name_H-M "I B A M"
_symmetry_group_IT_number 72
_symmetry_cell_setting 'orthorhombic'
loop_
_space_group_symop_operation_xyz
x,y,z
-x,-y,z
x,-y,1/2-z
-x,y,1/2-z
-x,-y,-z
x,y,-z
-x,y,1/2+z
x,-y,1/2+z
1/2+x,1/2+y,1/2+z
1/2-x,1/2-y,1/2+z
1/2+x,1/2-y,-z
1/2-x,1/2+y,-z
1/2-x,1/2-y,1/2-z
1/2+x,1/2+y,1/2-z
1/2-x,1/2+y,z
1/2+x,1/2-y,z
loop_
_atom_site_type_symbol
_atom_site_label
_atom_site_fract_x
_atom_site_fract_y
_atom_site_fract_z
Si Si1 0.894783 0.464471 0.566744
Si Si2 0.759440 0.122898 0.070047
Si Si3 0.578766 0.382495 0.123056
Si Si4 0.399367 0.207059 0.620692
Si Si5 0.126386 0.028340 0.066622
Si Si6 0.726861 0.800384 0.876969
Si Si7 0.000000 0.143300 0.250000
Si Si8 0.274371 0.197959 0.742405
O O1 0.952088 0.455741 0.500000
O O2 0.845770 0.417019 0.591750
O O3 0.753484 0.493869 0.562193
O O4 0.000000 0.500000 0.597057
O O5 0.688853 0.169994 0.085551
O O6 0.917987 0.118807 0.096878
O O7 0.771030 0.117438 0.000000
O O8 0.654700 0.427126 0.101561
O O9 0.672328 0.340432 0.101125
O O10 0.560183 0.382181 0.193672
O O11 0.565138 0.207784 0.600568
O O12 0.319867 0.255016 0.617838
O O13 0.384744 0.192865 0.689546
O O14 0.082977 0.041299 0.000000
O O15 0.000000 0.000000 0.094959
O O16 0.699129 0.815321 0.809283
O O17 0.873886 0.174502 0.224932
O O18 0.250000 0.250000 0.750000
#
# Coordination Sequence:
#
# PCOD9526280 Si02
#       8
#    16  16  16  16  16  16   8  16
#     4   9  19  35  58  85 111 142 187 242 290 338
#     4  11  22  38  61  85 117 157 193 239 300 353
#     4  11  21  38  58  85 119 151 195 241 291 346
#     4  11  21  38  56  84 116 151 194 241 287 347
#     4  10  19  35  60  86 109 142 190 236 284 344
#     4  10  23  35  58  84 115 153 195 237 291 345
#     4  10  20  36  51  88 114 156 190 244 291 348
#     4   9  19  30  58  80 110 143 193 244 285 329
#
# _framework density 18.712467
#
# number of rings (size 3 to 8) (size 9 to 14) (size 15 to 20)
#    0.000    1.867    2.667    1.600   11.200    0.000 
#    0.000    4.333    0.000    0.000    0.000    0.933 
#    0.000    0.000    0.000    0.000    0.000    0.000 
#
# Total GULP energy -334021.379337 kJ/mol
# GULP energy per Si atom -5567.022989 kJ/mol
# Density = 1.866988 g / cm^3
# Si number density = 18.712467 Si / 1000 Ang^3
#
#
#
# Elastic Constant Matrix: (Units=GPa)
#
#
# Indices 1 2 3 4 5 6 
#
# 1 67.7686 15.3721 -7.7853 0.0000 0.0000 0.0000
# 2 15.3721 109.2495 16.8839 0.0000 0.0000 0.0000
# 3 -7.7853 16.8839 33.8659 0.0000 0.0000 0.0000
# 4 0.0000 0.0000 0.0000 39.3190 0.0000 0.0000
# 5 0.0000 0.0000 0.0000 0.0000 27.2375 0.0000
# 6 0.0000 0.0000 0.0000 0.0000 0.0000 35.4596
#
#
#
# Elastic Compliance Matrix: (Units=1/GPa)
#
#
# Indices 1 2 3 4 5 6 
#
# 1 0.016051 -0.003065 0.005218 0.000000 0.000000 0.000000
# 2 -0.003065 0.010503 -0.005941 0.000000 0.000000 0.000000
# 3 0.005218 -0.005941 0.033690 0.000000 0.000000 0.000000
# 4 0.000000 0.000000 0.000000 0.025433 0.000000 0.000000
# 5 0.000000 0.000000 0.000000 0.000000 0.036714 0.000000
# 6 0.000000 0.000000 0.000000 0.000000 0.000000 0.028201
#
#
# Mechanical properties :
#
#
# Convention : Reuss Voigt Hill
#
# Bulk Modulus (GPa) = 18.98704 28.86948 23.92826
# Shear Modulus (GPa) = 28.45398 32.83077 30.64237
#
# Velocity S-wave (km/s) = 3.90370 4.19320 4.05104
# Velocity P-wave (km/s) = 5.52153 6.23742 5.89036
#
# Compressibility (1/GPa) = 0.05266750
#
# Stress axis : x y z
#
# Youngs Moduli (GPa) = 62.30252 95.21359 29.68284
#
# Poissons Ratio (x) = 0.29181 -0.15488
# Poissons Ratio (y) = 0.19095 0.17634
# Poissons Ratio (z) = -0.32508 0.56563
#
# Static dielectric constant tensor:
#      x y z
#    x 1.528010 0.000000 0.000000 
#    y 0.000000 1.642090 0.000000 
#    z 0.000000 0.000000 1.684090 
# 
# From -- ./inp_files/47706.got.cif
#   From: 2010.05.17/outbox.cif.g08.bks.cpg/sg72_24_cif.got.tgz:47706.got - 2010.06.03 17:03:01.
