data_PCOD9526209
_publ_section_title
;
Structure prediction by ZEFSAII (Michael W. Deem and Ramdas Pophale) SiO2 
 PCOD9526209
Probable space group: I B A M
;
_chemical_formula_sum "Si O2"
_cell_formula_units_Z 104
_cell_length_a 9.269820
_cell_length_b 23.892547
_cell_length_c 22.314554
_cell_angle_alpha 90.000000
_cell_angle_beta 90.000000
_cell_angle_gamma 90.000000
_cell_volume 4942.218718
_symmetry_space_group_name_H-M "I B A M"
_symmetry_group_IT_number 72
_symmetry_cell_setting 'orthorhombic'
loop_
_space_group_symop_operation_xyz
x,y,z
-x,-y,z
x,-y,1/2-z
-x,y,1/2-z
-x,-y,-z
x,y,-z
-x,y,1/2+z
x,-y,1/2+z
1/2+x,1/2+y,1/2+z
1/2-x,1/2-y,1/2+z
1/2+x,1/2-y,-z
1/2-x,1/2+y,-z
1/2-x,1/2-y,1/2-z
1/2+x,1/2+y,1/2-z
1/2-x,1/2+y,z
1/2+x,1/2-y,z
loop_
_atom_site_type_symbol
_atom_site_label
_atom_site_fract_x
_atom_site_fract_y
_atom_site_fract_z
Si Si1 0.795684 0.636367 0.368660
Si Si2 0.687517 0.127914 0.000000
Si Si3 0.069533 0.783341 0.313168
Si Si4 0.643701 0.354956 0.618814
Si Si5 0.916024 0.650415 0.810455
Si Si6 0.086781 0.046943 0.120474
Si Si7 0.736724 0.504091 0.500000
Si Si8 0.353944 0.876994 0.500000
O O1 0.715778 0.684023 0.330369
O O2 0.721802 0.578013 0.350089
O O3 0.772768 0.642406 0.439943
O O4 0.965725 0.635178 0.360013
O O5 0.764849 0.151917 0.941154
O O6 0.518904 0.141567 0.000000
O O7 0.710948 0.059923 0.000000
O O8 0.098368 0.717722 0.309626
O O9 0.000000 0.801617 0.250000
O O10 0.949013 0.801138 0.361537
O O11 0.759019 0.371087 0.670799
O O12 0.526642 0.403454 0.608661
O O13 0.000000 0.633172 0.750000
O O14 0.145583 0.017503 0.059999
O O15 0.000000 0.000000 0.156125
O O16 0.852630 0.554771 0.500000
#
# Coordination Sequence:
#
# PCOD9526209 Si02
#       8
#    16   8  16  16  16  16   8   8
#     4  10  21  37  60  89 125 154 197 245 308 354
#     4  12  20  36  59  96 129 155 199 248 299 366
#     4  10  22  41  64  88 113 156 216 259 290 347
#     4  11  22  35  62  93 122 154 201 251 303 355
#     4  11  22  41  64  85 113 158 213 259 296 349
#     4  10  19  35  57  90 119 152 195 241 289 358
#     4  10  19  34  63  87 116 166 208 235 285 348
#     4  10  21  37  55  94 129 161 190 244 304 370
#
# _framework density 21.043181000000001
#
# number of rings (size 3 to 8) (size 9 to 14) (size 15 to 20)
#    0.000    1.538    3.077    2.769    0.000    4.308 
#    0.000    5.385    0.000   17.538    0.000    0.000 
#    0.000    0.000    0.000    0.000    0.000    0.000 
#
# Total GULP energy -290220.325538 kJ/mol
# GULP energy per Si atom -5581.160106 kJ/mol
# Density = 2.099529 g / cm^3
# Si number density = 21.043181 Si / 1000 Ang^3
#
#
#
# Elastic Constant Matrix: (Units=GPa)
#
#
# Indices 1 2 3 4 5 6 
#
# 1 92.6427 3.6709 0.6233 0.0000 0.0000 0.0000
# 2 3.6709 30.3589 11.7060 0.0000 0.0000 0.0000
# 3 0.6233 11.7060 66.5536 0.0000 0.0000 0.0000
# 4 0.0000 0.0000 0.0000 12.5758 0.0000 0.0000
# 5 0.0000 0.0000 0.0000 0.0000 20.9215 0.0000
# 6 0.0000 0.0000 0.0000 0.0000 0.0000 29.0797
#
#
#
# Elastic Compliance Matrix: (Units=1/GPa)
#
#
# Indices 1 2 3 4 5 6 
#
# 1 0.010847 -0.001365 0.000139 0.000000 0.000000 0.000000
# 2 -0.001365 0.035508 -0.006233 0.000000 0.000000 0.000000
# 3 0.000139 -0.006233 0.016120 0.000000 0.000000 0.000000
# 4 0.000000 0.000000 0.000000 0.079518 0.000000 0.000000
# 5 0.000000 0.000000 0.000000 0.000000 0.047798 0.000000
# 6 0.000000 0.000000 0.000000 0.000000 0.000000 0.034388
#
#
# Mechanical properties :
#
#
# Convention : Reuss Voigt Hill
#
# Bulk Modulus (GPa) = 21.02735 24.61728 22.82232
# Shear Modulus (GPa) = 19.61174 24.08575 21.84875
#
# Velocity S-wave (km/s) = 3.05614 3.38684 3.22573
# Velocity P-wave (km/s) = 4.73999 5.19790 4.97422
#
# Compressibility (1/GPa) = 0.04755711
#
# Stress axis : x y z
#
# Youngs Moduli (GPa) = 92.18875 28.16303 62.03316
#
# Poissons Ratio (x) = 0.03844 -0.00859
# Poissons Ratio (y) = 0.12584 0.38662
# Poissons Ratio (z) = -0.01277 0.17553
#
# Static dielectric constant tensor:
#      x y z
#    x 1.777180 0.000000 0.000000 
#    y 0.000000 1.758670 0.000000 
#    z 0.000000 0.000000 1.808990 
# 
# From -- ./inp_files/42664.got.cif
#   From: 2010.05.17/outbox.cif.g08.bks.cpg/sg72_22_cif.got.tgz:42664.got - 2010.06.03 17:03:01.
