data_PCOD9526668
_publ_section_title
;
Structure prediction by ZEFSAII (Michael W. Deem and Ramdas Pophale) SiO2 
 PCOD9526668
Probable space group: I B A M
;
_chemical_formula_sum "Si O2"
_cell_formula_units_Z 72
_cell_length_a 24.194042
_cell_length_b 7.812460
_cell_length_c 15.012980
_cell_angle_alpha 90.000000
_cell_angle_beta 90.000000
_cell_angle_gamma 90.000000
_cell_volume 2837.678195
_symmetry_space_group_name_H-M "I B A M"
_symmetry_group_IT_number 72
_symmetry_cell_setting 'orthorhombic'
loop_
_space_group_symop_operation_xyz
x,y,z
-x,-y,z
x,-y,1/2-z
-x,y,1/2-z
-x,-y,-z
x,y,-z
-x,y,1/2+z
x,-y,1/2+z
1/2+x,1/2+y,1/2+z
1/2-x,1/2-y,1/2+z
1/2+x,1/2-y,-z
1/2-x,1/2+y,-z
1/2-x,1/2-y,1/2-z
1/2+x,1/2+y,1/2-z
1/2-x,1/2+y,z
1/2+x,1/2-y,z
loop_
_atom_site_type_symbol
_atom_site_label
_atom_site_fract_x
_atom_site_fract_y
_atom_site_fract_z
Si Si1 0.373325 0.668865 0.192687
Si Si2 0.835652 0.619278 0.353250
Si Si3 0.510857 0.701799 0.644545
Si Si4 0.774529 0.974838 0.603304
Si Si5 0.930504 0.617901 0.500000
O O1 0.391737 0.500000 0.250000
O O2 0.362444 0.819297 0.261465
O O3 0.423523 0.719128 0.129308
O O4 0.317814 0.607315 0.145510
O O5 0.785157 0.486889 0.352104
O O6 0.883434 0.580692 0.422755
O O7 0.803629 0.792411 0.385384
O O8 0.500000 0.500000 0.628380
O O9 0.500000 0.738687 0.750000
O O10 0.474634 0.814417 0.578212
O O11 0.767136 0.012657 0.500000
#
# Coordination Sequence:
#
# PCOD9526668 Si02
#       5
#    16  16  16  16   8
#     4  10  20  34  51  78 114 146 180 228 278 335
#     4  11  22  38  54  82 117 149 184 227 275 331
#     4  11  19  30  49  77 112 145 176 221 290 333
#     4  11  21  35  56  80 112 148 188 229 275 325
#     4  12  21  32  52  78 117 146 179 226 282 332
#
# _framework density 25.372855000000001
#
# number of rings (size 3 to 8) (size 9 to 14) (size 15 to 20)
#    0.000    1.111    6.667    2.333    1.556    0.000 
#    0.000    0.000    0.000    0.000    0.000    3.111 
#    0.000    7.111    0.000    0.000    0.000    0.000 
#
# Total GULP energy -200858.702223 kJ/mol
# GULP energy per Si atom -5579.408395 kJ/mol
# Density = 2.531511 g / cm^3
# Si number density = 25.372855 Si / 1000 Ang^3
#
#
#
# Elastic Constant Matrix: (Units=GPa)
#
#
# Indices 1 2 3 4 5 6 
#
# 1 208.0436 38.1738 51.4569 0.0000 0.0000 0.0000
# 2 38.1738 112.5245 14.4807 0.0000 0.0000 0.0000
# 3 51.4569 14.4807 99.2993 0.0000 0.0000 0.0000
# 4 0.0000 0.0000 0.0000 -3.0251 0.0000 0.0000
# 5 0.0000 0.0000 0.0000 0.0000 57.9604 0.0000
# 6 0.0000 0.0000 0.0000 0.0000 0.0000 6.6849
#
#
#
# Elastic Compliance Matrix: (Units=1/GPa)
#
#
# Indices 1 2 3 4 5 6 
#
# 1 0.005785 -0.001607 -0.002763 0.000000 0.000000 0.000000
# 2 -0.001607 0.009503 -0.000553 0.000000 0.000000 0.000000
# 3 -0.002763 -0.000553 0.011583 0.000000 0.000000 0.000000
# 4 0.000000 0.000000 0.000000 -0.330568 0.000000 0.000000
# 5 0.000000 0.000000 0.000000 0.000000 0.017253 0.000000
# 6 0.000000 0.000000 0.000000 0.000000 0.000000 0.149591
#
#
# Mechanical properties :
#
#
# Convention : Reuss Voigt Hill
#
# Bulk Modulus (GPa) = 58.73893 69.78784 64.26338
# Shear Modulus (GPa) = -41.20960 33.37445 -3.91758
#
# Velocity S-wave (km/s) = -4.03446 3.63072 -1.24393
# Velocity P-wave (km/s) = 1.22396 6.71869 4.82902
#
# Compressibility (1/GPa) = 0.01702448
#
# Stress axis : x y z
#
# Youngs Moduli (GPa) = 172.85933 105.22674 86.33149
#
# Poissons Ratio (x) = 0.16909 0.23857
# Poissons Ratio (y) = 0.27777 0.04775
# Poissons Ratio (z) = 0.47769 0.05821
#
# Static dielectric constant tensor:
#      x y z
#    x 1.959730 0.000000 0.000000 
#    y 0.000000 2.074260 0.000000 
#    z 0.000000 0.000000 2.030020 
# 
# From -- ./inp_files/20117.got.cif
#   From: 2010.05.17/outbox.cif.g08.bks.cpg/sg72_11_cif.got.tgz:20117.got - 2010.06.03 17:03:01.
