data_PCOD9526189
_publ_section_title
;
Structure prediction by ZEFSAII (Michael W. Deem and Ramdas Pophale) SiO2 
 PCOD9526189
Probable space group: I B A M
;
_chemical_formula_sum "Si O2"
_cell_formula_units_Z 80
_cell_length_a 8.445900
_cell_length_b 20.597167
_cell_length_c 20.217096
_cell_angle_alpha 90.000000
_cell_angle_beta 90.000000
_cell_angle_gamma 90.000000
_cell_volume 3516.998626
_symmetry_space_group_name_H-M "I B A M"
_symmetry_group_IT_number 72
_symmetry_cell_setting 'orthorhombic'
loop_
_space_group_symop_operation_xyz
x,y,z
-x,-y,z
x,-y,1/2-z
-x,y,1/2-z
-x,-y,-z
x,y,-z
-x,y,1/2+z
x,-y,1/2+z
1/2+x,1/2+y,1/2+z
1/2-x,1/2-y,1/2+z
1/2+x,1/2-y,-z
1/2-x,1/2+y,-z
1/2-x,1/2-y,1/2-z
1/2+x,1/2+y,1/2-z
1/2-x,1/2+y,z
1/2+x,1/2-y,z
loop_
_atom_site_type_symbol
_atom_site_label
_atom_site_fract_x
_atom_site_fract_y
_atom_site_fract_z
Si Si1 0.254387 0.967187 0.426767
Si Si2 0.710471 0.616491 0.074804
Si Si3 0.549549 0.833640 0.074041
Si Si4 0.837570 0.693877 0.289446
Si Si5 0.944523 0.094338 0.679846
O O1 0.184327 0.957449 0.500000
O O2 0.380580 0.908062 0.420261
O O3 0.134000 0.956986 0.368202
O O4 0.289084 0.043714 0.423136
O O5 0.860830 0.662953 0.080748
O O6 0.584046 0.623920 0.133688
O O7 0.642898 0.623775 0.000000
O O8 0.612950 0.791972 0.134888
O O9 0.591767 0.811144 0.000000
O O10 0.750000 0.750000 0.250000
O O11 0.699293 0.641451 0.299368
O O12 0.000000 0.674889 0.250000
O O13 0.000000 0.069606 0.750000
#
# Coordination Sequence:
#
# PCOD9526189 Si02
#       5
#    16  16  16  16  16
#     4   9  18  33  55  87 128 170 204 237 286 351
#     4  10  19  34  59  92 130 167 199 238 294 359
#     4   9  19  37  62  91 123 160 206 253 297 361
#     4  11  24  44  66  85 111 152 203 262 329 383
#     4  11  22  35  55  86 121 159 203 248 295 357
#
# _framework density 22.746666999999999
#
# number of rings (size 3 to 8) (size 9 to 14) (size 15 to 20)
#    0.000    2.000    0.000    3.600    0.000    6.400 
#    0.000    1.000    0.000   10.800    0.000    0.000 
#    0.000    0.000    0.000    0.000    0.000    0.000 
#
# Total GULP energy -223105.392111 kJ/mol
# GULP energy per Si atom -5577.634803 kJ/mol
# Density = 2.269489 g / cm^3
# Si number density = 22.746667 Si / 1000 Ang^3
#
#
#
# Elastic Constant Matrix: (Units=GPa)
#
#
# Indices 1 2 3 4 5 6 
#
# 1 105.2006 28.7700 91.5032 0.0000 0.0000 0.0000
# 2 28.7700 54.3942 43.5070 0.0000 0.0000 0.0000
# 3 91.5032 43.5070 245.6850 0.0000 0.0000 0.0000
# 4 0.0000 0.0000 0.0000 38.8009 0.0000 0.0000
# 5 0.0000 0.0000 0.0000 0.0000 42.3185 0.0000
# 6 0.0000 0.0000 0.0000 0.0000 0.0000 24.2195
#
#
#
# Elastic Compliance Matrix: (Units=1/GPa)
#
#
# Indices 1 2 3 4 5 6 
#
# 1 0.014763 -0.003973 -0.004795 0.000000 0.000000 0.000000
# 2 -0.003973 0.022487 -0.002502 0.000000 0.000000 0.000000
# 3 -0.004795 -0.002502 0.006299 0.000000 0.000000 0.000000
# 4 0.000000 0.000000 0.000000 0.025773 0.000000 0.000000
# 5 0.000000 0.000000 0.000000 0.000000 0.023630 0.000000
# 6 0.000000 0.000000 0.000000 0.000000 0.000000 0.041289
#
#
# Mechanical properties :
#
#
# Convention : Reuss Voigt Hill
#
# Bulk Modulus (GPa) = 47.59951 81.42669 64.51310
# Shear Modulus (GPa) = 30.52797 37.16775 33.84786
#
# Velocity S-wave (km/s) = 3.66742 4.04665 3.86169
# Velocity P-wave (km/s) = 6.23736 7.59662 6.95030
#
# Compressibility (1/GPa) = 0.02100862
#
# Stress axis : x y z
#
# Youngs Moduli (GPa) = 67.73887 44.46945 158.75320
#
# Poissons Ratio (x) = 0.17669 0.76116
# Poissons Ratio (y) = 0.26914 0.39726
# Poissons Ratio (z) = 0.32478 0.11128
#
# Static dielectric constant tensor:
#      x y z
#    x 1.869820 0.000000 0.000000 
#    y 0.000000 1.929000 0.000000 
#    z 0.000000 0.000000 1.828230 
# 
# From -- ./inp_files/28097.got.cif
#   From: 2010.05.17/outbox.cif.g08.bks.cpg/sg72_15_cif.got.tgz:28097.got - 2010.06.03 17:03:01.
