data_PCOD9526399
_publ_section_title
;
Structure prediction by ZEFSAII (Michael W. Deem and Ramdas Pophale) SiO2 
 PCOD9526399
Probable space group: I B A M
;
_chemical_formula_sum "Si O2"
_cell_formula_units_Z 96
_cell_length_a 26.395697
_cell_length_b 9.891081
_cell_length_c 14.521186
_cell_angle_alpha 90.000000
_cell_angle_beta 90.000000
_cell_angle_gamma 90.000000
_cell_volume 3791.219950
_symmetry_space_group_name_H-M "I B A M"
_symmetry_group_IT_number 72
_symmetry_cell_setting 'orthorhombic'
loop_
_space_group_symop_operation_xyz
x,y,z
-x,-y,z
x,-y,1/2-z
-x,y,1/2-z
-x,-y,-z
x,y,-z
-x,y,1/2+z
x,-y,1/2+z
1/2+x,1/2+y,1/2+z
1/2-x,1/2-y,1/2+z
1/2+x,1/2-y,-z
1/2-x,1/2+y,-z
1/2-x,1/2-y,1/2-z
1/2+x,1/2+y,1/2-z
1/2-x,1/2+y,z
1/2+x,1/2-y,z
loop_
_atom_site_type_symbol
_atom_site_label
_atom_site_fract_x
_atom_site_fract_y
_atom_site_fract_z
Si Si1 0.578842 0.477847 0.351616
Si Si2 0.576591 0.210758 0.107503
Si Si3 0.808401 0.952253 0.611888
Si Si4 0.237438 0.678669 0.112396
Si Si5 0.366835 0.040751 0.112834
Si Si6 0.034152 0.700416 0.106005
O O1 0.559159 0.500000 0.250000
O O2 0.583499 0.628567 0.390368
O O3 0.636189 0.422632 0.350364
O O4 0.544881 0.361571 0.395511
O O5 0.521196 0.177308 0.148652
O O6 0.621103 0.113267 0.141731
O O7 0.573261 0.176299 0.000000
O O8 0.813735 0.951175 0.500000
O O9 0.786336 0.095547 0.642824
O O10 0.769003 0.834635 0.636981
O O11 0.186421 0.601923 0.143271
O O12 0.238954 0.674313 0.000000
O O13 0.416111 0.126589 0.144022
O O14 0.364054 0.050325 0.000000
O O15 0.031521 0.654566 0.000000
#
# Coordination Sequence:
#
# PCOD9526399 Si02
#       6
#    16  16  16  16  16  16
#     4  12  25  39  55  80 118 162 198 231 283 340
#     4  10  21  35  60  91 114 144 191 243 289 340
#     4  10  20  37  61  87 112 145 190 241 290 342
#     4   9  18  32  59  90 114 142 181 234 290 337
#     4   9  17  33  59  91 118 141 179 237 296 347
#     4  10  19  37  62  86 114 149 189 239 294 341
#
# _framework density 25.321663999999998
#
# number of rings (size 3 to 8) (size 9 to 14) (size 15 to 20)
#    0.000    2.000    1.667    2.500    2.333    4.667 
#    0.000    1.667    0.000    2.000    0.000    0.000 
#    0.000    0.000    0.000    0.000    0.000    0.000 
#
# Total GULP energy -268417.281915 kJ/mol
# GULP energy per Si atom -5592.026707 kJ/mol
# Density = 2.526403 g / cm^3
# Si number density = 25.321664 Si / 1000 Ang^3
#
#
#
# Elastic Constant Matrix: (Units=GPa)
#
#
# Indices 1 2 3 4 5 6 
#
# 1 58.1075 -1.2381 -7.8928 0.0000 0.0000 0.0000
# 2 -1.2381 92.0018 -0.0510 0.0000 0.0000 0.0000
# 3 -7.8928 -0.0510 56.1025 0.0000 0.0000 0.0000
# 4 0.0000 0.0000 0.0000 -76.6797 0.0000 0.0000
# 5 0.0000 0.0000 0.0000 0.0000 9.3309 0.0000
# 6 0.0000 0.0000 0.0000 0.0000 0.0000 31.6594
#
#
#
# Elastic Compliance Matrix: (Units=1/GPa)
#
#
# Indices 1 2 3 4 5 6 
#
# 1 0.017550 0.000238 0.002469 0.000000 0.000000 0.000000
# 2 0.000238 0.010873 0.000043 0.000000 0.000000 0.000000
# 3 0.002469 0.000043 0.018172 0.000000 0.000000 0.000000
# 4 0.000000 0.000000 0.000000 -0.013041 0.000000 0.000000
# 5 0.000000 0.000000 0.000000 0.000000 0.107171 0.000000
# 6 0.000000 0.000000 0.000000 0.000000 0.000000 0.031586
#
#
# Mechanical properties :
#
#
# Convention : Reuss Voigt Hill
#
# Bulk Modulus (GPa) = 19.19583 20.87199 20.03391
# Shear Modulus (GPa) = 27.14804 7.22170 17.18487
#
# Velocity S-wave (km/s) = 3.27789 1.69061 2.60794
# Velocity P-wave (km/s) = 4.68223 3.47441 4.12279
#
# Compressibility (1/GPa) = 0.05209466
#
# Stress axis : x y z
#
# Youngs Moduli (GPa) = 56.98022 91.97456 55.02988
#
# Poissons Ratio (x) = -0.02185 -0.13588
# Poissons Ratio (y) = -0.01354 -0.00238
# Poissons Ratio (z) = -0.14070 -0.00398
#
# Static dielectric constant tensor:
#      x y z
#    x 1.963700 0.000000 0.000000 
#    y 0.000000 2.019670 0.000000 
#    z 0.000000 0.000000 2.055590 
# 
# From -- ./inp_files/36033.got.cif
#   From: 2010.05.17/outbox.cif.g08.bks.cpg/sg72_19_cif.got.tgz:36033.got - 2010.06.03 17:03:01.
