data_PCOD9526585
_publ_section_title
;
Structure prediction by ZEFSAII (Michael W. Deem and Ramdas Pophale) SiO2 
 PCOD9526585
Probable space group: I B A M
;
_chemical_formula_sum "Si O2"
_cell_formula_units_Z 80
_cell_length_a 23.685222
_cell_length_b 6.492788
_cell_length_c 26.585832
_cell_angle_alpha 90.000000
_cell_angle_beta 90.000000
_cell_angle_gamma 90.000000
_cell_volume 4088.452330
_symmetry_space_group_name_H-M "I B A M"
_symmetry_group_IT_number 72
_symmetry_cell_setting 'orthorhombic'
loop_
_space_group_symop_operation_xyz
x,y,z
-x,-y,z
x,-y,1/2-z
-x,y,1/2-z
-x,-y,-z
x,y,-z
-x,y,1/2+z
x,-y,1/2+z
1/2+x,1/2+y,1/2+z
1/2-x,1/2-y,1/2+z
1/2+x,1/2-y,-z
1/2-x,1/2+y,-z
1/2-x,1/2-y,1/2-z
1/2+x,1/2+y,1/2-z
1/2-x,1/2+y,z
1/2+x,1/2-y,z
loop_
_atom_site_type_symbol
_atom_site_label
_atom_site_fract_x
_atom_site_fract_y
_atom_site_fract_z
Si Si1 0.671080 0.874221 0.198882
Si Si2 0.938702 0.925021 0.058926
Si Si3 0.793111 0.987148 0.152714
Si Si4 0.329843 0.279354 0.057401
Si Si5 0.633520 0.892890 0.386771
O O1 0.673695 0.627565 0.193575
O O2 0.664880 0.000000 0.250000
O O3 0.733187 0.932679 0.176757
O O4 0.624469 0.953204 0.159568
O O5 0.918216 0.728254 0.089776
O O6 0.890021 0.100696 0.062614
O O7 0.942301 0.870068 0.000000
O O8 0.000000 0.000000 0.075396
O O9 0.791219 0.118370 0.100588
O O10 0.826554 0.783884 0.136617
O O11 0.338711 0.040166 0.071085
O O12 0.310103 0.306553 0.000000
#
# Coordination Sequence:
#
# PCOD9526585 Si02
#       5
#    16  16  16  16  16
#     4  11  21  34  55  79 105 140 184 235 274 318
#     4   9  18  34  57  82 105 135 179 228 279 334
#     4  10  20  33  52  77 107 140 184 223 265 323
#     4   9  19  35  52  76 109 143 178 218 270 334
#     4  10  20  33  52  76 110 139 175 228 269 326
#
# _framework density 19.567308000000001
#
# number of rings (size 3 to 8) (size 9 to 14) (size 15 to 20)
#    0.000    2.200    2.000    1.200    0.000    1.600 
#    0.000    8.000    0.000    0.000    0.000   40.600 
#    0.000    0.000    0.000    0.000    0.000    0.000 
#
# Total GULP energy -223032.091646 kJ/mol
# GULP energy per Si atom -5575.802291 kJ/mol
# Density = 1.952277 g / cm^3
# Si number density = 19.567308 Si / 1000 Ang^3
#
#
#
# Elastic Constant Matrix: (Units=GPa)
#
#
# Indices 1 2 3 4 5 6 
#
# 1 40.8124 -3.0395 -2.4822 0.0000 0.0000 0.0000
# 2 -3.0395 68.4104 -3.9064 0.0000 0.0000 0.0000
# 3 -2.4822 -3.9064 72.9462 0.0000 0.0000 0.0000
# 4 0.0000 0.0000 0.0000 29.1194 0.0000 0.0000
# 5 0.0000 0.0000 0.0000 0.0000 18.0201 0.0000
# 6 0.0000 0.0000 0.0000 0.0000 0.0000 20.0129
#
#
#
# Elastic Compliance Matrix: (Units=1/GPa)
#
#
# Indices 1 2 3 4 5 6 
#
# 1 0.024642 0.001146 0.000900 0.000000 0.000000 0.000000
# 2 0.001146 0.014716 0.000827 0.000000 0.000000 0.000000
# 3 0.000900 0.000827 0.013784 0.000000 0.000000 0.000000
# 4 0.000000 0.000000 0.000000 0.034341 0.000000 0.000000
# 5 0.000000 0.000000 0.000000 0.000000 0.055494 0.000000
# 6 0.000000 0.000000 0.000000 0.000000 0.000000 0.049968
#
#
# Mechanical properties :
#
#
# Convention : Reuss Voigt Hill
#
# Bulk Modulus (GPa) = 16.98129 18.14587 17.56358
# Shear Modulus (GPa) = 24.17470 26.20361 25.18916
#
# Velocity S-wave (km/s) = 3.51873 3.66341 3.59180
# Velocity P-wave (km/s) = 5.02054 5.21420 5.11828
#
# Compressibility (1/GPa) = 0.05888836
#
# Stress axis : x y z
#
# Youngs Moduli (GPa) = 40.58039 67.95415 72.54969
#
# Poissons Ratio (x) = -0.07789 -0.06529
# Poissons Ratio (y) = -0.04652 -0.06000
# Poissons Ratio (z) = -0.03652 -0.05620
#
# Static dielectric constant tensor:
#      x y z
#    x 1.673430 0.000000 0.000000 
#    y 0.000000 1.776310 0.000000 
#    z 0.000000 0.000000 1.719650 
# 
# From -- ./inp_files/49825.got.cif
#   From: 2010.05.17/outbox.cif.g08.bks.cpg/sg72_25_cif.got.tgz:49825.got - 2010.06.03 17:03:01.
