data_PCOD9526761
_publ_section_title
;
Structure prediction by ZEFSAII (Michael W. Deem and Ramdas Pophale) SiO2 
 PCOD9526761
Probable space group: I B A M
;
_chemical_formula_sum "Si O2"
_cell_formula_units_Z 112
_cell_length_a 14.744382
_cell_length_b 14.499038
_cell_length_c 30.517812
_cell_angle_alpha 90.000000
_cell_angle_beta 90.000000
_cell_angle_gamma 90.000000
_cell_volume 6524.078162
_symmetry_space_group_name_H-M "I B A M"
_symmetry_group_IT_number 72
_symmetry_cell_setting 'orthorhombic'
loop_
_space_group_symop_operation_xyz
x,y,z
-x,-y,z
x,-y,1/2-z
-x,y,1/2-z
-x,-y,-z
x,y,-z
-x,y,1/2+z
x,-y,1/2+z
1/2+x,1/2+y,1/2+z
1/2-x,1/2-y,1/2+z
1/2+x,1/2-y,-z
1/2-x,1/2+y,-z
1/2-x,1/2-y,1/2-z
1/2+x,1/2+y,1/2-z
1/2-x,1/2+y,z
1/2+x,1/2-y,z
loop_
_atom_site_type_symbol
_atom_site_label
_atom_site_fract_x
_atom_site_fract_y
_atom_site_fract_z
Si Si1 0.202958 0.154555 0.334509
Si Si2 0.351840 0.693281 0.151602
Si Si3 0.763967 0.018861 0.393764
Si Si4 0.418019 0.428740 0.047672
Si Si5 0.958394 0.760275 0.605358
Si Si6 0.604502 0.389580 0.754417
Si Si7 0.584014 0.928622 0.947154
O O1 0.288816 0.219738 0.339644
O O2 0.122522 0.203801 0.362701
O O3 0.165842 0.147635 0.285143
O O4 0.232746 0.053966 0.353225
O O5 0.299837 0.618969 0.121238
O O6 0.446571 0.727454 0.130770
O O7 0.366455 0.642083 0.197687
O O8 0.671378 0.029331 0.421494
O O9 0.839622 0.973660 0.424281
O O10 0.500000 0.500000 0.046306
O O11 0.456832 0.335870 0.067375
O O12 0.380498 0.410098 0.000000
O O13 0.941456 0.662577 0.581475
O O14 0.606318 0.500000 0.750000
O O15 0.500000 0.359150 0.750000
O O16 0.500000 0.000000 0.945273
O O17 0.601275 0.910790 0.000000
#
# Coordination Sequence:
#
# PCOD9526761 Si02
#       7
#    16  16  16  16  16  16  16
#     4  11  23  39  62  89 121 164 203 253 308 367
#     4  12  22  39  62  88 126 160 204 253 308 368
#     4  11  22  39  62  88 117 163 205 248 311 367
#     4  10  20  34  56  87 121 150 195 255 306 356
#     4  11  22  38  62  90 117 159 206 249 308 363
#     4  11  22  37  63  91 121 159 202 256 310 370
#     4  11  24  44  64  87 125 165 208 253 302 368
#
# _framework density 17.167176000000001
#
# number of rings (size 3 to 8) (size 9 to 14) (size 15 to 20)
#    0.000    1.000    5.714    2.143    0.000    0.000 
#    0.000    0.000    0.000    0.000    0.000    2.000 
#    0.000    0.000    0.000    0.000    0.000    0.000 
#
# Total GULP energy -312230.837871 kJ/mol
# GULP energy per Si atom -5575.550676 kJ/mol
# Density = 1.712810 g / cm^3
# Si number density = 17.167176 Si / 1000 Ang^3
#
#
#
# Elastic Constant Matrix: (Units=GPa)
#
#
# Indices 1 2 3 4 5 6 
#
# 1 97.6215 46.4643 31.1144 0.0000 0.0000 0.0000
# 2 46.4643 88.6171 30.1777 0.0000 0.0000 0.0000
# 3 31.1144 30.1777 92.2351 0.0000 0.0000 0.0000
# 4 0.0000 0.0000 0.0000 28.4245 0.0000 0.0000
# 5 0.0000 0.0000 0.0000 0.0000 54.6166 0.0000
# 6 0.0000 0.0000 0.0000 0.0000 0.0000 -29.2026
#
#
#
# Elastic Compliance Matrix: (Units=1/GPa)
#
#
# Indices 1 2 3 4 5 6 
#
# 1 0.014203 -0.006545 -0.002650 0.000000 0.000000 0.000000
# 2 -0.006545 0.015715 -0.002934 0.000000 0.000000 0.000000
# 3 -0.002650 -0.002934 0.012696 0.000000 0.000000 0.000000
# 4 0.000000 0.000000 0.000000 0.035181 0.000000 0.000000
# 5 0.000000 0.000000 0.000000 0.000000 0.018309 0.000000
# 6 0.000000 0.000000 0.000000 0.000000 0.000000 -0.034244
#
#
# Mechanical properties :
#
#
# Convention : Reuss Voigt Hill
#
# Bulk Modulus (GPa) = 54.47546 54.88741 54.68143
# Shear Modulus (GPa) = 54.20791 22.14885 38.17838
#
# Velocity S-wave (km/s) = 5.62539 3.59581 4.72096
# Velocity P-wave (km/s) = 8.60201 7.02008 7.85099
#
# Compressibility (1/GPa) = 0.01835689
#
# Stress axis : x y z
#
# Youngs Moduli (GPa) = 70.40608 63.63263 78.76657
#
# Poissons Ratio (x) = 0.41646 0.20873
# Poissons Ratio (y) = 0.46079 0.23110
# Poissons Ratio (z) = 0.18658 0.18669
#
# Static dielectric constant tensor:
#      x y z
#    x 1.559720 0.000000 0.000000 
#    y 0.000000 1.573530 0.000000 
#    z 0.000000 0.000000 1.601100 
# 
# From -- ./inp_files/51463.got.cif
#   From: 2010.05.17/outbox.cif.g08.bks.cpg/sg72_26_cif.got.tgz:51463.got - 2010.06.03 17:03:01.
