data_PCOD9526010
_publ_section_title
;
Structure prediction by ZEFSAII (Michael W. Deem and Ramdas Pophale) SiO2 
 PCOD9526010
Probable space group: I B A M
;
_chemical_formula_sum "Si O2"
_cell_formula_units_Z 116
_cell_length_a 6.917337
_cell_length_b 28.152980
_cell_length_c 24.056150
_cell_angle_alpha 90.000000
_cell_angle_beta 90.000000
_cell_angle_gamma 90.000000
_cell_volume 4684.782461
_symmetry_space_group_name_H-M "I B A M"
_symmetry_group_IT_number 72
_symmetry_cell_setting 'orthorhombic'
loop_
_space_group_symop_operation_xyz
x,y,z
-x,-y,z
x,-y,1/2-z
-x,y,1/2-z
-x,-y,-z
x,y,-z
-x,y,1/2+z
x,-y,1/2+z
1/2+x,1/2+y,1/2+z
1/2-x,1/2-y,1/2+z
1/2+x,1/2-y,-z
1/2-x,1/2+y,-z
1/2-x,1/2-y,1/2-z
1/2+x,1/2+y,1/2-z
1/2-x,1/2+y,z
1/2+x,1/2-y,z
loop_
_atom_site_type_symbol
_atom_site_label
_atom_site_fract_x
_atom_site_fract_y
_atom_site_fract_z
Si Si1 0.644271 0.181423 0.334958
Si Si2 0.154473 0.623361 0.936011
Si Si3 0.609847 0.347353 0.437943
Si Si4 0.270625 0.961150 0.645684
Si Si5 0.589020 0.288900 0.337131
Si Si6 0.819803 0.065315 0.862940
Si Si7 0.272208 0.628675 0.263822
Si Si8 0.000000 0.500000 0.750000
O O1 0.571272 0.163607 0.394598
O O2 0.573511 0.234180 0.322041
O O3 0.641606 0.139219 0.289825
O O4 0.875211 0.189825 0.334891
O O5 0.381320 0.638991 0.939389
O O6 0.141293 0.575509 0.898900
O O7 0.088782 0.619214 0.000000
O O8 0.676786 0.339690 0.500000
O O9 0.647222 0.301283 0.400000
O O10 0.697683 0.394114 0.409102
O O11 0.364575 0.970043 0.706588
O O12 0.047325 0.943997 0.650175
O O13 0.265444 0.014603 0.621527
O O14 0.721282 0.320951 0.297265
O O15 0.728447 0.087518 0.807530
O O16 0.500000 0.620785 0.250000
#
# Coordination Sequence:
#
# PCOD9526010 Si02
#       8
#    16  16  16  16  16  16  16   4
#     4  10  19  33  55  79 112 148 190 233 284 332
#     4   9  19  37  59  82 112 153 197 236 279 337
#     4   8  15  31  55  86 114 139 187 250 285 318
#     4  10  22  39  58  87 116 150 185 235 288 347
#     4   9  18  31  49  76 111 150 188 232 283 335
#     4   9  19  34  63  87 105 150 199 230 277 349
#     4   9  17  30  53  79 108 141 186 235 277 329
#     4  12  28  38  54  84 128 138 180 238 300 350
#
# _framework density 24.761023000000002
#
# number of rings (size 3 to 8) (size 9 to 14) (size 15 to 20)
#    0.000    2.759    0.000    2.897    3.862    1.655 
#    0.000    5.862    4.552    1.655    0.000    0.000 
#    0.000    0.000    0.000    0.000    0.000    0.000 
#
# Total GULP energy -324300.313708 kJ/mol
# GULP energy per Si atom -5591.384719 kJ/mol
# Density = 2.470467 g / cm^3
# Si number density = 24.761023 Si / 1000 Ang^3
#
#
#
# Elastic Constant Matrix: (Units=GPa)
#
#
# Indices 1 2 3 4 5 6 
#
# 1 84.8938 4.5488 9.5807 0.0000 0.0000 0.0000
# 2 4.5488 101.4872 16.3587 0.0000 0.0000 0.0000
# 3 9.5807 16.3587 143.9839 0.0000 0.0000 0.0000
# 4 0.0000 0.0000 0.0000 20.2618 0.0000 0.0000
# 5 0.0000 0.0000 0.0000 0.0000 18.6754 0.0000
# 6 0.0000 0.0000 0.0000 0.0000 0.0000 31.8214
#
#
#
# Elastic Compliance Matrix: (Units=1/GPa)
#
#
# Indices 1 2 3 4 5 6 
#
# 1 0.011886 -0.000413 -0.000744 0.000000 0.000000 0.000000
# 2 -0.000413 0.010052 -0.001115 0.000000 0.000000 0.000000
# 3 -0.000744 -0.001115 0.007121 0.000000 0.000000 0.000000
# 4 0.000000 0.000000 0.000000 0.049354 0.000000 0.000000
# 5 0.000000 0.000000 0.000000 0.000000 0.053546 0.000000
# 6 0.000000 0.000000 0.000000 0.000000 0.000000 0.031425
#
#
# Mechanical properties :
#
#
# Convention : Reuss Voigt Hill
#
# Bulk Modulus (GPa) = 40.78992 43.48235 42.13614
# Shear Modulus (GPa) = 28.39315 34.14349 31.26832
#
# Velocity S-wave (km/s) = 3.38995 3.71741 3.55745
# Velocity P-wave (km/s) = 5.64195 6.00204 5.82478
#
# Compressibility (1/GPa) = 0.02451586
#
# Stress axis : x y z
#
# Youngs Moduli (GPa) = 84.13608 99.48646 140.42280
#
# Poissons Ratio (x) = 0.04107 0.10447
# Poissons Ratio (y) = 0.03473 0.15651
# Poissons Ratio (z) = 0.06259 0.11088
#
# Static dielectric constant tensor:
#      x y z
#    x 2.087630 0.000000 0.000000 
#    y 0.000000 1.934240 0.000000 
#    z 0.000000 0.000000 1.962590 
# 
# From -- ./inp_files/42701.got.cif
#   From: 2010.05.17/outbox.cif.g08.bks.cpg/sg72_22_cif.got.tgz:42701.got - 2010.06.03 17:03:01.
