data_PCOD9526515
_publ_section_title
;
Structure prediction by ZEFSAII (Michael W. Deem and Ramdas Pophale) SiO2 
 PCOD9526515
Probable space group: I B A M
;
_chemical_formula_sum "Si O2"
_cell_formula_units_Z 92
_cell_length_a 18.913640
_cell_length_b 18.873238
_cell_length_c 13.489264
_cell_angle_alpha 90.000000
_cell_angle_beta 90.000000
_cell_angle_gamma 90.000000
_cell_volume 4815.149654
_symmetry_space_group_name_H-M "I B A M"
_symmetry_group_IT_number 72
_symmetry_cell_setting 'orthorhombic'
loop_
_space_group_symop_operation_xyz
x,y,z
-x,-y,z
x,-y,1/2-z
-x,y,1/2-z
-x,-y,-z
x,y,-z
-x,y,1/2+z
x,-y,1/2+z
1/2+x,1/2+y,1/2+z
1/2-x,1/2-y,1/2+z
1/2+x,1/2-y,-z
1/2-x,1/2+y,-z
1/2-x,1/2-y,1/2-z
1/2+x,1/2+y,1/2-z
1/2-x,1/2+y,z
1/2+x,1/2-y,z
loop_
_atom_site_type_symbol
_atom_site_label
_atom_site_fract_x
_atom_site_fract_y
_atom_site_fract_z
Si Si1 0.254161 0.885072 0.110020
Si Si2 0.923681 0.266190 0.266150
Si Si3 0.658466 0.126708 0.617591
Si Si4 0.000000 0.500000 0.750000
Si Si5 0.923181 0.603230 0.893462
Si Si6 0.717538 0.000000 0.750000
Si Si7 0.292007 0.727544 0.116269
O O1 0.338686 0.898797 0.103693
O O2 0.234127 0.945910 0.186355
O O3 0.252596 0.802554 0.139681
O O4 0.223215 0.892774 0.000000
O O5 0.893983 0.319751 0.178889
O O6 0.941171 0.319287 0.356208
O O7 0.858168 0.221346 0.309513
O O8 0.000000 0.230119 0.250000
O O9 0.639760 0.117148 0.500000
O O10 0.672378 0.052784 0.676687
O O11 0.734238 0.166290 0.621096
O O12 0.046408 0.450968 0.817649
O O13 0.953524 0.588038 0.000000
O O14 0.314943 0.734054 0.000000
#
# Coordination Sequence:
#
# PCOD9526515 Si02
#       7
#    16  16  16   4  16   8  16
#     4   9  18  31  49  70  97 135 175 217 267 316
#     4  11  21  36  54  81 110 145 187 227 272 324
#     4  11  24  38  57  82 110 146 190 235 275 330
#     4  12  20  32  40  66  92 144 184 214 250 304
#     4  10  20  32  44  62  94 139 180 212 254 307
#     4  12  19  32  53  80 111 138 181 234 272 321
#     4   9  19  39  60  77 106 149 187 229 283 327
#
# _framework density 19.106363999999999
#
# number of rings (size 3 to 8) (size 9 to 14) (size 15 to 20)
#    0.000    1.739    4.348    3.391    0.000    1.391 
#    0.000    0.000    0.000    0.000    0.000    0.609 
#    0.000    2.783    0.000    0.000    0.000    0.000 
#
# Total GULP energy -256408.697715 kJ/mol
# GULP energy per Si atom -5574.102124 kJ/mol
# Density = 1.906288 g / cm^3
# Si number density = 19.106364 Si / 1000 Ang^3
#
#
#
# Elastic Constant Matrix: (Units=GPa)
#
#
# Indices 1 2 3 4 5 6 
#
# 1 74.3351 29.3878 33.8056 0.0000 0.0000 0.0000
# 2 29.3878 63.7567 27.5685 0.0000 0.0000 0.0000
# 3 33.8056 27.5685 121.5748 0.0000 0.0000 0.0000
# 4 0.0000 0.0000 0.0000 29.0139 0.0000 0.0000
# 5 0.0000 0.0000 0.0000 0.0000 -0.0757 0.0000
# 6 0.0000 0.0000 0.0000 0.0000 0.0000 -14.1556
#
#
#
# Elastic Compliance Matrix: (Units=1/GPa)
#
#
# Indices 1 2 3 4 5 6 
#
# 1 0.017627 -0.006659 -0.003392 0.000000 0.000000 0.000000
# 2 -0.006659 0.019905 -0.002662 0.000000 0.000000 0.000000
# 3 -0.003392 -0.002662 0.009772 0.000000 0.000000 0.000000
# 4 0.000000 0.000000 0.000000 0.034466 0.000000 0.000000
# 5 0.000000 0.000000 0.000000 0.000000-13.206272 0.000000
# 6 0.000000 0.000000 0.000000 0.000000 0.000000 -0.070644
#
#
# Mechanical properties :
#
#
# Convention : Reuss Voigt Hill
#
# Bulk Modulus (GPa) = 45.70434 49.02113 47.36274
# Shear Modulus (GPa) = -0.37987 14.21685 6.91849
#
# Velocity S-wave (km/s) = -0.44637 2.73076 1.90497
# Velocity P-wave (km/s) = 4.86901 5.97121 5.44806
#
# Compressibility (1/GPa) = 0.02187976
#
# Stress axis : x y z
#
# Youngs Moduli (GPa) = 56.72975 50.23889 102.33158
#
# Poissons Ratio (x) = 0.33452 0.34707
# Poissons Ratio (y) = 0.37774 0.27242
# Poissons Ratio (z) = 0.19241 0.13374
#
# Static dielectric constant tensor:
#      x y z
#    x 1.726330 0.000000 0.000000 
#    y 0.000000 1.681470 0.000000 
#    z 0.000000 0.000000 1.772480 
# 
# From -- ./inp_files/24441.got.cif
#   From: 2010.05.17/outbox.cif.g08.bks.cpg/sg72_13_cif.got.tgz:24441.got - 2010.06.03 17:03:01.
