data_PCOD9526028
_publ_section_title
;
Structure prediction by ZEFSAII (Michael W. Deem and Ramdas Pophale) SiO2 
 PCOD9526028
Probable space group: I B A M
;
_chemical_formula_sum "Si O2"
_cell_formula_units_Z 104
_cell_length_a 12.163065
_cell_length_b 17.514618
_cell_length_c 24.828990
_cell_angle_alpha 90.000000
_cell_angle_beta 90.000000
_cell_angle_gamma 90.000000
_cell_volume 5289.355424
_symmetry_space_group_name_H-M "I B A M"
_symmetry_group_IT_number 72
_symmetry_cell_setting 'orthorhombic'
loop_
_space_group_symop_operation_xyz
x,y,z
-x,-y,z
x,-y,1/2-z
-x,y,1/2-z
-x,-y,-z
x,y,-z
-x,y,1/2+z
x,-y,1/2+z
1/2+x,1/2+y,1/2+z
1/2-x,1/2-y,1/2+z
1/2+x,1/2-y,-z
1/2-x,1/2+y,-z
1/2-x,1/2-y,1/2-z
1/2+x,1/2+y,1/2-z
1/2-x,1/2+y,z
1/2+x,1/2-y,z
loop_
_atom_site_type_symbol
_atom_site_label
_atom_site_fract_x
_atom_site_fract_y
_atom_site_fract_z
Si Si1 0.288394 0.111473 0.559967
Si Si2 0.500000 0.000000 0.346125
Si Si3 0.263773 0.021179 0.334573
Si Si4 0.629379 0.363663 0.821342
Si Si5 0.205254 0.265936 0.388021
Si Si6 0.116685 0.161405 0.301584
Si Si7 0.952454 0.614626 0.559880
O O1 0.252113 0.091556 0.500000
O O2 0.268235 0.042865 0.601719
O O3 0.232343 0.187792 0.581601
O O4 0.417846 0.131948 0.558216
O O5 0.390541 0.023083 0.314957
O O6 0.550266 0.061846 0.387489
O O7 0.203345 0.093977 0.310266
O O8 0.196773 0.943714 0.322327
O O9 0.687811 0.311165 0.866213
O O10 0.497588 0.372435 0.825905
O O11 0.627180 0.324561 0.762190
O O12 0.141856 0.237930 0.334456
O O13 0.129152 0.317162 0.426026
O O14 0.925303 0.582074 0.500000
#
# Coordination Sequence:
#
# PCOD9526028 Si02
#       7
#    16   8  16  16  16  16  16
#     4   9  20  36  55  83 119 154 189 235 295 344
#     4  10  19  36  55  86 114 148 194 245 289 334
#     4  10  20  37  60  82 115 149 193 239 285 340
#     4  11  21  39  59  86 109 151 202 233 285 356
#     4  11  20  36  58  86 115 150 191 245 289 342
#     4  10  23  38  60  81 117 153 188 240 298 344
#     4  10  19  33  56  82 114 152 192 236 286 345
#
# _framework density 19.662130999999999
#
# number of rings (size 3 to 8) (size 9 to 14) (size 15 to 20)
#    0.000    1.846    1.538    3.000    0.000    1.846 
#    0.000    1.538    0.000    9.231    0.000    0.000 
#    0.000    0.000    0.000    0.000    0.000    0.000 
#
# Total GULP energy -289620.601629 kJ/mol
# GULP energy per Si atom -5569.626954 kJ/mol
# Density = 1.961738 g / cm^3
# Si number density = 19.662131 Si / 1000 Ang^3
#
#
#
# Elastic Constant Matrix: (Units=GPa)
#
#
# Indices 1 2 3 4 5 6 
#
# 1 95.8557 12.6284 11.2441 0.0000 0.0000 0.0000
# 2 12.6284 33.3635 -0.8227 0.0000 0.0000 0.0000
# 3 11.2441 -0.8227 74.7956 0.0000 0.0000 0.0000
# 4 0.0000 0.0000 0.0000 29.1901 0.0000 0.0000
# 5 0.0000 0.0000 0.0000 0.0000 53.9661 0.0000
# 6 0.0000 0.0000 0.0000 0.0000 0.0000 34.9041
#
#
#
# Elastic Compliance Matrix: (Units=1/GPa)
#
#
# Indices 1 2 3 4 5 6 
#
# 1 0.011199 -0.004282 -0.001731 0.000000 0.000000 0.000000
# 2 -0.004282 0.031618 0.000991 0.000000 0.000000 0.000000
# 3 -0.001731 0.000991 0.013641 0.000000 0.000000 0.000000
# 4 0.000000 0.000000 0.000000 0.034258 0.000000 0.000000
# 5 0.000000 0.000000 0.000000 0.000000 0.018530 0.000000
# 6 0.000000 0.000000 0.000000 0.000000 0.000000 0.028650
#
#
# Mechanical properties :
#
#
# Convention : Reuss Voigt Hill
#
# Bulk Modulus (GPa) = 21.54417 27.79048 24.66732
# Shear Modulus (GPa) = 30.59775 35.67640 33.13708
#
# Velocity S-wave (km/s) = 3.94912 4.26428 4.10972
# Velocity P-wave (km/s) = 5.63694 6.19760 5.92390
#
# Compressibility (1/GPa) = 0.04641628
#
# Stress axis : x y z
#
# Youngs Moduli (GPa) = 89.29000 31.62754 73.30917
#
# Poissons Ratio (x) = 0.13542 0.12688
# Poissons Ratio (y) = 0.38232 -0.07268
# Poissons Ratio (z) = 0.15454 -0.03136
#
# Static dielectric constant tensor:
#      x y z
#    x 1.755790 0.000000 0.000000 
#    y 0.000000 1.692890 0.000000 
#    z 0.000000 0.000000 1.760190 
# 
# From -- ./inp_files/48163.got.cif
#   From: 2010.05.17/outbox.cif.g08.bks.cpg/sg72_25_cif.got.tgz:48163.got - 2010.06.03 17:03:01.
