data_PCOD9526084
_publ_section_title
;
Structure prediction by ZEFSAII (Michael W. Deem and Ramdas Pophale) SiO2 
 PCOD9526084
Probable space group: I B A M
;
_chemical_formula_sum "Si O2"
_cell_formula_units_Z 64
_cell_length_a 6.923148
_cell_length_b 22.319980
_cell_length_c 15.693964
_cell_angle_alpha 90.000000
_cell_angle_beta 90.000000
_cell_angle_gamma 90.000000
_cell_volume 2425.102331
_symmetry_space_group_name_H-M "I B A M"
_symmetry_group_IT_number 72
_symmetry_cell_setting 'orthorhombic'
loop_
_space_group_symop_operation_xyz
x,y,z
-x,-y,z
x,-y,1/2-z
-x,y,1/2-z
-x,-y,-z
x,y,-z
-x,y,1/2+z
x,-y,1/2+z
1/2+x,1/2+y,1/2+z
1/2-x,1/2-y,1/2+z
1/2+x,1/2-y,-z
1/2-x,1/2+y,-z
1/2-x,1/2-y,1/2-z
1/2+x,1/2+y,1/2-z
1/2-x,1/2+y,z
1/2+x,1/2-y,z
loop_
_atom_site_type_symbol
_atom_site_label
_atom_site_fract_x
_atom_site_fract_y
_atom_site_fract_z
Si Si1 0.648551 0.675237 0.903675
Si Si2 0.741947 0.549269 0.103815
Si Si3 0.193229 0.579030 0.898011
Si Si4 0.939810 0.695310 0.654777
O O1 0.623811 0.607936 0.868074
O O2 0.598028 0.734306 0.851411
O O3 0.881999 0.682206 0.907300
O O4 0.571353 0.679792 0.000000
O O5 0.702208 0.481509 0.133412
O O6 0.967430 0.563877 0.122517
O O7 0.723411 0.549213 0.000000
O O8 0.225301 0.647210 0.867864
O O9 0.214496 0.579440 0.000000
O O10 0.000000 0.681039 0.750000
#
# Coordination Sequence:
#
# PCOD9526084 Si02
#       4
#    16  16  16  16
#     4  10  19  34  53  74 100 140 183 217 256 314
#     4   7  12  24  46  70  93 122 168 217 247 282
#     4   8  13  26  46  69  94 127 168 210 250 298
#     4  11  21  32  49  77 110 137 165 216 274 320
#
# _framework density 26.390637999999999
#
# number of rings (size 3 to 8) (size 9 to 14) (size 15 to 20)
#    0.000    3.000    0.000    6.000    0.000    0.000 
#    0.000   10.000    0.000    1.500    0.000    8.750 
#    0.000    0.000    0.000    0.000    0.000    0.000 
#
# Total GULP energy -178726.770577 kJ/mol
# GULP energy per Si atom -5585.211581 kJ/mol
# Density = 2.633057 g / cm^3
# Si number density = 26.390638 Si / 1000 Ang^3
#
#
#
# Elastic Constant Matrix: (Units=GPa)
#
#
# Indices 1 2 3 4 5 6 
#
# 1 62.0657 31.9547 2.9912 0.0000 0.0000 0.0000
# 2 31.9547 316.3814 38.1224 0.0000 0.0000 0.0000
# 3 2.9912 38.1224 74.8394 0.0000 0.0000 0.0000
# 4 0.0000 0.0000 0.0000 -32.3074 0.0000 0.0000
# 5 0.0000 0.0000 0.0000 0.0000 2.0161 0.0000
# 6 0.0000 0.0000 0.0000 0.0000 0.0000 59.5513
#
#
#
# Elastic Compliance Matrix: (Units=1/GPa)
#
#
# Indices 1 2 3 4 5 6 
#
# 1 0.016999 -0.001742 0.000208 0.000000 0.000000 0.000000
# 2 -0.001742 0.003546 -0.001737 0.000000 0.000000 0.000000
# 3 0.000208 -0.001737 0.014238 0.000000 0.000000 0.000000
# 4 0.000000 0.000000 0.000000 -0.030953 0.000000 0.000000
# 5 0.000000 0.000000 0.000000 0.000000 0.496001 0.000000
# 6 0.000000 0.000000 0.000000 0.000000 0.000000 0.016792
#
#
# Mechanical properties :
#
#
# Convention : Reuss Voigt Hill
#
# Bulk Modulus (GPa) = 35.40870 66.60256 51.00563
# Shear Modulus (GPa) = 9.38827 31.19988 20.29408
#
# Velocity S-wave (km/s) = 1.88816 3.44209 2.77607
# Velocity P-wave (km/s) = 4.26612 6.41009 5.44468
#
# Compressibility (1/GPa) = 0.02824165
#
# Stress axis : x y z
#
# Youngs Moduli (GPa) = 58.82772 282.01303 70.23325
#
# Poissons Ratio (x) = 0.49125 -0.01460
# Poissons Ratio (y) = 0.10247 0.12197
# Poissons Ratio (z) = -0.01223 0.48976
#
# Static dielectric constant tensor:
#      x y z
#    x 2.224280 0.000000 0.000000 
#    y 0.000000 2.146990 0.000000 
#    z 0.000000 0.000000 1.943990 
# 
# From -- ./inp_files/18660.got.cif
#   From: 2010.05.17/outbox.cif.g08.bks.cpg/sg72_10_cif.got.tgz:18660.got - 2010.06.03 17:03:01.
