data_PCOD9526989
_publ_section_title
;
Structure prediction by ZEFSAII (Michael W. Deem and Ramdas Pophale) SiO2 
 PCOD9526989
Probable space group: I B A M
;
_chemical_formula_sum "Si O2"
_cell_formula_units_Z 112
_cell_length_a 12.961757
_cell_length_b 16.812578
_cell_length_c 29.063095
_cell_angle_alpha 90.000000
_cell_angle_beta 90.000000
_cell_angle_gamma 90.000000
_cell_volume 6333.445664
_symmetry_space_group_name_H-M "I B A M"
_symmetry_group_IT_number 72
_symmetry_cell_setting 'orthorhombic'
loop_
_space_group_symop_operation_xyz
x,y,z
-x,-y,z
x,-y,1/2-z
-x,y,1/2-z
-x,-y,-z
x,y,-z
-x,y,1/2+z
x,-y,1/2+z
1/2+x,1/2+y,1/2+z
1/2-x,1/2-y,1/2+z
1/2+x,1/2-y,-z
1/2-x,1/2+y,-z
1/2-x,1/2-y,1/2-z
1/2+x,1/2+y,1/2-z
1/2-x,1/2+y,z
1/2+x,1/2-y,z
loop_
_atom_site_type_symbol
_atom_site_label
_atom_site_fract_x
_atom_site_fract_y
_atom_site_fract_z
Si Si1 0.105052 0.819519 0.128258
Si Si2 0.802597 0.703316 0.554918
Si Si3 0.792789 0.290961 0.796873
Si Si4 0.883649 0.465400 0.798402
Si Si5 0.111797 0.527711 0.054597
Si Si6 0.274224 0.517383 0.377405
Si Si7 0.863931 0.845989 0.124858
O O1 0.140974 0.773009 0.082410
O O2 0.143442 0.771448 0.172766
O O3 0.160345 0.904416 0.129865
O O4 0.982677 0.825796 0.127839
O O5 0.795145 0.713962 0.500000
O O6 0.864137 0.620487 0.564520
O O7 0.693054 0.692290 0.580587
O O8 0.750000 0.250000 0.750000
O O9 0.864978 0.370239 0.793545
O O10 0.697242 0.316917 0.829694
O O11 0.847562 0.500000 0.750000
O O12 0.809650 0.498413 0.837989
O O13 0.000000 0.500000 0.805432
O O14 0.204201 0.478589 0.077054
O O15 0.000000 0.500000 0.072103
O O16 0.112953 0.517737 0.000000
O O17 0.346792 0.440330 0.379620
#
# Coordination Sequence:
#
# PCOD9526989 Si02
#       7
#    16  16  16  16  16  16  16
#     4  11  22  35  57  82 107 145 185 221 273 333
#     4   9  20  37  54  79 112 139 175 229 277 318
#     4  10  22  39  57  83 116 143 178 232 287 330
#     4  10  21  36  57  82 108 143 186 228 273 328
#     4   9  18  34  56  79 105 140 179 221 271 323
#     4  10  20  36  54  76 110 145 183 223 265 325
#     4   9  21  38  55  78 109 145 181 223 273 328
#
# _framework density 17.683896000000001
#
# number of rings (size 3 to 8) (size 9 to 14) (size 15 to 20)
#    0.000    2.286    0.000    2.571    0.000    8.571 
#    0.000    1.429    0.000    6.857    0.000    0.000 
#    0.000    0.000    0.000    0.000    0.000    0.000 
#
# Total GULP energy -312284.281097 kJ/mol
# GULP energy per Si atom -5576.505020 kJ/mol
# Density = 1.764365 g / cm^3
# Si number density = 17.683896 Si / 1000 Ang^3
#
#
#
# Elastic Constant Matrix: (Units=GPa)
#
#
# Indices 1 2 3 4 5 6 
#
# 1 131.5293 91.1758 45.5044 0.0000 0.0000 0.0000
# 2 91.1758 108.5958 55.1167 0.0000 0.0000 0.0000
# 3 45.5044 55.1167 88.6678 0.0000 0.0000 0.0000
# 4 0.0000 0.0000 0.0000 28.3279 0.0000 0.0000
# 5 0.0000 0.0000 0.0000 0.0000 -3.1085 0.0000
# 6 0.0000 0.0000 0.0000 0.0000 0.0000 16.0036
#
#
#
# Elastic Compliance Matrix: (Units=1/GPa)
#
#
# Indices 1 2 3 4 5 6 
#
# 1 0.018192 -0.015391 0.000231 0.000000 0.000000 0.000000
# 2 -0.015391 0.026474 -0.008558 0.000000 0.000000 0.000000
# 3 0.000231 -0.008558 0.016479 0.000000 0.000000 0.000000
# 4 0.000000 0.000000 0.000000 0.035301 0.000000 0.000000
# 5 0.000000 0.000000 0.000000 0.000000 -0.321702 0.000000
# 6 0.000000 0.000000 0.000000 0.000000 0.000000 0.062486
#
#
# Mechanical properties :
#
#
# Convention : Reuss Voigt Hill
#
# Bulk Modulus (GPa) = 72.94193 79.15407 76.04800
# Shear Modulus (GPa) = -45.14067 17.37766 -13.88150
#
# Velocity S-wave (km/s) = -5.05785 3.13818 -2.80479
# Velocity P-wave (km/s) = 2.68851 7.61502 5.71037
#
# Compressibility (1/GPa) = 0.01370954
#
# Stress axis : x y z
#
# Youngs Moduli (GPa) = 54.96932 37.77287 60.68305
#
# Poissons Ratio (x) = 0.58136 -0.01402
# Poissons Ratio (y) = 0.84604 0.51931
# Poissons Ratio (z) = -0.01270 0.32325
#
# Static dielectric constant tensor:
#      x y z
#    x 1.625490 0.000000 0.000000 
#    y 0.000000 1.611150 0.000000 
#    z 0.000000 0.000000 1.606570 
# 
# From -- ./inp_files/51475.got.cif
#   From: 2010.05.17/outbox.cif.g08.bks.cpg/sg72_26_cif.got.tgz:51475.got - 2010.06.03 17:03:01.
