data_PCOD9526040
_publ_section_title
;
Structure prediction by ZEFSAII (Michael W. Deem and Ramdas Pophale) SiO2 
 PCOD9526040
Probable space group: I B A M
;
_chemical_formula_sum "Si O2"
_cell_formula_units_Z 120
_cell_length_a 7.557744
_cell_length_b 26.859844
_cell_length_c 30.843225
_cell_angle_alpha 90.000000
_cell_angle_beta 90.000000
_cell_angle_gamma 90.000000
_cell_volume 6261.169272
_symmetry_space_group_name_H-M "I B A M"
_symmetry_group_IT_number 72
_symmetry_cell_setting 'orthorhombic'
loop_
_space_group_symop_operation_xyz
x,y,z
-x,-y,z
x,-y,1/2-z
-x,y,1/2-z
-x,-y,-z
x,y,-z
-x,y,1/2+z
x,-y,1/2+z
1/2+x,1/2+y,1/2+z
1/2-x,1/2-y,1/2+z
1/2+x,1/2-y,-z
1/2-x,1/2+y,-z
1/2-x,1/2-y,1/2-z
1/2+x,1/2+y,1/2-z
1/2-x,1/2+y,z
1/2+x,1/2-y,z
loop_
_atom_site_type_symbol
_atom_site_label
_atom_site_fract_x
_atom_site_fract_y
_atom_site_fract_z
Si Si1 0.126251 0.114109 0.117246
Si Si2 0.249241 0.814722 0.448573
Si Si3 0.092621 0.201966 0.345126
Si Si4 0.121850 0.603366 0.193736
Si Si5 0.870973 0.044414 0.161814
Si Si6 0.000000 0.500000 0.177858
Si Si7 0.761069 0.864543 0.280221
Si Si8 0.420744 0.220213 0.600976
O O1 0.165818 0.134297 0.069609
O O2 0.299047 0.100910 0.145585
O O3 0.057552 0.163356 0.141865
O O4 0.977844 0.071777 0.122981
O O5 0.250697 0.811702 0.500000
O O6 0.444182 0.810883 0.427602
O O7 0.146356 0.766725 0.428428
O O8 0.155341 0.186419 0.297684
O O9 0.252951 0.192708 0.379055
O O10 0.024460 0.256400 0.357585
O O11 0.080691 0.545819 0.204697
O O12 0.251726 0.627088 0.229140
O O13 0.938058 0.632057 0.200375
O O14 0.854108 0.087715 0.197719
O O15 0.672188 0.023733 0.153594
O O16 0.000000 0.000000 0.176320
#
# Coordination Sequence:
#
# PCOD9526040 Si02
#       8
#    16  16  16  16  16   8  16  16
#     4  10  20  34  53  79 111 143 183 222 284 335
#     4  10  19  33  57  85 112 138 175 227 283 337
#     4   9  18  33  52  78 105 149 179 224 272 327
#     4  10  19  34  52  77 108 148 178 237 271 323
#     4  10  19  34  50  78 107 145 184 226 275 322
#     4  10  20  35  52  78 107 140 194 238 275 318
#     4   9  20  32  51  77 114 144 185 224 277 318
#     4   9  18  33  56  81 111 138 181 228 276 328
#
# _framework density 19.165748000000001
#
# number of rings (size 3 to 8) (size 9 to 14) (size 15 to 20)
#    0.000    2.400    1.333    1.200    0.000    6.400 
#    2.400    0.667    0.000   27.600    0.000    0.933 
#    0.000    0.000    0.000    0.000    0.000    0.000 
#
# Total GULP energy -334294.568533 kJ/mol
# GULP energy per Si atom -5571.576142 kJ/mol
# Density = 1.912213 g / cm^3
# Si number density = 19.165748 Si / 1000 Ang^3
#
#
#
# Elastic Constant Matrix: (Units=GPa)
#
#
# Indices 1 2 3 4 5 6 
#
# 1 79.2319 15.2291 16.4976 0.0000 0.0000 0.0000
# 2 15.2291 33.6224 37.7481 0.0000 0.0000 0.0000
# 3 16.4976 37.7481 66.1782 0.0000 0.0000 0.0000
# 4 0.0000 0.0000 0.0000 12.7344 0.0000 0.0000
# 5 0.0000 0.0000 0.0000 0.0000 9.1133 0.0000
# 6 0.0000 0.0000 0.0000 0.0000 0.0000 29.0883
#
#
#
# Elastic Compliance Matrix: (Units=1/GPa)
#
#
# Indices 1 2 3 4 5 6 
#
# 1 0.013828 -0.006655 0.000349 0.000000 0.000000 0.000000
# 2 -0.006655 0.085910 -0.047344 0.000000 0.000000 0.000000
# 3 0.000349 -0.047344 0.042029 0.000000 0.000000 0.000000
# 4 0.000000 0.000000 0.000000 0.078528 0.000000 0.000000
# 5 0.000000 0.000000 0.000000 0.000000 0.109730 0.000000
# 6 0.000000 0.000000 0.000000 0.000000 0.000000 0.034378
#
#
# Mechanical properties :
#
#
# Convention : Reuss Voigt Hill
#
# Bulk Modulus (GPa) = 29.01390 35.33136 32.17263
# Shear Modulus (GPa) = 10.34786 17.49102 13.91944
#
# Velocity S-wave (km/s) = 2.32613 3.02424 2.69786
# Velocity P-wave (km/s) = 4.73136 5.53799 5.15049
#
# Compressibility (1/GPa) = 0.03446623
#
# Stress axis : x y z
#
# Youngs Moduli (GPa) = 72.31880 11.64011 23.79311
#
# Poissons Ratio (x) = 0.07746 -0.00830
# Poissons Ratio (y) = 0.48126 1.12646
# Poissons Ratio (z) = -0.02522 0.55109
#
# Static dielectric constant tensor:
#      x y z
#    x 1.754870 0.000000 0.000000 
#    y 0.000000 1.690790 0.000000 
#    z 0.000000 0.000000 1.642730 
# 
# From -- ./inp_files/47685.got.cif
#   From: 2010.05.17/outbox.cif.g08.bks.cpg/sg72_24_cif.got.tgz:47685.got - 2010.06.03 17:03:01.
