data_PCOD9526036
_publ_section_title
;
Structure prediction by ZEFSAII (Michael W. Deem and Ramdas Pophale) SiO2 
 PCOD9526036
Probable space group: I B A M
;
_chemical_formula_sum "Si O2"
_cell_formula_units_Z 80
_cell_length_a 26.398148
_cell_length_b 11.387040
_cell_length_c 14.362046
_cell_angle_alpha 90.000000
_cell_angle_beta 90.000000
_cell_angle_gamma 90.000000
_cell_volume 4317.184598
_symmetry_space_group_name_H-M "I B A M"
_symmetry_group_IT_number 72
_symmetry_cell_setting 'orthorhombic'
loop_
_space_group_symop_operation_xyz
x,y,z
-x,-y,z
x,-y,1/2-z
-x,y,1/2-z
-x,-y,-z
x,y,-z
-x,y,1/2+z
x,-y,1/2+z
1/2+x,1/2+y,1/2+z
1/2-x,1/2-y,1/2+z
1/2+x,1/2-y,-z
1/2-x,1/2+y,-z
1/2-x,1/2-y,1/2-z
1/2+x,1/2+y,1/2-z
1/2-x,1/2+y,z
1/2+x,1/2-y,z
loop_
_atom_site_type_symbol
_atom_site_label
_atom_site_fract_x
_atom_site_fract_y
_atom_site_fract_z
Si Si1 0.690161 0.055906 0.104316
Si Si2 0.443318 0.694632 0.266481
Si Si3 0.585521 0.516779 0.394527
Si Si4 0.695905 0.431395 0.346735
Si Si5 0.157321 0.677861 0.790513
O O1 0.751125 0.054444 0.102237
O O2 0.673960 0.146478 0.185227
O O3 0.671134 0.930552 0.143177
O O4 0.671176 0.080631 0.000000
O O5 0.500000 0.736920 0.250000
O O6 0.442184 0.594999 0.347168
O O7 0.424123 0.625166 0.174547
O O8 0.402213 0.792584 0.290545
O O9 0.569322 0.537517 0.500000
O O10 0.645225 0.484062 0.392255
O O11 0.701815 0.500000 0.250000
O O12 0.685054 0.295204 0.325266
#
# Coordination Sequence:
#
# PCOD9526036 Si02
#       5
#    16  16  16  16  16
#     4  11  24  38  59  85 115 158 195 232 280 332
#     4  10  21  37  57  81 112 152 191 238 292 333
#     4  10  19  33  56  89 121 146 180 229 288 355
#     4  11  19  38  60  87 121 150 181 226 286 349
#     4  10  22  41  58  81 119 150 192 242 277 342
#
# _framework density 18.530595999999999
#
# number of rings (size 3 to 8) (size 9 to 14) (size 15 to 20)
#    0.000    1.600    6.000    2.400    0.000    6.400 
#    0.000    2.000    0.000    1.200    0.000    0.000 
#    0.000    0.000    0.000    0.000    0.000    0.000 
#
# Total GULP energy -223332.972466 kJ/mol
# GULP energy per Si atom -5583.324312 kJ/mol
# Density = 1.848842 g / cm^3
# Si number density = 18.530596 Si / 1000 Ang^3
#
#
#
# Elastic Constant Matrix: (Units=GPa)
#
#
# Indices 1 2 3 4 5 6 
#
# 1 123.6261 49.3581 8.3307 0.0000 0.0000 0.0000
# 2 49.3581 62.8344 19.7706 0.0000 0.0000 0.0000
# 3 8.3307 19.7706 113.6682 0.0000 0.0000 0.0000
# 4 0.0000 0.0000 0.0000 -1.6606 0.0000 0.0000
# 5 0.0000 0.0000 0.0000 0.0000 -5.7501 0.0000
# 6 0.0000 0.0000 0.0000 0.0000 0.0000 15.9434
#
#
#
# Elastic Compliance Matrix: (Units=1/GPa)
#
#
# Indices 1 2 3 4 5 6 
#
# 1 0.011852 -0.009560 0.000794 0.000000 0.000000 0.000000
# 2 -0.009560 0.024548 -0.003569 0.000000 0.000000 0.000000
# 3 0.000794 -0.003569 0.009360 0.000000 0.000000 0.000000
# 4 0.000000 0.000000 0.000000 -0.602180 0.000000 0.000000
# 5 0.000000 0.000000 0.000000 0.000000 -0.173909 0.000000
# 6 0.000000 0.000000 0.000000 0.000000 0.000000 0.062722
#
#
# Mechanical properties :
#
#
# Convention : Reuss Voigt Hill
#
# Bulk Modulus (GPa) = 47.41575 50.56084 48.98829
# Shear Modulus (GPa) = -7.86278 16.55114 4.34418
#
# Velocity S-wave (km/s) = -2.06212 2.99185 1.53278
# Velocity P-wave (km/s) = 4.46918 6.26731 5.44301
#
# Compressibility (1/GPa) = 0.02109004
#
# Stress axis : x y z
#
# Youngs Moduli (GPa) = 84.37152 40.73710 106.83651
#
# Poissons Ratio (x) = 0.38946 -0.08485
# Poissons Ratio (y) = 0.80661 0.38130
# Poissons Ratio (z) = -0.06701 0.14539
#
# Static dielectric constant tensor:
#      x y z
#    x 1.656770 0.000000 0.000000 
#    y 0.000000 1.615650 0.000000 
#    z 0.000000 0.000000 1.660450 
# 
# From -- ./inp_files/20414.got.cif
#   From: 2010.05.17/outbox.cif.g08.bks.cpg/sg72_11_cif.got.tgz:20414.got - 2010.06.03 17:03:01.
