data_PCOD9526688
_publ_section_title
;
Structure prediction by ZEFSAII (Michael W. Deem and Ramdas Pophale) SiO2 
 PCOD9526688
Probable space group: I B A M
;
_chemical_formula_sum "Si O2"
_cell_formula_units_Z 64
_cell_length_a 42.867705
_cell_length_b 9.692599
_cell_length_c 8.632725
_cell_angle_alpha 90.000000
_cell_angle_beta 90.000000
_cell_angle_gamma 90.000000
_cell_volume 3586.892702
_symmetry_space_group_name_H-M "I B A M"
_symmetry_group_IT_number 72
_symmetry_cell_setting 'orthorhombic'
loop_
_space_group_symop_operation_xyz
x,y,z
-x,-y,z
x,-y,1/2-z
-x,y,1/2-z
-x,-y,-z
x,y,-z
-x,y,1/2+z
x,-y,1/2+z
1/2+x,1/2+y,1/2+z
1/2-x,1/2-y,1/2+z
1/2+x,1/2-y,-z
1/2-x,1/2+y,-z
1/2-x,1/2-y,1/2-z
1/2+x,1/2+y,1/2-z
1/2-x,1/2+y,z
1/2+x,1/2-y,z
loop_
_atom_site_type_symbol
_atom_site_label
_atom_site_fract_x
_atom_site_fract_y
_atom_site_fract_z
Si Si1 0.468384 0.656192 0.184754
Si Si2 0.344471 0.845632 0.314738
Si Si3 0.277433 0.154918 0.685616
Si Si4 0.899252 0.843886 0.813605
O O1 0.467865 0.500000 0.250000
O O2 0.500000 0.723372 0.250000
O O3 0.434091 0.712691 0.225206
O O4 0.470861 0.650269 0.000000
O O5 0.342598 0.850053 0.500000
O O6 0.311270 0.796773 0.246363
O O7 0.372344 0.748379 0.259418
O O8 0.349461 0.000000 0.250000
O O9 0.277301 0.152996 0.500000
O O10 0.250000 0.250000 0.750000
O O11 0.273315 0.000000 0.750000
O O12 0.897062 0.000000 0.750000
O O13 0.896415 0.846465 0.000000
#
# Coordination Sequence:
#
# PCOD9526688 Si02
#       4
#    16  16  16  16
#     4   9  16  26  44  69 101 135 171 213 262 312
#     4  11  22  38  58  80 107 143 179 216 263 318
#     4  11  22  39  60  84 111 141 177 218 262 313
#     4  10  20  34  52  79 109 140 178 223 267 313
#
# _framework density 17.842741
#
# number of rings (size 3 to 8) (size 9 to 14) (size 15 to 20)
#    0.000    1.750    0.000    8.250    0.000    4.000 
#    0.000    5.000    0.000    0.750    0.000    5.250 
#    0.000    0.000    0.000    0.000    0.000    0.000 
#
# Total GULP energy -178591.303014 kJ/mol
# GULP energy per Si atom -5580.978219 kJ/mol
# Density = 1.780213 g / cm^3
# Si number density = 17.842741 Si / 1000 Ang^3
#
#
#
# Elastic Constant Matrix: (Units=GPa)
#
#
# Indices 1 2 3 4 5 6 
#
# 1 219.7997 77.1475 91.6288 0.0000 0.0000 0.0000
# 2 77.1475 42.1501 36.2569 0.0000 0.0000 0.0000
# 3 91.6288 36.2569 160.2574 0.0000 0.0000 0.0000
# 4 0.0000 0.0000 0.0000 26.8923 0.0000 0.0000
# 5 0.0000 0.0000 0.0000 0.0000 34.4041 0.0000
# 6 0.0000 0.0000 0.0000 0.0000 0.0000 24.9661
#
#
#
# Elastic Compliance Matrix: (Units=1/GPa)
#
#
# Indices 1 2 3 4 5 6 
#
# 1 0.013578 -0.022565 -0.002658 0.000000 0.000000 0.000000
# 2 -0.022565 0.066958 -0.002247 0.000000 0.000000 0.000000
# 3 -0.002658 -0.002247 0.008268 0.000000 0.000000 0.000000
# 4 0.000000 0.000000 0.000000 0.037185 0.000000 0.000000
# 5 0.000000 0.000000 0.000000 0.000000 0.029066 0.000000
# 6 0.000000 0.000000 0.000000 0.000000 0.000000 0.040054
#
#
# Mechanical properties :
#
#
# Convention : Reuss Voigt Hill
#
# Bulk Modulus (GPa) = 29.52984 92.47483 61.00234
# Shear Modulus (GPa) = 19.13230 31.73078 25.43154
#
# Velocity S-wave (km/s) = 3.27811 4.22163 3.77943
# Velocity P-wave (km/s) = 5.56004 8.70075 7.30127
#
# Compressibility (1/GPa) = 0.03386405
#
# Stress axis : x y z
#
# Youngs Moduli (GPa) = 73.64988 14.93468 120.94650
#
# Poissons Ratio (x) = 0.33700 0.32149
# Poissons Ratio (y) = 1.66191 0.27177
# Poissons Ratio (z) = 0.19577 0.03356
#
# Static dielectric constant tensor:
#      x y z
#    x 1.647880 0.000000 0.000000 
#    y 0.000000 1.576880 0.000000 
#    z 0.000000 0.000000 1.593560 
# 
# From -- ./inp_files/8874.got.cif
#   From: 2010.05.17/outbox.cif.g08.bks.cpg/sg72_5_cif.got.tgz:8874.got - 2010.06.03 17:03:01.
