data_PCOD9526063
_publ_section_title
;
Structure prediction by ZEFSAII (Michael W. Deem and Ramdas Pophale) SiO2 
 PCOD9526063
Probable space group: I B A M
;
_chemical_formula_sum "Si O2"
_cell_formula_units_Z 88
_cell_length_a 19.612417
_cell_length_b 9.934699
_cell_length_c 21.400541
_cell_angle_alpha 90.000000
_cell_angle_beta 90.000000
_cell_angle_gamma 90.000000
_cell_volume 4169.755445
_symmetry_space_group_name_H-M "I B A M"
_symmetry_group_IT_number 72
_symmetry_cell_setting 'orthorhombic'
loop_
_space_group_symop_operation_xyz
x,y,z
-x,-y,z
x,-y,1/2-z
-x,y,1/2-z
-x,-y,-z
x,y,-z
-x,y,1/2+z
x,-y,1/2+z
1/2+x,1/2+y,1/2+z
1/2-x,1/2-y,1/2+z
1/2+x,1/2-y,-z
1/2-x,1/2+y,-z
1/2-x,1/2-y,1/2-z
1/2+x,1/2+y,1/2-z
1/2-x,1/2+y,z
1/2+x,1/2-y,z
loop_
_atom_site_type_symbol
_atom_site_label
_atom_site_fract_x
_atom_site_fract_y
_atom_site_fract_z
Si Si1 0.152637 0.561296 0.685790
Si Si2 0.342501 0.680394 0.885513
Si Si3 0.111579 0.910790 0.927533
Si Si4 0.488877 0.764569 0.070054
Si Si5 0.693564 0.132203 0.570631
Si Si6 0.000000 0.500000 0.659657
O O1 0.181735 0.500000 0.750000
O O2 0.168570 0.718224 0.672510
O O3 0.176569 0.475406 0.625026
O O4 0.070324 0.546502 0.690560
O O5 0.363858 0.523998 0.879504
O O6 0.408918 0.742693 0.919404
O O7 0.272625 0.673094 0.923321
O O8 0.152457 0.771302 0.920915
O O9 0.033075 0.868863 0.920544
O O10 0.121579 0.958318 0.000000
O O11 0.517904 0.874173 0.116574
O O12 0.501273 0.811182 0.000000
O O13 0.679830 0.080556 0.500000
#
# Coordination Sequence:
#
# PCOD9526063 Si02
#       6
#    16  16  16  16  16   8
#     4  11  25  44  66  93 128 175 225 269 322 390
#     4  11  23  37  61  92 127 168 211 265 330 394
#     4  10  20  36  58  92 134 165 204 269 334 389
#     4  10  19  33  59  94 128 164 210 267 329 392
#     4  11  23  41  65  96 132 169 213 271 334 397
#     4  10  20  38  64  88 123 170 225 266 317 380
#
# _framework density 21.104355999999999
#
# number of rings (size 3 to 8) (size 9 to 14) (size 15 to 20)
#    0.000    1.455    1.818    3.818    0.000    8.000 
#    0.000    0.909    0.000    0.000    0.000    0.000 
#    0.000    0.000    0.000    0.000    0.000    0.000 
#
# Total GULP energy -245467.996827 kJ/mol
# GULP energy per Si atom -5578.818110 kJ/mol
# Density = 2.105632 g / cm^3
# Si number density = 21.104356 Si / 1000 Ang^3
#
#
#
# Elastic Constant Matrix: (Units=GPa)
#
#
# Indices 1 2 3 4 5 6 
#
# 1 69.2979 11.8615 9.4468 0.0000 0.0000 0.0000
# 2 11.8615 100.1534 53.1507 0.0000 0.0000 0.0000
# 3 9.4468 53.1507 103.1274 0.0000 0.0000 0.0000
# 4 0.0000 0.0000 0.0000 15.2553 0.0000 0.0000
# 5 0.0000 0.0000 0.0000 0.0000 11.7995 0.0000
# 6 0.0000 0.0000 0.0000 0.0000 0.0000 23.7219
#
#
#
# Elastic Compliance Matrix: (Units=1/GPa)
#
#
# Indices 1 2 3 4 5 6 
#
# 1 0.014758 -0.001418 -0.000621 0.000000 0.000000 0.000000
# 2 -0.001418 0.013880 -0.007024 0.000000 0.000000 0.000000
# 3 -0.000621 -0.007024 0.013374 0.000000 0.000000 0.000000
# 4 0.000000 0.000000 0.000000 0.065551 0.000000 0.000000
# 5 0.000000 0.000000 0.000000 0.000000 0.084749 0.000000
# 6 0.000000 0.000000 0.000000 0.000000 0.000000 0.042155
#
#
# Mechanical properties :
#
#
# Convention : Reuss Voigt Hill
#
# Bulk Modulus (GPa) = 41.86612 46.83298 44.34955
# Shear Modulus (GPa) = 19.18985 23.36333 21.27659
#
# Velocity S-wave (km/s) = 3.01870 3.33083 3.17860
# Velocity P-wave (km/s) = 5.65958 6.08538 5.87634
#
# Compressibility (1/GPa) = 0.02388566
#
# Stress axis : x y z
#
# Youngs Moduli (GPa) = 67.76049 72.04559 74.77434
#
# Poissons Ratio (x) = 0.10218 0.04643
# Poissons Ratio (y) = 0.09611 0.52519
# Poissons Ratio (z) = 0.04207 0.50603
#
# Static dielectric constant tensor:
#      x y z
#    x 1.798820 0.000000 0.000000 
#    y 0.000000 1.798760 0.000000 
#    z 0.000000 0.000000 1.772410 
# 
# From -- ./inp_files/45247.got.cif
#   From: 2010.05.17/outbox.cif.g08.bks.cpg/sg72_23_cif.got.tgz:45247.got - 2010.06.03 17:03:01.
