data_PCOD9526342
_publ_section_title
;
Structure prediction by ZEFSAII (Michael W. Deem and Ramdas Pophale) SiO2 
 PCOD9526342
Probable space group: I B A M
;
_chemical_formula_sum "Si O2"
_cell_formula_units_Z 128
_cell_length_a 20.777182
_cell_length_b 17.830620
_cell_length_c 19.446242
_cell_angle_alpha 90.000000
_cell_angle_beta 90.000000
_cell_angle_gamma 90.000000
_cell_volume 7204.249992
_symmetry_space_group_name_H-M "I B A M"
_symmetry_group_IT_number 72
_symmetry_cell_setting 'orthorhombic'
loop_
_space_group_symop_operation_xyz
x,y,z
-x,-y,z
x,-y,1/2-z
-x,y,1/2-z
-x,-y,-z
x,y,-z
-x,y,1/2+z
x,-y,1/2+z
1/2+x,1/2+y,1/2+z
1/2-x,1/2-y,1/2+z
1/2+x,1/2-y,-z
1/2-x,1/2+y,-z
1/2-x,1/2-y,1/2-z
1/2+x,1/2+y,1/2-z
1/2-x,1/2+y,z
1/2+x,1/2-y,z
loop_
_atom_site_type_symbol
_atom_site_label
_atom_site_fract_x
_atom_site_fract_y
_atom_site_fract_z
Si Si1 0.383438 0.826835 0.582722
Si Si2 0.400196 0.316797 0.709166
Si Si3 0.700488 0.196622 0.789351
Si Si4 0.617197 0.568912 0.924181
Si Si5 0.329291 0.060599 0.807578
Si Si6 0.962384 0.812916 0.641715
Si Si7 0.222791 0.798402 0.924016
Si Si8 0.685835 0.541165 0.677054
O O1 0.392200 0.842813 0.500000
O O2 0.374362 0.898351 0.634527
O O3 0.437005 0.766015 0.609329
O O4 0.317387 0.778005 0.588835
O O5 0.367743 0.236142 0.707667
O O6 0.422271 0.328727 0.787966
O O7 0.463392 0.315036 0.662520
O O8 0.346488 0.377150 0.686438
O O9 0.750000 0.250000 0.750000
O O10 0.695336 0.123830 0.744308
O O11 0.726972 0.185722 0.865100
O O12 0.554069 0.616280 0.905802
O O13 0.671277 0.634438 0.922826
O O14 0.639845 0.505578 0.872680
O O15 0.612830 0.536928 0.000000
O O16 0.261455 0.036997 0.843945
O O17 0.354752 0.000000 0.750000
O O18 0.251530 0.794008 0.000000
O O19 0.683645 0.500000 0.750000
#
# Coordination Sequence:
#
# PCOD9526342 Si02
#       8
#    16  16  16  16  16  16  16  16
#     4  10  19  36  59  81 112 148 192 242 289 341
#     4  11  21  33  58  81 110 147 197 244 277 339
#     4  12  18  35  58  81 115 149 184 246 303 343
#     4  10  20  36  54  77 119 160 193 231 284 345
#     4  11  22  33  57  90 120 145 191 245 299 356
#     4  10  20  37  54  83 107 150 204 237 273 335
#     4   9  17  30  53  80 105 148 191 229 288 349
#     4  11  20  33  51  84 119 155 191 238 289 344
#
# _framework density 17.767289999999999
#
# number of rings (size 3 to 8) (size 9 to 14) (size 15 to 20)
#    0.000    1.500    5.000    3.375    0.000    1.000 
#    0.000    4.375    0.000    1.500    0.000    0.875 
#    0.000    0.000    0.000    0.000    0.000    0.000 
#
# Total GULP energy -356573.571802 kJ/mol
# GULP energy per Si atom -5571.462059 kJ/mol
# Density = 1.772685 g / cm^3
# Si number density = 17.767290 Si / 1000 Ang^3
#
#
#
# Elastic Constant Matrix: (Units=GPa)
#
#
# Indices 1 2 3 4 5 6 
#
# 1 31.6973 -4.9470 4.3397 0.0000 0.0000 0.0000
# 2 -4.9470 56.4445 16.8756 0.0000 0.0000 0.0000
# 3 4.3397 16.8756 78.2712 0.0000 0.0000 0.0000
# 4 0.0000 0.0000 0.0000 25.8197 0.0000 0.0000
# 5 0.0000 0.0000 0.0000 0.0000 22.1256 0.0000
# 6 0.0000 0.0000 0.0000 0.0000 0.0000 -59.0134
#
#
#
# Elastic Compliance Matrix: (Units=1/GPa)
#
#
# Indices 1 2 3 4 5 6 
#
# 1 0.032466 0.003617 -0.002580 0.000000 0.000000 0.000000
# 2 0.003617 0.019340 -0.004370 0.000000 0.000000 0.000000
# 3 -0.002580 -0.004370 0.013861 0.000000 0.000000 0.000000
# 4 0.000000 0.000000 0.000000 0.038730 0.000000 0.000000
# 5 0.000000 0.000000 0.000000 0.000000 0.045197 0.000000
# 6 0.000000 0.000000 0.000000 0.000000 0.000000 -0.016945
#
#
# Mechanical properties :
#
#
# Convention : Reuss Voigt Hill
#
# Bulk Modulus (GPa) = 16.94896 22.10553 19.52724
# Shear Modulus (GPa) = 31.44995 7.79603 19.62299
#
# Velocity S-wave (km/s) = 4.21182 2.09699 3.32692
# Velocity P-wave (km/s) = 5.76305 4.28157 5.07664
#
# Compressibility (1/GPa) = 0.05900069
#
# Stress axis : x y z
#
# Youngs Moduli (GPa) = 30.80139 51.70600 72.14286
#
# Poissons Ratio (x) = -0.18701 0.18612
# Poissons Ratio (y) = -0.11140 0.31529
# Poissons Ratio (z) = 0.07946 0.22597
#
# Static dielectric constant tensor:
#      x y z
#    x 1.628100 0.000000 0.000000 
#    y 0.000000 1.616210 0.000000 
#    z 0.000000 0.000000 1.625470 
# 
# From -- ./inp_files/39933.got.cif
#   From: 2010.05.17/outbox.cif.g08.bks.cpg/sg72_20_cif.got.tgz:39933.got - 2010.06.03 17:03:01.
