data_PCOD9526871
_publ_section_title
;
Structure prediction by ZEFSAII (Michael W. Deem and Ramdas Pophale) SiO2 
 PCOD9526871
Probable space group: I B A M
;
_chemical_formula_sum "Si O2"
_cell_formula_units_Z 116
_cell_length_a 32.312849
_cell_length_b 23.007778
_cell_length_c 8.549537
_cell_angle_alpha 90.000000
_cell_angle_beta 90.000000
_cell_angle_gamma 90.000000
_cell_volume 6356.126406
_symmetry_space_group_name_H-M "I B A M"
_symmetry_group_IT_number 72
_symmetry_cell_setting 'orthorhombic'
loop_
_space_group_symop_operation_xyz
x,y,z
-x,-y,z
x,-y,1/2-z
-x,y,1/2-z
-x,-y,-z
x,y,-z
-x,y,1/2+z
x,-y,1/2+z
1/2+x,1/2+y,1/2+z
1/2-x,1/2-y,1/2+z
1/2+x,1/2-y,-z
1/2-x,1/2+y,-z
1/2-x,1/2-y,1/2-z
1/2+x,1/2+y,1/2-z
1/2-x,1/2+y,z
1/2+x,1/2-y,z
loop_
_atom_site_type_symbol
_atom_site_label
_atom_site_fract_x
_atom_site_fract_y
_atom_site_fract_z
Si Si1 0.102048 0.171890 0.810541
Si Si2 0.339680 0.936642 0.688069
Si Si3 0.500000 0.000000 0.750000
Si Si4 0.569856 0.902733 0.312361
Si Si5 0.216816 0.670617 0.188912
Si Si6 0.545844 0.564118 0.312244
Si Si7 0.545689 0.224246 0.313267
Si Si8 0.192521 0.794808 0.688695
O O1 0.078394 0.113234 0.762757
O O2 0.077587 0.227146 0.744581
O O3 0.149914 0.175380 0.760678
O O4 0.100736 0.174794 0.000000
O O5 0.341328 0.937631 0.500000
O O6 0.385033 0.920633 0.751588
O O7 0.307456 0.886860 0.738640
O O8 0.327958 0.000000 0.750000
O O9 0.463969 0.050676 0.742922
O O10 0.569400 0.902791 0.500000
O O11 0.558501 0.838902 0.250696
O O12 0.194893 0.728703 0.251464
O O13 0.264820 0.674374 0.239980
O O14 0.215997 0.672598 0.000000
O O15 0.556330 0.500000 0.250000
O O16 0.500000 0.578888 0.250000
O O17 0.544276 0.562254 0.500000
O O18 0.500000 0.238457 0.250000
O O19 0.544899 0.222425 0.500000
O O20 0.192774 0.793579 0.500000
#
# Coordination Sequence:
#
# PCOD9526871 Si02
#       8
#    16  16   4  16  16  16  16  16
#     4  10  21  37  58  85 115 148 187 233 287 339
#     4  11  23  38  57  82 113 147 189 235 282 335
#     4  12  26  40  64  82 110 152 196 240 282 332
#     4  12  25  41  61  83 113 151 197 243 288 337
#     4   9  19  36  57  82 110 142 180 226 277 331
#     4  10  20  35  56  81 110 146 186 225 270 329
#     4  12  25  39  57  82 116 153 193 238 285 336
#     4   9  18  35  59  83 109 141 179 225 278 335
#
# _framework density 18.250108999999998
#
# number of rings (size 3 to 8) (size 9 to 14) (size 15 to 20)
#    0.000    1.517    1.379    4.345    0.000    7.172 
#    0.000    0.690    0.000    0.000    0.000    0.000 
#    0.000    0.000    0.000    0.000    0.000    0.000 
#
# Total GULP energy -323578.490724 kJ/mol
# GULP energy per Si atom -5578.939495 kJ/mol
# Density = 1.820857 g / cm^3
# Si number density = 18.250109 Si / 1000 Ang^3
#
#
#
# Elastic Constant Matrix: (Units=GPa)
#
#
# Indices 1 2 3 4 5 6 
#
# 1 165.8400 125.4422 39.8013 0.0000 0.0000 0.0000
# 2 125.4422 139.1682 34.6319 0.0000 0.0000 0.0000
# 3 39.8013 34.6319 63.3646 0.0000 0.0000 0.0000
# 4 0.0000 0.0000 0.0000 22.5066 0.0000 0.0000
# 5 0.0000 0.0000 0.0000 0.0000 15.1774 0.0000
# 6 0.0000 0.0000 0.0000 0.0000 0.0000 -98.3440
#
#
#
# Elastic Compliance Matrix: (Units=1/GPa)
#
#
# Indices 1 2 3 4 5 6 
#
# 1 0.019446 -0.016769 -0.003049 0.000000 0.000000 0.000000
# 2 -0.016769 0.022778 -0.001916 0.000000 0.000000 0.000000
# 3 -0.003049 -0.001916 0.018744 0.000000 0.000000 0.000000
# 4 0.000000 0.000000 0.000000 0.044431 0.000000 0.000000
# 5 0.000000 0.000000 0.000000 0.000000 0.065887 0.000000
# 6 0.000000 0.000000 0.000000 0.000000 0.000000 -0.010168
#
#
# Mechanical properties :
#
#
# Convention : Reuss Voigt Hill
#
# Bulk Modulus (GPa) = 57.14655 85.34708 71.24681
# Shear Modulus (GPa) = 23.76188 -0.89884 11.43152
#
# Velocity S-wave (km/s) = 3.61226 -0.70255 2.50548
# Velocity P-wave (km/s) = 6.98418 6.79769 6.89157
#
# Compressibility (1/GPa) = 0.01749887
#
# Stress axis : x y z
#
# Youngs Moduli (GPa) = 51.42377 43.90242 53.34981
#
# Poissons Ratio (x) = 0.73622 0.16269
# Poissons Ratio (y) = 0.86235 0.10221
# Poissons Ratio (z) = 0.15682 0.08411
#
# Static dielectric constant tensor:
#      x y z
#    x 1.617610 0.000000 0.000000 
#    y 0.000000 1.584180 0.000000 
#    z 0.000000 0.000000 1.633960 
# 
# From -- ./inp_files/9355.got.cif
#   From: 2010.05.17/outbox.cif.g08.bks.cpg/sg72_5_cif.got.tgz:9355.got - 2010.06.03 17:03:01.
