data_PCOD9526962
_publ_section_title
;
Structure prediction by ZEFSAII (Michael W. Deem and Ramdas Pophale) SiO2 
 PCOD9526962
Probable space group: I B A M
;
_chemical_formula_sum "Si O2"
_cell_formula_units_Z 88
_cell_length_a 27.525196
_cell_length_b 11.571229
_cell_length_c 15.007035
_cell_angle_alpha 90.000000
_cell_angle_beta 90.000000
_cell_angle_gamma 90.000000
_cell_volume 4779.745843
_symmetry_space_group_name_H-M "I B A M"
_symmetry_group_IT_number 72
_symmetry_cell_setting 'orthorhombic'
loop_
_space_group_symop_operation_xyz
x,y,z
-x,-y,z
x,-y,1/2-z
-x,y,1/2-z
-x,-y,-z
x,y,-z
-x,y,1/2+z
x,-y,1/2+z
1/2+x,1/2+y,1/2+z
1/2-x,1/2-y,1/2+z
1/2+x,1/2-y,-z
1/2-x,1/2+y,-z
1/2-x,1/2-y,1/2-z
1/2+x,1/2+y,1/2-z
1/2-x,1/2+y,z
1/2+x,1/2-y,z
loop_
_atom_site_type_symbol
_atom_site_label
_atom_site_fract_x
_atom_site_fract_y
_atom_site_fract_z
Si Si1 0.890521 0.771995 0.359716
Si Si2 0.995867 0.132109 0.858413
Si Si3 0.770711 0.132349 0.500000
Si Si4 0.843624 0.657301 0.000000
Si Si5 0.841442 0.385192 0.000000
Si Si6 0.668960 0.503549 0.646938
Si Si7 0.401463 0.280473 0.350193
O O1 0.870509 0.664936 0.415302
O O2 0.895050 0.749972 0.253742
O O3 0.944648 0.813719 0.385858
O O4 0.853129 0.878484 0.375886
O O5 0.043309 0.205221 0.881985
O O6 0.000000 0.127380 0.750000
O O7 0.000000 0.000000 0.889902
O O8 0.797959 0.255678 0.500000
O O9 0.714019 0.157174 0.500000
O O10 0.789742 0.056429 0.416123
O O11 0.873780 0.692622 0.087102
O O12 0.835478 0.522250 0.000000
O O13 0.684841 0.500000 0.750000
O O14 0.624153 0.593959 0.640315
#
# Coordination Sequence:
#
# PCOD9526962 Si02
#       7
#    16  16   8   8   8  16  16
#     4  10  20  35  60  93 122 146 194 243 295 345
#     4   9  15  30  60  95 125 150 185 238 298 350
#     4  10  23  42  60  81 111 156 197 252 304 341
#     4  10  24  43  56  78 117 159 201 233 299 355
#     4  12  27  41  56  80 115 160 202 252 285 344
#     4   9  17  35  62  91 117 143 186 243 305 355
#     4   9  18  37  61  88 122 156 181 237 296 359
#
# _framework density 18.411021000000002
#
# number of rings (size 3 to 8) (size 9 to 14) (size 15 to 20)
#    0.000    2.364    1.818    0.545    2.545    1.455 
#    3.273    5.455    0.000    3.273    0.000    0.000 
#    0.000    0.000    0.000    0.000    0.000    0.000 
#
# Total GULP energy -245486.936794 kJ/mol
# GULP energy per Si atom -5579.248564 kJ/mol
# Density = 1.836912 g / cm^3
# Si number density = 18.411021 Si / 1000 Ang^3
#
#
#
# Elastic Constant Matrix: (Units=GPa)
#
#
# Indices 1 2 3 4 5 6 
#
# 1 129.9716 44.7370 42.4676 0.0000 0.0000 0.0000
# 2 44.7370 91.5049 34.3896 0.0000 0.0000 0.0000
# 3 42.4676 34.3896 70.3060 0.0000 0.0000 0.0000
# 4 0.0000 0.0000 0.0000 13.9806 0.0000 0.0000
# 5 0.0000 0.0000 0.0000 0.0000 5.7705 0.0000
# 6 0.0000 0.0000 0.0000 0.0000 0.0000 14.0946
#
#
#
# Elastic Compliance Matrix: (Units=1/GPa)
#
#
# Indices 1 2 3 4 5 6 
#
# 1 0.010349 -0.003321 -0.004627 0.000000 0.000000 0.000000
# 2 -0.003321 0.014455 -0.005065 0.000000 0.000000 0.000000
# 3 -0.004627 -0.005065 0.019496 0.000000 0.000000 0.000000
# 4 0.000000 0.000000 0.000000 0.071527 0.000000 0.000000
# 5 0.000000 0.000000 0.000000 0.000000 0.173295 0.000000
# 6 0.000000 0.000000 0.000000 0.000000 0.000000 0.070949
#
#
# Mechanical properties :
#
#
# Convention : Reuss Voigt Hill
#
# Bulk Modulus (GPa) = 54.71908 59.44119 57.08013
# Shear Modulus (GPa) = 12.74900 18.11504 15.43202
#
# Velocity S-wave (km/s) = 2.63433 3.14016 2.89830
# Velocity P-wave (km/s) = 6.24806 6.74561 6.50160
#
# Compressibility (1/GPa) = 0.01827516
#
# Stress axis : x y z
#
# Youngs Moduli (GPa) = 96.62990 69.17837 51.29321
#
# Poissons Ratio (x) = 0.22972 0.23732
# Poissons Ratio (y) = 0.32088 0.25980
# Poissons Ratio (z) = 0.44708 0.35038
#
# Static dielectric constant tensor:
#      x y z
#    x 1.620370 0.000000 0.000000 
#    y 0.000000 1.602450 0.000000 
#    z 0.000000 0.000000 1.667350 
# 
# From -- ./inp_files/26281.got.cif
#   From: 2010.05.17/outbox.cif.g08.bks.cpg/sg72_14_cif.got.tgz:26281.got - 2010.06.03 17:03:01.
