data_PCOD9526677
_publ_section_title
;
Structure prediction by ZEFSAII (Michael W. Deem and Ramdas Pophale) SiO2 
 PCOD9526677
Probable space group: I B A M
;
_chemical_formula_sum "Si O2"
_cell_formula_units_Z 96
_cell_length_a 29.454798
_cell_length_b 18.730821
_cell_length_c 8.786449
_cell_angle_alpha 90.000000
_cell_angle_beta 90.000000
_cell_angle_gamma 90.000000
_cell_volume 4847.594174
_symmetry_space_group_name_H-M "I B A M"
_symmetry_group_IT_number 72
_symmetry_cell_setting 'orthorhombic'
loop_
_space_group_symop_operation_xyz
x,y,z
-x,-y,z
x,-y,1/2-z
-x,y,1/2-z
-x,-y,-z
x,y,-z
-x,y,1/2+z
x,-y,1/2+z
1/2+x,1/2+y,1/2+z
1/2-x,1/2-y,1/2+z
1/2+x,1/2-y,-z
1/2-x,1/2+y,-z
1/2-x,1/2-y,1/2-z
1/2+x,1/2+y,1/2-z
1/2-x,1/2+y,z
1/2+x,1/2-y,z
loop_
_atom_site_type_symbol
_atom_site_label
_atom_site_fract_x
_atom_site_fract_y
_atom_site_fract_z
Si Si1 0.353482 0.669965 0.814862
Si Si2 0.202051 0.691465 0.671827
Si Si3 0.046158 0.623323 0.179221
Si Si4 0.866966 0.563400 0.830668
Si Si5 0.548989 0.709011 0.816195
Si Si6 0.777128 0.078715 0.185064
O O1 0.322878 0.738828 0.761718
O O2 0.405006 0.675560 0.753157
O O3 0.326283 0.602984 0.746789
O O4 0.354262 0.669661 0.000000
O O5 0.216977 0.711692 0.500000
O O6 0.162066 0.634185 0.662739
O O7 0.242717 0.642825 0.738802
O O8 0.088655 0.579925 0.236304
O O9 0.051810 0.706555 0.225084
O O10 0.000000 0.595602 0.250000
O O11 0.042812 0.621485 0.000000
O O12 0.840309 0.500000 0.750000
O O13 0.879027 0.541535 0.000000
O O14 0.500000 0.683800 0.750000
O O15 0.548915 0.702190 0.000000
O O16 0.766544 0.000000 0.250000
O O17 0.774955 0.076676 0.000000
#
# Coordination Sequence:
#
# PCOD9526677 Si02
#       6
#    16  16  16  16  16  16
#     4  11  21  38  63  92 122 158 199 247 299 353
#     4   9  20  37  59  85 117 154 199 246 293 346
#     4  10  20  34  52  75 104 143 189 239 294 349
#     4  11  21  35  52  75 108 149 193 243 294 349
#     4  10  20  35  58  89 121 155 195 244 297 354
#     4  11  23  41  61  88 122 160 201 247 300 358
#
# _framework density 19.803637999999999
#
# number of rings (size 3 to 8) (size 9 to 14) (size 15 to 20)
#    0.000    1.667    1.667    3.500    0.000    1.667 
#    0.000    6.667    0.000    0.500    0.000    3.500 
#    0.000    0.000    0.000    0.000    0.000    0.000 
#
# Total GULP energy -267685.903977 kJ/mol
# GULP energy per Si atom -5576.789666 kJ/mol
# Density = 1.975856 g / cm^3
# Si number density = 19.803638 Si / 1000 Ang^3
#
#
#
# Elastic Constant Matrix: (Units=GPa)
#
#
# Indices 1 2 3 4 5 6 
#
# 1 146.6252 45.5603 34.1886 0.0000 0.0000 0.0000
# 2 45.5603 36.5634 13.6111 0.0000 0.0000 0.0000
# 3 34.1886 13.6111 35.6165 0.0000 0.0000 0.0000
# 4 0.0000 0.0000 0.0000 23.6270 0.0000 0.0000
# 5 0.0000 0.0000 0.0000 0.0000 16.9190 0.0000
# 6 0.0000 0.0000 0.0000 0.0000 0.0000 141.9641
#
#
#
# Elastic Compliance Matrix: (Units=1/GPa)
#
#
# Indices 1 2 3 4 5 6 
#
# 1 0.012478 -0.012929 -0.007037 0.000000 0.000000 0.000000
# 2 -0.012929 0.045282 -0.004894 0.000000 0.000000 0.000000
# 3 -0.007037 -0.004894 0.036702 0.000000 0.000000 0.000000
# 4 0.000000 0.000000 0.000000 0.042325 0.000000 0.000000
# 5 0.000000 0.000000 0.000000 0.000000 0.059105 0.000000
# 6 0.000000 0.000000 0.000000 0.000000 0.000000 0.007044
#
#
# Mechanical properties :
#
#
# Convention : Reuss Voigt Hill
#
# Bulk Modulus (GPa) = 22.35039 45.05836 33.70438
# Shear Modulus (GPa) = 18.68659 44.86501 31.77580
#
# Velocity S-wave (km/s) = 3.07513 4.76488 4.01002
# Velocity P-wave (km/s) = 4.89071 7.28520 6.20456
#
# Compressibility (1/GPa) = 0.04474194
#
# Stress axis : x y z
#
# Youngs Moduli (GPa) = 80.13834 22.08369 27.24635
#
# Poissons Ratio (x) = 0.28553 0.19174
# Poissons Ratio (y) = 1.03613 0.13335
# Poissons Ratio (z) = 0.56394 0.10808
#
# Static dielectric constant tensor:
#      x y z
#    x 1.685490 0.000000 0.000000 
#    y 0.000000 1.696740 0.000000 
#    z 0.000000 0.000000 1.691070 
# 
# From -- ./inp_files/5980.got.cif
#   From: 2010.05.17/outbox.cif.g08.bks.cpg/sg72_3_cif.got.tgz:5980.got - 2010.06.03 17:03:01.
