data_PCOD9526414
_publ_section_title
;
Structure prediction by ZEFSAII (Michael W. Deem and Ramdas Pophale) SiO2 
 PCOD9526414
Probable space group: I B A M
;
_chemical_formula_sum "Si O2"
_cell_formula_units_Z 44
_cell_length_a 21.135953
_cell_length_b 8.846611
_cell_length_c 11.463219
_cell_angle_alpha 90.000000
_cell_angle_beta 90.000000
_cell_angle_gamma 90.000000
_cell_volume 2143.410506
_symmetry_space_group_name_H-M "I B A M"
_symmetry_group_IT_number 72
_symmetry_cell_setting 'orthorhombic'
loop_
_space_group_symop_operation_xyz
x,y,z
-x,-y,z
x,-y,1/2-z
-x,y,1/2-z
-x,-y,-z
x,y,-z
-x,y,1/2+z
x,-y,1/2+z
1/2+x,1/2+y,1/2+z
1/2-x,1/2-y,1/2+z
1/2+x,1/2-y,-z
1/2-x,1/2+y,-z
1/2-x,1/2-y,1/2-z
1/2+x,1/2+y,1/2-z
1/2-x,1/2+y,z
1/2+x,1/2-y,z
loop_
_atom_site_type_symbol
_atom_site_label
_atom_site_fract_x
_atom_site_fract_y
_atom_site_fract_z
Si Si1 0.102631 0.291983 0.867550
Si Si2 0.653291 0.500000 0.750000
Si Si3 0.500000 0.000000 0.750000
Si Si4 0.743002 0.840805 0.371407
O O1 0.045602 0.394937 0.826349
O O2 0.169134 0.385287 0.867557
O O3 0.113336 0.146624 0.784958
O O4 0.092647 0.239563 0.000000
O O5 0.701744 0.536617 0.855919
O O6 0.752173 0.768559 0.500000
O O7 0.750000 0.750000 0.250000
#
# Coordination Sequence:
#
# PCOD9526414 Si02
#       4
#    16   8   4  16
#     4  10  22  40  61  87 120 158 201 247 298 359
#     4  10  19  37  64  95 119 150 196 252 308 364
#     4  12  24  42  56  78 118 170 210 246 292 348
#     4   9  18  34  59  91 122 148 183 240 307 365
#
# _framework density 20.528033000000001
#
# number of rings (size 3 to 8) (size 9 to 14) (size 15 to 20)
#    0.000    2.182    0.000    2.727    0.000    2.182 
#    0.000   27.273    0.000    0.000    0.000    0.000 
#    0.000    0.000    0.000    0.000    0.000    0.000 
#
# Total GULP energy -122523.080343 kJ/mol
# GULP energy per Si atom -5569.230925 kJ/mol
# Density = 2.048131 g / cm^3
# Si number density = 20.528033 Si / 1000 Ang^3
#
#
#
# Elastic Constant Matrix: (Units=GPa)
#
#
# Indices 1 2 3 4 5 6 
#
# 1 130.4442 57.5624 48.8317 0.0000 0.0000 0.0000
# 2 57.5624 93.6821 40.8859 0.0000 0.0000 0.0000
# 3 48.8317 40.8859 148.4230 0.0000 0.0000 0.0000
# 4 0.0000 0.0000 0.0000 29.1298 0.0000 0.0000
# 5 0.0000 0.0000 0.0000 0.0000 19.5672 0.0000
# 6 0.0000 0.0000 0.0000 0.0000 0.0000 46.3117
#
#
#
# Elastic Compliance Matrix: (Units=1/GPa)
#
#
# Indices 1 2 3 4 5 6 
#
# 1 0.011017 -0.005896 -0.002000 0.000000 0.000000 0.000000
# 2 -0.005896 0.015289 -0.002272 0.000000 0.000000 0.000000
# 3 -0.002000 -0.002272 0.008021 0.000000 0.000000 0.000000
# 4 0.000000 0.000000 0.000000 0.034329 0.000000 0.000000
# 5 0.000000 0.000000 0.000000 0.000000 0.051106 0.000000
# 6 0.000000 0.000000 0.000000 0.000000 0.000000 0.021593
#
#
# Mechanical properties :
#
#
# Convention : Reuss Voigt Hill
#
# Bulk Modulus (GPa) = 71.47731 74.12324 72.80027
# Shear Modulus (GPa) = 30.05624 34.01970 32.03797
#
# Velocity S-wave (km/s) = 3.83058 4.07533 3.95485
# Velocity P-wave (km/s) = 7.37966 7.63748 7.50968
#
# Compressibility (1/GPa) = 0.01399045
#
# Stress axis : x y z
#
# Youngs Moduli (GPa) = 90.77038 65.40772 124.66642
#
# Poissons Ratio (x) = 0.38566 0.24938
# Poissons Ratio (y) = 0.53520 0.28320
# Poissons Ratio (z) = 0.18157 0.14859
#
# Static dielectric constant tensor:
#      x y z
#    x 1.730330 0.000000 0.000000 
#    y 0.000000 1.852910 0.000000 
#    z 0.000000 0.000000 1.734170 
# 
# From -- ./inp_files/10209.got.cif
#   From: 2010.05.17/outbox.cif.g08.bks.cpg/sg72_6_cif.got.tgz:10209.got - 2010.06.03 17:03:01.
