data_PCOD9526069
_publ_section_title
;
Structure prediction by ZEFSAII (Michael W. Deem and Ramdas Pophale) SiO2 
 PCOD9526069
Probable space group: I B A M
;
_chemical_formula_sum "Si O2"
_cell_formula_units_Z 112
_cell_length_a 27.287835
_cell_length_b 12.787066
_cell_length_c 14.857450
_cell_angle_alpha 90.000000
_cell_angle_beta 90.000000
_cell_angle_gamma 90.000000
_cell_volume 5184.230044
_symmetry_space_group_name_H-M "I B A M"
_symmetry_group_IT_number 72
_symmetry_cell_setting 'orthorhombic'
loop_
_space_group_symop_operation_xyz
x,y,z
-x,-y,z
x,-y,1/2-z
-x,y,1/2-z
-x,-y,-z
x,y,-z
-x,y,1/2+z
x,-y,1/2+z
1/2+x,1/2+y,1/2+z
1/2-x,1/2-y,1/2+z
1/2+x,1/2-y,-z
1/2-x,1/2+y,-z
1/2-x,1/2-y,1/2-z
1/2+x,1/2+y,1/2-z
1/2-x,1/2+y,z
1/2+x,1/2-y,z
loop_
_atom_site_type_symbol
_atom_site_label
_atom_site_fract_x
_atom_site_fract_y
_atom_site_fract_z
Si Si1 0.623561 0.491305 0.359516
Si Si2 0.186148 0.698549 0.770885
Si Si3 0.944532 0.178340 0.639294
Si Si4 0.372801 0.129828 0.396730
Si Si5 0.215486 0.095421 0.808448
Si Si6 0.104215 0.396325 0.603724
Si Si7 0.054636 0.195317 0.356602
O O1 0.622484 0.500000 0.250000
O O2 0.585994 0.578790 0.391679
O O3 0.678418 0.538696 0.378202
O O4 0.599561 0.380311 0.387782
O O5 0.171977 0.651512 0.672377
O O6 0.184955 0.822482 0.752807
O O7 0.236212 0.665801 0.821997
O O8 0.144013 0.655895 0.833034
O O9 0.913809 0.280307 0.610823
O O10 0.944975 0.184464 0.748374
O O11 0.000667 0.164860 0.610760
O O12 0.355081 0.126993 0.500000
O O13 0.398119 0.018757 0.374143
O O14 0.235332 0.000000 0.750000
O O15 0.118994 0.390023 0.500000
O O16 0.059555 0.317244 0.617608
#
# Coordination Sequence:
#
# PCOD9526069 Si02
#       7
#    16  16  16  16  16  16  16
#     4   9  16  33  58  91 123 154 199 250 305 369
#     4  11  21  40  63  89 123 164 204 250 312 374
#     4  10  19  35  59  90 119 163 202 250 307 372
#     4  11  23  39  60  85 121 164 210 258 307 368
#     4  10  19  33  65  95 119 159 205 252 308 371
#     4  11  23  39  59  85 120 160 204 256 306 364
#     4  10  20  34  61  90 123 158 205 250 308 368
#
# _framework density 21.60398
#
# number of rings (size 3 to 8) (size 9 to 14) (size 15 to 20)
#    0.000    1.714    2.857    3.429    0.000    2.857 
#    0.000    6.429    0.000    6.857    0.000    0.000 
#    0.000    0.000    0.000    0.000    0.000    0.000 
#
# Total GULP energy -311865.292260 kJ/mol
# GULP energy per Si atom -5569.023076 kJ/mol
# Density = 2.155481 g / cm^3
# Si number density = 21.603980 Si / 1000 Ang^3
#
#
#
# Elastic Constant Matrix: (Units=GPa)
#
#
# Indices 1 2 3 4 5 6 
#
# 1 103.1447 16.5391 2.9092 0.0000 0.0000 0.0000
# 2 16.5391 133.5761 -5.6860 0.0000 0.0000 0.0000
# 3 2.9092 -5.6860 57.0572 0.0000 0.0000 0.0000
# 4 0.0000 0.0000 0.0000 21.3622 0.0000 0.0000
# 5 0.0000 0.0000 0.0000 0.0000 -21.1212 0.0000
# 6 0.0000 0.0000 0.0000 0.0000 0.0000 11.6517
#
#
#
# Elastic Compliance Matrix: (Units=1/GPa)
#
#
# Indices 1 2 3 4 5 6 
#
# 1 0.009914 -0.001254 -0.000630 0.000000 0.000000 0.000000
# 2 -0.001254 0.007677 0.000829 0.000000 0.000000 0.000000
# 3 -0.000630 0.000829 0.017641 0.000000 0.000000 0.000000
# 4 0.000000 0.000000 0.000000 0.046812 0.000000 0.000000
# 5 0.000000 0.000000 0.000000 0.000000 -0.047346 0.000000
# 6 0.000000 0.000000 0.000000 0.000000 0.000000 0.085825
#
#
# Mechanical properties :
#
#
# Convention : Reuss Voigt Hill
#
# Bulk Modulus (GPa) = 30.19295 35.70029 32.94662
# Shear Modulus (GPa) = 37.40436 21.04626 29.22531
#
# Velocity S-wave (km/s) = 4.16548 3.12458 3.68200
# Velocity P-wave (km/s) = 6.09434 5.43857 5.77577
#
# Compressibility (1/GPa) = 0.03312032
#
# Stress axis : x y z
#
# Youngs Moduli (GPa) = 100.86705 130.25968 56.68601
#
# Poissons Ratio (x) = 0.16339 0.03574
# Poissons Ratio (y) = 0.12653 -0.04699
# Poissons Ratio (z) = 0.06360 -0.10799
#
# Static dielectric constant tensor:
#      x y z
#    x 1.833590 0.000000 0.000000 
#    y 0.000000 1.817050 0.000000 
#    z 0.000000 0.000000 1.795920 
# 
# From -- ./inp_files/26414.got.cif
#   From: 2010.05.17/outbox.cif.g08.bks.cpg/sg72_14_cif.got.tgz:26414.got - 2010.06.03 17:03:01.
