data_PCOD9526250
_publ_section_title
;
Structure prediction by ZEFSAII (Michael W. Deem and Ramdas Pophale) SiO2 
 PCOD9526250
Probable space group: I B A M
;
_chemical_formula_sum "Si O2"
_cell_formula_units_Z 116
_cell_length_a 16.068482
_cell_length_b 11.717207
_cell_length_c 28.650201
_cell_angle_alpha 90.000000
_cell_angle_beta 90.000000
_cell_angle_gamma 90.000000
_cell_volume 5394.194802
_symmetry_space_group_name_H-M "I B A M"
_symmetry_group_IT_number 72
_symmetry_cell_setting 'orthorhombic'
loop_
_space_group_symop_operation_xyz
x,y,z
-x,-y,z
x,-y,1/2-z
-x,y,1/2-z
-x,-y,-z
x,y,-z
-x,y,1/2+z
x,-y,1/2+z
1/2+x,1/2+y,1/2+z
1/2-x,1/2-y,1/2+z
1/2+x,1/2-y,-z
1/2-x,1/2+y,-z
1/2-x,1/2-y,1/2-z
1/2+x,1/2+y,1/2-z
1/2-x,1/2+y,z
1/2+x,1/2-y,z
loop_
_atom_site_type_symbol
_atom_site_label
_atom_site_fract_x
_atom_site_fract_y
_atom_site_fract_z
Si Si1 0.188673 0.434855 0.364841
Si Si2 0.694371 0.101333 0.055211
Si Si3 0.853702 0.820691 0.890845
Si Si4 0.000000 0.000000 0.000000
Si Si5 0.990156 0.868988 0.669387
Si Si6 0.115527 0.924435 0.921466
Si Si7 0.234596 0.400995 0.785208
Si Si8 0.124628 0.290927 0.714734
O O1 0.167822 0.489225 0.414878
O O2 0.262470 0.343271 0.370063
O O3 0.223108 0.542231 0.335237
O O4 0.124273 0.376543 0.329653
O O5 0.647452 0.210663 0.076545
O O6 0.793820 0.121232 0.064194
O O7 0.681424 0.088241 0.000000
O O8 0.924144 0.820599 0.851391
O O9 0.869621 0.938942 0.917893
O O10 0.044352 0.918983 0.959843
O O11 0.922598 0.877414 0.626708
O O12 0.954241 0.787473 0.708267
O O13 0.000000 0.000000 0.684814
O O14 0.267084 0.500000 0.750000
O O15 0.148385 0.360056 0.761263
O O16 0.298590 0.298166 0.788245
#
# Coordination Sequence:
#
# PCOD9526250 Si02
#       8
#    16  16  16   4  16  16  16  16
#     4  10  20  37  57  82 119 155 203 252 300 370
#     4  11  23  35  56  87 121 162 214 259 303 364
#     4  10  20  33  55  82 118 163 197 254 310 357
#     4  12  16  32  52  80 116 154 198 258 312 372
#     4  10  19  35  57  87 118 154 197 253 321 372
#     4  10  20  33  53  80 116 155 200 254 312 370
#     4   9  18  33  60  92 116 150 197 249 306 372
#     4  10  19  35  62  86 113 153 200 249 309 374
#
# _framework density 21.504598999999999
#
# number of rings (size 3 to 8) (size 9 to 14) (size 15 to 20)
#    0.000    1.931    2.759    4.138    0.966    0.552 
#    0.000    0.690    0.000   23.586    0.000   13.517 
#    0.000    0.000    0.000    0.000    0.000    0.000 
#
# Total GULP energy -323219.209276 kJ/mol
# GULP energy per Si atom -5572.744988 kJ/mol
# Density = 2.145565 g / cm^3
# Si number density = 21.504599 Si / 1000 Ang^3
#
#
#
# Elastic Constant Matrix: (Units=GPa)
#
#
# Indices 1 2 3 4 5 6 
#
# 1 32.9517 20.3407 31.8842 0.0000 0.0000 0.0000
# 2 20.3407 66.1265 49.6052 0.0000 0.0000 0.0000
# 3 31.8842 49.6052 116.3657 0.0000 0.0000 0.0000
# 4 0.0000 0.0000 0.0000 1.4699 0.0000 0.0000
# 5 0.0000 0.0000 0.0000 0.0000 11.0251 0.0000
# 6 0.0000 0.0000 0.0000 0.0000 0.0000 24.2104
#
#
#
# Elastic Compliance Matrix: (Units=1/GPa)
#
#
# Indices 1 2 3 4 5 6 
#
# 1 0.043098 -0.006467 -0.009052 0.000000 0.000000 0.000000
# 2 -0.006467 0.023202 -0.008119 0.000000 0.000000 0.000000
# 3 -0.009052 -0.008119 0.014535 0.000000 0.000000 0.000000
# 4 0.000000 0.000000 0.000000 0.680334 0.000000 0.000000
# 5 0.000000 0.000000 0.000000 0.000000 0.090702 0.000000
# 6 0.000000 0.000000 0.000000 0.000000 0.000000 0.041305
#
#
# Mechanical properties :
#
#
# Convention : Reuss Voigt Hill
#
# Bulk Modulus (GPa) = 29.79758 46.56711 38.18235
# Shear Modulus (GPa) = 5.25410 14.91531 10.08470
#
# Velocity S-wave (km/s) = 1.56478 2.63646 2.16789
# Velocity P-wave (km/s) = 4.14140 5.56502 4.90513
#
# Compressibility (1/GPa) = 0.03355977
#
# Stress axis : x y z
#
# Youngs Moduli (GPa) = 23.20279 43.09946 68.79971
#
# Poissons Ratio (x) = 0.27870 0.62280
# Poissons Ratio (y) = 0.15004 0.55858
# Poissons Ratio (z) = 0.21004 0.34992
#
# Static dielectric constant tensor:
#      x y z
#    x 1.842640 0.000000 0.000000 
#    y 0.000000 1.780390 0.000000 
#    z 0.000000 0.000000 1.812250 
# 
# From -- ./inp_files/52125.got.cif
#   From: 2010.05.17/outbox.cif.g08.bks.cpg/sg72_27_cif.got.tgz:52125.got - 2010.06.03 17:03:01.
