data_PCOD9526661
_publ_section_title
;
Structure prediction by ZEFSAII (Michael W. Deem and Ramdas Pophale) SiO2 
 PCOD9526661
Probable space group: I B A M
;
_chemical_formula_sum "Si O2"
_cell_formula_units_Z 88
_cell_length_a 13.825758
_cell_length_b 24.545982
_cell_length_c 14.194953
_cell_angle_alpha 90.000000
_cell_angle_beta 90.000000
_cell_angle_gamma 90.000000
_cell_volume 4817.295875
_symmetry_space_group_name_H-M "I B A M"
_symmetry_group_IT_number 72
_symmetry_cell_setting 'orthorhombic'
loop_
_space_group_symop_operation_xyz
x,y,z
-x,-y,z
x,-y,1/2-z
-x,y,1/2-z
-x,-y,-z
x,y,-z
-x,y,1/2+z
x,-y,1/2+z
1/2+x,1/2+y,1/2+z
1/2-x,1/2-y,1/2+z
1/2+x,1/2-y,-z
1/2-x,1/2+y,-z
1/2-x,1/2-y,1/2-z
1/2+x,1/2+y,1/2-z
1/2-x,1/2+y,z
1/2+x,1/2-y,z
loop_
_atom_site_type_symbol
_atom_site_label
_atom_site_fract_x
_atom_site_fract_y
_atom_site_fract_z
Si Si1 0.726209 0.770690 0.606657
Si Si2 0.993565 0.715628 0.393788
Si Si3 0.162177 0.440275 0.732254
Si Si4 0.292684 0.337531 0.715168
Si Si5 0.500000 0.694604 0.750000
Si Si6 0.508465 0.908649 0.612298
O O1 0.758809 0.779927 0.500000
O O2 0.609811 0.777767 0.607602
O O3 0.743627 0.708812 0.642053
O O4 0.765148 0.813152 0.682671
O O5 0.959541 0.723036 0.500000
O O6 0.956896 0.762912 0.326414
O O7 0.975438 0.653541 0.365059
O O8 0.204088 0.500000 0.750000
O O9 0.239889 0.394839 0.704506
O O10 0.102843 0.421209 0.825510
O O11 0.079454 0.444713 0.651602
O O12 0.409562 0.338871 0.710254
O O13 0.523557 0.912850 0.500000
#
# Coordination Sequence:
#
# PCOD9526661 Si02
#       6
#    16  16  16  16   8  16
#     4   9  18  33  54  78 106 135 167 215 270 323
#     4   9  17  30  51  80 109 133 164 207 261 324
#     4  11  23  37  53  77 110 145 185 226 262 311
#     4  10  21  35  53  77 107 141 181 220 265 312
#     4  10  20  34  51  74 109 142 172 218 266 310
#     4  10  20  35  56  82 111 142 175 213 267 331
#
# _framework density 18.267510000000001
#
# number of rings (size 3 to 8) (size 9 to 14) (size 15 to 20)
#    0.000    2.182    1.818    2.182    5.091    2.909 
#    0.000    0.455    0.000    0.000    0.000    0.000 
#    0.000   10.182    0.000    0.000    0.000    0.000 
#
# Total GULP energy -245623.997810 kJ/mol
# GULP energy per Si atom -5582.363587 kJ/mol
# Density = 1.822593 g / cm^3
# Si number density = 18.267510 Si / 1000 Ang^3
#
#
#
# Elastic Constant Matrix: (Units=GPa)
#
#
# Indices 1 2 3 4 5 6 
#
# 1 43.1751 11.2322 -16.6333 0.0000 0.0000 0.0000
# 2 11.2322 81.3122 -9.4514 -0.0001 0.0000 0.0000
# 3 -16.6333 -9.4514 76.3266 -0.0001 0.0000 0.0000
# 4 0.0000 -0.0001 -0.0001 11.3613 0.0000 0.0000
# 5 0.0000 0.0000 0.0000 0.0000 14.1126 0.0000
# 6 0.0000 0.0000 0.0000 0.0000 0.0000 30.0575
#
#
#
# Elastic Compliance Matrix: (Units=1/GPa)
#
#
# Indices 1 2 3 4 5 6 
#
# 1 0.025974 -0.002973 0.005292 0.000000 0.000000 0.000000
# 2 -0.002973 0.012818 0.000939 0.000000 0.000000 0.000000
# 3 0.005292 0.000939 0.014371 0.000000 0.000000 0.000000
# 4 0.000000 0.000000 0.000000 0.088018 0.000000 0.000000
# 5 0.000000 0.000000 0.000000 0.000000 0.070859 0.000000
# 6 0.000000 0.000000 0.000000 0.000000 0.000000 0.033270
#
#
# Mechanical properties :
#
#
# Convention : Reuss Voigt Hill
#
# Bulk Modulus (GPa) = 16.75589 19.01210 17.88400
# Shear Modulus (GPa) = 19.32853 25.48406 22.40630
#
# Velocity S-wave (km/s) = 3.25635 3.73909 3.50604
# Velocity P-wave (km/s) = 4.83020 5.39177 5.11869
#
# Compressibility (1/GPa) = 0.05968052
#
# Stress axis : x y z
#
# Youngs Moduli (GPa) = 38.50052 78.01455 69.58368
#
# Poissons Ratio (x) = 0.23192 -0.36825
# Poissons Ratio (y) = 0.11445 -0.06537
# Poissons Ratio (z) = -0.20375 -0.07329
#
# Static dielectric constant tensor:
#      x y z
#    x 1.669570 0.000000 0.000000 
#    y 0.000000 1.623690 0.000000 
#    z 0.000000 0.000000 1.613880 
# 
# From -- ./inp_files/21987.got.cif
#   From: 2010.05.17/outbox.cif.g08.bks.cpg/sg72_11_cif.got.tgz:21987.got - 2010.06.03 17:03:01.
