data_PCOD9526587
_publ_section_title
;
Structure prediction by ZEFSAII (Michael W. Deem and Ramdas Pophale) SiO2 
 PCOD9526587
Probable space group: I B A M
;
_chemical_formula_sum "Si O2"
_cell_formula_units_Z 80
_cell_length_a 18.890348
_cell_length_b 27.356027
_cell_length_c 8.775546
_cell_angle_alpha 90.000000
_cell_angle_beta 90.000000
_cell_angle_gamma 90.000000
_cell_volume 4534.893887
_symmetry_space_group_name_H-M "I B A M"
_symmetry_group_IT_number 72
_symmetry_cell_setting 'orthorhombic'
loop_
_space_group_symop_operation_xyz
x,y,z
-x,-y,z
x,-y,1/2-z
-x,y,1/2-z
-x,-y,-z
x,y,-z
-x,y,1/2+z
x,-y,1/2+z
1/2+x,1/2+y,1/2+z
1/2-x,1/2-y,1/2+z
1/2+x,1/2-y,-z
1/2-x,1/2+y,-z
1/2-x,1/2-y,1/2-z
1/2+x,1/2+y,1/2-z
1/2-x,1/2+y,z
1/2+x,1/2-y,z
loop_
_atom_site_type_symbol
_atom_site_label
_atom_site_fract_x
_atom_site_fract_y
_atom_site_fract_z
Si Si1 0.139447 0.947219 0.318283
Si Si2 0.573358 0.945523 0.681899
Si Si3 0.222031 0.800590 0.817005
Si Si4 0.425213 0.650773 0.681929
Si Si5 0.211700 0.602117 0.818000
O O1 0.129782 0.947621 0.500000
O O2 0.094980 0.902612 0.247802
O O3 0.221796 0.933820 0.285771
O O4 0.121842 0.000000 0.250000
O O5 0.500000 0.925187 0.750000
O O6 0.569160 0.948007 0.500000
O O7 0.641288 0.915833 0.736109
O O8 0.580701 0.000000 0.750000
O O9 0.250000 0.750000 0.750000
O O10 0.139882 0.813002 0.780059
O O11 0.265564 0.845179 0.744174
O O12 0.229194 0.801073 0.000000
O O13 0.500000 0.666631 0.750000
O O14 0.429918 0.647277 0.500000
O O15 0.201662 0.603372 0.000000
#
# Coordination Sequence:
#
# PCOD9526587 Si02
#       5
#    16  16  16  16  16
#     4  10  20  33  52  78 109 144 181 219 260 310
#     4  11  21  34  52  76 108 145 183 223 269 322
#     4  10  21  38  60  84 108 138 177 223 271 322
#     4  10  21  37  57  81 110 141 176 217 263 314
#     4  10  20  35  55  79 107 140 179 224 271 322
#
# _framework density 17.640986999999999
#
# number of rings (size 3 to 8) (size 9 to 14) (size 15 to 20)
#    0.000    1.800    0.000    5.400    0.000    6.800 
#    0.000    3.000    0.000    2.400    0.000    0.000 
#    0.000    0.000    0.000    0.000    0.000    0.000 
#
# Total GULP energy -223453.583263 kJ/mol
# GULP energy per Si atom -5586.339582 kJ/mol
# Density = 1.760084 g / cm^3
# Si number density = 17.640987 Si / 1000 Ang^3
#
#
#
# Elastic Constant Matrix: (Units=GPa)
#
#
# Indices 1 2 3 4 5 6 
#
# 1 133.3099 46.3179 63.7071 0.0000 0.0000 0.0000
# 2 46.3179 92.4543 38.1669 0.0000 0.0000 0.0000
# 3 63.7071 38.1669 100.4663 0.0000 0.0000 0.0000
# 4 0.0000 0.0000 0.0000 32.2812 0.0000 0.0000
# 5 0.0000 0.0000 0.0000 0.0000 33.5023 0.0000
# 6 0.0000 0.0000 0.0000 0.0000 0.0000 9.8836
#
#
#
# Elastic Compliance Matrix: (Units=1/GPa)
#
#
# Indices 1 2 3 4 5 6 
#
# 1 0.011542 -0.003275 -0.006075 0.000000 0.000000 0.000000
# 2 -0.003275 0.013757 -0.003150 0.000000 0.000000 0.000000
# 3 -0.006075 -0.003150 0.015003 0.000000 0.000000 0.000000
# 4 0.000000 0.000000 0.000000 0.030978 0.000000 0.000000
# 5 0.000000 0.000000 0.000000 0.000000 0.029849 0.000000
# 6 0.000000 0.000000 0.000000 0.000000 0.000000 0.101178
#
#
# Mechanical properties :
#
#
# Convention : Reuss Voigt Hill
#
# Bulk Modulus (GPa) = 65.34754 69.17937 67.26345
# Shear Modulus (GPa) = 21.51410 27.00264 24.25837
#
# Velocity S-wave (km/s) = 3.49600 3.91663 3.71228
# Velocity P-wave (km/s) = 7.30886 7.73004 7.52240
#
# Compressibility (1/GPa) = 0.01530279
#
# Stress axis : x y z
#
# Youngs Moduli (GPa) = 86.63810 72.69055 66.65548
#
# Poissons Ratio (x) = 0.23803 0.40494
# Poissons Ratio (y) = 0.28370 0.20995
# Poissons Ratio (z) = 0.52634 0.22896
#
# Static dielectric constant tensor:
#      x y z
#    x 1.614460 0.000000 0.000000 
#    y 0.000000 1.571430 0.000000 
#    z 0.000000 0.000000 1.584230 
# 
# From -- ./inp_files/4795.got.cif
#   From: 2010.05.17/outbox.cif.g08.bks.cpg/sg72_3_cif.got.tgz:4795.got - 2010.06.03 17:03:01.
