data_PCOD9526608
_publ_section_title
;
Structure prediction by ZEFSAII (Michael W. Deem and Ramdas Pophale) SiO2 
 PCOD9526608
Probable space group: I B A M
;
_chemical_formula_sum "Si O2"
_cell_formula_units_Z 88
_cell_length_a 16.452813
_cell_length_b 23.103226
_cell_length_c 9.946481
_cell_angle_alpha 90.000000
_cell_angle_beta 90.000000
_cell_angle_gamma 90.000000
_cell_volume 3780.787300
_symmetry_space_group_name_H-M "I B A M"
_symmetry_group_IT_number 72
_symmetry_cell_setting 'orthorhombic'
loop_
_space_group_symop_operation_xyz
x,y,z
-x,-y,z
x,-y,1/2-z
-x,y,1/2-z
-x,-y,-z
x,y,-z
-x,y,1/2+z
x,-y,1/2+z
1/2+x,1/2+y,1/2+z
1/2-x,1/2-y,1/2+z
1/2+x,1/2-y,-z
1/2-x,1/2+y,-z
1/2-x,1/2-y,1/2-z
1/2+x,1/2+y,1/2-z
1/2-x,1/2+y,z
1/2+x,1/2-y,z
loop_
_atom_site_type_symbol
_atom_site_label
_atom_site_fract_x
_atom_site_fract_y
_atom_site_fract_z
Si Si1 0.340223 0.241593 0.500000
Si Si2 0.621685 0.377415 0.500000
Si Si3 0.754764 0.007499 0.000000
Si Si4 0.097247 0.550244 0.647784
Si Si5 0.850673 0.663239 0.740031
Si Si6 0.843608 0.740707 0.500000
Si Si7 0.568251 0.644815 0.500000
Si Si8 0.313109 0.410128 0.288005
O O1 0.339421 0.200869 0.371830
O O2 0.252843 0.272420 0.500000
O O3 0.414252 0.286458 0.500000
O O4 0.648144 0.310021 0.500000
O O5 0.524832 0.374874 0.500000
O O6 0.658147 0.410906 0.370046
O O7 0.691939 0.038106 0.887824
O O8 0.795117 0.965985 0.880288
O O9 0.076661 0.500000 0.750000
O O10 0.056689 0.551139 0.500000
O O11 0.090982 0.610553 0.723712
O O12 0.879099 0.707914 0.627826
O O13 0.765645 0.631906 0.702347
O O14 0.612976 0.621174 0.367157
#
# Coordination Sequence:
#
# PCOD9526608 Si02
#       8
#     8   8   8  16  16   8   8  16
#     4  12  20  36  57  79 123 148 198 240 297 353
#     4  12  25  38  56  88 118 164 211 244 289 360
#     4   9  20  35  52  84 113 154 182 243 303 348
#     4  10  20  33  53  84 122 146 181 240 307 355
#     4  12  20  34  55  89 114 155 189 239 305 348
#     4  12  23  34  56  84 122 146 198 248 289 358
#     4  11  24  39  55  81 123 168 200 247 296 352
#     4  11  20  36  59  81 116 150 199 242 296 354
#
# _framework density 23.275573999999999
#
# number of rings (size 3 to 8) (size 9 to 14) (size 15 to 20)
#    0.545    0.364    6.364    2.727    1.273    0.000 
#    0.000    0.000    0.000    0.000    0.000   44.545 
#    0.000    4.364    0.000    0.000    0.000    0.000 
#
# Total GULP energy -244971.693460 kJ/mol
# GULP energy per Si atom -5567.538488 kJ/mol
# Density = 2.322260 g / cm^3
# Si number density = 23.275574 Si / 1000 Ang^3
#
#
#
# Elastic Constant Matrix: (Units=GPa)
#
#
# Indices 1 2 3 4 5 6 
#
# 1 109.4101 24.2250 9.9969 0.0000 0.0000 0.0000
# 2 24.2250 143.7149 53.8819 0.0000 0.0000 0.0000
# 3 9.9969 53.8819 182.4552 0.0000 0.0000 0.0000
# 4 0.0000 0.0000 0.0000 11.6873 0.0000 0.0000
# 5 0.0000 0.0000 0.0000 0.0000 32.1217 0.0000
# 6 0.0000 0.0000 0.0000 0.0000 0.0000 47.5651
#
#
#
# Elastic Compliance Matrix: (Units=1/GPa)
#
#
# Indices 1 2 3 4 5 6 
#
# 1 0.009495 -0.001580 -0.000054 0.000000 0.000000 0.000000
# 2 -0.001580 0.008088 -0.002302 0.000000 0.000000 0.000000
# 3 -0.000054 -0.002302 0.006163 0.000000 0.000000 0.000000
# 4 0.000000 0.000000 0.000000 0.085563 0.000000 0.000000
# 5 0.000000 0.000000 0.000000 0.000000 0.031132 0.000000
# 6 0.000000 0.000000 0.000000 0.000000 0.000000 0.021024
#
#
# Mechanical properties :
#
#
# Convention : Reuss Voigt Hill
#
# Bulk Modulus (GPa) = 62.99446 67.97641 65.48543
# Shear Modulus (GPa) = 28.63249 41.43994 35.03621
#
# Velocity S-wave (km/s) = 3.51116 4.22406 3.88400
# Velocity P-wave (km/s) = 6.60008 7.28414 6.95053
#
# Compressibility (1/GPa) = 0.01587441
#
# Stress axis : x y z
#
# Youngs Moduli (GPa) = 105.32151 123.64580 162.24575
#
# Poissons Ratio (x) = 0.19541 0.00868
# Poissons Ratio (y) = 0.16645 0.37346
# Poissons Ratio (z) = 0.00564 0.28461
#
# Static dielectric constant tensor:
#      x y z
#    x 1.942210 0.000000 0.000000 
#    y 0.000000 1.705250 0.000000 
#    z 0.000000 0.000000 2.150010 
# 
# From -- ./inp_files/7453.got.cif
#   From: 2010.05.17/outbox.cif.g08.bks.cpg/sg72_4_cif.got.tgz:7453.got - 2010.06.03 17:03:01.
