data_PCOD9526903
_publ_section_title
;
Structure prediction by ZEFSAII (Michael W. Deem and Ramdas Pophale) SiO2 
 PCOD9526903
Probable space group: I B A M
;
_chemical_formula_sum "Si O2"
_cell_formula_units_Z 116
_cell_length_a 30.533624
_cell_length_b 9.355717
_cell_length_c 21.351473
_cell_angle_alpha 90.000000
_cell_angle_beta 90.000000
_cell_angle_gamma 90.000000
_cell_volume 6099.346011
_symmetry_space_group_name_H-M "I B A M"
_symmetry_group_IT_number 72
_symmetry_cell_setting 'orthorhombic'
loop_
_space_group_symop_operation_xyz
x,y,z
-x,-y,z
x,-y,1/2-z
-x,y,1/2-z
-x,-y,-z
x,y,-z
-x,y,1/2+z
x,-y,1/2+z
1/2+x,1/2+y,1/2+z
1/2-x,1/2-y,1/2+z
1/2+x,1/2-y,-z
1/2-x,1/2+y,-z
1/2-x,1/2-y,1/2-z
1/2+x,1/2+y,1/2-z
1/2-x,1/2+y,z
1/2+x,1/2-y,z
loop_
_atom_site_type_symbol
_atom_site_label
_atom_site_fract_x
_atom_site_fract_y
_atom_site_fract_z
Si Si1 0.305635 0.993635 0.072312
Si Si2 0.043727 0.312694 0.357133
Si Si3 0.188762 0.015559 0.176960
Si Si4 0.751481 0.755941 0.373418
Si Si5 0.500000 0.000000 0.750000
Si Si6 0.902147 0.447937 0.573859
Si Si7 0.088839 0.972519 0.174361
Si Si8 0.039901 0.828972 0.424412
O O1 0.282856 0.130969 0.102233
O O2 0.353262 0.961388 0.100522
O O3 0.276183 0.851950 0.078406
O O4 0.310423 0.028190 0.000000
O O5 0.066783 0.433646 0.397529
O O6 0.026094 0.394232 0.295911
O O7 0.005024 0.239724 0.397953
O O8 0.078251 0.193145 0.336592
O O9 0.214848 0.162591 0.163276
O O10 0.138595 0.010161 0.153098
O O11 0.183568 0.000000 0.250000
O O12 0.218115 0.878679 0.157104
O O13 0.899990 0.472313 0.500000
O O14 0.923448 0.293679 0.582016
O O15 0.055753 0.053352 0.126334
O O16 0.082690 0.000000 0.250000
O O17 0.036800 0.866767 0.500000
#
# Coordination Sequence:
#
# PCOD9526903 Si02
#       8
#    16  16  16  16   4  16  16  16
#     4  10  20  35  57  85 117 152 191 241 299 360
#     4  12  23  40  62  87 120 160 209 255 308 371
#     4  10  21  39  60  85 119 155 200 248 299 361
#     4  10  20  36  59  85 116 154 197 241 297 359
#     4  12  24  40  64  88 120 164 214 254 320 376
#     4  10  21  38  61  87 119 156 202 253 303 361
#     4  11  25  41  61  91 127 162 203 255 313 371
#     4  11  23  42  65  91 125 165 207 257 315 369
#
# _framework density 19.018433000000002
#
# number of rings (size 3 to 8) (size 9 to 14) (size 15 to 20)
#    0.000    1.379    1.379    4.138    0.000    3.310 
#    0.000    3.448    3.034    0.000    0.000    0.000 
#    0.000    0.000    0.000    0.000    0.000    0.000 
#
# Total GULP energy -323194.836577 kJ/mol
# GULP energy per Si atom -5572.324769 kJ/mol
# Density = 1.897515 g / cm^3
# Si number density = 19.018433 Si / 1000 Ang^3
#
#
#
# Elastic Constant Matrix: (Units=GPa)
#
#
# Indices 1 2 3 4 5 6 
#
# 1 94.9827 15.9383 15.4824 0.0000 0.0000 0.0000
# 2 15.9383 87.7001 26.6883 0.0000 0.0000 0.0000
# 3 15.4824 26.6883 41.6215 0.0000 0.0000 0.0000
# 4 0.0000 0.0000 0.0000 -18.2482 0.0000 0.0000
# 5 0.0000 0.0000 0.0000 0.0000 27.9805 0.0000
# 6 0.0000 0.0000 0.0000 0.0000 0.0000 61.7913
#
#
#
# Elastic Compliance Matrix: (Units=1/GPa)
#
#
# Indices 1 2 3 4 5 6 
#
# 1 0.011272 -0.000960 -0.003578 0.000000 0.000000 0.000000
# 2 -0.000960 0.014249 -0.008779 0.000000 0.000000 0.000000
# 3 -0.003578 -0.008779 0.030986 0.000000 0.000000 0.000000
# 4 0.000000 0.000000 0.000000 -0.054800 0.000000 0.000000
# 5 0.000000 0.000000 0.000000 0.000000 0.035739 0.000000
# 6 0.000000 0.000000 0.000000 0.000000 0.000000 0.016184
#
#
# Mechanical properties :
#
#
# Convention : Reuss Voigt Hill
#
# Bulk Modulus (GPa) = 33.47435 37.83580 35.65508
# Shear Modulus (GPa) = 55.41899 25.38440 40.40170
#
# Velocity S-wave (km/s) = 5.40397 3.65735 4.61406
# Velocity P-wave (km/s) = 7.52173 6.14593 6.86836
#
# Compressibility (1/GPa) = 0.02987362
#
# Stress axis : x y z
#
# Youngs Moduli (GPa) = 88.71167 70.18227 32.27236
#
# Poissons Ratio (x) = 0.06737 0.11546
# Poissons Ratio (y) = 0.08515 0.28333
# Poissons Ratio (z) = 0.31738 0.61615
#
# Static dielectric constant tensor:
#      x y z
#    x 1.684940 0.000000 0.000000 
#    y 0.000000 1.633380 0.000000 
#    z 0.000000 0.000000 1.661070 
# 
# From -- ./inp_files/45988.got.cif
#   From: 2010.05.17/outbox.cif.g08.bks.cpg/sg72_23_cif.got.tgz:45988.got - 2010.06.03 17:03:01.
