data_PCOD9526879
_publ_section_title
;
Structure prediction by ZEFSAII (Michael W. Deem and Ramdas Pophale) SiO2 
 PCOD9526879
Probable space group: I B A M
;
_chemical_formula_sum "Si O2"
_cell_formula_units_Z 96
_cell_length_a 20.082493
_cell_length_b 15.027611
_cell_length_c 14.356510
_cell_angle_alpha 90.000000
_cell_angle_beta 90.000000
_cell_angle_gamma 90.000000
_cell_volume 4332.678326
_symmetry_space_group_name_H-M "I B A M"
_symmetry_group_IT_number 72
_symmetry_cell_setting 'orthorhombic'
loop_
_space_group_symop_operation_xyz
x,y,z
-x,-y,z
x,-y,1/2-z
-x,y,1/2-z
-x,-y,-z
x,y,-z
-x,y,1/2+z
x,-y,1/2+z
1/2+x,1/2+y,1/2+z
1/2-x,1/2-y,1/2+z
1/2+x,1/2-y,-z
1/2-x,1/2+y,-z
1/2-x,1/2-y,1/2-z
1/2+x,1/2+y,1/2-z
1/2-x,1/2+y,z
1/2+x,1/2-y,z
loop_
_atom_site_type_symbol
_atom_site_label
_atom_site_fract_x
_atom_site_fract_y
_atom_site_fract_z
Si Si1 0.397871 0.408221 0.716494
Si Si2 0.836441 0.655804 0.305957
Si Si3 0.529099 0.088138 0.398050
Si Si4 0.820784 0.836345 0.391246
Si Si5 0.765348 0.974238 0.889512
Si Si6 0.940210 0.273727 0.325909
O O1 0.430085 0.500000 0.750000
O O2 0.376591 0.361168 0.814225
O O3 0.334342 0.438449 0.655052
O O4 0.434709 0.331723 0.658810
O O5 0.905172 0.630742 0.356341
O O6 0.799750 0.738998 0.356192
O O7 0.790128 0.571860 0.325924
O O8 0.867915 0.689830 0.208355
O O9 0.550552 0.058889 0.500000
O O10 0.470296 0.160223 0.400997
O O11 0.500000 0.000000 0.349992
O O12 0.841985 0.832484 0.500000
O O13 0.769281 0.918225 0.383632
O O14 0.758928 0.951866 0.000000
O O15 0.000000 0.281823 0.250000
#
# Coordination Sequence:
#
# PCOD9526879 Si02
#       6
#    16  16  16  16  16  16
#     4   9  19  36  54  82 117 146 190 247 294 350
#     4  10  20  38  60  79 114 154 190 238 292 351
#     4  10  21  39  59  85 118 152 197 244 297 356
#     4   9  18  34  55  79 108 147 190 230 288 353
#     4  10  20  35  56  83 114 153 196 238 297 358
#     4   9  20  36  57  83 110 153 196 235 293 354
#
# _framework density 22.157195000000002
#
# number of rings (size 3 to 8) (size 9 to 14) (size 15 to 20)
#    0.000    2.500    0.000    1.500    0.000    6.667 
#   12.000    0.000    0.000    0.000    0.000   16.333 
#    0.000    0.000    0.000    0.000    0.000    0.000 
#
# Total GULP energy -267224.754996 kJ/mol
# GULP energy per Si atom -5567.182396 kJ/mol
# Density = 2.210676 g / cm^3
# Si number density = 22.157195 Si / 1000 Ang^3
#
#
#
# Elastic Constant Matrix: (Units=GPa)
#
#
# Indices 1 2 3 4 5 6 
#
# 1 88.0327 43.7583 14.5333 0.0000 0.0000 0.0000
# 2 43.7583 139.9971 26.7868 0.0000 0.0000 0.0000
# 3 14.5333 26.7868 60.6475 0.0000 0.0000 0.0000
# 4 0.0000 0.0000 0.0000 13.3476 0.0000 0.0000
# 5 0.0000 0.0000 0.0000 0.0000 11.8540 0.0000
# 6 0.0000 0.0000 0.0000 0.0000 0.0000 19.9297
#
#
#
# Elastic Compliance Matrix: (Units=1/GPa)
#
#
# Indices 1 2 3 4 5 6 
#
# 1 0.013574 -0.003955 -0.001506 0.000000 0.000000 0.000000
# 2 -0.003955 0.008954 -0.003007 0.000000 0.000000 0.000000
# 3 -0.001506 -0.003007 0.018178 0.000000 0.000000 0.000000
# 4 0.000000 0.000000 0.000000 0.074920 0.000000 0.000000
# 5 0.000000 0.000000 0.000000 0.000000 0.084360 0.000000
# 6 0.000000 0.000000 0.000000 0.000000 0.000000 0.050176
#
#
# Mechanical properties :
#
#
# Convention : Reuss Voigt Hill
#
# Bulk Modulus (GPa) = 42.06956 50.98156 46.52556
# Shear Modulus (GPa) = 18.18039 22.59952 20.38996
#
# Velocity S-wave (km/s) = 2.86758 3.19715 3.03684
# Velocity P-wave (km/s) = 5.47650 6.05706 5.77408
#
# Compressibility (1/GPa) = 0.02377015
#
# Stress axis : x y z
#
# Youngs Moduli (GPa) = 73.67179 111.67598 55.01169
#
# Poissons Ratio (x) = 0.44162 0.08285
# Poissons Ratio (y) = 0.29134 0.16544
# Poissons Ratio (z) = 0.11096 0.33585
#
# Static dielectric constant tensor:
#      x y z
#    x 1.813030 0.000000 0.000000 
#    y 0.000000 1.884200 0.000000 
#    z 0.000000 0.000000 1.842260 
# 
# From -- ./inp_files/24163.got.cif
#   From: 2010.05.17/outbox.cif.g08.bks.cpg/sg72_13_cif.got.tgz:24163.got - 2010.06.03 17:03:01.
