data_PCOD9526208
_publ_section_title
;
Structure prediction by ZEFSAII (Michael W. Deem and Ramdas Pophale) SiO2 
 PCOD9526208
Probable space group: I B A M
;
_chemical_formula_sum "Si O2"
_cell_formula_units_Z 68
_cell_length_a 13.405547
_cell_length_b 12.636537
_cell_length_c 17.601487
_cell_angle_alpha 90.000000
_cell_angle_beta 90.000000
_cell_angle_gamma 90.000000
_cell_volume 2981.686453
_symmetry_space_group_name_H-M "I B A M"
_symmetry_group_IT_number 72
_symmetry_cell_setting 'orthorhombic'
loop_
_space_group_symop_operation_xyz
x,y,z
-x,-y,z
x,-y,1/2-z
-x,y,1/2-z
-x,-y,-z
x,y,-z
-x,y,1/2+z
x,-y,1/2+z
1/2+x,1/2+y,1/2+z
1/2-x,1/2-y,1/2+z
1/2+x,1/2-y,-z
1/2-x,1/2+y,-z
1/2-x,1/2-y,1/2-z
1/2+x,1/2+y,1/2-z
1/2-x,1/2+y,z
1/2+x,1/2-y,z
loop_
_atom_site_type_symbol
_atom_site_label
_atom_site_fract_x
_atom_site_fract_y
_atom_site_fract_z
Si Si1 0.845873 0.890913 0.130304
Si Si2 0.868970 0.323365 0.168677
Si Si3 0.500000 0.351009 0.750000
Si Si4 0.911222 0.352535 0.000000
Si Si5 0.627587 0.218749 0.000000
Si Si6 0.239569 0.973695 0.000000
Si Si7 0.500000 0.000000 0.250000
O O1 0.746658 0.854918 0.175692
O O2 0.936836 0.909929 0.186052
O O3 0.872507 0.794416 0.073287
O O4 0.818645 0.988840 0.075266
O O5 0.884238 0.299766 0.079692
O O6 0.916180 0.226099 0.213412
O O7 0.932637 0.425082 0.196635
O O8 0.030460 0.355461 0.000000
O O9 0.840714 0.455353 0.000000
O O10 0.724664 0.145657 0.000000
#
# Coordination Sequence:
#
# PCOD9526208 Si02
#       7
#    16  16   8   8   8   8   4
#     4  10  22  38  62  98 126 177 220 265 341 401
#     4  10  22  37  61  95 124 163 215 268 340 382
#     4  11  20  37  58  84 134 172 208 263 318 417
#     4  10  19  34  62  96 122 156 216 276 335 379
#     4  11  20  39  66  95 134 166 220 290 325 388
#     4   9  22  35  62  98 128 164 225 280 327 391
#     4  10  24  38  64 100 132 156 208 298 332 394
#
# _framework density 22.805886000000001
#
# number of rings (size 3 to 8) (size 9 to 14) (size 15 to 20)
#    0.000    1.882    2.353    1.765    6.588    0.000 
#    0.000    0.000    0.000    9.176    0.000    0.000 
#    0.000    0.000    0.000    0.000    0.000    0.000 
#
# Total GULP energy -190096.524632 kJ/mol
# GULP energy per Si atom -5591.074254 kJ/mol
# Density = 2.275398 g / cm^3
# Si number density = 22.805886 Si / 1000 Ang^3
#
#
#
# Elastic Constant Matrix: (Units=GPa)
#
#
# Indices 1 2 3 4 5 6 
#
# 1 174.3319 57.3772 92.7252 0.0000 0.0000 0.0000
# 2 57.3772 62.1316 65.2322 0.0000 0.0000 0.0000
# 3 92.7252 65.2322 133.2517 0.0000 0.0000 0.0000
# 4 0.0000 0.0000 0.0000 -10.3371 0.0000 0.0000
# 5 0.0000 0.0000 0.0000 0.0000 48.4475 0.0000
# 6 0.0000 0.0000 0.0000 0.0000 0.0000 12.7498
#
#
#
# Elastic Compliance Matrix: (Units=1/GPa)
#
#
# Indices 1 2 3 4 5 6 
#
# 1 0.009519 -0.003778 -0.004775 0.000000 0.000000 0.000000
# 2 -0.003778 0.034614 -0.014316 0.000000 0.000000 0.000000
# 3 -0.004775 -0.014316 0.017835 0.000000 0.000000 0.000000
# 4 0.000000 0.000000 0.000000 -0.096739 0.000000 0.000000
# 5 0.000000 0.000000 0.000000 0.000000 0.020641 0.000000
# 6 0.000000 0.000000 0.000000 0.000000 0.000000 0.078433
#
#
# Mechanical properties :
#
#
# Convention : Reuss Voigt Hill
#
# Bulk Modulus (GPa) = 61.60868 88.93158 75.27013
# Shear Modulus (GPa) = 43.30815 20.46408 31.88612
#
# Velocity S-wave (km/s) = 4.36247 2.99877 3.74324
# Velocity P-wave (km/s) = 7.24209 7.14632 7.19436
#
# Compressibility (1/GPa) = 0.01623148
#
# Stress axis : x y z
#
# Youngs Moduli (GPa) = 105.05154 28.88987 56.06802
#
# Poissons Ratio (x) = 0.10914 0.26770
# Poissons Ratio (y) = 0.39686 0.80268
# Poissons Ratio (z) = 0.50158 0.41359
#
# Static dielectric constant tensor:
#      x y z
#    x 1.841410 0.000000 0.000000 
#    y 0.000000 1.824510 0.000000 
#    z 0.000000 0.000000 1.819430 
# 
# From -- ./inp_files/36713.got.cif
#   From: 2010.05.17/outbox.cif.g08.bks.cpg/sg72_19_cif.got.tgz:36713.got - 2010.06.03 17:03:01.
