data_PCOD9526924
_publ_section_title
;
Structure prediction by ZEFSAII (Michael W. Deem and Ramdas Pophale) SiO2 
 PCOD9526924
Probable space group: I B A M
;
_chemical_formula_sum "Si O2"
_cell_formula_units_Z 96
_cell_length_a 19.675995
_cell_length_b 12.239987
_cell_length_c 15.170493
_cell_angle_alpha 90.000000
_cell_angle_beta 90.000000
_cell_angle_gamma 90.000000
_cell_volume 3653.569343
_symmetry_space_group_name_H-M "I B A M"
_symmetry_group_IT_number 72
_symmetry_cell_setting 'orthorhombic'
loop_
_space_group_symop_operation_xyz
x,y,z
-x,-y,z
x,-y,1/2-z
-x,y,1/2-z
-x,-y,-z
x,y,-z
-x,y,1/2+z
x,-y,1/2+z
1/2+x,1/2+y,1/2+z
1/2-x,1/2-y,1/2+z
1/2+x,1/2-y,-z
1/2-x,1/2+y,-z
1/2-x,1/2-y,1/2-z
1/2+x,1/2+y,1/2-z
1/2-x,1/2+y,z
1/2+x,1/2-y,z
loop_
_atom_site_type_symbol
_atom_site_label
_atom_site_fract_x
_atom_site_fract_y
_atom_site_fract_z
Si Si1 0.455042 0.765200 0.895965
Si Si2 0.724705 0.458958 0.898868
Si Si3 0.253235 0.702193 0.608837
Si Si4 0.107826 0.715436 0.898406
Si Si5 0.425565 0.535362 0.849939
Si Si6 0.920859 0.489110 0.354603
O O1 0.532112 0.777797 0.860525
O O2 0.426413 0.664255 0.847180
O O3 0.406127 0.867065 0.881905
O O4 0.458113 0.744757 0.000000
O O5 0.759999 0.573375 0.861512
O O6 0.727526 0.328921 0.867000
O O7 0.644338 0.491397 0.897936
O O8 0.746763 0.451356 0.000000
O O9 0.248129 0.699463 0.500000
O O10 0.331151 0.719285 0.641701
O O11 0.122336 0.586249 0.893773
O O12 0.103260 0.748429 0.000000
O O13 0.500000 0.500000 0.887666
O O14 0.422448 0.500000 0.750000
O O15 0.920766 0.500000 0.250000
O O16 0.000000 0.500000 0.387150
#
# Coordination Sequence:
#
# PCOD9526924 Si02
#       6
#    16  16  16  16  16  16
#     4  10  20  35  58  87 118 158 209 260 311 378
#     4  10  21  40  64  90 121 161 209 260 316 381
#     4   9  19  35  58  85 114 152 200 255 312 371
#     4   9  17  32  55  84 118 154 197 249 305 369
#     4  11  25  41  60  87 122 161 207 265 327 384
#     4   9  18  30  49  80 120 161 200 246 307 371
#
# _framework density 26.275673999999999
#
# number of rings (size 3 to 8) (size 9 to 14) (size 15 to 20)
#    0.000    2.333    0.000    2.000    0.000   12.667 
#    0.000    5.000    0.000    0.000    0.000    0.000 
#    0.000    0.000    0.000    0.000    0.000    0.000 
#
# Total GULP energy -267523.567149 kJ/mol
# GULP energy per Si atom -5573.407649 kJ/mol
# Density = 2.621587 g / cm^3
# Si number density = 26.275674 Si / 1000 Ang^3
#
#
#
# Elastic Constant Matrix: (Units=GPa)
#
#
# Indices 1 2 3 4 5 6 
#
# 1 101.4817 40.7584 7.4962 0.0000 0.0000 0.0000
# 2 40.7584 232.7456 17.9833 0.0000 0.0000 0.0000
# 3 7.4962 17.9833 56.9118 0.0000 0.0000 0.0000
# 4 0.0000 0.0000 0.0000 -6.8421 0.0000 0.0000
# 5 0.0000 0.0000 0.0000 0.0000 9.2817 0.0000
# 6 0.0000 0.0000 0.0000 0.0000 0.0000 29.6343
#
#
#
# Elastic Compliance Matrix: (Units=1/GPa)
#
#
# Indices 1 2 3 4 5 6 
#
# 1 0.010638 -0.001799 -0.000833 0.000000 0.000000 0.000000
# 2 -0.001799 0.004708 -0.001251 0.000000 0.000000 0.000000
# 3 -0.000833 -0.001251 0.018076 0.000000 0.000000 0.000000
# 4 0.000000 0.000000 0.000000 -0.146153 0.000000 0.000000
# 5 0.000000 0.000000 0.000000 0.000000 0.107739 0.000000
# 6 0.000000 0.000000 0.000000 0.000000 0.000000 0.033745
#
#
# Mechanical properties :
#
#
# Convention : Reuss Voigt Hill
#
# Bulk Modulus (GPa) = 38.97485 58.17943 48.57714
# Shear Modulus (GPa) = 110.93943 28.07484 69.50714
#
# Velocity S-wave (km/s) = 6.50484 3.27230 5.14883
# Velocity P-wave (km/s) = 8.44290 6.03881 7.33995
#
# Compressibility (1/GPa) = 0.02565757
#
# Stress axis : x y z
#
# Youngs Moduli (GPa) = 94.00378 212.39794 55.32200
#
# Poissons Ratio (x) = 0.38201 0.04608
# Poissons Ratio (y) = 0.16907 0.06920
# Poissons Ratio (z) = 0.07829 0.26567
#
# Static dielectric constant tensor:
#      x y z
#    x 2.042920 0.000000 0.000000 
#    y 0.000000 2.170620 0.000000 
#    z 0.000000 0.000000 1.943730 
# 
# From -- ./inp_files/33256.got.cif
#   From: 2010.05.17/outbox.cif.g08.bks.cpg/sg72_17_cif.got.tgz:33256.got - 2010.06.03 17:03:01.
