data_PCOD9526094
_publ_section_title
;
Structure prediction by ZEFSAII (Michael W. Deem and Ramdas Pophale) SiO2 
 PCOD9526094
Probable space group: I B A M
;
_chemical_formula_sum "Si O2"
_cell_formula_units_Z 108
_cell_length_a 15.509285
_cell_length_b 17.530186
_cell_length_c 20.828526
_cell_angle_alpha 90.000000
_cell_angle_beta 90.000000
_cell_angle_gamma 90.000000
_cell_volume 5662.873204
_symmetry_space_group_name_H-M "I B A M"
_symmetry_group_IT_number 72
_symmetry_cell_setting 'orthorhombic'
loop_
_space_group_symop_operation_xyz
x,y,z
-x,-y,z
x,-y,1/2-z
-x,y,1/2-z
-x,-y,-z
x,y,-z
-x,y,1/2+z
x,-y,1/2+z
1/2+x,1/2+y,1/2+z
1/2-x,1/2-y,1/2+z
1/2+x,1/2-y,-z
1/2-x,1/2+y,-z
1/2-x,1/2-y,1/2-z
1/2+x,1/2+y,1/2-z
1/2-x,1/2+y,z
1/2+x,1/2-y,z
loop_
_atom_site_type_symbol
_atom_site_label
_atom_site_fract_x
_atom_site_fract_y
_atom_site_fract_z
Si Si1 0.884596 0.663581 0.888340
Si Si2 0.398877 0.778845 0.253808
Si Si3 0.211481 0.500000 0.250000
Si Si4 0.586739 0.171575 0.396858
Si Si5 0.799500 0.814169 0.570081
Si Si6 0.600639 0.992928 0.123143
Si Si7 0.647318 0.386352 0.702800
Si Si8 0.000000 0.000000 0.250000
O O1 0.875800 0.676951 0.811282
O O2 0.801833 0.704125 0.918733
O O3 0.875609 0.574417 0.906711
O O4 0.983492 0.685964 0.904938
O O5 0.500000 0.762609 0.250000
O O6 0.390430 0.823412 0.320696
O O7 0.357909 0.695620 0.262092
O O8 0.154604 0.486749 0.312258
O O9 0.274302 0.569592 0.265270
O O10 0.643545 0.237550 0.427329
O O11 0.607746 0.084992 0.416793
O O12 0.809571 0.849985 0.500000
O O13 0.832161 0.866748 0.628699
O O14 0.500000 0.000000 0.140978
O O15 0.563694 0.441507 0.711612
#
# Coordination Sequence:
#
# PCOD9526094 Si02
#       8
#    16  16   8  16  16  16  16   4
#     4  10  20  37  60  90 122 159 191 251 317 356
#     4   9  17  32  54  86 118 150 187 239 307 362
#     4  11  19  29  55  92 120 154 185 241 313 365
#     4   9  21  35  61  87 120 156 200 249 302 362
#     4  11  24  42  60  85 121 166 215 249 292 364
#     4  10  19  34  53  89 124 148 184 239 308 374
#     4  10  21  35  59  90 122 158 196 250 308 368
#     4  10  20  40  64  92 126 154 194 250 332 366
#
# _framework density 19.071591000000002
#
# number of rings (size 3 to 8) (size 9 to 14) (size 15 to 20)
#    0.000    2.074    2.222    1.111    2.074    4.148 
#    0.000    1.111    0.000    2.667    0.000    0.000 
#    0.000    0.000    0.000    0.000    0.000    0.000 
#
# Total GULP energy -301083.746657 kJ/mol
# GULP energy per Si atom -5575.624938 kJ/mol
# Density = 1.902818 g / cm^3
# Si number density = 19.071591 Si / 1000 Ang^3
#
#
#
# Elastic Constant Matrix: (Units=GPa)
#
#
# Indices 1 2 3 4 5 6 
#
# 1 95.9193 47.6918 18.4999 0.0000 0.0000 0.0000
# 2 47.6918 105.3719 6.6868 0.0000 0.0000 0.0000
# 3 18.4999 6.6868 47.8162 0.0000 0.0000 0.0000
# 4 0.0000 0.0000 0.0000 0.1622 0.0000 0.0000
# 5 0.0000 0.0000 0.0000 0.0000 -0.3366 0.0000
# 6 0.0000 0.0000 0.0000 0.0000 0.0000 27.0872
#
#
#
# Elastic Compliance Matrix: (Units=1/GPa)
#
#
# Indices 1 2 3 4 5 6 
#
# 1 0.014434 -0.006234 -0.004713 0.000000 0.000000 0.000000
# 2 -0.006234 0.012267 0.000696 0.000000 0.000000 0.000000
# 3 -0.004713 0.000696 0.022639 0.000000 0.000000 0.000000
# 4 0.000000 0.000000 0.000000 6.163853 -0.000007 0.000000
# 5 0.000000 0.000000 0.000000 -0.000007 -2.970648 0.000000
# 6 0.000000 0.000000 0.000000 0.000000 0.000000 0.036918
#
#
# Mechanical properties :
#
#
# Convention : Reuss Voigt Hill
#
# Bulk Modulus (GPa) = 34.67358 43.87383 39.27370
# Shear Modulus (GPa) = 1.51077 17.13114 9.32096
#
# Velocity S-wave (km/s) = 0.89100 3.00034 2.21313
# Velocity P-wave (km/s) = 4.39075 5.92094 5.21230
#
# Compressibility (1/GPa) = 0.02884040
#
# Stress axis : x y z
#
# Youngs Moduli (GPa) = 69.28173 81.51665 44.17085
#
# Poissons Ratio (x) = 0.50815 0.20816
# Poissons Ratio (y) = 0.43189 -0.03076
# Poissons Ratio (z) = 0.32650 -0.05676
#
# Static dielectric constant tensor:
#      x y z
#    x 1.670860 0.000000 0.000000 
#    y 0.000000 1.731200 0.000000 
#    z 0.000000 0.000000 1.654720 
# 
# From -- ./inp_files/39250.got.cif
#   From: 2010.05.17/outbox.cif.g08.bks.cpg/sg72_20_cif.got.tgz:39250.got - 2010.06.03 17:03:01.
