data_PCOD9526029
_publ_section_title
;
Structure prediction by ZEFSAII (Michael W. Deem and Ramdas Pophale) SiO2 
 PCOD9526029
Probable space group: I B A M
;
_chemical_formula_sum "Si O2"
_cell_formula_units_Z 112
_cell_length_a 18.667586
_cell_length_b 19.232869
_cell_length_c 18.817440
_cell_angle_alpha 90.000000
_cell_angle_beta 90.000000
_cell_angle_gamma 90.000000
_cell_volume 6756.048743
_symmetry_space_group_name_H-M "I B A M"
_symmetry_group_IT_number 72
_symmetry_cell_setting 'orthorhombic'
loop_
_space_group_symop_operation_xyz
x,y,z
-x,-y,z
x,-y,1/2-z
-x,y,1/2-z
-x,-y,-z
x,y,-z
-x,y,1/2+z
x,-y,1/2+z
1/2+x,1/2+y,1/2+z
1/2-x,1/2-y,1/2+z
1/2+x,1/2-y,-z
1/2-x,1/2+y,-z
1/2-x,1/2-y,1/2-z
1/2+x,1/2+y,1/2-z
1/2-x,1/2+y,z
1/2+x,1/2-y,z
loop_
_atom_site_type_symbol
_atom_site_label
_atom_site_fract_x
_atom_site_fract_y
_atom_site_fract_z
Si Si1 0.612624 0.928376 0.715097
Si Si2 0.208740 0.529109 0.583107
Si Si3 0.455517 0.215616 0.683658
Si Si4 0.914385 0.266433 0.915237
Si Si5 0.700858 0.343715 0.415628
Si Si6 0.696766 0.120393 0.353432
Si Si7 0.206992 0.758711 0.323783
O O1 0.650976 0.944482 0.640480
O O2 0.558649 0.866118 0.698591
O O3 0.669578 0.901560 0.774650
O O4 0.584204 0.000000 0.750000
O O5 0.189684 0.539616 0.500000
O O6 0.280342 0.575387 0.597194
O O7 0.211989 0.447606 0.600291
O O8 0.500000 0.244025 0.750000
O O9 0.506560 0.227288 0.616665
O O10 0.377360 0.249342 0.681758
O O11 0.873374 0.194345 0.894539
O O12 0.865370 0.329237 0.884487
O O13 0.915901 0.271340 0.000000
O O14 0.706948 0.333014 0.500000
O O15 0.762021 0.299744 0.376250
O O16 0.767768 0.166552 0.350668
O O17 0.250000 0.750000 0.250000
#
# Coordination Sequence:
#
# PCOD9526029 Si02
#       7
#    16  16  16  16  16  16  16
#     4  10  20  34  52  76 109 144 177 220 263 321
#     4  10  19  33  56  83 107 139 184 228 273 322
#     4  12  21  34  52  79 110 147 181 217 279 333
#     4  10  21  35  52  77 112 146 181 229 280 331
#     4   9  18  34  54  76 104 141 182 228 270 316
#     4  10  19  36  56  78 107 139 183 230 275 323
#     4  11  19  34  56  80 103 137 188 232 269 320
#
# _framework density 16.577736999999999
#
# number of rings (size 3 to 8) (size 9 to 14) (size 15 to 20)
#    0.000    1.714    4.286    1.286    0.000    2.000 
#    0.000    0.000    0.000    3.429    0.000    4.000 
#    0.000    0.000    0.000    0.000    0.000    0.000 
#
# Total GULP energy -312021.346553 kJ/mol
# GULP energy per Si atom -5571.809760 kJ/mol
# Density = 1.654001 g / cm^3
# Si number density = 16.577737 Si / 1000 Ang^3
#
#
#
# Elastic Constant Matrix: (Units=GPa)
#
#
# Indices 1 2 3 4 5 6 
#
# 1 132.2678 50.8624 42.3967 0.0000 0.0000 0.0000
# 2 50.8624 69.8281 33.4458 0.0000 0.0000 0.0000
# 3 42.3967 33.4458 79.0385 0.0000 0.0000 0.0000
# 4 0.0000 0.0000 0.0000 20.5867 0.0000 0.0000
# 5 0.0000 0.0000 0.0000 0.0000 24.1467 0.0000
# 6 0.0000 0.0000 0.0000 0.0000 0.0000 26.5785
#
#
#
# Elastic Compliance Matrix: (Units=1/GPa)
#
#
# Indices 1 2 3 4 5 6 
#
# 1 0.011104 -0.006566 -0.003178 0.000000 0.000000 0.000000
# 2 -0.006566 0.021844 -0.005721 0.000000 0.000000 0.000000
# 3 -0.003178 -0.005721 0.016778 0.000000 0.000000 0.000000
# 4 0.000000 0.000000 0.000000 0.048575 0.000000 0.000000
# 5 0.000000 0.000000 0.000000 0.000000 0.041413 0.000000
# 6 0.000000 0.000000 0.000000 0.000000 0.000000 0.037624
#
#
# Mechanical properties :
#
#
# Convention : Reuss Voigt Hill
#
# Bulk Modulus (GPa) = 53.20497 59.39380 56.29939
# Shear Modulus (GPa) = 23.30638 24.55770 23.93204
#
# Velocity S-wave (km/s) = 3.75358 3.85303 3.80363
# Velocity P-wave (km/s) = 7.13791 7.46322 7.30238
#
# Compressibility (1/GPa) = 0.01879524
#
# Stress axis : x y z
#
# Youngs Moduli (GPa) = 90.05854 45.77936 59.60297
#
# Poissons Ratio (x) = 0.30059 0.18940
# Poissons Ratio (y) = 0.59132 0.34101
# Poissons Ratio (z) = 0.28618 0.26192
#
# Static dielectric constant tensor:
#      x y z
#    x 1.554460 0.000000 0.000000 
#    y 0.000000 1.604100 0.000000 
#    z 0.000000 0.000000 1.576340 
# 
# From -- ./inp_files/31932.got.cif
#   From: 2010.05.17/outbox.cif.g08.bks.cpg/sg72_16_cif.got.tgz:31932.got - 2010.06.03 17:03:01.
