data_PCOD9526970
_publ_section_title
;
Structure prediction by ZEFSAII (Michael W. Deem and Ramdas Pophale) SiO2 
 PCOD9526970
Probable space group: I B A M
;
_chemical_formula_sum "Si O2"
_cell_formula_units_Z 112
_cell_length_a 14.590574
_cell_length_b 22.254116
_cell_length_c 16.205247
_cell_angle_alpha 90.000000
_cell_angle_beta 90.000000
_cell_angle_gamma 90.000000
_cell_volume 5261.848989
_symmetry_space_group_name_H-M "I B A M"
_symmetry_group_IT_number 72
_symmetry_cell_setting 'orthorhombic'
loop_
_space_group_symop_operation_xyz
x,y,z
-x,-y,z
x,-y,1/2-z
-x,y,1/2-z
-x,-y,-z
x,y,-z
-x,y,1/2+z
x,-y,1/2+z
1/2+x,1/2+y,1/2+z
1/2-x,1/2-y,1/2+z
1/2+x,1/2-y,-z
1/2-x,1/2+y,-z
1/2-x,1/2-y,1/2-z
1/2+x,1/2+y,1/2-z
1/2-x,1/2+y,z
1/2+x,1/2-y,z
loop_
_atom_site_type_symbol
_atom_site_label
_atom_site_fract_x
_atom_site_fract_y
_atom_site_fract_z
Si Si1 0.696970 0.241678 0.163555
Si Si2 0.934579 0.600655 0.600613
Si Si3 0.116778 0.268008 0.593813
Si Si4 0.725516 0.012416 0.600835
Si Si5 0.856016 0.388166 0.599808
Si Si6 0.478718 0.671740 0.159063
Si Si7 0.574727 0.454156 0.903141
O O1 0.750000 0.250000 0.250000
O O2 0.774714 0.259856 0.098123
O O3 0.666683 0.173631 0.145425
O O4 0.609332 0.284665 0.158861
O O5 0.928354 0.600772 0.500000
O O6 0.909154 0.667460 0.631174
O O7 0.860157 0.552606 0.630272
O O8 0.040753 0.590089 0.619834
O O9 0.083781 0.268879 0.500000
O O10 0.064879 0.212707 0.634760
O O11 0.722909 0.015428 0.500000
O O12 0.711282 0.942665 0.621711
O O13 0.822727 0.037444 0.631140
O O14 0.852055 0.377958 0.500000
O O15 0.500000 0.648359 0.250000
O O16 0.459386 0.613833 0.104440
O O17 0.500000 0.500000 0.867060
O O18 0.583264 0.469205 0.000000
#
# Coordination Sequence:
#
# PCOD9526970 Si02
#       7
#    16  16  16  16  16  16  16
#     4  12  25  41  61  93 132 175 216 271 334 388
#     4   9  17  33  58  93 126 158 202 262 325 380
#     4  11  23  39  66  96 127 170 222 271 320 390
#     4   9  18  34  59  93 129 164 204 265 329 384
#     4  10  20  35  61  93 127 165 216 268 322 391
#     4  12  25  44  65  93 128 176 220 271 333 391
#     4  10  23  41  64  94 129 167 216 274 325 386
#
# _framework density 21.285292999999999
#
# number of rings (size 3 to 8) (size 9 to 14) (size 15 to 20)
#    0.000    1.571    2.857    2.143    2.000    4.857 
#    0.000    0.000    0.000    2.571    0.000    5.000 
#    0.000    0.000    0.000    0.000    0.000    0.286 
#
# Total GULP energy -312868.578147 kJ/mol
# GULP energy per Si atom -5586.938895 kJ/mol
# Density = 2.123685 g / cm^3
# Si number density = 21.285293 Si / 1000 Ang^3
#
#
#
# Elastic Constant Matrix: (Units=GPa)
#
#
# Indices 1 2 3 4 5 6 
#
# 1 87.4459 27.5954 4.1376 0.0000 0.0000 0.0000
# 2 27.5954 106.1652 2.2330 0.0002 0.0000 0.0000
# 3 4.1376 2.2330 23.0467 0.0002 0.0001 0.0000
# 4 0.0000 0.0002 0.0002 -21.8566 0.0001 0.0000
# 5 0.0000 0.0000 0.0001 0.0001 9.0287 0.0000
# 6 0.0000 0.0000 0.0000 0.0000 0.0000 30.1568
#
#
#
# Elastic Compliance Matrix: (Units=1/GPa)
#
#
# Indices 1 2 3 4 5 6 
#
# 1 0.012543 -0.003220 -0.001940 0.000000 0.000000 0.000000
# 2 -0.003220 0.010265 -0.000417 0.000000 0.000000 0.000000
# 3 -0.001940 -0.000417 0.043779 0.000000 0.000000 0.000000
# 4 0.000000 0.000000 0.000000 -0.045753 0.000000 0.000000
# 5 0.000000 0.000000 0.000000 0.000000 0.110758 0.000000
# 6 0.000000 0.000000 0.000000 0.000000 0.000000 0.033160
#
#
# Mechanical properties :
#
#
# Convention : Reuss Voigt Hill
#
# Bulk Modulus (GPa) = 18.03921 31.62110 24.83015
# Shear Modulus (GPa) = 25.72241 15.64524 20.68382
#
# Velocity S-wave (km/s) = 3.48006 2.71408 3.12066
# Velocity P-wave (km/s) = 4.96398 4.97089 4.96744
#
# Compressibility (1/GPa) = 0.05543480
#
# Stress axis : x y z
#
# Youngs Moduli (GPa) = 79.72290 97.41927 22.84215
#
# Poissons Ratio (x) = 0.31365 0.04431
# Poissons Ratio (y) = 0.25668 0.00952
# Poissons Ratio (z) = 0.15466 0.04058
#
# Static dielectric constant tensor:
#      x y z
#    x 1.745590 0.000000 0.000000 
#    y 0.000000 1.738290 0.000000 
#    z 0.000000 0.000000 1.807670 
# 
# From -- ./inp_files/22099.got.cif
#   From: 2010.05.17/outbox.cif.g08.bks.cpg/sg72_12_cif.got.tgz:22099.got - 2010.06.03 17:03:01.
