data_PCOD9526570
_publ_section_title
;
Structure prediction by ZEFSAII (Michael W. Deem and Ramdas Pophale) SiO2 
 PCOD9526570
Probable space group: I B A M
;
_chemical_formula_sum "Si O2"
_cell_formula_units_Z 52
_cell_length_a 13.728823
_cell_length_b 24.442577
_cell_length_c 9.235440
_cell_angle_alpha 90.000000
_cell_angle_beta 90.000000
_cell_angle_gamma 90.000000
_cell_volume 3099.116406
_symmetry_space_group_name_H-M "I B A M"
_symmetry_group_IT_number 72
_symmetry_cell_setting 'orthorhombic'
loop_
_space_group_symop_operation_xyz
x,y,z
-x,-y,z
x,-y,1/2-z
-x,y,1/2-z
-x,-y,-z
x,y,-z
-x,y,1/2+z
x,-y,1/2+z
1/2+x,1/2+y,1/2+z
1/2-x,1/2-y,1/2+z
1/2+x,1/2-y,-z
1/2-x,1/2+y,-z
1/2-x,1/2-y,1/2-z
1/2+x,1/2+y,1/2-z
1/2-x,1/2+y,z
1/2+x,1/2-y,z
loop_
_atom_site_type_symbol
_atom_site_label
_atom_site_fract_x
_atom_site_fract_y
_atom_site_fract_z
Si Si1 0.597655 0.761773 0.170391
Si Si2 0.500000 0.500000 0.250000
Si Si3 0.191259 0.052406 0.335471
Si Si4 0.709193 0.666013 0.329428
O O1 0.500000 0.780432 0.250000
O O2 0.634937 0.706621 0.248348
O O3 0.684955 0.805514 0.184217
O O4 0.580763 0.752110 0.000000
O O5 0.424647 0.461894 0.163751
O O6 0.225912 0.056694 0.500000
O O7 0.207780 0.107349 0.246356
O O8 0.234234 0.000000 0.250000
O O9 0.685705 0.661835 0.500000
#
# Coordination Sequence:
#
# PCOD9526570 Si02
#       4
#    16   4  16  16
#     4  10  21  36  55  78 105 140 177 219 264 310
#     4   8  22  32  50  76 104 136 174 204 256 316
#     4  10  20  33  51  74 106 139 172 212 257 310
#     4  10  21  36  54  78 108 139 177 218 261 313
#
# _framework density 16.778974999999999
#
# number of rings (size 3 to 8) (size 9 to 14) (size 15 to 20)
#    0.923    1.231    0.000    3.231    2.154    3.692 
#    0.000    0.000    0.000    0.923    0.000    6.462 
#    0.000    0.000    0.000    0.000    0.000    0.000 
#
# Total GULP energy -144851.710666 kJ/mol
# GULP energy per Si atom -5571.219641 kJ/mol
# Density = 1.674079 g / cm^3
# Si number density = 16.778975 Si / 1000 Ang^3
#
#
#
# Elastic Constant Matrix: (Units=GPa)
#
#
# Indices 1 2 3 4 5 6 
#
# 1 42.5955 6.2788 37.4176 0.0000 -0.0001 0.0000
# 2 6.2788 123.9713 71.0402 0.0000 0.0000 0.0000
# 3 37.4176 71.0402 165.1184 0.0007 -0.0002 0.0003
# 4 0.0000 0.0000 0.0007 15.9805 0.0002 0.0002
# 5 -0.0001 0.0000 -0.0002 0.0002 39.4115 -0.0001
# 6 0.0000 0.0000 0.0003 0.0002 -0.0001 7.2897
#
#
#
# Elastic Compliance Matrix: (Units=1/GPa)
#
#
# Indices 1 2 3 4 5 6 
#
# 1 0.030226 0.003178 -0.008217 0.000000 0.000000 0.000000
# 2 0.003178 0.011040 -0.005470 0.000000 0.000000 0.000000
# 3 -0.008217 -0.005470 0.010272 0.000000 0.000000 0.000000
# 4 0.000000 0.000000 0.000000 0.062576 0.000000 -0.000001
# 5 0.000000 0.000000 0.000000 0.000000 0.025373 0.000000
# 6 0.000000 0.000000 0.000000 -0.000001 0.000000 0.137180
#
#
# Mechanical properties :
#
#
# Convention : Reuss Voigt Hill
#
# Bulk Modulus (GPa) = 32.76569 62.35093 47.55831
# Shear Modulus (GPa) = 16.24126 26.99958 21.62042
#
# Velocity S-wave (km/s) = 3.11457 4.01575 3.59352
# Velocity P-wave (km/s) = 5.70125 7.66436 6.75451
#
# Compressibility (1/GPa) = 0.03051973
#
# Stress axis : x y z
#
# Youngs Moduli (GPa) = 33.08395 90.58062 97.35583
#
# Poissons Ratio (x) = -0.28783 0.79994
# Poissons Ratio (y) = -0.10513 0.53252
# Poissons Ratio (z) = 0.27184 0.49546
#
# Static dielectric constant tensor:
#      x y z
#    x 1.563380 0.000000 0.000000 
#    y 0.000000 1.540330 0.000000 
#    z 0.000000 0.000000 1.569020 
# 
# From -- ./inp_files/2304.got.cif
#   From: 2010.05.17/outbox.cif.g08.bks.cpg/sg72_2_cif.got.tgz:2304.got - 2010.06.03 17:03:01.
