data_PCOD9526900
_publ_section_title
;
Structure prediction by ZEFSAII (Michael W. Deem and Ramdas Pophale) SiO2 
 PCOD9526900
Probable space group: I B A M
;
_chemical_formula_sum "Si O2"
_cell_formula_units_Z 116
_cell_length_a 26.051791
_cell_length_b 25.902781
_cell_length_c 8.956284
_cell_angle_alpha 90.000000
_cell_angle_beta 90.000000
_cell_angle_gamma 90.000000
_cell_volume 6043.824371
_symmetry_space_group_name_H-M "I B A M"
_symmetry_group_IT_number 72
_symmetry_cell_setting 'orthorhombic'
loop_
_space_group_symop_operation_xyz
x,y,z
-x,-y,z
x,-y,1/2-z
-x,y,1/2-z
-x,-y,-z
x,y,-z
-x,y,1/2+z
x,-y,1/2+z
1/2+x,1/2+y,1/2+z
1/2-x,1/2-y,1/2+z
1/2+x,1/2-y,-z
1/2-x,1/2+y,-z
1/2-x,1/2-y,1/2-z
1/2+x,1/2+y,1/2-z
1/2-x,1/2+y,z
1/2+x,1/2-y,z
loop_
_atom_site_type_symbol
_atom_site_label
_atom_site_fract_x
_atom_site_fract_y
_atom_site_fract_z
Si Si1 0.000000 0.000000 0.750000
Si Si2 0.840137 0.551715 0.178582
Si Si3 0.849275 0.740705 0.821056
Si Si4 0.397011 0.551280 0.170286
Si Si5 0.552152 0.070165 0.669546
Si Si6 0.657315 0.352601 0.679493
Si Si7 0.052265 0.694403 0.170745
Si Si8 0.724505 0.848948 0.319067
O O1 0.958497 0.038188 0.672208
O O2 0.817124 0.500000 0.250000
O O3 0.898256 0.555782 0.235622
O O4 0.810899 0.603385 0.228812
O O5 0.838477 0.548786 0.000000
O O6 0.854036 0.795975 0.743332
O O7 0.899633 0.709765 0.771169
O O8 0.800678 0.705454 0.770342
O O9 0.847020 0.746596 0.000000
O O10 0.374586 0.500000 0.250000
O O11 0.378998 0.602552 0.255128
O O12 0.380176 0.554614 0.000000
O O13 0.500000 0.054494 0.750000
O O14 0.555933 0.050297 0.500000
O O15 0.550736 0.132441 0.662611
O O16 0.653588 0.352997 0.500000
O O17 0.717072 0.359983 0.724360
O O18 0.000000 0.712428 0.250000
O O19 0.056786 0.713884 0.000000
O O20 0.723370 0.847520 0.500000
#
# Coordination Sequence:
#
# PCOD9526900 Si02
#       8
#     4  16  16  16  16  16  16  16
#     4   8  22  40  74  96 134 164 210 248 310 368
#     4  11  22  39  59  84 116 154 200 253 306 362
#     4  11  21  39  63  89 122 163 209 257 313 372
#     4  10  21  40  66  96 127 164 204 249 307 370
#     4  10  20  35  57  84 113 149 192 241 297 357
#     4  11  23  40  62  94 129 162 206 257 308 368
#     4  10  20  35  57  86 118 155 199 244 300 362
#     4   9  21  40  62  85 119 164 208 258 313 368
#
# _framework density 19.193144
#
# number of rings (size 3 to 8) (size 9 to 14) (size 15 to 20)
#    0.414    1.379    1.379    3.103    0.000    1.931 
#    1.241    7.586    0.000    0.000    0.000    0.000 
#    0.000    0.000    0.000    0.000    0.000    0.000 
#
# Total GULP energy -323490.082807 kJ/mol
# GULP energy per Si atom -5577.415221 kJ/mol
# Density = 1.914946 g / cm^3
# Si number density = 19.193144 Si / 1000 Ang^3
#
#
#
# Elastic Constant Matrix: (Units=GPa)
#
#
# Indices 1 2 3 4 5 6 
#
# 1 85.1890 42.1937 23.6054 0.0000 0.0000 0.0000
# 2 42.1937 129.7645 47.7460 0.0000 0.0000 0.0000
# 3 23.6054 47.7460 103.0524 0.0000 0.0000 0.0000
# 4 0.0000 0.0000 0.0000 27.5565 0.0000 0.0000
# 5 0.0000 0.0000 0.0000 0.0000 15.3729 0.0000
# 6 0.0000 0.0000 0.0000 0.0000 0.0000 3.3160
#
#
#
# Elastic Compliance Matrix: (Units=1/GPa)
#
#
# Indices 1 2 3 4 5 6 
#
# 1 0.014143 -0.004107 -0.001337 0.000000 0.000000 0.000000
# 2 -0.004107 0.010482 -0.003916 0.000000 0.000000 0.000000
# 3 -0.001337 -0.003916 0.011824 0.000000 0.000000 0.000000
# 4 0.000000 0.000000 0.000000 0.036289 0.000000 0.000000
# 5 0.000000 0.000000 0.000000 0.000000 0.065050 0.000000
# 6 0.000000 0.000000 0.000000 0.000000 0.000000 0.301568
#
#
# Mechanical properties :
#
#
# Convention : Reuss Voigt Hill
#
# Bulk Modulus (GPa) = 56.39976 60.56622 58.48299
# Shear Modulus (GPa) = 10.77617 22.87980 16.82799
#
# Velocity S-wave (km/s) = 2.37208 3.45640 2.96424
# Velocity P-wave (km/s) = 6.07878 6.89591 6.50020
#
# Compressibility (1/GPa) = 0.01773057
#
# Stress axis : x y z
#
# Youngs Moduli (GPa) = 70.70571 95.39717 84.57098
#
# Poissons Ratio (x) = 0.39178 0.11306
# Poissons Ratio (y) = 0.29038 0.33118
# Poissons Ratio (z) = 0.09453 0.37358
#
# Static dielectric constant tensor:
#      x y z
#    x 1.668440 0.000000 0.000000 
#    y 0.000000 1.683910 0.000000 
#    z 0.000000 0.000000 1.661780 
# 
# From -- ./inp_files/8391.got.cif
#   From: 2010.05.17/outbox.cif.g08.bks.cpg/sg72_5_cif.got.tgz:8391.got - 2010.06.03 17:03:01.
