data_PCOD9526266
_publ_section_title
;
Structure prediction by ZEFSAII (Michael W. Deem and Ramdas Pophale) SiO2 
 PCOD9526266
Probable space group: I B A M
;
_chemical_formula_sum "Si O2"
_cell_formula_units_Z 96
_cell_length_a 19.117297
_cell_length_b 29.806537
_cell_length_c 8.051063
_cell_angle_alpha 90.000000
_cell_angle_beta 90.000000
_cell_angle_gamma 90.000000
_cell_volume 4587.660103
_symmetry_space_group_name_H-M "I B A M"
_symmetry_group_IT_number 72
_symmetry_cell_setting 'orthorhombic'
loop_
_space_group_symop_operation_xyz
x,y,z
-x,-y,z
x,-y,1/2-z
-x,y,1/2-z
-x,-y,-z
x,y,-z
-x,y,1/2+z
x,-y,1/2+z
1/2+x,1/2+y,1/2+z
1/2-x,1/2-y,1/2+z
1/2+x,1/2-y,-z
1/2-x,1/2+y,-z
1/2-x,1/2-y,1/2-z
1/2+x,1/2+y,1/2-z
1/2-x,1/2+y,z
1/2+x,1/2-y,z
loop_
_atom_site_type_symbol
_atom_site_label
_atom_site_fract_x
_atom_site_fract_y
_atom_site_fract_z
Si Si1 0.720248 0.450619 0.301508
Si Si2 0.119553 0.547197 0.698225
Si Si3 0.322338 0.351248 0.698777
Si Si4 0.573621 0.142034 0.198568
Si Si5 0.919747 0.222660 0.802720
Si Si6 0.189649 0.704257 0.189975
O O1 0.691484 0.500000 0.250000
O O2 0.721663 0.450365 0.500000
O O3 0.800635 0.449246 0.236088
O O4 0.685647 0.403379 0.248947
O O5 0.089124 0.500000 0.750000
O O6 0.124469 0.548035 0.500000
O O7 0.076299 0.590165 0.748380
O O8 0.317810 0.349886 0.500000
O O9 0.393153 0.326997 0.756305
O O10 0.259050 0.318820 0.766281
O O11 0.500000 0.162357 0.250000
O O12 0.634830 0.164204 0.301435
O O13 0.584941 0.146783 0.000000
O O14 0.858691 0.256162 0.731860
O O15 0.000000 0.230425 0.750000
O O16 0.918138 0.228898 0.000000
O O17 0.206798 0.717362 0.000000
#
# Coordination Sequence:
#
# PCOD9526266 Si02
#       6
#    16  16  16  16  16  16
#     4  10  19  35  58  88 121 156 197 245 300 354
#     4   9  19  33  50  72 102 143 189 239 294 348
#     4  11  22  38  63  94 123 157 200 247 298 356
#     4  11  22  35  51  75 108 150 196 244 298 351
#     4  11  24  42  62  88 122 160 200 247 301 358
#     4  10  22  39  60  87 117 154 200 246 294 348
#
# _framework density 20.925699000000002
#
# number of rings (size 3 to 8) (size 9 to 14) (size 15 to 20)
#    0.000    1.667    1.667    3.000    0.000    5.667 
#    0.000    1.667    0.000    0.500    0.000    3.500 
#    0.000    0.000    0.000    0.000    0.000    0.000 
#
# Total GULP energy -267681.665467 kJ/mol
# GULP energy per Si atom -5576.701364 kJ/mol
# Density = 2.087807 g / cm^3
# Si number density = 20.925699 Si / 1000 Ang^3
#
#
#
# Elastic Constant Matrix: (Units=GPa)
#
#
# Indices 1 2 3 4 5 6 
#
# 1 56.8702 64.6938 11.0008 0.0000 0.0000 0.0000
# 2 64.6938 151.8503 15.2372 0.0000 0.0000 0.0000
# 3 11.0008 15.2372 41.4094 0.0001 -0.0001 0.0004
# 4 0.0000 0.0000 0.0001 18.5092 0.0000 0.0001
# 5 0.0000 0.0000 -0.0001 0.0000 11.3410 0.0001
# 6 0.0000 0.0000 0.0004 0.0001 0.0001 55.1744
#
#
#
# Elastic Compliance Matrix: (Units=1/GPa)
#
#
# Indices 1 2 3 4 5 6 
#
# 1 0.034724 -0.014400 -0.003926 0.000000 0.000000 0.000000
# 2 -0.014400 0.012809 -0.000888 0.000000 0.000000 0.000000
# 3 -0.003926 -0.000888 0.025519 0.000000 0.000000 0.000000
# 4 0.000000 0.000000 0.000000 0.054027 0.000000 0.000000
# 5 0.000000 0.000000 0.000000 0.000000 0.088176 0.000000
# 6 0.000000 0.000000 0.000000 0.000000 0.000000 0.018124
#
#
# Mechanical properties :
#
#
# Convention : Reuss Voigt Hill
#
# Bulk Modulus (GPa) = 28.88123 47.99927 38.44025
# Shear Modulus (GPa) = 17.64609 27.61813 22.63211
#
# Velocity S-wave (km/s) = 2.90707 3.63687 3.29225
# Velocity P-wave (km/s) = 5.00997 6.37366 5.73251
#
# Compressibility (1/GPa) = 0.03462457
#
# Stress axis : x y z
#
# Youngs Moduli (GPa) = 28.79839 78.06777 39.18665
#
# Poissons Ratio (x) = 1.12416 0.15385
# Poissons Ratio (y) = 0.41469 0.03480
# Poissons Ratio (z) = 0.11307 0.06932
#
# Static dielectric constant tensor:
#      x y z
#    x 1.745810 0.000000 0.000000 
#    y 0.000000 1.806210 0.000000 
#    z 0.000000 0.000000 1.733590 
# 
# From -- ./inp_files/6011.got.cif
#   From: 2010.05.17/outbox.cif.g08.bks.cpg/sg72_4_cif.got.tgz:6011.got - 2010.06.03 17:03:01.
