data_PCOD9526638
_publ_section_title
;
Structure prediction by ZEFSAII (Michael W. Deem and Ramdas Pophale) SiO2 
 PCOD9526638
Probable space group: I B A M
;
_chemical_formula_sum "Si O2"
_cell_formula_units_Z 96
_cell_length_a 28.656446
_cell_length_b 10.843340
_cell_length_c 15.950175
_cell_angle_alpha 90.000000
_cell_angle_beta 90.000000
_cell_angle_gamma 90.000000
_cell_volume 4956.223193
_symmetry_space_group_name_H-M "I B A M"
_symmetry_group_IT_number 72
_symmetry_cell_setting 'orthorhombic'
loop_
_space_group_symop_operation_xyz
x,y,z
-x,-y,z
x,-y,1/2-z
-x,y,1/2-z
-x,-y,-z
x,y,-z
-x,y,1/2+z
x,-y,1/2+z
1/2+x,1/2+y,1/2+z
1/2-x,1/2-y,1/2+z
1/2+x,1/2-y,-z
1/2-x,1/2+y,-z
1/2-x,1/2-y,1/2-z
1/2+x,1/2+y,1/2-z
1/2-x,1/2+y,z
1/2+x,1/2-y,z
loop_
_atom_site_type_symbol
_atom_site_label
_atom_site_fract_x
_atom_site_fract_y
_atom_site_fract_z
Si Si1 0.110991 0.270397 0.399280
Si Si2 0.517014 0.872481 0.846788
Si Si3 0.785769 0.991527 0.848130
Si Si4 0.478506 0.622758 0.156155
Si Si5 0.281516 0.769765 0.399626
Si Si6 0.890416 0.017684 0.403003
O O1 0.107948 0.288680 0.500000
O O2 0.072294 0.352871 0.354481
O O3 0.164552 0.290546 0.372975
O O4 0.100387 0.126152 0.382890
O O5 0.500000 0.874938 0.750000
O O6 0.493726 0.750160 0.885222
O O7 0.500000 0.000000 0.885679
O O8 0.768729 0.128368 0.875789
O O9 0.795222 0.000000 0.750000
O O10 0.750778 0.878897 0.865314
O O11 0.835232 0.965075 0.892250
O O12 0.500000 0.500000 0.114875
O O13 0.500000 0.625337 0.250000
O O14 0.423181 0.602078 0.154294
O O15 0.280263 0.776221 0.500000
O O16 0.902640 0.040196 0.500000
#
# Coordination Sequence:
#
# PCOD9526638 Si02
#       6
#    16  16  16  16  16  16
#     4   9  19  36  59  81 112 156 194 230 289 359
#     4  10  21  37  53  79 113 153 188 233 292 348
#     4  11  23  39  64  94 124 156 202 256 308 365
#     4  10  20  33  58  84 112 149 194 243 291 342
#     4  10  21  42  65  88 122 164 201 246 308 369
#     4  10  21  37  60  89 117 154 199 246 301 359
#
# _framework density 19.369588
#
# number of rings (size 3 to 8) (size 9 to 14) (size 15 to 20)
#    0.000    2.000    1.667    3.000    2.333    2.667 
#    6.000    0.000    0.000    0.000    0.000    0.000 
#    0.000    0.000    0.000    0.000    0.000    0.000 
#
# Total GULP energy -267787.330681 kJ/mol
# GULP energy per Si atom -5578.902723 kJ/mol
# Density = 1.932550 g / cm^3
# Si number density = 19.369588 Si / 1000 Ang^3
#
#
#
# Elastic Constant Matrix: (Units=GPa)
#
#
# Indices 1 2 3 4 5 6 
#
# 1 111.2989 69.1343 16.4377 0.0000 0.0000 0.0000
# 2 69.1343 145.2024 6.9827 0.0000 0.0000 0.0000
# 3 16.4377 6.9827 53.9922 0.0000 0.0000 0.0000
# 4 0.0000 0.0000 0.0000 47.0670 0.0000 0.0000
# 5 0.0000 0.0000 0.0000 0.0000 18.7305 0.0000
# 6 0.0000 0.0000 0.0000 0.0000 0.0000 37.5056
#
#
#
# Elastic Compliance Matrix: (Units=1/GPa)
#
#
# Indices 1 2 3 4 5 6 
#
# 1 0.013302 -0.006177 -0.003251 0.000000 0.000000 0.000000
# 2 -0.006177 0.009798 0.000613 0.000000 0.000000 0.000000
# 3 -0.003251 0.000613 0.019432 0.000000 0.000000 0.000000
# 4 0.000000 0.000000 0.000000 0.021246 0.000000 0.000000
# 5 0.000000 0.000000 0.000000 0.000000 0.053389 0.000000
# 6 0.000000 0.000000 0.000000 0.000000 0.000000 0.026663
#
#
# Mechanical properties :
#
#
# Convention : Reuss Voigt Hill
#
# Bulk Modulus (GPa) = 40.15594 55.06699 47.61147
# Shear Modulus (GPa) = 29.45341 35.18988 32.32165
#
# Velocity S-wave (km/s) = 3.90372 4.26697 4.08938
# Velocity P-wave (km/s) = 6.41055 7.26412 6.85064
#
# Compressibility (1/GPa) = 0.02490292
#
# Stress axis : x y z
#
# Youngs Moduli (GPa) = 75.17779 102.05710 51.46259
#
# Poissons Ratio (x) = 0.63040 0.16730
# Poissons Ratio (y) = 0.46437 -0.03156
# Poissons Ratio (z) = 0.24439 -0.06260
#
# Static dielectric constant tensor:
#      x y z
#    x 1.714060 0.000000 0.000000 
#    y 0.000000 1.715810 0.000000 
#    z 0.000000 0.000000 1.671260 
# 
# From -- ./inp_files/33892.got.cif
#   From: 2010.05.17/outbox.cif.g08.bks.cpg/sg72_17_cif.got.tgz:33892.got - 2010.06.03 17:03:01.
