data_PCOD9526872
_publ_section_title
;
Structure prediction by ZEFSAII (Michael W. Deem and Ramdas Pophale) SiO2 
 PCOD9526872
Probable space group: I B A M
;
_chemical_formula_sum "Si O2"
_cell_formula_units_Z 112
_cell_length_a 18.651310
_cell_length_b 21.101474
_cell_length_c 14.260654
_cell_angle_alpha 90.000000
_cell_angle_beta 90.000000
_cell_angle_gamma 90.000000
_cell_volume 5612.567492
_symmetry_space_group_name_H-M "I B A M"
_symmetry_group_IT_number 72
_symmetry_cell_setting 'orthorhombic'
loop_
_space_group_symop_operation_xyz
x,y,z
-x,-y,z
x,-y,1/2-z
-x,y,1/2-z
-x,-y,-z
x,y,-z
-x,y,1/2+z
x,-y,1/2+z
1/2+x,1/2+y,1/2+z
1/2-x,1/2-y,1/2+z
1/2+x,1/2-y,-z
1/2-x,1/2+y,-z
1/2-x,1/2-y,1/2-z
1/2+x,1/2+y,1/2-z
1/2-x,1/2+y,z
1/2+x,1/2-y,z
loop_
_atom_site_type_symbol
_atom_site_label
_atom_site_fract_x
_atom_site_fract_y
_atom_site_fract_z
Si Si1 0.345801 0.723395 0.109337
Si Si2 0.727605 0.383183 0.602028
Si Si3 0.704402 0.522823 0.648829
Si Si4 0.064920 0.907540 0.608937
Si Si5 0.923710 0.295453 0.229237
Si Si6 0.066740 0.168033 0.390369
Si Si7 0.219592 0.352990 0.311097
O O1 0.392943 0.659172 0.115868
O O2 0.386490 0.773303 0.174060
O O3 0.268865 0.705353 0.153737
O O4 0.340487 0.738989 0.000000
O O5 0.756371 0.360977 0.500000
O O6 0.718348 0.458862 0.593860
O O7 0.648250 0.354436 0.614067
O O8 0.766273 0.365785 0.699864
O O9 0.727127 0.500000 0.750000
O O10 0.620741 0.542788 0.651361
O O11 0.750529 0.586230 0.630984
O O12 0.058643 0.926482 0.500000
O O13 0.985708 0.888778 0.642737
O O14 0.940148 0.231529 0.169979
O O15 0.863559 0.336665 0.176981
O O16 0.000000 0.327007 0.250000
O O17 0.048294 0.180416 0.500000
#
# Coordination Sequence:
#
# PCOD9526872 Si02
#       7
#    16  16  16  16  16  16  16
#     4  10  20  35  56  81 113 154 192 230 281 342
#     4  10  20  36  60  85 114 151 195 247 289 337
#     4   9  19  35  55  77 111 148 197 241 282 337
#     4   9  17  32  51  76 113 149 182 220 275 339
#     4  12  23  37  59  83 120 154 195 238 288 346
#     4  10  21  35  53  83 121 156 188 228 283 346
#     4  10  22  39  55  85 115 151 193 239 289 346
#
# _framework density 19.955216
#
# number of rings (size 3 to 8) (size 9 to 14) (size 15 to 20)
#    0.000    2.000    2.857    0.857    0.000    2.286 
#    0.000    4.286    0.000    3.857    0.000    1.000 
#    0.000    0.000    0.000    0.000    0.000    0.000 
#
# Total GULP energy -312331.867597 kJ/mol
# GULP energy per Si atom -5577.354779 kJ/mol
# Density = 1.990980 g / cm^3
# Si number density = 19.955216 Si / 1000 Ang^3
#
#
#
# Elastic Constant Matrix: (Units=GPa)
#
#
# Indices 1 2 3 4 5 6 
#
# 1 85.0121 23.5226 -1.4635 0.0000 0.0000 0.0000
# 2 23.5226 44.2769 2.6536 0.0000 0.0000 0.0000
# 3 -1.4635 2.6536 63.1692 0.0000 0.0000 0.0000
# 4 0.0000 0.0000 0.0000 13.1707 0.0000 0.0000
# 5 0.0000 0.0000 0.0000 0.0000 2.9233 0.0000
# 6 0.0000 0.0000 0.0000 0.0000 0.0000 16.4017
#
#
#
# Elastic Compliance Matrix: (Units=1/GPa)
#
#
# Indices 1 2 3 4 5 6 
#
# 1 0.013815 -0.007377 0.000630 0.000000 0.000000 0.000000
# 2 -0.007377 0.026582 -0.001288 0.000000 0.000000 0.000000
# 3 0.000630 -0.001288 0.015899 0.000000 0.000000 0.000000
# 4 0.000000 0.000000 0.000000 0.075926 0.000000 0.000000
# 5 0.000000 0.000000 0.000000 0.000000 0.342076 0.000000
# 6 0.000000 0.000000 0.000000 0.000000 0.000000 0.060969
#
#
# Mechanical properties :
#
#
# Convention : Reuss Voigt Hill
#
# Bulk Modulus (GPa) = 24.85935 26.87594 25.86764
# Shear Modulus (GPa) = 8.85355 17.68218 13.26787
#
# Velocity S-wave (km/s) = 2.10864 2.97996 2.58133
# Velocity P-wave (km/s) = 4.29105 5.03365 4.67711
#
# Compressibility (1/GPa) = 0.04022632
#
# Stress axis : x y z
#
# Youngs Moduli (GPa) = 72.38444 37.62010 62.89629
#
# Poissons Ratio (x) = 0.27753 -0.03962
# Poissons Ratio (y) = 0.53399 0.08098
# Poissons Ratio (z) = -0.04560 0.04844
#
# Static dielectric constant tensor:
#      x y z
#    x 1.719120 0.000000 0.000000 
#    y 0.000000 1.742030 0.000000 
#    z 0.000000 0.000000 2.091530 
# 
# From -- ./inp_files/22151.got.cif
#   From: 2010.05.17/outbox.cif.g08.bks.cpg/sg72_12_cif.got.tgz:22151.got - 2010.06.03 17:03:01.
