data_PCOD9526203
_publ_section_title
;
Structure prediction by ZEFSAII (Michael W. Deem and Ramdas Pophale) SiO2 
 PCOD9526203
Probable space group: I B A M
;
_chemical_formula_sum "Si O2"
_cell_formula_units_Z 88
_cell_length_a 8.564951
_cell_length_b 21.452997
_cell_length_c 22.354761
_cell_angle_alpha 90.000000
_cell_angle_beta 90.000000
_cell_angle_gamma 90.000000
_cell_volume 4107.550257
_symmetry_space_group_name_H-M "I B A M"
_symmetry_group_IT_number 72
_symmetry_cell_setting 'orthorhombic'
loop_
_space_group_symop_operation_xyz
x,y,z
-x,-y,z
x,-y,1/2-z
-x,y,1/2-z
-x,-y,-z
x,y,-z
-x,y,1/2+z
x,-y,1/2+z
1/2+x,1/2+y,1/2+z
1/2-x,1/2-y,1/2+z
1/2+x,1/2-y,-z
1/2-x,1/2+y,-z
1/2-x,1/2-y,1/2-z
1/2+x,1/2+y,1/2-z
1/2-x,1/2+y,z
1/2+x,1/2-y,z
loop_
_atom_site_type_symbol
_atom_site_label
_atom_site_fract_x
_atom_site_fract_y
_atom_site_fract_z
Si Si1 0.080380 0.356553 0.500000
Si Si2 0.429277 0.686209 0.867877
Si Si3 0.422282 0.186028 0.866406
Si Si4 0.920578 0.839760 0.000000
Si Si5 0.760826 0.080838 0.000000
Si Si6 0.430370 0.062688 0.684047
Si Si7 0.882871 0.056733 0.870486
O O1 0.920088 0.396999 0.500000
O O2 0.075747 0.317949 0.438629
O O3 0.261766 0.383638 0.500000
O O4 0.512488 0.747960 0.844170
O O5 0.254797 0.677580 0.843868
O O6 0.527475 0.622647 0.865052
O O7 0.408514 0.697615 0.939014
O O8 0.523552 0.126926 0.847105
O O9 0.093836 0.869500 0.000000
O O10 0.796378 0.049938 0.064618
O O11 0.500000 0.065616 0.750000
O O12 0.246236 0.055275 0.680681
O O13 0.500000 0.000000 0.654431
O O14 0.000000 0.000000 0.865369
#
# Coordination Sequence:
#
# PCOD9526203 Si02
#       7
#     8  16  16   8   8  16  16
#     4  10  19  34  61  94 133 184 210 270 329 398
#     4  10  21  36  62  94 131 172 216 272 327 400
#     4  11  21  39  62  95 131 171 223 269 334 397
#     4   8  19  32  53  92 138 174 225 249 317 409
#     4  10  19  36  64  96 140 176 215 267 337 397
#     4  11  25  46  67  90 123 167 221 277 332 409
#     4  11  22  42  67  98 137 177 221 278 342 406
#
# _framework density 21.423962
#
# number of rings (size 3 to 8) (size 9 to 14) (size 15 to 20)
#    0.000    1.636    1.818    3.000    2.545    0.000 
#    0.000   13.636    0.000    0.000    0.000    0.000 
#    0.000    0.000    0.000    0.000    0.000    0.000 
#
# Total GULP energy -245294.128397 kJ/mol
# GULP energy per Si atom -5574.866554 kJ/mol
# Density = 2.137520 g / cm^3
# Si number density = 21.423962 Si / 1000 Ang^3
#
#
#
# Elastic Constant Matrix: (Units=GPa)
#
#
# Indices 1 2 3 4 5 6 
#
# 1 148.6161 56.5575 29.8899 0.0000 0.0000 0.0000
# 2 56.5575 140.8211 18.7650 0.0000 0.0000 0.0000
# 3 29.8899 18.7650 34.8331 0.0000 0.0000 0.0000
# 4 0.0000 0.0000 0.0000 34.5292 0.0000 0.0000
# 5 0.0000 0.0000 0.0000 0.0000 26.5201 0.0000
# 6 0.0000 0.0000 0.0000 0.0000 0.0000 29.2718
#
#
#
# Elastic Compliance Matrix: (Units=1/GPa)
#
#
# Indices 1 2 3 4 5 6 
#
# 1 0.009054 -0.002802 -0.006260 0.000000 0.000000 0.000000
# 2 -0.002802 0.008518 -0.002184 0.000000 0.000000 0.000000
# 3 -0.006260 -0.002184 0.035256 0.000000 0.000000 0.000000
# 4 0.000000 0.000000 0.000000 0.028961 0.000000 0.000000
# 5 0.000000 0.000000 0.000000 0.000000 0.037707 0.000000
# 6 0.000000 0.000000 0.000000 0.000000 0.000000 0.034163
#
#
# Mechanical properties :
#
#
# Convention : Reuss Voigt Hill
#
# Bulk Modulus (GPa) = 32.96389 59.41055 46.18722
# Shear Modulus (GPa) = 26.84382 32.66809 29.75596
#
# Velocity S-wave (km/s) = 3.54359 3.90915 3.73085
# Velocity P-wave (km/s) = 5.67120 6.94020 6.33755
#
# Compressibility (1/GPa) = 0.03033623
#
# Stress axis : x y z
#
# Youngs Moduli (GPa) = 110.44695 117.40270 28.36384
#
# Poissons Ratio (x) = 0.32899 0.17755
# Poissons Ratio (y) = 0.30950 0.06195
# Poissons Ratio (z) = 0.69136 0.25641
#
# Static dielectric constant tensor:
#      x y z
#    x 1.805190 0.000000 0.000000 
#    y 0.000000 1.793600 0.000000 
#    z 0.000000 0.000000 1.793260 
# 
# From -- ./inp_files/42327.got.cif
#   From: 2010.05.17/outbox.cif.g08.bks.cpg/sg72_22_cif.got.tgz:42327.got - 2010.06.03 17:03:01.
