data_PCOD9526422
_publ_section_title
;
Structure prediction by ZEFSAII (Michael W. Deem and Ramdas Pophale) SiO2 
 PCOD9526422
Probable space group: I B A M
;
_chemical_formula_sum "Si O2"
_cell_formula_units_Z 88
_cell_length_a 23.048566
_cell_length_b 7.696488
_cell_length_c 21.376331
_cell_angle_alpha 90.000000
_cell_angle_beta 90.000000
_cell_angle_gamma 90.000000
_cell_volume 3792.011734
_symmetry_space_group_name_H-M "I B A M"
_symmetry_group_IT_number 72
_symmetry_cell_setting 'orthorhombic'
loop_
_space_group_symop_operation_xyz
x,y,z
-x,-y,z
x,-y,1/2-z
-x,y,1/2-z
-x,-y,-z
x,y,-z
-x,y,1/2+z
x,-y,1/2+z
1/2+x,1/2+y,1/2+z
1/2-x,1/2-y,1/2+z
1/2+x,1/2-y,-z
1/2-x,1/2+y,-z
1/2-x,1/2-y,1/2-z
1/2+x,1/2+y,1/2-z
1/2-x,1/2+y,z
1/2+x,1/2-y,z
loop_
_atom_site_type_symbol
_atom_site_label
_atom_site_fract_x
_atom_site_fract_y
_atom_site_fract_z
Si Si1 0.903700 0.000000 0.750000
Si Si2 0.000000 0.500000 0.905583
Si Si3 0.669718 0.543519 0.500000
Si Si4 0.075657 0.654043 0.799598
Si Si5 0.304571 0.979547 0.500000
Si Si6 0.420515 0.787595 0.000000
Si Si7 0.819387 0.156180 0.354577
Si Si8 0.309991 0.069463 0.860004
O O1 0.940169 0.838330 0.726870
O O2 0.864396 0.926240 0.806752
O O3 0.958346 0.389622 0.861900
O O4 0.958111 0.631037 0.943626
O O5 0.737645 0.454881 0.500000
O O6 0.597462 0.584944 0.500000
O O7 0.674149 0.589866 0.574352
O O8 0.067452 0.500000 0.750000
O O9 0.143186 0.664898 0.818297
O O10 0.313642 0.880911 0.565892
O O11 0.355183 0.125762 0.500000
O O12 0.754011 0.106996 0.336249
O O13 0.823887 0.364868 0.355942
#
# Coordination Sequence:
#
# PCOD9526422 Si02
#       8
#     8   8   8  16   8   8  16  16
#     4  12  28  44  73 110 146 191 258 302 378 460
#     4  11  25  44  80 104 141 199 254 316 364 439
#     4  10  21  39  69  99 149 185 233 305 379 438
#     4  12  25  47  71 102 141 199 247 308 364 433
#     4  10  19  37  68 106 136 190 231 301 377 454
#     4  11  20  44  77 113 139 188 255 299 377 451
#     4  11  22  39  64 109 145 198 235 311 378 453
#     4  11  21  38  68 100 153 188 249 299 382 445
#
# _framework density 23.206678
#
# number of rings (size 3 to 8) (size 9 to 14) (size 15 to 20)
#    0.000    0.909    5.455    1.364    1.273    1.455 
#    0.000    3.636    0.000    1.091    0.000    0.000 
#    0.000    0.000    0.000    0.000    0.000    0.000 
#
# Total GULP energy -245387.135905 kJ/mol
# GULP energy per Si atom -5576.980361 kJ/mol
# Density = 2.315386 g / cm^3
# Si number density = 23.206678 Si / 1000 Ang^3
#
#
#
# Elastic Constant Matrix: (Units=GPa)
#
#
# Indices 1 2 3 4 5 6 
#
# 1 103.3664 9.5476 43.4316 0.0000 0.0000 0.0000
# 2 9.5476 77.9781 34.0165 0.0000 0.0000 0.0000
# 3 43.4316 34.0165 82.7413 0.0000 0.0000 0.0000
# 4 0.0000 0.0000 0.0000 2.5225 0.0000 0.0000
# 5 0.0000 0.0000 0.0000 0.0000 -36.4934 0.0000
# 6 0.0000 0.0000 0.0000 0.0000 0.0000 -14.0031
#
#
#
# Elastic Compliance Matrix: (Units=1/GPa)
#
#
# Indices 1 2 3 4 5 6 
#
# 1 0.012580 0.001633 -0.007275 0.000000 0.000000 0.000000
# 2 0.001633 0.015839 -0.007369 0.000000 0.000000 0.000000
# 3 -0.007275 -0.007369 0.018934 0.000000 0.000000 0.000000
# 4 0.000000 0.000000 0.000000 0.396439 0.000000 0.000000
# 5 0.000000 0.000000 0.000000 0.000000 -0.027402 0.000000
# 6 0.000000 0.000000 0.000000 0.000000 0.000000 -0.071413
#
#
# Mechanical properties :
#
#
# Convention : Reuss Voigt Hill
#
# Bulk Modulus (GPa) = 46.87843 48.67525 47.77684
# Shear Modulus (GPa) = 13.22373 2.21120 7.71747
#
# Velocity S-wave (km/s) = 2.38969 0.97719 1.82558
# Velocity P-wave (km/s) = 5.27811 4.72159 5.00759
#
# Compressibility (1/GPa) = 0.02133177
#
# Stress axis : x y z
#
# Youngs Moduli (GPa) = 79.49021 63.13668 52.81515
#
# Poissons Ratio (x) = -0.10312 0.38422
# Poissons Ratio (y) = -0.12982 0.38919
# Poissons Ratio (z) = 0.57828 0.46524
#
# Static dielectric constant tensor:
#      x y z
#    x 1.874090 0.000000 0.000000 
#    y 0.000000 3.129940 0.000000 
#    z 0.000000 0.000000 1.833480 
# 
# From -- ./inp_files/40213.got.cif
#   From: 2010.05.17/outbox.cif.g08.bks.cpg/sg72_21_cif.got.tgz:40213.got - 2010.06.03 17:03:01.
