data_PCOD9526021
_publ_section_title
;
Structure prediction by ZEFSAII (Michael W. Deem and Ramdas Pophale) SiO2 
 PCOD9526021
Probable space group: I B A M
;
_chemical_formula_sum "Si O2"
_cell_formula_units_Z 88
_cell_length_a 19.385141
_cell_length_b 16.737096
_cell_length_c 14.318531
_cell_angle_alpha 90.000000
_cell_angle_beta 90.000000
_cell_angle_gamma 90.000000
_cell_volume 4645.661213
_symmetry_space_group_name_H-M "I B A M"
_symmetry_group_IT_number 72
_symmetry_cell_setting 'orthorhombic'
loop_
_space_group_symop_operation_xyz
x,y,z
-x,-y,z
x,-y,1/2-z
-x,y,1/2-z
-x,-y,-z
x,y,-z
-x,y,1/2+z
x,-y,1/2+z
1/2+x,1/2+y,1/2+z
1/2-x,1/2-y,1/2+z
1/2+x,1/2-y,-z
1/2-x,1/2+y,-z
1/2-x,1/2-y,1/2-z
1/2+x,1/2+y,1/2-z
1/2-x,1/2+y,z
1/2+x,1/2-y,z
loop_
_atom_site_type_symbol
_atom_site_label
_atom_site_fract_x
_atom_site_fract_y
_atom_site_fract_z
Si Si1 0.117839 0.235439 0.500000
Si Si2 0.806633 0.870793 0.636533
Si Si3 0.645841 0.750256 0.500000
Si Si4 0.214765 0.856775 0.645473
Si Si5 0.019739 0.129106 0.000000
Si Si6 0.187461 0.420698 0.000000
Si Si7 0.831065 0.400276 0.000000
Si Si8 0.091626 0.016493 0.857411
O O1 0.164676 0.208414 0.587509
O O2 0.111331 0.331055 0.500000
O O3 0.049347 0.181469 0.500000
O O4 0.786065 0.852804 0.742889
O O5 0.740374 0.908662 0.586233
O O6 0.870478 0.932754 0.618142
O O7 0.688229 0.721784 0.408622
O O8 0.577901 0.697036 0.500000
O O9 0.637428 0.844614 0.500000
O O10 0.282737 0.884919 0.590999
O O11 0.156301 0.923819 0.629066
O O12 0.033541 0.068556 0.912686
O O13 0.151642 0.506328 0.000000
O O14 0.073632 0.000000 0.750000
#
# Coordination Sequence:
#
# PCOD9526021 Si02
#       8
#     8  16   8  16   8   8   8  16
#     4  11  25  35  51  78 106 152 194 225 268 326
#     4  10  19  33  55  86 111 135 177 226 290 353
#     4   9  20  34  55  78 104 154 184 219 277 322
#     4   9  17  34  56  81 113 137 169 227 287 343
#     4  10  20  40  54  72 122 153 188 233 259 313
#     4  11  20  32  54  82 111 137 184 230 282 336
#     4  11  21  35  53  79 114 143 177 232 285 323
#     4   9  17  31  57  85 110 146 179 216 286 346
#
# _framework density 18.942405000000001
#
# number of rings (size 3 to 8) (size 9 to 14) (size 15 to 20)
#    0.000    2.182    1.818    3.818    0.000    4.364 
#    0.000   11.364    0.000    0.000    0.000    0.000 
#    0.000   11.636    0.000    0.000    0.000    0.000 
#
# Total GULP energy -245050.168420 kJ/mol
# GULP energy per Si atom -5569.322010 kJ/mol
# Density = 1.889929 g / cm^3
# Si number density = 18.942405 Si / 1000 Ang^3
#
#
#
# Elastic Constant Matrix: (Units=GPa)
#
#
# Indices 1 2 3 4 5 6 
#
# 1 70.6150 41.8394 24.8059 0.0000 0.0000 0.0000
# 2 41.8394 178.1099 46.2820 0.0000 0.0000 0.0000
# 3 24.8059 46.2820 130.6630 0.0000 0.0000 0.0000
# 4 0.0000 0.0000 0.0000 3.6827 0.0000 0.0000
# 5 0.0000 0.0000 0.0000 0.0000 -400.8800 0.0000
# 6 0.0000 0.0000 0.0000 0.0000 0.0000 38.6470
#
#
#
# Elastic Compliance Matrix: (Units=1/GPa)
#
#
# Indices 1 2 3 4 5 6 
#
# 1 0.016906 -0.003455 -0.001986 0.000000 0.000000 0.000000
# 2 -0.003455 0.006890 -0.001784 0.000000 0.000000 0.000000
# 3 -0.001986 -0.001784 0.008662 0.000000 0.000000 0.000000
# 4 0.000000 0.000000 0.000000 0.271542 0.000000 0.000000
# 5 0.000000 0.000000 0.000000 0.000000 -0.002495 0.000000
# 6 0.000000 0.000000 0.000000 0.000000 0.000000 0.025875
#
#
# Mechanical properties :
#
#
# Convention : Reuss Voigt Hill
#
# Bulk Modulus (GPa) = 55.53292 67.24917 61.39104
# Shear Modulus (GPa) = 14.37465 -53.94604 -19.78570
#
# Velocity S-wave (km/s) = 2.75773 -5.34236 -3.23541
# Velocity P-wave (km/s) = 6.28653 1.57335 4.30378
#
# Compressibility (1/GPa) = 0.01800734
#
# Stress axis : x y z
#
# Youngs Moduli (GPa) = 59.15007 145.13970 115.44257
#
# Poissons Ratio (x) = 0.50152 0.22923
# Poissons Ratio (y) = 0.20439 0.20600
# Poissons Ratio (z) = 0.11745 0.25900
#
# Static dielectric constant tensor:
#      x y z
#    x 1.687420 0.000000 0.000000 
#    y 0.000000 1.685310 0.000000 
#    z 0.000000 0.000000 1.695860 
# 
# From -- ./inp_files/25132.got.cif
#   From: 2010.05.17/outbox.cif.g08.bks.cpg/sg72_13_cif.got.tgz:25132.got - 2010.06.03 17:03:01.
