data_PCOD9526257
_publ_section_title
;
Structure prediction by ZEFSAII (Michael W. Deem and Ramdas Pophale) SiO2 
 PCOD9526257
Probable space group: I B A M
;
_chemical_formula_sum "Si O2"
_cell_formula_units_Z 88
_cell_length_a 25.793148
_cell_length_b 11.532585
_cell_length_c 14.680022
_cell_angle_alpha 90.000000
_cell_angle_beta 90.000000
_cell_angle_gamma 90.000000
_cell_volume 4366.743885
_symmetry_space_group_name_H-M "I B A M"
_symmetry_group_IT_number 72
_symmetry_cell_setting 'orthorhombic'
loop_
_space_group_symop_operation_xyz
x,y,z
-x,-y,z
x,-y,1/2-z
-x,y,1/2-z
-x,-y,-z
x,y,-z
-x,y,1/2+z
x,-y,1/2+z
1/2+x,1/2+y,1/2+z
1/2-x,1/2-y,1/2+z
1/2+x,1/2-y,-z
1/2-x,1/2+y,-z
1/2-x,1/2-y,1/2-z
1/2+x,1/2+y,1/2-z
1/2-x,1/2+y,z
1/2+x,1/2-y,z
loop_
_atom_site_type_symbol
_atom_site_label
_atom_site_fract_x
_atom_site_fract_y
_atom_site_fract_z
Si Si1 0.839427 0.130906 0.109119
Si Si2 0.002908 0.308063 0.650779
Si Si3 0.045843 0.925706 0.101212
Si Si4 0.685219 0.098202 0.392869
Si Si5 0.735262 0.500000 0.250000
Si Si6 0.078163 0.489188 0.893373
O O1 0.896273 0.085717 0.138740
O O2 0.836459 0.270855 0.114495
O O3 0.798734 0.076033 0.179480
O O4 0.831029 0.103514 0.000000
O O5 0.948494 0.365552 0.623170
O O6 0.000000 0.255241 0.750000
O O7 0.024897 0.204863 0.592336
O O8 0.043704 0.413794 0.655868
O O9 0.053205 0.977571 0.000000
O O10 0.000000 0.000000 0.145453
O O11 0.701015 0.081926 0.500000
O O12 0.638138 0.008673 0.372721
O O13 0.729195 0.076412 0.318181
O O14 0.071312 0.515950 0.000000
#
# Coordination Sequence:
#
# PCOD9526257 Si02
#       6
#    16  16  16  16   8  16
#     4  10  22  43  64  87 122 162 204 252 313 373
#     4  11  21  31  55  89 123 152 190 240 292 355
#     4  10  21  40  62  84 118 163 200 235 294 371
#     4  10  22  40  64  91 121 163 204 250 313 370
#     4  12  24  38  67  89 120 152 214 268 304 352
#     4  10  19  35  58  82 116 156 195 233 290 359
#
# _framework density 20.152317
#
# number of rings (size 3 to 8) (size 9 to 14) (size 15 to 20)
#    0.000    1.636    1.818    4.364    2.545    1.818 
#    0.000    1.818    0.000    4.364    0.000    0.000 
#    0.000    0.000    0.000    0.000    0.000    0.000 
#
# Total GULP energy -245282.137517 kJ/mol
# GULP energy per Si atom -5574.594034 kJ/mol
# Density = 2.010645 g / cm^3
# Si number density = 20.152317 Si / 1000 Ang^3
#
#
#
# Elastic Constant Matrix: (Units=GPa)
#
#
# Indices 1 2 3 4 5 6 
#
# 1 143.1961 42.7189 58.0507 0.0000 0.0000 0.0000
# 2 42.7189 43.6783 10.1373 0.0000 0.0000 0.0000
# 3 58.0507 10.1373 104.0943 0.0000 0.0000 0.0000
# 4 0.0000 0.0000 0.0000 21.4621 0.0000 0.0000
# 5 0.0000 0.0000 0.0000 0.0000 0.7109 0.0000
# 6 0.0000 0.0000 0.0000 0.0000 0.0000 26.5276
#
#
#
# Elastic Compliance Matrix: (Units=1/GPa)
#
#
# Indices 1 2 3 4 5 6 
#
# 1 0.012716 -0.011040 -0.006016 0.000000 0.000000 0.000000
# 2 -0.011040 0.033010 0.002942 0.000000 0.000000 0.000000
# 3 -0.006016 0.002942 0.012675 0.000000 0.000000 0.000000
# 4 0.000000 0.000000 0.000000 0.046594 0.000000 0.000000
# 5 0.000000 0.000000 0.000000 0.000000 1.406741 0.000000
# 6 0.000000 0.000000 0.000000 0.000000 0.000000 0.037697
#
#
# Mechanical properties :
#
#
# Convention : Reuss Voigt Hill
#
# Bulk Modulus (GPa) = 33.14308 56.97582 45.05945
# Shear Modulus (GPa) = 3.14917 21.74423 12.44670
#
# Velocity S-wave (km/s) = 1.25143 3.28837 2.48792
# Velocity P-wave (km/s) = 4.30930 6.53849 5.53723
#
# Compressibility (1/GPa) = 0.03017221
#
# Stress axis : x y z
#
# Youngs Moduli (GPa) = 78.64143 30.29421 78.89413
#
# Poissons Ratio (x) = 0.33446 0.47464
# Poissons Ratio (y) = 0.86823 -0.23212
# Poissons Ratio (z) = 0.47312 -0.08913
#
# Static dielectric constant tensor:
#      x y z
#    x 1.735130 0.000000 0.000000 
#    y 0.000000 1.722480 0.000000 
#    z 0.000000 0.000000 1.756670 
# 
# From -- ./inp_files/20326.got.cif
#   From: 2010.05.17/outbox.cif.g08.bks.cpg/sg72_11_cif.got.tgz:20326.got - 2010.06.03 17:03:01.
