data_PCOD9526658
_publ_section_title
;
Structure prediction by ZEFSAII (Michael W. Deem and Ramdas Pophale) SiO2 
 PCOD9526658
Probable space group: I B A M
;
_chemical_formula_sum "Si O2"
_cell_formula_units_Z 116
_cell_length_a 25.066365
_cell_length_b 25.246019
_cell_length_c 9.079081
_cell_angle_alpha 90.000000
_cell_angle_beta 90.000000
_cell_angle_gamma 90.000000
_cell_volume 5745.477851
_symmetry_space_group_name_H-M "I B A M"
_symmetry_group_IT_number 72
_symmetry_cell_setting 'orthorhombic'
loop_
_space_group_symop_operation_xyz
x,y,z
-x,-y,z
x,-y,1/2-z
-x,y,1/2-z
-x,-y,-z
x,y,-z
-x,y,1/2+z
x,-y,1/2+z
1/2+x,1/2+y,1/2+z
1/2-x,1/2-y,1/2+z
1/2+x,1/2-y,-z
1/2-x,1/2+y,-z
1/2-x,1/2-y,1/2-z
1/2+x,1/2+y,1/2-z
1/2-x,1/2+y,z
1/2+x,1/2-y,z
loop_
_atom_site_type_symbol
_atom_site_label
_atom_site_fract_x
_atom_site_fract_y
_atom_site_fract_z
Si Si1 0.500000 0.500000 0.750000
Si Si2 0.365427 0.789693 0.823459
Si Si3 0.054373 0.198704 0.176365
Si Si4 0.556131 0.872498 0.174742
Si Si5 0.701939 0.555103 0.322977
Si Si6 0.914815 0.084466 0.668390
Si Si7 0.275079 0.137625 0.667729
Si Si8 0.369626 0.948746 0.167796
O O1 0.540088 0.460252 0.831452
O O2 0.391444 0.732208 0.798358
O O3 0.403254 0.827359 0.727948
O O4 0.304427 0.807126 0.788979
O O5 0.371610 0.800698 0.000000
O O6 0.063983 0.139155 0.235541
O O7 0.000000 0.220284 0.250000
O O8 0.044992 0.198583 0.000000
O O9 0.500000 0.862050 0.250000
O O10 0.580869 0.926217 0.240515
O O11 0.551893 0.874245 0.000000
O O12 0.721329 0.500000 0.250000
O O13 0.705007 0.549494 0.500000
O O14 0.640766 0.563214 0.269490
O O15 0.733280 0.607873 0.271848
O O16 0.901829 0.098398 0.500000
O O17 0.254237 0.142278 0.500000
O O18 0.324368 0.096112 0.664917
O O19 0.348488 0.000000 0.250000
O O20 0.384721 0.960385 0.000000
#
# Coordination Sequence:
#
# PCOD9526658 Si02
#       8
#     4  16  16  16  16  16  16  16
#     4  12  18  40  64  86 128 164 198 232 294 348
#     4   9  19  36  58  80 108 145 189 239 292 346
#     4  10  20  37  59  86 118 154 195 243 294 351
#     4  11  21  33  50  72 102 138 181 230 287 348
#     4  11  22  37  57  85 118 154 196 244 292 349
#     4  10  22  37  58  89 123 159 195 235 292 351
#     4   9  19  36  56  80 108 145 189 236 288 344
#     4  10  20  34  51  73 102 136 181 231 288 349
#
# _framework density 20.189792000000001
#
# number of rings (size 3 to 8) (size 9 to 14) (size 15 to 20)
#    0.000    1.931    1.379    3.931    0.000    5.793 
#    0.000    3.448    0.000    0.000    0.000    0.000 
#    0.000    0.000    0.000    0.000    0.000    0.000 
#
# Total GULP energy -323283.433849 kJ/mol
# GULP energy per Si atom -5573.852308 kJ/mol
# Density = 2.014384 g / cm^3
# Si number density = 20.189792 Si / 1000 Ang^3
#
#
#
# Elastic Constant Matrix: (Units=GPa)
#
#
# Indices 1 2 3 4 5 6 
#
# 1 91.4038 33.1053 34.4557 0.0000 0.0000 0.0000
# 2 33.1053 91.9967 20.2505 0.0000 0.0000 0.0000
# 3 34.4557 20.2505 74.2263 0.0000 0.0000 0.0000
# 4 0.0000 0.0000 0.0000 18.1397 0.0000 0.0000
# 5 0.0000 0.0000 0.0000 0.0000 12.5143 0.0000
# 6 0.0000 0.0000 0.0000 0.0000 0.0000 28.4600
#
#
#
# Elastic Compliance Matrix: (Units=1/GPa)
#
#
# Indices 1 2 3 4 5 6 
#
# 1 0.014511 -0.003978 -0.005651 0.000000 0.000000 0.000000
# 2 -0.003978 0.012655 -0.001606 0.000000 0.000000 0.000000
# 3 -0.005651 -0.001606 0.016534 0.000000 0.000000 0.000000
# 4 0.000000 0.000000 0.000000 0.055128 0.000000 0.000000
# 5 0.000000 0.000000 0.000000 0.000000 0.079909 0.000000
# 6 0.000000 0.000000 0.000000 0.000000 0.000000 0.035137
#
#
# Mechanical properties :
#
#
# Convention : Reuss Voigt Hill
#
# Bulk Modulus (GPa) = 47.10270 48.13886 47.62078
# Shear Modulus (GPa) = 20.54062 23.14381 21.84222
#
# Velocity S-wave (km/s) = 3.19309 3.38940 3.29271
# Velocity P-wave (km/s) = 6.08071 6.26197 6.17201
#
# Compressibility (1/GPa) = 0.02123021
#
# Stress axis : x y z
#
# Youngs Moduli (GPa) = 68.91111 79.02026 60.48297
#
# Poissons Ratio (x) = 0.31435 0.34178
# Poissons Ratio (y) = 0.27414 0.09713
# Poissons Ratio (z) = 0.38941 0.12690
#
# Static dielectric constant tensor:
#      x y z
#    x 1.748610 0.000000 0.000000 
#    y 0.000000 1.808730 0.000000 
#    z 0.000000 0.000000 1.696580 
# 
# From -- ./inp_files/7249.got.cif
#   From: 2010.05.17/outbox.cif.g08.bks.cpg/sg72_4_cif.got.tgz:7249.got - 2010.06.03 17:03:01.
