data_PCOD9526609
_publ_section_title
;
Structure prediction by ZEFSAII (Michael W. Deem and Ramdas Pophale) SiO2 
 PCOD9526609
Probable space group: I B A M
;
_chemical_formula_sum "Si O2"
_cell_formula_units_Z 96
_cell_length_a 23.035592
_cell_length_b 12.945600
_cell_length_c 17.075110
_cell_angle_alpha 90.000000
_cell_angle_beta 90.000000
_cell_angle_gamma 90.000000
_cell_volume 5091.961037
_symmetry_space_group_name_H-M "I B A M"
_symmetry_group_IT_number 72
_symmetry_cell_setting 'orthorhombic'
loop_
_space_group_symop_operation_xyz
x,y,z
-x,-y,z
x,-y,1/2-z
-x,y,1/2-z
-x,-y,-z
x,y,-z
-x,y,1/2+z
x,-y,1/2+z
1/2+x,1/2+y,1/2+z
1/2-x,1/2-y,1/2+z
1/2+x,1/2-y,-z
1/2-x,1/2+y,-z
1/2-x,1/2-y,1/2-z
1/2+x,1/2+y,1/2-z
1/2-x,1/2+y,z
1/2+x,1/2-y,z
loop_
_atom_site_type_symbol
_atom_site_label
_atom_site_fract_x
_atom_site_fract_y
_atom_site_fract_z
Si Si1 0.615307 0.737949 0.591828
Si Si2 0.666543 0.246603 0.684299
Si Si3 0.675863 0.943340 0.908467
Si Si4 0.057282 0.450022 0.905523
Si Si5 0.785358 0.361998 0.669820
Si Si6 0.931031 0.122700 0.739022
O O1 0.611271 0.710189 0.500000
O O2 0.570661 0.831415 0.610796
O O3 0.678874 0.788943 0.608464
O O4 0.596603 0.651797 0.654111
O O5 0.674827 0.177858 0.607413
O O6 0.720861 0.323672 0.687089
O O7 0.677031 0.161257 0.752532
O O8 0.607719 0.308653 0.700929
O O9 0.612658 0.983601 0.882988
O O10 0.716728 0.020744 0.860037
O O11 0.684839 0.964455 0.000000
O O12 0.000000 0.500000 0.871159
O O13 0.054303 0.455967 0.000000
O O14 0.000000 0.145220 0.750000
O O15 0.923651 0.000000 0.750000
#
# Coordination Sequence:
#
# PCOD9526609 Si02
#       6
#    16  16  16  16  16  16
#     4   9  18  35  61  84 109 154 197 238 296 355
#     4  10  21  36  59  81 108 154 198 236 289 353
#     4  10  20  33  53  85 120 146 182 239 291 345
#     4   8  15  28  49  80 113 142 174 222 284 337
#     4   9  19  36  56  81 114 150 189 236 292 351
#     4  10  23  42  58  80 117 157 201 250 292 345
#
# _framework density 18.853247
#
# number of rings (size 3 to 8) (size 9 to 14) (size 15 to 20)
#    0.000    2.667    0.000    2.000    2.333    5.333 
#    0.000    2.500    0.000    0.000    0.000    0.000 
#    0.000    0.000    0.000    0.000    0.000    0.000 
#
# Total GULP energy -267256.087072 kJ/mol
# GULP energy per Si atom -5567.835147 kJ/mol
# Density = 1.881034 g / cm^3
# Si number density = 18.853247 Si / 1000 Ang^3
#
#
#
# Elastic Constant Matrix: (Units=GPa)
#
#
# Indices 1 2 3 4 5 6 
#
# 1 72.2870 38.2363 19.7706 0.0000 0.0000 0.0000
# 2 38.2363 62.3195 16.7269 0.0000 0.0000 0.0000
# 3 19.7706 16.7269 48.1308 0.0000 0.0000 0.0000
# 4 0.0000 0.0000 0.0000 31.3980 0.0000 0.0000
# 5 0.0000 0.0000 0.0000 0.0000 10.2856 0.0000
# 6 0.0000 0.0000 0.0000 0.0000 0.0000 13.5973
#
#
#
# Elastic Compliance Matrix: (Units=1/GPa)
#
#
# Indices 1 2 3 4 5 6 
#
# 1 0.021388 -0.011872 -0.004660 0.000000 0.000000 0.000000
# 2 -0.011872 0.024287 -0.003564 0.000000 0.000000 0.000000
# 3 -0.004660 -0.003564 0.023929 0.000000 0.000000 0.000000
# 4 0.000000 0.000000 0.000000 0.031849 0.000000 0.000000
# 5 0.000000 0.000000 0.000000 0.000000 0.097223 0.000000
# 6 0.000000 0.000000 0.000000 0.000000 0.000000 0.073544
#
#
# Mechanical properties :
#
#
# Convention : Reuss Voigt Hill
#
# Bulk Modulus (GPa) = 33.99814 36.91164 35.45489
# Shear Modulus (GPa) = 15.51756 18.25641 16.88699
#
# Velocity S-wave (km/s) = 2.87203 3.11520 2.99608
# Velocity P-wave (km/s) = 5.39169 5.70615 5.55115
#
# Compressibility (1/GPa) = 0.02941337
#
# Stress axis : x y z
#
# Youngs Moduli (GPa) = 46.75563 41.17445 41.78979
#
# Poissons Ratio (x) = 0.48882 0.19472
# Poissons Ratio (y) = 0.55508 0.14893
# Poissons Ratio (z) = 0.21786 0.14674
#
# Static dielectric constant tensor:
#      x y z
#    x 1.669760 0.000000 0.000000 
#    y 0.000000 1.691760 0.000000 
#    z 0.000000 0.000000 1.707680 
# 
# From -- ./inp_files/33252.got.cif
#   From: 2010.05.17/outbox.cif.g08.bks.cpg/sg72_17_cif.got.tgz:33252.got - 2010.06.03 17:03:01.
