data_PCOD9526556
_publ_section_title
;
Structure prediction by ZEFSAII (Michael W. Deem and Ramdas Pophale) SiO2 
 PCOD9526556
Probable space group: I B A M
;
_chemical_formula_sum "Si O2"
_cell_formula_units_Z 112
_cell_length_a 27.479893
_cell_length_b 17.119392
_cell_length_c 14.392330
_cell_angle_alpha 90.000000
_cell_angle_beta 90.000000
_cell_angle_gamma 90.000000
_cell_volume 6770.714202
_symmetry_space_group_name_H-M "I B A M"
_symmetry_group_IT_number 72
_symmetry_cell_setting 'orthorhombic'
loop_
_space_group_symop_operation_xyz
x,y,z
-x,-y,z
x,-y,1/2-z
-x,y,1/2-z
-x,-y,-z
x,y,-z
-x,y,1/2+z
x,-y,1/2+z
1/2+x,1/2+y,1/2+z
1/2-x,1/2-y,1/2+z
1/2+x,1/2-y,-z
1/2-x,1/2+y,-z
1/2-x,1/2-y,1/2-z
1/2+x,1/2+y,1/2-z
1/2-x,1/2+y,z
1/2+x,1/2-y,z
loop_
_atom_site_type_symbol
_atom_site_label
_atom_site_fract_x
_atom_site_fract_y
_atom_site_fract_z
Si Si1 0.705163 0.297606 0.389856
Si Si2 0.872232 0.668501 0.393096
Si Si3 0.192253 0.221776 0.889810
Si Si4 0.799522 0.080445 0.730000
Si Si5 0.793552 0.529622 0.608913
Si Si6 0.443419 0.094141 0.255190
Si Si7 0.359009 0.882220 0.888939
O O1 0.707129 0.316480 0.500000
O O2 0.655991 0.248988 0.370287
O O3 0.750899 0.240463 0.371062
O O4 0.710858 0.373191 0.325486
O O5 0.889020 0.673463 0.500000
O O6 0.831225 0.601144 0.388896
O O7 0.914373 0.639167 0.325690
O O8 0.176249 0.145802 0.834578
O O9 0.164340 0.299981 0.861143
O O10 0.186894 0.210770 0.000000
O O11 0.752106 0.052011 0.672113
O O12 0.827378 0.000000 0.750000
O O13 0.778928 0.518432 0.500000
O O14 0.823582 0.453101 0.641408
O O15 0.500000 0.115515 0.250000
O O16 0.412595 0.112572 0.347286
O O17 0.440405 0.000000 0.250000
O O18 0.360409 0.886654 0.000000
#
# Coordination Sequence:
#
# PCOD9526556 Si02
#       7
#    16  16  16  16  16  16  16
#     4  10  21  35  50  73 101 134 175 215 253 302
#     4  10  20  36  55  70  99 139 176 216 255 300
#     4  10  20  34  50  72 100 130 171 217 256 298
#     4  12  23  30  49  72 101 140 167 211 256 302
#     4  10  20  33  49  72  98 133 180 215 245 297
#     4  11  23  34  50  76 106 137 178 224 260 300
#     4  10  21  36  55  74 102 141 180 220 255 301
#
# _framework density 16.541830000000001
#
# number of rings (size 3 to 8) (size 9 to 14) (size 15 to 20)
#    0.000    1.571    2.857    2.571    4.000    2.857 
#    0.000    1.429    0.000    0.000    0.000    0.000 
#    0.000    9.143    0.000   25.143    0.000    0.000 
#
# Total GULP energy -312653.371426 kJ/mol
# GULP energy per Si atom -5583.095918 kJ/mol
# Density = 1.650418 g / cm^3
# Si number density = 16.541830 Si / 1000 Ang^3
#
#
#
# Elastic Constant Matrix: (Units=GPa)
#
#
# Indices 1 2 3 4 5 6 
#
# 1 78.2933 29.5376 28.0332 0.0000 0.0000 0.0000
# 2 29.5376 118.9033 41.8859 0.0000 0.0000 0.0000
# 3 28.0332 41.8859 69.8053 0.0000 0.0000 0.0000
# 4 0.0000 0.0000 0.0000 29.4133 0.0000 0.0000
# 5 0.0000 0.0000 0.0000 0.0000 9.5150 0.0000
# 6 0.0000 0.0000 0.0000 0.0000 0.0000 18.5843
#
#
#
# Elastic Compliance Matrix: (Units=1/GPa)
#
#
# Indices 1 2 3 4 5 6 
#
# 1 0.015311 -0.002076 -0.004903 0.000000 0.000000 0.000000
# 2 -0.002076 0.010946 -0.005734 0.000000 0.000000 0.000000
# 3 -0.004903 -0.005734 0.019735 0.000000 0.000000 0.000000
# 4 0.000000 0.000000 0.000000 0.033998 0.000000 0.000000
# 5 0.000000 0.000000 0.000000 0.000000 0.105097 0.000000
# 6 0.000000 0.000000 0.000000 0.000000 0.000000 0.053809
#
#
# Mechanical properties :
#
#
# Convention : Reuss Voigt Hill
#
# Bulk Modulus (GPa) = 48.62508 51.76838 50.19673
# Shear Modulus (GPa) = 18.43804 22.67223 20.55513
#
# Velocity S-wave (km/s) = 3.34223 3.70618 3.52890
# Velocity P-wave (km/s) = 6.65981 7.04824 6.85678
#
# Compressibility (1/GPa) = 0.02056552
#
# Stress axis : x y z
#
# Youngs Moduli (GPa) = 65.31085 91.35781 50.67074
#
# Poissons Ratio (x) = 0.18970 0.24844
# Poissons Ratio (y) = 0.13561 0.29055
# Poissons Ratio (z) = 0.32022 0.52386
#
# Static dielectric constant tensor:
#      x y z
#    x 1.520300 0.000000 0.000000 
#    y 0.000000 1.579600 0.000000 
#    z 0.000000 0.000000 1.616310 
# 
# From -- ./inp_files/25977.got.cif
#   From: 2010.05.17/outbox.cif.g08.bks.cpg/sg72_13_cif.got.tgz:25977.got - 2010.06.03 17:03:01.
