data_PCOD9526289
_publ_section_title
;
Structure prediction by ZEFSAII (Michael W. Deem and Ramdas Pophale) SiO2 
 PCOD9526289
Probable space group: I B A M
;
_chemical_formula_sum "Si O2"
_cell_formula_units_Z 112
_cell_length_a 13.951963
_cell_length_b 23.128381
_cell_length_c 15.035452
_cell_angle_alpha 90.000000
_cell_angle_beta 90.000000
_cell_angle_gamma 90.000000
_cell_volume 4851.734615
_symmetry_space_group_name_H-M "I B A M"
_symmetry_group_IT_number 72
_symmetry_cell_setting 'orthorhombic'
loop_
_space_group_symop_operation_xyz
x,y,z
-x,-y,z
x,-y,1/2-z
-x,y,1/2-z
-x,-y,-z
x,y,-z
-x,y,1/2+z
x,-y,1/2+z
1/2+x,1/2+y,1/2+z
1/2-x,1/2-y,1/2+z
1/2+x,1/2-y,-z
1/2-x,1/2+y,-z
1/2-x,1/2-y,1/2-z
1/2+x,1/2+y,1/2-z
1/2-x,1/2+y,z
1/2+x,1/2-y,z
loop_
_atom_site_type_symbol
_atom_site_label
_atom_site_fract_x
_atom_site_fract_y
_atom_site_fract_z
Si Si1 0.820378 0.855300 0.288714
Si Si2 0.883573 0.837725 0.901914
Si Si3 0.661682 0.898988 0.400104
Si Si4 0.543926 0.136743 0.653091
Si Si5 0.044690 0.062086 0.397156
Si Si6 0.606252 0.978890 0.106993
Si Si7 0.935967 0.763900 0.399490
O O1 0.819327 0.847817 0.183562
O O2 0.716913 0.858857 0.332384
O O3 0.879000 0.911029 0.327894
O O4 0.877668 0.801352 0.329585
O O5 0.959295 0.890859 0.900159
O O6 0.951750 0.781368 0.890461
O O7 0.838077 0.835792 0.000000
O O8 0.699627 0.892100 0.500000
O O9 0.549422 0.884079 0.401944
O O10 0.671915 0.966295 0.371665
O O11 0.500000 0.145672 0.750000
O O12 0.617980 0.083495 0.650041
O O13 0.580025 0.196614 0.614901
O O14 0.081797 0.057669 0.500000
O O15 0.000000 0.000000 0.372964
O O16 0.500000 0.000000 0.134427
O O17 0.608607 0.972650 0.000000
O O18 0.908758 0.781380 0.500000
#
# Coordination Sequence:
#
# PCOD9526289 Si02
#       7
#    16  16  16  16  16  16  16
#     4  11  20  35  61  91 121 156 204 255 309 368
#     4   9  19  34  53  81 121 164 203 248 300 360
#     4  10  21  38  61  89 119 153 198 259 318 360
#     4  11  21  36  60  88 119 163 210 247 296 369
#     4   9  17  31  53  82 114 152 200 249 300 363
#     4   8  16  33  56  82 113 150 195 245 300 363
#     4  10  19  35  61  91 124 165 211 253 300 365
#
# _framework density 23.084527000000001
#
# number of rings (size 3 to 8) (size 9 to 14) (size 15 to 20)
#    0.000    2.286    0.000    6.857    0.000    3.714 
#    0.000    5.714    0.000    7.714    0.000    6.000 
#    0.000    0.571    0.000    0.000    0.000    0.000 
#
# Total GULP energy -313010.144577 kJ/mol
# GULP energy per Si atom -5589.466867 kJ/mol
# Density = 2.303199 g / cm^3
# Si number density = 23.084527 Si / 1000 Ang^3
#
#
#
# Elastic Constant Matrix: (Units=GPa)
#
#
# Indices 1 2 3 4 5 6 
#
# 1 37.5951 14.0525 35.0068 0.0000 0.0000 0.0000
# 2 14.0525 109.7542 19.2709 0.0004 -0.0001 -0.0001
# 3 35.0068 19.2709 145.1278 0.0004 -0.0001 -0.0001
# 4 0.0000 0.0004 0.0004 13.2520 -0.0001 -0.0001
# 5 0.0000 -0.0001 -0.0001 -0.0001 22.6056 0.0000
# 6 0.0000 -0.0001 -0.0001 -0.0001 0.0000 11.4056
#
#
#
# Elastic Compliance Matrix: (Units=1/GPa)
#
#
# Indices 1 2 3 4 5 6 
#
# 1 0.035303 -0.003097 -0.008104 0.000000 0.000000 0.000000
# 2 -0.003097 0.009600 -0.000528 0.000000 0.000000 0.000000
# 3 -0.008104 -0.000528 0.008915 0.000000 0.000000 0.000000
# 4 0.000000 0.000000 0.000000 0.075461 0.000000 0.000001
# 5 0.000000 0.000000 0.000000 0.000000 0.044237 0.000000
# 6 0.000000 0.000000 0.000000 0.000001 0.000000 0.087676
#
#
# Mechanical properties :
#
#
# Convention : Reuss Voigt Hill
#
# Bulk Modulus (GPa) = 32.93729 47.68193 40.30961
# Shear Modulus (GPa) = 16.96231 24.39577 20.67904
#
# Velocity S-wave (km/s) = 2.71364 3.25438 2.99623
# Velocity P-wave (km/s) = 4.91097 5.90097 5.42858
#
# Compressibility (1/GPa) = 0.03036073
#
# Stress axis : x y z
#
# Youngs Moduli (GPa) = 28.32602 104.16158 112.16498
#
# Poissons Ratio (x) = 0.32260 0.90903
# Poissons Ratio (y) = 0.08773 0.05919
# Poissons Ratio (z) = 0.22956 0.05497
#
# Static dielectric constant tensor:
#      x y z
#    x 1.893620 0.000000 0.000000 
#    y 0.000000 1.863700 0.000000 
#    z 0.000000 0.000000 1.867260 
# 
# From -- ./inp_files/22145.got.cif
#   From: 2010.05.17/outbox.cif.g08.bks.cpg/sg72_12_cif.got.tgz:22145.got - 2010.06.03 17:03:01.
