data_PCOD9526427
_publ_section_title
;
Structure prediction by ZEFSAII (Michael W. Deem and Ramdas Pophale) SiO2 
 PCOD9526427
Probable space group: I B A M
;
_chemical_formula_sum "Si O2"
_cell_formula_units_Z 88
_cell_length_a 32.595691
_cell_length_b 5.342031
_cell_length_c 25.015704
_cell_angle_alpha 90.000000
_cell_angle_beta 90.000000
_cell_angle_gamma 90.000000
_cell_volume 4355.914288
_symmetry_space_group_name_H-M "I B A M"
_symmetry_group_IT_number 72
_symmetry_cell_setting 'orthorhombic'
loop_
_space_group_symop_operation_xyz
x,y,z
-x,-y,z
x,-y,1/2-z
-x,y,1/2-z
-x,-y,-z
x,y,-z
-x,y,1/2+z
x,-y,1/2+z
1/2+x,1/2+y,1/2+z
1/2-x,1/2-y,1/2+z
1/2+x,1/2-y,-z
1/2-x,1/2+y,-z
1/2-x,1/2-y,1/2-z
1/2+x,1/2+y,1/2-z
1/2-x,1/2+y,z
1/2+x,1/2-y,z
loop_
_atom_site_type_symbol
_atom_site_label
_atom_site_fract_x
_atom_site_fract_y
_atom_site_fract_z
Si Si1 0.278204 0.500000 0.750000
Si Si2 0.077684 0.011325 0.192563
Si Si3 0.341151 0.818949 0.800877
Si Si4 0.953683 0.735209 0.000000
Si Si5 0.898843 0.233613 0.000000
Si Si6 0.618422 0.111671 0.384038
Si Si7 0.533028 0.811751 0.386110
O O1 0.250000 0.750000 0.750000
O O2 0.310132 0.583778 0.796785
O O3 0.112623 0.218697 0.204995
O O4 0.043359 0.078310 0.149869
O O5 0.057015 0.000000 0.250000
O O6 0.103842 0.798094 0.162980
O O7 0.332630 0.000000 0.750000
O O8 0.343530 0.962247 0.857622
O O9 0.979575 0.751204 0.946128
O O10 0.930838 0.466023 0.000000
O O11 0.921497 0.965453 0.000000
O O12 0.875476 0.264646 0.057359
O O13 0.578304 0.936298 0.390941
O O14 0.500000 0.000000 0.362265
#
# Coordination Sequence:
#
# PCOD9526427 Si02
#       7
#     8  16  16   8   8  16  16
#     4  12  24  38  62 104 140 163 195 250 306 382
#     4  11  20  35  59  78 114 167 215 263 325 406
#     4  11  20  38  63  90 128 164 207 246 317 392
#     4  10  19  38  58  82 114 151 200 280 342 396
#     4  10  20  38  59  90 118 151 214 274 326 380
#     4  10  21  37  59  85 118 163 211 269 324 390
#     4  10  22  36  53  79 114 157 216 274 341 397
#
# _framework density 20.20242
#
# number of rings (size 3 to 8) (size 9 to 14) (size 15 to 20)
#    0.000    1.455    5.455    0.273    0.000    0.727 
#    0.000    4.545    0.000    0.000    0.000    1.273 
#    0.000    0.000    0.000    0.000    0.000    0.000 
#
# Total GULP energy -244978.350850 kJ/mol
# GULP energy per Si atom -5567.689792 kJ/mol
# Density = 2.015644 g / cm^3
# Si number density = 20.202420 Si / 1000 Ang^3
#
#
#
# Elastic Constant Matrix: (Units=GPa)
#
#
# Indices 1 2 3 4 5 6 
#
# 1 69.0334 26.0132 11.5631 0.0000 0.0000 0.0000
# 2 26.0132 90.9563 26.6209 0.0000 0.0000 0.0000
# 3 11.5631 26.6209 127.7791 0.0000 0.0000 0.0000
# 4 0.0000 0.0000 0.0000 26.0536 0.0000 0.0000
# 5 0.0000 0.0000 0.0000 0.0000 10.6595 0.0000
# 6 0.0000 0.0000 0.0000 0.0000 0.0000 50.7398
#
#
#
# Elastic Compliance Matrix: (Units=1/GPa)
#
#
# Indices 1 2 3 4 5 6 
#
# 1 0.016270 -0.004496 -0.000536 0.000000 0.000000 0.000000
# 2 -0.004496 0.012951 -0.002291 0.000000 0.000000 0.000000
# 3 -0.000536 -0.002291 0.008352 0.000000 0.000000 0.000000
# 4 0.000000 0.000000 0.000000 0.038382 0.000000 0.000000
# 5 0.000000 0.000000 0.000000 0.000000 0.093813 0.000000
# 6 0.000000 0.000000 0.000000 0.000000 0.000000 0.019708
#
#
# Mechanical properties :
#
#
# Convention : Reuss Voigt Hill
#
# Bulk Modulus (GPa) = 43.61835 46.24038 44.92937
# Shear Modulus (GPa) = 23.61115 32.39535 28.00325
#
# Velocity S-wave (km/s) = 3.42238 4.00876 3.72712
# Velocity P-wave (km/s) = 6.10364 6.66072 6.38825
#
# Compressibility (1/GPa) = 0.02292613
#
# Stress axis : x y z
#
# Youngs Moduli (GPa) = 61.46374 77.21511 119.73445
#
# Poissons Ratio (x) = 0.34719 0.06412
# Poissons Ratio (y) = 0.27636 0.27434
# Poissons Ratio (z) = 0.03292 0.17692
#
# Static dielectric constant tensor:
#      x y z
#    x 1.730670 0.000000 0.000000 
#    y 0.000000 1.881420 0.000000 
#    z 0.000000 0.000000 1.870720 
# 
# From -- ./inp_files/46165.got.cif
#   From: 2010.05.17/outbox.cif.g08.bks.cpg/sg72_24_cif.got.tgz:46165.got - 2010.06.03 17:03:01.
