data_PCOD9526432
_publ_section_title
;
Structure prediction by ZEFSAII (Michael W. Deem and Ramdas Pophale) SiO2 
 PCOD9526432
Probable space group: I B A M
;
_chemical_formula_sum "Si O2"
_cell_formula_units_Z 112
_cell_length_a 13.985403
_cell_length_b 13.994360
_cell_length_c 27.149988
_cell_angle_alpha 90.000000
_cell_angle_beta 90.000000
_cell_angle_gamma 90.000000
_cell_volume 5313.707803
_symmetry_space_group_name_H-M "I B A M"
_symmetry_group_IT_number 72
_symmetry_cell_setting 'orthorhombic'
loop_
_space_group_symop_operation_xyz
x,y,z
-x,-y,z
x,-y,1/2-z
-x,y,1/2-z
-x,-y,-z
x,y,-z
-x,y,1/2+z
x,-y,1/2+z
1/2+x,1/2+y,1/2+z
1/2-x,1/2-y,1/2+z
1/2+x,1/2-y,-z
1/2-x,1/2+y,-z
1/2-x,1/2-y,1/2-z
1/2+x,1/2+y,1/2-z
1/2-x,1/2+y,z
1/2+x,1/2-y,z
loop_
_atom_site_type_symbol
_atom_site_label
_atom_site_fract_x
_atom_site_fract_y
_atom_site_fract_z
Si Si1 0.132855 0.461640 0.824588
Si Si2 0.286398 0.501341 0.896140
Si Si3 0.555643 0.661866 0.000000
Si Si4 0.017789 0.300480 0.322237
Si Si5 0.139878 0.053573 0.000000
Si Si6 0.173643 0.190237 0.156114
Si Si7 0.179870 0.652741 0.762587
Si Si8 0.842234 0.214932 0.900565
O O1 0.178592 0.481568 0.877509
O O2 0.033279 0.404625 0.824964
O O3 0.147416 0.557749 0.793578
O O4 0.195424 0.385915 0.792144
O O5 0.330088 0.580214 0.860062
O O6 0.337689 0.399092 0.890785
O O7 0.298174 0.547017 0.950186
O O8 0.939926 0.860550 0.000000
O O9 0.604293 0.714689 0.953372
O O10 0.590820 0.551515 0.000000
O O11 0.930632 0.230623 0.334695
O O12 0.084249 0.286974 0.273848
O O13 0.093309 0.279328 0.365190
O O14 0.230953 0.193095 0.207859
O O15 0.235741 0.245159 0.113577
#
# Coordination Sequence:
#
# PCOD9526432 Si02
#       8
#    16  16   8  16   8  16  16  16
#     4  10  19  38  60  83 117 161 202 252 302 364
#     4  10  20  38  60  83 127 157 199 263 306 379
#     4   9  18  35  59  81 122 155 200 252 297 379
#     4  11  20  34  56  85 116 150 205 251 305 365
#     4   9  18  33  59  93 108 162 205 234 313 372
#     4  10  21  36  58  89 117 160 204 250 318 366
#     4   9  21  37  58  84 116 159 209 247 300 377
#     4  10  21  38  55  88 118 157 205 256 312 372
#
# _framework density 21.077562
#
# number of rings (size 3 to 8) (size 9 to 14) (size 15 to 20)
#    0.000    2.143    1.429    1.714    0.000    4.000 
#    2.571    1.429    0.000    0.000    0.000    6.000 
#    0.000    0.000    0.000    0.000    0.000    0.000 
#
# Total GULP energy -311809.149285 kJ/mol
# GULP energy per Si atom -5568.020523 kJ/mol
# Density = 2.102959 g / cm^3
# Si number density = 21.077562 Si / 1000 Ang^3
#
#
#
# Elastic Constant Matrix: (Units=GPa)
#
#
# Indices 1 2 3 4 5 6 
#
# 1 96.4858 5.8031 28.5832 0.0000 0.0000 0.0000
# 2 5.8031 82.7682 -6.2882 0.0000 0.0000 0.0000
# 3 28.5832 -6.2882 102.8362 0.0000 0.0000 0.0000
# 4 0.0000 0.0000 0.0000 26.9806 0.0000 0.0000
# 5 0.0000 0.0000 0.0000 0.0000 29.6943 0.0000
# 6 0.0000 0.0000 0.0000 0.0000 0.0000 34.1329
#
#
#
# Elastic Compliance Matrix: (Units=1/GPa)
#
#
# Indices 1 2 3 4 5 6 
#
# 1 0.011383 -0.001043 -0.003228 0.000000 0.000000 0.000000
# 2 -0.001043 0.012234 0.001038 0.000000 0.000000 0.000000
# 3 -0.003228 0.001038 0.010685 0.000000 0.000000 0.000000
# 4 0.000000 0.000000 0.000000 0.037064 0.000000 0.000000
# 5 0.000000 0.000000 0.000000 0.000000 0.033676 0.000000
# 6 0.000000 0.000000 0.000000 0.000000 0.000000 0.029297
#
#
# Mechanical properties :
#
#
# Convention : Reuss Voigt Hill
#
# Bulk Modulus (GPa) = 35.92477 37.58738 36.75607
# Shear Modulus (GPa) = 33.31467 35.09435 34.20451
#
# Velocity S-wave (km/s) = 3.97996 4.08488 4.03276
# Velocity P-wave (km/s) = 6.18071 6.33403 6.25784
#
# Compressibility (1/GPa) = 0.02783595
#
# Stress axis : x y z
#
# Youngs Moduli (GPa) = 87.84904 81.73974 93.59069
#
# Poissons Ratio (x) = 0.08528 0.30209
# Poissons Ratio (y) = 0.09166 -0.09715
# Poissons Ratio (z) = 0.28355 -0.08485
#
# Static dielectric constant tensor:
#      x y z
#    x 1.789960 0.000000 0.000000 
#    y 0.000000 1.836630 0.000000 
#    z 0.000000 0.000000 1.843140 
# 
# From -- ./inp_files/48751.got.cif
#   From: 2010.05.17/outbox.cif.g08.bks.cpg/sg72_25_cif.got.tgz:48751.got - 2010.06.03 17:03:01.
