data_PCOD9526156
_publ_section_title
;
Structure prediction by ZEFSAII (Michael W. Deem and Ramdas Pophale) SiO2 
 PCOD9526156
Probable space group: I B A M
;
_chemical_formula_sum "Si O2"
_cell_formula_units_Z 96
_cell_length_a 15.326989
_cell_length_b 16.738529
_cell_length_c 18.125223
_cell_angle_alpha 90.000000
_cell_angle_beta 90.000000
_cell_angle_gamma 90.000000
_cell_volume 4650.048615
_symmetry_space_group_name_H-M "I B A M"
_symmetry_group_IT_number 72
_symmetry_cell_setting 'orthorhombic'
loop_
_space_group_symop_operation_xyz
x,y,z
-x,-y,z
x,-y,1/2-z
-x,y,1/2-z
-x,-y,-z
x,y,-z
-x,y,1/2+z
x,-y,1/2+z
1/2+x,1/2+y,1/2+z
1/2-x,1/2-y,1/2+z
1/2+x,1/2-y,-z
1/2-x,1/2+y,-z
1/2-x,1/2-y,1/2-z
1/2+x,1/2+y,1/2-z
1/2-x,1/2+y,z
1/2+x,1/2-y,z
loop_
_atom_site_type_symbol
_atom_site_label
_atom_site_fract_x
_atom_site_fract_y
_atom_site_fract_z
Si Si1 0.413240 0.536909 0.666679
Si Si2 0.372511 0.278085 0.173931
Si Si3 0.311857 0.279986 0.337680
Si Si4 0.965599 0.709634 0.912320
Si Si5 0.404966 0.962047 0.916951
Si Si6 0.755726 0.539626 0.330209
O O1 0.500000 0.500000 0.631985
O O2 0.411020 0.500000 0.750000
O O3 0.409416 0.631855 0.671980
O O4 0.324429 0.506277 0.631042
O O5 0.355354 0.254980 0.259401
O O6 0.273895 0.271745 0.141870
O O7 0.444994 0.226359 0.131583
O O8 0.391196 0.275241 0.394904
O O9 0.273031 0.368665 0.326179
O O10 0.919581 0.627153 0.886797
O O11 0.983335 0.704278 0.000000
O O12 0.500000 0.000000 0.919826
O O13 0.343226 0.020717 0.872732
O O14 0.370373 0.953863 0.000000
O O15 0.766834 0.500000 0.250000
#
# Coordination Sequence:
#
# PCOD9526156 Si02
#       6
#    16  16  16  16  16  16
#     4  10  19  34  57  86 118 163 197 245 315 372
#     4  11  22  39  63  94 125 163 209 265 324 374
#     4  11  23  39  65  95 128 161 213 268 321 378
#     4  11  25  42  63  93 130 171 215 259 315 386
#     4  10  23  44  64  87 126 172 208 254 318 383
#     4  11  21  39  63  96 125 160 211 264 320 373
#
# _framework density 20.644943999999999
#
# number of rings (size 3 to 8) (size 9 to 14) (size 15 to 20)
#    0.000    1.333    3.333    3.500    4.667    1.667 
#    3.000    0.833    0.000    2.000    0.000    0.000 
#    0.000    0.000    0.000    0.000    0.000    0.000 
#
# Total GULP energy -267886.204932 kJ/mol
# GULP energy per Si atom -5580.962603 kJ/mol
# Density = 2.059796 g / cm^3
# Si number density = 20.644944 Si / 1000 Ang^3
#
#
#
# Elastic Constant Matrix: (Units=GPa)
#
#
# Indices 1 2 3 4 5 6 
#
# 1 124.0992 13.1230 44.2845 0.0000 0.0000 0.0000
# 2 13.1230 82.6738 24.1449 0.0000 0.0000 0.0000
# 3 44.2845 24.1449 47.3341 0.0000 0.0000 0.0000
# 4 0.0000 0.0000 0.0000 17.2591 0.0000 0.0000
# 5 0.0000 0.0000 0.0000 0.0000 -48.9790 0.0000
# 6 0.0000 0.0000 0.0000 0.0000 0.0000 44.0510
#
#
#
# Elastic Compliance Matrix: (Units=1/GPa)
#
#
# Indices 1 2 3 4 5 6 
#
# 1 0.012286 0.001653 -0.012338 0.000000 0.000000 0.000000
# 2 0.001653 0.014436 -0.008910 0.000000 0.000000 0.000000
# 3 -0.012338 -0.008910 0.037214 0.000000 0.000000 0.000000
# 4 0.000000 0.000000 0.000000 0.057940 0.000000 0.000000
# 5 0.000000 0.000000 0.000000 0.000000 -0.020417 0.000000
# 6 0.000000 0.000000 0.000000 0.000000 0.000000 0.022701
#
#
# Mechanical properties :
#
#
# Convention : Reuss Voigt Hill
#
# Bulk Modulus (GPa) = 40.40997 46.35689 43.38343
# Shear Modulus (GPa) = 29.13792 13.96988 21.55390
#
# Velocity S-wave (km/s) = 3.76091 2.60412 3.23465
# Velocity P-wave (km/s) = 6.20287 5.61649 5.91695
#
# Compressibility (1/GPa) = 0.02474637
#
# Stress axis : x y z
#
# Youngs Moduli (GPa) = 81.39411 69.27365 26.87160
#
# Poissons Ratio (x) = -0.11451 0.33153
# Poissons Ratio (y) = -0.13455 0.23943
# Poissons Ratio (z) = 1.00420 0.61723
#
# Static dielectric constant tensor:
#      x y z
#    x 1.850140 0.000000 0.000000 
#    y 0.000000 1.793080 0.000000 
#    z 0.000000 0.000000 1.797410 
# 
# From -- ./inp_files/38011.got.cif
#   From: 2010.05.17/outbox.cif.g08.bks.cpg/sg72_20_cif.got.tgz:38011.got - 2010.06.03 17:03:01.
