data_PCOD9526428
_publ_section_title
;
Structure prediction by ZEFSAII (Michael W. Deem and Ramdas Pophale) SiO2 
 PCOD9526428
Probable space group: I B A M
;
_chemical_formula_sum "Si O2"
_cell_formula_units_Z 68
_cell_length_a 10.543335
_cell_length_b 12.346037
_cell_length_c 28.328123
_cell_angle_alpha 90.000000
_cell_angle_beta 90.000000
_cell_angle_gamma 90.000000
_cell_volume 3687.426560
_symmetry_space_group_name_H-M "I B A M"
_symmetry_group_IT_number 72
_symmetry_cell_setting 'orthorhombic'
loop_
_space_group_symop_operation_xyz
x,y,z
-x,-y,z
x,-y,1/2-z
-x,y,1/2-z
-x,-y,-z
x,y,-z
-x,y,1/2+z
x,-y,1/2+z
1/2+x,1/2+y,1/2+z
1/2-x,1/2-y,1/2+z
1/2+x,1/2-y,-z
1/2-x,1/2+y,-z
1/2-x,1/2-y,1/2-z
1/2+x,1/2+y,1/2-z
1/2-x,1/2+y,z
1/2+x,1/2-y,z
loop_
_atom_site_type_symbol
_atom_site_label
_atom_site_fract_x
_atom_site_fract_y
_atom_site_fract_z
Si Si1 0.137082 0.986200 0.912759
Si Si2 0.500000 0.500000 0.250000
Si Si3 0.871562 0.244826 0.862844
Si Si4 0.376181 0.653791 0.825534
Si Si5 0.386745 0.914540 0.552054
O O1 0.129740 0.071950 0.869864
O O2 0.255384 0.020109 0.943985
O O3 0.000000 0.000000 0.936956
O O4 0.156149 0.869234 0.888873
O O5 0.589224 0.422052 0.218588
O O6 0.755693 0.281250 0.829111
O O7 0.889976 0.330551 0.905041
O O8 0.002467 0.230266 0.834552
O O9 0.395984 0.862518 0.500000
O O10 0.500000 0.000000 0.556857
#
# Coordination Sequence:
#
# PCOD9526428 Si02
#       5
#    16   4  16  16  16
#     4   9  18  37  55  79 110 148 185 227 287 335
#     4  12  20  40  60  86 116 144 192 250 280 348
#     4  10  19  38  59  81 110 159 182 225 298 343
#     4  10  21  36  61  82 114 146 189 237 286 336
#     4  10  21  34  53  83 115 146 189 239 274 332
#
# _framework density 18.441046
#
# number of rings (size 3 to 8) (size 9 to 14) (size 15 to 20)
#    0.000    2.118    3.529    1.412    0.000    2.353 
#    0.000   14.118    0.000    1.412    0.000    0.000 
#    0.000    0.000    0.000    0.000    0.000    0.000 
#
# Total GULP energy -189561.109466 kJ/mol
# GULP energy per Si atom -5575.326749 kJ/mol
# Density = 1.839907 g / cm^3
# Si number density = 18.441046 Si / 1000 Ang^3
#
#
#
# Elastic Constant Matrix: (Units=GPa)
#
#
# Indices 1 2 3 4 5 6 
#
# 1 165.6680 64.5139 64.5777 0.0000 0.0000 0.0000
# 2 64.5139 67.0667 22.3889 0.0000 0.0000 0.0000
# 3 64.5777 22.3889 76.6968 0.0000 0.0000 0.0000
# 4 0.0000 0.0000 0.0000 28.9816 0.0000 0.0000
# 5 0.0000 0.0000 0.0000 0.0000 38.8513 0.0000
# 6 0.0000 0.0000 0.0000 0.0000 0.0000 29.8266
#
#
#
# Elastic Compliance Matrix: (Units=1/GPa)
#
#
# Indices 1 2 3 4 5 6 
#
# 1 0.013013 -0.009816 -0.008091 0.000000 0.000000 0.000000
# 2 -0.009816 0.023926 0.001281 0.000000 0.000000 0.000000
# 3 -0.008091 0.001281 0.019477 0.000000 0.000000 0.000000
# 4 0.000000 0.000000 0.000000 0.034505 0.000000 0.000000
# 5 0.000000 0.000000 0.000000 0.000000 0.025739 0.000000
# 6 0.000000 0.000000 0.000000 0.000000 0.000000 0.033527
#
#
# Mechanical properties :
#
#
# Convention : Reuss Voigt Hill
#
# Bulk Modulus (GPa) = 43.17311 68.04360 55.60836
# Shear Modulus (GPa) = 26.15615 30.06197 28.10906
#
# Velocity S-wave (km/s) = 3.77021 4.04191 3.90842
# Velocity P-wave (km/s) = 6.51267 7.66556 7.11251
#
# Compressibility (1/GPa) = 0.02316256
#
# Stress axis : x y z
#
# Youngs Moduli (GPa) = 76.84797 41.79624 51.34290
#
# Poissons Ratio (x) = 0.41029 0.41541
# Poissons Ratio (y) = 0.75437 -0.06577
# Poissons Ratio (z) = 0.62178 -0.05354
#
# Static dielectric constant tensor:
#      x y z
#    x 1.664520 0.000000 0.000000 
#    y 0.000000 1.626950 0.000000 
#    z 0.000000 0.000000 1.614340 
# 
# From -- ./inp_files/47903.got.cif
#   From: 2010.05.17/outbox.cif.g08.bks.cpg/sg72_24_cif.got.tgz:47903.got - 2010.06.03 17:03:01.
