data_PCOD9526842
_publ_section_title
;
Structure prediction by ZEFSAII (Michael W. Deem and Ramdas Pophale) SiO2 
 PCOD9526842
Probable space group: I B A M
;
_chemical_formula_sum "Si O2"
_cell_formula_units_Z 96
_cell_length_a 26.576361
_cell_length_b 10.241708
_cell_length_c 15.431766
_cell_angle_alpha 90.000000
_cell_angle_beta 90.000000
_cell_angle_gamma 90.000000
_cell_volume 4200.331170
_symmetry_space_group_name_H-M "I B A M"
_symmetry_group_IT_number 72
_symmetry_cell_setting 'orthorhombic'
loop_
_space_group_symop_operation_xyz
x,y,z
-x,-y,z
x,-y,1/2-z
-x,y,1/2-z
-x,-y,-z
x,y,-z
-x,y,1/2+z
x,-y,1/2+z
1/2+x,1/2+y,1/2+z
1/2-x,1/2-y,1/2+z
1/2+x,1/2-y,-z
1/2-x,1/2+y,-z
1/2-x,1/2-y,1/2-z
1/2+x,1/2+y,1/2-z
1/2-x,1/2+y,z
1/2+x,1/2-y,z
loop_
_atom_site_type_symbol
_atom_site_label
_atom_site_fract_x
_atom_site_fract_y
_atom_site_fract_z
Si Si1 0.633724 0.465097 0.097728
Si Si2 0.804973 0.724927 0.136800
Si Si3 0.029310 0.864087 0.397331
Si Si4 0.356162 0.970766 0.349600
Si Si5 0.963768 0.375720 0.899468
Si Si6 0.192373 0.788364 0.842009
O O1 0.678139 0.359693 0.094680
O O2 0.585209 0.391778 0.138300
O O3 0.653430 0.595279 0.142497
O O4 0.618822 0.503715 0.000000
O O5 0.842906 0.609662 0.108670
O O6 0.806903 0.760916 0.239213
O O7 0.747845 0.678443 0.123572
O O8 0.035594 0.831339 0.500000
O O9 0.994712 0.747141 0.362203
O O10 0.000000 0.000000 0.389729
O O11 0.413043 0.920650 0.353295
O O12 0.324090 0.849049 0.383306
O O13 0.342293 0.000000 0.250000
O O14 0.000000 0.500000 0.899080
O O15 0.950035 0.345962 0.000000
#
# Coordination Sequence:
#
# PCOD9526842 Si02
#       6
#    16  16  16  16  16  16
#     4  11  22  36  58  88 118 148 190 245 292 335
#     4  10  21  39  60  82 114 154 194 234 286 353
#     4   9  18  33  53  78 109 146 183 219 271 338
#     4  10  21  36  58  86 111 145 195 244 284 332
#     4  10  20  35  55  78 109 149 186 224 279 342
#     4  10  21  39  61  82 111 155 195 231 286 352
#
# _framework density 22.855342
#
# number of rings (size 3 to 8) (size 9 to 14) (size 15 to 20)
#    0.000    2.000    0.000    3.500    0.000    7.667 
#    0.000    1.667    0.000    8.000    0.000    0.000 
#    0.000    0.000    0.000    0.000    0.000    0.000 
#
# Total GULP energy -268073.457735 kJ/mol
# GULP energy per Si atom -5584.863703 kJ/mol
# Density = 2.280332 g / cm^3
# Si number density = 22.855342 Si / 1000 Ang^3
#
#
#
# Elastic Constant Matrix: (Units=GPa)
#
#
# Indices 1 2 3 4 5 6 
#
# 1 107.2624 53.2503 2.7494 0.0000 0.0000 0.0000
# 2 53.2503 155.8229 16.3642 0.0000 0.0000 0.0000
# 3 2.7494 16.3642 24.3085 0.0000 0.0000 0.0000
# 4 0.0000 0.0000 0.0000 -46.9014 0.0000 0.0000
# 5 0.0000 0.0000 0.0000 0.0000 -2.5017 0.0000
# 6 0.0000 0.0000 0.0000 0.0000 0.0000 47.4653
#
#
#
# Elastic Compliance Matrix: (Units=1/GPa)
#
#
# Indices 1 2 3 4 5 6 
#
# 1 0.011273 -0.004001 0.001419 0.000000 0.000000 0.000000
# 2 -0.004001 0.008326 -0.005152 0.000000 0.000000 0.000000
# 3 0.001419 -0.005152 0.044446 0.000000 0.000000 0.000000
# 4 0.000000 0.000000 0.000000 -0.021321 0.000000 0.000000
# 5 0.000000 0.000000 0.000000 0.000000 -0.399730 0.000000
# 6 0.000000 0.000000 0.000000 0.000000 0.000000 0.021068
#
#
# Mechanical properties :
#
#
# Convention : Reuss Voigt Hill
#
# Bulk Modulus (GPa) = 20.58682 48.01351 34.30017
# Shear Modulus (GPa) = -16.43241 13.94778 -1.24232
#
# Velocity S-wave (km/s) = -2.68428 2.47303 -0.73806
# Velocity P-wave (km/s) = 0.76167 5.40441 3.78335
#
# Compressibility (1/GPa) = 0.04857476
#
# Stress axis : x y z
#
# Youngs Moduli (GPa) = 88.70711 120.10484 22.49922
#
# Poissons Ratio (x) = 0.48059 -0.03192
# Poissons Ratio (y) = 0.35495 0.11593
# Poissons Ratio (z) = -0.12585 0.61883
#
# Static dielectric constant tensor:
#      x y z
#    x 1.854610 0.000000 0.000000 
#    y 0.000000 1.816100 0.000000 
#    z 0.000000 0.000000 1.911870 
# 
# From -- ./inp_files/33277.got.cif
#   From: 2010.05.17/outbox.cif.g08.bks.cpg/sg72_17_cif.got.tgz:33277.got - 2010.06.03 17:03:01.
