data_PCOD9526831
_publ_section_title
;
Structure prediction by ZEFSAII (Michael W. Deem and Ramdas Pophale) SiO2 
 PCOD9526831
Probable space group: I B A M
;
_chemical_formula_sum "Si O2"
_cell_formula_units_Z 96
_cell_length_a 30.089689
_cell_length_b 16.848454
_cell_length_c 8.531856
_cell_angle_alpha 90.000000
_cell_angle_beta 90.000000
_cell_angle_gamma 90.000000
_cell_volume 4325.350167
_symmetry_space_group_name_H-M "I B A M"
_symmetry_group_IT_number 72
_symmetry_cell_setting 'orthorhombic'
loop_
_space_group_symop_operation_xyz
x,y,z
-x,-y,z
x,-y,1/2-z
-x,y,1/2-z
-x,-y,-z
x,y,-z
-x,y,1/2+z
x,-y,1/2+z
1/2+x,1/2+y,1/2+z
1/2-x,1/2-y,1/2+z
1/2+x,1/2-y,-z
1/2-x,1/2+y,-z
1/2-x,1/2-y,1/2-z
1/2+x,1/2+y,1/2-z
1/2-x,1/2+y,z
1/2+x,1/2-y,z
loop_
_atom_site_type_symbol
_atom_site_label
_atom_site_fract_x
_atom_site_fract_y
_atom_site_fract_z
Si Si1 0.452599 0.865660 0.677697
Si Si2 0.855899 0.643363 0.186496
Si Si3 0.046541 0.826374 0.180467
Si Si4 0.307386 0.298373 0.817593
Si Si5 0.263319 0.083315 0.310802
Si Si6 0.126115 0.914881 0.317858
O O1 0.500000 0.892082 0.750000
O O2 0.451447 0.894288 0.500000
O O3 0.404343 0.881987 0.752727
O O4 0.453853 0.769259 0.679420
O O5 0.836851 0.730062 0.237059
O O6 0.814776 0.588687 0.238713
O O7 0.858365 0.643394 0.000000
O O8 0.084227 0.857919 0.294156
O O9 0.000000 0.854329 0.250000
O O10 0.053726 0.852116 0.000000
O O11 0.260616 0.334859 0.755787
O O12 0.336562 0.377539 0.793011
O O13 0.303012 0.277407 0.000000
O O14 0.260605 0.083989 0.500000
O O15 0.244395 0.000000 0.250000
O O16 0.139741 0.917534 0.500000
O O17 0.114003 0.000000 0.250000
#
# Coordination Sequence:
#
# PCOD9526831 Si02
#       6
#    16  16  16  16  16  16
#     4  10  20  35  59  89 122 157 195 244 298 355
#     4  11  22  38  62  93 124 158 201 248 298 355
#     4  10  20  35  54  77 108 145 192 241 295 353
#     4  11  22  39  60  87 119 156 203 248 294 350
#     4  10  24  42  62  89 123 161 202 248 301 360
#     4  12  24  37  54  77 110 152 197 246 298 350
#
# _framework density 22.194732999999999
#
# number of rings (size 3 to 8) (size 9 to 14) (size 15 to 20)
#    0.000    1.333    1.667    4.500    0.000    5.667 
#    0.000    1.667    0.000    0.500    0.000    3.500 
#    0.000    0.000    0.000    0.000    0.000    0.000 
#
# Total GULP energy -267934.053807 kJ/mol
# GULP energy per Si atom -5581.959454 kJ/mol
# Density = 2.214422 g / cm^3
# Si number density = 22.194733 Si / 1000 Ang^3
#
#
#
# Elastic Constant Matrix: (Units=GPa)
#
#
# Indices 1 2 3 4 5 6 
#
# 1 131.0848 2.6201 3.9287 0.0000 0.0000 0.0000
# 2 2.6201 48.7472 -1.2466 0.0000 0.0000 0.0000
# 3 3.9287 -1.2466 43.2874 0.0000 0.0000 0.0000
# 4 0.0000 0.0000 0.0000 8.2716 0.0000 0.0000
# 5 0.0000 0.0000 0.0000 0.0000 25.1866 0.0000
# 6 0.0000 0.0000 0.0000 0.0000 0.0000 11.1773
#
#
#
# Elastic Compliance Matrix: (Units=1/GPa)
#
#
# Indices 1 2 3 4 5 6 
#
# 1 0.007658 -0.000430 -0.000707 0.000000 0.000000 0.000000
# 2 -0.000430 0.020553 0.000631 0.000000 0.000000 0.000000
# 3 -0.000707 0.000631 0.023184 0.000000 0.000000 0.000000
# 4 0.000000 0.000000 0.000000 0.120895 0.000000 0.000000
# 5 0.000000 0.000000 0.000000 0.000000 0.039704 0.000000
# 6 0.000000 0.000000 0.000000 0.000000 0.000000 0.089467
#
#
# Mechanical properties :
#
#
# Convention : Reuss Voigt Hill
#
# Bulk Modulus (GPa) = 19.84801 25.96933 22.90867
# Shear Modulus (GPa) = 15.66082 23.44826 19.55454
#
# Velocity S-wave (km/s) = 2.65921 3.25388 2.97146
# Velocity P-wave (km/s) = 4.28843 5.08360 4.70285
#
# Compressibility (1/GPa) = 0.05038288
#
# Stress axis : x y z
#
# Youngs Moduli (GPa) = 130.57490 48.65412 43.13363
#
# Poissons Ratio (x) = 0.02091 0.03051
# Poissons Ratio (y) = 0.05611 -0.02721
# Poissons Ratio (z) = 0.09237 -0.03070
#
# Static dielectric constant tensor:
#      x y z
#    x 1.907270 0.000000 0.000000 
#    y 0.000000 1.829470 0.000000 
#    z 0.000000 0.000000 1.906340 
# 
# From -- ./inp_files/6010.got.cif
#   From: 2010.05.17/outbox.cif.g08.bks.cpg/sg72_4_cif.got.tgz:6010.got - 2010.06.03 17:03:01.
