data_PCOD9526050
_publ_section_title
;
Structure prediction by ZEFSAII (Michael W. Deem and Ramdas Pophale) SiO2 
 PCOD9526050
Probable space group: I B A M
;
_chemical_formula_sum "Si O2"
_cell_formula_units_Z 68
_cell_length_a 16.491818
_cell_length_b 8.615595
_cell_length_c 21.836603
_cell_angle_alpha 90.000000
_cell_angle_beta 90.000000
_cell_angle_gamma 90.000000
_cell_volume 3102.693583
_symmetry_space_group_name_H-M "I B A M"
_symmetry_group_IT_number 72
_symmetry_cell_setting 'orthorhombic'
loop_
_space_group_symop_operation_xyz
x,y,z
-x,-y,z
x,-y,1/2-z
-x,y,1/2-z
-x,-y,-z
x,y,-z
-x,y,1/2+z
x,-y,1/2+z
1/2+x,1/2+y,1/2+z
1/2-x,1/2-y,1/2+z
1/2+x,1/2-y,-z
1/2-x,1/2+y,-z
1/2-x,1/2-y,1/2-z
1/2+x,1/2+y,1/2-z
1/2-x,1/2+y,z
1/2+x,1/2-y,z
loop_
_atom_site_type_symbol
_atom_site_label
_atom_site_fract_x
_atom_site_fract_y
_atom_site_fract_z
Si Si1 0.868730 0.303804 0.177519
Si Si2 0.270425 0.538256 0.351045
Si Si3 0.157613 0.230943 0.927512
Si Si4 0.477636 0.679954 0.571882
Si Si5 0.500000 0.000000 0.250000
O O1 0.796424 0.427122 0.177996
O O2 0.825273 0.141130 0.194481
O O3 0.907725 0.258447 0.111746
O O4 0.941277 0.382623 0.213850
O O5 0.218064 0.651683 0.394470
O O6 0.325246 0.432037 0.394631
O O7 0.062836 0.270454 0.918727
O O8 0.172495 0.221137 0.000000
O O9 0.500000 0.500000 0.587549
O O10 0.456802 0.681647 0.500000
#
# Coordination Sequence:
#
# PCOD9526050 Si02
#       5
#    16  16  16  16   4
#     4  11  24  45  68  96 133 170 229 271 341 391
#     4  10  22  38  63  92 132 170 215 280 326 401
#     4  10  19  33  57  94 135 176 212 256 323 396
#     4  10  20  37  64  98 137 173 212 263 322 401
#     4  12  28  48  72  92 124 178 230 298 328 408
#
# _framework density 21.916440000000001
#
# number of rings (size 3 to 8) (size 9 to 14) (size 15 to 20)
#    0.000    1.647    2.353    2.118    0.000    5.647 
#    0.000    3.529    0.000    0.000    0.000    0.000 
#    0.000    0.000    0.000    0.000    0.000    0.000 
#
# Total GULP energy -189882.465859 kJ/mol
# GULP energy per Si atom -5584.778408 kJ/mol
# Density = 2.186656 g / cm^3
# Si number density = 21.916440 Si / 1000 Ang^3
#
#
#
# Elastic Constant Matrix: (Units=GPa)
#
#
# Indices 1 2 3 4 5 6 
#
# 1 90.8322 29.1402 22.3294 0.0000 0.0000 0.0000
# 2 29.1402 96.4417 26.8607 0.0000 0.0000 0.0000
# 3 22.3294 26.8607 33.2156 0.0000 0.0000 0.0000
# 4 0.0000 0.0000 0.0000 19.6786 0.0000 0.0000
# 5 0.0000 0.0000 0.0000 0.0000 8.6558 0.0000
# 6 0.0000 0.0000 0.0000 0.0000 0.0000 -4.1573
#
#
#
# Elastic Compliance Matrix: (Units=1/GPa)
#
#
# Indices 1 2 3 4 5 6 
#
# 1 0.013481 -0.002000 -0.007446 0.000000 0.000000 0.000000
# 2 -0.002000 0.013680 -0.009718 0.000000 0.000000 0.000000
# 3 -0.007446 -0.009718 0.042971 0.000000 0.000000 0.000000
# 4 0.000000 0.000000 0.000000 0.050817 0.000000 0.000000
# 5 0.000000 0.000000 0.000000 0.000000 0.115530 0.000000
# 6 0.000000 0.000000 0.000000 0.000000 0.000000 -0.240539
#
#
# Mechanical properties :
#
#
# Convention : Reuss Voigt Hill
#
# Bulk Modulus (GPa) = 31.44222 41.90557 36.67389
# Shear Modulus (GPa) = 111.43801 14.31269 62.87535
#
# Velocity S-wave (km/s) = 7.13843 2.55827 5.36199
# Velocity P-wave (km/s) = 9.07306 5.28095 7.42324
#
# Compressibility (1/GPa) = 0.03180437
#
# Stress axis : x y z
#
# Youngs Moduli (GPa) = 74.17723 73.10010 23.27164
#
# Poissons Ratio (x) = 0.14617 0.17328
# Poissons Ratio (y) = 0.14833 0.22616
# Poissons Ratio (z) = 0.55231 0.71041
#
# Static dielectric constant tensor:
#      x y z
#    x 1.846000 0.000000 0.000000 
#    y 0.000000 1.834700 0.000000 
#    z 0.000000 0.000000 1.773230 
# 
# From -- ./inp_files/35473.got.cif
#   From: 2010.05.17/outbox.cif.g08.bks.cpg/sg72_18_cif.got.tgz:35473.got - 2010.06.03 17:03:01.
