data_PCOD9526347
_publ_section_title
;
Structure prediction by ZEFSAII (Michael W. Deem and Ramdas Pophale) SiO2 
 PCOD9526347
Probable space group: I B A M
;
_chemical_formula_sum "Si O2"
_cell_formula_units_Z 116
_cell_length_a 25.634773
_cell_length_b 14.791713
_cell_length_c 15.175159
_cell_angle_alpha 90.000000
_cell_angle_beta 90.000000
_cell_angle_gamma 90.000000
_cell_volume 5754.150251
_symmetry_space_group_name_H-M "I B A M"
_symmetry_group_IT_number 72
_symmetry_cell_setting 'orthorhombic'
loop_
_space_group_symop_operation_xyz
x,y,z
-x,-y,z
x,-y,1/2-z
-x,y,1/2-z
-x,-y,-z
x,y,-z
-x,y,1/2+z
x,-y,1/2+z
1/2+x,1/2+y,1/2+z
1/2-x,1/2-y,1/2+z
1/2+x,1/2-y,-z
1/2-x,1/2+y,-z
1/2-x,1/2-y,1/2-z
1/2+x,1/2+y,1/2-z
1/2-x,1/2+y,z
1/2+x,1/2-y,z
loop_
_atom_site_type_symbol
_atom_site_label
_atom_site_fract_x
_atom_site_fract_y
_atom_site_fract_z
Si Si1 0.409230 0.256142 0.400857
Si Si2 0.500000 0.000000 0.500000
Si Si3 0.734930 0.443447 0.392746
Si Si4 0.685714 0.367260 0.108188
Si Si5 0.618327 0.119469 0.655369
Si Si6 0.214413 0.745367 0.893961
Si Si7 0.143615 0.574277 0.356879
Si Si8 0.497033 0.853468 0.651777
O O1 0.423586 0.282904 0.500000
O O2 0.370403 0.331111 0.361362
O O3 0.374023 0.164772 0.405461
O O4 0.462007 0.228557 0.351663
O O5 0.487693 0.075794 0.577195
O O6 0.738003 0.445676 0.500000
O O7 0.703890 0.532798 0.365115
O O8 0.709492 0.348834 0.364355
O O9 0.794439 0.441616 0.359492
O O10 0.731263 0.298480 0.137335
O O11 0.684278 0.365057 0.000000
O O12 0.666887 0.181092 0.630705
O O13 0.624702 0.095422 0.758006
O O14 0.563761 0.167091 0.635589
O O15 0.619680 0.020553 0.609645
O O16 0.217093 0.746723 0.000000
O O17 0.500000 0.892969 0.750000
#
# Coordination Sequence:
#
# PCOD9526347 Si02
#       8
#    16   4  16  16  16  16  16  16
#     4  11  21  38  60  86 115 164 211 247 302 375
#     4  12  26  40  64  90 120 174 202 260 312 380
#     4  10  19  36  59  88 119 157 203 256 308 368
#     4   9  18  34  58  86 117 154 202 253 305 370
#     4  11  25  36  53  83 122 162 193 248 311 363
#     4  10  20  35  56  83 116 154 200 251 308 373
#     4  11  21  35  54  83 120 162 191 246 303 372
#     4  12  25  43  59  88 126 165 215 260 309 375
#
# _framework density 20.159362999999999
#
# number of rings (size 3 to 8) (size 9 to 14) (size 15 to 20)
#    0.000    1.379    4.828    1.448    2.897    1.103 
#    0.000    0.000    0.000    0.828    0.000    4.828 
#    0.000    0.000    0.000    0.000    0.000    0.000 
#
# Total GULP energy -323516.308470 kJ/mol
# GULP energy per Si atom -5577.867387 kJ/mol
# Density = 2.011348 g / cm^3
# Si number density = 20.159363 Si / 1000 Ang^3
#
#
#
# Elastic Constant Matrix: (Units=GPa)
#
#
# Indices 1 2 3 4 5 6 
#
# 1 136.3345 55.0849 6.6354 0.0000 0.0000 0.0000
# 2 55.0849 112.3763 13.7211 0.0000 0.0000 0.0000
# 3 6.6354 13.7211 57.9397 0.0000 0.0000 0.0000
# 4 0.0000 0.0000 0.0000 20.3377 0.0000 0.0000
# 5 0.0000 0.0000 0.0000 0.0000 93.1469 0.0000
# 6 0.0000 0.0000 0.0000 0.0000 0.0000 32.1477
#
#
#
# Elastic Compliance Matrix: (Units=1/GPa)
#
#
# Indices 1 2 3 4 5 6 
#
# 1 0.009146 -0.004485 0.000015 0.000000 0.000000 0.000000
# 2 -0.004485 0.011363 -0.002177 0.000000 0.000000 0.000000
# 3 0.000015 -0.002177 0.017773 0.000000 0.000000 0.000000
# 4 0.000000 0.000000 0.000000 0.049170 0.000000 0.000000
# 5 0.000000 0.000000 0.000000 0.000000 0.010736 0.000000
# 6 0.000000 0.000000 0.000000 0.000000 0.000000 0.031106
#
#
# Mechanical properties :
#
#
# Convention : Reuss Voigt Hill
#
# Bulk Modulus (GPa) = 40.02060 50.83702 45.42881
# Shear Modulus (GPa) = 33.13026 44.54038 38.83532
#
# Velocity S-wave (km/s) = 4.05831 4.70554 4.39386
# Velocity P-wave (km/s) = 6.46955 7.40237 6.95162
#
# Compressibility (1/GPa) = 0.02498713
#
# Stress axis : x y z
#
# Youngs Moduli (GPa) = 109.33268 88.00422 56.26426
#
# Poissons Ratio (x) = 0.39472 -0.00083
# Poissons Ratio (y) = 0.49038 0.12251
# Poissons Ratio (z) = -0.00161 0.19161
#
# Static dielectric constant tensor:
#      x y z
#    x 1.729570 0.000000 0.000000 
#    y 0.000000 1.719220 0.000000 
#    z 0.000000 0.000000 1.790970 
# 
# From -- ./inp_files/33456.got.cif
#   From: 2010.05.17/outbox.cif.g08.bks.cpg/sg72_17_cif.got.tgz:33456.got - 2010.06.03 17:03:01.
