data_PCOD9526506
_publ_section_title
;
Structure prediction by ZEFSAII (Michael W. Deem and Ramdas Pophale) SiO2 
 PCOD9526506
Probable space group: I B A M
;
_chemical_formula_sum "Si O2"
_cell_formula_units_Z 112
_cell_length_a 14.708630
_cell_length_b 12.824953
_cell_length_c 27.105650
_cell_angle_alpha 90.000000
_cell_angle_beta 90.000000
_cell_angle_gamma 90.000000
_cell_volume 5113.141739
_symmetry_space_group_name_H-M "I B A M"
_symmetry_group_IT_number 72
_symmetry_cell_setting 'orthorhombic'
loop_
_space_group_symop_operation_xyz
x,y,z
-x,-y,z
x,-y,1/2-z
-x,y,1/2-z
-x,-y,-z
x,y,-z
-x,y,1/2+z
x,-y,1/2+z
1/2+x,1/2+y,1/2+z
1/2-x,1/2-y,1/2+z
1/2+x,1/2-y,-z
1/2-x,1/2+y,-z
1/2-x,1/2-y,1/2-z
1/2+x,1/2+y,1/2-z
1/2-x,1/2+y,z
1/2+x,1/2-y,z
loop_
_atom_site_type_symbol
_atom_site_label
_atom_site_fract_x
_atom_site_fract_y
_atom_site_fract_z
Si Si1 0.711319 0.967701 0.841315
Si Si2 0.404188 0.462328 0.194000
Si Si3 0.059619 0.398579 0.862337
Si Si4 0.225389 0.962997 0.444604
Si Si5 0.385602 0.677819 0.444887
Si Si6 0.887095 0.731228 0.661533
Si Si7 0.595561 0.266337 0.055318
O O1 0.702660 0.967929 0.900887
O O2 0.682426 0.856385 0.820510
O O3 0.815200 0.990646 0.830860
O O4 0.639593 0.057567 0.827386
O O5 0.500000 0.500000 0.171084
O O6 0.403881 0.500000 0.250000
O O7 0.393854 0.338725 0.190053
O O8 0.099533 0.326957 0.905881
O O9 0.000000 0.500000 0.878293
O O10 0.985346 0.323539 0.837528
O O11 0.263403 0.962393 0.500000
O O12 0.167489 0.857955 0.436798
O O13 0.158583 0.063423 0.441394
O O14 0.360067 0.718984 0.500000
O O15 0.360140 0.739935 0.395316
O O16 0.495334 0.681160 0.442922
O O17 0.608856 0.224524 0.000000
#
# Coordination Sequence:
#
# PCOD9526506 Si02
#       7
#    16  16  16  16  16  16  16
#     4  11  24  40  66  99 132 176 215 261 327 384
#     4  11  27  48  70  99 125 157 212 269 329 394
#     4   9  21  39  59  92 130 173 220 259 314 386
#     4  10  20  31  51  91 135 172 221 271 314 371
#     4   9  17  32  54  87 132 176 221 264 312 374
#     4  10  22  41  68  96 133 177 213 266 321 376
#     4   9  18  30  52  84 124 178 226 267 317 364
#
# _framework density 21.904340999999999
#
# number of rings (size 3 to 8) (size 9 to 14) (size 15 to 20)
#    0.000    2.143    1.429    0.429    6.000    3.714 
#    0.000    7.143    0.000    3.000    0.000    0.000 
#    0.000    0.000    0.000    0.000    0.000    0.000 
#
# Total GULP energy -312766.099142 kJ/mol
# GULP energy per Si atom -5585.108913 kJ/mol
# Density = 2.185449 g / cm^3
# Si number density = 21.904341 Si / 1000 Ang^3
#
#
#
# Elastic Constant Matrix: (Units=GPa)
#
#
# Indices 1 2 3 4 5 6 
#
# 1 101.0678 60.7069 18.2054 0.0000 0.0000 0.0000
# 2 60.7069 133.9608 30.4260 0.0000 0.0000 0.0000
# 3 18.2054 30.4260 41.3046 0.0000 0.0000 0.0000
# 4 0.0000 0.0000 0.0000 -19.1281 0.0000 0.0000
# 5 0.0000 0.0000 0.0000 0.0000 0.6130 0.0000
# 6 0.0000 0.0000 0.0000 0.0000 0.0000 28.8033
#
#
#
# Elastic Compliance Matrix: (Units=1/GPa)
#
#
# Indices 1 2 3 4 5 6 
#
# 1 0.013701 -0.005809 -0.001760 0.000000 0.000000 0.000000
# 2 -0.005809 0.011428 -0.005858 0.000000 0.000000 0.000000
# 3 -0.001760 -0.005858 0.029301 0.000000 0.000000 0.000000
# 4 0.000000 0.000000 0.000000 -0.052279 0.000000 0.000000
# 5 0.000000 0.000000 0.000000 0.000000 1.631356 0.000000
# 6 0.000000 0.000000 0.000000 0.000000 0.000000 0.034718
#
#
# Mechanical properties :
#
#
# Convention : Reuss Voigt Hill
#
# Bulk Modulus (GPa) = 36.26250 55.00109 45.63180
# Shear Modulus (GPa) = 2.93381 13.19063 8.06222
#
# Velocity S-wave (km/s) = 1.15857 2.45662 1.92058
# Velocity P-wave (km/s) = 4.28726 5.76289 5.07895
#
# Compressibility (1/GPa) = 0.02757670
#
# Stress axis : x y z
#
# Youngs Moduli (GPa) = 72.99002 87.50639 34.12878
#
# Poissons Ratio (x) = 0.50832 0.06005
# Poissons Ratio (y) = 0.42400 0.19991
# Poissons Ratio (z) = 0.12843 0.51258
#
# Static dielectric constant tensor:
#      x y z
#    x 1.809840 0.000000 0.000000 
#    y 0.000000 1.787220 0.000000 
#    z 0.000000 0.000000 1.849670 
# 
# From -- ./inp_files/51792.got.cif
#   From: 2010.05.17/outbox.cif.g08.bks.cpg/sg72_26_cif.got.tgz:51792.got - 2010.06.03 17:03:01.
