data_PCOD9526371
_publ_section_title
;
Structure prediction by ZEFSAII (Michael W. Deem and Ramdas Pophale) SiO2 
 PCOD9526371
Probable space group: I B A M
;
_chemical_formula_sum "Si O2"
_cell_formula_units_Z 112
_cell_length_a 11.574227
_cell_length_b 14.331039
_cell_length_c 30.402398
_cell_angle_alpha 90.000000
_cell_angle_beta 90.000000
_cell_angle_gamma 90.000000
_cell_volume 5042.866993
_symmetry_space_group_name_H-M "I B A M"
_symmetry_group_IT_number 72
_symmetry_cell_setting 'orthorhombic'
loop_
_space_group_symop_operation_xyz
x,y,z
-x,-y,z
x,-y,1/2-z
-x,y,1/2-z
-x,-y,-z
x,y,-z
-x,y,1/2+z
x,-y,1/2+z
1/2+x,1/2+y,1/2+z
1/2-x,1/2-y,1/2+z
1/2+x,1/2-y,-z
1/2-x,1/2+y,-z
1/2-x,1/2-y,1/2-z
1/2+x,1/2+y,1/2-z
1/2-x,1/2+y,z
1/2+x,1/2-y,z
loop_
_atom_site_type_symbol
_atom_site_label
_atom_site_fract_x
_atom_site_fract_y
_atom_site_fract_z
Si Si1 0.073577 0.088902 0.672815
Si Si2 0.876007 0.549448 0.448456
Si Si3 0.278454 0.312266 0.602650
Si Si4 0.752650 0.858081 0.547250
Si Si5 0.488467 0.601699 0.429016
Si Si6 0.872770 0.790497 0.799718
Si Si7 0.215299 0.401685 0.230425
O O1 0.062958 0.092093 0.620455
O O2 0.203231 0.077882 0.688579
O O3 0.004285 0.177056 0.692227
O O4 0.000000 0.000000 0.688393
O O5 0.878590 0.581141 0.500000
O O6 0.833222 0.630763 0.415268
O O7 0.783536 0.464874 0.445687
O O8 0.000000 0.500000 0.438914
O O9 0.283972 0.206305 0.586858
O O10 0.386303 0.357363 0.577291
O O11 0.304855 0.310711 0.654421
O O12 0.701415 0.829427 0.500000
O O13 0.890107 0.844500 0.545786
O O14 0.500000 0.500000 0.448794
O O15 0.867233 0.683175 0.784048
O O16 0.805280 0.854877 0.764878
O O17 0.170397 0.500000 0.250000
#
# Coordination Sequence:
#
# PCOD9526371 Si02
#       7
#    16  16  16  16  16  16  16
#     4  10  19  36  65  91 118 162 207 255 313 383
#     4  10  23  43  64  88 125 175 223 265 329 402
#     4  11  23  41  63  91 131 167 210 273 323 382
#     4  11  24  39  62  91 123 167 217 270 323 389
#     4  10  21  39  62  94 125 159 210 268 325 379
#     4  10  23  36  60  96 123 160 212 258 312 378
#     4  11  21  37  63  92 125 166 209 256 309 376
#
# _framework density 22.209586999999999
#
# number of rings (size 3 to 8) (size 9 to 14) (size 15 to 20)
#    0.000    1.571    2.857    1.714    2.000    2.571 
#    0.000    0.000    0.000    6.000    0.000    0.000 
#    0.000    0.000    0.000    0.000    0.000    0.000 
#
# Total GULP energy -312680.442014 kJ/mol
# GULP energy per Si atom -5583.579322 kJ/mol
# Density = 2.215904 g / cm^3
# Si number density = 22.209587 Si / 1000 Ang^3
#
#
#
# Elastic Constant Matrix: (Units=GPa)
#
#
# Indices 1 2 3 4 5 6 
#
# 1 51.0586 12.5123 11.7379 0.0000 0.0000 0.0000
# 2 12.5123 97.8223 18.3219 0.0000 0.0000 0.0000
# 3 11.7379 18.3219 59.7455 0.0000 0.0000 0.0000
# 4 0.0000 0.0000 0.0000 64.4600 0.0000 0.0000
# 5 0.0000 0.0000 0.0000 0.0000 22.3773 0.0000
# 6 0.0000 0.0000 0.0000 0.0000 0.0000 25.2294
#
#
#
# Elastic Compliance Matrix: (Units=1/GPa)
#
#
# Indices 1 2 3 4 5 6 
#
# 1 0.020881 -0.002018 -0.003483 0.000000 0.000000 0.000000
# 2 -0.002018 0.011041 -0.002989 0.000000 0.000000 0.000000
# 3 -0.003483 -0.002989 0.018339 0.000000 0.000000 0.000000
# 4 0.000000 0.000000 0.000000 0.015514 0.000000 0.000000
# 5 0.000000 0.000000 0.000000 0.000000 0.044688 0.000000
# 6 0.000000 0.000000 0.000000 0.000000 0.000000 0.039636
#
#
# Mechanical properties :
#
#
# Convention : Reuss Voigt Hill
#
# Bulk Modulus (GPa) = 30.04979 32.64118 31.34549
# Shear Modulus (GPa) = 28.06267 33.48363 30.77315
#
# Velocity S-wave (km/s) = 3.55848 3.88702 3.72638
# Velocity P-wave (km/s) = 5.51754 5.90542 5.71477
#
# Compressibility (1/GPa) = 0.03327810
#
# Stress axis : x y z
#
# Youngs Moduli (GPa) = 47.89102 90.57419 54.52948
#
# Poissons Ratio (x) = 0.18282 0.18995
# Poissons Ratio (y) = 0.09666 0.16300
# Poissons Ratio (z) = 0.16682 0.27075
#
# Static dielectric constant tensor:
#      x y z
#    x 1.842280 0.000000 0.000000 
#    y 0.000000 1.302500 0.000000 
#    z 0.000000 0.000000 1.823800 
# 
# From -- ./inp_files/51489.got.cif
#   From: 2010.05.17/outbox.cif.g08.bks.cpg/sg72_26_cif.got.tgz:51489.got - 2010.06.03 17:03:01.
