data_PCOD9526126
_publ_section_title
;
Structure prediction by ZEFSAII (Michael W. Deem and Ramdas Pophale) SiO2 
 PCOD9526126
Probable space group: I B A M
;
_chemical_formula_sum "Si O2"
_cell_formula_units_Z 72
_cell_length_a 15.131779
_cell_length_b 11.905981
_cell_length_c 22.015810
_cell_angle_alpha 90.000000
_cell_angle_beta 90.000000
_cell_angle_gamma 90.000000
_cell_volume 3966.339121
_symmetry_space_group_name_H-M "I B A M"
_symmetry_group_IT_number 72
_symmetry_cell_setting 'orthorhombic'
loop_
_space_group_symop_operation_xyz
x,y,z
-x,-y,z
x,-y,1/2-z
-x,y,1/2-z
-x,-y,-z
x,y,-z
-x,y,1/2+z
x,-y,1/2+z
1/2+x,1/2+y,1/2+z
1/2-x,1/2-y,1/2+z
1/2+x,1/2-y,-z
1/2-x,1/2+y,-z
1/2-x,1/2-y,1/2-z
1/2+x,1/2+y,1/2-z
1/2-x,1/2+y,z
1/2+x,1/2-y,z
loop_
_atom_site_type_symbol
_atom_site_label
_atom_site_fract_x
_atom_site_fract_y
_atom_site_fract_z
Si Si1 0.500000 0.795405 0.250000
Si Si2 0.740292 0.257652 0.646417
Si Si3 0.930926 0.366004 0.877607
Si Si4 0.660841 0.626206 0.737673
Si Si5 0.114703 0.390668 0.928677
O O1 0.464883 0.864323 0.307716
O O2 0.580502 0.713694 0.268338
O O3 0.647513 0.223582 0.616857
O O4 0.718581 0.337200 0.703956
O O5 0.781006 0.145655 0.677561
O O6 0.809843 0.317158 0.602909
O O7 0.894389 0.486910 0.897664
O O8 0.017468 0.338657 0.917062
O O9 0.630800 0.500000 0.750000
O O10 0.130727 0.403321 0.000000
#
# Coordination Sequence:
#
# PCOD9526126 Si02
#       5
#     8  16  16  16  16
#     4  10  19  35  58  86 118 152 188 244 306 350
#     4  10  21  37  57  86 116 152 193 241 298 348
#     4  10  21  38  59  88 117 155 200 246 297 356
#     4  10  19  34  55  86 118 146 187 237 296 363
#     4  11  23  39  59  85 118 159 203 244 291 351
#
# _framework density 18.152760000000001
#
# number of rings (size 3 to 8) (size 9 to 14) (size 15 to 20)
#    0.000    1.778    2.222    3.000    0.000    3.556 
#    0.000    0.000    0.000    0.000    0.000    6.222 
#    0.000    0.000    0.000    0.000    0.000    0.000 
#
# Total GULP energy -200889.111521 kJ/mol
# GULP energy per Si atom -5580.253098 kJ/mol
# Density = 1.811144 g / cm^3
# Si number density = 18.152760 Si / 1000 Ang^3
#
#
#
# Elastic Constant Matrix: (Units=GPa)
#
#
# Indices 1 2 3 4 5 6 
#
# 1 119.4409 47.4738 59.5494 0.0000 0.0000 0.0000
# 2 47.4738 78.1940 63.7840 0.0000 0.0000 0.0000
# 3 59.5494 63.7840 110.9599 0.0000 0.0000 0.0000
# 4 0.0000 0.0000 0.0000 13.3198 0.0000 0.0000
# 5 0.0000 0.0000 0.0000 0.0000 24.0416 0.0000
# 6 0.0000 0.0000 0.0000 0.0000 0.0000 20.6063
#
#
#
# Elastic Compliance Matrix: (Units=1/GPa)
#
#
# Indices 1 2 3 4 5 6 
#
# 1 0.012011 -0.003830 -0.004244 0.000000 0.000000 0.000000
# 2 -0.003830 0.025301 -0.012489 0.000000 0.000000 0.000000
# 3 -0.004244 -0.012489 0.018469 0.000000 0.000000 0.000000
# 4 0.000000 0.000000 0.000000 0.075076 0.000000 0.000000
# 5 0.000000 0.000000 0.000000 0.000000 0.041595 0.000000
# 6 0.000000 0.000000 0.000000 0.000000 0.000000 0.048529
#
#
# Mechanical properties :
#
#
# Convention : Reuss Voigt Hill
#
# Bulk Modulus (GPa) = 68.23526 72.24549 70.24037
# Shear Modulus (GPa) = 18.72723 20.77938 19.75330
#
# Velocity S-wave (km/s) = 3.21541 3.38701 3.30232
# Velocity P-wave (km/s) = 7.17330 7.42838 7.30195
#
# Compressibility (1/GPa) = 0.01465518
#
# Stress axis : x y z
#
# Youngs Moduli (GPa) = 83.25945 39.52400 54.14491
#
# Poissons Ratio (x) = 0.15137 0.22980
# Poissons Ratio (y) = 0.31888 0.67619
# Poissons Ratio (z) = 0.35337 0.49360
#
# Static dielectric constant tensor:
#      x y z
#    x 1.659690 0.000000 0.000000 
#    y 0.000000 1.621240 0.000000 
#    z 0.000000 0.000000 1.616790 
# 
# From -- ./inp_files/31250.got.cif
#   From: 2010.05.17/outbox.cif.g08.bks.cpg/sg72_16_cif.got.tgz:31250.got - 2010.06.03 17:03:01.
