data_PCOD9526186
_publ_section_title
;
Structure prediction by ZEFSAII (Michael W. Deem and Ramdas Pophale) SiO2 
 PCOD9526186
Probable space group: I B A M
;
_chemical_formula_sum "Si O2"
_cell_formula_units_Z 64
_cell_length_a 5.261671
_cell_length_b 35.377102
_cell_length_c 15.694573
_cell_angle_alpha 90.000000
_cell_angle_beta 90.000000
_cell_angle_gamma 90.000000
_cell_volume 2921.429749
_symmetry_space_group_name_H-M "I B A M"
_symmetry_group_IT_number 72
_symmetry_cell_setting 'orthorhombic'
loop_
_space_group_symop_operation_xyz
x,y,z
-x,-y,z
x,-y,1/2-z
-x,y,1/2-z
-x,-y,-z
x,y,-z
-x,y,1/2+z
x,-y,1/2+z
1/2+x,1/2+y,1/2+z
1/2-x,1/2-y,1/2+z
1/2+x,1/2-y,-z
1/2-x,1/2+y,-z
1/2-x,1/2-y,1/2-z
1/2+x,1/2+y,1/2-z
1/2-x,1/2+y,z
1/2+x,1/2-y,z
loop_
_atom_site_type_symbol
_atom_site_label
_atom_site_fract_x
_atom_site_fract_y
_atom_site_fract_z
Si Si1 0.619905 0.645183 0.841798
Si Si2 0.767428 0.766100 0.652410
Si Si3 0.752603 0.977356 0.103983
Si Si4 0.633901 0.106656 0.402140
O O1 0.500000 0.637135 0.750000
O O2 0.676454 0.689720 0.847398
O O3 0.886764 0.623936 0.856314
O O4 0.385565 0.632594 0.900938
O O5 0.750000 0.750000 0.750000
O O6 0.499246 0.756394 0.611712
O O7 0.722129 0.934130 0.132707
O O8 0.500000 0.000000 0.127066
O O9 0.768576 0.976267 0.000000
O O10 0.000000 0.000000 0.134290
O O11 0.550735 0.101259 0.500000
#
# Coordination Sequence:
#
# PCOD9526186 Si02
#       4
#    16  16  16  16
#     4  12  23  38  65  94 123 162 216 262 309 378
#     4  10  19  34  59  89 110 149 208 272 285 340
#     4   9  17  33  59  86 114 159 213 247 281 357
#     4  11  24  40  61  94 134 163 198 267 331 369
#
# _framework density 21.907080000000001
#
# number of rings (size 3 to 8) (size 9 to 14) (size 15 to 20)
#    0.000    1.500    2.500    4.500    3.500    4.000 
#    0.000    0.000    0.000   26.250    0.000    0.000 
#    0.000    0.000    0.000    0.000    0.000    0.250 
#
# Total GULP energy -178743.843843 kJ/mol
# GULP energy per Si atom -5585.745120 kJ/mol
# Density = 2.185722 g / cm^3
# Si number density = 21.907080 Si / 1000 Ang^3
#
#
#
# Elastic Constant Matrix: (Units=GPa)
#
#
# Indices 1 2 3 4 5 6 
#
# 1 240.1665 112.6202 20.4651 0.0000 0.0000 0.0000
# 2 112.6202 197.7444 27.5617 0.0000 0.0000 0.0000
# 3 20.4651 27.5617 35.1965 0.0000 0.0000 0.0000
# 4 0.0000 0.0000 0.0000 24.1802 0.0000 0.0000
# 5 0.0000 0.0000 0.0000 0.0000 10.5835 0.0000
# 6 0.0000 0.0000 0.0000 0.0000 0.0000 45.7772
#
#
#
# Elastic Compliance Matrix: (Units=1/GPa)
#
#
# Indices 1 2 3 4 5 6 
#
# 1 0.005704 -0.003128 -0.000867 0.000000 0.000000 0.000000
# 2 -0.003128 0.007392 -0.003970 0.000000 0.000000 0.000000
# 3 -0.000867 -0.003970 0.032025 0.000000 0.000000 0.000000
# 4 0.000000 0.000000 0.000000 0.041356 0.000000 0.000000
# 5 0.000000 0.000000 0.000000 0.000000 0.094487 0.000000
# 6 0.000000 0.000000 0.000000 0.000000 0.000000 0.021845
#
#
# Mechanical properties :
#
#
# Convention : Reuss Voigt Hill
#
# Bulk Modulus (GPa) = 34.25708 88.26684 61.26196
# Shear Modulus (GPa) = 21.88482 36.93887 29.41184
#
# Velocity S-wave (km/s) = 3.16410 4.11074 3.66809
# Velocity P-wave (km/s) = 5.38703 7.93158 6.77975
#
# Compressibility (1/GPa) = 0.02919104
#
# Stress axis : x y z
#
# Youngs Moduli (GPa) = 175.30149 135.28613 31.22583
#
# Poissons Ratio (x) = 0.42316 0.02709
# Poissons Ratio (y) = 0.54833 0.12395
# Poissons Ratio (z) = 0.15207 0.53703
#
# Static dielectric constant tensor:
#      x y z
#    x 1.799950 0.000000 0.000000 
#    y 0.000000 1.792820 0.000000 
#    z 0.000000 0.000000 1.837530 
# 
# From -- ./inp_files/27021.got.cif
#   From: 2010.05.17/outbox.cif.g08.bks.cpg/sg72_14_cif.got.tgz:27021.got - 2010.06.03 17:03:01.
