data_PCOD9526673
_publ_section_title
;
Structure prediction by ZEFSAII (Michael W. Deem and Ramdas Pophale) SiO2 
 PCOD9526673
Probable space group: I B A M
;
_chemical_formula_sum "Si O2"
_cell_formula_units_Z 72
_cell_length_a 10.420406
_cell_length_b 24.799364
_cell_length_c 14.102575
_cell_angle_alpha 90.000000
_cell_angle_beta 90.000000
_cell_angle_gamma 90.000000
_cell_volume 3644.379554
_symmetry_space_group_name_H-M "I B A M"
_symmetry_group_IT_number 72
_symmetry_cell_setting 'orthorhombic'
loop_
_space_group_symop_operation_xyz
x,y,z
-x,-y,z
x,-y,1/2-z
-x,y,1/2-z
-x,-y,-z
x,y,-z
-x,y,1/2+z
x,-y,1/2+z
1/2+x,1/2+y,1/2+z
1/2-x,1/2-y,1/2+z
1/2+x,1/2-y,-z
1/2-x,1/2+y,-z
1/2-x,1/2-y,1/2-z
1/2+x,1/2+y,1/2-z
1/2-x,1/2+y,z
1/2+x,1/2-y,z
loop_
_atom_site_type_symbol
_atom_site_label
_atom_site_fract_x
_atom_site_fract_y
_atom_site_fract_z
Si Si1 0.000000 0.320759 0.250000
Si Si2 0.849794 0.151053 0.602974
Si Si3 0.746769 0.866128 0.310605
Si Si4 0.542782 0.558356 0.859474
Si Si5 0.923066 0.769580 0.610917
O O1 0.095805 0.355866 0.185601
O O2 0.079660 0.281366 0.320011
O O3 0.783803 0.154373 0.500000
O O4 0.775259 0.134961 0.697518
O O5 0.958483 0.105125 0.595670
O O6 0.933196 0.205121 0.620014
O O7 0.810922 0.919516 0.357032
O O8 0.823176 0.815177 0.354719
O O9 0.500000 0.500000 0.896046
O O10 0.500000 0.558322 0.750000
O O11 0.902017 0.758143 0.500000
#
# Coordination Sequence:
#
# PCOD9526673 Si02
#       5
#     8  16  16  16  16
#     4  12  22  34  50  77 113 156 184 224 278 326
#     4   9  17  31  52  77 104 137 183 233 274 323
#     4  10  20  35  51  77 113 143 187 229 271 339
#     4   8  15  31  55  77 100 133 176 233 287 324
#     4  10  20  34  52  74 106 151 194 229 270 323
#
# _framework density 19.756447999999999
#
# number of rings (size 3 to 8) (size 9 to 14) (size 15 to 20)
#    0.000    2.444    2.222    2.000    0.000    2.222 
#    0.000    0.000    0.000   10.667    0.000    1.556 
#    0.000    0.000    0.000    0.000    0.000    0.000 
#
# Total GULP energy -200547.715011 kJ/mol
# GULP energy per Si atom -5570.769861 kJ/mol
# Density = 1.971148 g / cm^3
# Si number density = 19.756448 Si / 1000 Ang^3
#
#
#
# Elastic Constant Matrix: (Units=GPa)
#
#
# Indices 1 2 3 4 5 6 
#
# 1 52.8047 36.7571 -5.7235 0.0000 0.0000 0.0000
# 2 36.7571 100.2087 5.0073 0.0000 0.0000 0.0000
# 3 -5.7235 5.0073 89.6361 0.0000 0.0000 0.0000
# 4 0.0000 0.0000 0.0000 -14.6145 0.0000 0.0000
# 5 0.0000 0.0000 0.0000 0.0000 8.0228 0.0000
# 6 0.0000 0.0000 0.0000 0.0000 0.0000 15.9662
#
#
#
# Elastic Compliance Matrix: (Units=1/GPa)
#
#
# Indices 1 2 3 4 5 6 
#
# 1 0.025851 -0.009592 0.002186 0.000000 0.000000 0.000000
# 2 -0.009592 0.013566 -0.001370 0.000000 0.000000 0.000000
# 3 0.002186 -0.001370 0.011372 0.000000 0.000000 0.000000
# 4 0.000000 0.000000 0.000000 -0.068425 0.000000 0.000000
# 5 0.000000 0.000000 0.000000 0.000000 0.124644 0.000000
# 6 0.000000 0.000000 0.000000 0.000000 0.000000 0.062632
#
#
# Mechanical properties :
#
#
# Convention : Reuss Voigt Hill
#
# Bulk Modulus (GPa) = 30.08535 34.97016 32.52775
# Shear Modulus (GPa) = 25.21794 15.64881 20.43338
#
# Velocity S-wave (km/s) = 3.57661 2.81746 3.21949
# Velocity P-wave (km/s) = 5.68483 5.32195 5.50638
#
# Compressibility (1/GPa) = 0.03323877
#
# Stress axis : x y z
#
# Youngs Moduli (GPa) = 38.68254 73.71404 87.93238
#
# Poissons Ratio (x) = 0.70704 -0.19226
# Poissons Ratio (y) = 0.37103 0.12049
# Poissons Ratio (z) = -0.08458 0.10101
#
# Static dielectric constant tensor:
#      x y z
#    x 1.752110 0.000000 0.000000 
#    y 0.000000 1.726030 0.000000 
#    z 0.000000 0.000000 1.732290 
# 
# From -- ./inp_files/18879.got.cif
#   From: 2010.05.17/outbox.cif.g08.bks.cpg/sg72_10_cif.got.tgz:18879.got - 2010.06.03 17:03:01.
