data_PCOD9526128
_publ_section_title
;
Structure prediction by ZEFSAII (Michael W. Deem and Ramdas Pophale) SiO2 
 PCOD9526128
Probable space group: I B A M
;
_chemical_formula_sum "Si O2"
_cell_formula_units_Z 104
_cell_length_a 21.296115
_cell_length_b 28.548471
_cell_length_c 9.265755
_cell_angle_alpha 90.000000
_cell_angle_beta 90.000000
_cell_angle_gamma 90.000000
_cell_volume 5633.315165
_symmetry_space_group_name_H-M "I B A M"
_symmetry_group_IT_number 72
_symmetry_cell_setting 'orthorhombic'
loop_
_space_group_symop_operation_xyz
x,y,z
-x,-y,z
x,-y,1/2-z
-x,y,1/2-z
-x,-y,-z
x,y,-z
-x,y,1/2+z
x,-y,1/2+z
1/2+x,1/2+y,1/2+z
1/2-x,1/2-y,1/2+z
1/2+x,1/2-y,-z
1/2-x,1/2+y,-z
1/2-x,1/2-y,1/2-z
1/2+x,1/2+y,1/2-z
1/2-x,1/2+y,z
1/2+x,1/2-y,z
loop_
_atom_site_type_symbol
_atom_site_label
_atom_site_fract_x
_atom_site_fract_y
_atom_site_fract_z
Si Si1 0.563870 0.791918 0.671485
Si Si2 0.896791 0.046685 0.836752
Si Si3 0.801478 0.876620 0.327084
Si Si4 0.654051 0.121240 0.171517
Si Si5 0.435804 0.050597 0.825214
Si Si6 0.000000 0.881182 0.250000
Si Si7 0.394015 0.310527 0.664688
O O1 0.500000 0.806216 0.750000
O O2 0.551603 0.789308 0.500000
O O3 0.618821 0.829451 0.694188
O O4 0.584168 0.740013 0.721015
O O5 0.836945 0.075809 0.778122
O O6 0.953944 0.083740 0.834555
O O7 0.911518 0.000000 0.750000
O O8 0.883473 0.032601 0.000000
O O9 0.809784 0.874326 0.500000
O O10 0.727864 0.876119 0.296402
O O11 0.838982 0.833956 0.256333
O O12 0.619993 0.083845 0.273127
O O13 0.646704 0.109046 0.000000
O O14 0.500000 0.068944 0.750000
O O15 0.426419 0.000000 0.750000
O O16 0.441392 0.047512 0.000000
O O17 0.952728 0.846444 0.167810
O O18 0.372977 0.304500 0.500000
#
# Coordination Sequence:
#
# PCOD9526128 Si02
#       7
#    16  16  16  16  16   8  16
#     4  10  21  36  57  85 114 146 185 234 286 337
#     4  10  21  35  53  78 107 142 184 229 280 332
#     4   9  21  39  56  77 110 152 189 229 284 341
#     4  10  21  39  59  82 116 152 189 234 285 340
#     4  11  22  38  61  88 116 148 188 233 285 342
#     4  10  19  34  56  78 110 146 183 230 282 338
#     4  10  20  35  56  82 110 144 189 234 278 338
#
# _framework density 18.461597999999999
#
# number of rings (size 3 to 8) (size 9 to 14) (size 15 to 20)
#    0.000    2.000    0.769    3.000    0.000    8.615 
#    0.000    1.538    0.000    0.000    0.000    0.000 
#    0.000    0.000    0.000    0.000    0.000    0.000 
#
# Total GULP energy -290086.983666 kJ/mol
# GULP energy per Si atom -5578.595840 kJ/mol
# Density = 1.841958 g / cm^3
# Si number density = 18.461598 Si / 1000 Ang^3
#
#
#
# Elastic Constant Matrix: (Units=GPa)
#
#
# Indices 1 2 3 4 5 6 
#
# 1 136.8297 51.6928 48.3112 0.0000 0.0000 0.0000
# 2 51.6928 91.5775 38.5220 0.0000 0.0000 0.0000
# 3 48.3112 38.5220 66.8588 0.0000 0.0000 0.0000
# 4 0.0000 0.0000 0.0000 22.9607 0.0000 0.0000
# 5 0.0000 0.0000 0.0000 0.0000 23.6845 0.0000
# 6 0.0000 0.0000 0.0000 0.0000 0.0000 21.1172
#
#
#
# Elastic Compliance Matrix: (Units=1/GPa)
#
#
# Indices 1 2 3 4 5 6 
#
# 1 0.010670 -0.003669 -0.005596 0.000000 0.000000 0.000000
# 2 -0.003669 0.015674 -0.006380 0.000000 0.000000 0.000000
# 3 -0.005596 -0.006380 0.022677 0.000000 0.000000 0.000000
# 4 0.000000 0.000000 0.000000 0.043553 0.000000 0.000000
# 5 0.000000 0.000000 0.000000 0.000000 0.042222 0.000000
# 6 0.000000 0.000000 0.000000 0.000000 0.000000 0.047355
#
#
# Mechanical properties :
#
#
# Convention : Reuss Voigt Hill
#
# Bulk Modulus (GPa) = 56.39860 63.59088 59.99474
# Shear Modulus (GPa) = 22.79444 24.00180 23.39812
#
# Velocity S-wave (km/s) = 3.51763 3.60959 3.56391
# Velocity P-wave (km/s) = 6.86395 7.20361 7.03583
#
# Compressibility (1/GPa) = 0.01773094
#
# Stress axis : x y z
#
# Youngs Moduli (GPa) = 93.71728 63.79791 44.09825
#
# Poissons Ratio (x) = 0.23408 0.24679
# Poissons Ratio (y) = 0.34385 0.28135
# Poissons Ratio (z) = 0.52447 0.40703
#
# Static dielectric constant tensor:
#      x y z
#    x 1.627340 0.000000 0.000000 
#    y 0.000000 1.637540 0.000000 
#    z 0.000000 0.000000 1.636640 
# 
# From -- ./inp_files/6137.got.cif
#   From: 2010.05.17/outbox.cif.g08.bks.cpg/sg72_4_cif.got.tgz:6137.got - 2010.06.03 17:03:01.
