data_PCOD9526221
_publ_section_title
;
Structure prediction by ZEFSAII (Michael W. Deem and Ramdas Pophale) SiO2 
 PCOD9526221
Probable space group: I B A M
;
_chemical_formula_sum "Si O2"
_cell_formula_units_Z 116
_cell_length_a 23.360827
_cell_length_b 28.075694
_cell_length_c 8.244784
_cell_angle_alpha 90.000000
_cell_angle_beta 90.000000
_cell_angle_gamma 90.000000
_cell_volume 5407.518276
_symmetry_space_group_name_H-M "I B A M"
_symmetry_group_IT_number 72
_symmetry_cell_setting 'orthorhombic'
loop_
_space_group_symop_operation_xyz
x,y,z
-x,-y,z
x,-y,1/2-z
-x,y,1/2-z
-x,-y,-z
x,y,-z
-x,y,1/2+z
x,-y,1/2+z
1/2+x,1/2+y,1/2+z
1/2-x,1/2-y,1/2+z
1/2+x,1/2-y,-z
1/2-x,1/2+y,-z
1/2-x,1/2-y,1/2-z
1/2+x,1/2+y,1/2-z
1/2-x,1/2+y,z
1/2+x,1/2-y,z
loop_
_atom_site_type_symbol
_atom_site_label
_atom_site_fract_x
_atom_site_fract_y
_atom_site_fract_z
Si Si1 0.125794 0.647253 0.692337
Si Si2 0.000000 0.000000 0.750000
Si Si3 0.934070 0.447804 0.694532
Si Si4 0.627392 0.676594 0.689888
Si Si5 0.750735 0.651422 0.811968
Si Si6 0.438992 0.235699 0.813295
Si Si7 0.274015 0.449006 0.309932
Si Si8 0.408447 0.428958 0.307043
O O1 0.134739 0.640952 0.500000
O O2 0.103211 0.596721 0.757247
O O3 0.187243 0.665215 0.756522
O O4 0.080201 0.688539 0.719684
O O5 0.951866 0.039752 0.799630
O O6 0.914010 0.500000 0.750000
O O7 0.933635 0.446820 0.500000
O O8 0.000000 0.442157 0.750000
O O9 0.616850 0.684842 0.500000
O O10 0.694918 0.668923 0.717844
O O11 0.604989 0.721484 0.786891
O O12 0.595420 0.627037 0.734101
O O13 0.750131 0.594124 0.795029
O O14 0.744485 0.665571 0.000000
O O15 0.500000 0.252813 0.750000
O O16 0.442967 0.222842 0.000000
O O17 0.253518 0.500000 0.250000
O O18 0.261422 0.441381 0.500000
O O19 0.343150 0.446650 0.292087
O O20 0.424592 0.434462 0.500000
#
# Coordination Sequence:
#
# PCOD9526221 Si02
#       8
#    16   4  16  16  16  16  16  16
#     4  10  23  42  64  93 128 162 205 258 306 369
#     4  12  18  32  52  86 116 152 206 248 306 356
#     4  10  20  36  59  89 125 165 204 248 304 364
#     4  10  22  43  64  88 124 163 209 260 311 371
#     4  10  21  39  62  90 121 159 205 254 315 377
#     4  12  26  44  68  96 124 162 206 251 312 370
#     4  10  19  35  54  78 114 157 204 254 310 368
#     4   9  20  34  51  79 115 154 196 249 306 359
#
# _framework density 21.451616000000001
#
# number of rings (size 3 to 8) (size 9 to 14) (size 15 to 20)
#    0.000    1.793    0.690    4.759    0.966    4.414 
#    0.000    2.759    0.000    0.000    0.000    0.000 
#    0.000    0.000    0.000    0.000    0.000    0.000 
#
# Total GULP energy -323713.499359 kJ/mol
# GULP energy per Si atom -5581.267230 kJ/mol
# Density = 2.140279 g / cm^3
# Si number density = 21.451616 Si / 1000 Ang^3
#
#
#
# Elastic Constant Matrix: (Units=GPa)
#
#
# Indices 1 2 3 4 5 6 
#
# 1 59.9048 18.4604 8.9732 0.0000 0.0000 0.0000
# 2 18.4604 76.7881 -1.6880 0.0000 0.0000 0.0000
# 3 8.9732 -1.6880 29.4875 0.0000 0.0000 0.0000
# 4 0.0000 0.0000 0.0000 16.8886 0.0000 0.0000
# 5 0.0000 0.0000 0.0000 0.0000 12.8925 0.0000
# 6 0.0000 0.0000 0.0000 0.0000 0.0000 -49.5299
#
#
#
# Elastic Compliance Matrix: (Units=1/GPa)
#
#
# Indices 1 2 3 4 5 6 
#
# 1 0.019055 -0.004714 -0.006068 0.000000 0.000000 0.000000
# 2 -0.004714 0.014206 0.002248 0.000000 0.000000 0.000000
# 3 -0.006068 0.002248 0.035888 0.000000 0.000000 0.000000
# 4 0.000000 0.000000 0.000000 0.059211 0.000000 0.000000
# 5 0.000000 0.000000 0.000000 0.000000 0.077565 0.000000
# 6 0.000000 0.000000 0.000000 0.000000 0.000000 -0.020190
#
#
# Mechanical properties :
#
#
# Convention : Reuss Voigt Hill
#
# Bulk Modulus (GPa) = 19.20170 24.18572 21.69371
# Shear Modulus (GPa) = 22.71033 5.41257 14.06145
#
# Velocity S-wave (km/s) = 3.25726 1.59017 2.56304
# Velocity P-wave (km/s) = 4.80801 3.83021 4.34669
#
# Compressibility (1/GPa) = 0.05207873
#
# Stress axis : x y z
#
# Youngs Moduli (GPa) = 52.47991 70.39464 27.86448
#
# Poissons Ratio (x) = 0.33186 0.16909
# Poissons Ratio (y) = 0.24741 -0.06263
# Poissons Ratio (z) = 0.31847 -0.15823
#
# Static dielectric constant tensor:
#      x y z
#    x 1.763340 0.000000 0.000000 
#    y 0.000000 1.756380 0.000000 
#    z 0.000000 0.000000 1.786000 
# 
# From -- ./inp_files/7358.got.cif
#   From: 2010.05.17/outbox.cif.g08.bks.cpg/sg72_4_cif.got.tgz:7358.got - 2010.06.03 17:03:01.
