data_PCOD9526878
_publ_section_title
;
Structure prediction by ZEFSAII (Michael W. Deem and Ramdas Pophale) SiO2 
 PCOD9526878
Probable space group: I B A M
;
_chemical_formula_sum "Si O2"
_cell_formula_units_Z 96
_cell_length_a 28.422933
_cell_length_b 21.023341
_cell_length_c 8.593600
_cell_angle_alpha 90.000000
_cell_angle_beta 90.000000
_cell_angle_gamma 90.000000
_cell_volume 5135.062821
_symmetry_space_group_name_H-M "I B A M"
_symmetry_group_IT_number 72
_symmetry_cell_setting 'orthorhombic'
loop_
_space_group_symop_operation_xyz
x,y,z
-x,-y,z
x,-y,1/2-z
-x,y,1/2-z
-x,-y,-z
x,y,-z
-x,y,1/2+z
x,-y,1/2+z
1/2+x,1/2+y,1/2+z
1/2-x,1/2-y,1/2+z
1/2+x,1/2-y,-z
1/2-x,1/2+y,-z
1/2-x,1/2-y,1/2-z
1/2+x,1/2+y,1/2-z
1/2-x,1/2+y,z
1/2+x,1/2-y,z
loop_
_atom_site_type_symbol
_atom_site_label
_atom_site_fract_x
_atom_site_fract_y
_atom_site_fract_z
Si Si1 0.552208 0.930141 0.185781
Si Si2 0.447367 0.691510 0.812270
Si Si3 0.888031 0.069038 0.312929
Si Si4 0.887064 0.685348 0.188591
Si Si5 0.717167 0.568858 0.186936
Si Si6 0.221563 0.689817 0.312251
O O1 0.500000 0.914982 0.250000
O O2 0.588051 0.876772 0.243388
O O3 0.564778 0.000000 0.250000
O O4 0.550399 0.932180 0.000000
O O5 0.500000 0.696260 0.750000
O O6 0.422115 0.626078 0.762890
O O7 0.416181 0.752053 0.763528
O O8 0.448726 0.691536 0.000000
O O9 0.886540 0.066939 0.500000
O O10 0.835266 0.081127 0.251305
O O11 0.902924 0.000000 0.250000
O O12 0.832768 0.690589 0.237892
O O13 0.888287 0.681585 0.000000
O O14 0.732194 0.500000 0.250000
O O15 0.752065 0.625092 0.235462
O O16 0.715016 0.566438 0.000000
O O17 0.222061 0.692185 0.500000
O O18 0.250000 0.750000 0.250000
#
# Coordination Sequence:
#
# PCOD9526878 Si02
#       6
#    16  16  16  16  16  16
#     4  11  22  38  60  86 114 148 186 228 277 334
#     4  10  22  37  56  79 108 144 182 225 276 326
#     4  10  20  36  57  82 110 145 182 223 272 324
#     4  10  21  39  58  81 113 148 186 233 280 328
#     4  10  20  35  56  83 111 145 183 224 271 324
#     4  10  22  38  58  83 114 148 187 232 279 329
#
# _framework density 18.694998999999999
#
# number of rings (size 3 to 8) (size 9 to 14) (size 15 to 20)
#    0.000    1.833    0.000    5.500    0.000    7.667 
#    0.000    3.333    0.000    0.000    0.000    0.000 
#    0.000    0.000    0.000    0.000    0.000    0.000 
#
# Total GULP energy -268230.816809 kJ/mol
# GULP energy per Si atom -5588.142017 kJ/mol
# Density = 1.865245 g / cm^3
# Si number density = 18.694999 Si / 1000 Ang^3
#
#
#
# Elastic Constant Matrix: (Units=GPa)
#
#
# Indices 1 2 3 4 5 6 
#
# 1 151.2055 126.3181 34.0798 0.0000 0.0000 0.0000
# 2 126.3181 159.8651 36.9681 0.0000 0.0000 0.0000
# 3 34.0798 36.9681 47.8187 0.0000 0.0000 0.0000
# 4 0.0000 0.0000 0.0000 30.2017 0.0000 0.0000
# 5 0.0000 0.0000 0.0000 0.0000 26.0183 0.0000
# 6 0.0000 0.0000 0.0000 0.0000 0.0000 43.4003
#
#
#
# Elastic Compliance Matrix: (Units=1/GPa)
#
#
# Indices 1 2 3 4 5 6 
#
# 1 0.019689 -0.014992 -0.002441 0.000000 0.000000 0.000000
# 2 -0.014992 0.019033 -0.004030 0.000000 0.000000 0.000000
# 3 -0.002441 -0.004030 0.025767 0.000000 0.000000 0.000000
# 4 0.000000 0.000000 0.000000 0.033111 0.000000 0.000000
# 5 0.000000 0.000000 0.000000 0.000000 0.038434 0.000000
# 6 0.000000 0.000000 0.000000 0.000000 0.000000 0.023041
#
#
# Mechanical properties :
#
#
# Convention : Reuss Voigt Hill
#
# Bulk Modulus (GPa) = 46.37627 83.73570 65.05598
# Shear Modulus (GPa) = 23.90167 30.69227 27.29697
#
# Velocity S-wave (km/s) = 3.57950 4.05623 3.82530
# Velocity P-wave (km/s) = 6.47645 8.17466 7.37460
#
# Compressibility (1/GPa) = 0.02156275
#
# Stress axis : x y z
#
# Youngs Moduli (GPa) = 50.79092 52.53902 38.80861
#
# Poissons Ratio (x) = 0.78769 0.09474
# Poissons Ratio (y) = 0.76148 0.15638
# Poissons Ratio (z) = 0.12400 0.21171
#
# Static dielectric constant tensor:
#      x y z
#    x 1.616490 0.000000 0.000000 
#    y 0.000000 1.632670 0.000000 
#    z 0.000000 0.000000 1.636900 
# 
# From -- ./inp_files/6002.got.cif
#   From: 2010.05.17/outbox.cif.g08.bks.cpg/sg72_4_cif.got.tgz:6002.got - 2010.06.03 17:03:01.
