data_PCOD9526480
_publ_section_title
;
Structure prediction by ZEFSAII (Michael W. Deem and Ramdas Pophale) SiO2 
 PCOD9526480
Probable space group: I B A M
;
_chemical_formula_sum "Si O2"
_cell_formula_units_Z 64
_cell_length_a 25.584704
_cell_length_b 8.152678
_cell_length_c 14.367624
_cell_angle_alpha 90.000000
_cell_angle_beta 90.000000
_cell_angle_gamma 90.000000
_cell_volume 2996.854379
_symmetry_space_group_name_H-M "I B A M"
_symmetry_group_IT_number 72
_symmetry_cell_setting 'orthorhombic'
loop_
_space_group_symop_operation_xyz
x,y,z
-x,-y,z
x,-y,1/2-z
-x,y,1/2-z
-x,-y,-z
x,y,-z
-x,y,1/2+z
x,-y,1/2+z
1/2+x,1/2+y,1/2+z
1/2-x,1/2-y,1/2+z
1/2+x,1/2-y,-z
1/2-x,1/2+y,-z
1/2-x,1/2-y,1/2-z
1/2+x,1/2+y,1/2-z
1/2-x,1/2+y,z
1/2+x,1/2-y,z
loop_
_atom_site_type_symbol
_atom_site_label
_atom_site_fract_x
_atom_site_fract_y
_atom_site_fract_z
Si Si1 0.111944 0.359531 0.307510
Si Si2 0.282206 0.503551 0.000000
Si Si3 0.829095 0.371297 0.000000
Si Si4 0.059381 0.954239 0.110043
Si Si5 0.340287 0.636778 0.826624
O O1 0.082915 0.500000 0.250000
O O2 0.137609 0.400500 0.406638
O O3 0.076606 0.202775 0.330858
O O4 0.156007 0.301940 0.232677
O O5 0.220039 0.507408 0.000000
O O6 0.301478 0.605890 0.089344
O O7 0.308208 0.320492 0.000000
O O8 0.101895 0.094054 0.133226
O O9 0.063759 0.916887 0.000000
O O10 0.000000 0.000000 0.129911
O O11 0.327571 0.500000 0.750000
#
# Coordination Sequence:
#
# PCOD9526480 Si02
#       5
#    16   8   8  16  16
#     4  11  24  42  65 100 140 171 218 279 334 403
#     4  12  24  42  64  94 137 174 236 283 322 402
#     4  12  26  44  62  98 136 180 226 281 332 383
#     4  10  19  41  74  98 127 172 222 272 332 404
#     4  10  20  40  64  91 131 176 219 271 330 395
#
# _framework density 21.355726000000001
#
# number of rings (size 3 to 8) (size 9 to 14) (size 15 to 20)
#    0.000    1.250    7.500    0.000    3.500    6.500 
#    0.000    2.500    0.000    3.000    0.000    0.000 
#    0.000    0.000    0.000    0.000    0.000    0.000 
#
# Total GULP energy -178715.055289 kJ/mol
# GULP energy per Si atom -5584.845478 kJ/mol
# Density = 2.130712 g / cm^3
# Si number density = 21.355726 Si / 1000 Ang^3
#
#
#
# Elastic Constant Matrix: (Units=GPa)
#
#
# Indices 1 2 3 4 5 6 
#
# 1 77.9588 6.4104 27.0275 0.0000 0.0000 0.0000
# 2 6.4104 43.5118 47.0268 0.0000 0.0000 0.0000
# 3 27.0275 47.0268 142.5662 0.0000 0.0000 0.0000
# 4 0.0000 0.0000 0.0000 27.8673 0.0000 0.0000
# 5 0.0000 0.0000 0.0000 0.0000 217.1153 0.0000
# 6 0.0000 0.0000 0.0000 0.0000 0.0000 17.7676
#
#
#
# Elastic Compliance Matrix: (Units=1/GPa)
#
#
# Indices 1 2 3 4 5 6 
#
# 1 0.013772 0.001232 -0.003017 0.000000 0.000000 0.000000
# 2 0.001232 0.035825 -0.012051 0.000000 0.000000 0.000000
# 3 -0.003017 -0.012051 0.011561 0.000000 0.000000 0.000000
# 4 0.000000 0.000000 0.000000 0.035884 0.000000 0.000000
# 5 0.000000 0.000000 0.000000 0.000000 0.004606 0.000000
# 6 0.000000 0.000000 0.000000 0.000000 0.000000 0.056282
#
#
# Mechanical properties :
#
#
# Convention : Reuss Voigt Hill
#
# Bulk Modulus (GPa) = 29.86287 47.21846 38.54066
# Shear Modulus (GPa) = 25.41103 64.78819 45.09961
#
# Velocity S-wave (km/s) = 3.45323 5.51394 4.60045
# Velocity P-wave (km/s) = 5.46933 7.91811 6.80478
#
# Compressibility (1/GPa) = 0.03348640
#
# Stress axis : x y z
#
# Youngs Moduli (GPa) = 72.61085 27.91344 86.49492
#
# Poissons Ratio (x) = -0.03439 0.26098
# Poissons Ratio (y) = -0.08946 1.04233
# Poissons Ratio (z) = 0.21909 0.33638
#
# Static dielectric constant tensor:
#      x y z
#    x 1.750990 0.000000 0.000000 
#    y 0.000000 1.893330 0.000000 
#    z 0.000000 0.000000 1.785050 
# 
# From -- ./inp_files/18697.got.cif
#   From: 2010.05.17/outbox.cif.g08.bks.cpg/sg72_10_cif.got.tgz:18697.got - 2010.06.03 17:03:01.
