data_PCOD9526193
_publ_section_title
;
Structure prediction by ZEFSAII (Michael W. Deem and Ramdas Pophale) SiO2 
 PCOD9526193
Probable space group: I B A M
;
_chemical_formula_sum "Si O2"
_cell_formula_units_Z 104
_cell_length_a 27.326366
_cell_length_b 9.577262
_cell_length_c 20.218275
_cell_angle_alpha 90.000000
_cell_angle_beta 90.000000
_cell_angle_gamma 90.000000
_cell_volume 5291.360470
_symmetry_space_group_name_H-M "I B A M"
_symmetry_group_IT_number 72
_symmetry_cell_setting 'orthorhombic'
loop_
_space_group_symop_operation_xyz
x,y,z
-x,-y,z
x,-y,1/2-z
-x,y,1/2-z
-x,-y,-z
x,y,-z
-x,y,1/2+z
x,-y,1/2+z
1/2+x,1/2+y,1/2+z
1/2-x,1/2-y,1/2+z
1/2+x,1/2-y,-z
1/2-x,1/2+y,-z
1/2-x,1/2-y,1/2-z
1/2+x,1/2+y,1/2-z
1/2-x,1/2+y,z
1/2+x,1/2-y,z
loop_
_atom_site_type_symbol
_atom_site_label
_atom_site_fract_x
_atom_site_fract_y
_atom_site_fract_z
Si Si1 0.954877 0.406859 0.661490
Si Si2 0.192143 0.573307 0.124690
Si Si3 0.768959 0.853466 0.419933
Si Si4 0.536723 0.368269 0.921191
Si Si5 0.907490 0.641399 0.572591
Si Si6 0.621841 0.564321 0.079867
Si Si7 0.372766 0.000000 0.750000
O O1 0.971651 0.264958 0.625589
O O2 0.932366 0.513173 0.607936
O O3 0.911079 0.392449 0.715133
O O4 0.000000 0.500000 0.685533
O O5 0.227348 0.705409 0.116353
O O6 0.223314 0.438569 0.107297
O O7 0.149672 0.601434 0.071389
O O8 0.162426 0.561713 0.193344
O O9 0.765742 0.838365 0.500000
O O10 0.820857 0.929792 0.403829
O O11 0.500000 0.500000 0.912471
O O12 0.590562 0.428878 0.903623
O O13 0.535426 0.332351 0.000000
O O14 0.929076 0.656521 0.500000
O O15 0.905370 0.794993 0.605405
O O16 0.619577 0.576642 0.000000
#
# Coordination Sequence:
#
# PCOD9526193 Si02
#       7
#    16  16  16  16  16  16   8
#     4  11  22  37  60  81 110 155 202 249 293 346
#     4  10  21  37  58  83 117 156 193 240 286 343
#     4  10  19  34  60  91 119 148 186 237 302 355
#     4  10  20  34  57  93 128 151 183 242 314 372
#     4   9  17  32  55  84 117 152 193 241 299 355
#     4   8  16  31  50  79 121 154 176 220 286 356
#     4  10  25  44  58  76 110 160 213 244 274 334
#
# _framework density 19.654681
#
# number of rings (size 3 to 8) (size 9 to 14) (size 15 to 20)
#    0.000    2.308    0.000    3.923    0.000    5.538 
#    0.000    4.615    0.000   22.154    0.000    0.000 
#    0.000    0.000    0.000    0.000    0.000    0.000 
#
# Total GULP energy -289656.547870 kJ/mol
# GULP energy per Si atom -5570.318228 kJ/mol
# Density = 1.960995 g / cm^3
# Si number density = 19.654681 Si / 1000 Ang^3
#
#
#
# Elastic Constant Matrix: (Units=GPa)
#
#
# Indices 1 2 3 4 5 6 
#
# 1 64.0324 51.6301 33.2572 0.0000 0.0000 0.0000
# 2 51.6301 107.5352 50.3603 0.0000 0.0000 0.0000
# 3 33.2572 50.3603 87.3783 0.0000 0.0000 0.0000
# 4 0.0000 0.0000 0.0000 -2.2745 0.0000 0.0000
# 5 0.0000 0.0000 0.0000 0.0000 10.0900 0.0000
# 6 0.0000 0.0000 0.0000 0.0000 0.0000 43.6902
#
#
#
# Elastic Compliance Matrix: (Units=1/GPa)
#
#
# Indices 1 2 3 4 5 6 
#
# 1 0.026349 -0.010895 -0.003750 0.000000 0.000000 0.000000
# 2 -0.010895 0.017242 -0.005791 0.000000 0.000000 0.000000
# 3 -0.003750 -0.005791 0.016209 0.000000 0.000000 0.000000
# 4 0.000000 0.000000 0.000000 -0.439654 0.000000 0.000000
# 5 0.000000 0.000000 0.000000 0.000000 0.099108 0.000000
# 6 0.000000 0.000000 0.000000 0.000000 0.000000 0.022888
#
#
# Mechanical properties :
#
#
# Convention : Reuss Voigt Hill
#
# Bulk Modulus (GPa) = 52.82615 58.82681 55.82648
# Shear Modulus (GPa) = -23.73297 18.54771 -2.59263
#
# Velocity S-wave (km/s) = -3.47868 3.07527 -1.14976
# Velocity P-wave (km/s) = 3.28642 6.52724 5.16747
#
# Compressibility (1/GPa) = 0.01893002
#
# Stress axis : x y z
#
# Youngs Moduli (GPa) = 37.95184 57.99793 61.69385
#
# Poissons Ratio (x) = 0.63188 0.23133
# Poissons Ratio (y) = 0.41348 0.35725
# Poissons Ratio (z) = 0.14230 0.33585
#
# Static dielectric constant tensor:
#      x y z
#    x 1.756410 0.000000 0.000000 
#    y 0.000000 1.722510 0.000000 
#    z 0.000000 0.000000 1.714960 
# 
# From -- ./inp_files/40759.got.cif
#   From: 2010.05.17/outbox.cif.g08.bks.cpg/sg72_21_cif.got.tgz:40759.got - 2010.06.03 17:03:01.
