data_PCOD9526762
_publ_section_title
;
Structure prediction by ZEFSAII (Michael W. Deem and Ramdas Pophale) SiO2 
 PCOD9526762
Probable space group: I B A M
;
_chemical_formula_sum "Si O2"
_cell_formula_units_Z 72
_cell_length_a 13.812915
_cell_length_b 25.402308
_cell_length_c 9.636416
_cell_angle_alpha 90.000000
_cell_angle_beta 90.000000
_cell_angle_gamma 90.000000
_cell_volume 3381.224887
_symmetry_space_group_name_H-M "I B A M"
_symmetry_group_IT_number 72
_symmetry_cell_setting 'orthorhombic'
loop_
_space_group_symop_operation_xyz
x,y,z
-x,-y,z
x,-y,1/2-z
-x,y,1/2-z
-x,-y,-z
x,y,-z
-x,y,1/2+z
x,-y,1/2+z
1/2+x,1/2+y,1/2+z
1/2-x,1/2-y,1/2+z
1/2+x,1/2-y,-z
1/2-x,1/2+y,-z
1/2-x,1/2-y,1/2-z
1/2+x,1/2+y,1/2-z
1/2-x,1/2+y,z
1/2+x,1/2-y,z
loop_
_atom_site_type_symbol
_atom_site_label
_atom_site_fract_x
_atom_site_fract_y
_atom_site_fract_z
Si Si1 0.500000 0.272095 0.750000
Si Si2 0.151072 0.148899 0.651752
Si Si3 0.133859 0.679919 0.343791
Si Si4 0.687739 0.449490 0.163554
Si Si5 0.410682 0.080225 0.837332
O O1 0.436935 0.311003 0.842963
O O2 0.576189 0.233767 0.825228
O O3 0.156764 0.122672 0.500000
O O4 0.250176 0.182218 0.668625
O O5 0.147316 0.104113 0.768539
O O6 0.113729 0.659249 0.500000
O O7 0.102719 0.638838 0.225685
O O8 0.653692 0.500000 0.250000
O O9 0.805041 0.445608 0.179995
O O10 0.666271 0.452959 0.000000
O O11 0.500000 0.057489 0.750000
O O12 0.432849 0.080406 0.000000
#
# Coordination Sequence:
#
# PCOD9526762 Si02
#       5
#     8  16  16  16  16
#     4  12  22  36  63  94 123 164 208 250 300 360
#     4  10  23  41  61  90 126 163 205 253 302 362
#     4  10  21  37  58  86 125 167 205 249 301 358
#     4  10  22  41  64  88 117 157 201 254 313 365
#     4  10  20  34  56  87 122 158 200 247 300 367
#
# _framework density 21.294056999999999
#
# number of rings (size 3 to 8) (size 9 to 14) (size 15 to 20)
#    0.000    1.778    1.111    2.667    0.000    5.778 
#    0.000    7.222    0.000    2.667    0.000    0.000 
#    0.000    0.000    0.000    0.000    0.000    0.000 
#
# Total GULP energy -201024.894969 kJ/mol
# GULP energy per Si atom -5584.024860 kJ/mol
# Density = 2.124559 g / cm^3
# Si number density = 21.294057 Si / 1000 Ang^3
#
#
#
# Elastic Constant Matrix: (Units=GPa)
#
#
# Indices 1 2 3 4 5 6 
#
# 1 48.5580 38.8511 22.6005 0.0000 0.0001 0.0000
# 2 38.8511 116.8338 67.2175 0.0004 0.0000 0.0000
# 3 22.6005 67.2175 148.4974 0.0018 -0.0002 0.0000
# 4 0.0000 0.0004 0.0018 23.3651 0.0000 0.0000
# 5 0.0001 0.0000 -0.0002 0.0000 6.7738 -0.0001
# 6 0.0000 0.0000 0.0000 0.0000 -0.0001 3.1933
#
#
#
# Elastic Compliance Matrix: (Units=1/GPa)
#
#
# Indices 1 2 3 4 5 6 
#
# 1 0.028060 -0.009294 -0.000063 0.000000 0.000000 0.000000
# 2 -0.009294 0.014652 -0.005218 0.000000 0.000000 0.000000
# 3 -0.000063 -0.005218 0.009106 -0.000001 0.000000 0.000000
# 4 0.000000 0.000000 -0.000001 0.042799 0.000000 0.000000
# 5 0.000000 0.000000 0.000000 0.000000 0.147628 0.000003
# 6 0.000000 0.000000 0.000000 0.000000 0.000003 0.313157
#
#
# Mechanical properties :
#
#
# Convention : Reuss Voigt Hill
#
# Bulk Modulus (GPa) = 44.11830 63.46969 53.79400
# Shear Modulus (GPa) = 8.44443 19.01445 13.72944
#
# Velocity S-wave (km/s) = 1.99355 2.99146 2.54196
# Velocity P-wave (km/s) = 5.10515 6.46551 5.82518
#
# Compressibility (1/GPa) = 0.02266633
#
# Stress axis : x y z
#
# Youngs Moduli (GPa) = 35.63815 68.25196 109.82373
#
# Poissons Ratio (x) = 0.63435 0.00697
# Poissons Ratio (y) = 0.33123 0.57301
# Poissons Ratio (z) = 0.00226 0.35611
#
# Static dielectric constant tensor:
#      x y z
#    x 1.792420 0.000000 0.000000 
#    y 0.000000 1.743010 0.000000 
#    z 0.000000 0.000000 1.762670 
# 
# From -- ./inp_files/3700.got.cif
#   From: 2010.05.17/outbox.cif.g08.bks.cpg/sg72_2_cif.got.tgz:3700.got - 2010.06.03 17:03:01.
