data_PCOD9526469
_publ_section_title
;
Structure prediction by ZEFSAII (Michael W. Deem and Ramdas Pophale) SiO2 
 PCOD9526469
Probable space group: I B A M
;
_chemical_formula_sum "Si O2"
_cell_formula_units_Z 68
_cell_length_a 15.800000
_cell_length_b 22.202121
_cell_length_c 10.102883
_cell_angle_alpha 90.000000
_cell_angle_beta 90.000000
_cell_angle_gamma 90.000000
_cell_volume 3544.025807
_symmetry_space_group_name_H-M "I B A M"
_symmetry_group_IT_number 72
_symmetry_cell_setting 'orthorhombic'
loop_
_space_group_symop_operation_xyz
x,y,z
-x,-y,z
x,-y,1/2-z
-x,y,1/2-z
-x,-y,-z
x,y,-z
-x,y,1/2+z
x,-y,1/2+z
1/2+x,1/2+y,1/2+z
1/2-x,1/2-y,1/2+z
1/2+x,1/2-y,-z
1/2-x,1/2+y,-z
1/2-x,1/2-y,1/2-z
1/2+x,1/2+y,1/2-z
1/2-x,1/2+y,z
1/2+x,1/2-y,z
loop_
_atom_site_type_symbol
_atom_site_label
_atom_site_fract_x
_atom_site_fract_y
_atom_site_fract_z
Si Si1 0.000000 0.000000 0.250000
Si Si2 0.141514 0.500000 0.250000
Si Si3 0.574635 0.572780 0.500000
Si Si4 0.500000 0.772418 0.250000
Si Si5 0.760068 0.983111 0.000000
Si Si6 0.959200 0.810265 0.500000
Si Si7 0.616322 0.874291 0.649056
Si Si8 0.283838 0.381515 0.000000
O O1 0.050822 0.959783 0.358838
O O2 0.200715 0.484502 0.373671
O O3 0.095151 0.438219 0.214036
O O4 0.675613 0.571611 0.500000
O O5 0.525721 0.635060 0.500000
O O6 0.476309 0.730545 0.372650
O O7 0.578254 0.817179 0.278861
O O8 0.809514 0.047781 0.000000
O O9 0.865455 0.839820 0.500000
O O10 0.580002 0.874410 0.500000
O O11 0.718260 0.872010 0.622783
#
# Coordination Sequence:
#
# PCOD9526469 Si02
#       8
#     4   8   8   8   8   8  16   8
#     4  10  20  34  56  82 120 166 208 262 310 358
#     4  10  19  39  68  95 125 162 204 264 349 380
#     4  11  22  37  57  93 130 170 216 258 313 366
#     4  12  25  45  64  89 127 172 228 266 302 362
#     4  10  20  35  62  94 131 163 198 265 321 396
#     4  12  25  39  63  92 131 182 221 260 298 375
#     4   9  21  44  64  94 128 157 200 274 319 387
#     4   8  19  42  62  90 128 165 201 260 326 377
#
# _framework density 19.187218999999999
#
# number of rings (size 3 to 8) (size 9 to 14) (size 15 to 20)
#    0.706    1.176    2.353    2.824    0.000    8.000 
#    0.000    3.529    0.000    0.000    0.000    0.000 
#    0.000    0.000    0.000    0.000    0.000    0.000 
#
# Total GULP energy -189440.563165 kJ/mol
# GULP energy per Si atom -5571.781270 kJ/mol
# Density = 1.914355 g / cm^3
# Si number density = 19.187219 Si / 1000 Ang^3
#
#
#
# Elastic Constant Matrix: (Units=GPa)
#
#
# Indices 1 2 3 4 5 6 
#
# 1 92.6560 59.0329 30.9078 0.0000 0.0000 0.0000
# 2 59.0329 142.1672 59.2699 0.0000 0.0000 0.0000
# 3 30.9078 59.2699 144.0950 0.0000 0.0000 0.0000
# 4 0.0000 0.0000 0.0000 43.2533 0.0000 0.0000
# 5 0.0000 0.0000 0.0000 0.0000 -25.6565 0.0000
# 6 0.0000 0.0000 0.0000 0.0000 0.0000 39.2040
#
#
#
# Elastic Compliance Matrix: (Units=1/GPa)
#
#
# Indices 1 2 3 4 5 6 
#
# 1 0.014747 -0.005799 -0.000778 0.000000 0.000000 0.000000
# 2 -0.005799 0.010770 -0.003186 0.000000 0.000000 0.000000
# 3 -0.000778 -0.003186 0.008417 0.000000 0.000000 0.000000
# 4 0.000000 0.000000 0.000000 0.023120 0.000000 0.000000
# 5 0.000000 0.000000 0.000000 0.000000 -0.038976 0.000000
# 6 0.000000 0.000000 0.000000 0.000000 0.000000 0.025508
#
#
# Mechanical properties :
#
#
# Convention : Reuss Voigt Hill
#
# Bulk Modulus (GPa) = 69.40540 75.25993 72.33267
# Shear Modulus (GPa) = 73.62236 26.67400 50.14818
#
# Velocity S-wave (km/s) = 6.20111 3.73258 5.11791
# Velocity P-wave (km/s) = 9.35537 7.60824 8.52667
#
# Compressibility (1/GPa) = 0.01440810
#
# Stress axis : x y z
#
# Youngs Moduli (GPa) = 67.81131 92.84783 118.80337
#
# Poissons Ratio (x) = 0.53844 0.09241
# Poissons Ratio (y) = 0.39325 0.37853
# Poissons Ratio (z) = 0.05274 0.29583
#
# Static dielectric constant tensor:
#      x y z
#    x 1.687340 0.000000 0.000000 
#    y 0.000000 1.658630 0.000000 
#    z 0.000000 0.000000 1.634620 
# 
# From -- ./inp_files/4485.got.cif
#   From: 2010.05.17/outbox.cif.g08.bks.cpg/sg72_3_cif.got.tgz:4485.got - 2010.06.03 17:03:01.
