data_PCOD9526806
_publ_section_title
;
Structure prediction by ZEFSAII (Michael W. Deem and Ramdas Pophale) SiO2 
 PCOD9526806
Probable space group: I B A M
;
_chemical_formula_sum "Si O2"
_cell_formula_units_Z 64
_cell_length_a 16.482781
_cell_length_b 9.425381
_cell_length_c 19.366291
_cell_angle_alpha 90.000000
_cell_angle_beta 90.000000
_cell_angle_gamma 90.000000
_cell_volume 3008.679011
_symmetry_space_group_name_H-M "I B A M"
_symmetry_group_IT_number 72
_symmetry_cell_setting 'orthorhombic'
loop_
_space_group_symop_operation_xyz
x,y,z
-x,-y,z
x,-y,1/2-z
-x,y,1/2-z
-x,-y,-z
x,y,-z
-x,y,1/2+z
x,-y,1/2+z
1/2+x,1/2+y,1/2+z
1/2-x,1/2-y,1/2+z
1/2+x,1/2-y,-z
1/2-x,1/2+y,-z
1/2-x,1/2-y,1/2-z
1/2+x,1/2+y,1/2-z
1/2-x,1/2+y,z
1/2+x,1/2-y,z
loop_
_atom_site_type_symbol
_atom_site_label
_atom_site_fract_x
_atom_site_fract_y
_atom_site_fract_z
Si Si1 0.200889 0.637876 0.655819
Si Si2 0.765556 0.599286 0.000000
Si Si3 0.861937 0.682424 0.500000
Si Si4 0.575646 0.102462 0.352746
Si Si5 0.371890 0.345191 0.765013
O O1 0.199767 0.655577 0.572973
O O2 0.155137 0.488699 0.668748
O O3 0.291538 0.635200 0.686437
O O4 0.156023 0.763511 0.696023
O O5 0.786877 0.431783 0.000000
O O6 0.674316 0.659593 0.000000
O O7 0.912036 0.648832 0.568381
O O8 0.570077 0.240445 0.306250
O O9 0.500000 0.000000 0.344957
O O10 0.403975 0.500000 0.750000
#
# Coordination Sequence:
#
# PCOD9526806 Si02
#       5
#    16   8   8  16  16
#     4  10  21  38  60  92 128 169 213 263 317 387
#     4  10  20  34  62  92 124 162 217 264 320 373
#     4  10  21  38  64  98 125 166 218 270 323 388
#     4  11  23  41  64  93 131 173 211 266 333 391
#     4  11  22  37  62  91 126 168 219 267 316 381
#
# _framework density 21.271792999999999
#
# number of rings (size 3 to 8) (size 9 to 14) (size 15 to 20)
#    0.000    1.500    2.500    4.125    3.500    2.000 
#    0.000    2.500    0.000    0.000    0.000   10.500 
#    0.000    0.000    0.000    0.000    0.000    0.000 
#
# Total GULP energy -178974.962487 kJ/mol
# GULP energy per Si atom -5592.967578 kJ/mol
# Density = 2.122338 g / cm^3
# Si number density = 21.271793 Si / 1000 Ang^3
#
#
#
# Elastic Constant Matrix: (Units=GPa)
#
#
# Indices 1 2 3 4 5 6 
#
# 1 61.4433 37.7880 23.5134 0.0000 0.0000 0.0000
# 2 37.7880 147.5089 65.4563 0.0000 0.0000 0.0000
# 3 23.5134 65.4563 165.6289 0.0000 0.0000 0.0000
# 4 0.0000 0.0000 0.0000 25.5715 0.0000 0.0000
# 5 0.0000 0.0000 0.0000 0.0000 12.7822 0.0000
# 6 0.0000 0.0000 0.0000 0.0000 0.0000 31.3693
#
#
#
# Elastic Compliance Matrix: (Units=1/GPa)
#
#
# Indices 1 2 3 4 5 6 
#
# 1 0.019444 -0.004555 -0.000960 0.000000 0.000000 0.000000
# 2 -0.004555 0.009288 -0.003024 0.000000 0.000000 0.000000
# 3 -0.000960 -0.003024 0.007369 0.000000 0.000000 0.000000
# 4 0.000000 0.000000 0.000000 0.039106 0.000000 0.000000
# 5 0.000000 0.000000 0.000000 0.000000 0.078234 0.000000
# 6 0.000000 0.000000 0.000000 0.000000 0.000000 0.031878
#
#
# Mechanical properties :
#
#
# Convention : Reuss Voigt Hill
#
# Bulk Modulus (GPa) = 52.56899 69.78852 61.17875
# Shear Modulus (GPa) = 23.95348 30.46617 27.20982
#
# Velocity S-wave (km/s) = 3.35933 3.78859 3.58040
# Velocity P-wave (km/s) = 6.30979 7.21229 6.77608
#
# Compressibility (1/GPa) = 0.01902262
#
# Stress axis : x y z
#
# Youngs Moduli (GPa) = 51.42986 107.66613 135.70410
#
# Poissons Ratio (x) = 0.49041 0.13031
# Poissons Ratio (y) = 0.23426 0.41036
# Poissons Ratio (z) = 0.04939 0.32558
#
# Static dielectric constant tensor:
#      x y z
#    x 1.789780 0.000000 0.000000 
#    y 0.000000 1.758300 0.000000 
#    z 0.000000 0.000000 1.770490 
# 
# From -- ./inp_files/38659.got.cif
#   From: 2010.05.17/outbox.cif.g08.bks.cpg/sg72_20_cif.got.tgz:38659.got - 2010.06.03 17:03:01.
