data_PCOD9526697
_publ_section_title
;
Structure prediction by ZEFSAII (Michael W. Deem and Ramdas Pophale) SiO2 
 PCOD9526697
Probable space group: I B A M
;
_chemical_formula_sum "Si O2"
_cell_formula_units_Z 80
_cell_length_a 25.581696
_cell_length_b 9.721179
_cell_length_c 15.514153
_cell_angle_alpha 90.000000
_cell_angle_beta 90.000000
_cell_angle_gamma 90.000000
_cell_volume 3858.125440
_symmetry_space_group_name_H-M "I B A M"
_symmetry_group_IT_number 72
_symmetry_cell_setting 'orthorhombic'
loop_
_space_group_symop_operation_xyz
x,y,z
-x,-y,z
x,-y,1/2-z
-x,y,1/2-z
-x,-y,-z
x,y,-z
-x,y,1/2+z
x,-y,1/2+z
1/2+x,1/2+y,1/2+z
1/2-x,1/2-y,1/2+z
1/2+x,1/2-y,-z
1/2-x,1/2+y,-z
1/2-x,1/2-y,1/2-z
1/2+x,1/2+y,1/2-z
1/2-x,1/2+y,z
1/2+x,1/2-y,z
loop_
_atom_site_type_symbol
_atom_site_label
_atom_site_fract_x
_atom_site_fract_y
_atom_site_fract_z
Si Si1 0.946993 0.921325 0.894875
Si Si2 0.343686 0.889090 0.349982
Si Si3 0.853887 0.900639 0.597153
Si Si4 0.869482 0.310129 0.654735
Si Si5 0.774258 0.105902 0.603344
O O1 0.922793 0.773689 0.865703
O O2 0.902240 0.024610 0.860631
O O3 0.949943 0.913463 0.000000
O O4 0.000000 0.000000 0.867829
O O5 0.360369 0.759727 0.405573
O O6 0.363885 0.845811 0.255579
O O7 0.280775 0.883892 0.349651
O O8 0.363513 0.036097 0.383374
O O9 0.853752 0.955648 0.500000
O O10 0.799281 0.958722 0.630792
O O11 0.819717 0.216738 0.625384
O O12 0.763058 0.113753 0.500000
#
# Coordination Sequence:
#
# PCOD9526697 Si02
#       5
#    16  16  16  16  16
#     4   9  19  39  63  81 101 137 188 242 294 347
#     4  11  21  33  51  80 118 153 184 227 283 341
#     4   9  19  34  54  81 108 141 193 243 280 333
#     4  10  22  36  52  80 115 149 188 233 283 344
#     4  10  20  34  53  78 112 157 199 229 269 332
#
# _framework density 20.735458999999999
#
# number of rings (size 3 to 8) (size 9 to 14) (size 15 to 20)
#    0.000    2.200    0.000    4.200    0.000    9.600 
#    0.000    3.000    0.000    6.000    0.000    0.000 
#    0.000    0.000    0.000    0.000    0.000    0.000 
#
# Total GULP energy -222674.717545 kJ/mol
# GULP energy per Si atom -5566.867939 kJ/mol
# Density = 2.068826 g / cm^3
# Si number density = 20.735459 Si / 1000 Ang^3
#
#
#
# Elastic Constant Matrix: (Units=GPa)
#
#
# Indices 1 2 3 4 5 6 
#
# 1 98.0562 49.8813 27.1264 0.0000 0.0000 0.0000
# 2 49.8813 169.1070 16.0799 0.0000 0.0000 0.0000
# 3 27.1264 16.0799 48.4632 0.0000 0.0000 0.0000
# 4 0.0000 0.0000 0.0000 32.6728 0.0000 0.0000
# 5 0.0000 0.0000 0.0000 0.0000 25.1170 0.0000
# 6 0.0000 0.0000 0.0000 0.0000 0.0000 29.1824
#
#
#
# Elastic Compliance Matrix: (Units=1/GPa)
#
#
# Indices 1 2 3 4 5 6 
#
# 1 0.013761 -0.003435 -0.006563 0.000000 0.000000 0.000000
# 2 -0.003435 0.006964 -0.000388 0.000000 0.000000 0.000000
# 3 -0.006563 -0.000388 0.024436 0.000000 0.000000 0.000000
# 4 0.000000 0.000000 0.000000 0.030607 0.000000 0.000000
# 5 0.000000 0.000000 0.000000 0.000000 0.039814 0.000000
# 6 0.000000 0.000000 0.000000 0.000000 0.000000 0.034267
#
#
# Mechanical properties :
#
#
# Convention : Reuss Voigt Hill
#
# Bulk Modulus (GPa) = 41.00094 55.75574 48.37834
# Shear Modulus (GPa) = 27.97207 32.23035 30.10121
#
# Velocity S-wave (km/s) = 3.67685 3.94681 3.81422
# Velocity P-wave (km/s) = 6.15158 6.90777 6.54061
#
# Compressibility (1/GPa) = 0.02438969
#
# Stress axis : x y z
#
# Youngs Moduli (GPa) = 72.66794 143.60525 40.92275
#
# Poissons Ratio (x) = 0.49330 0.26857
# Poissons Ratio (y) = 0.24962 0.01587
# Poissons Ratio (z) = 0.47691 0.05568
#
# Static dielectric constant tensor:
#      x y z
#    x 1.798320 0.000000 0.000000 
#    y 0.000000 1.816510 0.000000 
#    z 0.000000 0.000000 1.833290 
# 
# From -- ./inp_files/28192.got.cif
#   From: 2010.05.17/outbox.cif.g08.bks.cpg/sg72_15_cif.got.tgz:28192.got - 2010.06.03 17:03:01.
