data_PCOD9526698
_publ_section_title
;
Structure prediction by ZEFSAII (Michael W. Deem and Ramdas Pophale) SiO2 
 PCOD9526698
Probable space group: I B A M
;
_chemical_formula_sum "Si O2"
_cell_formula_units_Z 72
_cell_length_a 16.832624
_cell_length_b 12.591775
_cell_length_c 18.004991
_cell_angle_alpha 90.000000
_cell_angle_beta 90.000000
_cell_angle_gamma 90.000000
_cell_volume 3816.204909
_symmetry_space_group_name_H-M "I B A M"
_symmetry_group_IT_number 72
_symmetry_cell_setting 'orthorhombic'
loop_
_space_group_symop_operation_xyz
x,y,z
-x,-y,z
x,-y,1/2-z
-x,y,1/2-z
-x,-y,-z
x,y,-z
-x,y,1/2+z
x,-y,1/2+z
1/2+x,1/2+y,1/2+z
1/2-x,1/2-y,1/2+z
1/2+x,1/2-y,-z
1/2-x,1/2+y,-z
1/2-x,1/2-y,1/2-z
1/2+x,1/2+y,1/2-z
1/2-x,1/2+y,z
1/2+x,1/2-y,z
loop_
_atom_site_type_symbol
_atom_site_label
_atom_site_fract_x
_atom_site_fract_y
_atom_site_fract_z
Si Si1 0.409602 0.793575 0.734153
Si Si2 0.295490 0.654348 0.168634
Si Si3 0.158235 0.764894 0.912255
Si Si4 0.589316 0.500509 0.912130
Si Si5 0.326572 0.000000 0.250000
O O1 0.500000 0.763062 0.750000
O O2 0.342797 0.712065 0.764867
O O3 0.398209 0.799043 0.644985
O O4 0.385341 0.904497 0.773346
O O5 0.245897 0.736453 0.118029
O O6 0.361236 0.593753 0.122319
O O7 0.233466 0.564690 0.196622
O O8 0.133272 0.887263 0.901047
O O9 0.150840 0.740177 0.000000
O O10 0.500000 0.500000 0.881065
O O11 0.584176 0.483732 0.000000
#
# Coordination Sequence:
#
# PCOD9526698 Si02
#       5
#    16  16  16  16   8
#     4  11  22  37  59  84 112 145 184 230 276 325
#     4  11  20  35  58  82 107 145 190 227 266 327
#     4  10  21  37  56  81 113 147 184 226 275 329
#     4  10  20  34  53  80 114 145 177 226 280 323
#     4  10  21  36  55  78 108 142 180 226 275 318
#
# _framework density 18.866910000000001
#
# number of rings (size 3 to 8) (size 9 to 14) (size 15 to 20)
#    0.000    1.556    0.000    7.667    0.000    0.000 
#    0.000    3.333    0.000   13.333    0.000    0.000 
#    0.000    0.000    0.000    0.000    0.000    0.000 
#
# Total GULP energy -200615.294502 kJ/mol
# GULP energy per Si atom -5572.647070 kJ/mol
# Density = 1.882397 g / cm^3
# Si number density = 18.866910 Si / 1000 Ang^3
#
#
#
# Elastic Constant Matrix: (Units=GPa)
#
#
# Indices 1 2 3 4 5 6 
#
# 1 131.2852 31.4227 57.6904 0.0000 0.0000 0.0000
# 2 31.4227 71.3887 47.6745 0.0000 0.0000 0.0000
# 3 57.6904 47.6745 93.4946 0.0000 0.0000 0.0000
# 4 0.0000 0.0000 0.0000 25.9292 0.0000 0.0000
# 5 0.0000 0.0000 0.0000 0.0000 20.2367 0.0000
# 6 0.0000 0.0000 0.0000 0.0000 0.0000 19.5750
#
#
#
# Elastic Compliance Matrix: (Units=1/GPa)
#
#
# Indices 1 2 3 4 5 6 
#
# 1 0.010460 -0.000446 -0.006227 0.000000 0.000000 0.000000
# 2 -0.000446 0.021260 -0.010566 0.000000 0.000000 0.000000
# 3 -0.006227 -0.010566 0.019926 0.000000 0.000000 0.000000
# 4 0.000000 0.000000 0.000000 0.038567 0.000000 0.000000
# 5 0.000000 0.000000 0.000000 0.000000 0.049415 0.000000
# 6 0.000000 0.000000 0.000000 0.000000 0.000000 0.051086
#
#
# Mechanical properties :
#
#
# Convention : Reuss Voigt Hill
#
# Bulk Modulus (GPa) = 58.24512 63.30487 60.77499
# Shear Modulus (GPa) = 21.65315 23.77358 22.71337
#
# Velocity S-wave (km/s) = 3.39142 3.55359 3.47345
# Velocity P-wave (km/s) = 6.80251 7.10377 6.95478
#
# Compressibility (1/GPa) = 0.01716882
#
# Stress axis : x y z
#
# Youngs Moduli (GPa) = 95.60217 47.03667 50.18580
#
# Poissons Ratio (x) = 0.02096 0.31251
# Poissons Ratio (y) = 0.04260 0.53026
# Poissons Ratio (z) = 0.59532 0.49699
#
# Static dielectric constant tensor:
#      x y z
#    x 1.682780 0.000000 0.000000 
#    y 0.000000 1.679910 0.000000 
#    z 0.000000 0.000000 1.654100 
# 
# From -- ./inp_files/31272.got.cif
#   From: 2010.05.17/outbox.cif.g08.bks.cpg/sg72_16_cif.got.tgz:31272.got - 2010.06.03 17:03:01.
