data_PCOD9526710
_publ_section_title
;
Structure prediction by ZEFSAII (Michael W. Deem and Ramdas Pophale) SiO2 
 PCOD9526710
Probable space group: I B A M
;
_chemical_formula_sum "Si O2"
_cell_formula_units_Z 100
_cell_length_a 19.581650
_cell_length_b 31.581411
_cell_length_c 9.044988
_cell_angle_alpha 90.000000
_cell_angle_beta 90.000000
_cell_angle_gamma 90.000000
_cell_volume 5593.566536
_symmetry_space_group_name_H-M "I B A M"
_symmetry_group_IT_number 72
_symmetry_cell_setting 'orthorhombic'
loop_
_space_group_symop_operation_xyz
x,y,z
-x,-y,z
x,-y,1/2-z
-x,y,1/2-z
-x,-y,-z
x,y,-z
-x,y,1/2+z
x,-y,1/2+z
1/2+x,1/2+y,1/2+z
1/2-x,1/2-y,1/2+z
1/2+x,1/2-y,-z
1/2-x,1/2+y,-z
1/2-x,1/2-y,1/2-z
1/2+x,1/2+y,1/2-z
1/2-x,1/2+y,z
1/2+x,1/2-y,z
loop_
_atom_site_type_symbol
_atom_site_label
_atom_site_fract_x
_atom_site_fract_y
_atom_site_fract_z
Si Si1 0.322656 0.630554 0.819843
Si Si2 0.335995 0.127681 0.822350
Si Si3 0.634055 0.540023 0.334931
Si Si4 0.000000 0.000000 0.750000
Si Si5 0.426495 0.800450 0.823389
Si Si6 0.073718 0.796994 0.322031
Si Si7 0.074026 0.545214 0.821457
O O1 0.243335 0.630370 0.778941
O O2 0.353619 0.585829 0.767804
O O3 0.368800 0.669931 0.770549
O O4 0.325679 0.631213 0.000000
O O5 0.375563 0.165382 0.742794
O O6 0.372301 0.082712 0.788927
O O7 0.340412 0.133098 0.000000
O O8 0.664957 0.500000 0.250000
O O9 0.661728 0.540268 0.500000
O O10 0.553185 0.529414 0.336729
O O11 0.500000 0.807731 0.750000
O O12 0.406921 0.751713 0.788699
O O13 0.431349 0.804689 0.000000
O O14 0.066772 0.800343 0.500000
O O15 0.000000 0.805659 0.250000
O O16 0.093944 0.500000 0.750000
O O17 0.000000 0.555932 0.750000
O O18 0.067512 0.541231 0.000000
#
# Coordination Sequence:
#
# PCOD9526710 Si02
#       7
#    16  16  16   4  16  16  16
#     4   9  19  36  53  74 107 145 176 210 265 318
#     4  10  21  36  55  77 106 144 178 209 256 317
#     4   9  18  31  50  73 100 133 173 216 259 306
#     4   8  18  28  50  76  98 128 176 216 258 304
#     4  10  20  35  56  82 107 134 173 218 263 309
#     4   9  19  35  56  79 105 137 175 220 264 309
#     4  10  20  34  54  79 103 133 171 212 257 305
#
# _framework density 17.877680999999999
#
# number of rings (size 3 to 8) (size 9 to 14) (size 15 to 20)
#    0.480    2.080    0.000    2.160    1.120    4.480 
#    0.000    2.400    0.000    0.000    0.000    0.000 
#    0.000    0.000    0.000    0.000    0.000    0.000 
#
# Total GULP energy -278495.511082 kJ/mol
# GULP energy per Si atom -5569.910222 kJ/mol
# Density = 1.783699 g / cm^3
# Si number density = 17.877681 Si / 1000 Ang^3
#
#
#
# Elastic Constant Matrix: (Units=GPa)
#
#
# Indices 1 2 3 4 5 6 
#
# 1 125.1044 118.2028 36.3442 -0.0001 0.0001 0.0001
# 2 118.2028 166.9943 49.5092 0.0000 -0.0001 0.0000
# 3 36.3442 49.5092 40.4737 -0.0007 -0.0001 0.0000
# 4 -0.0001 0.0000 -0.0007 29.9873 0.0000 0.0000
# 5 0.0001 -0.0001 -0.0001 0.0000 19.3743 0.0000
# 6 0.0001 0.0000 0.0000 0.0000 0.0000 -4.9821
#
#
#
# Elastic Compliance Matrix: (Units=1/GPa)
#
#
# Indices 1 2 3 4 5 6 
#
# 1 0.024171 -0.016748 -0.001218 0.000000 0.000000 0.000000
# 2 -0.016748 0.021000 -0.010649 0.000000 0.000000 0.000000
# 3 -0.001218 -0.010649 0.038828 0.000001 0.000000 0.000000
# 4 0.000000 0.000000 0.000001 0.033347 0.000000 0.000000
# 5 0.000000 0.000000 0.000000 0.000000 0.051615 0.000000
# 6 0.000000 0.000000 0.000000 0.000000 0.000000 -0.200720
#
#
# Mechanical properties :
#
#
# Convention : Reuss Voigt Hill
#
# Bulk Modulus (GPa) = 37.35728 82.29831 59.82779
# Shear Modulus (GPa) = 145.37439 17.44364 81.40902
#
# Velocity S-wave (km/s) = 9.02733 3.12704 6.75541
# Velocity P-wave (km/s) = 11.38412 7.69233 9.71520
#
# Compressibility (1/GPa) = 0.02676854
#
# Stress axis : x y z
#
# Youngs Moduli (GPa) = 41.37192 47.61966 25.75476
#
# Poissons Ratio (x) = 0.79752 0.03138
# Poissons Ratio (y) = 0.69288 0.27426
# Poissons Ratio (z) = 0.05041 0.50710
#
# Static dielectric constant tensor:
#      x y z
#    x 1.598400 0.000000 0.000000 
#    y 0.000000 1.618380 0.000000 
#    z 0.000000 0.000000 1.631640 
# 
# From -- ./inp_files/6364.got.cif
#   From: 2010.05.17/outbox.cif.g08.bks.cpg/sg72_4_cif.got.tgz:6364.got - 2010.06.03 17:03:01.
