data_PCOD9526843
_publ_section_title
;
Structure prediction by ZEFSAII (Michael W. Deem and Ramdas Pophale) SiO2 
 PCOD9526843
Probable space group: I B A M
;
_chemical_formula_sum "Si O2"
_cell_formula_units_Z 112
_cell_length_a 23.520113
_cell_length_b 14.179462
_cell_length_c 16.051163
_cell_angle_alpha 90.000000
_cell_angle_beta 90.000000
_cell_angle_gamma 90.000000
_cell_volume 5353.103767
_symmetry_space_group_name_H-M "I B A M"
_symmetry_group_IT_number 72
_symmetry_cell_setting 'orthorhombic'
loop_
_space_group_symop_operation_xyz
x,y,z
-x,-y,z
x,-y,1/2-z
-x,y,1/2-z
-x,-y,-z
x,y,-z
-x,y,1/2+z
x,-y,1/2+z
1/2+x,1/2+y,1/2+z
1/2-x,1/2-y,1/2+z
1/2+x,1/2-y,-z
1/2-x,1/2+y,-z
1/2-x,1/2-y,1/2-z
1/2+x,1/2+y,1/2-z
1/2-x,1/2+y,z
1/2+x,1/2-y,z
loop_
_atom_site_type_symbol
_atom_site_label
_atom_site_fract_x
_atom_site_fract_y
_atom_site_fract_z
Si Si1 0.281603 0.692492 0.644228
Si Si2 0.443966 0.603211 0.401193
Si Si3 0.381464 0.803308 0.405349
Si Si4 0.482640 0.102397 0.845971
Si Si5 0.174293 0.203987 0.164215
Si Si6 0.664080 0.502175 0.150726
Si Si7 0.949532 0.215406 0.598392
O O1 0.315700 0.780752 0.605922
O O2 0.215543 0.714201 0.631629
O O3 0.303914 0.694869 0.740299
O O4 0.301150 0.589870 0.612656
O O5 0.447271 0.584997 0.500000
O O6 0.409606 0.700977 0.388262
O O7 0.402576 0.525122 0.363252
O O8 0.507504 0.631178 0.373417
O O9 0.393768 0.828796 0.500000
O O10 0.415191 0.878187 0.351079
O O11 0.500000 0.107721 0.750000
O O12 0.515000 0.187557 0.892231
O O13 0.500000 0.000000 0.878855
O O14 0.181254 0.101597 0.121227
O O15 0.107465 0.222863 0.152751
O O16 0.673529 0.500000 0.250000
O O17 0.936316 0.201346 0.500000
#
# Coordination Sequence:
#
# PCOD9526843 Si02
#       7
#    16  16  16  16  16  16  16
#     4   9  19  37  55  75 108 147 189 236 277 329
#     4   8  16  32  53  77 108 142 171 214 279 339
#     4   9  17  32  55  77 102 141 181 220 272 330
#     4  10  20  35  56  82 111 144 185 227 276 335
#     4  10  20  35  55  78 110 147 187 237 284 327
#     4   9  18  34  55  79 105 141 190 231 279 334
#     4  10  21  36  55  82 115 146 179 230 290 339
#
# _framework density 20.922442
#
# number of rings (size 3 to 8) (size 9 to 14) (size 15 to 20)
#    0.000    2.714    0.000    2.143    0.000    4.000 
#    2.571    3.571    0.000    0.000    0.000    0.000 
#    0.000    0.000    0.000    0.000    0.000    0.000 
#
# Total GULP energy -312014.767675 kJ/mol
# GULP energy per Si atom -5571.692280 kJ/mol
# Density = 2.087482 g / cm^3
# Si number density = 20.922442 Si / 1000 Ang^3
#
#
#
# Elastic Constant Matrix: (Units=GPa)
#
#
# Indices 1 2 3 4 5 6 
#
# 1 100.8466 25.0515 14.2133 0.0000 0.0000 0.0000
# 2 25.0515 83.8463 11.4378 0.0000 0.0000 0.0000
# 3 14.2133 11.4378 14.2446 0.0000 0.0000 0.0000
# 4 0.0000 0.0000 0.0000 -63.4600 0.0000 0.0000
# 5 0.0000 0.0000 0.0000 0.0000 -4.3143 0.0000
# 6 0.0000 0.0000 0.0000 0.0000 0.0000 30.4296
#
#
#
# Elastic Compliance Matrix: (Units=1/GPa)
#
#
# Indices 1 2 3 4 5 6 
#
# 1 0.011880 -0.002170 -0.010112 0.000000 0.000000 0.000000
# 2 -0.002170 0.013790 -0.008907 0.000000 0.000000 0.000000
# 3 -0.010112 -0.008907 0.087444 0.000000 0.000000 0.000000
# 4 0.000000 0.000000 0.000000 -0.015758 0.000000 0.000000
# 5 0.000000 0.000000 0.000000 0.000000 -0.231785 0.000000
# 6 0.000000 0.000000 0.000000 0.000000 0.000000 0.032863
#
#
# Mechanical properties :
#
#
# Convention : Reuss Voigt Hill
#
# Bulk Modulus (GPa) = 14.13711 33.37144 23.75427
# Shear Modulus (GPa) = -140.41575 2.41336 -69.00119
#
# Velocity S-wave (km/s) = -8.20111 1.07517 -5.74901
# Velocity P-wave (km/s) = 9.10527 4.18641 5.71752
#
# Compressibility (1/GPa) = 0.07073582
#
# Stress axis : x y z
#
# Youngs Moduli (GPa) = 84.17302 72.51583 11.43588
#
# Poissons Ratio (x) = 0.15737 0.11564
# Poissons Ratio (y) = 0.18267 0.10186
# Poissons Ratio (z) = 0.85113 0.64593
#
# Static dielectric constant tensor:
#      x y z
#    x 1.772320 0.000000 0.000000 
#    y 0.000000 1.774740 0.000000 
#    z 0.000000 0.000000 1.773770 
# 
# From -- ./inp_files/25203.got.cif
#   From: 2010.05.17/outbox.cif.g08.bks.cpg/sg72_13_cif.got.tgz:25203.got - 2010.06.03 17:03:01.
