data_PCOD9526808
_publ_section_title
;
Structure prediction by ZEFSAII (Michael W. Deem and Ramdas Pophale) SiO2 
 PCOD9526808
Probable space group: I B A M
;
_chemical_formula_sum "Si O2"
_cell_formula_units_Z 52
_cell_length_a 13.803897
_cell_length_b 8.815661
_cell_length_c 17.114583
_cell_angle_alpha 90.000000
_cell_angle_beta 90.000000
_cell_angle_gamma 90.000000
_cell_volume 2082.681759
_symmetry_space_group_name_H-M "I B A M"
_symmetry_group_IT_number 72
_symmetry_cell_setting 'orthorhombic'
loop_
_space_group_symop_operation_xyz
x,y,z
-x,-y,z
x,-y,1/2-z
-x,y,1/2-z
-x,-y,-z
x,y,-z
-x,y,1/2+z
x,-y,1/2+z
1/2+x,1/2+y,1/2+z
1/2-x,1/2-y,1/2+z
1/2+x,1/2-y,-z
1/2-x,1/2+y,-z
1/2-x,1/2-y,1/2-z
1/2+x,1/2+y,1/2-z
1/2-x,1/2+y,z
1/2+x,1/2-y,z
loop_
_atom_site_type_symbol
_atom_site_label
_atom_site_fract_x
_atom_site_fract_y
_atom_site_fract_z
Si Si1 0.345199 0.668545 0.650665
Si Si2 0.863555 0.519141 0.161329
Si Si3 0.164730 0.992484 0.500000
Si Si4 0.000000 0.000000 0.750000
Si Si5 0.123026 0.638020 0.500000
O O1 0.236941 0.612508 0.671452
O O2 0.377050 0.574266 0.575092
O O3 0.424336 0.617615 0.712063
O O4 0.342273 0.846672 0.636027
O O5 0.901880 0.500000 0.250000
O O6 0.917705 0.599617 0.087293
O O7 0.148097 0.814828 0.500000
O O8 0.277748 0.040336 0.500000
#
# Coordination Sequence:
#
# PCOD9526808 Si02
#       5
#    16  16   8   4   8
#     4  11  23  41  65  95 126 166 213 257 322 376
#     4  11  21  38  71  94 126 165 213 267 311 372
#     4  10  20  37  65  89 131 165 205 266 314 373
#     4  12  28  38  62  92 132 164 214 256 320 390
#     4  10  20  34  63 106 120 153 218 269 313 367
#
# _framework density 24.967807000000001
#
# number of rings (size 3 to 8) (size 9 to 14) (size 15 to 20)
#    0.000    1.231    1.538    9.231    4.308    0.615 
#    0.000    0.769    0.000    1.846    0.000    0.000 
#    0.000    0.000    0.000    0.000    0.000    0.000 
#
# Total GULP energy -145307.565832 kJ/mol
# GULP energy per Si atom -5588.752532 kJ/mol
# Density = 2.491098 g / cm^3
# Si number density = 24.967807 Si / 1000 Ang^3
#
#
#
# Elastic Constant Matrix: (Units=GPa)
#
#
# Indices 1 2 3 4 5 6 
#
# 1 83.4734 7.8433 4.4692 0.0000 0.0000 0.0000
# 2 7.8433 225.4404 40.3437 0.0000 0.0000 0.0000
# 3 4.4692 40.3437 150.9495 0.0000 0.0000 0.0000
# 4 0.0000 0.0000 0.0000 54.9172 0.0000 0.0000
# 5 0.0000 0.0000 0.0000 0.0000 -105.2342 0.0000
# 6 0.0000 0.0000 0.0000 0.0000 0.0000 2.9742
#
#
#
# Elastic Compliance Matrix: (Units=1/GPa)
#
#
# Indices 1 2 3 4 5 6 
#
# 1 0.012029 -0.000373 -0.000257 0.000000 0.000000 0.000000
# 2 -0.000373 0.004670 -0.001237 0.000000 0.000000 0.000000
# 3 -0.000257 -0.001237 0.006963 0.000000 0.000000 0.000000
# 4 0.000000 0.000000 0.000000 0.018209 0.000000 0.000000
# 5 0.000000 0.000000 0.000000 0.000000 -0.009503 0.000000
# 6 0.000000 0.000000 0.000000 0.000000 0.000000 0.336229
#
#
# Mechanical properties :
#
#
# Convention : Reuss Voigt Hill
#
# Bulk Modulus (GPa) = 50.17775 62.79732 56.48753
# Shear Modulus (GPa) = 13.19355 17.67856 15.43606
#
# Velocity S-wave (km/s) = 2.30124 2.66382 2.48914
# Velocity P-wave (km/s) = 5.21551 5.88788 5.56186
#
# Compressibility (1/GPa) = 0.01992915
#
# Stress axis : x y z
#
# Youngs Moduli (GPa) = 83.13517 214.12742 143.61680
#
# Poissons Ratio (x) = 0.07978 0.03685
# Poissons Ratio (y) = 0.03097 0.17767
# Poissons Ratio (z) = 0.02133 0.26490
#
# Static dielectric constant tensor:
#      x y z
#    x 1.939330 0.000000 0.000000 
#    y 0.000000 1.888470 0.000000 
#    z 0.000000 0.000000 2.171300 
# 
# From -- ./inp_files/38616.got.cif
#   From: 2010.05.17/outbox.cif.g08.bks.cpg/sg72_20_cif.got.tgz:38616.got - 2010.06.03 17:03:01.
