data_PCOD9526305
_publ_section_title
;
Structure prediction by ZEFSAII (Michael W. Deem and Ramdas Pophale) SiO2 
 PCOD9526305
Probable space group: I B A M
;
_chemical_formula_sum "Si O2"
_cell_formula_units_Z 64
_cell_length_a 9.327356
_cell_length_b 11.528672
_cell_length_c 23.981124
_cell_angle_alpha 90.000000
_cell_angle_beta 90.000000
_cell_angle_gamma 90.000000
_cell_volume 2578.738896
_symmetry_space_group_name_H-M "I B A M"
_symmetry_group_IT_number 72
_symmetry_cell_setting 'orthorhombic'
loop_
_space_group_symop_operation_xyz
x,y,z
-x,-y,z
x,-y,1/2-z
-x,y,1/2-z
-x,-y,-z
x,y,-z
-x,y,1/2+z
x,-y,1/2+z
1/2+x,1/2+y,1/2+z
1/2-x,1/2-y,1/2+z
1/2+x,1/2-y,-z
1/2-x,1/2+y,-z
1/2-x,1/2-y,1/2-z
1/2+x,1/2+y,1/2-z
1/2-x,1/2+y,z
1/2+x,1/2-y,z
loop_
_atom_site_type_symbol
_atom_site_label
_atom_site_fract_x
_atom_site_fract_y
_atom_site_fract_z
Si Si1 0.360046 0.335453 0.784551
Si Si2 0.844637 0.741778 0.500000
Si Si3 0.026449 0.313531 0.387136
Si Si4 0.293885 0.511904 0.500000
Si Si5 0.739358 0.968137 0.621279
O O1 0.500000 0.363931 0.750000
O O2 0.250000 0.250000 0.750000
O O3 0.426217 0.264801 0.836478
O O4 0.297782 0.448798 0.816437
O O5 0.941646 0.748053 0.445251
O O6 0.783873 0.611870 0.500000
O O7 0.740189 0.853344 0.500000
O O8 0.129694 0.425057 0.382043
O O9 0.863035 0.354993 0.384987
O O10 0.339480 0.513366 0.433547
#
# Coordination Sequence:
#
# PCOD9526305 Si02
#       5
#    16   8  16   8  16
#     4  12  24  41  64  94 132 182 230 285 345 413
#     4  10  19  35  67 102 134 179 227 296 361 434
#     4  10  21  40  66  95 130 174 232 288 352 419
#     4  10  19  35  67 100 136 173 231 291 360 423
#     4  10  21  40  66  97 128 177 231 289 345 424
#
# _framework density 24.818332000000002
#
# number of rings (size 3 to 8) (size 9 to 14) (size 15 to 20)
#    0.000    1.500    5.000    0.750    0.000    4.000 
#    0.000    2.500    0.000    6.000    0.000    0.000 
#    0.000    0.000    0.000    0.000    0.000    0.375 
#
# Total GULP energy -178193.526757 kJ/mol
# GULP energy per Si atom -5568.547711 kJ/mol
# Density = 2.476184 g / cm^3
# Si number density = 24.818332 Si / 1000 Ang^3
#
#
#
# Elastic Constant Matrix: (Units=GPa)
#
#
# Indices 1 2 3 4 5 6 
#
# 1 91.7241 28.2141 35.0015 0.0000 0.0000 0.0000
# 2 28.2141 41.2094 32.6860 0.0000 0.0000 0.0000
# 3 35.0015 32.6860 174.6166 0.0000 0.0000 0.0000
# 4 0.0000 0.0000 0.0000 29.8501 0.0000 0.0000
# 5 0.0000 0.0000 0.0000 0.0000 -0.0099 0.0000
# 6 0.0000 0.0000 0.0000 0.0000 0.0000 11.8406
#
#
#
# Elastic Compliance Matrix: (Units=1/GPa)
#
#
# Indices 1 2 3 4 5 6 
#
# 1 0.014018 -0.008654 -0.001190 0.000000 0.000000 0.000000
# 2 -0.008654 0.033839 -0.004600 0.000000 0.000000 0.000000
# 3 -0.001190 -0.004600 0.006826 0.000000 0.000000 0.000000
# 4 0.000000 0.000000 0.000000 0.033501 0.000000 0.000000
# 5 0.000000 0.000000 0.000000 0.000000********** 0.000000
# 6 0.000000 0.000000 0.000000 0.000000 0.000000 0.084455
#
#
# Mechanical properties :
#
#
# Convention : Reuss Voigt Hill
#
# Bulk Modulus (GPa) = 38.76400 55.48370 47.12385
# Shear Modulus (GPa) = -0.04961 22.44605 11.19822
#
# Velocity S-wave (km/s) = -0.14154 3.01061 2.12647
# Velocity P-wave (km/s) = 3.95301 5.87278 5.00579
#
# Compressibility (1/GPa) = 0.02579713
#
# Stress axis : x y z
#
# Youngs Moduli (GPa) = 71.33559 29.55130 146.49040
#
# Poissons Ratio (x) = 0.25573 0.17433
# Poissons Ratio (y) = 0.61732 0.67381
# Poissons Ratio (z) = 0.08489 0.13593
#
# Static dielectric constant tensor:
#      x y z
#    x 1.983280 0.000000 0.000000 
#    y 0.000000 1.851440 0.000000 
#    z 0.000000 0.000000 2.009200 
# 
# From -- ./inp_files/42952.got.cif
#   From: 2010.05.17/outbox.cif.g08.bks.cpg/sg72_22_cif.got.tgz:42952.got - 2010.06.03 17:03:01.
