data_PCOD9526437
_publ_section_title
;
Structure prediction by ZEFSAII (Michael W. Deem and Ramdas Pophale) SiO2 
 PCOD9526437
Probable space group: I B A M
;
_chemical_formula_sum "Si O2"
_cell_formula_units_Z 112
_cell_length_a 31.648234
_cell_length_b 11.505466
_cell_length_c 16.335446
_cell_angle_alpha 90.000000
_cell_angle_beta 90.000000
_cell_angle_gamma 90.000000
_cell_volume 5948.188058
_symmetry_space_group_name_H-M "I B A M"
_symmetry_group_IT_number 72
_symmetry_cell_setting 'orthorhombic'
loop_
_space_group_symop_operation_xyz
x,y,z
-x,-y,z
x,-y,1/2-z
-x,y,1/2-z
-x,-y,-z
x,y,-z
-x,y,1/2+z
x,-y,1/2+z
1/2+x,1/2+y,1/2+z
1/2-x,1/2-y,1/2+z
1/2+x,1/2-y,-z
1/2-x,1/2+y,-z
1/2-x,1/2-y,1/2-z
1/2+x,1/2+y,1/2-z
1/2-x,1/2+y,z
1/2+x,1/2-y,z
loop_
_atom_site_type_symbol
_atom_site_label
_atom_site_fract_x
_atom_site_fract_y
_atom_site_fract_z
Si Si1 0.673902 0.948455 0.402460
Si Si2 0.169825 0.181068 0.652905
Si Si3 0.876459 0.756327 0.822999
Si Si4 0.048881 0.637175 0.234172
Si Si5 0.674777 0.571356 0.403840
Si Si6 0.739593 0.770077 0.345386
Si Si7 0.388689 0.150056 0.091641
O O1 0.681299 0.954755 0.500000
O O2 0.640617 0.849368 0.377448
O O3 0.716390 0.894389 0.361722
O O4 0.649369 0.065604 0.374846
O O5 0.153915 0.222948 0.742979
O O6 0.213448 0.233477 0.618683
O O7 0.131852 0.223007 0.595947
O O8 0.178121 0.044474 0.649166
O O9 0.921728 0.718482 0.790371
O O10 0.869450 0.868958 0.878163
O O11 0.055349 0.500000 0.250000
O O12 0.069151 0.650708 0.144525
O O13 0.000000 0.662993 0.250000
O O14 0.677335 0.545906 0.500000
O O15 0.710372 0.667964 0.381666
O O16 0.750000 0.750000 0.250000
O O17 0.397014 0.110847 0.000000
#
# Coordination Sequence:
#
# PCOD9526437 Si02
#       7
#    16  16  16  16  16  16  16
#     4  10  20  36  56  82 117 155 199 244 292 350
#     4  11  23  38  59  81 114 159 210 245 295 349
#     4  10  19  38  61  83 112 154 192 236 294 359
#     4  10  20  37  63  95 122 150 189 242 299 370
#     4  11  24  40  57  82 116 154 203 254 295 347
#     4  11  22  37  56  80 112 153 202 256 293 340
#     4  10  22  39  60  87 124 164 197 243 307 362
#
# _framework density 18.829263999999998
#
# number of rings (size 3 to 8) (size 9 to 14) (size 15 to 20)
#    0.000    1.571    4.286    2.571    2.000    2.286 
#    0.000    2.857    0.000    6.857    0.000    5.000 
#    0.000    0.000    0.000    0.000    0.000    0.000 
#
# Total GULP energy -311965.820797 kJ/mol
# GULP energy per Si atom -5570.818229 kJ/mol
# Density = 1.878641 g / cm^3
# Si number density = 18.829264 Si / 1000 Ang^3
#
#
#
# Elastic Constant Matrix: (Units=GPa)
#
#
# Indices 1 2 3 4 5 6 
#
# 1 134.4763 30.2849 26.7530 0.0000 0.0000 0.0000
# 2 30.2849 61.8218 -1.9604 0.0000 0.0000 0.0000
# 3 26.7530 -1.9604 60.4503 0.0000 0.0000 0.0000
# 4 0.0000 0.0000 0.0000 15.2394 0.0000 0.0000
# 5 0.0000 0.0000 0.0000 0.0000 15.9914 0.0000
# 6 0.0000 0.0000 0.0000 0.0000 0.0000 14.2911
#
#
#
# Elastic Compliance Matrix: (Units=1/GPa)
#
#
# Indices 1 2 3 4 5 6 
#
# 1 0.009353 -0.004718 -0.004292 0.000000 0.000000 0.000000
# 2 -0.004718 0.018572 0.002690 0.000000 0.000000 0.000000
# 3 -0.004292 0.002690 0.018529 0.000000 0.000000 0.000000
# 4 0.000000 0.000000 0.000000 0.065620 0.000000 0.000000
# 5 0.000000 0.000000 0.000000 0.000000 0.062534 0.000000
# 6 0.000000 0.000000 0.000000 0.000000 0.000000 0.069974
#
#
# Mechanical properties :
#
#
# Convention : Reuss Voigt Hill
#
# Bulk Modulus (GPa) = 29.57309 40.76703 35.17006
# Shear Modulus (GPa) = 18.62257 22.54910 20.58583
#
# Velocity S-wave (km/s) = 3.14829 3.46433 3.31008
# Velocity P-wave (km/s) = 5.38104 6.14003 5.77302
#
# Compressibility (1/GPa) = 0.03381452
#
# Stress axis : x y z
#
# Youngs Moduli (GPa) = 106.92228 53.84478 53.96866
#
# Poissons Ratio (x) = 0.25402 0.23164
# Poissons Ratio (y) = 0.50443 -0.14518
# Poissons Ratio (z) = 0.45892 -0.14485
#
# Static dielectric constant tensor:
#      x y z
#    x 1.659150 0.000000 0.000000 
#    y 0.000000 1.707380 0.000000 
#    z 0.000000 0.000000 1.717230 
# 
# From -- ./inp_files/26380.got.cif
#   From: 2010.05.17/outbox.cif.g08.bks.cpg/sg72_14_cif.got.tgz:26380.got - 2010.06.03 17:03:01.
