data_PCOD9526473
_publ_section_title
;
Structure prediction by ZEFSAII (Michael W. Deem and Ramdas Pophale) SiO2 
 PCOD9526473
Probable space group: I B A M
;
_chemical_formula_sum "Si O2"
_cell_formula_units_Z 112
_cell_length_a 11.322455
_cell_length_b 27.003428
_cell_length_c 15.741937
_cell_angle_alpha 90.000000
_cell_angle_beta 90.000000
_cell_angle_gamma 90.000000
_cell_volume 4813.020077
_symmetry_space_group_name_H-M "I B A M"
_symmetry_group_IT_number 72
_symmetry_cell_setting 'orthorhombic'
loop_
_space_group_symop_operation_xyz
x,y,z
-x,-y,z
x,-y,1/2-z
-x,y,1/2-z
-x,-y,-z
x,y,-z
-x,y,1/2+z
x,-y,1/2+z
1/2+x,1/2+y,1/2+z
1/2-x,1/2-y,1/2+z
1/2+x,1/2-y,-z
1/2-x,1/2+y,-z
1/2-x,1/2-y,1/2-z
1/2+x,1/2+y,1/2-z
1/2-x,1/2+y,z
1/2+x,1/2-y,z
loop_
_atom_site_type_symbol
_atom_site_label
_atom_site_fract_x
_atom_site_fract_y
_atom_site_fract_z
Si Si1 0.580022 0.209853 0.594075
Si Si2 0.978235 0.818888 0.902314
Si Si3 0.203160 0.471782 0.161758
Si Si4 0.710925 0.566910 0.595005
Si Si5 0.585223 0.870761 0.667187
Si Si6 0.739099 0.660053 0.708265
Si Si7 0.436117 0.427419 0.901849
O O1 0.630941 0.204791 0.500000
O O2 0.533784 0.265165 0.604694
O O3 0.479684 0.167692 0.605798
O O4 0.677127 0.199766 0.664158
O O5 0.889938 0.825719 0.823116
O O6 0.059181 0.867746 0.898461
O O7 0.927476 0.820365 0.000000
O O8 0.177587 0.500000 0.250000
O O9 0.213285 0.517479 0.098090
O O10 0.115603 0.426813 0.140330
O O11 0.335996 0.448602 0.159423
O O12 0.713043 0.587529 0.500000
O O13 0.757804 0.607038 0.661175
O O14 0.572049 0.556602 0.615337
O O15 0.500000 0.873554 0.750000
O O16 0.709163 0.847106 0.698614
O O17 0.408931 0.441988 0.000000
#
# Coordination Sequence:
#
# PCOD9526473 Si02
#       7
#    16  16  16  16  16  16  16
#     4  10  21  38  63  91 116 155 204 255 304 364
#     4   9  19  37  63  93 123 159 199 248 308 363
#     4  12  23  38  57  87 118 165 198 250 307 361
#     4  10  20  37  61  87 118 161 202 242 298 363
#     4  10  24  43  60  82 120 157 203 256 305 356
#     4  10  19  40  60  83 119 162 200 243 304 373
#     4   9  20  38  60  90 127 155 193 249 303 367
#
# _framework density 23.270212000000001
#
# number of rings (size 3 to 8) (size 9 to 14) (size 15 to 20)
#    0.000    2.000    1.429    3.000    0.000    5.429 
#    0.000    5.714    0.000    2.571    0.000    0.000 
#    0.000    0.000    0.000    0.000    0.000    0.000 
#
# Total GULP energy -312769.748969 kJ/mol
# GULP energy per Si atom -5585.174089 kJ/mol
# Density = 2.321725 g / cm^3
# Si number density = 23.270212 Si / 1000 Ang^3
#
#
#
# Elastic Constant Matrix: (Units=GPa)
#
#
# Indices 1 2 3 4 5 6 
#
# 1 28.3142 4.1400 8.3191 0.0000 0.0000 0.0000
# 2 4.1400 133.3996 3.1188 0.0000 0.0000 0.0000
# 3 8.3191 3.1188 13.4146 0.0001 0.0000 -0.0001
# 4 0.0000 0.0000 0.0001 20.7192 0.0000 0.0000
# 5 0.0000 0.0000 0.0000 0.0000 20.2126 0.0000
# 6 0.0000 0.0000 -0.0001 0.0000 0.0000 24.5259
#
#
#
# Elastic Compliance Matrix: (Units=1/GPa)
#
#
# Indices 1 2 3 4 5 6 
#
# 1 0.043256 -0.000719 -0.026658 0.000000 0.000000 0.000000
# 2 -0.000719 0.007549 -0.001309 0.000000 0.000000 0.000000
# 3 -0.026658 -0.001309 0.091382 -0.000001 0.000000 0.000000
# 4 0.000000 0.000000 -0.000001 0.048264 0.000000 0.000000
# 5 0.000000 0.000000 0.000000 0.000000 0.049474 0.000000
# 6 0.000000 0.000000 0.000000 0.000000 0.000000 0.040773
#
#
# Mechanical properties :
#
#
# Convention : Reuss Voigt Hill
#
# Bulk Modulus (GPa) = 11.79046 22.92047 17.35546
# Shear Modulus (GPa) = 13.64843 23.72825 18.68834
#
# Velocity S-wave (km/s) = 2.42444 3.19671 2.83698
# Velocity P-wave (km/s) = 3.59374 4.84731 4.26681
#
# Compressibility (1/GPa) = 0.08481437
#
# Stress axis : x y z
#
# Youngs Moduli (GPa) = 23.11840 132.46436 10.94307
#
# Poissons Ratio (x) = 0.09527 0.29172
# Poissons Ratio (y) = 0.01663 0.01433
# Poissons Ratio (z) = 0.61629 0.17341
#
# Static dielectric constant tensor:
#      x y z
#    x 1.910160 0.000000 0.000000 
#    y 0.000000 1.875030 0.000000 
#    z 0.000000 0.000000 1.864140 
# 
# From -- ./inp_files/37320.got.cif
#   From: 2010.05.17/outbox.cif.g08.bks.cpg/sg72_19_cif.got.tgz:37320.got - 2010.06.03 17:03:01.
