data_PCOD9526750
_publ_section_title
;
Structure prediction by ZEFSAII (Michael W. Deem and Ramdas Pophale) SiO2 
 PCOD9526750
Probable space group: I B A M
;
_chemical_formula_sum "Si O2"
_cell_formula_units_Z 116
_cell_length_a 21.746887
_cell_length_b 32.674598
_cell_length_c 9.078271
_cell_angle_alpha 90.000000
_cell_angle_beta 90.000000
_cell_angle_gamma 90.000000
_cell_volume 6450.754201
_symmetry_space_group_name_H-M "I B A M"
_symmetry_group_IT_number 72
_symmetry_cell_setting 'orthorhombic'
loop_
_space_group_symop_operation_xyz
x,y,z
-x,-y,z
x,-y,1/2-z
-x,y,1/2-z
-x,-y,-z
x,y,-z
-x,y,1/2+z
x,-y,1/2+z
1/2+x,1/2+y,1/2+z
1/2-x,1/2-y,1/2+z
1/2+x,1/2-y,-z
1/2-x,1/2+y,-z
1/2-x,1/2-y,1/2-z
1/2+x,1/2+y,1/2-z
1/2-x,1/2+y,z
1/2+x,1/2-y,z
loop_
_atom_site_type_symbol
_atom_site_label
_atom_site_fract_x
_atom_site_fract_y
_atom_site_fract_z
Si Si1 0.712758 0.894323 0.822452
Si Si2 0.158480 0.230072 0.669174
Si Si3 0.795940 0.692973 0.169421
Si Si4 0.064681 0.170095 0.172872
Si Si5 0.378199 0.961354 0.664870
Si Si6 0.565802 0.572202 0.324748
Si Si7 0.000000 0.500000 0.750000
Si Si8 0.190540 0.043287 0.678304
O O1 0.708207 0.849079 0.758351
O O2 0.649442 0.918675 0.784658
O O3 0.766358 0.920872 0.745298
O O4 0.721938 0.892900 0.000000
O O5 0.138815 0.235328 0.500000
O O6 0.161183 0.273348 0.752812
O O7 0.227615 0.212289 0.668437
O O8 0.116399 0.197193 0.750762
O O9 0.814268 0.685888 0.000000
O O10 0.075583 0.121356 0.188140
O O11 0.000000 0.179029 0.250000
O O12 0.061904 0.179285 0.000000
O O13 0.356907 0.965872 0.500000
O O14 0.451502 0.969808 0.670828
O O15 0.351768 0.000000 0.750000
O O16 0.500000 0.562628 0.250000
O O17 0.566279 0.561976 0.500000
O O18 0.621358 0.551572 0.236464
O O19 0.193459 0.042609 0.500000
O O20 0.209293 0.000000 0.750000
#
# Coordination Sequence:
#
# PCOD9526750 Si02
#       8
#    16  16  16  16  16  16   4  16
#     4  11  22  37  56  83 115 147 183 229 283 334
#     4  10  20  35  56  81 111 144 182 228 275 327
#     4  10  21  36  56  83 111 145 184 224 277 334
#     4  10  20  34  56  83 112 145 183 227 275 327
#     4   9  19  33  55  81 108 140 178 222 268 320
#     4  10  21  38  59  84 113 149 191 236 281 332
#     4   8  18  36  58  84 110 140 184 220 266 316
#     4  12  25  40  57  81 112 149 190 234 285 338
#
# _framework density 17.982393999999999
#
# number of rings (size 3 to 8) (size 9 to 14) (size 15 to 20)
#    0.414    1.379    0.000    4.759    0.000    8.000 
#    0.000    1.379    1.517    0.000    0.000    0.000 
#    0.000    0.000    0.000    0.000    0.000    0.000 
#
# Total GULP energy -323419.556567 kJ/mol
# GULP energy per Si atom -5576.199251 kJ/mol
# Density = 1.794147 g / cm^3
# Si number density = 17.982394 Si / 1000 Ang^3
#
#
#
# Elastic Constant Matrix: (Units=GPa)
#
#
# Indices 1 2 3 4 5 6 
#
# 1 61.6544 15.4479 32.3112 0.0000 0.0001 0.0000
# 2 15.4479 71.4027 45.8154 0.0000 -0.0001 0.0000
# 3 32.3112 45.8154 138.8280 0.0000 0.0003 0.0000
# 4 0.0000 0.0000 0.0000 29.5918 0.0000 0.0000
# 5 0.0001 -0.0001 0.0003 0.0000 -541.3993 -0.0001
# 6 0.0000 0.0000 0.0000 0.0000 -0.0001 31.3422
#
#
#
# Elastic Compliance Matrix: (Units=1/GPa)
#
#
# Indices 1 2 3 4 5 6 
#
# 1 0.018612 -0.001582 -0.003810 0.000000 0.000000 0.000000
# 2 -0.001582 0.017902 -0.005540 0.000000 0.000000 0.000000
# 3 -0.003810 -0.005540 0.009918 0.000000 0.000000 0.000000
# 4 0.000000 0.000000 0.000000 0.033793 0.000000 0.000000
# 5 0.000000 0.000000 0.000000 0.000000 -0.001847 0.000000
# 6 0.000000 0.000000 0.000000 0.000000 0.000000 0.031906
#
#
# Mechanical properties :
#
#
# Convention : Reuss Voigt Hill
#
# Bulk Modulus (GPa) = 40.70160 51.00379 45.85269
# Shear Modulus (GPa) = 35.62843 -84.20569 -24.28863
#
# Velocity S-wave (km/s) = 4.45600 -6.85043 -3.67916
# Velocity P-wave (km/s) = 7.01127 5.84350 2.73966
#
# Compressibility (1/GPa) = 0.02456906
#
# Stress axis : x y z
#
# Youngs Moduli (GPa) = 53.72742 55.86001 100.82657
#
# Poissons Ratio (x) = 0.08839 0.38412
# Poissons Ratio (y) = 0.08501 0.55854
# Poissons Ratio (z) = 0.20469 0.30944
#
# Static dielectric constant tensor:
#      x y z
#    x 1.621690 0.000000 0.000000 
#    y 0.000000 1.612670 0.000000 
#    z 0.000000 0.000000 1.609940 
# 
# From -- ./inp_files/7363.got.cif
#   From: 2010.05.17/outbox.cif.g08.bks.cpg/sg72_4_cif.got.tgz:7363.got - 2010.06.03 17:03:01.
