data_PCOD9526220
_publ_section_title
;
Structure prediction by ZEFSAII (Michael W. Deem and Ramdas Pophale) SiO2 
 PCOD9526220
Probable space group: I B A M
;
_chemical_formula_sum "Si O2"
_cell_formula_units_Z 116
_cell_length_a 27.366966
_cell_length_b 25.208573
_cell_length_c 8.833294
_cell_angle_alpha 90.000000
_cell_angle_beta 90.000000
_cell_angle_gamma 90.000000
_cell_volume 6093.931946
_symmetry_space_group_name_H-M "I B A M"
_symmetry_group_IT_number 72
_symmetry_cell_setting 'orthorhombic'
loop_
_space_group_symop_operation_xyz
x,y,z
-x,-y,z
x,-y,1/2-z
-x,y,1/2-z
-x,-y,-z
x,y,-z
-x,y,1/2+z
x,-y,1/2+z
1/2+x,1/2+y,1/2+z
1/2-x,1/2-y,1/2+z
1/2+x,1/2-y,-z
1/2-x,1/2+y,-z
1/2-x,1/2-y,1/2-z
1/2+x,1/2+y,1/2-z
1/2-x,1/2+y,z
1/2+x,1/2-y,z
loop_
_atom_site_type_symbol
_atom_site_label
_atom_site_fract_x
_atom_site_fract_y
_atom_site_fract_z
Si Si1 0.399860 0.702729 0.818188
Si Si2 0.696217 0.252564 0.322909
Si Si3 0.052835 0.683850 0.319144
Si Si4 0.278404 0.941224 0.820842
Si Si5 0.070859 0.909614 0.320310
Si Si6 0.854106 0.637061 0.677131
Si Si7 0.182364 0.057775 0.823333
Si Si8 0.500000 0.500000 0.250000
O O1 0.345209 0.709078 0.750077
O O2 0.428661 0.756551 0.781372
O O3 0.432318 0.651704 0.772208
O O4 0.394226 0.698573 0.000000
O O5 0.700877 0.265565 0.500000
O O6 0.750000 0.250000 0.250000
O O7 0.673427 0.193588 0.307793
O O8 0.052152 0.679052 0.500000
O O9 0.092775 0.644983 0.248012
O O10 0.000000 0.675082 0.250000
O O11 0.323044 0.906486 0.764070
O O12 0.227709 0.915477 0.761035
O O13 0.281258 0.000000 0.750000
O O14 0.277045 0.945014 0.000000
O O15 0.056699 0.917684 0.500000
O O16 0.129019 0.917798 0.310773
O O17 0.041652 0.953265 0.223047
O O18 0.856897 0.624149 0.500000
O O19 0.177888 0.000000 0.750000
O O20 0.194918 0.053758 0.000000
#
# Coordination Sequence:
#
# PCOD9526220 Si02
#       8
#    16  16  16  16  16  16  16   4
#     4   9  20  38  56  79 112 152 195 243 298 358
#     4  10  21  36  56  85 118 152 190 236 296 362
#     4  10  20  36  60  86 116 151 194 242 292 352
#     4  11  22  37  59  89 121 156 197 238 287 346
#     4  10  22  38  56  78 108 148 196 251 311 364
#     4  10  21  38  59  85 119 156 194 239 291 349
#     4  10  19  35  54  77 108 146 192 239 293 351
#     4  12  22  40  60  82 112 152 210 268 326 368
#
# _framework density 19.035329000000001
#
# number of rings (size 3 to 8) (size 9 to 14) (size 15 to 20)
#    0.000    1.931    0.690    3.931    2.897    2.207 
#    0.000    2.069    0.000    0.414    0.000    2.897 
#    0.000    0.000    0.000    0.000    0.000    0.000 
#
# Total GULP energy -323295.706390 kJ/mol
# GULP energy per Si atom -5574.063903 kJ/mol
# Density = 1.899200 g / cm^3
# Si number density = 19.035329 Si / 1000 Ang^3
#
#
#
# Elastic Constant Matrix: (Units=GPa)
#
#
# Indices 1 2 3 4 5 6 
#
# 1 139.8855 29.8072 53.2512 0.0000 0.0000 0.0000
# 2 29.8072 54.9553 27.5142 0.0000 0.0000 0.0000
# 3 53.2512 27.5142 81.6153 0.0000 0.0000 0.0000
# 4 0.0000 0.0000 0.0000 10.4492 0.0000 0.0000
# 5 0.0000 0.0000 0.0000 0.0000 19.3411 0.0000
# 6 0.0000 0.0000 0.0000 0.0000 0.0000 22.5942
#
#
#
# Elastic Compliance Matrix: (Units=1/GPa)
#
#
# Indices 1 2 3 4 5 6 
#
# 1 0.009798 -0.002543 -0.005535 0.000000 0.000000 0.000000
# 2 -0.002543 0.022551 -0.005943 0.000000 0.000000 0.000000
# 3 -0.005535 -0.005943 0.017868 0.000000 0.000000 0.000000
# 4 0.000000 0.000000 0.000000 0.095702 0.000000 0.000000
# 5 0.000000 0.000000 0.000000 0.000000 0.051703 0.000000
# 6 0.000000 0.000000 0.000000 0.000000 0.000000 0.044259
#
#
# Mechanical properties :
#
#
# Convention : Reuss Voigt Hill
#
# Bulk Modulus (GPa) = 45.09841 55.28903 50.19372
# Shear Modulus (GPa) = 18.02997 21.53578 19.78287
#
# Velocity S-wave (km/s) = 3.08097 3.36722 3.22727
# Velocity P-wave (km/s) = 6.03323 6.65027 6.34925
#
# Compressibility (1/GPa) = 0.02217373
#
# Stress axis : x y z
#
# Youngs Moduli (GPa) = 102.06419 44.34298 55.96607
#
# Poissons Ratio (x) = 0.11276 0.30980
# Poissons Ratio (y) = 0.25953 0.33263
# Poissons Ratio (z) = 0.56497 0.26355
#
# Static dielectric constant tensor:
#      x y z
#    x 1.691850 0.000000 0.000000 
#    y 0.000000 1.682120 0.000000 
#    z 0.000000 0.000000 1.661380 
# 
# From -- ./inp_files/8421.got.cif
#   From: 2010.05.17/outbox.cif.g08.bks.cpg/sg72_5_cif.got.tgz:8421.got - 2010.06.03 17:03:01.
