data_PCOD9526886
_publ_section_title
;
Structure prediction by ZEFSAII (Michael W. Deem and Ramdas Pophale) SiO2 
 PCOD9526886
Probable space group: I B A M
;
_chemical_formula_sum "Si O2"
_cell_formula_units_Z 112
_cell_length_a 13.525179
_cell_length_b 28.299567
_cell_length_c 16.453979
_cell_angle_alpha 90.000000
_cell_angle_beta 90.000000
_cell_angle_gamma 90.000000
_cell_volume 6297.870857
_symmetry_space_group_name_H-M "I B A M"
_symmetry_group_IT_number 72
_symmetry_cell_setting 'orthorhombic'
loop_
_space_group_symop_operation_xyz
x,y,z
-x,-y,z
x,-y,1/2-z
-x,y,1/2-z
-x,-y,-z
x,y,-z
-x,y,1/2+z
x,-y,1/2+z
1/2+x,1/2+y,1/2+z
1/2-x,1/2-y,1/2+z
1/2+x,1/2-y,-z
1/2-x,1/2+y,-z
1/2-x,1/2-y,1/2-z
1/2+x,1/2+y,1/2-z
1/2-x,1/2+y,z
1/2+x,1/2-y,z
loop_
_atom_site_type_symbol
_atom_site_label
_atom_site_fract_x
_atom_site_fract_y
_atom_site_fract_z
Si Si1 0.489626 0.791053 0.405806
Si Si2 0.235330 0.946326 0.721931
Si Si3 0.179754 0.285426 0.197449
Si Si4 0.921841 0.109775 0.822775
Si Si5 0.144937 0.200414 0.408128
Si Si6 0.902277 0.371174 0.800823
Si Si7 0.439059 0.544752 0.906293
O O1 0.523673 0.792824 0.500000
O O2 0.571859 0.773914 0.340067
O O3 0.404872 0.751460 0.401355
O O4 0.444571 0.841583 0.377841
O O5 0.175599 0.918735 0.794051
O O6 0.330039 0.915973 0.693476
O O7 0.157181 0.947940 0.647914
O O8 0.257463 0.000000 0.750000
O O9 0.250000 0.250000 0.250000
O O10 0.241793 0.296080 0.116770
O O11 0.159816 0.331510 0.251595
O O12 0.899212 0.163270 0.845053
O O13 0.000000 0.106822 0.750000
O O14 0.981508 0.086455 0.896781
O O15 0.131485 0.183536 0.500000
O O16 0.000000 0.384317 0.750000
O O17 0.500000 0.500000 0.872934
O O18 0.413355 0.536806 0.000000
#
# Coordination Sequence:
#
# PCOD9526886 Si02
#       7
#    16  16  16  16  16  16  16
#     4  10  23  40  58  84 121 156 193 246 297 348
#     4  11  21  37  60  87 113 154 201 251 298 357
#     4  11  21  36  60  85 115 151 197 240 287 353
#     4  10  21  33  56  83 120 153 190 238 296 363
#     4  11  22  36  57  86 117 154 194 238 290 351
#     4  10  22  39  61  85 111 157 203 245 295 345
#     4  10  20  35  56  85 120 155 189 238 305 368
#
# _framework density 17.783788999999999
#
# number of rings (size 3 to 8) (size 9 to 14) (size 15 to 20)
#    0.000    1.571    4.286    0.857    2.000    0.857 
#    0.000    0.000    0.000    0.000    0.000    3.000 
#    0.000    0.000    0.000    0.000    0.000    0.000 
#
# Total GULP energy -311921.879834 kJ/mol
# GULP energy per Si atom -5570.033568 kJ/mol
# Density = 1.774331 g / cm^3
# Si number density = 17.783789 Si / 1000 Ang^3
#
#
#
# Elastic Constant Matrix: (Units=GPa)
#
#
# Indices 1 2 3 4 5 6 
#
# 1 94.5267 41.0019 27.4396 0.0000 0.0000 0.0000
# 2 41.0019 74.9828 24.8603 0.0000 0.0000 0.0000
# 3 27.4396 24.8603 63.5149 0.0001 0.0000 0.0000
# 4 0.0000 0.0000 0.0001 23.6558 0.0000 0.0000
# 5 0.0000 0.0000 0.0000 0.0000 22.7969 0.0000
# 6 0.0000 0.0000 0.0000 0.0000 0.0000 36.0442
#
#
#
# Elastic Compliance Matrix: (Units=1/GPa)
#
#
# Indices 1 2 3 4 5 6 
#
# 1 0.014569 -0.006757 -0.003650 0.000000 0.000000 0.000000
# 2 -0.006757 0.018459 -0.004306 0.000000 0.000000 0.000000
# 3 -0.003650 -0.004306 0.019006 0.000000 0.000000 0.000000
# 4 0.000000 0.000000 0.000000 0.042273 0.000000 0.000000
# 5 0.000000 0.000000 0.000000 0.000000 0.043866 0.000000
# 6 0.000000 0.000000 0.000000 0.000000 0.000000 0.027744
#
#
# Mechanical properties :
#
#
# Convention : Reuss Voigt Hill
#
# Bulk Modulus (GPa) = 44.22816 46.62534 45.42675
# Shear Modulus (GPa) = 24.64544 25.81423 25.22984
#
# Velocity S-wave (km/s) = 3.72672 3.81407 3.77065
# Velocity P-wave (km/s) = 6.59104 6.75803 6.67506
#
# Compressibility (1/GPa) = 0.02261003
#
# Stress axis : x y z
#
# Youngs Moduli (GPa) = 68.63792 54.17511 52.61404
#
# Poissons Ratio (x) = 0.36605 0.19202
# Poissons Ratio (y) = 0.46377 0.22655
# Poissons Ratio (z) = 0.25050 0.23327
#
# Static dielectric constant tensor:
#      x y z
#    x 1.620290 0.000000 0.000000 
#    y 0.000000 1.637360 0.000000 
#    z 0.000000 0.000000 1.628110 
# 
# From -- ./inp_files/20701.got.cif
#   From: 2010.05.17/outbox.cif.g08.bks.cpg/sg72_11_cif.got.tgz:20701.got - 2010.06.03 17:03:01.
