data_PCOD9526947
_publ_section_title
;
Structure prediction by ZEFSAII (Michael W. Deem and Ramdas Pophale) SiO2 
 PCOD9526947
Probable space group: I B A M
;
_chemical_formula_sum "Si O2"
_cell_formula_units_Z 80
_cell_length_a 9.282381
_cell_length_b 26.374414
_cell_length_c 14.172501
_cell_angle_alpha 90.000000
_cell_angle_beta 90.000000
_cell_angle_gamma 90.000000
_cell_volume 3469.674271
_symmetry_space_group_name_H-M "I B A M"
_symmetry_group_IT_number 72
_symmetry_cell_setting 'orthorhombic'
loop_
_space_group_symop_operation_xyz
x,y,z
-x,-y,z
x,-y,1/2-z
-x,y,1/2-z
-x,-y,-z
x,y,-z
-x,y,1/2+z
x,-y,1/2+z
1/2+x,1/2+y,1/2+z
1/2-x,1/2-y,1/2+z
1/2+x,1/2-y,-z
1/2-x,1/2+y,-z
1/2-x,1/2-y,1/2-z
1/2+x,1/2+y,1/2-z
1/2-x,1/2+y,z
1/2+x,1/2-y,z
loop_
_atom_site_type_symbol
_atom_site_label
_atom_site_fract_x
_atom_site_fract_y
_atom_site_fract_z
Si Si1 0.564164 0.675688 0.000000
Si Si2 0.520280 0.832431 0.352957
Si Si3 0.315451 0.385138 0.818539
Si Si4 0.828651 0.992652 0.396415
Si Si5 0.154032 0.741087 0.500000
Si Si6 0.769431 0.107234 0.391153
O O1 0.600284 0.643305 0.904731
O O2 0.679544 0.723318 0.000000
O O3 0.406836 0.702287 0.000000
O O4 0.500000 0.810281 0.250000
O O5 0.649858 0.871709 0.340330
O O6 0.580538 0.787112 0.413477
O O7 0.379140 0.860968 0.390355
O O8 0.320910 0.445361 0.828104
O O9 0.345074 0.373576 0.707173
O O10 0.775472 0.975815 0.500000
O O11 0.754892 0.046459 0.375381
O O12 0.000000 0.000000 0.402483
O O13 0.829082 0.107666 0.500000
#
# Coordination Sequence:
#
# PCOD9526947 Si02
#       6
#     8  16  16  16   8  16
#     4  10  22  42  68  93 120 166 208 269 327 372
#     4   9  19  37  63  86 118 156 198 259 312 360
#     4  10  20  38  61  87 123 164 201 250 314 370
#     4  10  21  37  58  86 128 168 206 248 302 367
#     4  10  20  42  65  91 121 157 208 270 319 380
#     4  10  20  35  59  92 118 163 204 245 299 372
#
# _framework density 23.056918
#
# number of rings (size 3 to 8) (size 9 to 14) (size 15 to 20)
#    0.000    2.200    2.000    0.600    0.000    2.400 
#    3.600   14.000    0.000    0.000    0.000    0.000 
#    0.000    0.000    0.000    0.000    0.000    0.000 
#
# Total GULP energy -222982.083997 kJ/mol
# GULP energy per Si atom -5574.552100 kJ/mol
# Density = 2.300444 g / cm^3
# Si number density = 23.056918 Si / 1000 Ang^3
#
#
#
# Elastic Constant Matrix: (Units=GPa)
#
#
# Indices 1 2 3 4 5 6 
#
# 1 46.1342 13.7887 40.3920 0.0000 0.0000 0.0000
# 2 13.7887 88.2508 27.5787 0.0000 0.0000 0.0000
# 3 40.3920 27.5787 187.8806 0.0002 0.0000 0.0000
# 4 0.0000 0.0000 0.0002 9.9740 0.0000 0.0000
# 5 0.0000 0.0000 0.0000 0.0000 32.9768 0.0000
# 6 0.0000 0.0000 0.0000 0.0000 0.0000 26.3045
#
#
#
# Elastic Compliance Matrix: (Units=1/GPa)
#
#
# Indices 1 2 3 4 5 6 
#
# 1 0.027235 -0.002542 -0.005482 0.000000 0.000000 0.000000
# 2 -0.002542 0.012113 -0.001232 0.000000 0.000000 0.000000
# 3 -0.005482 -0.001232 0.006682 0.000000 0.000000 0.000000
# 4 0.000000 0.000000 0.000000 0.100261 0.000000 0.000000
# 5 0.000000 0.000000 0.000000 0.000000 0.030324 0.000000
# 6 0.000000 0.000000 0.000000 0.000000 0.000000 0.038016
#
#
# Mechanical properties :
#
#
# Convention : Reuss Voigt Hill
#
# Bulk Modulus (GPa) = 36.33853 53.97604 45.15729
# Shear Modulus (GPa) = 20.63410 29.88479 25.25944
#
# Velocity S-wave (km/s) = 2.99477 3.60409 3.31346
# Velocity P-wave (km/s) = 5.26809 6.38592 5.85375
#
# Compressibility (1/GPa) = 0.02751900
#
# Stress axis : x y z
#
# Youngs Moduli (GPa) = 36.71685 82.55313 149.65814
#
# Poissons Ratio (x) = 0.20987 0.82044
# Poissons Ratio (y) = 0.09334 0.18431
# Poissons Ratio (z) = 0.20129 0.10167
#
# Static dielectric constant tensor:
#      x y z
#    x 1.920980 0.000000 0.000000 
#    y 0.000000 1.885490 0.000000 
#    z 0.000000 0.000000 1.900500 
# 
# From -- ./inp_files/20247.got.cif
#   From: 2010.05.17/outbox.cif.g08.bks.cpg/sg72_11_cif.got.tgz:20247.got - 2010.06.03 17:03:01.
