data_PCOD9526619
_publ_section_title
;
Structure prediction by ZEFSAII (Michael W. Deem and Ramdas Pophale) SiO2 
 PCOD9526619
Probable space group: I B A M
;
_chemical_formula_sum "Si O2"
_cell_formula_units_Z 112
_cell_length_a 12.386464
_cell_length_b 24.889844
_cell_length_c 15.085772
_cell_angle_alpha 90.000000
_cell_angle_beta 90.000000
_cell_angle_gamma 90.000000
_cell_volume 4650.900614
_symmetry_space_group_name_H-M "I B A M"
_symmetry_group_IT_number 72
_symmetry_cell_setting 'orthorhombic'
loop_
_space_group_symop_operation_xyz
x,y,z
-x,-y,z
x,-y,1/2-z
-x,y,1/2-z
-x,-y,-z
x,y,-z
-x,y,1/2+z
x,-y,1/2+z
1/2+x,1/2+y,1/2+z
1/2-x,1/2-y,1/2+z
1/2+x,1/2-y,-z
1/2-x,1/2+y,-z
1/2-x,1/2-y,1/2-z
1/2+x,1/2+y,1/2-z
1/2-x,1/2+y,z
1/2+x,1/2-y,z
loop_
_atom_site_type_symbol
_atom_site_label
_atom_site_fract_x
_atom_site_fract_y
_atom_site_fract_z
Si Si1 0.735992 0.327874 0.270441
Si Si2 0.445489 0.222496 0.346418
Si Si3 0.463268 0.327378 0.105179
Si Si4 0.991724 0.564345 0.897712
Si Si5 0.943497 0.052026 0.104098
Si Si6 0.145221 0.658018 0.098693
Si Si7 0.726675 0.944670 0.302982
O O1 0.832090 0.307026 0.334667
O O2 0.630050 0.310752 0.324551
O O3 0.779301 0.314163 0.172097
O O4 0.724859 0.392008 0.257779
O O5 0.500000 0.220196 0.250000
O O6 0.444243 0.283568 0.380113
O O7 0.532981 0.190858 0.404335
O O8 0.487119 0.389164 0.130418
O O9 0.430862 0.326418 0.000000
O O10 0.889483 0.575118 0.836723
O O11 0.000000 0.500000 0.892159
O O12 0.098875 0.598366 0.874766
O O13 0.967904 0.577687 0.000000
O O14 0.815325 0.046737 0.120163
O O15 0.963870 0.050808 0.000000
O O16 0.000000 0.000000 0.145899
O O17 0.193082 0.655205 0.000000
O O18 0.717346 0.000000 0.250000
#
# Coordination Sequence:
#
# PCOD9526619 Si02
#       7
#    16  16  16  16  16  16  16
#     4  10  22  40  64  95 133 174 226 279 337 398
#     4  10  21  39  63  91 128 172 217 281 329 395
#     4  10  22  41  68 101 132 175 228 274 341 415
#     4  10  20  33  54  86 125 170 216 265 325 392
#     4   9  20  42  67  91 127 168 214 275 332 395
#     4  10  20  35  59  89 129 178 221 271 334 394
#     4  11  21  35  60  96 126 167 213 267 327 408
#
# _framework density 24.081357000000001
#
# number of rings (size 3 to 8) (size 9 to 14) (size 15 to 20)
#    0.000    2.000    1.429    1.714    0.000    5.714 
#    5.143    0.714    3.143    4.286    0.000    0.000 
#    0.000    0.857    0.000    0.000    0.000    0.000 
#
# Total GULP energy -312511.459610 kJ/mol
# GULP energy per Si atom -5580.561779 kJ/mol
# Density = 2.402655 g / cm^3
# Si number density = 24.081357 Si / 1000 Ang^3
#
#
#
# Elastic Constant Matrix: (Units=GPa)
#
#
# Indices 1 2 3 4 5 6 
#
# 1 70.7885 36.0490 28.1071 0.0000 0.0000 0.0000
# 2 36.0490 149.0956 33.5587 0.0000 0.0000 0.0000
# 3 28.1071 33.5587 85.6085 -0.0001 0.0005 0.0000
# 4 0.0000 0.0000 -0.0001 27.2550 0.0000 0.0000
# 5 0.0000 0.0000 0.0005 0.0000 -181.4479 0.0001
# 6 0.0000 0.0000 0.0000 0.0000 0.0001 22.0560
#
#
#
# Elastic Compliance Matrix: (Units=1/GPa)
#
#
# Indices 1 2 3 4 5 6 
#
# 1 0.017559 -0.003233 -0.004498 0.000000 0.000000 0.000000
# 2 -0.003233 0.007951 -0.002055 0.000000 0.000000 0.000000
# 3 -0.004498 -0.002055 0.013963 0.000000 0.000000 0.000000
# 4 0.000000 0.000000 0.000000 0.036691 0.000000 0.000000
# 5 0.000000 0.000000 0.000000 0.000000 -0.005511 0.000000
# 6 0.000000 0.000000 0.000000 0.000000 0.000000 0.045339
#
#
# Mechanical properties :
#
#
# Convention : Reuss Voigt Hill
#
# Bulk Modulus (GPa) = 50.24757 55.65801 52.95279
# Shear Modulus (GPa) = 35.16211 -12.57553 11.29329
#
# Velocity S-wave (km/s) = 3.82532 -2.28767 2.16791
# Velocity P-wave (km/s) = 6.35782 4.02303 5.32008
#
# Compressibility (1/GPa) = 0.01990146
#
# Stress axis : x y z
#
# Youngs Moduli (GPa) = 56.95130 125.76267 71.61540
#
# Poissons Ratio (x) = 0.40661 0.32209
# Poissons Ratio (y) = 0.18413 0.14720
# Poissons Ratio (z) = 0.25614 0.25850
#
# Static dielectric constant tensor:
#      x y z
#    x 1.931670 0.000000 0.000000 
#    y 0.000000 1.999990 0.000000 
#    z 0.000000 0.000000 1.936580 
# 
# From -- ./inp_files/22156.got.cif
#   From: 2010.05.17/outbox.cif.g08.bks.cpg/sg72_12_cif.got.tgz:22156.got - 2010.06.03 17:03:01.
