data_PCOD9526361
_publ_section_title
;
Structure prediction by ZEFSAII (Michael W. Deem and Ramdas Pophale) SiO2 
 PCOD9526361
Probable space group: I B A M
;
_chemical_formula_sum "Si O2"
_cell_formula_units_Z 112
_cell_length_a 15.124180
_cell_length_b 14.029753
_cell_length_c 22.882583
_cell_angle_alpha 90.000000
_cell_angle_beta 90.000000
_cell_angle_gamma 90.000000
_cell_volume 4855.421185
_symmetry_space_group_name_H-M "I B A M"
_symmetry_group_IT_number 72
_symmetry_cell_setting 'orthorhombic'
loop_
_space_group_symop_operation_xyz
x,y,z
-x,-y,z
x,-y,1/2-z
-x,y,1/2-z
-x,-y,-z
x,y,-z
-x,y,1/2+z
x,-y,1/2+z
1/2+x,1/2+y,1/2+z
1/2-x,1/2-y,1/2+z
1/2+x,1/2-y,-z
1/2-x,1/2+y,-z
1/2-x,1/2-y,1/2-z
1/2+x,1/2+y,1/2-z
1/2-x,1/2+y,z
1/2+x,1/2-y,z
loop_
_atom_site_type_symbol
_atom_site_label
_atom_site_fract_x
_atom_site_fract_y
_atom_site_fract_z
Si Si1 0.691873 0.640024 0.806243
Si Si2 0.235791 0.089565 0.433859
Si Si3 0.202914 0.839851 0.319397
Si Si4 0.500198 0.612724 0.666293
Si Si5 0.933473 0.576070 0.931183
Si Si6 0.016484 0.242121 0.566896
Si Si7 0.715519 0.814340 0.935889
O O1 0.698114 0.580405 0.867142
O O2 0.749270 0.736415 0.814083
O O3 0.722615 0.606167 0.741817
O O4 0.585691 0.657136 0.801893
O O5 0.197177 0.067203 0.500000
O O6 0.333096 0.045077 0.430166
O O7 0.249469 0.204797 0.437592
O O8 0.097015 0.845153 0.322487
O O9 0.240239 0.869879 0.382696
O O10 0.500000 0.500000 0.677255
O O11 0.482134 0.643049 0.599720
O O12 0.948466 0.681529 0.906576
O O13 0.000000 0.500000 0.904480
O O14 0.957749 0.586052 0.000000
O O15 0.996594 0.222856 0.500000
O O16 0.110654 0.296242 0.571619
O O17 0.732237 0.856009 0.000000
#
# Coordination Sequence:
#
# PCOD9526361 Si02
#       7
#    16  16  16  16  16  16  16
#     4  10  21  40  62  91 125 168 225 278 334 399
#     4   9  16  32  57  84 125 168 206 264 330 394
#     4  10  21  39  64  89 123 173 224 274 333 408
#     4  12  25  41  65  96 132 180 234 280 340 414
#     4   9  18  33  59  94 127 169 219 268 336 412
#     4  10  19  36  61  91 134 170 212 281 338 394
#     4   9  17  34  60  89 124 168 209 261 332 395
#
# _framework density 23.066998999999999
#
# number of rings (size 3 to 8) (size 9 to 14) (size 15 to 20)
#    0.000    2.143    2.857    2.143    0.000    3.143 
#    2.571    0.000    0.000    0.000    0.000    1.000 
#    0.000    0.000    0.000    0.000    0.000    0.000 
#
# Total GULP energy -311776.822853 kJ/mol
# GULP energy per Si atom -5567.443265 kJ/mol
# Density = 2.301450 g / cm^3
# Si number density = 23.066999 Si / 1000 Ang^3
#
#
#
# Elastic Constant Matrix: (Units=GPa)
#
#
# Indices 1 2 3 4 5 6 
#
# 1 95.2250 23.6347 24.3824 0.0000 0.0000 0.0000
# 2 23.6347 57.6590 11.9186 0.0000 0.0000 0.0000
# 3 24.3824 11.9186 203.2841 0.0000 0.0000 0.0000
# 4 0.0000 0.0000 0.0000 -32.8023 0.0000 0.0000
# 5 0.0000 0.0000 0.0000 0.0000 55.0511 0.0000
# 6 0.0000 0.0000 0.0000 0.0000 0.0000 28.5857
#
#
#
# Elastic Compliance Matrix: (Units=1/GPa)
#
#
# Indices 1 2 3 4 5 6 
#
# 1 0.011955 -0.004661 -0.001161 0.000000 0.000000 0.000000
# 2 -0.004661 0.019373 -0.000577 0.000000 0.000000 0.000000
# 3 -0.001161 -0.000577 0.005092 0.000000 0.000000 0.000000
# 4 0.000000 0.000000 0.000000 -0.030486 0.000000 0.000000
# 5 0.000000 0.000000 0.000000 0.000000 0.018165 0.000000
# 6 0.000000 0.000000 0.000000 0.000000 0.000000 0.034983
#
#
# Mechanical properties :
#
#
# Convention : Reuss Voigt Hill
#
# Bulk Modulus (GPa) = 42.32930 52.89328 47.61129
# Shear Modulus (GPa) = 62.69306 29.91572 46.30439
#
# Velocity S-wave (km/s) = 5.21897 3.60516 4.48525
# Velocity P-wave (km/s) = 7.39644 6.34899 6.89264
#
# Compressibility (1/GPa) = 0.02362430
#
# Stress axis : x y z
#
# Youngs Moduli (GPa) = 83.64416 51.61817 196.37642
#
# Poissons Ratio (x) = 0.24057 0.22793
# Poissons Ratio (y) = 0.38984 0.11328
# Poissons Ratio (z) = 0.09709 0.02978
#
# Static dielectric constant tensor:
#      x y z
#    x 1.902780 0.000000 0.000000 
#    y 0.000000 1.914160 0.000000 
#    z 0.000000 0.000000 1.965220 
# 
# From -- ./inp_files/48734.got.cif
#   From: 2010.05.17/outbox.cif.g08.bks.cpg/sg72_25_cif.got.tgz:48734.got - 2010.06.03 17:03:01.
