data_PCOD9526325
_publ_section_title
;
Structure prediction by ZEFSAII (Michael W. Deem and Ramdas Pophale) SiO2 
 PCOD9526325
Probable space group: I B A M
;
_chemical_formula_sum "Si O2"
_cell_formula_units_Z 96
_cell_length_a 21.703963
_cell_length_b 6.915574
_cell_length_c 24.823169
_cell_angle_alpha 90.000000
_cell_angle_beta 90.000000
_cell_angle_gamma 90.000000
_cell_volume 3725.842542
_symmetry_space_group_name_H-M "I B A M"
_symmetry_group_IT_number 72
_symmetry_cell_setting 'orthorhombic'
loop_
_space_group_symop_operation_xyz
x,y,z
-x,-y,z
x,-y,1/2-z
-x,y,1/2-z
-x,-y,-z
x,y,-z
-x,y,1/2+z
x,-y,1/2+z
1/2+x,1/2+y,1/2+z
1/2-x,1/2-y,1/2+z
1/2+x,1/2-y,-z
1/2-x,1/2+y,-z
1/2-x,1/2-y,1/2-z
1/2+x,1/2+y,1/2-z
1/2-x,1/2+y,z
1/2+x,1/2-y,z
loop_
_atom_site_type_symbol
_atom_site_label
_atom_site_fract_x
_atom_site_fract_y
_atom_site_fract_z
Si Si1 0.929795 0.831207 0.913875
Si Si2 0.332204 0.205562 0.137074
Si Si3 0.198585 0.152702 0.126085
Si Si4 0.532591 0.794778 0.301830
Si Si5 0.059040 0.279144 0.558493
Si Si6 0.163232 0.232901 0.240406
O O1 0.858412 0.760864 0.908907
O O2 0.956771 0.836777 0.853213
O O3 0.984410 0.700274 0.938699
O O4 0.932252 0.044074 0.939074
O O5 0.269431 0.135379 0.107698
O O6 0.326931 0.437195 0.133150
O O7 0.396566 0.151033 0.107585
O O8 0.327249 0.170939 0.201326
O O9 0.203469 0.250569 0.185621
O O10 0.500000 0.707325 0.250000
O O11 0.600390 0.818775 0.280455
O O12 0.500000 0.000000 0.313806
O O13 0.081663 0.345849 0.500000
O O14 0.159672 0.000000 0.250000
#
# Coordination Sequence:
#
# PCOD9526325 Si02
#       6
#    16  16  16  16  16  16
#     4   9  18  36  58  81 110 152 197 248 296 357
#     4  10  19  36  56  87 117 159 192 249 294 359
#     4   9  19  34  56  87 118 153 199 232 299 357
#     4  10  20  33  48  85 127 157 186 234 300 365
#     4  10  20  37  63  86 105 146 211 264 305 350
#     4   9  18  34  56  80 118 162 204 232 279 365
#
# _framework density 25.765984
#
# number of rings (size 3 to 8) (size 9 to 14) (size 15 to 20)
#    0.000    2.500    0.000    3.500    0.000    3.000 
#   18.000    4.167    0.000    2.000    0.000    0.000 
#    0.000    0.000    0.000    0.000    0.000    0.000 
#
# Total GULP energy -267724.737940 kJ/mol
# GULP energy per Si atom -5577.598707 kJ/mol
# Density = 2.570734 g / cm^3
# Si number density = 25.765984 Si / 1000 Ang^3
#
#
#
# Elastic Constant Matrix: (Units=GPa)
#
#
# Indices 1 2 3 4 5 6 
#
# 1 214.8527 6.6268 55.3478 0.0000 0.0000 0.0000
# 2 6.6268 85.5393 -12.7065 0.0000 0.0000 0.0000
# 3 55.3478 -12.7065 103.9063 0.0000 0.0000 0.0000
# 4 0.0000 0.0000 0.0000 8.3125 0.0000 0.0000
# 5 0.0000 0.0000 0.0000 0.0000 21.4901 0.0000
# 6 0.0000 0.0000 0.0000 0.0000 0.0000 31.9521
#
#
#
# Elastic Compliance Matrix: (Units=1/GPa)
#
#
# Indices 1 2 3 4 5 6 
#
# 1 0.005457 -0.000870 -0.003013 0.000000 0.000000 0.000000
# 2 -0.000870 0.012046 0.001937 0.000000 0.000000 0.000000
# 3 -0.003013 0.001937 0.011466 0.000000 0.000000 0.000000
# 4 0.000000 0.000000 0.000000 0.120301 0.000000 0.000000
# 5 0.000000 0.000000 0.000000 0.000000 0.046533 0.000000
# 6 0.000000 0.000000 0.000000 0.000000 0.000000 0.031297
#
#
# Mechanical properties :
#
#
# Convention : Reuss Voigt Hill
#
# Bulk Modulus (GPa) = 39.88074 55.87051 47.87562
# Shear Modulus (GPa) = 20.88964 36.01960 28.45462
#
# Velocity S-wave (km/s) = 2.85045 3.74298 3.32678
# Velocity P-wave (km/s) = 5.13274 6.35694 5.77736
#
# Compressibility (1/GPa) = 0.02507476
#
# Stress axis : x y z
#
# Youngs Moduli (GPa) = 183.23409 83.01751 87.21372
#
# Poissons Ratio (x) = 0.07226 0.26282
# Poissons Ratio (y) = 0.15949 -0.16891
# Poissons Ratio (z) = 0.55217 -0.16078
#
# Static dielectric constant tensor:
#      x y z
#    x 14.369650 0.000000 0.000000 
#    y 0.000000 2.096050 0.000000 
#    z 0.000000 0.000000 1.640580 
# 
# From -- ./inp_files/49362.got.cif
#   From: 2010.05.17/outbox.cif.g08.bks.cpg/sg72_25_cif.got.tgz:49362.got - 2010.06.03 17:03:01.
