data_PCOD9526553
_publ_section_title
;
Structure prediction by ZEFSAII (Michael W. Deem and Ramdas Pophale) SiO2 
 PCOD9526553
Probable space group: I B A M
;
_chemical_formula_sum "Si O2"
_cell_formula_units_Z 112
_cell_length_a 22.813732
_cell_length_b 12.707462
_cell_length_c 23.390495
_cell_angle_alpha 90.000000
_cell_angle_beta 90.000000
_cell_angle_gamma 90.000000
_cell_volume 6781.012856
_symmetry_space_group_name_H-M "I B A M"
_symmetry_group_IT_number 72
_symmetry_cell_setting 'orthorhombic'
loop_
_space_group_symop_operation_xyz
x,y,z
-x,-y,z
x,-y,1/2-z
-x,y,1/2-z
-x,-y,-z
x,y,-z
-x,y,1/2+z
x,-y,1/2+z
1/2+x,1/2+y,1/2+z
1/2-x,1/2-y,1/2+z
1/2+x,1/2-y,-z
1/2-x,1/2+y,-z
1/2-x,1/2-y,1/2-z
1/2+x,1/2+y,1/2-z
1/2-x,1/2+y,z
1/2+x,1/2-y,z
loop_
_atom_site_type_symbol
_atom_site_label
_atom_site_fract_x
_atom_site_fract_y
_atom_site_fract_z
Si Si1 0.668641 0.274157 0.794106
Si Si2 0.955729 0.255773 0.875469
Si Si3 0.903905 0.459550 0.184663
Si Si4 0.937743 0.880092 0.727012
Si Si5 0.222555 0.403439 0.711738
Si Si6 0.915112 0.333584 0.618483
Si Si7 0.918257 0.584679 0.000000
Si Si8 0.055878 0.344908 0.500000
O O1 0.619433 0.330158 0.755657
O O2 0.720738 0.349657 0.815249
O O3 0.695741 0.183123 0.754646
O O4 0.634565 0.221329 0.845440
O O5 0.933759 0.350897 0.834121
O O6 0.937994 0.150056 0.840637
O O7 0.933640 0.281295 0.940440
O O8 0.025945 0.265068 0.880361
O O9 0.911729 0.500000 0.250000
O O10 0.833659 0.443474 0.176231
O O11 0.928833 0.553016 0.146301
O O12 0.000000 0.834177 0.750000
O O13 0.937555 0.000000 0.750000
O O14 0.244044 0.500000 0.750000
O O15 0.893572 0.361474 0.555897
O O16 0.911839 0.458362 0.000000
O O17 0.987563 0.617306 0.000000
#
# Coordination Sequence:
#
# PCOD9526553 Si02
#       8
#    16  16  16  16  16  16   8   8
#     4  11  20  33  52  74 102 142 174 217 276 322
#     4  11  20  33  53  81 117 142 173 217 270 335
#     4  11  19  30  49  82 112 137 168 217 273 329
#     4  11  22  35  52  78 110 136 179 228 275 319
#     4  10  20  33  48  76 106 134 177 217 270 325
#     4  11  19  32  52  78 112 142 172 212 271 328
#     4   9  18  30  48  80 111 144 172 208 261 331
#     4   9  18  32  50  79 114 149 171 206 266 328
#
# _framework density 16.516707
#
# number of rings (size 3 to 8) (size 9 to 14) (size 15 to 20)
#    0.000    1.429    7.143    0.857    0.000    0.571 
#    0.000    0.000    0.000    4.286    0.000    0.000 
#    0.000    0.000    0.000    0.000    0.000    0.000 
#
# Total GULP energy -311885.508355 kJ/mol
# GULP energy per Si atom -5569.384078 kJ/mol
# Density = 1.647911 g / cm^3
# Si number density = 16.516707 Si / 1000 Ang^3
#
#
#
# Elastic Constant Matrix: (Units=GPa)
#
#
# Indices 1 2 3 4 5 6 
#
# 1 57.0589 19.3688 22.7017 0.0000 0.0000 0.0000
# 2 19.3688 74.8396 34.0042 0.0000 0.0000 0.0000
# 3 22.7017 34.0042 101.8138 0.0000 0.0000 0.0000
# 4 0.0000 0.0000 0.0000 18.5888 0.0000 0.0000
# 5 0.0000 0.0000 0.0000 0.0000 9.4388 0.0000
# 6 0.0000 0.0000 0.0000 0.0000 0.0000 13.7089
#
#
#
# Elastic Compliance Matrix: (Units=1/GPa)
#
#
# Indices 1 2 3 4 5 6 
#
# 1 0.020077 -0.003728 -0.003232 0.000000 0.000000 0.000000
# 2 -0.003728 0.016444 -0.004661 0.000000 0.000000 0.000000
# 3 -0.003232 -0.004661 0.012099 0.000000 0.000000 0.000000
# 4 0.000000 0.000000 0.000000 0.053796 0.000000 0.000000
# 5 0.000000 0.000000 0.000000 0.000000 0.105946 0.000000
# 6 0.000000 0.000000 0.000000 0.000000 0.000000 0.072945
#
#
# Mechanical properties :
#
#
# Convention : Reuss Voigt Hill
#
# Bulk Modulus (GPa) = 39.40137 42.87353 41.13745
# Shear Modulus (GPa) = 15.97404 18.85647 17.41525
#
# Velocity S-wave (km/s) = 3.11327 3.38251 3.25068
# Velocity P-wave (km/s) = 6.06881 6.42411 6.24899
#
# Compressibility (1/GPa) = 0.02537983
#
# Stress axis : x y z
#
# Youngs Moduli (GPa) = 49.80860 60.81087 82.65063
#
# Poissons Ratio (x) = 0.22668 0.26709
# Poissons Ratio (y) = 0.18567 0.38524
# Poissons Ratio (z) = 0.16096 0.28344
#
# Static dielectric constant tensor:
#      x y z
#    x 1.581270 0.000000 0.000000 
#    y 0.000000 1.592090 0.000000 
#    z 0.000000 0.000000 1.604330 
# 
# From -- ./inp_files/45769.got.cif
#   From: 2010.05.17/outbox.cif.g08.bks.cpg/sg72_23_cif.got.tgz:45769.got - 2010.06.03 17:03:01.
