data_PCOD9526564
_publ_section_title
;
Structure prediction by ZEFSAII (Michael W. Deem and Ramdas Pophale) SiO2 
 PCOD9526564
Probable space group: I B A M
;
_chemical_formula_sum "Si O2"
_cell_formula_units_Z 80
_cell_length_a 18.201003
_cell_length_b 29.032387
_cell_length_c 8.811281
_cell_angle_alpha 90.000000
_cell_angle_beta 90.000000
_cell_angle_gamma 90.000000
_cell_volume 4656.044443
_symmetry_space_group_name_H-M "I B A M"
_symmetry_group_IT_number 72
_symmetry_cell_setting 'orthorhombic'
loop_
_space_group_symop_operation_xyz
x,y,z
-x,-y,z
x,-y,1/2-z
-x,y,1/2-z
-x,-y,-z
x,y,-z
-x,y,1/2+z
x,-y,1/2+z
1/2+x,1/2+y,1/2+z
1/2-x,1/2-y,1/2+z
1/2+x,1/2-y,-z
1/2-x,1/2+y,-z
1/2-x,1/2-y,1/2-z
1/2+x,1/2+y,1/2-z
1/2-x,1/2+y,z
1/2+x,1/2-y,z
loop_
_atom_site_type_symbol
_atom_site_label
_atom_site_fract_x
_atom_site_fract_y
_atom_site_fract_z
Si Si1 0.238736 0.948891 0.318512
Si Si2 0.927571 0.051376 0.680782
Si Si3 0.579911 0.211259 0.182151
Si Si4 0.790304 0.640819 0.818019
Si Si5 0.691179 0.714139 0.682545
O O1 0.246519 0.951191 0.500000
O O2 0.154782 0.932243 0.284914
O O3 0.291430 0.910537 0.247463
O O4 0.248284 0.000000 0.250000
O O5 0.936075 0.049231 0.500000
O O6 0.000000 0.075208 0.750000
O O7 0.926989 0.000000 0.750000
O O8 0.500000 0.204180 0.250000
O O9 0.639268 0.172029 0.228150
O O10 0.614120 0.261466 0.222411
O O11 0.575727 0.209499 0.000000
O O12 0.717866 0.666489 0.753377
O O13 0.787137 0.640235 0.000000
O O14 0.696523 0.711875 0.500000
O O15 0.750000 0.750000 0.750000
#
# Coordination Sequence:
#
# PCOD9526564 Si02
#       5
#    16  16  16  16  16
#     4  10  20  33  50  73 100 135 176 218 259 303
#     4   9  16  26  42  63  87 116 154 196 242 290
#     4   9  19  33  52  78 105 132 165 204 250 305
#     4  10  20  34  52  76 103 134 172 212 253 302
#     4   9  17  31  50  74 101 129 162 200 244 298
#
# _framework density 17.181965999999999
#
# number of rings (size 3 to 8) (size 9 to 14) (size 15 to 20)
#    0.000    2.600    0.000    4.200    0.000    7.200 
#    0.000    1.000    0.000    0.600    0.000    4.200 
#    0.000    0.000    0.000    0.000    0.000    0.000 
#
# Total GULP energy -222675.813607 kJ/mol
# GULP energy per Si atom -5566.895340 kJ/mol
# Density = 1.714286 g / cm^3
# Si number density = 17.181966 Si / 1000 Ang^3
#
#
#
# Elastic Constant Matrix: (Units=GPa)
#
#
# Indices 1 2 3 4 5 6 
#
# 1 101.5082 50.8988 36.7739 0.0000 0.0000 0.0000
# 2 50.8988 107.9845 35.7120 0.0000 0.0000 0.0000
# 3 36.7739 35.7120 52.2924 -0.0002 0.0000 -0.0001
# 4 0.0000 0.0000 -0.0002 25.7523 0.0000 0.0000
# 5 0.0000 0.0000 0.0000 0.0000 26.8037 0.0000
# 6 0.0000 0.0000 -0.0001 0.0000 0.0000 19.6806
#
#
#
# Elastic Compliance Matrix: (Units=1/GPa)
#
#
# Indices 1 2 3 4 5 6 
#
# 1 0.014772 -0.004556 -0.007277 0.000000 0.000000 0.000000
# 2 -0.004556 0.013368 -0.005925 0.000000 0.000000 0.000000
# 3 -0.007277 -0.005925 0.028287 0.000000 0.000000 0.000000
# 4 0.000000 0.000000 0.000000 0.038832 0.000000 0.000000
# 5 0.000000 0.000000 0.000000 0.000000 0.037308 0.000000
# 6 0.000000 0.000000 0.000000 0.000000 0.000000 0.050811
#
#
# Mechanical properties :
#
#
# Convention : Reuss Voigt Hill
#
# Bulk Modulus (GPa) = 47.82254 56.50606 52.16430
# Shear Modulus (GPa) = 22.13717 23.67401 22.90559
#
# Velocity S-wave (km/s) = 3.59332 3.71595 3.65515
# Velocity P-wave (km/s) = 6.71635 7.16724 6.94545
#
# Compressibility (1/GPa) = 0.02091064
#
# Stress axis : x y z
#
# Youngs Moduli (GPa) = 67.69416 74.80685 35.35221
#
# Poissons Ratio (x) = 0.34086 0.25725
# Poissons Ratio (y) = 0.30845 0.20946
# Poissons Ratio (z) = 0.49259 0.44323
#
# Static dielectric constant tensor:
#      x y z
#    x 1.606950 0.000000 0.000000 
#    y 0.000000 1.560600 0.000000 
#    z 0.000000 0.000000 1.567480 
# 
# From -- ./inp_files/4804.got.cif
#   From: 2010.05.17/outbox.cif.g08.bks.cpg/sg72_3_cif.got.tgz:4804.got - 2010.06.03 17:03:01.
