data_PCOD9526226
_publ_section_title
;
Structure prediction by ZEFSAII (Michael W. Deem and Ramdas Pophale) SiO2 
 PCOD9526226
Probable space group: I B A M
;
_chemical_formula_sum "Si O2"
_cell_formula_units_Z 96
_cell_length_a 25.438152
_cell_length_b 8.347693
_cell_length_c 25.288787
_cell_angle_alpha 90.000000
_cell_angle_beta 90.000000
_cell_angle_gamma 90.000000
_cell_volume 5370.070970
_symmetry_space_group_name_H-M "I B A M"
_symmetry_group_IT_number 72
_symmetry_cell_setting 'orthorhombic'
loop_
_space_group_symop_operation_xyz
x,y,z
-x,-y,z
x,-y,1/2-z
-x,y,1/2-z
-x,-y,-z
x,y,-z
-x,y,1/2+z
x,-y,1/2+z
1/2+x,1/2+y,1/2+z
1/2-x,1/2-y,1/2+z
1/2+x,1/2-y,-z
1/2-x,1/2+y,-z
1/2-x,1/2-y,1/2-z
1/2+x,1/2+y,1/2-z
1/2-x,1/2+y,z
1/2+x,1/2-y,z
loop_
_atom_site_type_symbol
_atom_site_label
_atom_site_fract_x
_atom_site_fract_y
_atom_site_fract_z
Si Si1 0.180337 0.147382 0.680544
Si Si2 0.309230 0.756139 0.061518
Si Si3 0.109616 0.881668 0.373207
Si Si4 0.269904 0.955740 0.369881
Si Si5 0.500000 0.745636 0.250000
Si Si6 0.618909 0.824435 0.730388
Si Si7 0.000000 0.000000 0.842425
O O1 0.235148 0.046947 0.675321
O O2 0.194166 0.317380 0.654118
O O3 0.151838 0.194056 0.735285
O O4 0.140046 0.039524 0.647213
O O5 0.366517 0.683277 0.072753
O O6 0.300928 0.917517 0.094776
O O7 0.270041 0.631315 0.089877
O O8 0.298150 0.776902 0.000000
O O9 0.122387 0.743677 0.329279
O O10 0.049043 0.930947 0.374056
O O11 0.555687 0.827005 0.261231
O O12 0.485253 0.639481 0.301121
O O13 0.637616 0.000000 0.750000
#
# Coordination Sequence:
#
# PCOD9526226 Si02
#       7
#    16  16  16  16   8  16   8
#     4  10  19  36  53  77 109 140 176 214 263 323
#     4  10  19  35  55  78 103 137 181 228 273 319
#     4  10  20  34  54  77 106 142 178 223 270 318
#     4   9  20  35  55  78 106 139 179 219 270 321
#     4   9  17  30  52  76 104 144 176 212 264 314
#     4  11  20  32  51  78 112 139 176 218 264 324
#     4   9  16  32  53  76 104 138 179 216 263 314
#
# _framework density 17.876857999999999
#
# number of rings (size 3 to 8) (size 9 to 14) (size 15 to 20)
#    0.000    2.167    1.667    2.250    0.000    0.000 
#    0.000   22.083    0.000    0.000    0.000    1.167 
#    0.000    0.000    0.000    0.000    0.000    0.000 
#
# Total GULP energy -267273.872596 kJ/mol
# GULP energy per Si atom -5568.205679 kJ/mol
# Density = 1.783617 g / cm^3
# Si number density = 17.876858 Si / 1000 Ang^3
#
#
#
# Elastic Constant Matrix: (Units=GPa)
#
#
# Indices 1 2 3 4 5 6 
#
# 1 58.7817 24.1072 35.5245 0.0000 0.0000 0.0000
# 2 24.1072 97.4277 17.6646 0.0000 0.0000 0.0000
# 3 35.5245 17.6646 49.7151 0.0000 0.0000 0.0000
# 4 0.0000 0.0000 0.0000 8.7060 0.0000 0.0000
# 5 0.0000 0.0000 0.0000 0.0000 19.6511 0.0000
# 6 0.0000 0.0000 0.0000 0.0000 0.0000 39.8494
#
#
#
# Elastic Compliance Matrix: (Units=1/GPa)
#
#
# Indices 1 2 3 4 5 6 
#
# 1 0.031299 -0.003944 -0.020964 0.000000 0.000000 0.000000
# 2 -0.003944 0.011468 -0.001257 0.000000 0.000000 0.000000
# 3 -0.020964 -0.001257 0.035541 0.000000 0.000000 0.000000
# 4 0.000000 0.000000 0.000000 0.114863 0.000000 0.000000
# 5 0.000000 0.000000 0.000000 0.000000 0.050888 0.000000
# 6 0.000000 0.000000 0.000000 0.000000 0.000000 0.025094
#
#
# Mechanical properties :
#
#
# Convention : Reuss Voigt Hill
#
# Bulk Modulus (GPa) = 38.49192 40.05745 39.27469
# Shear Modulus (GPa) = 15.14510 22.21653 18.68081
#
# Velocity S-wave (km/s) = 2.91381 3.52910 3.23611
# Velocity P-wave (km/s) = 5.73575 6.24997 5.99837
#
# Compressibility (1/GPa) = 0.02597948
#
# Stress axis : x y z
#
# Youngs Moduli (GPa) = 31.95027 87.20172 28.13659
#
# Poissons Ratio (x) = 0.34388 0.58984
# Poissons Ratio (y) = 0.12600 0.03536
# Poissons Ratio (z) = 0.66979 0.10959
#
# Static dielectric constant tensor:
#      x y z
#    x 1.629810 0.000000 0.000000 
#    y 0.000000 1.638050 0.000000 
#    z 0.000000 0.000000 1.584330 
# 
# From -- ./inp_files/45919.got.cif
#   From: 2010.05.17/outbox.cif.g08.bks.cpg/sg72_23_cif.got.tgz:45919.got - 2010.06.03 17:03:01.
