data_PCOD9526548
_publ_section_title
;
Structure prediction by ZEFSAII (Michael W. Deem and Ramdas Pophale) SiO2 
 PCOD9526548
Probable space group: I B A M
;
_chemical_formula_sum "Si O2"
_cell_formula_units_Z 80
_cell_length_a 13.598325
_cell_length_b 28.571205
_cell_length_c 9.082973
_cell_angle_alpha 90.000000
_cell_angle_beta 90.000000
_cell_angle_gamma 90.000000
_cell_volume 3528.921495
_symmetry_space_group_name_H-M "I B A M"
_symmetry_group_IT_number 72
_symmetry_cell_setting 'orthorhombic'
loop_
_space_group_symop_operation_xyz
x,y,z
-x,-y,z
x,-y,1/2-z
-x,y,1/2-z
-x,-y,-z
x,y,-z
-x,y,1/2+z
x,-y,1/2+z
1/2+x,1/2+y,1/2+z
1/2-x,1/2-y,1/2+z
1/2+x,1/2-y,-z
1/2-x,1/2+y,-z
1/2-x,1/2-y,1/2-z
1/2+x,1/2+y,1/2-z
1/2-x,1/2+y,z
1/2+x,1/2-y,z
loop_
_atom_site_type_symbol
_atom_site_label
_atom_site_fract_x
_atom_site_fract_y
_atom_site_fract_z
Si Si1 0.309792 0.452772 0.178360
Si Si2 0.123855 0.657308 0.337971
Si Si3 0.900429 0.568101 0.672442
Si Si4 0.351988 0.738722 0.830398
Si Si5 0.861456 0.148090 0.834695
O O1 0.351092 0.500000 0.250000
O O2 0.198832 0.447666 0.243780
O O3 0.369254 0.405401 0.219331
O O4 0.305342 0.454978 0.000000
O O5 0.091550 0.638930 0.500000
O O6 0.097198 0.624117 0.203077
O O7 0.093981 0.711278 0.324177
O O8 0.242827 0.654906 0.343618
O O9 0.895868 0.556891 0.500000
O O10 0.000000 0.550617 0.750000
O O11 0.250000 0.750000 0.750000
O O12 0.395420 0.691973 0.760165
O O13 0.331485 0.728781 0.000000
O O14 0.901704 0.151468 0.000000
#
# Coordination Sequence:
#
# PCOD9526548 Si02
#       5
#    16  16  16  16  16
#     4  10  20  33  45  58  75  97 128 166 202 235
#     4   8  15  27  39  55  77  97 119 151 186 223
#     4  11  21  32  45  58  73  97 128 164 202 238
#     4   9  15  22  36  56  77  97 117 143 178 221
#     4   8  15  26  39  55  76  96 117 149 186 224
#
# _framework density 22.669815
#
# number of rings (size 3 to 8) (size 9 to 14) (size 15 to 20)
#    0.000    2.800    0.000    5.400    0.000    9.200 
#    0.000    2.000    0.000    0.000    0.000    0.000 
#    0.000    0.000    0.000    0.000    0.000    1.000 
#
# Total GULP energy -223116.167321 kJ/mol
# GULP energy per Si atom -5577.904183 kJ/mol
# Density = 2.261822 g / cm^3
# Si number density = 22.669815 Si / 1000 Ang^3
#
#
#
# Elastic Constant Matrix: (Units=GPa)
#
#
# Indices 1 2 3 4 5 6 
#
# 1 47.1453 -9.0021 24.3472 -0.0001 0.0001 0.0001
# 2 -9.0021 200.4359 63.8185 -0.0003 0.0003 0.0002
# 3 24.3472 63.8185 110.3060 -0.0016 -0.0001 0.0005
# 4 -0.0001 -0.0003 -0.0016 37.8720 0.0002 0.0001
# 5 0.0001 0.0003 -0.0001 0.0002 9.7488 -0.0001
# 6 0.0001 0.0002 0.0005 0.0001 -0.0001 -17.9494
#
#
#
# Elastic Compliance Matrix: (Units=1/GPa)
#
#
# Indices 1 2 3 4 5 6 
#
# 1 0.025967 0.003667 -0.007853 0.000000 0.000000 0.000000
# 2 0.003667 0.006633 -0.004647 0.000000 0.000000 0.000000
# 3 -0.007853 -0.004647 0.013488 0.000001 0.000000 0.000000
# 4 0.000000 0.000000 0.000001 0.026405 -0.000001 0.000000
# 5 0.000000 0.000000 0.000000 -0.000001 0.102577 -0.000001
# 6 0.000000 0.000000 0.000000 0.000000 -0.000001 -0.055712
#
#
# Mechanical properties :
#
#
# Convention : Reuss Voigt Hill
#
# Bulk Modulus (GPa) = 35.18539 57.35715 46.27127
# Shear Modulus (GPa) = 34.13025 24.51585 29.32305
#
# Velocity S-wave (km/s) = 3.88433 3.29208 3.60041
# Velocity P-wave (km/s) = 5.97260 6.30923 6.14322
#
# Compressibility (1/GPa) = 0.02842089
#
# Stress axis : x y z
#
# Youngs Moduli (GPa) = 38.51116 150.75150 74.14219
#
# Poissons Ratio (x) = -0.55273 0.58222
# Poissons Ratio (y) = -0.14120 0.34455
# Poissons Ratio (z) = 0.30242 0.70056
#
# Static dielectric constant tensor:
#      x y z
#    x 1.905420 0.000000 0.000000 
#    y 0.000000 1.947220 0.000000 
#    z 0.000000 0.000000 1.793550 
# 
# From -- ./inp_files/4774.got.cif
#   From: 2010.05.17/outbox.cif.g08.bks.cpg/sg72_3_cif.got.tgz:4774.got - 2010.06.03 17:03:01.
