data_PCOD9526685
_publ_section_title
;
Structure prediction by ZEFSAII (Michael W. Deem and Ramdas Pophale) SiO2 
 PCOD9526685
Probable space group: I B A M
;
_chemical_formula_sum "Si O2"
_cell_formula_units_Z 96
_cell_length_a 24.204316
_cell_length_b 25.778088
_cell_length_c 8.708165
_cell_angle_alpha 90.000000
_cell_angle_beta 90.000000
_cell_angle_gamma 90.000000
_cell_volume 5433.381072
_symmetry_space_group_name_H-M "I B A M"
_symmetry_group_IT_number 72
_symmetry_cell_setting 'orthorhombic'
loop_
_space_group_symop_operation_xyz
x,y,z
-x,-y,z
x,-y,1/2-z
-x,y,1/2-z
-x,-y,-z
x,y,-z
-x,y,1/2+z
x,-y,1/2+z
1/2+x,1/2+y,1/2+z
1/2-x,1/2-y,1/2+z
1/2+x,1/2-y,-z
1/2-x,1/2+y,-z
1/2-x,1/2-y,1/2-z
1/2+x,1/2+y,1/2-z
1/2-x,1/2+y,z
1/2+x,1/2-y,z
loop_
_atom_site_type_symbol
_atom_site_label
_atom_site_fract_x
_atom_site_fract_y
_atom_site_fract_z
Si Si1 0.940335 0.057253 0.816841
Si Si2 0.870581 0.851032 0.185405
Si Si3 0.362223 0.847894 0.185374
Si Si4 0.250857 0.691697 0.816112
Si Si5 0.061178 0.748785 0.315186
Si Si6 0.439921 0.942876 0.815403
O O1 0.894432 0.097771 0.763011
O O2 0.000000 0.074134 0.750000
O O3 0.929586 0.000000 0.750000
O O4 0.943828 0.054768 0.000000
O O5 0.808008 0.836383 0.228074
O O6 0.909061 0.802250 0.229766
O O7 0.873184 0.856613 0.000000
O O8 0.302369 0.839212 0.257078
O O9 0.400999 0.799661 0.232988
O O10 0.393676 0.900823 0.227313
O O11 0.357126 0.846341 0.000000
O O12 0.250000 0.750000 0.750000
O O13 0.249798 0.695362 0.000000
O O14 0.058373 0.747757 0.500000
O O15 0.000000 0.745142 0.250000
O O16 0.500000 0.927149 0.750000
O O17 0.427843 0.000000 0.750000
O O18 0.443598 0.945264 0.000000
#
# Coordination Sequence:
#
# PCOD9526685 Si02
#       6
#    16  16  16  16  16  16
#     4  11  22  38  61  87 116 151 189 232 282 339
#     4  10  21  38  57  81 114 149 188 235 281 332
#     4  10  21  38  56  80 113 150 190 235 281 334
#     4  11  22  38  60  83 113 152 191 234 280 337
#     4  10  20  34  52  78 113 144 180 229 281 335
#     4  10  20  35  58  83 115 150 189 236 284 340
#
# _framework density 17.668557
#
# number of rings (size 3 to 8) (size 9 to 14) (size 15 to 20)
#    0.000    1.667    1.667    4.500    0.000    5.333 
#    0.000    0.833    0.000    2.000    0.000    0.000 
#    0.000    0.000    0.000    0.000    0.000    0.000 
#
# Total GULP energy -268181.552637 kJ/mol
# GULP energy per Si atom -5587.115680 kJ/mol
# Density = 1.762834 g / cm^3
# Si number density = 17.668557 Si / 1000 Ang^3
#
#
#
# Elastic Constant Matrix: (Units=GPa)
#
#
# Indices 1 2 3 4 5 6 
#
# 1 167.3882 89.2619 55.2811 0.0000 0.0000 0.0000
# 2 89.2619 108.2086 48.1793 0.0000 0.0000 0.0000
# 3 55.2811 48.1793 59.4980 0.0000 0.0000 0.0000
# 4 0.0000 0.0000 0.0000 26.2881 0.0000 0.0000
# 5 0.0000 0.0000 0.0000 0.0000 33.2348 0.0000
# 6 0.0000 0.0000 0.0000 0.0000 0.0000 23.7965
#
#
#
# Elastic Compliance Matrix: (Units=1/GPa)
#
#
# Indices 1 2 3 4 5 6 
#
# 1 0.011440 -0.007357 -0.004672 0.000000 0.000000 0.000000
# 2 -0.007357 0.019183 -0.008698 0.000000 0.000000 0.000000
# 3 -0.004672 -0.008698 0.028192 0.000000 0.000000 0.000000
# 4 0.000000 0.000000 0.000000 0.038040 0.000000 0.000000
# 5 0.000000 0.000000 0.000000 0.000000 0.030089 0.000000
# 6 0.000000 0.000000 0.000000 0.000000 0.000000 0.042023
#
#
# Mechanical properties :
#
#
# Convention : Reuss Voigt Hill
#
# Bulk Modulus (GPa) = 57.60171 80.05994 68.83083
# Shear Modulus (GPa) = 23.12583 26.15537 24.64060
#
# Velocity S-wave (km/s) = 3.62175 3.85169 3.73849
# Velocity P-wave (km/s) = 7.08248 8.07410 7.59449
#
# Compressibility (1/GPa) = 0.01736060
#
# Stress axis : x y z
#
# Youngs Moduli (GPa) = 87.41016 52.12941 35.47139
#
# Poissons Ratio (x) = 0.38351 0.16573
# Poissons Ratio (y) = 0.64307 0.30854
# Poissons Ratio (z) = 0.40839 0.45343
#
# Static dielectric constant tensor:
#      x y z
#    x 1.577500 0.000000 0.000000 
#    y 0.000000 1.585960 0.000000 
#    z 0.000000 0.000000 1.597080 
# 
# From -- ./inp_files/5995.got.cif
#   From: 2010.05.17/outbox.cif.g08.bks.cpg/sg72_3_cif.got.tgz:5995.got - 2010.06.03 17:03:01.
