data_PCOD9526461
_publ_section_title
;
Structure prediction by ZEFSAII (Michael W. Deem and Ramdas Pophale) SiO2 
 PCOD9526461
Probable space group: I B A M
;
_chemical_formula_sum "Si O2"
_cell_formula_units_Z 84
_cell_length_a 23.508639
_cell_length_b 7.514470
_cell_length_c 18.494252
_cell_angle_alpha 90.000000
_cell_angle_beta 90.000000
_cell_angle_gamma 90.000000
_cell_volume 3267.101394
_symmetry_space_group_name_H-M "I B A M"
_symmetry_group_IT_number 72
_symmetry_cell_setting 'orthorhombic'
loop_
_space_group_symop_operation_xyz
x,y,z
-x,-y,z
x,-y,1/2-z
-x,y,1/2-z
-x,-y,-z
x,y,-z
-x,y,1/2+z
x,-y,1/2+z
1/2+x,1/2+y,1/2+z
1/2-x,1/2-y,1/2+z
1/2+x,1/2-y,-z
1/2-x,1/2+y,-z
1/2-x,1/2-y,1/2-z
1/2+x,1/2+y,1/2-z
1/2-x,1/2+y,z
1/2+x,1/2-y,z
loop_
_atom_site_type_symbol
_atom_site_label
_atom_site_fract_x
_atom_site_fract_y
_atom_site_fract_z
Si Si1 0.597039 0.979229 0.148938
Si Si2 0.682088 0.758904 0.240902
Si Si3 0.000000 0.500000 0.250000
Si Si4 0.661133 0.552656 0.372521
Si Si5 0.343737 0.003263 0.500000
Si Si6 0.949897 0.879405 0.583522
Si Si7 0.723064 0.382302 0.500000
O O1 0.653088 0.912919 0.193031
O O2 0.548632 0.083101 0.195506
O O3 0.563908 0.792557 0.130693
O O4 0.618048 0.034735 0.070023
O O5 0.750000 0.750000 0.250000
O O6 0.659983 0.728182 0.323052
O O7 0.667336 0.594786 0.189362
O O8 0.604228 0.509471 0.414905
O O9 0.709993 0.500730 0.428996
O O10 0.315949 0.799202 0.500000
O O11 0.290816 0.137699 0.500000
O O12 0.961572 0.827286 0.500000
O O13 0.000000 0.000000 0.613083
#
# Coordination Sequence:
#
# PCOD9526461 Si02
#       7
#    16  16   4  16   8  16   8
#     4  11  24  50  66  97 144 186 234 297 354 426
#     4  10  21  37  62  90 129 174 217 278 353 410
#     4  12  32  46  66 100 144 198 252 272 356 462
#     4  10  20  36  57  95 126 161 220 273 341 410
#     4  12  24  47  76 100 146 185 238 298 365 419
#     4  10  19  38  70  96 122 164 222 289 349 399
#     4  12  22  42  68 108 138 178 234 294 355 443
#
# _framework density 25.710863
#
# number of rings (size 3 to 8) (size 9 to 14) (size 15 to 20)
#    0.000    1.333    5.714    1.143    2.667    3.429 
#    0.000    0.000    0.000    0.000    0.000    0.000 
#    0.000    0.000    0.000    0.000    0.000    0.000 
#
# Total GULP energy -234524.009988 kJ/mol
# GULP energy per Si atom -5583.905000 kJ/mol
# Density = 2.565234 g / cm^3
# Si number density = 25.710863 Si / 1000 Ang^3
#
#
#
# Elastic Constant Matrix: (Units=GPa)
#
#
# Indices 1 2 3 4 5 6 
#
# 1 136.9471 -14.0882 28.3058 0.0000 0.0000 0.0000
# 2 -14.0882 89.8254 35.3893 0.0000 0.0000 0.0000
# 3 28.3058 35.3893 182.5391 0.0000 0.0000 0.0000
# 4 0.0000 0.0000 0.0000 28.9916 0.0000 0.0000
# 5 0.0000 0.0000 0.0000 0.0000 10.6444 0.0000
# 6 0.0000 0.0000 0.0000 0.0000 0.0000 14.3196
#
#
#
# Elastic Compliance Matrix: (Units=1/GPa)
#
#
# Indices 1 2 3 4 5 6 
#
# 1 0.007816 0.001844 -0.001570 0.000000 0.000000 0.000000
# 2 0.001844 0.012489 -0.002707 0.000000 0.000000 0.000000
# 3 -0.001570 -0.002707 0.006247 0.000000 0.000000 0.000000
# 4 0.000000 0.000000 0.000000 0.034493 0.000000 0.000000
# 5 0.000000 0.000000 0.000000 0.000000 0.093946 0.000000
# 6 0.000000 0.000000 0.000000 0.000000 0.000000 0.069834
#
#
# Mechanical properties :
#
#
# Convention : Reuss Voigt Hill
#
# Bulk Modulus (GPa) = 46.11202 56.50284 51.30743
# Shear Modulus (GPa) = 21.10437 34.77144 27.93791
#
# Velocity S-wave (km/s) = 2.86813 3.68149 3.29997
# Velocity P-wave (km/s) = 5.37978 6.33207 5.87525
#
# Compressibility (1/GPa) = 0.02168632
#
# Stress axis : x y z
#
# Youngs Moduli (GPa) = 127.93876 80.07340 160.08914
#
# Poissons Ratio (x) = -0.14768 0.25128
# Poissons Ratio (y) = -0.23596 0.43339
# Poissons Ratio (z) = 0.20081 0.21677
#
# Static dielectric constant tensor:
#      x y z
#    x 2.247890 0.000000 0.000000 
#    y 0.000000 2.392350 0.000000 
#    z 0.000000 0.000000 1.998600 
# 
# From -- ./inp_files/33223.got.cif
#   From: 2010.05.17/outbox.cif.g08.bks.cpg/sg72_17_cif.got.tgz:33223.got - 2010.06.03 17:03:01.
