data_PCOD9526918
_publ_section_title
;
Structure prediction by ZEFSAII (Michael W. Deem and Ramdas Pophale) SiO2 
 PCOD9526918
Probable space group: I B A M
;
_chemical_formula_sum "Si O2"
_cell_formula_units_Z 116
_cell_length_a 25.636733
_cell_length_b 29.222628
_cell_length_c 8.746169
_cell_angle_alpha 90.000000
_cell_angle_beta 90.000000
_cell_angle_gamma 90.000000
_cell_volume 6552.391146
_symmetry_space_group_name_H-M "I B A M"
_symmetry_group_IT_number 72
_symmetry_cell_setting 'orthorhombic'
loop_
_space_group_symop_operation_xyz
x,y,z
-x,-y,z
x,-y,1/2-z
-x,y,1/2-z
-x,-y,-z
x,y,-z
-x,y,1/2+z
x,-y,1/2+z
1/2+x,1/2+y,1/2+z
1/2-x,1/2-y,1/2+z
1/2+x,1/2-y,-z
1/2-x,1/2+y,-z
1/2-x,1/2-y,1/2-z
1/2+x,1/2+y,1/2-z
1/2-x,1/2+y,z
1/2+x,1/2-y,z
loop_
_atom_site_type_symbol
_atom_site_label
_atom_site_fract_x
_atom_site_fract_y
_atom_site_fract_z
Si Si1 0.148386 0.388017 0.316848
Si Si2 0.180828 0.293122 0.179056
Si Si3 0.806332 0.803320 0.677897
Si Si4 0.500000 0.500000 0.250000
Si Si5 0.051610 0.089287 0.329565
Si Si6 0.661984 0.601961 0.320852
Si Si7 0.741566 0.050640 0.817496
Si Si8 0.057894 0.450283 0.184043
O O1 0.146459 0.390268 0.500000
O O2 0.153786 0.335866 0.260720
O O3 0.198910 0.415575 0.256067
O O4 0.098396 0.412823 0.243817
O O5 0.171541 0.244560 0.260008
O O6 0.243395 0.301014 0.187833
O O7 0.166818 0.291378 0.000000
O O8 0.820002 0.810236 0.500000
O O9 0.824579 0.845941 0.777635
O O10 0.463463 0.464494 0.161828
O O11 0.060224 0.107223 0.500000
O O12 0.102610 0.093883 0.228131
O O13 0.000000 0.110253 0.250000
O O14 0.669647 0.593618 0.500000
O O15 0.701635 0.569930 0.227178
O O16 0.734696 0.000000 0.750000
O O17 0.735183 0.050280 0.000000
O O18 0.074204 0.500000 0.250000
O O19 0.000000 0.441662 0.250000
O O20 0.056747 0.451931 0.000000
#
# Coordination Sequence:
#
# PCOD9526918 Si02
#       8
#    16  16  16   4  16  16  16  16
#     4  12  23  38  59  86 119 155 194 237 289 345
#     4  10  20  35  58  86 117 152 193 238 289 344
#     4  10  20  36  58  84 117 152 192 239 290 344
#     4   8  22  36  62  80 110 140 198 240 292 332
#     4  10  21  37  57  80 109 144 190 240 287 337
#     4  12  24  38  58  84 116 153 193 238 290 348
#     4  12  25  40  55  79 115 155 193 235 288 347
#     4  11  22  39  61  87 118 155 200 244 288 338
#
# _framework density 17.70346
#
# number of rings (size 3 to 8) (size 9 to 14) (size 15 to 20)
#    0.414    0.690    1.379    7.241    0.966    1.103 
#    0.000    0.000    0.000    0.828    0.000    5.793 
#    0.000    0.000    0.000    0.000    0.000    0.000 
#
# Total GULP energy -323935.080332 kJ/mol
# GULP energy per Si atom -5585.087592 kJ/mol
# Density = 1.766317 g / cm^3
# Si number density = 17.703460 Si / 1000 Ang^3
#
#
#
# Elastic Constant Matrix: (Units=GPa)
#
#
# Indices 1 2 3 4 5 6 
#
# 1 35.2931 -1.1051 13.9885 0.0000 0.0000 0.0000
# 2 -1.1051 61.2333 18.9729 0.0000 0.0000 0.0000
# 3 13.9885 18.9729 146.1180 0.0000 0.0000 0.0000
# 4 0.0000 0.0000 0.0000 30.0823 0.0000 0.0000
# 5 0.0000 0.0000 0.0000 0.0000 52.8373 0.0000
# 6 0.0000 0.0000 0.0000 0.0000 0.0000 18.6227
#
#
#
# Elastic Compliance Matrix: (Units=1/GPa)
#
#
# Indices 1 2 3 4 5 6 
#
# 1 0.029578 0.001470 -0.003023 0.000000 0.000000 0.000000
# 2 0.001470 0.017089 -0.002360 0.000000 0.000000 0.000000
# 3 -0.003023 -0.002360 0.007440 0.000000 0.000000 0.000000
# 4 0.000000 0.000000 0.000000 0.033242 0.000000 0.000000
# 5 0.000000 0.000000 0.000000 0.000000 0.018926 0.000000
# 6 0.000000 0.000000 0.000000 0.000000 0.000000 0.053698
#
#
# Mechanical properties :
#
#
# Convention : Reuss Voigt Hill
#
# Bulk Modulus (GPa) = 21.60642 34.03969 27.82305
# Shear Modulus (GPa) = 27.28905 34.36100 30.82502
#
# Velocity S-wave (km/s) = 3.93039 4.41037 4.17728
# Velocity P-wave (km/s) = 5.72961 6.72343 6.24632
#
# Compressibility (1/GPa) = 0.04628254
#
# Stress axis : x y z
#
# Youngs Moduli (GPa) = 33.80874 58.51840 134.41686
#
# Poissons Ratio (x) = -0.08604 0.40628
# Poissons Ratio (y) = -0.04971 0.31718
# Poissons Ratio (z) = 0.10219 0.13808
#
# Static dielectric constant tensor:
#      x y z
#    x 1.588560 0.000000 0.000000 
#    y 0.000000 1.587160 0.000000 
#    z 0.000000 0.000000 1.609530 
# 
# From -- ./inp_files/7355.got.cif
#   From: 2010.05.17/outbox.cif.g08.bks.cpg/sg72_4_cif.got.tgz:7355.got - 2010.06.03 17:03:01.
