data_PCOD9526616
_publ_section_title
;
Structure prediction by ZEFSAII (Michael W. Deem and Ramdas Pophale) SiO2 
 PCOD9526616
Probable space group: I B A M
;
_chemical_formula_sum "Si O2"
_cell_formula_units_Z 80
_cell_length_a 22.034988
_cell_length_b 15.209330
_cell_length_c 9.805506
_cell_angle_alpha 90.000000
_cell_angle_beta 90.000000
_cell_angle_gamma 90.000000
_cell_volume 3286.191826
_symmetry_space_group_name_H-M "I B A M"
_symmetry_group_IT_number 72
_symmetry_cell_setting 'orthorhombic'
loop_
_space_group_symop_operation_xyz
x,y,z
-x,-y,z
x,-y,1/2-z
-x,y,1/2-z
-x,-y,-z
x,y,-z
-x,y,1/2+z
x,-y,1/2+z
1/2+x,1/2+y,1/2+z
1/2-x,1/2-y,1/2+z
1/2+x,1/2-y,-z
1/2-x,1/2+y,-z
1/2-x,1/2-y,1/2-z
1/2+x,1/2+y,1/2-z
1/2-x,1/2+y,z
1/2+x,1/2-y,z
loop_
_atom_site_type_symbol
_atom_site_label
_atom_site_fract_x
_atom_site_fract_y
_atom_site_fract_z
Si Si1 0.355714 0.143173 0.249452
Si Si2 0.781049 0.632669 0.000000
Si Si3 0.930538 0.107810 0.255157
Si Si4 0.346655 0.595584 0.000000
Si Si5 0.270013 0.189604 0.000000
Si Si6 0.860631 0.112531 0.000000
Si Si7 0.070778 0.428492 0.500000
Si Si8 0.057413 0.640078 0.500000
O O1 0.310063 0.099061 0.360237
O O2 0.407579 0.172790 0.362477
O O3 0.310198 0.193462 0.139592
O O4 0.392411 0.087882 0.138705
O O5 0.784852 0.739121 0.000000
O O6 0.709502 0.628874 0.000000
O O7 0.884195 0.131309 0.373281
O O8 0.897176 0.146569 0.126443
O O9 0.000000 0.136640 0.250000
O O10 0.932762 0.000000 0.250000
O O11 0.273839 0.603973 0.000000
O O12 0.362678 0.492533 0.000000
O O13 0.060243 0.533024 0.500000
O O14 0.015725 0.356497 0.500000
#
# Coordination Sequence:
#
# PCOD9526616 Si02
#       8
#    16   8  16   8   8   8   8   8
#     4  10  22  36  57  84 111 155 206 246 289 356
#     4  11  23  40  59  81 116 161 202 247 301 357
#     4   9  17  31  52  78 107 138 173 220 281 343
#     4  10  20  33  54  82 110 140 180 232 283 340
#     4  11  23  40  59  81 116 161 202 247 301 357
#     4  10  20  33  54  82 110 140 180 232 283 340
#     4  10  20  36  60  91 125 158 194 245 311 370
#     4  10  20  36  60  91 125 158 194 245 311 370
#
# _framework density 24.344287000000001
#
# number of rings (size 3 to 8) (size 9 to 14) (size 15 to 20)
#    0.000    2.000    0.000    3.600    0.000    8.800 
#    0.000    0.000    0.000   24.000    0.000    0.000 
#    0.000    0.000    0.000    0.000    0.000    0.000 
#
# Total GULP energy -222733.920133 kJ/mol
# GULP energy per Si atom -5568.348003 kJ/mol
# Density = 2.428888 g / cm^3
# Si number density = 24.344287 Si / 1000 Ang^3
#
#
#
# Elastic Constant Matrix: (Units=GPa)
#
#
# Indices 1 2 3 4 5 6 
#
# 1 186.5020 18.3061 82.9784 0.0000 0.0000 0.0000
# 2 18.3061 33.2738 13.8166 0.0000 0.0000 0.0000
# 3 82.9784 13.8166 232.9165 0.0000 0.0000 0.0000
# 4 0.0000 0.0000 0.0000 -6.9918 0.0000 0.0000
# 5 0.0000 0.0000 0.0000 0.0000 34.6400 0.0000
# 6 0.0000 0.0000 0.0000 0.0000 0.0000 -35.5404
#
#
#
# Elastic Compliance Matrix: (Units=1/GPa)
#
#
# Indices 1 2 3 4 5 6 
#
# 1 0.006604 -0.002723 -0.002191 0.000000 0.000000 0.000000
# 2 -0.002723 0.031936 -0.000924 0.000000 0.000000 0.000000
# 3 -0.002191 -0.000924 0.005129 0.000000 0.000000 0.000000
# 4 0.000000 0.000000 0.000000 -0.143025 0.000000 0.000000
# 5 0.000000 0.000000 0.000000 0.000000 0.028868 0.000000
# 6 0.000000 0.000000 0.000000 0.000000 0.000000 -0.028137
#
#
# Mechanical properties :
#
#
# Convention : Reuss Voigt Hill
#
# Bulk Modulus (GPa) = 31.25875 75.87715 53.56795
# Shear Modulus (GPa) = -65.54495 20.92765 -22.30865
#
# Velocity S-wave (km/s) = -5.19448 2.93517 -3.03046
# Velocity P-wave (km/s) = 4.80715 6.53628 3.13164
#
# Compressibility (1/GPa) = 0.03199105
#
# Stress axis : x y z
#
# Youngs Moduli (GPa) = 151.42095 31.31281 194.97578
#
# Poissons Ratio (x) = 0.08528 0.42723
# Poissons Ratio (y) = 0.41239 0.18019
# Poissons Ratio (z) = 0.33179 0.02894
#
# Static dielectric constant tensor:
#      x y z
#    x 1.964530 0.000000 0.000000 
#    y 0.000000 2.288520 0.000000 
#    z 0.000000 0.000000 1.865530 
# 
# From -- ./inp_files/5748.got.cif
#   From: 2010.05.17/outbox.cif.g08.bks.cpg/sg72_3_cif.got.tgz:5748.got - 2010.06.03 17:03:01.
