data_PCOD9526454
_publ_section_title
;
Structure prediction by ZEFSAII (Michael W. Deem and Ramdas Pophale) SiO2 
 PCOD9526454
Probable space group: I B A M
;
_chemical_formula_sum "Si O2"
_cell_formula_units_Z 56
_cell_length_a 31.192622
_cell_length_b 14.053078
_cell_length_c 5.480933
_cell_angle_alpha 90.000000
_cell_angle_beta 90.000000
_cell_angle_gamma 90.000000
_cell_volume 2402.579861
_symmetry_space_group_name_H-M "I B A M"
_symmetry_group_IT_number 72
_symmetry_cell_setting 'orthorhombic'
loop_
_space_group_symop_operation_xyz
x,y,z
-x,-y,z
x,-y,1/2-z
-x,y,1/2-z
-x,-y,-z
x,y,-z
-x,y,1/2+z
x,-y,1/2+z
1/2+x,1/2+y,1/2+z
1/2-x,1/2-y,1/2+z
1/2+x,1/2-y,-z
1/2-x,1/2+y,-z
1/2-x,1/2-y,1/2-z
1/2+x,1/2+y,1/2-z
1/2-x,1/2+y,z
1/2+x,1/2-y,z
loop_
_atom_site_type_symbol
_atom_site_label
_atom_site_fract_x
_atom_site_fract_y
_atom_site_fract_z
Si Si1 0.223104 0.251187 0.000000
Si Si2 0.173820 0.052283 0.000000
Si Si3 0.895746 0.242039 0.000000
Si Si4 0.444752 0.056586 0.500000
Si Si5 0.491652 0.761731 0.500000
Si Si6 0.421464 0.521958 0.500000
Si Si7 0.138575 0.326616 0.000000
O O1 0.250000 0.250000 0.250000
O O2 0.193585 0.156617 0.000000
O O3 0.189576 0.339054 0.000000
O O4 0.187457 0.000000 0.750000
O O5 0.121793 0.044300 0.000000
O O6 0.942294 0.291854 0.000000
O O7 0.905068 0.130199 0.000000
O O8 0.872508 0.271944 0.752132
O O9 0.524853 0.849790 0.500000
O O10 0.452875 0.000000 0.250000
O O11 0.394766 0.086624 0.500000
O O12 0.500000 0.707432 0.250000
O O13 0.444665 0.500000 0.250000
#
# Coordination Sequence:
#
# PCOD9526454 Si02
#       7
#     8   8   8   8   8   8   8
#     4  12  26  45  70 104 139 176 228 285 353 428
#     4  10  19  38  64  99 122 163 218 273 326 392
#     4  12  22  42  70 101 137 174 229 282 334 414
#     4  12  26  44  67 100 139 184 244 290 336 407
#     4  12  23  43  63 105 137 184 228 286 348 393
#     4  10  20  35  63  99 124 162 215 273 323 384
#     4  12  24  45  67  97 134 185 230 279 348 410
#
# _framework density 23.308277
#
# number of rings (size 3 to 8) (size 9 to 14) (size 15 to 20)
#    0.000    0.571    2.857    7.714    0.000    1.714 
#    0.000    4.286    0.000    2.571    0.000    0.000 
#    0.000    0.000    0.000    0.000    0.000    0.000 
#
# Total GULP energy -156676.095645 kJ/mol
# GULP energy per Si atom -5595.574844 kJ/mol
# Density = 2.325523 g / cm^3
# Si number density = 23.308277 Si / 1000 Ang^3
#
#
#
# Elastic Constant Matrix: (Units=GPa)
#
#
# Indices 1 2 3 4 5 6 
#
# 1 142.2414 17.1668 45.1995 0.0000 0.0000 0.0000
# 2 17.1668 64.7708 31.1353 0.0000 0.0000 0.0000
# 3 45.1995 31.1353 278.0009 0.0000 -0.0003 -0.0001
# 4 0.0000 0.0000 0.0000 30.5894 0.0001 0.0000
# 5 0.0000 0.0000 -0.0003 0.0001 28.2614 0.0000
# 6 0.0000 0.0000 -0.0001 0.0000 0.0000 33.5337
#
#
#
# Elastic Compliance Matrix: (Units=1/GPa)
#
#
# Indices 1 2 3 4 5 6 
#
# 1 0.007547 -0.001491 -0.001060 0.000000 0.000000 0.000000
# 2 -0.001491 0.016612 -0.001618 0.000000 0.000000 0.000000
# 3 -0.001060 -0.001618 0.003951 0.000000 0.000000 0.000000
# 4 0.000000 0.000000 0.000000 0.032691 0.000000 0.000000
# 5 0.000000 0.000000 0.000000 0.000000 0.035384 0.000000
# 6 0.000000 0.000000 0.000000 0.000000 0.000000 0.029821
#
#
# Mechanical properties :
#
#
# Convention : Reuss Voigt Hill
#
# Bulk Modulus (GPa) = 50.57677 74.66846 62.62261
# Shear Modulus (GPa) = 35.47762 44.57768 40.02765
#
# Velocity S-wave (km/s) = 3.90565 4.37799 4.14855
# Velocity P-wave (km/s) = 6.48729 7.59345 7.06206
#
# Compressibility (1/GPa) = 0.01977192
#
# Stress axis : x y z
#
# Youngs Moduli (GPa) = 132.50166 60.19754 253.11991
#
# Poissons Ratio (x) = 0.08974 0.26833
# Poissons Ratio (y) = 0.19752 0.40958
# Poissons Ratio (z) = 0.14047 0.09741
#
# Static dielectric constant tensor:
#      x y z
#    x 1.881090 0.000000 0.000000 
#    y 0.000000 1.917050 0.000000 
#    z 0.000000 0.000000 1.934370 
# 
# From -- ./inp_files/993.got.cif
#   From: 2010.05.17/outbox.cif.g08.bks.cpg/sg72_1_cif.got.tgz:993.got - 2010.06.03 17:03:01.
