data_PCOD9526407
_publ_section_title
;
Structure prediction by ZEFSAII (Michael W. Deem and Ramdas Pophale) SiO2 
 PCOD9526407
Probable space group: I B A M
;
_chemical_formula_sum "Si O2"
_cell_formula_units_Z 112
_cell_length_a 12.164408
_cell_length_b 32.110058
_cell_length_c 15.624867
_cell_angle_alpha 90.000000
_cell_angle_beta 90.000000
_cell_angle_gamma 90.000000
_cell_volume 6103.070650
_symmetry_space_group_name_H-M "I B A M"
_symmetry_group_IT_number 72
_symmetry_cell_setting 'orthorhombic'
loop_
_space_group_symop_operation_xyz
x,y,z
-x,-y,z
x,-y,1/2-z
-x,y,1/2-z
-x,-y,-z
x,y,-z
-x,y,1/2+z
x,-y,1/2+z
1/2+x,1/2+y,1/2+z
1/2-x,1/2-y,1/2+z
1/2+x,1/2-y,-z
1/2-x,1/2+y,-z
1/2-x,1/2-y,1/2-z
1/2+x,1/2+y,1/2-z
1/2-x,1/2+y,z
1/2+x,1/2-y,z
loop_
_atom_site_type_symbol
_atom_site_label
_atom_site_fract_x
_atom_site_fract_y
_atom_site_fract_z
Si Si1 0.684874 0.383368 0.899223
Si Si2 0.625457 0.824257 0.899200
Si Si3 0.974240 0.836079 0.348025
Si Si4 0.118982 0.670202 0.602184
Si Si5 0.199912 0.235983 0.659491
Si Si6 0.785147 0.898627 0.599044
Si Si7 0.867892 0.048631 0.745135
O O1 0.793144 0.359599 0.864937
O O2 0.588709 0.347999 0.892952
O O3 0.662492 0.423011 0.837878
O O4 0.693914 0.394982 0.000000
O O5 0.502887 0.824348 0.861472
O O6 0.676882 0.778730 0.888847
O O7 0.618187 0.833051 0.000000
O O8 0.913681 0.791099 0.342650
O O9 0.883924 0.865220 0.392332
O O10 0.000000 0.848018 0.250000
O O11 0.110455 0.670532 0.500000
O O12 0.204288 0.706544 0.623873
O O13 0.175805 0.626560 0.624603
O O14 0.250000 0.250000 0.750000
O O15 0.778475 0.912524 0.500000
O O16 0.814549 0.931995 0.669956
O O17 0.000000 0.051016 0.750000
O O18 0.837702 0.000000 0.750000
#
# Coordination Sequence:
#
# PCOD9526407 Si02
#       7
#    16  16  16  16  16  16  16
#     4  11  22  39  62  87 120 164 198 241 303 362
#     4  10  23  39  57  81 114 156 203 249 294 344
#     4  11  20  35  55  81 119 155 199 243 291 351
#     4   9  21  40  57  79 111 152 202 249 291 348
#     4  11  24  34  54  83 115 156 201 250 297 343
#     4  10  19  37  63  84 112 155 194 235 296 356
#     4  11  23  39  61  93 128 150 185 246 301 370
#
# _framework density 18.351417999999999
#
# number of rings (size 3 to 8) (size 9 to 14) (size 15 to 20)
#    0.000    1.571    2.857    1.714    6.000    2.286 
#    0.000    1.429    0.000    1.714    0.000    4.000 
#    0.000    0.000    0.000    0.000    0.000    0.000 
#
# Total GULP energy -312110.935154 kJ/mol
# GULP energy per Si atom -5573.409556 kJ/mol
# Density = 1.830965 g / cm^3
# Si number density = 18.351418 Si / 1000 Ang^3
#
#
#
# Elastic Constant Matrix: (Units=GPa)
#
#
# Indices 1 2 3 4 5 6 
#
# 1 113.1697 58.7638 26.8278 -0.0001 0.0000 0.0000
# 2 58.7638 132.9869 57.1610 -0.0002 0.0000 0.0000
# 3 26.8278 57.1610 79.5646 -0.0020 0.0002 0.0000
# 4 -0.0001 -0.0002 -0.0020 -68.9775 0.0021 0.0001
# 5 0.0000 0.0000 0.0002 0.0021 -8.6573 0.0000
# 6 0.0000 0.0000 0.0000 0.0001 0.0000 18.5326
#
#
#
# Elastic Compliance Matrix: (Units=1/GPa)
#
#
# Indices 1 2 3 4 5 6 
#
# 1 0.011473 -0.004929 -0.000327 0.000000 0.000000 0.000000
# 2 -0.004929 0.012996 -0.007675 0.000000 0.000000 0.000000
# 3 -0.000327 -0.007675 0.018193 0.000000 0.000000 0.000000
# 4 0.000000 0.000000 0.000000 -0.014497 -0.000004 0.000000
# 5 0.000000 0.000000 0.000000 -0.000004 -0.115509 0.000000
# 6 0.000000 0.000000 0.000000 0.000000 0.000000 0.053959
#
#
# Mechanical properties :
#
#
# Convention : Reuss Voigt Hill
#
# Bulk Modulus (GPa) = 59.52549 67.91405 63.71977
# Shear Modulus (GPa) = -2600.79455 0.37746 -1300.20854
#
# Velocity S-wave (km/s) = -37.68679 0.45402 -26.64665
# Velocity P-wave (km/s) = 43.14184 6.11250 30.19814
#
# Compressibility (1/GPa) = 0.01679953
#
# Stress axis : x y z
#
# Youngs Moduli (GPa) = 87.15854 76.94405 54.96712
#
# Poissons Ratio (x) = 0.37926 0.01800
# Poissons Ratio (y) = 0.42961 0.42187
# Poissons Ratio (z) = 0.02854 0.59054
#
# Static dielectric constant tensor:
#      x y z
#    x 1.685930 0.000000 0.000000 
#    y 0.000000 1.642550 0.000000 
#    z 0.000000 0.000000 1.651370 
# 
# From -- ./inp_files/20662.got.cif
#   From: 2010.05.17/outbox.cif.g08.bks.cpg/sg72_11_cif.got.tgz:20662.got - 2010.06.03 17:03:01.
