data_PCOD9526424
_publ_section_title
;
Structure prediction by ZEFSAII (Michael W. Deem and Ramdas Pophale) SiO2 
 PCOD9526424
Probable space group: I B A M
;
_chemical_formula_sum "Si O2"
_cell_formula_units_Z 120
_cell_length_a 18.198065
_cell_length_b 16.261280
_cell_length_c 19.594840
_cell_angle_alpha 90.000000
_cell_angle_beta 90.000000
_cell_angle_gamma 90.000000
_cell_volume 5798.580109
_symmetry_space_group_name_H-M "I B A M"
_symmetry_group_IT_number 72
_symmetry_cell_setting 'orthorhombic'
loop_
_space_group_symop_operation_xyz
x,y,z
-x,-y,z
x,-y,1/2-z
-x,y,1/2-z
-x,-y,-z
x,y,-z
-x,y,1/2+z
x,-y,1/2+z
1/2+x,1/2+y,1/2+z
1/2-x,1/2-y,1/2+z
1/2+x,1/2-y,-z
1/2-x,1/2+y,-z
1/2-x,1/2-y,1/2-z
1/2+x,1/2+y,1/2-z
1/2-x,1/2+y,z
1/2+x,1/2-y,z
loop_
_atom_site_type_symbol
_atom_site_label
_atom_site_fract_x
_atom_site_fract_y
_atom_site_fract_z
Si Si1 0.398389 0.849177 0.500000
Si Si2 0.844941 0.160396 0.574685
Si Si3 0.167394 0.336659 0.271879
Si Si4 0.545260 0.082823 0.362924
Si Si5 0.800177 0.050590 0.687882
Si Si6 0.770271 0.430548 0.576653
Si Si7 0.193541 0.242748 0.600195
Si Si8 0.100917 0.324269 0.125349
O O1 0.419365 0.913871 0.438178
O O2 0.373477 0.780617 0.441426
O O3 0.854517 0.122749 0.500000
O O4 0.854062 0.100118 0.638161
O O5 0.761696 0.196679 0.580332
O O6 0.893896 0.241224 0.582577
O O7 0.242347 0.387915 0.276501
O O8 0.177603 0.257970 0.320468
O O9 0.143633 0.312715 0.196559
O O10 0.105682 0.395155 0.306273
O O11 0.481958 0.151580 0.362289
O O12 0.500000 0.000000 0.349050
O O13 0.834395 0.000000 0.750000
O O14 0.754015 0.993672 0.634925
O O15 0.763881 0.465016 0.500000
O O16 0.719130 0.348830 0.582932
O O17 0.852357 0.395959 0.588635
#
# Coordination Sequence:
#
# PCOD9526424 Si02
#       8
#     8  16  16  16  16  16  16  16
#     4  10  19  38  52  80 111 148 199 238 280 342
#     4  10  21  37  58  81 120 151 189 250 297 353
#     4  10  22  37  53  79 119 158 192 237 275 343
#     4  11  24  36  55  82 121 163 200 233 278 340
#     4  11  22  36  57  90 116 154 193 241 303 347
#     4  11  21  34  58  83 115 144 190 247 293 353
#     4   9  18  35  56  77 108 150 193 234 297 340
#     4  11  22  37  56  82 114 161 201 231 288 343
#
# _framework density 20.694721000000001
#
# number of rings (size 3 to 8) (size 9 to 14) (size 15 to 20)
#    0.000    1.600    2.667    3.000    3.733    2.133 
#    8.400    0.000    0.000    0.000    0.000    4.667 
#    0.000    0.000    0.000    0.000    0.000    0.000 
#
# Total GULP energy -334334.697530 kJ/mol
# GULP energy per Si atom -5572.244959 kJ/mol
# Density = 2.064762 g / cm^3
# Si number density = 20.694721 Si / 1000 Ang^3
#
#
#
# Elastic Constant Matrix: (Units=GPa)
#
#
# Indices 1 2 3 4 5 6 
#
# 1 26.2893 7.0982 -0.3600 0.0000 0.0000 0.0000
# 2 7.0982 43.1379 13.7117 0.0000 0.0000 0.0000
# 3 -0.3600 13.7117 135.2645 0.0000 0.0000 0.0000
# 4 0.0000 0.0000 0.0000 22.2464 0.0000 0.0000
# 5 0.0000 0.0000 0.0000 0.0000 -1.5770 0.0000
# 6 0.0000 0.0000 0.0000 0.0000 0.0000 16.1810
#
#
#
# Elastic Compliance Matrix: (Units=1/GPa)
#
#
# Indices 1 2 3 4 5 6 
#
# 1 0.039890 -0.006817 0.000797 0.000000 0.000000 0.000000
# 2 -0.006817 0.025118 -0.002564 0.000000 0.000000 0.000000
# 3 0.000797 -0.002564 0.007655 0.000000 0.000000 0.000000
# 4 0.000000 0.000000 0.000000 0.044951 0.000000 0.000000
# 5 0.000000 0.000000 0.000000 0.000000 -0.634103 0.000000
# 6 0.000000 0.000000 0.000000 0.000000 0.000000 0.061801
#
#
# Mechanical properties :
#
#
# Convention : Reuss Voigt Hill
#
# Bulk Modulus (GPa) = 18.01975 27.28793 22.65384
# Shear Modulus (GPa) = -11.93257 19.65285 3.86014
#
# Velocity S-wave (km/s) = -2.40385 3.08499 1.36723
# Velocity P-wave (km/s) = 1.01076 5.08961 3.66918
#
# Compressibility (1/GPa) = 0.05549465
#
# Stress axis : x y z
#
# Youngs Moduli (GPa) = 25.06900 39.81156 130.63365
#
# Poissons Ratio (x) = 0.27140 -0.10414
# Poissons Ratio (y) = 0.17090 0.33499
# Poissons Ratio (z) = -0.01999 0.10209
#
# Static dielectric constant tensor:
#      x y z
#    x 1.734610 0.000000 0.000000 
#    y 0.000000 1.762350 0.000000 
#    z 0.000000 0.000000 1.775760 
# 
# From -- ./inp_files/39281.got.cif
#   From: 2010.05.17/outbox.cif.g08.bks.cpg/sg72_20_cif.got.tgz:39281.got - 2010.06.03 17:03:01.
