data_PCOD9526894
_publ_section_title
;
Structure prediction by ZEFSAII (Michael W. Deem and Ramdas Pophale) SiO2 
 PCOD9526894
Probable space group: I B A M
;
_chemical_formula_sum "Si O2"
_cell_formula_units_Z 116
_cell_length_a 22.002930
_cell_length_b 31.954581
_cell_length_c 9.113952
_cell_angle_alpha 90.000000
_cell_angle_beta 90.000000
_cell_angle_gamma 90.000000
_cell_volume 6407.968694
_symmetry_space_group_name_H-M "I B A M"
_symmetry_group_IT_number 72
_symmetry_cell_setting 'orthorhombic'
loop_
_space_group_symop_operation_xyz
x,y,z
-x,-y,z
x,-y,1/2-z
-x,y,1/2-z
-x,-y,-z
x,y,-z
-x,y,1/2+z
x,-y,1/2+z
1/2+x,1/2+y,1/2+z
1/2-x,1/2-y,1/2+z
1/2+x,1/2-y,-z
1/2-x,1/2+y,-z
1/2-x,1/2-y,1/2-z
1/2+x,1/2+y,1/2-z
1/2-x,1/2+y,z
1/2+x,1/2-y,z
loop_
_atom_site_type_symbol
_atom_site_label
_atom_site_fract_x
_atom_site_fract_y
_atom_site_fract_z
Si Si1 0.794111 0.804625 0.326009
Si Si2 0.396433 0.937444 0.835505
Si Si3 0.935730 0.658384 0.173933
Si Si4 0.563520 0.544584 0.823972
Si Si5 0.774583 0.457121 0.173737
Si Si6 0.500000 0.000000 0.250000
Si Si7 0.820258 0.101446 0.173669
Si Si8 0.333090 0.213581 0.825643
O O1 0.778413 0.802983 0.500000
O O2 0.824617 0.849178 0.296708
O O3 0.732465 0.801098 0.233460
O O4 0.834281 0.763529 0.295765
O O5 0.417912 0.890337 0.803873
O O6 0.344379 0.950357 0.722145
O O7 0.453678 0.968705 0.831433
O O8 0.369666 0.938696 0.000000
O O9 0.884717 0.687825 0.243642
O O10 0.000000 0.666185 0.250000
O O11 0.939807 0.665297 0.000000
O O12 0.578945 0.500000 0.750000
O O13 0.500000 0.557833 0.750000
O O14 0.617477 0.577063 0.795593
O O15 0.556399 0.539755 0.000000
O O16 0.753138 0.500000 0.250000
O O17 0.733904 0.419426 0.235012
O O18 0.769731 0.460500 0.000000
O O19 0.806722 0.096223 0.000000
O O20 0.337517 0.206969 0.000000
#
# Coordination Sequence:
#
# PCOD9526894 Si02
#       8
#    16  16  16  16  16   4  16  16
#     4   9  19  37  60  84 113 146 182 228 281 338
#     4  11  24  40  59  83 113 151 196 243 290 338
#     4  11  23  39  58  83 113 148 189 235 285 337
#     4  10  20  35  57  82 110 146 184 221 267 326
#     4  12  25  38  56  82 115 153 194 239 285 335
#     4  12  22  40  64  82 110 152 200 240 286 336
#     4  10  21  38  59  84 115 149 185 231 287 337
#     4  10  20  36  59  86 113 145 186 230 280 339
#
# _framework density 18.102460000000001
#
# number of rings (size 3 to 8) (size 9 to 14) (size 15 to 20)
#    0.000    1.517    1.379    4.345    0.000    8.276 
#    0.000    0.690    0.000    1.655    0.000    0.000 
#    0.000    0.000    0.000    0.000    0.000    0.000 
#
# Total GULP energy -324013.568542 kJ/mol
# GULP energy per Si atom -5586.440837 kJ/mol
# Density = 1.806126 g / cm^3
# Si number density = 18.102460 Si / 1000 Ang^3
#
#
#
# Elastic Constant Matrix: (Units=GPa)
#
#
# Indices 1 2 3 4 5 6 
#
# 1 87.5882 75.1770 58.5236 0.0000 0.0000 0.0000
# 2 75.1770 137.3853 72.7881 0.0000 0.0000 0.0000
# 3 58.5236 72.7881 94.5854 0.0000 0.0000 0.0000
# 4 0.0000 0.0000 0.0000 -0.2856 0.0000 0.0000
# 5 0.0000 0.0000 0.0000 0.0000 30.7107 0.0000
# 6 0.0000 0.0000 0.0000 0.0000 0.0000 19.1731
#
#
#
# Elastic Compliance Matrix: (Units=1/GPa)
#
#
# Indices 1 2 3 4 5 6 
#
# 1 0.024867 -0.009211 -0.008298 0.000000 0.000000 0.000000
# 2 -0.009211 0.015701 -0.006384 0.000000 0.000000 0.000000
# 3 -0.008298 -0.006384 0.020619 0.000000 0.000000 0.000000
# 4 0.000000 0.000000 0.000000 -3.501740 0.000000 0.000000
# 5 0.000000 0.000000 0.000000 0.000000 0.032562 0.000000
# 6 0.000000 0.000000 0.000000 0.000000 0.000000 0.052156
#
#
# Mechanical properties :
#
#
# Convention : Reuss Voigt Hill
#
# Bulk Modulus (GPa) = 74.61324 81.39294 78.00309
# Shear Modulus (GPa) = -1.51351 17.45765 7.97207
#
# Velocity S-wave (km/s) = -0.91537 3.10882 2.10081
# Velocity P-wave (km/s) = 6.33952 7.61225 7.00485
#
# Compressibility (1/GPa) = 0.01340245
#
# Stress axis : x y z
#
# Youngs Moduli (GPa) = 40.21335 63.68970 48.49819
#
# Poissons Ratio (x) = 0.58664 0.40244
# Poissons Ratio (y) = 0.37040 0.30959
# Poissons Ratio (z) = 0.33369 0.40657
#
# Static dielectric constant tensor:
#      x y z
#    x 1.592710 0.000000 0.000000 
#    y 0.000000 1.625790 0.000000 
#    z 0.000000 0.000000 1.614380 
# 
# From -- ./inp_files/7331.got.cif
#   From: 2010.05.17/outbox.cif.g08.bks.cpg/sg72_4_cif.got.tgz:7331.got - 2010.06.03 17:03:01.
