data_PCOD9526051
_publ_section_title
;
Structure prediction by ZEFSAII (Michael W. Deem and Ramdas Pophale) SiO2 
 PCOD9526051
Probable space group: I B A M
;
_chemical_formula_sum "Si O2"
_cell_formula_units_Z 88
_cell_length_a 24.317955
_cell_length_b 8.568218
_cell_length_c 18.523012
_cell_angle_alpha 90.000000
_cell_angle_beta 90.000000
_cell_angle_gamma 90.000000
_cell_volume 3859.483301
_symmetry_space_group_name_H-M "I B A M"
_symmetry_group_IT_number 72
_symmetry_cell_setting 'orthorhombic'
loop_
_space_group_symop_operation_xyz
x,y,z
-x,-y,z
x,-y,1/2-z
-x,y,1/2-z
-x,-y,-z
x,y,-z
-x,y,1/2+z
x,-y,1/2+z
1/2+x,1/2+y,1/2+z
1/2-x,1/2-y,1/2+z
1/2+x,1/2-y,-z
1/2-x,1/2+y,-z
1/2-x,1/2-y,1/2-z
1/2+x,1/2+y,1/2-z
1/2-x,1/2+y,z
1/2+x,1/2-y,z
loop_
_atom_site_type_symbol
_atom_site_label
_atom_site_fract_x
_atom_site_fract_y
_atom_site_fract_z
Si Si1 0.188349 0.009555 0.413098
Si Si2 0.517922 0.810309 0.080986
Si Si3 0.089285 0.554932 0.357195
Si Si4 0.806684 0.628379 0.586650
Si Si5 0.391766 0.366594 0.695627
Si Si6 0.500000 0.500000 0.360996
O O1 0.184261 0.003721 0.500000
O O2 0.184380 0.191673 0.390135
O O3 0.247551 0.939299 0.391052
O O4 0.142323 0.902729 0.376633
O O5 0.452944 0.845795 0.091393
O O6 0.529175 0.629396 0.090784
O O7 0.550326 0.901001 0.144370
O O8 0.535407 0.856550 0.000000
O O9 0.145197 0.486327 0.388516
O O10 0.106317 0.678579 0.294898
O O11 0.806938 0.630903 0.500000
O O12 0.369690 0.500000 0.750000
O O13 0.454982 0.411814 0.684893
#
# Coordination Sequence:
#
# PCOD9526051 Si02
#       6
#    16  16  16  16  16   8
#     4  10  22  38  61  88 117 154 201 251 307 369
#     4  10  19  33  57  95 129 157 197 252 308 364
#     4  10  20  34  56  85 121 161 198 245 302 362
#     4  10  19  36  60  89 121 154 193 246 307 373
#     4  11  24  42  60  84 119 162 205 253 306 367
#     4  10  22  38  60  84 119 166 205 242 301 374
#
# _framework density 22.800979000000002
#
# number of rings (size 3 to 8) (size 9 to 14) (size 15 to 20)
#    0.000    1.818    0.000    4.909    0.000    8.000 
#    0.000    7.273    0.000    8.727    0.000    0.000 
#    0.000    0.000    0.000    0.000    0.000    0.000 
#
# Total GULP energy -245238.524979 kJ/mol
# GULP energy per Si atom -5573.602840 kJ/mol
# Density = 2.274908 g / cm^3
# Si number density = 22.800979 Si / 1000 Ang^3
#
#
#
# Elastic Constant Matrix: (Units=GPa)
#
#
# Indices 1 2 3 4 5 6 
#
# 1 120.1765 24.4147 11.3131 0.0000 0.0000 0.0000
# 2 24.4147 164.4885 31.0853 0.0000 0.0000 0.0000
# 3 11.3131 31.0853 38.0298 0.0000 0.0000 0.0000
# 4 0.0000 0.0000 0.0000 9.7392 0.0000 0.0000
# 5 0.0000 0.0000 0.0000 0.0000 15.8033 0.0000
# 6 0.0000 0.0000 0.0000 0.0000 0.0000 35.2647
#
#
#
# Elastic Compliance Matrix: (Units=1/GPa)
#
#
# Indices 1 2 3 4 5 6 
#
# 1 0.008684 -0.000947 -0.001809 0.000000 0.000000 0.000000
# 2 -0.000947 0.007293 -0.005680 0.000000 0.000000 0.000000
# 3 -0.001809 -0.005680 0.031476 0.000000 0.000000 0.000000
# 4 0.000000 0.000000 0.000000 0.102678 0.000000 0.000000
# 5 0.000000 0.000000 0.000000 0.000000 0.063278 0.000000
# 6 0.000000 0.000000 0.000000 0.000000 0.000000 0.028357
#
#
# Mechanical properties :
#
#
# Convention : Reuss Voigt Hill
#
# Bulk Modulus (GPa) = 32.69990 50.70235 41.70112
# Shear Modulus (GPa) = 18.59900 29.22022 23.90961
#
# Velocity S-wave (km/s) = 2.85916 3.58374 3.24176
# Velocity P-wave (km/s) = 5.02716 6.27769 5.68690
#
# Compressibility (1/GPa) = 0.03058113
#
# Stress axis : x y z
#
# Youngs Moduli (GPa) = 115.15695 137.11011 31.77018
#
# Poissons Ratio (x) = 0.12985 0.05748
# Poissons Ratio (y) = 0.10906 0.18045
# Poissons Ratio (z) = 0.20834 0.77877
#
# Static dielectric constant tensor:
#      x y z
#    x 1.822950 0.000000 0.000000 
#    y 0.000000 1.967910 0.000000 
#    z 0.000000 0.000000 1.898790 
# 
# From -- ./inp_files/40161.got.cif
#   From: 2010.05.17/outbox.cif.g08.bks.cpg/sg72_21_cif.got.tgz:40161.got - 2010.06.03 17:03:01.
