data_PCOD9526945
_publ_section_title
;
Structure prediction by ZEFSAII (Michael W. Deem and Ramdas Pophale) SiO2 
 PCOD9526945
Probable space group: I B A M
;
_chemical_formula_sum "Si O2"
_cell_formula_units_Z 116
_cell_length_a 12.580661
_cell_length_b 25.155866
_cell_length_c 18.371622
_cell_angle_alpha 90.000000
_cell_angle_beta 90.000000
_cell_angle_gamma 90.000000
_cell_volume 5814.203574
_symmetry_space_group_name_H-M "I B A M"
_symmetry_group_IT_number 72
_symmetry_cell_setting 'orthorhombic'
loop_
_space_group_symop_operation_xyz
x,y,z
-x,-y,z
x,-y,1/2-z
-x,y,1/2-z
-x,-y,-z
x,y,-z
-x,y,1/2+z
x,-y,1/2+z
1/2+x,1/2+y,1/2+z
1/2-x,1/2-y,1/2+z
1/2+x,1/2-y,-z
1/2-x,1/2+y,-z
1/2-x,1/2-y,1/2-z
1/2+x,1/2+y,1/2-z
1/2-x,1/2+y,z
1/2+x,1/2-y,z
loop_
_atom_site_type_symbol
_atom_site_label
_atom_site_fract_x
_atom_site_fract_y
_atom_site_fract_z
Si Si1 0.388627 0.623686 0.417841
Si Si2 0.100363 0.089590 0.845660
Si Si3 0.839747 0.178569 0.767088
Si Si4 0.500000 0.500000 0.750000
Si Si5 0.985376 0.358371 0.915436
Si Si6 0.684222 0.951352 0.914578
Si Si7 0.893445 0.300745 0.786023
Si Si8 0.169002 0.431594 0.084975
O O1 0.383733 0.646272 0.500000
O O2 0.505277 0.600312 0.402340
O O3 0.360874 0.661272 0.349945
O O4 0.294378 0.580418 0.412860
O O5 0.104896 0.139478 0.790601
O O6 0.070082 0.038146 0.799320
O O7 0.213685 0.077003 0.880383
O O8 0.879725 0.239073 0.764262
O O9 0.716289 0.175045 0.742934
O O10 0.913250 0.411079 0.909682
O O11 0.922239 0.313613 0.869843
O O12 0.100050 0.380965 0.888199
O O13 0.994615 0.341798 0.000000
O O14 0.655129 0.009493 0.882790
O O15 0.708357 0.959699 0.000000
O O16 0.000000 0.323039 0.750000
O O17 0.135552 0.434705 0.000000
#
# Coordination Sequence:
#
# PCOD9526945 Si02
#       8
#    16  16  16   4  16  16  16  16
#     4  11  22  39  63  89 122 161 206 257 305 368
#     4  12  22  40  59  92 124 164 203 256 308 376
#     4  11  24  43  64  88 127 160 210 259 316 370
#     4  12  24  36  66  84 126 164 202 248 306 366
#     4  10  20  38  63  91 124 160 208 261 305 370
#     4  10  20  35  59  90 125 163 202 249 311 374
#     4  11  23  42  66  89 118 171 208 258 315 373
#     4   9  19  35  58  89 125 164 199 245 311 368
#
# _framework density 19.951142000000001
#
# number of rings (size 3 to 8) (size 9 to 14) (size 15 to 20)
#    0.000    1.379    2.759    3.310    0.000    2.207 
#    0.000    2.759    0.000    1.655    0.000    0.000 
#    0.000    0.000    0.000    0.000    0.000    0.000 
#
# Total GULP energy -323359.659347 kJ/mol
# GULP energy per Si atom -5575.166540 kJ/mol
# Density = 1.990573 g / cm^3
# Si number density = 19.951142 Si / 1000 Ang^3
#
#
#
# Elastic Constant Matrix: (Units=GPa)
#
#
# Indices 1 2 3 4 5 6 
#
# 1 113.4585 18.4129 30.1298 0.0000 0.0000 0.0000
# 2 18.4129 49.1644 15.4546 0.0000 0.0000 0.0000
# 3 30.1298 15.4546 75.8793 0.0000 0.0000 0.0000
# 4 0.0000 0.0000 0.0000 3.6320 0.0000 0.0000
# 5 0.0000 0.0000 0.0000 0.0000 27.4986 0.0000
# 6 0.0000 0.0000 0.0000 0.0000 0.0000 34.6836
#
#
#
# Elastic Compliance Matrix: (Units=1/GPa)
#
#
# Indices 1 2 3 4 5 6 
#
# 1 0.010181 -0.002716 -0.003490 0.000000 0.000000 0.000000
# 2 -0.002716 0.022456 -0.003495 0.000000 0.000000 0.000000
# 3 -0.003490 -0.003495 0.015276 0.000000 0.000000 0.000000
# 4 0.000000 0.000000 0.000000 0.275327 0.000000 0.000000
# 5 0.000000 0.000000 0.000000 0.000000 0.036366 0.000000
# 6 0.000000 0.000000 0.000000 0.000000 0.000000 0.028832
#
#
# Mechanical properties :
#
#
# Convention : Reuss Voigt Hill
#
# Bulk Modulus (GPa) = 35.07322 40.72187 37.89755
# Shear Modulus (GPa) = 11.98055 24.79651 18.38853
#
# Velocity S-wave (km/s) = 2.45316 3.52925 3.03921
# Velocity P-wave (km/s) = 5.06376 6.08790 5.59930
#
# Compressibility (1/GPa) = 0.02851178
#
# Stress axis : x y z
#
# Youngs Moduli (GPa) = 98.21969 44.53188 65.46086
#
# Poissons Ratio (x) = 0.12095 0.22843
# Poissons Ratio (y) = 0.26678 0.22880
# Poissons Ratio (z) = 0.34274 0.15565
#
# Static dielectric constant tensor:
#      x y z
#    x 1.730110 0.000000 0.000000 
#    y 0.000000 1.708770 0.000000 
#    z 0.000000 0.000000 1.743910 
# 
# From -- ./inp_files/29697.got.cif
#   From: 2010.05.17/outbox.cif.g08.bks.cpg/sg72_15_cif.got.tgz:29697.got - 2010.06.03 17:03:01.
