data_PCOD9526230
_publ_section_title
;
Structure prediction by ZEFSAII (Michael W. Deem and Ramdas Pophale) SiO2 
 PCOD9526230
Probable space group: I B A M
;
_chemical_formula_sum "Si O2"
_cell_formula_units_Z 100
_cell_length_a 33.109837
_cell_length_b 17.494470
_cell_length_c 8.974891
_cell_angle_alpha 90.000000
_cell_angle_beta 90.000000
_cell_angle_gamma 90.000000
_cell_volume 5198.607338
_symmetry_space_group_name_H-M "I B A M"
_symmetry_group_IT_number 72
_symmetry_cell_setting 'orthorhombic'
loop_
_space_group_symop_operation_xyz
x,y,z
-x,-y,z
x,-y,1/2-z
-x,y,1/2-z
-x,-y,-z
x,y,-z
-x,y,1/2+z
x,-y,1/2+z
1/2+x,1/2+y,1/2+z
1/2-x,1/2-y,1/2+z
1/2+x,1/2-y,-z
1/2-x,1/2+y,-z
1/2-x,1/2-y,1/2-z
1/2+x,1/2+y,1/2-z
1/2-x,1/2+y,z
1/2+x,1/2-y,z
loop_
_atom_site_type_symbol
_atom_site_label
_atom_site_fract_x
_atom_site_fract_y
_atom_site_fract_z
Si Si1 0.803275 0.084414 0.678492
Si Si2 0.875401 0.825292 0.672256
Si Si3 0.143883 0.644665 0.830997
Si Si4 0.457722 0.705477 0.823367
Si Si5 0.066311 0.381312 0.165488
Si Si6 0.278552 0.083968 0.322542
Si Si7 0.000000 0.500000 0.250000
O O1 0.800558 0.080124 0.500000
O O2 0.841665 0.132156 0.732060
O O3 0.761861 0.118167 0.747724
O O4 0.806826 0.000000 0.750000
O O5 0.874564 0.851058 0.500000
O O6 0.865641 0.734806 0.673279
O O7 0.919614 0.833474 0.743812
O O8 0.102627 0.603495 0.779450
O O9 0.181022 0.627545 0.723476
O O10 0.154356 0.622275 0.000000
O O11 0.500000 0.683260 0.750000
O O12 0.451766 0.797278 0.802236
O O13 0.457598 0.691080 0.000000
O O14 0.030729 0.442909 0.168001
O O15 0.084421 0.377982 0.000000
O O16 0.282628 0.000000 0.250000
O O17 0.273757 0.920828 0.000000
#
# Coordination Sequence:
#
# PCOD9526230 Si02
#       7
#    16  16  16  16  16  16   4
#     4  11  22  39  63  90 119 149 184 228 280 343
#     4  10  21  38  60  87 116 150 191 236 285 340
#     4  10  22  39  58  81 113 151 195 244 292 340
#     4  10  19  35  56  80 110 148 190 235 285 336
#     4  10  22  36  52  75 107 148 195 244 291 338
#     4  11  22  38  59  82 114 153 194 238 287 342
#     4  12  22  36  52  78 110 152 202 250 294 340
#
# _framework density 19.235918999999999
#
# number of rings (size 3 to 8) (size 9 to 14) (size 15 to 20)
#    0.000    1.600    0.800    5.520    1.120    4.480 
#    0.000    0.000    0.000    0.480    0.000    3.360 
#    0.000    0.000    0.000    0.000    0.000    0.000 
#
# Total GULP energy -279245.981627 kJ/mol
# GULP energy per Si atom -5584.919633 kJ/mol
# Density = 1.919214 g / cm^3
# Si number density = 19.235919 Si / 1000 Ang^3
#
#
#
# Elastic Constant Matrix: (Units=GPa)
#
#
# Indices 1 2 3 4 5 6 
#
# 1 153.7314 24.0450 83.6952 0.0000 0.0000 0.0000
# 2 24.0450 17.9389 19.9344 0.0000 0.0000 0.0000
# 3 83.6952 19.9344 169.5119 0.0000 0.0000 0.0000
# 4 0.0000 0.0000 0.0000 19.9192 0.0000 0.0000
# 5 0.0000 0.0000 0.0000 0.0000 36.4605 0.0000
# 6 0.0000 0.0000 0.0000 0.0000 0.0000 29.7761
#
#
#
# Elastic Compliance Matrix: (Units=1/GPa)
#
#
# Indices 1 2 3 4 5 6 
#
# 1 0.010053 -0.009156 -0.003887 0.000000 0.000000 0.000000
# 2 -0.009156 0.072463 -0.004001 0.000000 0.000000 0.000000
# 3 -0.003887 -0.004001 0.008289 0.000000 0.000000 0.000000
# 4 0.000000 0.000000 0.000000 0.050203 0.000000 0.000000
# 5 0.000000 0.000000 0.000000 0.000000 0.027427 0.000000
# 6 0.000000 0.000000 0.000000 0.000000 0.000000 0.033584
#
#
# Mechanical properties :
#
#
# Convention : Reuss Voigt Hill
#
# Bulk Modulus (GPa) = 17.63122 66.28127 41.95624
# Shear Modulus (GPa) = 19.60699 31.46501 25.53600
#
# Velocity S-wave (km/s) = 3.19610 4.04882 3.64746
# Velocity P-wave (km/s) = 4.77553 7.50927 6.29265
#
# Compressibility (1/GPa) = 0.05671758
#
# Stress axis : x y z
#
# Youngs Moduli (GPa) = 99.47281 13.80021 120.64280
#
# Poissons Ratio (x) = 0.12635 0.46893
# Poissons Ratio (y) = 0.91073 0.48269
# Poissons Ratio (z) = 0.38664 0.05521
#
# Static dielectric constant tensor:
#      x y z
#    x 1.665710 0.000000 0.000000 
#    y 0.000000 1.667770 0.000000 
#    z 0.000000 0.000000 1.667110 
# 
# From -- ./inp_files/8202.got.cif
#   From: 2010.05.17/outbox.cif.g08.bks.cpg/sg72_5_cif.got.tgz:8202.got - 2010.06.03 17:03:01.
