data_PCOD9526339
_publ_section_title
;
Structure prediction by ZEFSAII (Michael W. Deem and Ramdas Pophale) SiO2 
 PCOD9526339
Probable space group: I B A M
;
_chemical_formula_sum "Si O2"
_cell_formula_units_Z 64
_cell_length_a 29.292597
_cell_length_b 4.937574
_cell_length_c 20.676755
_cell_angle_alpha 90.000000
_cell_angle_beta 90.000000
_cell_angle_gamma 90.000000
_cell_volume 2990.569337
_symmetry_space_group_name_H-M "I B A M"
_symmetry_group_IT_number 72
_symmetry_cell_setting 'orthorhombic'
loop_
_space_group_symop_operation_xyz
x,y,z
-x,-y,z
x,-y,1/2-z
-x,y,1/2-z
-x,-y,-z
x,y,-z
-x,y,1/2+z
x,-y,1/2+z
1/2+x,1/2+y,1/2+z
1/2-x,1/2-y,1/2+z
1/2+x,1/2-y,-z
1/2-x,1/2+y,-z
1/2-x,1/2-y,1/2-z
1/2+x,1/2+y,1/2-z
1/2-x,1/2+y,z
1/2+x,1/2-y,z
loop_
_atom_site_type_symbol
_atom_site_label
_atom_site_fract_x
_atom_site_fract_y
_atom_site_fract_z
Si Si1 0.597379 0.000000 0.250000
Si Si2 0.034537 0.247488 0.000000
Si Si3 0.654753 0.500000 0.250000
Si Si4 0.465853 0.248710 0.640362
Si Si5 0.781231 0.893454 0.000000
Si Si6 0.718227 0.732318 0.639031
O O1 0.626327 0.248431 0.279976
O O2 0.567856 0.162912 0.197232
O O3 0.058556 0.228104 0.069960
O O4 0.000000 0.500000 0.000000
O O5 0.000000 0.000000 0.000000
O O6 0.685148 0.644937 0.304176
O O7 0.500000 0.500000 0.653751
O O8 0.500000 0.000000 0.634579
O O9 0.803511 0.822044 0.068369
O O10 0.735743 0.702197 0.000000
O O11 0.762562 0.535204 0.643453
#
# Coordination Sequence:
#
# PCOD9526339 Si02
#       6
#     8   8   8  16   8  16
#     4  12  25  37  52  84 121 148 179 228 282 335
#     4   8  16  32  58  84 102 128 182 238 272 316
#     4  12  24  37  51  80 119 150 181 226 277 333
#     4  10  20  38  61  82 105 143 188 229 274 333
#     4   8  16  30  54  82 102 128 185 242 271 310
#     4  10  19  36  59  80 104 145 191 230 272 328
#
# _framework density 21.400607000000001
#
# number of rings (size 3 to 8) (size 9 to 14) (size 15 to 20)
#    0.000    2.000    0.000    4.125    0.000    1.000 
#    0.000    2.500    0.000    0.000    0.000    0.000 
#    0.000    0.000    0.000    0.000    0.000    0.000 
#
# Total GULP energy -178431.303115 kJ/mol
# GULP energy per Si atom -5575.978222 kJ/mol
# Density = 2.135190 g / cm^3
# Si number density = 21.400607 Si / 1000 Ang^3
#
#
#
# Elastic Constant Matrix: (Units=GPa)
#
#
# Indices 1 2 3 4 5 6 
#
# 1 30.3149 10.2664 33.3333 0.0000 0.0000 0.0000
# 2 10.2664 125.3369 -2.2705 0.0000 0.0000 0.0000
# 3 33.3333 -2.2705 138.0437 0.0000 0.0000 0.0000
# 4 0.0000 0.0000 0.0000 28.3187 0.0000 0.0000
# 5 0.0000 0.0000 0.0000 0.0000 -28.0935 0.0000
# 6 0.0000 0.0000 0.0000 0.0000 0.0000 17.3469
#
#
#
# Elastic Compliance Matrix: (Units=1/GPa)
#
#
# Indices 1 2 3 4 5 6 
#
# 1 0.046877 -0.004046 -0.011386 0.000000 0.000000 0.000000
# 2 -0.004046 0.008330 0.001114 0.000000 0.000000 0.000000
# 3 -0.011386 0.001114 0.010012 0.000000 0.000000 0.000000
# 4 0.000000 0.000000 0.000000 0.035312 0.000000 0.000000
# 5 0.000000 0.000000 0.000000 0.000000 -0.035595 0.000000
# 6 0.000000 0.000000 0.000000 0.000000 0.000000 0.057647
#
#
# Mechanical properties :
#
#
# Convention : Reuss Voigt Hill
#
# Bulk Modulus (GPa) = 27.33514 41.81709 34.57612
# Shear Modulus (GPa) = 30.59741 20.33884 25.46813
#
# Velocity S-wave (km/s) = 3.78530 3.08618 3.45348
# Velocity P-wave (km/s) = 5.64849 5.68172 5.66513
#
# Compressibility (1/GPa) = 0.03658294
#
# Stress axis : x y z
#
# Youngs Moduli (GPa) = 21.33255 120.04681 99.88275
#
# Poissons Ratio (x) = 0.48570 1.13725
# Poissons Ratio (y) = 0.08631 -0.11127
# Poissons Ratio (z) = 0.24289 -0.13373
#
# Static dielectric constant tensor:
#      x y z
#    x 1.745040 0.000000 0.000000 
#    y 0.000000 1.732160 0.000000 
#    z 0.000000 0.000000 1.927750 
# 
# From -- ./inp_files/34817.got.cif
#   From: 2010.05.17/outbox.cif.g08.bks.cpg/sg72_18_cif.got.tgz:34817.got - 2010.06.03 17:03:01.
