data_PCOD9526741
_publ_section_title
;
Structure prediction by ZEFSAII (Michael W. Deem and Ramdas Pophale) SiO2 
 PCOD9526741
Probable space group: I B A M
;
_chemical_formula_sum "Si O2"
_cell_formula_units_Z 68
_cell_length_a 23.797486
_cell_length_b 9.286366
_cell_length_c 13.175979
_cell_angle_alpha 90.000000
_cell_angle_beta 90.000000
_cell_angle_gamma 90.000000
_cell_volume 2911.788124
_symmetry_space_group_name_H-M "I B A M"
_symmetry_group_IT_number 72
_symmetry_cell_setting 'orthorhombic'
loop_
_space_group_symop_operation_xyz
x,y,z
-x,-y,z
x,-y,1/2-z
-x,y,1/2-z
-x,-y,-z
x,y,-z
-x,y,1/2+z
x,-y,1/2+z
1/2+x,1/2+y,1/2+z
1/2-x,1/2-y,1/2+z
1/2+x,1/2-y,-z
1/2-x,1/2+y,-z
1/2-x,1/2-y,1/2-z
1/2+x,1/2+y,1/2-z
1/2-x,1/2+y,z
1/2+x,1/2-y,z
loop_
_atom_site_type_symbol
_atom_site_label
_atom_site_fract_x
_atom_site_fract_y
_atom_site_fract_z
Si Si1 0.418941 0.930604 0.611762
Si Si2 0.067479 0.263995 0.820915
Si Si3 0.795149 0.650929 0.614467
Si Si4 0.321381 0.638008 0.201389
Si Si5 0.000000 0.000000 0.250000
O O1 0.429452 0.869910 0.500000
O O2 0.433019 0.822799 0.703619
O O3 0.350500 0.948718 0.621436
O O4 0.447176 0.087546 0.622401
O O5 0.130655 0.224808 0.855517
O O6 0.033747 0.114948 0.820175
O O7 0.794228 0.709363 0.500000
O O8 0.733536 0.589600 0.639542
O O9 0.803627 0.767810 0.701704
O O10 0.350305 0.500000 0.250000
#
# Coordination Sequence:
#
# PCOD9526741 Si02
#       5
#    16  16  16  16   4
#     4   9  20  41  65  91 120 159 201 239 287 361
#     4  10  22  41  64  86 119 158 202 252 300 351
#     4   9  20  34  56  87 122 160 195 228 283 358
#     4  10  20  34  55  85 123 158 192 242 290 343
#     4  12  24  46  66  88 116 156 196 256 330 356
#
# _framework density 23.353348
#
# number of rings (size 3 to 8) (size 9 to 14) (size 15 to 20)
#    0.000    2.353    1.176    0.000    9.882    3.765 
#    0.000    4.706    0.000    0.000    0.000    0.000 
#    0.000    0.000    0.000    0.000    0.000    0.000 
#
# Total GULP energy -189516.429126 kJ/mol
# GULP energy per Si atom -5574.012621 kJ/mol
# Density = 2.330019 g / cm^3
# Si number density = 23.353348 Si / 1000 Ang^3
#
#
#
# Elastic Constant Matrix: (Units=GPa)
#
#
# Indices 1 2 3 4 5 6 
#
# 1 92.4779 45.9958 16.5975 0.0000 0.0000 0.0000
# 2 45.9958 110.5777 -2.8817 0.0000 0.0000 0.0000
# 3 16.5975 -2.8817 76.2672 0.0000 0.0000 0.0000
# 4 0.0000 0.0000 0.0000 4.7929 0.0000 0.0000
# 5 0.0000 0.0000 0.0000 0.0000 10.3911 0.0000
# 6 0.0000 0.0000 0.0000 0.0000 0.0000 -20.1528
#
#
#
# Elastic Compliance Matrix: (Units=1/GPa)
#
#
# Indices 1 2 3 4 5 6 
#
# 1 0.014453 -0.006100 -0.003376 0.000000 0.000000 0.000000
# 2 -0.006100 0.011627 0.001767 0.000000 0.000000 0.000000
# 3 -0.003376 0.001767 0.013913 0.000000 0.000000 0.000000
# 4 0.000000 0.000000 0.000000 0.208644 0.000000 0.000000
# 5 0.000000 0.000000 0.000000 0.000000 0.096236 0.000000
# 6 0.000000 0.000000 0.000000 0.000000 0.000000 -0.049621
#
#
# Mechanical properties :
#
#
# Convention : Reuss Voigt Hill
#
# Bulk Modulus (GPa) = 40.69133 44.30514 42.49824
# Shear Modulus (GPa) = 15.68076 13.64697 14.66386
#
# Velocity S-wave (km/s) = 2.59406 2.41999 2.50854
# Velocity P-wave (km/s) = 5.14142 5.17893 5.16021
#
# Compressibility (1/GPa) = 0.02457526
#
# Stress axis : x y z
#
# Youngs Moduli (GPa) = 69.18887 86.00838 71.87415
#
# Poissons Ratio (x) = 0.52464 0.24264
# Poissons Ratio (y) = 0.42205 -0.12699
# Poissons Ratio (z) = 0.23357 -0.15196
#
# Static dielectric constant tensor:
#      x y z
#    x 2.038780 0.000000 0.000000 
#    y 0.000000 1.838940 0.000000 
#    z 0.000000 0.000000 1.829110 
# 
# From -- ./inp_files/25656.got.cif
#   From: 2010.05.17/outbox.cif.g08.bks.cpg/sg72_13_cif.got.tgz:25656.got - 2010.06.03 17:03:01.
