data_PCOD9526475
_publ_section_title
;
Structure prediction by ZEFSAII (Michael W. Deem and Ramdas Pophale) SiO2 
 PCOD9526475
Probable space group: I B A M
;
_chemical_formula_sum "Si O2"
_cell_formula_units_Z 68
_cell_length_a 30.537944
_cell_length_b 8.647543
_cell_length_c 14.026138
_cell_angle_alpha 90.000000
_cell_angle_beta 90.000000
_cell_angle_gamma 90.000000
_cell_volume 3703.997050
_symmetry_space_group_name_H-M "I B A M"
_symmetry_group_IT_number 72
_symmetry_cell_setting 'orthorhombic'
loop_
_space_group_symop_operation_xyz
x,y,z
-x,-y,z
x,-y,1/2-z
-x,y,1/2-z
-x,-y,-z
x,y,-z
-x,y,1/2+z
x,-y,1/2+z
1/2+x,1/2+y,1/2+z
1/2-x,1/2-y,1/2+z
1/2+x,1/2-y,-z
1/2-x,1/2+y,-z
1/2-x,1/2-y,1/2-z
1/2+x,1/2+y,1/2-z
1/2-x,1/2+y,z
1/2+x,1/2-y,z
loop_
_atom_site_type_symbol
_atom_site_label
_atom_site_fract_x
_atom_site_fract_y
_atom_site_fract_z
Si Si1 0.159047 0.379093 0.330258
Si Si2 0.214840 0.502775 0.500000
Si Si3 0.000000 0.500000 0.250000
Si Si4 0.810031 0.871882 0.000000
Si Si5 0.077286 0.420529 0.113162
Si Si6 0.365853 0.364307 0.689302
O O1 0.171438 0.500000 0.250000
O O2 0.192631 0.412858 0.412812
O O3 0.109970 0.433948 0.363504
O O4 0.160650 0.217638 0.275675
O O5 0.201117 0.685288 0.500000
O O6 0.266224 0.473016 0.500000
O O7 0.966270 0.579284 0.176507
O O8 0.836871 0.907503 0.097139
O O9 0.103194 0.268378 0.146527
O O10 0.069359 0.418780 0.000000
O O11 0.388794 0.500000 0.750000
#
# Coordination Sequence:
#
# PCOD9526475 Si02
#       6
#    16   8   4   8  16  16
#     4  10  19  40  65  81 121 174 205 255 326 369
#     4  12  24  40  62  90 125 165 224 271 311 374
#     4  12  22  36  74 110 112 160 232 252 308 402
#     4  12  26  42  60  94 128 166 223 280 308 380
#     4  11  20  42  68  94 128 164 210 268 319 375
#     4  11  23  41  64  89 128 176 207 258 335 381
#
# _framework density 18.358544999999999
#
# number of rings (size 3 to 8) (size 9 to 14) (size 15 to 20)
#    0.000    0.941   10.588    0.353    3.294    1.882 
#    0.000    0.588    0.000    1.412    0.000    0.000 
#    0.000    0.000    0.000    0.000    0.000    0.000 
#
# Total GULP energy -189270.970393 kJ/mol
# GULP energy per Si atom -5566.793247 kJ/mol
# Density = 1.831676 g / cm^3
# Si number density = 18.358545 Si / 1000 Ang^3
#
#
#
# Elastic Constant Matrix: (Units=GPa)
#
#
# Indices 1 2 3 4 5 6 
#
# 1 97.1234 -2.7439 53.5079 0.0000 0.0000 0.0000
# 2 -2.7439 16.0061 30.6965 0.0000 0.0000 0.0000
# 3 53.5079 30.6965 178.1051 0.0000 0.0000 0.0000
# 4 0.0000 0.0000 0.0000 19.5546 0.0000 0.0000
# 5 0.0000 0.0000 0.0000 0.0000 38.6524 0.0000
# 6 0.0000 0.0000 0.0000 0.0000 0.0000 3.1943
#
#
#
# Elastic Compliance Matrix: (Units=1/GPa)
#
#
# Indices 1 2 3 4 5 6 
#
# 1 0.014774 0.016498 -0.007282 0.000000 0.000000 0.000000
# 2 0.016498 0.111746 -0.024216 0.000000 0.000000 0.000000
# 3 -0.007282 -0.024216 0.011976 0.000000 0.000000 0.000000
# 4 0.000000 0.000000 0.000000 0.051139 0.000000 0.000000
# 5 0.000000 0.000000 0.000000 0.000000 0.025872 0.000000
# 6 0.000000 0.000000 0.000000 0.000000 0.000000 0.313061
#
#
# Mechanical properties :
#
#
# Convention : Reuss Voigt Hill
#
# Bulk Modulus (GPa) = 9.21691 50.46175 29.83933
# Shear Modulus (GPa) = 8.40714 26.26519 17.33616
#
# Velocity S-wave (km/s) = 2.14228 3.78654 3.07630
# Velocity P-wave (km/s) = 3.33924 6.83108 5.37653
#
# Compressibility (1/GPa) = 0.10849626
#
# Stress axis : x y z
#
# Youngs Moduli (GPa) = 67.68570 8.94889 83.50005
#
# Poissons Ratio (x) = -0.14764 0.60805
# Poissons Ratio (y) = -1.11669 2.02203
# Poissons Ratio (z) = 0.49289 0.21671
#
# Static dielectric constant tensor:
#      x y z
#    x 1.638250 0.000000 0.000000 
#    y 0.000000 1.742200 0.000000 
#    z 0.000000 0.000000 1.621090 
# 
# From -- ./inp_files/18828.got.cif
#   From: 2010.05.17/outbox.cif.g08.bks.cpg/sg72_10_cif.got.tgz:18828.got - 2010.06.03 17:03:01.
