data_PCOD9526348
_publ_section_title
;
Structure prediction by ZEFSAII (Michael W. Deem and Ramdas Pophale) SiO2 
 PCOD9526348
Probable space group: I B A M
;
_chemical_formula_sum "Si O2"
_cell_formula_units_Z 64
_cell_length_a 8.440540
_cell_length_b 19.398170
_cell_length_c 14.677168
_cell_angle_alpha 90.000000
_cell_angle_beta 90.000000
_cell_angle_gamma 90.000000
_cell_volume 2403.107831
_symmetry_space_group_name_H-M "I B A M"
_symmetry_group_IT_number 72
_symmetry_cell_setting 'orthorhombic'
loop_
_space_group_symop_operation_xyz
x,y,z
-x,-y,z
x,-y,1/2-z
-x,y,1/2-z
-x,-y,-z
x,y,-z
-x,y,1/2+z
x,-y,1/2+z
1/2+x,1/2+y,1/2+z
1/2-x,1/2-y,1/2+z
1/2+x,1/2-y,-z
1/2-x,1/2+y,-z
1/2-x,1/2-y,1/2-z
1/2+x,1/2+y,1/2-z
1/2-x,1/2+y,z
1/2+x,1/2-y,z
loop_
_atom_site_type_symbol
_atom_site_label
_atom_site_fract_x
_atom_site_fract_y
_atom_site_fract_z
Si Si1 0.416836 0.648581 0.387414
Si Si2 0.751550 0.480551 0.603460
Si Si3 0.225131 0.774108 0.604591
Si Si4 0.054325 0.606809 0.850525
O O1 0.415528 0.647121 0.500000
O O2 0.383295 0.570274 0.360044
O O3 0.279482 0.701307 0.355640
O O4 0.579572 0.683033 0.355687
O O5 0.713428 0.502546 0.500000
O O6 0.808373 0.548521 0.654407
O O7 0.907266 0.430828 0.601115
O O8 0.181756 0.759980 0.500000
O O9 0.375343 0.825185 0.605174
O O10 0.000000 0.623499 0.750000
#
# Coordination Sequence:
#
# PCOD9526348 Si02
#       4
#    16  16  16  16
#     4   9  19  34  60  91 120 152 199 250 295 346
#     4  10  19  36  60  86 112 152 200 246 296 353
#     4  10  19  36  59  88 121 157 196 244 295 353
#     4  11  22  36  56  83 119 159 197 242 295 354
#
# _framework density 26.632180000000002
#
# number of rings (size 3 to 8) (size 9 to 14) (size 15 to 20)
#    0.000    2.000    0.000    6.000    0.000    5.000 
#    0.000   10.000    0.000    6.000    0.000    0.000 
#    0.000    0.000    0.000    0.000    0.000    0.000 
#
# Total GULP energy -179283.800638 kJ/mol
# GULP energy per Si atom -5602.618770 kJ/mol
# Density = 2.657156 g / cm^3
# Si number density = 26.632180 Si / 1000 Ang^3
#
#
#
# Elastic Constant Matrix: (Units=GPa)
#
#
# Indices 1 2 3 4 5 6 
#
# 1 76.7466 32.2770 25.5653 0.0000 0.0000 0.0000
# 2 32.2770 138.7897 5.3837 0.0000 0.0000 0.0000
# 3 25.5653 5.3837 68.6922 0.0000 0.0000 0.0000
# 4 0.0000 0.0000 0.0000 5.4946 0.0000 0.0000
# 5 0.0000 0.0000 0.0000 0.0000 11.8830 0.0000
# 6 0.0000 0.0000 0.0000 0.0000 0.0000 49.6864
#
#
#
# Elastic Compliance Matrix: (Units=1/GPa)
#
#
# Indices 1 2 3 4 5 6 
#
# 1 0.016499 -0.003610 -0.005858 0.000000 0.000000 0.000000
# 2 -0.003610 0.008017 0.000715 0.000000 0.000000 0.000000
# 3 -0.005858 0.000715 0.016682 0.000000 0.000000 0.000000
# 4 0.000000 0.000000 0.000000 0.181996 0.000000 0.000000
# 5 0.000000 0.000000 0.000000 0.000000 0.084154 0.000000
# 6 0.000000 0.000000 0.000000 0.000000 0.000000 0.020126
#
#
# Mechanical properties :
#
#
# Convention : Reuss Voigt Hill
#
# Bulk Modulus (GPa) = 42.20615 45.63116 43.91865
# Shear Modulus (GPa) = 14.16925 28.14629 21.15777
#
# Velocity S-wave (km/s) = 2.30909 3.25445 2.82165
# Velocity P-wave (km/s) = 4.79494 5.59401 5.20982
#
# Compressibility (1/GPa) = 0.02369323
#
# Stress axis : x y z
#
# Youngs Moduli (GPa) = 60.60841 124.73616 59.94589
#
# Poissons Ratio (x) = 0.45028 0.35114
# Poissons Ratio (y) = 0.21879 -0.04287
# Poissons Ratio (z) = 0.35502 -0.08921
#
# Static dielectric constant tensor:
#      x y z
#    x 2.147890 0.000000 0.000000 
#    y 0.000000 2.010740 0.000000 
#    z 0.000000 0.000000 2.034650 
# 
# From -- ./inp_files/27678.got.cif
#   From: 2010.05.17/outbox.cif.g08.bks.cpg/sg72_14_cif.got.tgz:27678.got - 2010.06.03 17:03:01.
