data_PCOD9526583
_publ_section_title
;
Structure prediction by ZEFSAII (Michael W. Deem and Ramdas Pophale) SiO2 
 PCOD9526583
Probable space group: I B A M
;
_chemical_formula_sum "Si O2"
_cell_formula_units_Z 112
_cell_length_a 27.918977
_cell_length_b 12.737605
_cell_length_c 15.684960
_cell_angle_alpha 90.000000
_cell_angle_beta 90.000000
_cell_angle_gamma 90.000000
_cell_volume 5577.899608
_symmetry_space_group_name_H-M "I B A M"
_symmetry_group_IT_number 72
_symmetry_cell_setting 'orthorhombic'
loop_
_space_group_symop_operation_xyz
x,y,z
-x,-y,z
x,-y,1/2-z
-x,y,1/2-z
-x,-y,-z
x,y,-z
-x,y,1/2+z
x,-y,1/2+z
1/2+x,1/2+y,1/2+z
1/2-x,1/2-y,1/2+z
1/2+x,1/2-y,-z
1/2-x,1/2+y,-z
1/2-x,1/2-y,1/2-z
1/2+x,1/2+y,1/2-z
1/2-x,1/2+y,z
1/2+x,1/2-y,z
loop_
_atom_site_type_symbol
_atom_site_label
_atom_site_fract_x
_atom_site_fract_y
_atom_site_fract_z
Si Si1 0.881094 0.593667 0.817313
Si Si2 0.698597 0.214178 0.714208
Si Si3 0.297586 0.013325 0.096481
Si Si4 0.946735 0.241040 0.395856
Si Si5 0.032601 0.894230 0.098301
Si Si6 0.699584 0.408703 0.398738
Si Si7 0.613462 0.536497 0.396190
O O1 0.891459 0.500000 0.750000
O O2 0.844023 0.678370 0.776706
O O3 0.848985 0.539702 0.890541
O O4 0.926949 0.654064 0.853288
O O5 0.750000 0.250000 0.750000
O O6 0.707202 0.110277 0.658859
O O7 0.682523 0.309243 0.653805
O O8 0.255229 0.931970 0.116868
O O9 0.290468 0.048494 0.000000
O O10 0.947191 0.249330 0.500000
O O11 0.909778 0.146801 0.372407
O O12 0.998967 0.198053 0.367056
O O13 0.081250 0.939026 0.137742
O O14 0.042794 0.865016 0.000000
O O15 0.000000 0.000000 0.096439
O O16 0.693433 0.390574 0.500000
O O17 0.667988 0.510680 0.374626
O O18 0.609559 0.534515 0.500000
#
# Coordination Sequence:
#
# PCOD9526583 Si02
#       7
#    16  16  16  16  16  16  16
#     4  10  21  35  49  71 105 143 187 232 268 316
#     4  11  22  36  49  68 104 141 176 218 283 327
#     4  10  21  36  52  71  98 138 186 234 270 309
#     4   9  16  29  52  80 106 140 179 218 266 323
#     4   7  11  23  45  75 110 133 155 204 267 318
#     4  10  20  33  52  76 101 134 179 220 264 321
#     4   8  15  27  47  80 111 132 164 216 267 321
#
# _framework density 20.079243000000002
#
# number of rings (size 3 to 8) (size 9 to 14) (size 15 to 20)
#    0.000    2.714    1.429    2.571    2.000    0.000 
#    0.000    0.000    0.000    0.857    0.000   10.000 
#    0.000   19.429    0.000    0.000    0.000  154.571 
#
# Total GULP energy -312070.244202 kJ/mol
# GULP energy per Si atom -5572.682932 kJ/mol
# Density = 2.003354 g / cm^3
# Si number density = 20.079243 Si / 1000 Ang^3
#
#
#
# Elastic Constant Matrix: (Units=GPa)
#
#
# Indices 1 2 3 4 5 6 
#
# 1 53.5769 19.9525 5.8956 0.0000 0.0000 0.0000
# 2 19.9525 63.4824 16.2269 0.0000 0.0000 0.0000
# 3 5.8956 16.2269 30.2696 0.0000 0.0000 0.0000
# 4 0.0000 0.0000 0.0000 37.4870 0.0000 0.0000
# 5 0.0000 0.0000 0.0000 0.0000 6.6858 0.0000
# 6 0.0000 0.0000 0.0000 0.0000 0.0000 38.1209
#
#
#
# Elastic Compliance Matrix: (Units=1/GPa)
#
#
# Indices 1 2 3 4 5 6 
#
# 1 0.021150 -0.006483 -0.000644 0.000000 0.000000 0.000000
# 2 -0.006483 0.020241 -0.009588 0.000000 0.000000 0.000000
# 3 -0.000644 -0.009588 0.038302 0.000000 0.000000 0.000000
# 4 0.000000 0.000000 0.000000 0.026676 0.000000 0.000000
# 5 0.000000 0.000000 0.000000 0.000000 0.149571 0.000000
# 6 0.000000 0.000000 0.000000 0.000000 0.000000 0.026232
#
#
# Mechanical properties :
#
#
# Convention : Reuss Voigt Hill
#
# Bulk Modulus (GPa) = 21.61567 25.71988 23.66778
# Shear Modulus (GPa) = 15.10472 23.47567 19.29019
#
# Velocity S-wave (km/s) = 2.74570 3.42299 3.10288
# Velocity P-wave (km/s) = 4.56513 5.33475 4.96487
#
# Compressibility (1/GPa) = 0.04626273
#
# Stress axis : x y z
#
# Youngs Moduli (GPa) = 47.28155 49.40532 26.10848
#
# Poissons Ratio (x) = 0.32028 0.01682
# Poissons Ratio (y) = 0.30652 0.25033
# Poissons Ratio (z) = 0.03045 0.47370
#
# Static dielectric constant tensor:
#      x y z
#    x 1.738270 0.000000 0.000000 
#    y 0.000000 1.694780 0.000000 
#    z 0.000000 0.000000 1.761560 
# 
# From -- ./inp_files/26398.got.cif
#   From: 2010.05.17/outbox.cif.g08.bks.cpg/sg72_14_cif.got.tgz:26398.got - 2010.06.03 17:03:01.
