data_PCOD9526934
_publ_section_title
;
Structure prediction by ZEFSAII (Michael W. Deem and Ramdas Pophale) SiO2 
 PCOD9526934
Probable space group: I B A M
;
_chemical_formula_sum "Si O2"
_cell_formula_units_Z 64
_cell_length_a 8.832600
_cell_length_b 20.810205
_cell_length_c 18.566008
_cell_angle_alpha 90.000000
_cell_angle_beta 90.000000
_cell_angle_gamma 90.000000
_cell_volume 3412.584821
_symmetry_space_group_name_H-M "I B A M"
_symmetry_group_IT_number 72
_symmetry_cell_setting 'orthorhombic'
loop_
_space_group_symop_operation_xyz
x,y,z
-x,-y,z
x,-y,1/2-z
-x,y,1/2-z
-x,-y,-z
x,y,-z
-x,y,1/2+z
x,-y,1/2+z
1/2+x,1/2+y,1/2+z
1/2-x,1/2-y,1/2+z
1/2+x,1/2-y,-z
1/2-x,1/2+y,-z
1/2-x,1/2-y,1/2-z
1/2+x,1/2+y,1/2-z
1/2-x,1/2+y,z
1/2+x,1/2-y,z
loop_
_atom_site_type_symbol
_atom_site_label
_atom_site_fract_x
_atom_site_fract_y
_atom_site_fract_z
Si Si1 0.836475 0.690155 0.285649
Si Si2 0.676773 0.348624 0.585405
Si Si3 0.994442 0.727435 0.084480
Si Si4 0.672372 0.431138 0.723852
O O1 0.750000 0.750000 0.250000
O O2 0.875934 0.692774 0.369621
O O3 0.755399 0.625496 0.265105
O O4 0.000000 0.692348 0.250000
O O5 0.672582 0.364688 0.500000
O O6 0.531520 0.302473 0.603012
O O7 0.680715 0.408904 0.639885
O O8 0.830192 0.305237 0.597257
O O9 0.023488 0.722097 0.000000
O O10 0.734793 0.500000 0.750000
O O11 0.500000 0.430177 0.750000
#
# Coordination Sequence:
#
# PCOD9526934 Si02
#       4
#    16  16  16  16
#     4  12  21  36  62  91 121 155 201 255 310 360
#     4  10  21  39  62  91 125 159 201 258 313 366
#     4  10  20  35  58  94 124 154 199 250 309 364
#     4  11  25  42  59  86 123 166 212 252 302 368
#
# _framework density 18.754111999999999
#
# number of rings (size 3 to 8) (size 9 to 14) (size 15 to 20)
#    0.000    1.250    5.000    0.750    3.500    0.500 
#    0.000    3.750    0.000    3.000    0.000    0.000 
#    0.000    0.000    0.000    0.000    0.000    0.000 
#
# Total GULP energy -178360.197277 kJ/mol
# GULP energy per Si atom -5573.756165 kJ/mol
# Density = 1.871143 g / cm^3
# Si number density = 18.754112 Si / 1000 Ang^3
#
#
#
# Elastic Constant Matrix: (Units=GPa)
#
#
# Indices 1 2 3 4 5 6 
#
# 1 72.9975 49.9883 15.9723 0.0000 0.0000 0.0000
# 2 49.9883 154.6339 53.8930 0.0000 0.0000 0.0000
# 3 15.9723 53.8930 100.5531 0.0000 0.0000 0.0000
# 4 0.0000 0.0000 0.0000 27.6747 0.0000 0.0000
# 5 0.0000 0.0000 0.0000 0.0000 31.1892 0.0000
# 6 0.0000 0.0000 0.0000 0.0000 0.0000 30.0551
#
#
#
# Elastic Compliance Matrix: (Units=1/GPa)
#
#
# Indices 1 2 3 4 5 6 
#
# 1 0.017602 -0.005799 0.000312 0.000000 0.000000 0.000000
# 2 -0.005799 0.009863 -0.004365 0.000000 0.000000 0.000000
# 3 0.000312 -0.004365 0.012235 0.000000 0.000000 0.000000
# 4 0.000000 0.000000 0.000000 0.036134 0.000000 0.000000
# 5 0.000000 0.000000 0.000000 0.000000 0.032062 0.000000
# 6 0.000000 0.000000 0.000000 0.000000 0.000000 0.033272
#
#
# Mechanical properties :
#
#
# Convention : Reuss Voigt Hill
#
# Bulk Modulus (GPa) = 50.01028 63.09909 56.55468
# Shear Modulus (GPa) = 29.84412 31.67253 30.75832
#
# Velocity S-wave (km/s) = 3.99349 4.11400 4.05419
# Velocity P-wave (km/s) = 6.92734 7.50234 7.22057
#
# Compressibility (1/GPa) = 0.01999589
#
# Stress axis : x y z
#
# Youngs Moduli (GPa) = 56.81215 101.39137 81.73333
#
# Poissons Ratio (x) = 0.58796 -0.02550
# Poissons Ratio (y) = 0.32945 0.35676
# Poissons Ratio (z) = -0.01773 0.44257
#
# Static dielectric constant tensor:
#      x y z
#    x 1.690940 0.000000 0.000000 
#    y 0.000000 1.536010 0.000000 
#    z 0.000000 0.000000 1.744970 
# 
# From -- ./inp_files/27665.got.cif
#   From: 2010.05.17/outbox.cif.g08.bks.cpg/sg72_14_cif.got.tgz:27665.got - 2010.06.03 17:03:01.
