data_PCOD9526930
_publ_section_title
;
Structure prediction by ZEFSAII (Michael W. Deem and Ramdas Pophale) SiO2 
 PCOD9526930
Probable space group: I B A M
;
_chemical_formula_sum "Si O2"
_cell_formula_units_Z 72
_cell_length_a 10.608822
_cell_length_b 14.710201
_cell_length_c 24.717702
_cell_angle_alpha 90.000000
_cell_angle_beta 90.000000
_cell_angle_gamma 90.000000
_cell_volume 3857.392766
_symmetry_space_group_name_H-M "I B A M"
_symmetry_group_IT_number 72
_symmetry_cell_setting 'orthorhombic'
loop_
_space_group_symop_operation_xyz
x,y,z
-x,-y,z
x,-y,1/2-z
-x,y,1/2-z
-x,-y,-z
x,y,-z
-x,y,1/2+z
x,-y,1/2+z
1/2+x,1/2+y,1/2+z
1/2-x,1/2-y,1/2+z
1/2+x,1/2-y,-z
1/2-x,1/2+y,-z
1/2-x,1/2-y,1/2-z
1/2+x,1/2+y,1/2-z
1/2-x,1/2+y,z
1/2+x,1/2-y,z
loop_
_atom_site_type_symbol
_atom_site_label
_atom_site_fract_x
_atom_site_fract_y
_atom_site_fract_z
Si Si1 0.382111 0.055690 0.561287
Si Si2 0.174319 0.901411 0.440405
Si Si3 0.804639 0.731741 0.872118
Si Si4 0.049647 0.190914 0.689545
Si Si5 0.000000 0.000000 0.646292
O O1 0.414342 0.089326 0.500000
O O2 0.330725 0.135930 0.598659
O O3 0.500000 0.000000 0.584665
O O4 0.279232 0.977841 0.555228
O O5 0.114766 0.889146 0.500000
O O6 0.226511 0.806372 0.418114
O O7 0.086124 0.943173 0.394617
O O8 0.686623 0.727052 0.830419
O O9 0.937056 0.764430 0.846045
O O10 0.000000 0.208977 0.750000
O O11 0.058674 0.081234 0.681497
#
# Coordination Sequence:
#
# PCOD9526930 Si02
#       5
#    16  16  16  16   8
#     4  10  20  36  58  88 126 162 195 245 311 381
#     4  10  20  35  58  90 122 156 195 242 304 376
#     4  11  22  39  62  89 123 160 206 253 311 369
#     4  11  23  40  62  87 118 162 211 263 309 358
#     4  10  20  38  60  84 116 158 208 252 304 368
#
# _framework density 18.665458000000001
#
# number of rings (size 3 to 8) (size 9 to 14) (size 15 to 20)
#    0.000    1.556    2.222    3.333    0.000    0.000 
#    0.000    2.222    0.000    1.333    0.000    0.000 
#    0.000    0.000    0.000    0.000    0.000    0.000 
#
# Total GULP energy -200420.195650 kJ/mol
# GULP energy per Si atom -5567.227657 kJ/mol
# Density = 1.862297 g / cm^3
# Si number density = 18.665458 Si / 1000 Ang^3
#
#
#
# Elastic Constant Matrix: (Units=GPa)
#
#
# Indices 1 2 3 4 5 6 
#
# 1 80.5931 36.1526 25.2202 0.0000 0.0000 0.0000
# 2 36.1526 117.2089 41.6261 0.0000 0.0000 0.0000
# 3 25.2202 41.6261 76.6316 0.0000 0.0000 0.0000
# 4 0.0000 0.0000 0.0000 16.5435 0.0000 0.0000
# 5 0.0000 0.0000 0.0000 0.0000 29.2420 0.0000
# 6 0.0000 0.0000 0.0000 0.0000 0.0000 24.7089
#
#
#
# Elastic Compliance Matrix: (Units=1/GPa)
#
#
# Indices 1 2 3 4 5 6 
#
# 1 0.014933 -0.003545 -0.002989 0.000000 0.000000 0.000000
# 2 -0.003545 0.011412 -0.005033 0.000000 0.000000 0.000000
# 3 -0.002989 -0.005033 0.016767 0.000000 0.000000 0.000000
# 4 0.000000 0.000000 0.000000 0.060447 0.000000 0.000000
# 5 0.000000 0.000000 0.000000 0.000000 0.034197 0.000000
# 6 0.000000 0.000000 0.000000 0.000000 0.000000 0.040471
#
#
# Mechanical properties :
#
#
# Convention : Reuss Voigt Hill
#
# Bulk Modulus (GPa) = 50.05057 53.38127 51.71592
# Shear Modulus (GPa) = 24.03600 25.52785 24.78192
#
# Velocity S-wave (km/s) = 3.59238 3.70219 3.64770
# Velocity P-wave (km/s) = 6.63926 6.85098 6.74595
#
# Compressibility (1/GPa) = 0.01997979
#
# Stress axis : x y z
#
# Youngs Moduli (GPa) = 66.96354 87.62417 59.64092
#
# Poissons Ratio (x) = 0.31058 0.17829
# Poissons Ratio (y) = 0.23735 0.30015
# Poissons Ratio (z) = 0.20018 0.44098
#
# Static dielectric constant tensor:
#      x y z
#    x 1.597690 0.000000 0.000000 
#    y 0.000000 1.648140 0.000000 
#    z 0.000000 0.000000 1.745400 
# 
# From -- ./inp_files/43057.got.cif
#   From: 2010.05.17/outbox.cif.g08.bks.cpg/sg72_22_cif.got.tgz:43057.got - 2010.06.03 17:03:01.
