data_PCOD9526953
_publ_section_title
;
Structure prediction by ZEFSAII (Michael W. Deem and Ramdas Pophale) SiO2 
 PCOD9526953
Probable space group: I B A M
;
_chemical_formula_sum "Si O2"
_cell_formula_units_Z 116
_cell_length_a 22.101376
_cell_length_b 31.999394
_cell_length_c 9.157947
_cell_angle_alpha 90.000000
_cell_angle_beta 90.000000
_cell_angle_gamma 90.000000
_cell_volume 6476.780705
_symmetry_space_group_name_H-M "I B A M"
_symmetry_group_IT_number 72
_symmetry_cell_setting 'orthorhombic'
loop_
_space_group_symop_operation_xyz
x,y,z
-x,-y,z
x,-y,1/2-z
-x,y,1/2-z
-x,-y,-z
x,y,-z
-x,y,1/2+z
x,-y,1/2+z
1/2+x,1/2+y,1/2+z
1/2-x,1/2-y,1/2+z
1/2+x,1/2-y,-z
1/2-x,1/2+y,-z
1/2-x,1/2-y,1/2-z
1/2+x,1/2+y,1/2-z
1/2-x,1/2+y,z
1/2+x,1/2-y,z
loop_
_atom_site_type_symbol
_atom_site_label
_atom_site_fract_x
_atom_site_fract_y
_atom_site_fract_z
Si Si1 0.062486 0.843195 0.675110
Si Si2 0.101928 0.063404 0.166283
Si Si3 0.805673 0.694898 0.673943
Si Si4 0.168234 0.220384 0.174803
Si Si5 0.064117 0.544001 0.324341
Si Si6 0.672769 0.108195 0.826100
Si Si7 0.724627 0.457764 0.325803
Si Si8 0.000000 0.000000 0.250000
O O1 0.055898 0.841762 0.500000
O O2 0.079177 0.890932 0.713230
O O3 0.116275 0.812056 0.717173
O O4 0.000000 0.831444 0.750000
O O5 0.156652 0.049565 0.269251
O O6 0.046238 0.031064 0.168645
O O7 0.125170 0.066184 0.000000
O O8 0.812990 0.695087 0.500000
O O9 0.836855 0.735453 0.744444
O O10 0.734099 0.700843 0.707709
O O11 0.827955 0.651580 0.741103
O O12 0.165548 0.227024 0.000000
O O13 0.082263 0.500000 0.250000
O O14 0.057559 0.538789 0.500000
O O15 0.114725 0.578992 0.297653
O O16 0.000000 0.555195 0.250000
O O17 0.732225 0.081039 0.787262
O O18 0.675017 0.116433 0.000000
O O19 0.747595 0.500000 0.250000
O O20 0.725272 0.462867 0.500000
#
# Coordination Sequence:
#
# PCOD9526953 Si02
#       8
#    16  16  16  16  16  16  16   4
#     4  10  21  37  56  80 109 145 184 228 275 325
#     4  11  23  38  56  80 113 151 196 240 282 328
#     4  10  20  35  60  87 109 138 179 225 274 331
#     4   9  19  37  58  80 111 143 176 222 279 332
#     4  10  20  36  58  83 113 149 188 225 268 324
#     4  10  22  38  56  83 117 149 180 224 280 333
#     4  11  23  37  55  80 112 149 190 233 279 328
#     4  12  22  36  60  78 114 156 196 240 282 324
#
# _framework density 17.910132000000001
#
# number of rings (size 3 to 8) (size 9 to 14) (size 15 to 20)
#    0.000    1.793    1.379    3.103    0.000    5.517 
#    0.000    0.690    0.000    0.000    0.000    0.000 
#    0.000    0.000    0.000    0.000    0.000    0.000 
#
# Total GULP energy -323867.291972 kJ/mol
# GULP energy per Si atom -5583.918827 kJ/mol
# Density = 1.786937 g / cm^3
# Si number density = 17.910132 Si / 1000 Ang^3
#
#
#
# Elastic Constant Matrix: (Units=GPa)
#
#
# Indices 1 2 3 4 5 6 
#
# 1 86.3720 75.5090 37.0947 0.0000 0.0000 0.0000
# 2 75.5090 157.1580 57.3662 0.0000 0.0000 0.0000
# 3 37.0947 57.3662 53.4440 0.0000 0.0000 0.0000
# 4 0.0000 0.0000 0.0000 23.2515 0.0000 0.0000
# 5 0.0000 0.0000 0.0000 0.0000 21.1285 0.0000
# 6 0.0000 0.0000 0.0000 0.0000 0.0000 21.4424
#
#
#
# Elastic Compliance Matrix: (Units=1/GPa)
#
#
# Indices 1 2 3 4 5 6 
#
# 1 0.021143 -0.007895 -0.006200 0.000000 0.000000 0.000000
# 2 -0.007895 0.013410 -0.008915 0.000000 0.000000 0.000000
# 3 -0.006200 -0.008915 0.032584 0.000000 0.000000 0.000000
# 4 0.000000 0.000000 0.000000 0.043008 0.000000 0.000000
# 5 0.000000 0.000000 0.000000 0.000000 0.047330 0.000000
# 6 0.000000 0.000000 0.000000 0.000000 0.000000 0.046637
#
#
# Mechanical properties :
#
#
# Convention : Reuss Voigt Hill
#
# Bulk Modulus (GPa) = 47.35620 70.76820 59.06220
# Shear Modulus (GPa) = 19.44234 21.63141 20.53687
#
# Velocity S-wave (km/s) = 3.29834 3.47908 3.38991
# Velocity P-wave (km/s) = 6.40342 7.46574 6.95490
#
# Compressibility (1/GPa) = 0.02111656
#
# Stress axis : x y z
#
# Youngs Moduli (GPa) = 47.29711 74.56864 30.69014
#
# Poissons Ratio (x) = 0.58873 0.19029
# Poissons Ratio (y) = 0.37342 0.27359
# Poissons Ratio (z) = 0.29326 0.66476
#
# Static dielectric constant tensor:
#      x y z
#    x 1.599600 0.000000 0.000000 
#    y 0.000000 1.597210 0.000000 
#    z 0.000000 0.000000 1.605290 
# 
# From -- ./inp_files/7327.got.cif
#   From: 2010.05.17/outbox.cif.g08.bks.cpg/sg72_4_cif.got.tgz:7327.got - 2010.06.03 17:03:01.
