data_PCOD9526562
_publ_section_title
;
Structure prediction by ZEFSAII (Michael W. Deem and Ramdas Pophale) SiO2 
 PCOD9526562
Probable space group: I B A M
;
_chemical_formula_sum "Si O2"
_cell_formula_units_Z 80
_cell_length_a 16.521222
_cell_length_b 29.072563
_cell_length_c 8.646343
_cell_angle_alpha 90.000000
_cell_angle_beta 90.000000
_cell_angle_gamma 90.000000
_cell_volume 4152.961904
_symmetry_space_group_name_H-M "I B A M"
_symmetry_group_IT_number 72
_symmetry_cell_setting 'orthorhombic'
loop_
_space_group_symop_operation_xyz
x,y,z
-x,-y,z
x,-y,1/2-z
-x,y,1/2-z
-x,-y,-z
x,y,-z
-x,y,1/2+z
x,-y,1/2+z
1/2+x,1/2+y,1/2+z
1/2-x,1/2-y,1/2+z
1/2+x,1/2-y,-z
1/2-x,1/2+y,-z
1/2-x,1/2-y,1/2-z
1/2+x,1/2+y,1/2-z
1/2-x,1/2+y,z
1/2+x,1/2-y,z
loop_
_atom_site_type_symbol
_atom_site_label
_atom_site_fract_x
_atom_site_fract_y
_atom_site_fract_z
Si Si1 0.913748 0.948075 0.314524
Si Si2 0.407953 0.870505 0.816616
Si Si3 0.413762 0.225838 0.822251
Si Si4 0.241701 0.894543 0.317647
Si Si5 0.788020 0.796681 0.320917
O O1 0.917347 0.948146 0.500000
O O2 0.831688 0.922717 0.260003
O O3 0.000000 0.928862 0.250000
O O4 0.908934 0.000000 0.250000
O O5 0.500000 0.877307 0.750000
O O6 0.380991 0.817904 0.774585
O O7 0.333407 0.900667 0.749275
O O8 0.412202 0.875850 0.000000
O O9 0.500000 0.230377 0.750000
O O10 0.378364 0.276806 0.821623
O O11 0.412112 0.209676 0.000000
O O12 0.243081 0.903334 0.500000
O O13 0.220299 0.841383 0.281699
O O14 0.764144 0.804882 0.500000
O O15 0.750000 0.750000 0.250000
#
# Coordination Sequence:
#
# PCOD9526562 Si02
#       5
#    16  16  16  16  16
#     4  11  23  44  71 100 130 163 203 254 318 383
#     4  11  21  35  56  82 116 157 204 252 301 358
#     4  10  20  33  50  72 103 146 196 245 298 356
#     4  12  24  39  61  90 123 163 210 258 310 372
#     4  11  22  35  52  77 113 156 202 252 305 362
#
# _framework density 19.263359999999999
#
# number of rings (size 3 to 8) (size 9 to 14) (size 15 to 20)
#    0.000    1.000    2.000    8.400    0.000    3.200 
#    0.000    2.000    0.000    0.600    0.000    4.200 
#    0.000    0.000    0.000    0.000    0.000    0.000 
#
# Total GULP energy -222834.537852 kJ/mol
# GULP energy per Si atom -5570.863446 kJ/mol
# Density = 1.921952 g / cm^3
# Si number density = 19.263360 Si / 1000 Ang^3
#
#
#
# Elastic Constant Matrix: (Units=GPa)
#
#
# Indices 1 2 3 4 5 6 
#
# 1 142.9651 46.9486 65.8685 -0.0001 0.0001 0.0001
# 2 46.9486 43.9738 22.6690 0.0000 0.0002 0.0002
# 3 65.8685 22.6690 169.4850 -0.0076 0.0008 -0.0001
# 4 -0.0001 0.0000 -0.0076 28.4251 0.0002 0.0001
# 5 0.0001 0.0002 0.0008 0.0002 39.1911 0.0000
# 6 0.0001 0.0002 -0.0001 0.0001 0.0000 37.3086
#
#
#
# Elastic Compliance Matrix: (Units=1/GPa)
#
#
# Indices 1 2 3 4 5 6 
#
# 1 0.012219 -0.011383 -0.003226 -0.000001 0.000000 0.000000
# 2 -0.011383 0.035028 -0.000261 0.000000 0.000000 0.000000
# 3 -0.003226 -0.000261 0.007189 0.000002 0.000000 0.000000
# 4 -0.000001 0.000000 0.000002 0.035180 0.000000 0.000000
# 5 0.000000 0.000000 0.000000 0.000000 0.025516 0.000000
# 6 0.000000 0.000000 0.000000 0.000000 0.000000 0.026804
#
#
# Mechanical properties :
#
#
# Convention : Reuss Voigt Hill
#
# Bulk Modulus (GPa) = 40.49281 69.71064 55.10172
# Shear Modulus (GPa) = 27.79189 35.71413 31.75301
#
# Velocity S-wave (km/s) = 3.80245 4.31047 4.06441
# Velocity P-wave (km/s) = 6.35173 7.81283 7.11986
#
# Compressibility (1/GPa) = 0.02469574
#
# Stress axis : x y z
#
# Youngs Moduli (GPa) = 81.83879 28.54848 139.09961
#
# Poissons Ratio (x) = 0.32495 0.44879
# Poissons Ratio (y) = 0.93153 0.03636
# Poissons Ratio (z) = 0.26404 0.00746
#
# Static dielectric constant tensor:
#      x y z
#    x 1.615940 0.000000 0.000000 
#    y 0.000000 1.608290 0.000000 
#    z 0.000000 0.000000 1.685250 
# 
# From -- ./inp_files/5034.got.cif
#   From: 2010.05.17/outbox.cif.g08.bks.cpg/sg72_3_cif.got.tgz:5034.got - 2010.06.03 17:03:01.
