data_PCOD9526805
_publ_section_title
;
Structure prediction by ZEFSAII (Michael W. Deem and Ramdas Pophale) SiO2 
 PCOD9526805
Probable space group: I B A M
;
_chemical_formula_sum "Si O2"
_cell_formula_units_Z 120
_cell_length_a 16.943102
_cell_length_b 17.759269
_cell_length_c 20.720437
_cell_angle_alpha 90.000000
_cell_angle_beta 90.000000
_cell_angle_gamma 90.000000
_cell_volume 6234.719531
_symmetry_space_group_name_H-M "I B A M"
_symmetry_group_IT_number 72
_symmetry_cell_setting 'orthorhombic'
loop_
_space_group_symop_operation_xyz
x,y,z
-x,-y,z
x,-y,1/2-z
-x,y,1/2-z
-x,-y,-z
x,y,-z
-x,y,1/2+z
x,-y,1/2+z
1/2+x,1/2+y,1/2+z
1/2-x,1/2-y,1/2+z
1/2+x,1/2-y,-z
1/2-x,1/2+y,-z
1/2-x,1/2-y,1/2-z
1/2+x,1/2+y,1/2-z
1/2-x,1/2+y,z
1/2+x,1/2-y,z
loop_
_atom_site_type_symbol
_atom_site_label
_atom_site_fract_x
_atom_site_fract_y
_atom_site_fract_z
Si Si1 0.135866 0.130084 0.500000
Si Si2 0.359627 0.614680 0.293033
Si Si3 0.995813 0.870800 0.387460
Si Si4 0.759031 0.202315 0.112522
Si Si5 0.920729 0.285874 0.422024
Si Si6 0.288994 0.124880 0.077636
Si Si7 0.354005 0.553108 0.847017
Si Si8 0.036891 0.421679 0.578434
O O1 0.201059 0.152055 0.443450
O O2 0.068002 0.118027 0.443603
O O3 0.445221 0.635394 0.321734
O O4 0.295602 0.672147 0.321110
O O5 0.356930 0.605611 0.216519
O O6 0.343440 0.531720 0.322790
O O7 0.042608 0.793692 0.401750
O O8 0.062430 0.934536 0.381817
O O9 0.664823 0.200046 0.108071
O O10 0.784440 0.288201 0.098568
O O11 0.911914 0.285513 0.500000
O O12 0.981839 0.351544 0.403869
O O13 0.216778 0.079133 0.107550
O O14 0.373039 0.091118 0.098585
O O15 0.284084 0.122735 0.000000
O O16 0.037982 0.423452 0.500000
O O17 0.000000 0.500000 0.601234
#
# Coordination Sequence:
#
# PCOD9526805 Si02
#       8
#     8  16  16  16  16  16  16  16
#     4  10  20  34  61  92 130 157 199 258 321 370
#     4  10  25  44  65  88 127 177 218 262 316 377
#     4  11  21  38  63  94 124 170 213 257 325 383
#     4  11  21  39  63  93 125 167 210 261 317 386
#     4  11  20  35  62  89 131 165 204 257 329 376
#     4  11  22  39  63  95 130 161 213 267 330 375
#     4  11  24  44  65  92 128 175 213 265 320 389
#     4   9  20  35  55  86 124 167 200 251 311 385
#
# _framework density 19.247056000000001
#
# number of rings (size 3 to 8) (size 9 to 14) (size 15 to 20)
#    0.000    1.467    3.333    2.400    4.667    1.600 
#    4.800    2.667    0.000    0.000    0.000    0.000 
#    0.000    0.000    0.000    0.000    0.000    0.000 
#
# Total GULP energy -334215.646798 kJ/mol
# GULP energy per Si atom -5570.260780 kJ/mol
# Density = 1.920325 g / cm^3
# Si number density = 19.247056 Si / 1000 Ang^3
#
#
#
# Elastic Constant Matrix: (Units=GPa)
#
#
# Indices 1 2 3 4 5 6 
#
# 1 147.0352 40.3119 29.2360 0.0000 0.0000 0.0000
# 2 40.3119 48.0755 19.5445 0.0000 0.0000 0.0000
# 3 29.2360 19.5445 31.0948 0.0000 0.0000 0.0000
# 4 0.0000 0.0000 0.0000 19.8110 0.0000 0.0000
# 5 0.0000 0.0000 0.0000 0.0000 20.1564 0.0000
# 6 0.0000 0.0000 0.0000 0.0000 0.0000 -0.6408
#
#
#
# Elastic Compliance Matrix: (Units=1/GPa)
#
#
# Indices 1 2 3 4 5 6 
#
# 1 0.009425 -0.005776 -0.005231 0.000000 0.000000 0.000000
# 2 -0.005776 0.031480 -0.014356 0.000000 0.000000 0.000000
# 3 -0.005231 -0.014356 0.046101 0.000000 0.000000 0.000000
# 4 0.000000 0.000000 0.000000 0.050477 0.000000 0.000000
# 5 0.000000 0.000000 0.000000 0.000000 0.049612 0.000000
# 6 0.000000 0.000000 0.000000 0.000000 0.000000 -1.560480
#
#
# Mechanical properties :
#
#
# Convention : Reuss Voigt Hill
#
# Bulk Modulus (GPa) = 27.56308 44.93226 36.24767
# Shear Modulus (GPa) = -3.81515 17.00619 6.59552
#
# Velocity S-wave (km/s) = -1.40943 2.97572 1.85316
# Velocity P-wave (km/s) = 3.42098 5.93315 4.84280
#
# Compressibility (1/GPa) = 0.03628042
#
# Stress axis : x y z
#
# Youngs Moduli (GPa) = 106.10284 31.76592 21.69155
#
# Poissons Ratio (x) = 0.18349 0.11346
# Poissons Ratio (y) = 0.61289 0.31140
# Poissons Ratio (z) = 0.55499 0.45602
#
# Static dielectric constant tensor:
#      x y z
#    x 1.650740 0.000000 0.000000 
#    y 0.000000 1.687770 0.000000 
#    z 0.000000 0.000000 1.656100 
# 
# From -- ./inp_files/39277.got.cif
#   From: 2010.05.17/outbox.cif.g08.bks.cpg/sg72_20_cif.got.tgz:39277.got - 2010.06.03 17:03:01.
