data_PCOD9526763
_publ_section_title
;
Structure prediction by ZEFSAII (Michael W. Deem and Ramdas Pophale) SiO2 
 PCOD9526763
Probable space group: I B A M
;
_chemical_formula_sum "Si O2"
_cell_formula_units_Z 104
_cell_length_a 20.325214
_cell_length_b 7.250763
_cell_length_c 30.003772
_cell_angle_alpha 90.000000
_cell_angle_beta 90.000000
_cell_angle_gamma 90.000000
_cell_volume 4421.755181
_symmetry_space_group_name_H-M "I B A M"
_symmetry_group_IT_number 72
_symmetry_cell_setting 'orthorhombic'
loop_
_space_group_symop_operation_xyz
x,y,z
-x,-y,z
x,-y,1/2-z
-x,y,1/2-z
-x,-y,-z
x,y,-z
-x,y,1/2+z
x,-y,1/2+z
1/2+x,1/2+y,1/2+z
1/2-x,1/2-y,1/2+z
1/2+x,1/2-y,-z
1/2-x,1/2+y,-z
1/2-x,1/2-y,1/2-z
1/2+x,1/2+y,1/2-z
1/2-x,1/2+y,z
1/2+x,1/2-y,z
loop_
_atom_site_type_symbol
_atom_site_label
_atom_site_fract_x
_atom_site_fract_y
_atom_site_fract_z
Si Si1 0.500000 0.500000 0.885981
Si Si2 0.937929 0.633162 0.870779
Si Si3 0.888087 0.135922 0.949320
Si Si4 0.657936 0.211748 0.948375
Si Si5 0.341722 0.876623 0.209227
Si Si6 0.715770 0.255461 0.608256
Si Si7 0.796361 0.014490 0.679343
O O1 0.538718 0.342165 0.859604
O O2 0.548918 0.610304 0.918603
O O3 0.903881 0.646620 0.919004
O O4 0.882545 0.575609 0.835032
O O5 0.000000 0.500000 0.869484
O O6 0.850235 0.937127 0.947969
O O7 0.838919 0.285389 0.928445
O O8 0.905693 0.175755 0.000000
O O9 0.724906 0.161443 0.922200
O O10 0.658559 0.155332 0.000000
O O11 0.339155 0.652986 0.208781
O O12 0.367108 0.000000 0.250000
O O13 0.264284 0.924364 0.205200
O O14 0.758669 0.128028 0.640394
O O15 0.672696 0.362893 0.646707
#
# Coordination Sequence:
#
# PCOD9526763 Si02
#       7
#     8  16  16  16  16  16  16
#     4  10  23  42  64  87 130 180 226 268 328 394
#     4  11  24  44  67  94 130 183 226 274 331 400
#     4  10  20  34  56  87 125 172 221 268 323 384
#     4  10  20  37  58  90 131 171 218 275 325 387
#     4  11  23  43  68  99 128 163 215 278 345 409
#     4  11  18  35  58  91 126 171 208 264 332 390
#     4  10  20  36  65  91 128 159 203 262 339 404
#
# _framework density 23.520073
#
# number of rings (size 3 to 8) (size 9 to 14) (size 15 to 20)
#    0.000    1.538    4.615    2.077    2.154    1.231 
#    0.000    1.538    0.000    0.923    0.000    0.000 
#    0.000    0.000    0.000    0.000    0.000    0.000 
#
# Total GULP energy -290139.491290 kJ/mol
# GULP energy per Si atom -5579.605602 kJ/mol
# Density = 2.346654 g / cm^3
# Si number density = 23.520073 Si / 1000 Ang^3
#
#
#
# Elastic Constant Matrix: (Units=GPa)
#
#
# Indices 1 2 3 4 5 6 
#
# 1 65.2013 5.2422 0.3405 0.0000 0.0000 0.0000
# 2 5.2422 63.0906 22.1413 0.0000 0.0000 0.0000
# 3 0.3405 22.1413 102.6292 0.0000 0.0000 0.0000
# 4 0.0000 0.0000 0.0000 28.8394 0.0000 0.0000
# 5 0.0000 0.0000 0.0000 0.0000 -14.2220 0.0000
# 6 0.0000 0.0000 0.0000 0.0000 0.0000 31.5177
#
#
#
# Elastic Compliance Matrix: (Units=1/GPa)
#
#
# Indices 1 2 3 4 5 6 
#
# 1 0.015446 -0.001369 0.000244 0.000000 0.000000 0.000000
# 2 -0.001369 0.017270 -0.003721 0.000000 0.000000 0.000000
# 3 0.000244 -0.003721 0.010546 0.000000 0.000000 0.000000
# 4 0.000000 0.000000 0.000000 0.034675 0.000000 0.000000
# 5 0.000000 0.000000 0.000000 0.000000 -0.070313 0.000000
# 6 0.000000 0.000000 0.000000 0.000000 0.000000 0.031728
#
#
# Mechanical properties :
#
#
# Convention : Reuss Voigt Hill
#
# Bulk Modulus (GPa) = 29.78919 31.81878 30.80398
# Shear Modulus (GPa) = 83.01037 22.77350 52.89193
#
# Velocity S-wave (km/s) = 5.94727 3.11506 4.74730
# Velocity P-wave (km/s) = 7.73647 5.14741 6.57072
#
# Compressibility (1/GPa) = 0.03356923
#
# Stress axis : x y z
#
# Youngs Moduli (GPa) = 64.74204 57.90406 94.82416
#
# Poissons Ratio (x) = 0.07927 -0.02315
# Poissons Ratio (y) = 0.08864 0.35287
# Poissons Ratio (z) = -0.01581 0.21548
#
# Static dielectric constant tensor:
#      x y z
#    x 1.842900 0.000000 0.000000 
#    y 0.000000 2.143990 0.000000 
#    z 0.000000 0.000000 1.860330 
# 
# From -- ./inp_files/52246.got.cif
#   From: 2010.05.17/outbox.cif.g08.bks.cpg/sg72_27_cif.got.tgz:52246.got - 2010.06.03 17:03:01.
