data_PCOD9526200
_publ_section_title
;
Structure prediction by ZEFSAII (Michael W. Deem and Ramdas Pophale) SiO2 
 PCOD9526200
Probable space group: I B A M
;
_chemical_formula_sum "Si O2"
_cell_formula_units_Z 116
_cell_length_a 10.086429
_cell_length_b 27.996835
_cell_length_c 17.618522
_cell_angle_alpha 90.000000
_cell_angle_beta 90.000000
_cell_angle_gamma 90.000000
_cell_volume 4975.260749
_symmetry_space_group_name_H-M "I B A M"
_symmetry_group_IT_number 72
_symmetry_cell_setting 'orthorhombic'
loop_
_space_group_symop_operation_xyz
x,y,z
-x,-y,z
x,-y,1/2-z
-x,y,1/2-z
-x,-y,-z
x,y,-z
-x,y,1/2+z
x,-y,1/2+z
1/2+x,1/2+y,1/2+z
1/2-x,1/2-y,1/2+z
1/2+x,1/2-y,-z
1/2-x,1/2+y,-z
1/2-x,1/2-y,1/2-z
1/2+x,1/2+y,1/2-z
1/2-x,1/2+y,z
1/2+x,1/2-y,z
loop_
_atom_site_type_symbol
_atom_site_label
_atom_site_fract_x
_atom_site_fract_y
_atom_site_fract_z
Si Si1 0.133008 0.348932 0.087053
Si Si2 0.161407 0.633925 0.084854
Si Si3 0.371170 0.772285 0.798429
Si Si4 0.284807 0.043359 0.589863
Si Si5 0.065386 0.188993 0.912227
Si Si6 0.274589 0.450874 0.654110
Si Si7 0.481095 0.588159 0.586281
Si Si8 0.000000 0.000000 0.750000
O O1 0.191142 0.314562 0.150304
O O2 0.149739 0.405388 0.103134
O O3 0.976565 0.339526 0.091365
O O4 0.178253 0.340188 0.000000
O O5 0.283581 0.669809 0.084280
O O6 0.185022 0.596270 0.152961
O O7 0.154237 0.610420 0.000000
O O8 0.500000 0.788413 0.750000
O O9 0.250000 0.750000 0.750000
O O10 0.431790 0.732970 0.856158
O O11 0.297044 0.032931 0.500000
O O12 0.131536 0.052741 0.613968
O O13 0.317259 0.996158 0.636684
O O14 0.990177 0.141459 0.880980
O O15 0.025614 0.199832 0.000000
O O16 0.376614 0.436772 0.586382
O O17 0.389931 0.463489 0.713678
O O18 0.441010 0.596960 0.500000
#
# Coordination Sequence:
#
# PCOD9526200 Si02
#       8
#    16  16  16  16  16  16  16   4
#     4  10  23  44  67  95 128 171 220 273 325 398
#     4   9  19  40  68  94 125 163 212 269 330 381
#     4  12  27  46  65  97 133 173 217 270 346 408
#     4  10  19  34  61  92 122 154 203 267 319 358
#     4   9  19  39  67  93 117 163 217 267 320 386
#     4  11  20  37  55  90 126 168 214 253 313 384
#     4   9  17  33  59  90 118 148 201 267 320 355
#     4  12  24  36  50  86 128 180 220 250 314 404
#
# _framework density 23.315362
#
# number of rings (size 3 to 8) (size 9 to 14) (size 15 to 20)
#    0.000    1.931    1.379    3.310    1.931    1.655 
#   12.414    3.448    0.000    0.828    0.000    0.000 
#    0.000    0.000    0.000    0.000    0.000    0.000 
#
# Total GULP energy -323214.762750 kJ/mol
# GULP energy per Si atom -5572.668323 kJ/mol
# Density = 2.326230 g / cm^3
# Si number density = 23.315362 Si / 1000 Ang^3
#
#
#
# Elastic Constant Matrix: (Units=GPa)
#
#
# Indices 1 2 3 4 5 6 
#
# 1 41.2410 -8.5009 6.3734 0.0001 0.0000 0.0000
# 2 -8.5009 84.1521 44.3736 0.0001 0.0000 0.0000
# 3 6.3734 44.3736 80.6481 0.0007 0.0000 -0.0001
# 4 0.0001 0.0001 0.0007 -66.9587 -0.0001 -0.0001
# 5 0.0000 0.0000 0.0000 -0.0001 17.0595 0.0000
# 6 0.0000 0.0000 -0.0001 -0.0001 0.0000 22.3192
#
#
#
# Elastic Compliance Matrix: (Units=1/GPa)
#
#
# Indices 1 2 3 4 5 6 
#
# 1 0.026094 0.005245 -0.004948 0.000000 0.000000 0.000000
# 2 0.005245 0.017794 -0.010205 0.000000 0.000000 0.000000
# 3 -0.004948 -0.010205 0.018406 0.000000 0.000000 0.000000
# 4 0.000000 0.000000 0.000000 -0.014935 0.000000 0.000000
# 5 0.000000 0.000000 0.000000 0.000000 0.058619 0.000000
# 6 0.000000 0.000000 0.000000 0.000000 0.000000 0.044804
#
#
# Mechanical properties :
#
#
# Convention : Reuss Voigt Hill
#
# Bulk Modulus (GPa) = 23.54204 32.28149 27.91176
# Shear Modulus (GPa) = 27.06255 5.40366 16.23310
#
# Velocity S-wave (km/s) = 3.41063 1.52403 2.64150
# Velocity P-wave (km/s) = 5.06251 4.11977 4.61527
#
# Compressibility (1/GPa) = 0.04247721
#
# Stress axis : x y z
#
# Youngs Moduli (GPa) = 38.32362 56.19777 54.33134
#
# Poissons Ratio (x) = -0.29476 0.26883
# Poissons Ratio (y) = -0.20101 0.55446
# Poissons Ratio (z) = 0.18963 0.57351
#
# Static dielectric constant tensor:
#      x y z
#    x 1.895230 0.000000 0.000000 
#    y 0.000000 1.933680 0.000000 
#    z 0.000000 0.000000 1.976030 
# 
# From -- ./inp_files/29723.got.cif
#   From: 2010.05.17/outbox.cif.g08.bks.cpg/sg72_15_cif.got.tgz:29723.got - 2010.06.03 17:03:01.
