data_PCOD9526862
_publ_section_title
;
Structure prediction by ZEFSAII (Michael W. Deem and Ramdas Pophale) SiO2 
 PCOD9526862
Probable space group: I B A M
;
_chemical_formula_sum "Si O2"
_cell_formula_units_Z 96
_cell_length_a 11.277628
_cell_length_b 23.884618
_cell_length_c 17.382653
_cell_angle_alpha 90.000000
_cell_angle_beta 90.000000
_cell_angle_gamma 90.000000
_cell_volume 4682.223339
_symmetry_space_group_name_H-M "I B A M"
_symmetry_group_IT_number 72
_symmetry_cell_setting 'orthorhombic'
loop_
_space_group_symop_operation_xyz
x,y,z
-x,-y,z
x,-y,1/2-z
-x,y,1/2-z
-x,-y,-z
x,y,-z
-x,y,1/2+z
x,-y,1/2+z
1/2+x,1/2+y,1/2+z
1/2-x,1/2-y,1/2+z
1/2+x,1/2-y,-z
1/2-x,1/2+y,-z
1/2-x,1/2-y,1/2-z
1/2+x,1/2+y,1/2-z
1/2-x,1/2+y,z
1/2+x,1/2-y,z
loop_
_atom_site_type_symbol
_atom_site_label
_atom_site_fract_x
_atom_site_fract_y
_atom_site_fract_z
Si Si1 0.780518 0.400607 0.587313
Si Si2 0.880427 0.317208 0.700839
Si Si3 0.653696 0.378595 0.087662
Si Si4 0.734721 0.780547 0.151398
Si Si5 0.360230 0.495438 0.658207
Si Si6 0.431341 0.689637 0.588084
O O1 0.826108 0.408198 0.500000
O O2 0.870419 0.371934 0.647808
O O3 0.719064 0.456828 0.618644
O O4 0.676727 0.354156 0.584065
O O5 0.846854 0.261989 0.650950
O O6 0.778016 0.311093 0.766277
O O7 0.000000 0.316183 0.750000
O O8 0.751930 0.330491 0.091544
O O9 0.682420 0.434239 0.133059
O O10 0.539090 0.346485 0.121812
O O11 0.626039 0.394310 0.000000
O O12 0.620950 0.742381 0.133180
O O13 0.500000 0.500000 0.635464
O O14 0.353875 0.500000 0.750000
O O15 0.462971 0.705965 0.500000
#
# Coordination Sequence:
#
# PCOD9526862 Si02
#       6
#    16  16  16  16  16  16
#     4  10  20  37  59  84 118 158 202 248 302 365
#     4  10  21  38  59  85 117 159 203 251 304 359
#     4  11  21  34  57  87 123 160 195 245 305 364
#     4  10  20  35  55  85 118 157 201 252 297 359
#     4  11  22  36  57  91 123 158 197 251 312 371
#     4   9  18  32  52  81 118 156 193 241 301 361
#
# _framework density 20.503079
#
# number of rings (size 3 to 8) (size 9 to 14) (size 15 to 20)
#    0.000    1.833    1.667    3.000    0.000    1.333 
#    3.000    1.667    0.000    5.500    0.000    5.833 
#    0.000    0.000    0.000    0.000    0.000    0.000 
#
# Total GULP energy -267742.625795 kJ/mol
# GULP energy per Si atom -5577.971371 kJ/mol
# Density = 2.045641 g / cm^3
# Si number density = 20.503079 Si / 1000 Ang^3
#
#
#
# Elastic Constant Matrix: (Units=GPa)
#
#
# Indices 1 2 3 4 5 6 
#
# 1 49.6326 44.2147 25.8738 0.0000 0.0000 0.0000
# 2 44.2147 152.3034 71.5059 0.0000 0.0000 0.0000
# 3 25.8738 71.5059 94.5727 0.0000 0.0000 0.0000
# 4 0.0000 0.0000 0.0000 26.6591 0.0000 0.0000
# 5 0.0000 0.0000 0.0000 0.0000 21.1299 0.0000
# 6 0.0000 0.0000 0.0000 0.0000 0.0000 22.8993
#
#
#
# Elastic Compliance Matrix: (Units=1/GPa)
#
#
# Indices 1 2 3 4 5 6 
#
# 1 0.027497 -0.006900 -0.002306 0.000000 0.000000 0.000000
# 2 -0.006900 0.011911 -0.007118 0.000000 0.000000 0.000000
# 3 -0.002306 -0.007118 0.016587 0.000000 0.000000 0.000000
# 4 0.000000 0.000000 0.000000 0.037511 0.000000 0.000000
# 5 0.000000 0.000000 0.000000 0.000000 0.047326 0.000000
# 6 0.000000 0.000000 0.000000 0.000000 0.000000 0.043669
#
#
# Mechanical properties :
#
#
# Convention : Reuss Voigt Hill
#
# Bulk Modulus (GPa) = 42.83229 64.41084 53.62157
# Shear Modulus (GPa) = 22.22912 24.46527 23.34719
#
# Velocity S-wave (km/s) = 3.29627 3.45809 3.37815
# Velocity P-wave (km/s) = 5.95174 6.88679 6.43627
#
# Compressibility (1/GPa) = 0.02334687
#
# Stress axis : x y z
#
# Youngs Moduli (GPa) = 36.36780 83.95730 60.28985
#
# Poissons Ratio (x) = 0.57931 0.13901
# Poissons Ratio (y) = 0.25094 0.42914
# Poissons Ratio (z) = 0.08385 0.59760
#
# Static dielectric constant tensor:
#      x y z
#    x 1.777980 0.000000 0.000000 
#    y 0.000000 1.721150 0.000000 
#    z 0.000000 0.000000 1.789430 
# 
# From -- ./inp_files/29404.got.cif
#   From: 2010.05.17/outbox.cif.g08.bks.cpg/sg72_15_cif.got.tgz:29404.got - 2010.06.03 17:03:01.
