data_PCOD9526719
_publ_section_title
;
Structure prediction by ZEFSAII (Michael W. Deem and Ramdas Pophale) SiO2 
 PCOD9526719
Probable space group: I B A M
;
_chemical_formula_sum "Si O2"
_cell_formula_units_Z 112
_cell_length_a 21.988387
_cell_length_b 15.156543
_cell_length_c 15.257243
_cell_angle_alpha 90.000000
_cell_angle_beta 90.000000
_cell_angle_gamma 90.000000
_cell_volume 5084.749839
_symmetry_space_group_name_H-M "I B A M"
_symmetry_group_IT_number 72
_symmetry_cell_setting 'orthorhombic'
loop_
_space_group_symop_operation_xyz
x,y,z
-x,-y,z
x,-y,1/2-z
-x,y,1/2-z
-x,-y,-z
x,y,-z
-x,y,1/2+z
x,-y,1/2+z
1/2+x,1/2+y,1/2+z
1/2-x,1/2-y,1/2+z
1/2+x,1/2-y,-z
1/2-x,1/2+y,-z
1/2-x,1/2-y,1/2-z
1/2+x,1/2+y,1/2-z
1/2-x,1/2+y,z
1/2+x,1/2-y,z
loop_
_atom_site_type_symbol
_atom_site_label
_atom_site_fract_x
_atom_site_fract_y
_atom_site_fract_z
Si Si1 0.955454 0.221771 0.331751
Si Si2 0.175772 0.063671 0.603855
Si Si3 0.234945 0.873551 0.401838
Si Si4 0.500970 0.099407 0.896817
Si Si5 0.828913 0.810191 0.747665
Si Si6 0.364966 0.172030 0.900880
Si Si7 0.463221 0.578087 0.599724
O O1 0.891388 0.179276 0.305728
O O2 0.000000 0.213605 0.250000
O O3 0.955629 0.325203 0.356501
O O4 0.994200 0.163716 0.400287
O O5 0.185465 0.087423 0.500000
O O6 0.204303 0.119134 0.683077
O O7 0.105534 0.082962 0.631291
O O8 0.196342 0.962513 0.611874
O O9 0.221454 0.840220 0.500000
O O10 0.218360 0.802783 0.327910
O O11 0.307158 0.893310 0.399529
O O12 0.431594 0.133013 0.888987
O O13 0.500000 0.000000 0.860563
O O14 0.516397 0.094111 0.000000
O O15 0.850946 0.737340 0.678257
O O16 0.364569 0.212916 0.000000
O O17 0.500000 0.500000 0.645647
O O18 0.451930 0.550296 0.500000
#
# Coordination Sequence:
#
# PCOD9526719 Si02
#       7
#    16  16  16  16  16  16  16
#     4  12  22  36  57  94 127 159 202 254 311 372
#     4  10  20  37  58  84 117 160 209 255 301 364
#     4  10  23  40  60  87 126 167 210 260 311 367
#     4  10  22  43  69  92 119 160 209 263 326 386
#     4  12  22  38  62  91 124 164 207 254 311 380
#     4  10  21  42  66  90 120 158 207 263 316 377
#     4  10  20  34  54  82 121 166 207 247 301 366
#
# _framework density 22.026648999999999
#
# number of rings (size 3 to 8) (size 9 to 14) (size 15 to 20)
#    0.000    1.429    2.857    2.571    0.000    5.143 
#    0.000    4.286    0.000    3.429    0.000    0.000 
#    0.000    0.000    0.000    0.000    0.000    0.000 
#
# Total GULP energy -311864.618794 kJ/mol
# GULP energy per Si atom -5569.011050 kJ/mol
# Density = 2.197651 g / cm^3
# Si number density = 22.026649 Si / 1000 Ang^3
#
#
#
# Elastic Constant Matrix: (Units=GPa)
#
#
# Indices 1 2 3 4 5 6 
#
# 1 57.0204 11.2937 21.8365 0.0000 0.0000 0.0000
# 2 11.2937 82.1375 26.3070 0.0000 0.0000 0.0000
# 3 21.8365 26.3070 115.4371 0.0000 0.0000 0.0000
# 4 0.0000 0.0000 0.0000 39.3906 0.0000 0.0000
# 5 0.0000 0.0000 0.0000 0.0000 -102.5614 0.0000
# 6 0.0000 0.0000 0.0000 0.0000 0.0000 15.9065
#
#
#
# Elastic Compliance Matrix: (Units=1/GPa)
#
#
# Indices 1 2 3 4 5 6 
#
# 1 0.019097 -0.001584 -0.003251 0.000000 0.000000 0.000000
# 2 -0.001584 0.013265 -0.002723 0.000000 0.000000 0.000000
# 3 -0.003251 -0.002723 0.009898 0.000000 0.000000 0.000000
# 4 0.000000 0.000000 0.000000 0.025387 0.000000 0.000000
# 5 0.000000 0.000000 0.000000 0.000000 -0.009750 0.000000
# 6 0.000000 0.000000 0.000000 0.000000 0.000000 0.062867
#
#
# Mechanical properties :
#
#
# Convention : Reuss Voigt Hill
#
# Bulk Modulus (GPa) = 36.84351 41.49660 39.17005
# Shear Modulus (GPa) = 34.49979 3.55766 19.02873
#
# Velocity S-wave (km/s) = 3.96191 1.27227 2.94240
# Velocity P-wave (km/s) = 6.13939 4.58676 5.41897
#
# Compressibility (1/GPa) = 0.02714182
#
# Stress axis : x y z
#
# Youngs Moduli (GPa) = 52.36557 75.38782 101.02698
#
# Poissons Ratio (x) = 0.11944 0.32847
# Poissons Ratio (y) = 0.08297 0.27512
# Poissons Ratio (z) = 0.17026 0.20530
#
# Static dielectric constant tensor:
#      x y z
#    x 1.899590 0.000000 0.000000 
#    y 0.000000 1.929180 0.000000 
#    z 0.000000 0.000000 1.906570 
# 
# From -- ./inp_files/25187.got.cif
#   From: 2010.05.17/outbox.cif.g08.bks.cpg/sg72_13_cif.got.tgz:25187.got - 2010.06.03 17:03:01.
