data_PCOD9526349
_publ_section_title
;
Structure prediction by ZEFSAII (Michael W. Deem and Ramdas Pophale) SiO2 
 PCOD9526349
Probable space group: I B A M
;
_chemical_formula_sum "Si O2"
_cell_formula_units_Z 96
_cell_length_a 17.621061
_cell_length_b 22.037915
_cell_length_c 14.377172
_cell_angle_alpha 90.000000
_cell_angle_beta 90.000000
_cell_angle_gamma 90.000000
_cell_volume 5583.107971
_symmetry_space_group_name_H-M "I B A M"
_symmetry_group_IT_number 72
_symmetry_cell_setting 'orthorhombic'
loop_
_space_group_symop_operation_xyz
x,y,z
-x,-y,z
x,-y,1/2-z
-x,y,1/2-z
-x,-y,-z
x,y,-z
-x,y,1/2+z
x,-y,1/2+z
1/2+x,1/2+y,1/2+z
1/2-x,1/2-y,1/2+z
1/2+x,1/2-y,-z
1/2-x,1/2+y,-z
1/2-x,1/2-y,1/2-z
1/2+x,1/2+y,1/2-z
1/2-x,1/2+y,z
1/2+x,1/2-y,z
loop_
_atom_site_type_symbol
_atom_site_label
_atom_site_fract_x
_atom_site_fract_y
_atom_site_fract_z
Si Si1 0.587224 0.784702 0.239814
Si Si2 0.801716 0.059221 0.691811
Si Si3 0.785279 0.289437 0.390976
Si Si4 0.042084 0.099096 0.500000
Si Si5 0.796787 0.661526 0.390708
Si Si6 0.613199 0.535272 0.500000
Si Si7 0.872833 0.847216 0.675245
O O1 0.500000 0.801326 0.250000
O O2 0.642956 0.801576 0.325288
O O3 0.623658 0.815918 0.149283
O O4 0.594980 0.712399 0.224954
O O5 0.733917 0.104890 0.666910
O O6 0.838580 0.041885 0.593531
O O7 0.861114 0.097516 0.753909
O O8 0.779440 0.000000 0.750000
O O9 0.801418 0.298045 0.500000
O O10 0.759435 0.219239 0.376331
O O11 0.711111 0.328700 0.363103
O O12 0.073256 0.133621 0.590480
O O13 0.952304 0.086674 0.500000
O O14 0.077676 0.031708 0.500000
O O15 0.798886 0.648476 0.500000
#
# Coordination Sequence:
#
# PCOD9526349 Si02
#       7
#    16  16  16   8  16   8  16
#     4  11  23  36  56  90 118 149 191 242 307 352
#     4  12  22  37  63  83 113 160 201 235 283 340
#     4  10  19  36  60  80 110 152 192 239 292 346
#     4  11  24  40  53  82 127 153 204 245 283 337
#     4  10  20  38  61  83 115 149 194 242 286 347
#     4  11  26  38  51  86 121 165 198 238 283 337
#     4  11  21  39  58  82 113 153 197 245 282 348
#
# _framework density 17.194724000000001
#
# number of rings (size 3 to 8) (size 9 to 14) (size 15 to 20)
#    0.000    1.167    6.667    1.000    3.500    0.667 
#    0.000    0.000    0.000    0.500    0.000    1.167 
#    0.000    0.000    0.000    0.000    0.000    0.000 
#
# Total GULP energy -268054.041684 kJ/mol
# GULP energy per Si atom -5584.459202 kJ/mol
# Density = 1.715559 g / cm^3
# Si number density = 17.194724 Si / 1000 Ang^3
#
#
#
# Elastic Constant Matrix: (Units=GPa)
#
#
# Indices 1 2 3 4 5 6 
#
# 1 80.3492 0.1580 25.6781 0.0000 0.0000 0.0000
# 2 0.1580 49.2936 21.8948 0.0000 0.0000 0.0000
# 3 25.6781 21.8948 98.8374 0.0000 0.0000 0.0000
# 4 0.0000 0.0000 0.0000 32.5997 0.0000 0.0000
# 5 0.0000 0.0000 0.0000 0.0000 11.3733 0.0000
# 6 0.0000 0.0000 0.0000 0.0000 0.0000 15.1180
#
#
#
# Elastic Compliance Matrix: (Units=1/GPa)
#
#
# Indices 1 2 3 4 5 6 
#
# 1 0.013701 0.001705 -0.003937 0.000000 0.000000 0.000000
# 2 0.001705 0.022713 -0.005474 0.000000 0.000000 0.000000
# 3 -0.003937 -0.005474 0.012353 0.000000 0.000000 0.000000
# 4 0.000000 0.000000 0.000000 0.030675 0.000000 0.000000
# 5 0.000000 0.000000 0.000000 0.000000 0.087925 0.000000
# 6 0.000000 0.000000 0.000000 0.000000 0.000000 0.066146
#
#
# Mechanical properties :
#
#
# Convention : Reuss Voigt Hill
#
# Bulk Modulus (GPa) = 29.98205 35.99355 32.98780
# Shear Modulus (GPa) = 19.22752 23.86814 21.54783
#
# Velocity S-wave (km/s) = 3.34761 3.72977 3.54385
# Velocity P-wave (km/s) = 5.69356 6.28702 5.99764
#
# Compressibility (1/GPa) = 0.03335329
#
# Stress axis : x y z
#
# Youngs Moduli (GPa) = 72.98980 44.02822 80.95076
#
# Poissons Ratio (x) = -0.07506 0.31871
# Poissons Ratio (y) = -0.12444 0.44315
# Poissons Ratio (z) = 0.28737 0.24102
#
# Static dielectric constant tensor:
#      x y z
#    x 1.562740 0.000000 0.000000 
#    y 0.000000 1.579350 0.000000 
#    z 0.000000 0.000000 1.593580 
# 
# From -- ./inp_files/21903.got.cif
#   From: 2010.05.17/outbox.cif.g08.bks.cpg/sg72_11_cif.got.tgz:21903.got - 2010.06.03 17:03:01.
