data_PCOD9526991
_publ_section_title
;
Structure prediction by ZEFSAII (Michael W. Deem and Ramdas Pophale) SiO2 
 PCOD9526991
Probable space group: I B A M
;
_chemical_formula_sum "Si O2"
_cell_formula_units_Z 112
_cell_length_a 12.662021
_cell_length_b 17.057774
_cell_length_c 28.753744
_cell_angle_alpha 90.000000
_cell_angle_beta 90.000000
_cell_angle_gamma 90.000000
_cell_volume 6210.403063
_symmetry_space_group_name_H-M "I B A M"
_symmetry_group_IT_number 72
_symmetry_cell_setting 'orthorhombic'
loop_
_space_group_symop_operation_xyz
x,y,z
-x,-y,z
x,-y,1/2-z
-x,y,1/2-z
-x,-y,-z
x,y,-z
-x,y,1/2+z
x,-y,1/2+z
1/2+x,1/2+y,1/2+z
1/2-x,1/2-y,1/2+z
1/2+x,1/2-y,-z
1/2-x,1/2+y,-z
1/2-x,1/2-y,1/2-z
1/2+x,1/2+y,1/2-z
1/2-x,1/2+y,z
1/2+x,1/2-y,z
loop_
_atom_site_type_symbol
_atom_site_label
_atom_site_fract_x
_atom_site_fract_y
_atom_site_fract_z
Si Si1 0.898076 0.049532 0.944530
Si Si2 0.883123 0.960247 0.797084
Si Si3 0.800772 0.213250 0.055701
Si Si4 0.216943 0.792047 0.702054
Si Si5 0.276818 0.002754 0.621298
Si Si6 0.628825 0.829081 0.373131
Si Si7 0.118560 0.658210 0.874818
O O1 0.882148 0.141605 0.931601
O O2 0.790986 0.011609 0.925566
O O3 0.901621 0.047214 0.000000
O O4 0.000000 0.000000 0.927295
O O5 0.864094 0.866053 0.791987
O O6 0.811456 0.983757 0.840291
O O7 0.841200 0.000000 0.750000
O O8 0.000000 0.000000 0.802971
O O9 0.687326 0.192918 0.078485
O O10 0.834876 0.290583 0.083019
O O11 0.797057 0.220438 0.000000
O O12 0.250000 0.750000 0.750000
O O13 0.167975 0.728151 0.667359
O O14 0.320119 0.821097 0.673165
O O15 0.358199 0.932625 0.617057
O O16 0.333196 0.082605 0.635373
O O17 0.504159 0.824608 0.373834
#
# Coordination Sequence:
#
# PCOD9526991 Si02
#       7
#    16  16  16  16  16  16  16
#     4   9  18  33  55  80 106 141 182 226 279 333
#     4  10  21  35  56  84 112 145 186 231 284 338
#     4   9  20  37  55  80 112 143 183 234 284 340
#     4  10  22  39  58  83 114 147 187 234 285 340
#     4  10  20  36  54  77 111 144 183 230 275 330
#     4  10  21  37  58  79 108 146 186 230 277 335
#     4  10  22  36  55  82 108 144 185 225 281 339
#
# _framework density 18.034255999999999
#
# number of rings (size 3 to 8) (size 9 to 14) (size 15 to 20)
#    0.000    2.286    0.000    1.714    0.000   10.857 
#    0.000    1.429    0.000    6.857    0.000    0.000 
#    0.000    0.000    0.000    0.000    0.000    0.000 
#
# Total GULP energy -311994.675713 kJ/mol
# GULP energy per Si atom -5571.333495 kJ/mol
# Density = 1.799321 g / cm^3
# Si number density = 18.034256 Si / 1000 Ang^3
#
#
#
# Elastic Constant Matrix: (Units=GPa)
#
#
# Indices 1 2 3 4 5 6 
#
# 1 96.1009 48.8862 19.2770 0.0000 0.0000 0.0000
# 2 48.8862 130.9267 46.0852 0.0000 0.0000 0.0000
# 3 19.2770 46.0852 62.8765 0.0000 0.0000 0.0000
# 4 0.0000 0.0000 0.0000 21.4881 0.0000 0.0000
# 5 0.0000 0.0000 0.0000 0.0000 4.9376 0.0000
# 6 0.0000 0.0000 0.0000 0.0000 0.0000 14.2477
#
#
#
# Elastic Compliance Matrix: (Units=1/GPa)
#
#
# Indices 1 2 3 4 5 6 
#
# 1 0.012861 -0.004601 -0.000570 0.000000 0.000000 0.000000
# 2 -0.004601 0.011940 -0.007341 0.000000 0.000000 0.000000
# 3 -0.000570 -0.007341 0.021459 0.000000 0.000000 0.000000
# 4 0.000000 0.000000 0.000000 0.046537 0.000000 0.000000
# 5 0.000000 0.000000 0.000000 0.000000 0.202528 0.000000
# 6 0.000000 0.000000 0.000000 0.000000 0.000000 0.070187
#
#
# Mechanical properties :
#
#
# Convention : Reuss Voigt Hill
#
# Bulk Modulus (GPa) = 47.09121 57.60008 52.34565
# Shear Modulus (GPa) = 12.57497 19.84505 16.21001
#
# Velocity S-wave (km/s) = 2.64348 3.32084 3.00133
# Velocity P-wave (km/s) = 5.95702 6.83466 6.41087
#
# Compressibility (1/GPa) = 0.02123539
#
# Stress axis : x y z
#
# Youngs Moduli (GPa) = 77.75572 83.75414 46.59984
#
# Poissons Ratio (x) = 0.38537 0.02658
# Poissons Ratio (y) = 0.35777 0.34207
# Poissons Ratio (z) = 0.04436 0.61480
#
# Static dielectric constant tensor:
#      x y z
#    x 1.608180 0.000000 0.000000 
#    y 0.000000 1.637460 0.000000 
#    z 0.000000 0.000000 1.598220 
# 
# From -- ./inp_files/51473.got.cif
#   From: 2010.05.17/outbox.cif.g08.bks.cpg/sg72_26_cif.got.tgz:51473.got - 2010.06.03 17:03:01.
