data_PCOD9526374
_publ_section_title
;
Structure prediction by ZEFSAII (Michael W. Deem and Ramdas Pophale) SiO2 
 PCOD9526374
Probable space group: I B A M
;
_chemical_formula_sum "Si O2"
_cell_formula_units_Z 80
_cell_length_a 9.450443
_cell_length_b 21.198747
_cell_length_c 14.896329
_cell_angle_alpha 90.000000
_cell_angle_beta 90.000000
_cell_angle_gamma 90.000000
_cell_volume 2984.294059
_symmetry_space_group_name_H-M "I B A M"
_symmetry_group_IT_number 72
_symmetry_cell_setting 'orthorhombic'
loop_
_space_group_symop_operation_xyz
x,y,z
-x,-y,z
x,-y,1/2-z
-x,y,1/2-z
-x,-y,-z
x,y,-z
-x,y,1/2+z
x,-y,1/2+z
1/2+x,1/2+y,1/2+z
1/2-x,1/2-y,1/2+z
1/2+x,1/2-y,-z
1/2-x,1/2+y,-z
1/2-x,1/2-y,1/2-z
1/2+x,1/2+y,1/2-z
1/2-x,1/2+y,z
1/2+x,1/2-y,z
loop_
_atom_site_type_symbol
_atom_site_label
_atom_site_fract_x
_atom_site_fract_y
_atom_site_fract_z
Si Si1 0.934878 0.930675 0.606612
Si Si2 0.170425 0.499895 0.395675
Si Si3 0.362386 0.122053 0.809108
Si Si4 0.098168 0.808735 0.680096
Si Si5 0.461941 0.174663 0.000000
Si Si6 0.790890 0.743350 0.000000
O O1 0.956975 0.921658 0.500000
O O2 0.008299 0.871171 0.653099
O O3 0.766472 0.939395 0.623803
O O4 0.000000 0.000000 0.628933
O O5 0.204077 0.484166 0.500000
O O6 0.211041 0.444805 0.327801
O O7 0.000000 0.500000 0.389347
O O8 0.500000 0.116158 0.750000
O O9 0.245040 0.170294 0.775155
O O10 0.409727 0.142155 0.909624
O O11 0.144055 0.774111 0.589746
O O12 0.000000 0.771651 0.750000
O O13 0.374887 0.241646 0.000000
O O14 0.631736 0.176455 0.000000
#
# Coordination Sequence:
#
# PCOD9526374 Si02
#       6
#    16  16  16  16   8   8
#     4  10  19  36  66  92 126 176 219 262 317 386
#     4  10  21  38  61  93 133 176 221 262 319 391
#     4  11  24  43  66  95 136 178 217 275 336 400
#     4  11  24  42  66  98 134 173 224 274 329 400
#     4  10  24  48  74  94 128 168 222 282 350 404
#     4  10  24  48  72  97 126 169 219 286 346 405
#
# _framework density 26.807009999999998
#
# number of rings (size 3 to 8) (size 9 to 14) (size 15 to 20)
#    0.000    1.600    4.000    0.000    2.800    3.200 
#    0.000    4.000    0.000    0.000    0.000    0.000 
#    0.000    0.000    0.000    0.000    0.000    0.000 
#
# Total GULP energy -224105.362086 kJ/mol
# GULP energy per Si atom -5602.634052 kJ/mol
# Density = 2.674600 g / cm^3
# Si number density = 26.807010 Si / 1000 Ang^3
#
#
#
# Elastic Constant Matrix: (Units=GPa)
#
#
# Indices 1 2 3 4 5 6 
#
# 1 141.8537 23.8266 32.2565 0.0000 0.0000 0.0000
# 2 23.8266 37.6495 -3.7250 0.0000 0.0000 0.0000
# 3 32.2565 -3.7250 114.3021 0.0000 0.0000 0.0000
# 4 0.0000 0.0000 0.0000 7.8914 0.0000 0.0000
# 5 0.0000 0.0000 0.0000 0.0000 42.8952 0.0000
# 6 0.0000 0.0000 0.0000 0.0000 0.0000 43.7517
#
#
#
# Elastic Compliance Matrix: (Units=1/GPa)
#
#
# Indices 1 2 3 4 5 6 
#
# 1 0.008601 -0.005702 -0.002613 0.000000 0.000000 0.000000
# 2 -0.005702 0.030427 0.002601 0.000000 0.000000 0.000000
# 3 -0.002613 0.002601 0.009571 0.000000 0.000000 0.000000
# 4 0.000000 0.000000 0.000000 0.126720 0.000000 0.000000
# 5 0.000000 0.000000 0.000000 0.000000 0.023313 0.000000
# 6 0.000000 0.000000 0.000000 0.000000 0.000000 0.022856
#
#
# Mechanical properties :
#
#
# Convention : Reuss Voigt Hill
#
# Bulk Modulus (GPa) = 26.90336 44.28016 35.59176
# Shear Modulus (GPa) = 20.38262 35.00415 27.69339
#
# Velocity S-wave (km/s) = 2.76043 3.61748 3.21762
# Velocity P-wave (km/s) = 4.49641 5.83114 5.20672
#
# Compressibility (1/GPa) = 0.03717008
#
# Stress axis : x y z
#
# Youngs Moduli (GPa) = 116.25894 32.86592 104.48276
#
# Poissons Ratio (x) = 0.18740 0.27303
# Poissons Ratio (y) = 0.66291 -0.27173
# Poissons Ratio (z) = 0.30381 -0.08548
#
# Static dielectric constant tensor:
#      x y z
#    x 2.125920 0.000000 0.000000 
#    y 0.000000 2.160270 0.000000 
#    z 0.000000 0.000000 2.066250 
# 
# From -- ./inp_files/28228.got.cif
#   From: 2010.05.17/outbox.cif.g08.bks.cpg/sg72_15_cif.got.tgz:28228.got - 2010.06.03 17:03:01.
