data_PCOD9526971
_publ_section_title
;
Structure prediction by ZEFSAII (Michael W. Deem and Ramdas Pophale) SiO2 
 PCOD9526971
Probable space group: I B A M
;
_chemical_formula_sum "Si O2"
_cell_formula_units_Z 116
_cell_length_a 17.233517
_cell_length_b 12.518958
_cell_length_c 26.901497
_cell_angle_alpha 90.000000
_cell_angle_beta 90.000000
_cell_angle_gamma 90.000000
_cell_volume 5803.881643
_symmetry_space_group_name_H-M "I B A M"
_symmetry_group_IT_number 72
_symmetry_cell_setting 'orthorhombic'
loop_
_space_group_symop_operation_xyz
x,y,z
-x,-y,z
x,-y,1/2-z
-x,y,1/2-z
-x,-y,-z
x,y,-z
-x,y,1/2+z
x,-y,1/2+z
1/2+x,1/2+y,1/2+z
1/2-x,1/2-y,1/2+z
1/2+x,1/2-y,-z
1/2-x,1/2+y,-z
1/2-x,1/2-y,1/2-z
1/2+x,1/2+y,1/2-z
1/2-x,1/2+y,z
1/2+x,1/2-y,z
loop_
_atom_site_type_symbol
_atom_site_label
_atom_site_fract_x
_atom_site_fract_y
_atom_site_fract_z
Si Si1 0.933810 0.410335 0.054598
Si Si2 0.153027 0.865237 0.619812
Si Si3 0.237678 0.508760 0.442589
Si Si4 0.502562 0.750109 0.865172
Si Si5 0.434268 0.071711 0.698127
Si Si6 0.000000 0.000000 0.250000
Si Si7 0.276090 0.152862 0.347677
Si Si8 0.883819 0.082999 0.175654
O O1 0.849200 0.461790 0.061979
O O2 0.957693 0.332753 0.098147
O O3 0.000000 0.500000 0.052908
O O4 0.932736 0.356899 0.000000
O O5 0.200511 0.919115 0.574956
O O6 0.206283 0.777763 0.647171
O O7 0.074652 0.799228 0.609787
O O8 0.128801 0.964367 0.654429
O O9 0.250016 0.540097 0.500000
O O10 0.242367 0.604113 0.402299
O O11 0.473942 0.810615 0.813776
O O12 0.566417 0.658487 0.859738
O O13 0.350207 0.089284 0.674187
O O14 0.500000 0.000000 0.671905
O O15 0.423701 0.000000 0.750000
O O16 0.058634 0.074365 0.279022
O O17 0.200265 0.131710 0.314982
#
# Coordination Sequence:
#
# PCOD9526971 Si02
#       8
#    16  16  16  16  16   4  16  16
#     4  10  20  35  61  95 126 161 209 260 319 384
#     4  10  21  41  60  89 126 164 212 255 320 381
#     4  10  21  37  60  90 126 162 204 263 324 381
#     4  11  20  39  64  89 127 175 207 261 321 384
#     4  10  22  39  62  95 129 162 214 271 325 376
#     4  12  24  44  64  88 126 172 208 268 316 396
#     4  10  22  40  67  93 124 167 214 270 321 378
#     4  11  24  43  65  90 126 168 214 265 322 386
#
# _framework density 19.986623000000002
#
# number of rings (size 3 to 8) (size 9 to 14) (size 15 to 20)
#    0.000    1.655    1.379    3.724    0.966    3.310 
#    0.000    4.828    0.000    4.138    0.000    0.000 
#    0.000    0.000    0.000    0.000    0.000    0.000 
#
# Total GULP energy -322928.206011 kJ/mol
# GULP energy per Si atom -5567.727690 kJ/mol
# Density = 1.994113 g / cm^3
# Si number density = 19.986623 Si / 1000 Ang^3
#
#
#
# Elastic Constant Matrix: (Units=GPa)
#
#
# Indices 1 2 3 4 5 6 
#
# 1 127.7237 30.7627 32.2094 0.0000 0.0000 0.0000
# 2 30.7627 91.1726 50.2805 0.0000 0.0000 0.0000
# 3 32.2094 50.2805 87.0429 0.0000 0.0000 0.0000
# 4 0.0000 0.0000 0.0000 19.6574 0.0000 0.0000
# 5 0.0000 0.0000 0.0000 0.0000 -141.6759 0.0000
# 6 0.0000 0.0000 0.0000 0.0000 0.0000 14.1693
#
#
#
# Elastic Compliance Matrix: (Units=1/GPa)
#
#
# Indices 1 2 3 4 5 6 
#
# 1 0.008816 -0.001725 -0.002266 0.000000 0.000000 0.000000
# 2 -0.001725 0.016433 -0.008854 0.000000 0.000000 0.000000
# 3 -0.002266 -0.008854 0.017442 0.000000 0.000000 0.000000
# 4 0.000000 0.000000 0.000000 0.050871 0.000000 0.000000
# 5 0.000000 0.000000 0.000000 0.000000 -0.007058 0.000000
# 6 0.000000 0.000000 0.000000 0.000000 0.000000 0.070575
#
#
# Mechanical properties :
#
#
# Convention : Reuss Voigt Hill
#
# Bulk Modulus (GPa) = 58.82111 59.16049 58.99080
# Shear Modulus (GPa) = 26.53402 -8.72406 8.90498
#
# Velocity S-wave (km/s) = 3.64756 -2.09151 2.11309
# Velocity P-wave (km/s) = 6.87268 4.88178 5.96093
#
# Compressibility (1/GPa) = 0.01700070
#
# Stress axis : x y z
#
# Youngs Moduli (GPa) = 113.42611 60.85180 57.33347
#
# Poissons Ratio (x) = 0.10498 0.12991
# Poissons Ratio (y) = 0.19568 0.50765
# Poissons Ratio (z) = 0.25701 0.53881
#
# Static dielectric constant tensor:
#      x y z
#    x 1.700140 0.000000 0.000000 
#    y 0.000000 1.745600 0.000000 
#    z 0.000000 0.000000 2.202740 
# 
# From -- ./inp_files/49130.got.cif
#   From: 2010.05.17/outbox.cif.g08.bks.cpg/sg72_25_cif.got.tgz:49130.got - 2010.06.03 17:03:01.
