data_PCOD9526566
_publ_section_title
;
Structure prediction by ZEFSAII (Michael W. Deem and Ramdas Pophale) SiO2 
 PCOD9526566
Probable space group: I B A M
;
_chemical_formula_sum "Si O2"
_cell_formula_units_Z 64
_cell_length_a 12.926820
_cell_length_b 24.208864
_cell_length_c 9.123079
_cell_angle_alpha 90.000000
_cell_angle_beta 90.000000
_cell_angle_gamma 90.000000
_cell_volume 2855.009435
_symmetry_space_group_name_H-M "I B A M"
_symmetry_group_IT_number 72
_symmetry_cell_setting 'orthorhombic'
loop_
_space_group_symop_operation_xyz
x,y,z
-x,-y,z
x,-y,1/2-z
-x,y,1/2-z
-x,-y,-z
x,y,-z
-x,y,1/2+z
x,-y,1/2+z
1/2+x,1/2+y,1/2+z
1/2-x,1/2-y,1/2+z
1/2+x,1/2-y,-z
1/2-x,1/2+y,-z
1/2-x,1/2-y,1/2-z
1/2+x,1/2+y,1/2-z
1/2-x,1/2+y,z
1/2+x,1/2-y,z
loop_
_atom_site_type_symbol
_atom_site_label
_atom_site_fract_x
_atom_site_fract_y
_atom_site_fract_z
Si Si1 0.161266 0.059101 0.169812
Si Si2 0.691323 0.664334 0.168470
Si Si3 0.906446 0.558257 0.668164
Si Si4 0.392434 0.212156 0.169210
O O1 0.128216 0.114408 0.255519
O O2 0.285157 0.071208 0.170474
O O3 0.141495 0.000000 0.250000
O O4 0.127257 0.056332 0.000000
O O5 0.630439 0.722197 0.168919
O O6 0.798611 0.681657 0.248157
O O7 0.713356 0.648040 0.000000
O O8 0.902922 0.500000 0.750000
O O9 0.937159 0.554308 0.500000
O O10 0.000000 0.589554 0.750000
O O11 0.500000 0.205036 0.250000
O O12 0.395615 0.192813 0.000000
#
# Coordination Sequence:
#
# PCOD9526566 Si02
#       4
#    16  16  16  16
#     4  10  20  33  50  74 107 147 188 229 277 333
#     4  10  21  37  58  85 116 149 189 235 283 339
#     4   9  16  25  38  57  84 122 166 209 252 302
#     4  10  21  38  61  87 114 147 187 235 290 341
#
# _framework density 22.416740000000001
#
# number of rings (size 3 to 8) (size 9 to 14) (size 15 to 20)
#    0.000    2.250    0.000    3.750    0.000    7.000 
#    0.000    2.500    0.000    0.750    0.000    5.250 
#    0.000    0.000    0.000    0.000    0.000    0.000 
#
# Total GULP energy -178456.085125 kJ/mol
# GULP energy per Si atom -5576.752660 kJ/mol
# Density = 2.236572 g / cm^3
# Si number density = 22.416740 Si / 1000 Ang^3
#
#
#
# Elastic Constant Matrix: (Units=GPa)
#
#
# Indices 1 2 3 4 5 6 
#
# 1 59.2730 4.7840 31.3564 -0.0001 0.0001 0.0001
# 2 4.7840 164.1432 76.4964 -0.0001 0.0001 0.0001
# 3 31.3564 76.4964 196.7121 -0.0007 0.0004 0.0016
# 4 -0.0001 -0.0001 -0.0007 15.1404 0.0002 0.0004
# 5 0.0001 0.0001 0.0004 0.0002 19.4157 -0.0003
# 6 0.0001 0.0001 0.0016 0.0004 -0.0003 -24.3157
#
#
#
# Elastic Compliance Matrix: (Units=1/GPa)
#
#
# Indices 1 2 3 4 5 6 
#
# 1 0.018565 0.001024 -0.003357 0.000000 0.000000 0.000000
# 2 0.001024 0.007497 -0.003079 0.000000 0.000000 0.000000
# 3 -0.003357 -0.003079 0.006816 0.000000 0.000000 0.000000
# 4 0.000000 0.000000 0.000000 0.066048 -0.000001 0.000001
# 5 0.000000 0.000000 0.000000 -0.000001 0.051505 -0.000001
# 6 0.000000 0.000000 0.000000 0.000001 -0.000001 -0.041126
#
#
# Mechanical properties :
#
#
# Convention : Reuss Voigt Hill
#
# Bulk Modulus (GPa) = 45.34546 71.71131 58.52839
# Shear Modulus (GPa) = 39.22161 22.54750 30.88455
#
# Velocity S-wave (km/s) = 4.18743 3.17493 3.71583
# Velocity P-wave (km/s) = 6.60694 6.74535 6.67651
#
# Compressibility (1/GPa) = 0.02205293
#
# Stress axis : x y z
#
# Youngs Moduli (GPa) = 53.86617 133.38411 146.71540
#
# Poissons Ratio (x) = -0.13652 0.49256
# Poissons Ratio (y) = -0.05513 0.45168
# Poissons Ratio (z) = 0.18084 0.41064
#
# Static dielectric constant tensor:
#      x y z
#    x 1.909420 0.000000 0.000000 
#    y 0.000000 1.897260 0.000000 
#    z 0.000000 0.000000 1.811450 
# 
# From -- ./inp_files/3448.got.cif
#   From: 2010.05.17/outbox.cif.g08.bks.cpg/sg72_2_cif.got.tgz:3448.got - 2010.06.03 17:03:01.
