data_PCOD9526938
_publ_section_title
;
Structure prediction by ZEFSAII (Michael W. Deem and Ramdas Pophale) SiO2 
 PCOD9526938
Probable space group: I B A M
;
_chemical_formula_sum "Si O2"
_cell_formula_units_Z 40
_cell_length_a 9.857483
_cell_length_b 9.569851
_cell_length_c 18.705131
_cell_angle_alpha 90.000000
_cell_angle_beta 90.000000
_cell_angle_gamma 90.000000
_cell_volume 1764.541865
_symmetry_space_group_name_H-M "I B A M"
_symmetry_group_IT_number 72
_symmetry_cell_setting 'orthorhombic'
loop_
_space_group_symop_operation_xyz
x,y,z
-x,-y,z
x,-y,1/2-z
-x,y,1/2-z
-x,-y,-z
x,y,-z
-x,y,1/2+z
x,-y,1/2+z
1/2+x,1/2+y,1/2+z
1/2-x,1/2-y,1/2+z
1/2+x,1/2-y,-z
1/2-x,1/2+y,-z
1/2-x,1/2-y,1/2-z
1/2+x,1/2+y,1/2-z
1/2-x,1/2+y,z
1/2+x,1/2-y,z
loop_
_atom_site_type_symbol
_atom_site_label
_atom_site_fract_x
_atom_site_fract_y
_atom_site_fract_z
Si Si1 0.205977 0.498679 0.830404
Si Si2 0.678481 0.737610 0.081172
Si Si3 0.000000 0.000000 0.628150
O O1 0.153641 0.500000 0.750000
O O2 0.212877 0.350613 0.871312
O O3 0.143362 0.618582 0.879644
O O4 0.366792 0.538750 0.827533
O O5 0.551448 0.631390 0.082703
O O6 0.722935 0.762025 0.000000
#
# Coordination Sequence:
#
# PCOD9526938 Si02
#       3
#    16  16   8
#     4  10  20  37  59  87 120 155 201 244 294 354
#     4  10  20  35  59  87 120 159 197 243 297 356
#     4   8  22  34  62  84 122 154 200 236 308 342
#
# _framework density 22.668773000000002
#
# number of rings (size 3 to 8) (size 9 to 14) (size 15 to 20)
#    2.400    0.000    0.000    3.600    0.000    0.000 
#    0.000    2.000    0.000    7.200    0.000    0.000 
#    0.000    0.000    0.000    0.000    0.000    0.000 
#
# Total GULP energy -111380.982790 kJ/mol
# GULP energy per Si atom -5569.049139 kJ/mol
# Density = 2.261718 g / cm^3
# Si number density = 22.668773 Si / 1000 Ang^3
#
#
#
# Elastic Constant Matrix: (Units=GPa)
#
#
# Indices 1 2 3 4 5 6 
#
# 1 69.3897 -12.3979 -9.0869 0.0000 0.0000 0.0000
# 2 -12.3979 123.7193 60.5283 0.0000 0.0000 0.0000
# 3 -9.0869 60.5283 206.8383 0.0000 0.0000 0.0000
# 4 0.0000 0.0000 0.0000 51.3259 0.0000 0.0000
# 5 0.0000 0.0000 0.0000 0.0000 43.9139 0.0000
# 6 0.0000 0.0000 0.0000 0.0000 0.0000 26.0972
#
#
#
# Elastic Compliance Matrix: (Units=1/GPa)
#
#
# Indices 1 2 3 4 5 6 
#
# 1 0.014685 0.001349 0.000250 0.000000 0.000000 0.000000
# 2 0.001349 0.009557 -0.002738 0.000000 0.000000 0.000000
# 3 0.000250 -0.002738 0.005647 0.000000 0.000000 0.000000
# 4 0.000000 0.000000 0.000000 0.019483 0.000000 0.000000
# 5 0.000000 0.000000 0.000000 0.000000 0.022772 0.000000
# 6 0.000000 0.000000 0.000000 0.000000 0.000000 0.038318
#
#
# Mechanical properties :
#
#
# Convention : Reuss Voigt Hill
#
# Bulk Modulus (GPa) = 36.21462 53.11494 44.66478
# Shear Modulus (GPa) = 41.00266 48.32766 44.66516
#
# Velocity S-wave (km/s) = 4.25758 4.62226 4.44367
# Velocity P-wave (km/s) = 6.33873 7.20894 6.78780
#
# Compressibility (1/GPa) = 0.02761316
#
# Stress axis : x y z
#
# Youngs Moduli (GPa) = 68.09583 104.63180 177.09154
#
# Poissons Ratio (x) = -0.14116 -0.04434
# Poissons Ratio (y) = -0.09187 0.48480
# Poissons Ratio (z) = -0.01705 0.28643
#
# Static dielectric constant tensor:
#      x y z
#    x 1.929840 0.000000 0.000000 
#    y 0.000000 1.814820 0.000000 
#    z 0.000000 0.000000 1.823470 
# 
# From -- ./inp_files/28503.got.cif
#   From: 2010.05.17/outbox.cif.g08.bks.cpg/sg72_15_cif.got.tgz:28503.got - 2010.06.03 17:03:01.
