data_PCOD9526100
_publ_section_title
;
Structure prediction by ZEFSAII (Michael W. Deem and Ramdas Pophale) SiO2 
 PCOD9526100
Probable space group: I B A M
;
_chemical_formula_sum "Si O2"
_cell_formula_units_Z 96
_cell_length_a 16.552682
_cell_length_b 18.271241
_cell_length_c 18.655047
_cell_angle_alpha 90.000000
_cell_angle_beta 90.000000
_cell_angle_gamma 90.000000
_cell_volume 5641.995888
_symmetry_space_group_name_H-M "I B A M"
_symmetry_group_IT_number 72
_symmetry_cell_setting 'orthorhombic'
loop_
_space_group_symop_operation_xyz
x,y,z
-x,-y,z
x,-y,1/2-z
-x,y,1/2-z
-x,-y,-z
x,y,-z
-x,y,1/2+z
x,-y,1/2+z
1/2+x,1/2+y,1/2+z
1/2-x,1/2-y,1/2+z
1/2+x,1/2-y,-z
1/2-x,1/2+y,-z
1/2-x,1/2-y,1/2-z
1/2+x,1/2+y,1/2-z
1/2-x,1/2+y,z
1/2+x,1/2-y,z
loop_
_atom_site_type_symbol
_atom_site_label
_atom_site_fract_x
_atom_site_fract_y
_atom_site_fract_z
Si Si1 0.905429 0.079139 0.769604
Si Si2 0.064743 0.722660 0.151162
Si Si3 0.013882 0.416741 0.085695
Si Si4 0.387089 0.729734 0.199660
Si Si5 0.176267 0.329109 0.918079
Si Si6 0.637933 0.358662 0.580102
O O1 0.869482 0.147340 0.724955
O O2 0.896543 0.095430 0.853760
O O3 0.000000 0.079128 0.750000
O O4 0.871069 0.000000 0.750000
O O5 0.111726 0.723918 0.226586
O O6 0.110599 0.775007 0.095697
O O7 0.044127 0.642505 0.122906
O O8 0.978261 0.761861 0.168254
O O9 0.105053 0.387174 0.098308
O O10 0.000000 0.500000 0.109835
O O11 0.000166 0.414334 0.000000
O O12 0.330803 0.764470 0.139608
O O13 0.265208 0.362365 0.915626
O O14 0.161943 0.303001 0.000000
O O15 0.612030 0.380157 0.500000
#
# Coordination Sequence:
#
# PCOD9526100 Si02
#       6
#    16  16  16  16  16  16
#     4  10  19  35  53  74 106 138 172 217 269 317
#     4   9  16  29  51  74  96 128 174 212 251 311
#     4   9  17  31  50  73 103 139 169 211 267 318
#     4   9  16  33  50  74  98 132 168 210 259 306
#     4   9  19  33  51  75 106 135 174 222 266 313
#     4  10  19  34  54  77 101 137 177 221 267 316
#
# _framework density 17.015256000000001
#
# number of rings (size 3 to 8) (size 9 to 14) (size 15 to 20)
#    0.000    2.667    3.333    0.500    0.000    3.333 
#    0.000   12.500    0.000    4.000    0.000    0.000 
#    0.000    0.000    0.000    0.000    0.000    0.000 
#
# Total GULP energy -267315.470597 kJ/mol
# GULP energy per Si atom -5569.072304 kJ/mol
# Density = 1.697653 g / cm^3
# Si number density = 17.015256 Si / 1000 Ang^3
#
#
#
# Elastic Constant Matrix: (Units=GPa)
#
#
# Indices 1 2 3 4 5 6 
#
# 1 34.7639 21.8787 33.2947 0.0000 0.0000 0.0000
# 2 21.8787 143.7019 62.7204 0.0000 0.0000 0.0000
# 3 33.2947 62.7204 115.8047 0.0000 0.0000 0.0000
# 4 0.0000 0.0000 0.0000 15.6264 0.0000 0.0000
# 5 0.0000 0.0000 0.0000 0.0000 23.9173 0.0000
# 6 0.0000 0.0000 0.0000 0.0000 0.0000 6.7405
#
#
#
# Elastic Compliance Matrix: (Units=1/GPa)
#
#
# Indices 1 2 3 4 5 6 
#
# 1 0.039910 -0.001399 -0.010717 0.000000 0.000000 0.000000
# 2 -0.001399 0.009162 -0.004560 0.000000 0.000000 0.000000
# 3 -0.010717 -0.004560 0.014186 0.000000 0.000000 0.000000
# 4 0.000000 0.000000 0.000000 0.063994 0.000000 0.000000
# 5 0.000000 0.000000 0.000000 0.000000 0.041811 0.000000
# 6 0.000000 0.000000 0.000000 0.000000 0.000000 0.148356
#
#
# Mechanical properties :
#
#
# Convention : Reuss Voigt Hill
#
# Bulk Modulus (GPa) = 33.43735 58.89534 46.16634
# Shear Modulus (GPa) = 13.86044 21.01529 17.43786
#
# Velocity S-wave (km/s) = 2.85720 3.51819 3.20478
# Velocity P-wave (km/s) = 5.52981 7.15485 6.39417
#
# Compressibility (1/GPa) = 0.02990667
#
# Stress axis : x y z
#
# Youngs Moduli (GPa) = 25.05660 109.14501 70.49147
#
# Poissons Ratio (x) = 0.15268 0.75544
# Poissons Ratio (y) = 0.03505 0.32145
# Poissons Ratio (z) = 0.26852 0.49771
#
# Static dielectric constant tensor:
#      x y z
#    x 1.585200 0.000000 0.000000 
#    y 0.000000 1.576160 0.000000 
#    z 0.000000 0.000000 1.588600 
# 
# From -- ./inp_files/31603.got.cif
#   From: 2010.05.17/outbox.cif.g08.bks.cpg/sg72_16_cif.got.tgz:31603.got - 2010.06.03 17:03:01.
