data_PCOD9526486
_publ_section_title
;
Structure prediction by ZEFSAII (Michael W. Deem and Ramdas Pophale) SiO2 
 PCOD9526486
Probable space group: I B A M
;
_chemical_formula_sum "Si O2"
_cell_formula_units_Z 112
_cell_length_a 17.461029
_cell_length_b 28.474955
_cell_length_c 15.208104
_cell_angle_alpha 90.000000
_cell_angle_beta 90.000000
_cell_angle_gamma 90.000000
_cell_volume 7561.499954
_symmetry_space_group_name_H-M "I B A M"
_symmetry_group_IT_number 72
_symmetry_cell_setting 'orthorhombic'
loop_
_space_group_symop_operation_xyz
x,y,z
-x,-y,z
x,-y,1/2-z
-x,y,1/2-z
-x,-y,-z
x,y,-z
-x,y,1/2+z
x,-y,1/2+z
1/2+x,1/2+y,1/2+z
1/2-x,1/2-y,1/2+z
1/2+x,1/2-y,-z
1/2-x,1/2+y,-z
1/2-x,1/2-y,1/2-z
1/2+x,1/2+y,1/2-z
1/2-x,1/2+y,z
1/2+x,1/2-y,z
loop_
_atom_site_type_symbol
_atom_site_label
_atom_site_fract_x
_atom_site_fract_y
_atom_site_fract_z
Si Si1 0.473117 0.115288 0.652774
Si Si2 0.110308 0.749442 0.900683
Si Si3 0.137511 0.576450 0.102971
Si Si4 0.732633 0.164009 0.396135
Si Si5 0.413619 0.020497 0.603670
Si Si6 0.065471 0.283173 0.901342
Si Si7 0.828645 0.776400 0.226891
O O1 0.500000 0.128289 0.750000
O O2 0.552038 0.098540 0.607430
O O3 0.417316 0.070168 0.652488
O O4 0.436020 0.160691 0.609710
O O5 0.165139 0.703528 0.892082
O O6 0.131751 0.784167 0.821282
O O7 0.022619 0.733154 0.891924
O O8 0.121746 0.767871 0.000000
O O9 0.196018 0.615300 0.137333
O O10 0.135497 0.523360 0.139294
O O11 0.154850 0.570993 0.000000
O O12 0.753019 0.160428 0.500000
O O13 0.802252 0.181050 0.335361
O O14 0.397203 0.029115 0.500000
O O15 0.500000 0.000000 0.608001
O O16 0.117326 0.257953 0.829412
O O17 0.091906 0.271030 0.000000
O O18 0.750000 0.750000 0.250000
#
# Coordination Sequence:
#
# PCOD9526486 Si02
#       7
#    16  16  16  16  16  16  16
#     4  11  19  25  41  60  88 109 146 189 233 257
#     4   9  17  29  45  61  82 109 142 180 226 267
#     4   9  16  28  43  56  77 111 148 184 225 262
#     4   9  16  28  44  61  81 113 148 187 226 265
#     4   8  15  26  38  55  78 107 141 182 224 257
#     4  11  20  31  46  64  84 114 153 195 230 266
#     4  10  20  30  43  60  86 109 145 188 225 270
#
# _framework density 14.811876
#
# number of rings (size 3 to 8) (size 9 to 14) (size 15 to 20)
#    0.000    2.429    1.429    3.857    2.000    3.143 
#    0.000    0.000    0.000    0.000    0.000    0.000 
#    0.000    0.000    0.000    0.000    0.000   24.286 
#
# Total GULP energy -311804.280937 kJ/mol
# GULP energy per Si atom -5567.933588 kJ/mol
# Density = 1.477816 g / cm^3
# Si number density = 14.811876 Si / 1000 Ang^3
#
#
#
# Elastic Constant Matrix: (Units=GPa)
#
#
# Indices 1 2 3 4 5 6 
#
# 1 36.3868 27.1796 30.5379 0.0000 0.0000 0.0000
# 2 27.1796 62.7050 27.6409 0.0000 0.0000 0.0000
# 3 30.5379 27.6409 79.1946 0.0000 0.0001 0.0000
# 4 0.0000 0.0000 0.0000 10.6006 0.0000 0.0000
# 5 0.0000 0.0000 0.0001 0.0000 2.4716 0.0000
# 6 0.0000 0.0000 0.0000 0.0000 0.0000 22.1795
#
#
#
# Elastic Compliance Matrix: (Units=1/GPa)
#
#
# Indices 1 2 3 4 5 6 
#
# 1 0.051369 -0.015995 -0.014225 0.000000 0.000000 0.000000
# 2 -0.015995 0.023828 -0.002149 0.000000 0.000000 0.000000
# 3 -0.014225 -0.002149 0.018862 0.000000 0.000000 0.000000
# 4 0.000000 0.000000 0.000000 0.094334 -0.000001 0.000000
# 5 0.000000 0.000000 0.000000 -0.000001 0.404599 0.000000
# 6 0.000000 0.000000 0.000000 0.000000 0.000000 0.045087
#
#
# Mechanical properties :
#
#
# Convention : Reuss Voigt Hill
#
# Bulk Modulus (GPa) = 34.10559 38.77815 36.44187
# Shear Modulus (GPa) = 7.01663 13.24554 10.13108
#
# Velocity S-wave (km/s) = 2.17886 2.99365 2.61815
# Velocity P-wave (km/s) = 5.42271 6.17952 5.81344
#
# Compressibility (1/GPa) = 0.02932071
#
# Stress axis : x y z
#
# Youngs Moduli (GPa) = 19.46688 41.96727 53.01525
#
# Poissons Ratio (x) = 0.67128 0.75417
# Poissons Ratio (y) = 0.31138 0.11391
# Poissons Ratio (z) = 0.27693 0.09017
#
# Static dielectric constant tensor:
#      x y z
#    x 1.470840 0.000000 0.000000 
#    y 0.000000 1.502800 0.000000 
#    z 0.000000 0.000000 1.550250 
# 
# From -- ./inp_files/22419.got.cif
#   From: 2010.05.17/outbox.cif.g08.bks.cpg/sg72_12_cif.got.tgz:22419.got - 2010.06.03 17:03:01.
