data_PCOD9526166
_publ_section_title
;
Structure prediction by ZEFSAII (Michael W. Deem and Ramdas Pophale) SiO2 
 PCOD9526166
Probable space group: I B A M
;
_chemical_formula_sum "Si O2"
_cell_formula_units_Z 88
_cell_length_a 10.953872
_cell_length_b 14.314967
_cell_length_c 23.042620
_cell_angle_alpha 90.000000
_cell_angle_beta 90.000000
_cell_angle_gamma 90.000000
_cell_volume 3613.182273
_symmetry_space_group_name_H-M "I B A M"
_symmetry_group_IT_number 72
_symmetry_cell_setting 'orthorhombic'
loop_
_space_group_symop_operation_xyz
x,y,z
-x,-y,z
x,-y,1/2-z
-x,y,1/2-z
-x,-y,-z
x,y,-z
-x,y,1/2+z
x,-y,1/2+z
1/2+x,1/2+y,1/2+z
1/2-x,1/2-y,1/2+z
1/2+x,1/2-y,-z
1/2-x,1/2+y,-z
1/2-x,1/2-y,1/2-z
1/2+x,1/2+y,1/2-z
1/2-x,1/2+y,z
1/2+x,1/2-y,z
loop_
_atom_site_type_symbol
_atom_site_label
_atom_site_fract_x
_atom_site_fract_y
_atom_site_fract_z
Si Si1 0.906545 0.635677 0.385265
Si Si2 0.433566 0.343624 0.120185
Si Si3 0.500000 0.643711 0.250000
Si Si4 0.331321 0.647929 0.932839
Si Si5 0.329177 0.155907 0.363080
Si Si6 0.717810 0.104705 0.262479
O O1 0.920299 0.742059 0.409306
O O2 0.796101 0.594470 0.422825
O O3 0.847236 0.635499 0.321091
O O4 0.046676 0.603423 0.380428
O O5 0.466630 0.317460 0.186718
O O6 0.545025 0.397572 0.091521
O O7 0.300723 0.390354 0.121238
O O8 0.365689 0.600367 0.234402
O O9 0.327357 0.743740 0.894618
O O10 0.345222 0.669704 0.000000
O O11 0.322932 0.165950 0.293040
O O12 0.674541 0.000000 0.250000
#
# Coordination Sequence:
#
# PCOD9526166 Si02
#       6
#    16  16   8  16  16  16
#     4  10  20  33  53  84 116 148 181 228 287 343
#     4   9  19  32  54  82 112 140 181 239 293 336
#     4  10  19  34  58  84 109 144 192 242 284 334
#     4  10  20  36  57  83 115 150 189 237 288 337
#     4   9  21  32  51  83 110 148 182 232 286 333
#     4  11  22  36  55  82 120 157 192 227 275 343
#
# _framework density 24.355262
#
# number of rings (size 3 to 8) (size 9 to 14) (size 15 to 20)
#    0.000    2.182    1.818    0.818    5.091   10.182 
#    0.000    0.000    0.000    1.091    0.000    8.909 
#    0.000    0.000    0.000    0.000    0.000    0.000 
#
# Total GULP energy -245186.491014 kJ/mol
# GULP energy per Si atom -5572.420250 kJ/mol
# Density = 2.429983 g / cm^3
# Si number density = 24.355262 Si / 1000 Ang^3
#
#
#
# Elastic Constant Matrix: (Units=GPa)
#
#
# Indices 1 2 3 4 5 6 
#
# 1 259.0316 19.5887 44.7311 0.0000 0.0000 0.0000
# 2 19.5887 51.8094 18.7721 0.0000 0.0000 0.0000
# 3 44.7311 18.7721 117.3544 0.0000 0.0000 0.0000
# 4 0.0000 0.0000 0.0000 -9.9258 0.0000 0.0000
# 5 0.0000 0.0000 0.0000 0.0000 14.2057 0.0000
# 6 0.0000 0.0000 0.0000 0.0000 0.0000 8.1450
#
#
#
# Elastic Compliance Matrix: (Units=1/GPa)
#
#
# Indices 1 2 3 4 5 6 
#
# 1 0.004187 -0.001067 -0.001425 0.000000 0.000000 0.000000
# 2 -0.001067 0.020761 -0.002914 0.000000 0.000000 0.000000
# 3 -0.001425 -0.002914 0.009531 0.000000 0.000000 0.000000
# 4 0.000000 0.000000 0.000000 -0.100747 0.000000 0.000000
# 5 0.000000 0.000000 0.000000 0.000000 0.070394 0.000000
# 6 0.000000 0.000000 0.000000 0.000000 0.000000 0.122774
#
#
# Mechanical properties :
#
#
# Convention : Reuss Voigt Hill
#
# Bulk Modulus (GPa) = 42.25490 66.04213 54.14851
# Shear Modulus (GPa) = 34.34025 25.49188 29.91607
#
# Velocity S-wave (km/s) = 3.75903 3.23874 3.50854
# Velocity P-wave (km/s) = 6.01893 6.41568 6.22047
#
# Compressibility (1/GPa) = 0.02366590
#
# Stress axis : x y z
#
# Youngs Moduli (GPa) = 238.81437 48.16773 104.92423
#
# Poissons Ratio (x) = 0.05138 0.14956
# Poissons Ratio (y) = 0.25475 0.30578
# Poissons Ratio (z) = 0.34041 0.14038
#
# Static dielectric constant tensor:
#      x y z
#    x 2.092790 0.000000 0.000000 
#    y 0.000000 1.998970 0.000000 
#    z 0.000000 0.000000 1.877610 
# 
# From -- ./inp_files/36912.got.cif
#   From: 2010.05.17/outbox.cif.g08.bks.cpg/sg72_19_cif.got.tgz:36912.got - 2010.06.03 17:03:01.
