data_PCOD9526112
_publ_section_title
;
Structure prediction by ZEFSAII (Michael W. Deem and Ramdas Pophale) SiO2 
 PCOD9526112
Probable space group: I B A M
;
_chemical_formula_sum "Si O2"
_cell_formula_units_Z 112
_cell_length_a 12.690125
_cell_length_b 27.248488
_cell_length_c 18.285029
_cell_angle_alpha 90.000000
_cell_angle_beta 90.000000
_cell_angle_gamma 90.000000
_cell_volume 6322.720181
_symmetry_space_group_name_H-M "I B A M"
_symmetry_group_IT_number 72
_symmetry_cell_setting 'orthorhombic'
loop_
_space_group_symop_operation_xyz
x,y,z
-x,-y,z
x,-y,1/2-z
-x,y,1/2-z
-x,-y,-z
x,y,-z
-x,y,1/2+z
x,-y,1/2+z
1/2+x,1/2+y,1/2+z
1/2-x,1/2-y,1/2+z
1/2+x,1/2-y,-z
1/2-x,1/2+y,-z
1/2-x,1/2-y,1/2-z
1/2+x,1/2+y,1/2-z
1/2-x,1/2+y,z
1/2+x,1/2-y,z
loop_
_atom_site_type_symbol
_atom_site_label
_atom_site_fract_x
_atom_site_fract_y
_atom_site_fract_z
Si Si1 0.394079 0.127903 0.204341
Si Si2 0.028351 0.905288 0.585900
Si Si3 0.826502 0.944070 0.663234
Si Si4 0.494929 0.807358 0.914512
Si Si5 0.221367 0.658589 0.345490
Si Si6 0.574248 0.698839 0.913602
Si Si7 0.720788 0.553812 0.332197
O O1 0.500000 0.115590 0.250000
O O2 0.428075 0.161675 0.137222
O O3 0.317891 0.156241 0.261564
O O4 0.332774 0.080082 0.176507
O O5 0.017476 0.914767 0.500000
O O6 0.144146 0.917883 0.613262
O O7 0.941559 0.937412 0.628748
O O8 0.999129 0.848435 0.599641
O O9 0.757278 0.897499 0.637387
O O10 0.830957 0.942123 0.751300
O O11 0.776688 0.996805 0.645964
O O12 0.377043 0.823262 0.892846
O O13 0.515525 0.749836 0.900191
O O14 0.513714 0.816536 0.000000
O O15 0.322542 0.691499 0.363964
O O16 0.605067 0.697460 0.000000
#
# Coordination Sequence:
#
# PCOD9526112 Si02
#       7
#    16  16  16  16  16  16  16
#     4   9  20  37  54  77 104 133 177 225 263 303
#     4  10  20  33  51  80 114 139 168 213 259 312
#     4   9  19  35  54  76 103 141 178 206 253 317
#     4  10  20  35  54  75 102 136 172 216 267 315
#     4   9  18  36  55  73 101 136 176 216 257 311
#     4   9  19  34  53  77 104 140 178 207 252 316
#     4  10  19  34  55  77 104 140 176 214 260 306
#
# _framework density 17.713895000000001
#
# number of rings (size 3 to 8) (size 9 to 14) (size 15 to 20)
#    0.000    2.571    0.000    1.286    0.000    5.143 
#    0.000   26.429    0.000    0.857    0.000    0.000 
#    0.000    0.000    0.000    0.000    0.000    0.000 
#
# Total GULP energy -312284.417445 kJ/mol
# GULP energy per Si atom -5576.507454 kJ/mol
# Density = 1.767358 g / cm^3
# Si number density = 17.713895 Si / 1000 Ang^3
#
#
#
# Elastic Constant Matrix: (Units=GPa)
#
#
# Indices 1 2 3 4 5 6 
#
# 1 69.1008 53.0969 31.9684 0.0000 0.0000 0.0000
# 2 53.0969 103.4577 48.1300 0.0000 0.0000 0.0000
# 3 31.9684 48.1300 42.3462 0.0001 0.0000 0.0000
# 4 0.0000 0.0000 0.0001 20.9615 0.0000 0.0000
# 5 0.0000 0.0000 0.0000 0.0000 20.8908 0.0000
# 6 0.0000 0.0000 0.0000 0.0000 0.0000 19.8068
#
#
#
# Elastic Compliance Matrix: (Units=1/GPa)
#
#
# Indices 1 2 3 4 5 6 
#
# 1 0.025508 -0.008770 -0.009289 0.000000 0.000000 0.000000
# 2 -0.008770 0.023526 -0.020119 0.000000 0.000000 0.000000
# 3 -0.009289 -0.020119 0.053494 0.000000 0.000000 0.000000
# 4 0.000000 0.000000 0.000000 0.047706 0.000000 0.000000
# 5 0.000000 0.000000 0.000000 0.000000 0.047868 0.000000
# 6 0.000000 0.000000 0.000000 0.000000 0.000000 0.050488
#
#
# Mechanical properties :
#
#
# Convention : Reuss Voigt Hill
#
# Bulk Modulus (GPa) = 38.20760 53.47726 45.84243
# Shear Modulus (GPa) = 14.98487 17.77913 16.38200
#
# Velocity S-wave (km/s) = 2.91166 3.17153 3.04437
# Velocity P-wave (km/s) = 5.73758 6.60806 6.18814
#
# Compressibility (1/GPa) = 0.02617280
#
# Stress axis : x y z
#
# Youngs Moduli (GPa) = 39.20388 42.50560 18.69359
#
# Poissons Ratio (x) = 0.37277 0.17364
# Poissons Ratio (y) = 0.34381 0.37610
# Poissons Ratio (z) = 0.36416 0.85517
#
# Static dielectric constant tensor:
#      x y z
#    x 1.587010 0.000000 0.000000 
#    y 0.000000 1.600880 0.000000 
#    z 0.000000 0.000000 1.601990 
# 
# From -- ./inp_files/37311.got.cif
#   From: 2010.05.17/outbox.cif.g08.bks.cpg/sg72_19_cif.got.tgz:37311.got - 2010.06.03 17:03:01.
