data_PCOD9526694
_publ_section_title
;
Structure prediction by ZEFSAII (Michael W. Deem and Ramdas Pophale) SiO2 
 PCOD9526694
Probable space group: I B A M
;
_chemical_formula_sum "Si O2"
_cell_formula_units_Z 88
_cell_length_a 32.552691
_cell_length_b 5.714835
_cell_length_c 23.102787
_cell_angle_alpha 90.000000
_cell_angle_beta 90.000000
_cell_angle_gamma 90.000000
_cell_volume 4297.886732
_symmetry_space_group_name_H-M "I B A M"
_symmetry_group_IT_number 72
_symmetry_cell_setting 'orthorhombic'
loop_
_space_group_symop_operation_xyz
x,y,z
-x,-y,z
x,-y,1/2-z
-x,y,1/2-z
-x,-y,-z
x,y,-z
-x,y,1/2+z
x,-y,1/2+z
1/2+x,1/2+y,1/2+z
1/2-x,1/2-y,1/2+z
1/2+x,1/2-y,-z
1/2-x,1/2+y,-z
1/2-x,1/2-y,1/2-z
1/2+x,1/2+y,1/2-z
1/2-x,1/2+y,z
1/2+x,1/2-y,z
loop_
_atom_site_type_symbol
_atom_site_label
_atom_site_fract_x
_atom_site_fract_y
_atom_site_fract_z
Si Si1 0.268278 0.856316 0.930281
Si Si2 0.650630 0.402155 0.065052
Si Si3 0.541059 0.637596 0.326899
Si Si4 0.066231 0.387589 0.064891
Si Si5 0.412400 0.000000 0.250000
Si Si6 0.390741 0.262573 0.141013
O O1 0.245447 0.615283 0.909583
O O2 0.315996 0.794060 0.919733
O O3 0.262465 0.864999 0.000000
O O4 0.605871 0.284142 0.062907
O O5 0.647640 0.609297 0.111484
O O6 0.660549 0.490529 0.000000
O O7 0.500000 0.500000 0.314432
O O8 0.536145 0.780850 0.387073
O O9 0.578228 0.458522 0.335983
O O10 0.557124 0.810765 0.277943
O O11 0.084961 0.624834 0.090773
O O12 0.050026 0.411359 0.000000
O O13 0.385480 0.905601 0.303738
#
# Coordination Sequence:
#
# PCOD9526694 Si02
#       6
#    16  16  16  16   8  16
#     4   9  18  30  48  79 115 150 187 228 280 339
#     4   9  18  32  52  76 110 148 182 225 272 332
#     4  10  22  38  55  78 107 139 180 228 283 332
#     4   9  19  34  53  79 110 146 183 218 270 336
#     4  10  22  37  54  76 104 136 182 236 284 332
#     4  10  20  34  53  77 104 140 187 227 281 328
#
# _framework density 20.475179000000001
#
# number of rings (size 3 to 8) (size 9 to 14) (size 15 to 20)
#    0.000    2.545    0.000    1.091    2.545    6.182 
#    0.000    0.909    0.000    0.000    0.000    1.273 
#    0.000    0.000    0.000    0.000    0.000    0.000 
#
# Total GULP energy -245492.450147 kJ/mol
# GULP energy per Si atom -5579.373867 kJ/mol
# Density = 2.042858 g / cm^3
# Si number density = 20.475179 Si / 1000 Ang^3
#
#
#
# Elastic Constant Matrix: (Units=GPa)
#
#
# Indices 1 2 3 4 5 6 
#
# 1 37.9763 3.1663 6.9301 0.0000 0.0000 0.0000
# 2 3.1663 70.1660 23.9272 0.0000 0.0000 0.0000
# 3 6.9301 23.9272 103.9996 0.0000 0.0000 0.0000
# 4 0.0000 0.0000 0.0000 30.7633 0.0000 0.0000
# 5 0.0000 0.0000 0.0000 0.0000-1006.5384 0.0000
# 6 0.0000 0.0000 0.0000 0.0000 0.0000 25.1887
#
#
#
# Elastic Compliance Matrix: (Units=1/GPa)
#
#
# Indices 1 2 3 4 5 6 
#
# 1 0.026684 -0.000649 -0.001629 0.000000 0.000000 0.000000
# 2 -0.000649 0.015481 -0.003519 0.000000 0.000000 0.000000
# 3 -0.001629 -0.003519 0.010533 0.000000 0.000000 0.000000
# 4 0.000000 0.000000 0.000000 0.032506 0.000000 0.000000
# 5 0.000000 0.000000 0.000000 0.000000 -0.000994 0.000000
# 6 0.000000 0.000000 0.000000 0.000000 0.000000 0.039700
#
#
# Mechanical properties :
#
#
# Convention : Reuss Voigt Hill
#
# Bulk Modulus (GPa) = 24.32733 31.13212 27.72972
# Shear Modulus (GPa) = 33.51088 -178.24274 -72.36593
#
# Velocity S-wave (km/s) = 4.04995 -9.34035 -5.95147
# Velocity P-wave (km/s) = 5.81177 10.05410 5.80122
#
# Compressibility (1/GPa) = 0.04110603
#
# Stress axis : x y z
#
# Youngs Moduli (GPa) = 37.47627 64.59515 94.93555
#
# Poissons Ratio (x) = 0.04190 0.15463
# Poissons Ratio (y) = 0.02431 0.33403
# Poissons Ratio (z) = 0.06104 0.22728
#
# Static dielectric constant tensor:
#      x y z
#    x 1.725570 0.000000 0.000000 
#    y 0.000000 1.791640 0.000000 
#    z 0.000000 0.000000 1.753020 
# 
# From -- ./inp_files/46138.got.cif
#   From: 2010.05.17/outbox.cif.g08.bks.cpg/sg72_24_cif.got.tgz:46138.got - 2010.06.03 17:03:01.
