data_PCOD9526259
_publ_section_title
;
Structure prediction by ZEFSAII (Michael W. Deem and Ramdas Pophale) SiO2 
 PCOD9526259
Probable space group: I B A M
;
_chemical_formula_sum "Si O2"
_cell_formula_units_Z 116
_cell_length_a 23.301818
_cell_length_b 28.985660
_cell_length_c 8.005300
_cell_angle_alpha 90.000000
_cell_angle_beta 90.000000
_cell_angle_gamma 90.000000
_cell_volume 5406.928310
_symmetry_space_group_name_H-M "I B A M"
_symmetry_group_IT_number 72
_symmetry_cell_setting 'orthorhombic'
loop_
_space_group_symop_operation_xyz
x,y,z
-x,-y,z
x,-y,1/2-z
-x,y,1/2-z
-x,-y,-z
x,y,-z
-x,y,1/2+z
x,-y,1/2+z
1/2+x,1/2+y,1/2+z
1/2-x,1/2-y,1/2+z
1/2+x,1/2-y,-z
1/2-x,1/2+y,-z
1/2-x,1/2-y,1/2-z
1/2+x,1/2+y,1/2-z
1/2-x,1/2+y,z
1/2+x,1/2-y,z
loop_
_atom_site_type_symbol
_atom_site_label
_atom_site_fract_x
_atom_site_fract_y
_atom_site_fract_z
Si Si1 0.770925 0.698722 0.298483
Si Si2 0.669857 0.550615 0.700547
Si Si3 0.842076 0.149030 0.700687
Si Si4 0.801757 0.448420 0.199257
Si Si5 0.561654 0.720824 0.198205
Si Si6 0.500000 0.000000 0.750000
Si Si7 0.902182 0.320684 0.796972
Si Si8 0.079067 0.580457 0.307802
O O1 0.772258 0.696925 0.500000
O O2 0.750000 0.750000 0.250000
O O3 0.721065 0.664180 0.238223
O O4 0.835113 0.685520 0.243738
O O5 0.648608 0.500000 0.750000
O O6 0.670442 0.550173 0.500000
O O7 0.640454 0.597791 0.759714
O O8 0.736251 0.556387 0.757024
O O9 0.838235 0.146943 0.500000
O O10 0.887286 0.188149 0.743818
O O11 0.817763 0.500000 0.250000
O O12 0.852600 0.419711 0.278190
O O13 0.802821 0.441215 0.000000
O O14 0.500000 0.702121 0.250000
O O15 0.568948 0.773100 0.261655
O O16 0.565023 0.723303 0.000000
O O17 0.547364 0.040351 0.700575
O O18 0.933654 0.366329 0.731088
O O19 0.902785 0.323580 0.000000
O O20 0.065830 0.568454 0.500000
#
# Coordination Sequence:
#
# PCOD9526259 Si02
#       8
#    16  16  16  16  16   4  16  16
#     4  10  19  35  60  92 127 161 197 248 309 368
#     4   9  19  35  58  90 125 160 194 236 293 355
#     4  10  20  36  61  90 125 164 199 244 301 360
#     4  10  19  35  58  83 117 153 192 240 295 357
#     4  11  24  42  63  88 120 160 204 249 299 357
#     4  12  30  48  60  82 118 152 214 280 330 368
#     4  10  23  42  63  89 123 158 197 254 314 369
#     4  12  26  42  62  83 108 151 205 258 316 370
#
# _framework density 21.453955000000001
#
# number of rings (size 3 to 8) (size 9 to 14) (size 15 to 20)
#    0.000    1.655    2.069    2.276    0.966    6.621 
#    0.000    1.379    0.000    0.414    0.000    2.897 
#    0.000    0.000    0.000    0.000    0.000    0.000 
#
# Total GULP energy -323483.341995 kJ/mol
# GULP energy per Si atom -5577.299000 kJ/mol
# Density = 2.140513 g / cm^3
# Si number density = 21.453955 Si / 1000 Ang^3
#
#
#
# Elastic Constant Matrix: (Units=GPa)
#
#
# Indices 1 2 3 4 5 6 
#
# 1 68.4958 22.9917 3.2413 0.0000 0.0000 0.0000
# 2 22.9917 162.2530 9.9858 0.0000 0.0000 0.0000
# 3 3.2413 9.9858 35.3442 0.0000 0.0000 0.0000
# 4 0.0000 0.0000 0.0000 14.9987 0.0000 0.0000
# 5 0.0000 0.0000 0.0000 0.0000 1.6372 0.0000
# 6 0.0000 0.0000 0.0000 0.0000 0.0000 6.8870
#
#
#
# Elastic Compliance Matrix: (Units=1/GPa)
#
#
# Indices 1 2 3 4 5 6 
#
# 1 0.015351 -0.002126 -0.000807 0.000000 0.000000 0.000000
# 2 -0.002126 0.006567 -0.001660 0.000000 0.000000 0.000000
# 3 -0.000807 -0.001660 0.028836 0.000000 0.000000 0.000000
# 4 0.000000 0.000000 0.000000 0.066673 0.000000 0.000000
# 5 0.000000 0.000000 0.000000 0.000000 0.610794 0.000000
# 6 0.000000 0.000000 0.000000 0.000000 0.000000 0.145202
#
#
# Mechanical properties :
#
#
# Convention : Reuss Voigt Hill
#
# Bulk Modulus (GPa) = 24.05718 37.61452 30.83585
# Shear Modulus (GPa) = 5.57747 20.02951 12.80349
#
# Velocity S-wave (km/s) = 1.61412 3.05881 2.44558
# Velocity P-wave (km/s) = 3.83557 5.48141 4.73061
#
# Compressibility (1/GPa) = 0.04156763
#
# Stress axis : x y z
#
# Youngs Moduli (GPa) = 65.14181 152.28568 34.67850
#
# Poissons Ratio (x) = 0.32370 0.02799
# Poissons Ratio (y) = 0.13847 0.05758
# Poissons Ratio (z) = 0.05259 0.25284
#
# Static dielectric constant tensor:
#      x y z
#    x 1.758160 0.000000 0.000000 
#    y 0.000000 1.802890 0.000000 
#    z 0.000000 0.000000 1.798510 
# 
# From -- ./inp_files/7293.got.cif
#   From: 2010.05.17/outbox.cif.g08.bks.cpg/sg72_4_cif.got.tgz:7293.got - 2010.06.03 17:03:01.
