data_PCOD9526232
_publ_section_title
;
Structure prediction by ZEFSAII (Michael W. Deem and Ramdas Pophale) SiO2 
 PCOD9526232
Probable space group: I B A M
;
_chemical_formula_sum "Si O2"
_cell_formula_units_Z 116
_cell_length_a 8.527837
_cell_length_b 28.247255
_cell_length_c 24.652865
_cell_angle_alpha 90.000000
_cell_angle_beta 90.000000
_cell_angle_gamma 90.000000
_cell_volume 5938.579007
_symmetry_space_group_name_H-M "I B A M"
_symmetry_group_IT_number 72
_symmetry_cell_setting 'orthorhombic'
loop_
_space_group_symop_operation_xyz
x,y,z
-x,-y,z
x,-y,1/2-z
-x,y,1/2-z
-x,-y,-z
x,y,-z
-x,y,1/2+z
x,-y,1/2+z
1/2+x,1/2+y,1/2+z
1/2-x,1/2-y,1/2+z
1/2+x,1/2-y,-z
1/2-x,1/2+y,-z
1/2-x,1/2-y,1/2-z
1/2+x,1/2+y,1/2-z
1/2-x,1/2+y,z
1/2+x,1/2-y,z
loop_
_atom_site_type_symbol
_atom_site_label
_atom_site_fract_x
_atom_site_fract_y
_atom_site_fract_z
Si Si1 0.149903 0.473820 0.139230
Si Si2 0.977384 0.704208 0.939924
Si Si3 0.519653 0.683735 0.186046
Si Si4 0.744367 0.243791 0.630413
Si Si5 0.986422 0.595895 0.440938
Si Si6 0.500000 0.500000 0.250000
Si Si7 0.533538 0.571370 0.836194
Si Si8 0.326154 0.549963 0.063677
O O1 0.069513 0.432197 0.105781
O O2 0.291854 0.450019 0.172016
O O3 0.229417 0.508626 0.094467
O O4 0.000000 0.500000 0.166652
O O5 0.102364 0.713596 0.893049
O O6 0.825542 0.732235 0.921372
O O7 0.950895 0.648548 0.941482
O O8 0.029713 0.719063 0.000000
O O9 0.500000 0.687739 0.250000
O O10 0.671210 0.713882 0.166537
O O11 0.370559 0.710024 0.159006
O O12 0.527663 0.627679 0.172361
O O13 0.017582 0.573173 0.500000
O O14 0.797942 0.593466 0.434614
O O15 0.567408 0.460630 0.206475
O O16 0.472515 0.560402 0.897111
O O17 0.361420 0.540612 0.000000
#
# Coordination Sequence:
#
# PCOD9526232 Si02
#       8
#    16  16  16  16  16   4  16  16
#     4  10  20  35  56  83 118 155 194 245 297 353
#     4  10  19  35  56  83 120 157 190 243 312 378
#     4  11  23  41  65  88 119 159 209 256 312 350
#     4  10  22  38  59  89 117 151 203 259 302 371
#     4   9  18  32  53  81 118 154 190 237 299 365
#     4  12  24  44  60  84 120 160 206 242 300 334
#     4  12  23  41  64  87 119 164 202 247 296 368
#     4  10  20  35  58  88 119 154 197 248 297 354
#
# _framework density 19.533291999999999
#
# number of rings (size 3 to 8) (size 9 to 14) (size 15 to 20)
#    0.000    1.655    2.069    2.897    0.000    3.310 
#    0.000    3.793    0.000    3.310    0.000    0.000 
#    0.000    0.000    0.000    0.000    0.000    0.000 
#
# Total GULP energy -323024.750119 kJ/mol
# GULP energy per Si atom -5569.392243 kJ/mol
# Density = 1.948883 g / cm^3
# Si number density = 19.533292 Si / 1000 Ang^3
#
#
#
# Elastic Constant Matrix: (Units=GPa)
#
#
# Indices 1 2 3 4 5 6 
#
# 1 66.8584 28.7757 14.7901 0.0000 0.0000 0.0000
# 2 28.7757 120.0057 32.4720 0.0000 0.0000 0.0000
# 3 14.7901 32.4720 81.6915 0.0000 0.0000 0.0000
# 4 0.0000 0.0000 0.0000 21.8457 0.0000 0.0000
# 5 0.0000 0.0000 0.0000 0.0000 18.9450 0.0000
# 6 0.0000 0.0000 0.0000 0.0000 0.0000 22.7888
#
#
#
# Elastic Compliance Matrix: (Units=1/GPa)
#
#
# Indices 1 2 3 4 5 6 
#
# 1 0.016868 -0.003606 -0.001620 0.000000 0.000000 0.000000
# 2 -0.003606 0.010108 -0.003365 0.000000 0.000000 0.000000
# 3 -0.001620 -0.003365 0.013872 0.000000 0.000000 0.000000
# 4 0.000000 0.000000 0.000000 0.045776 0.000000 0.000000
# 5 0.000000 0.000000 0.000000 0.000000 0.052784 0.000000
# 6 0.000000 0.000000 0.000000 0.000000 0.000000 0.043881
#
#
# Mechanical properties :
#
#
# Convention : Reuss Voigt Hill
#
# Bulk Modulus (GPa) = 42.25716 46.73679 44.49698
# Shear Modulus (GPa) = 23.99687 25.55042 24.77365
#
# Velocity S-wave (km/s) = 3.50882 3.62061 3.56515
# Velocity P-wave (km/s) = 6.17220 6.43872 6.30687
#
# Compressibility (1/GPa) = 0.02366463
#
# Stress axis : x y z
#
# Youngs Moduli (GPa) = 59.28555 98.92976 72.08684
#
# Poissons Ratio (x) = 0.35675 0.11681
# Poissons Ratio (y) = 0.21379 0.24258
# Poissons Ratio (z) = 0.09607 0.33291
#
# Static dielectric constant tensor:
#      x y z
#    x 1.746330 0.000000 0.000000 
#    y 0.000000 1.678400 0.000000 
#    z 0.000000 0.000000 1.679540 
# 
# From -- ./inp_files/42707.got.cif
#   From: 2010.05.17/outbox.cif.g08.bks.cpg/sg72_22_cif.got.tgz:42707.got - 2010.06.03 17:03:01.
