data_PCOD9526351
_publ_section_title
;
Structure prediction by ZEFSAII (Michael W. Deem and Ramdas Pophale) SiO2 
 PCOD9526351
Probable space group: I B A M
;
_chemical_formula_sum "Si O2"
_cell_formula_units_Z 64
_cell_length_a 12.910941
_cell_length_b 11.793756
_cell_length_c 17.039780
_cell_angle_alpha 90.000000
_cell_angle_beta 90.000000
_cell_angle_gamma 90.000000
_cell_volume 2594.621534
_symmetry_space_group_name_H-M "I B A M"
_symmetry_group_IT_number 72
_symmetry_cell_setting 'orthorhombic'
loop_
_space_group_symop_operation_xyz
x,y,z
-x,-y,z
x,-y,1/2-z
-x,y,1/2-z
-x,-y,-z
x,y,-z
-x,y,1/2+z
x,-y,1/2+z
1/2+x,1/2+y,1/2+z
1/2-x,1/2-y,1/2+z
1/2+x,1/2-y,-z
1/2-x,1/2+y,-z
1/2-x,1/2-y,1/2-z
1/2+x,1/2+y,1/2-z
1/2-x,1/2+y,z
1/2+x,1/2-y,z
loop_
_atom_site_type_symbol
_atom_site_label
_atom_site_fract_x
_atom_site_fract_y
_atom_site_fract_z
Si Si1 0.529304 0.654582 0.850751
Si Si2 0.174046 0.896391 0.702122
Si Si3 0.766604 0.215653 0.086430
Si Si4 0.556765 0.887969 0.407310
O O1 0.425155 0.576376 0.854516
O O2 0.600306 0.649942 0.772371
O O3 0.621508 0.659307 0.913177
O O4 0.480837 0.779437 0.860639
O O5 0.246385 0.810838 0.654012
O O6 0.225851 0.000000 0.750000
O O7 0.680726 0.117837 0.098177
O O8 0.747169 0.267515 0.000000
O O9 0.530510 0.874544 0.500000
O O10 0.500000 0.000000 0.379327
#
# Coordination Sequence:
#
# PCOD9526351 Si02
#       4
#    16  16  16  16
#     4  10  19  36  60  86 119 161 206 256 312 372
#     4  10  22  41  62  88 127 170 211 259 317 381
#     4  10  21  38  62  92 124 162 210 263 319 377
#     4   9  19  36  56  83 121 158 197 253 317 379
#
# _framework density 24.666411
#
# number of rings (size 3 to 8) (size 9 to 14) (size 15 to 20)
#    0.000    2.250    0.000    3.000    0.000    3.000 
#    0.000   17.500    0.000   16.500    0.000    0.000 
#    0.000    0.000    0.000    0.000    0.000    0.000 
#
# Total GULP energy -178186.397095 kJ/mol
# GULP energy per Si atom -5568.324909 kJ/mol
# Density = 2.461027 g / cm^3
# Si number density = 24.666411 Si / 1000 Ang^3
#
#
#
# Elastic Constant Matrix: (Units=GPa)
#
#
# Indices 1 2 3 4 5 6 
#
# 1 95.7008 7.1075 5.2644 0.0000 0.0000 0.0000
# 2 7.1075 49.2896 27.4931 0.0000 0.0000 0.0000
# 3 5.2644 27.4931 90.4272 0.0000 0.0000 0.0000
# 4 0.0000 0.0000 0.0000 8.1366 0.0000 0.0000
# 5 0.0000 0.0000 0.0000 0.0000 29.4759 0.0000
# 6 0.0000 0.0000 0.0000 0.0000 0.0000 25.5354
#
#
#
# Elastic Compliance Matrix: (Units=1/GPa)
#
#
# Indices 1 2 3 4 5 6 
#
# 1 0.010565 -0.001421 -0.000183 0.000000 0.000000 0.000000
# 2 -0.001421 0.024623 -0.007403 0.000000 0.000000 0.000000
# 3 -0.000183 -0.007403 0.013320 0.000000 0.000000 0.000000
# 4 0.000000 0.000000 0.000000 0.122901 0.000000 0.000000
# 5 0.000000 0.000000 0.000000 0.000000 0.033926 0.000000
# 6 0.000000 0.000000 0.000000 0.000000 0.000000 0.039161
#
#
# Mechanical properties :
#
#
# Convention : Reuss Voigt Hill
#
# Bulk Modulus (GPa) = 32.79521 35.01641 33.90581
# Shear Modulus (GPa) = 18.33680 25.66643 22.00161
#
# Velocity S-wave (km/s) = 2.72948 3.22924 2.98982
# Velocity P-wave (km/s) = 4.82263 5.30385 5.06895
#
# Compressibility (1/GPa) = 0.03049226
#
# Stress axis : x y z
#
# Youngs Moduli (GPa) = 94.65335 40.61283 75.07406
#
# Poissons Ratio (x) = 0.05773 0.01373
# Poissons Ratio (y) = 0.13454 0.55581
# Poissons Ratio (z) = 0.01731 0.30067
#
# Static dielectric constant tensor:
#      x y z
#    x 2.065370 0.000000 0.000000 
#    y 0.000000 2.045240 0.000000 
#    z 0.000000 0.000000 2.122750 
# 
# From -- ./inp_files/30128.got.cif
#   From: 2010.05.17/outbox.cif.g08.bks.cpg/sg72_16_cif.got.tgz:30128.got - 2010.06.03 17:03:01.
