data_PCOD9526996
_publ_section_title
;
Structure prediction by ZEFSAII (Michael W. Deem and Ramdas Pophale) SiO2 
 PCOD9526996
Probable space group: I B A M
;
_chemical_formula_sum "Si O2"
_cell_formula_units_Z 80
_cell_length_a 27.686127
_cell_length_b 7.008748
_cell_length_c 16.295240
_cell_angle_alpha 90.000000
_cell_angle_beta 90.000000
_cell_angle_gamma 90.000000
_cell_volume 3162.011267
_symmetry_space_group_name_H-M "I B A M"
_symmetry_group_IT_number 72
_symmetry_cell_setting 'orthorhombic'
loop_
_space_group_symop_operation_xyz
x,y,z
-x,-y,z
x,-y,1/2-z
-x,y,1/2-z
-x,-y,-z
x,y,-z
-x,y,1/2+z
x,-y,1/2+z
1/2+x,1/2+y,1/2+z
1/2-x,1/2-y,1/2+z
1/2+x,1/2-y,-z
1/2-x,1/2+y,-z
1/2-x,1/2-y,1/2-z
1/2+x,1/2+y,1/2-z
1/2-x,1/2+y,z
1/2+x,1/2-y,z
loop_
_atom_site_type_symbol
_atom_site_label
_atom_site_fract_x
_atom_site_fract_y
_atom_site_fract_z
Si Si1 0.308851 0.120127 0.905840
Si Si2 0.110911 0.845390 0.401783
Si Si3 0.794967 0.032550 0.345377
Si Si4 0.008918 0.782754 0.653221
Si Si5 0.591189 0.784444 0.098066
O O1 0.261931 0.066223 0.854515
O O2 0.304826 0.351009 0.903029
O O3 0.363231 0.091067 0.872401
O O4 0.304176 0.052750 0.000000
O O5 0.108406 0.832978 0.500000
O O6 0.166337 0.809834 0.375089
O O7 0.064280 0.736570 0.366954
O O8 0.100428 0.065561 0.373059
O O9 0.805313 0.000000 0.250000
O O10 0.000000 0.782471 0.750000
O O11 0.963787 0.666355 0.617977
O O12 0.000000 0.000000 0.620714
O O13 0.596115 0.784839 0.000000
#
# Coordination Sequence:
#
# PCOD9526996 Si02
#       5
#    16  16  16  16  16
#     4  10  20  36  55  75 107 145 182 220 269 328
#     4   9  17  28  44  66  99 136 170 209 261 324
#     4  11  22  34  53  80 109 142 179 227 272 320
#     4   9  16  23  40  66  97 131 164 212 266 313
#     4   8  15  27  44  65  95 133 171 207 255 316
#
# _framework density 25.300350999999999
#
# number of rings (size 3 to 8) (size 9 to 14) (size 15 to 20)
#    0.000    2.600    0.000    4.200    8.400    2.400 
#    0.000    0.000    0.000    0.000    0.000    1.400 
#    0.000    6.400    0.000    0.000    0.000    0.000 
#
# Total GULP energy -223400.537028 kJ/mol
# GULP energy per Si atom -5585.013426 kJ/mol
# Density = 2.524277 g / cm^3
# Si number density = 25.300351 Si / 1000 Ang^3
#
#
#
# Elastic Constant Matrix: (Units=GPa)
#
#
# Indices 1 2 3 4 5 6 
#
# 1 285.4388 24.6819 54.4424 0.0000 0.0000 0.0000
# 2 24.6819 55.9404 -3.0564 0.0000 0.0000 0.0000
# 3 54.4424 -3.0564 91.4464 0.0000 0.0000 0.0000
# 4 0.0000 0.0000 0.0000 -10.1669 0.0000 0.0000
# 5 0.0000 0.0000 0.0000 0.0000 -4.6068 0.0000
# 6 0.0000 0.0000 0.0000 0.0000 0.0000 44.5427
#
#
#
# Elastic Compliance Matrix: (Units=1/GPa)
#
#
# Indices 1 2 3 4 5 6 
#
# 1 0.004159 -0.001974 -0.002542 0.000000 0.000000 0.000000
# 2 -0.001974 0.018846 0.001805 0.000000 0.000000 0.000000
# 3 -0.002542 0.001805 0.012509 0.000000 0.000000 0.000000
# 4 0.000000 0.000000 0.000000 -0.098359 0.000000 0.000000
# 5 0.000000 0.000000 0.000000 0.000000 -0.217069 0.000000
# 6 0.000000 0.000000 0.000000 0.000000 0.000000 0.022450
#
#
# Mechanical properties :
#
#
# Convention : Reuss Voigt Hill
#
# Bulk Modulus (GPa) = 33.23138 64.99570 49.11354
# Shear Modulus (GPa) = -20.66014 29.73765 4.53875
#
# Velocity S-wave (km/s) = -2.86071 3.43211 1.34084
# Velocity P-wave (km/s) = 1.50056 6.43826 4.67455
#
# Compressibility (1/GPa) = 0.03009204
#
# Stress axis : x y z
#
# Youngs Moduli (GPa) = 240.44859 53.06247 79.94211
#
# Poissons Ratio (x) = 0.10474 0.20321
# Poissons Ratio (y) = 0.47461 -0.14430
# Poissons Ratio (z) = 0.61121 -0.09578
#
# Static dielectric constant tensor:
#      x y z
#    x 2.103700 0.000000 0.000000 
#    y 0.000000 2.135360 0.000000 
#    z 0.000000 0.000000 1.913010 
# 
# From -- ./inp_files/20218.got.cif
#   From: 2010.05.17/outbox.cif.g08.bks.cpg/sg72_11_cif.got.tgz:20218.got - 2010.06.03 17:03:01.
