data_PCOD9526444
_publ_section_title
;
Structure prediction by ZEFSAII (Michael W. Deem and Ramdas Pophale) SiO2 
 PCOD9526444
Probable space group: I B A M
;
_chemical_formula_sum "Si O2"
_cell_formula_units_Z 104
_cell_length_a 13.838122
_cell_length_b 17.664687
_cell_length_c 20.929858
_cell_angle_alpha 90.000000
_cell_angle_beta 90.000000
_cell_angle_gamma 90.000000
_cell_volume 5116.222032
_symmetry_space_group_name_H-M "I B A M"
_symmetry_group_IT_number 72
_symmetry_cell_setting 'orthorhombic'
loop_
_space_group_symop_operation_xyz
x,y,z
-x,-y,z
x,-y,1/2-z
-x,y,1/2-z
-x,-y,-z
x,y,-z
-x,y,1/2+z
x,-y,1/2+z
1/2+x,1/2+y,1/2+z
1/2-x,1/2-y,1/2+z
1/2+x,1/2-y,-z
1/2-x,1/2+y,-z
1/2-x,1/2-y,1/2-z
1/2+x,1/2+y,1/2-z
1/2-x,1/2+y,z
1/2+x,1/2-y,z
loop_
_atom_site_type_symbol
_atom_site_label
_atom_site_fract_x
_atom_site_fract_y
_atom_site_fract_z
Si Si1 0.715233 0.927723 0.792289
Si Si2 0.039789 0.578046 0.111635
Si Si3 0.474626 0.584200 0.573648
Si Si4 0.909298 0.675713 0.796233
Si Si5 0.682425 0.648998 0.000000
Si Si6 0.848488 0.748561 0.000000
Si Si7 0.861758 0.825972 0.868641
Si Si8 0.069164 0.307210 0.500000
O O1 0.623372 0.944516 0.838022
O O2 0.673600 0.866003 0.743102
O O3 0.797964 0.890533 0.835745
O O4 0.744548 0.000000 0.750000
O O5 0.000000 0.500000 0.082616
O O6 0.954219 0.620919 0.149728
O O7 0.079622 0.638661 0.061159
O O8 0.500000 0.500000 0.595034
O O9 0.514067 0.590173 0.500000
O O10 0.362725 0.604710 0.560847
O O11 0.531017 0.642538 0.617087
O O12 0.869510 0.752450 0.825327
O O13 0.000000 0.692011 0.750000
O O14 0.635745 0.733090 0.000000
O O15 0.793774 0.667811 0.000000
O O16 0.823456 0.796528 0.062981
O O17 0.961315 0.727820 0.000000
#
# Coordination Sequence:
#
# PCOD9526444 Si02
#       8
#    16  16  16  16   8   8  16   8
#     4  11  24  42  63  95 128 180 227 271 332 401
#     4  11  21  40  66  88 134 170 211 277 346 408
#     4   9  19  42  63  85 125 170 205 251 336 401
#     4  10  22  41  67  88 124 182 218 262 332 399
#     4  10  19  38  62  88 136 168 205 251 333 413
#     4  12  22  37  69 106 129 167 219 283 344 397
#     4  12  22  43  66  94 136 161 222 288 318 402
#     4  12  21  39  62 104 133 163 225 278 347 408
#
# _framework density 20.327500000000001
#
# number of rings (size 3 to 8) (size 9 to 14) (size 15 to 20)
#    0.462    0.769    5.385    1.615    0.000    1.231 
#    8.308    0.000    0.000    0.000    0.000    0.000 
#    0.000    0.000    0.000    0.000    0.000    0.000 
#
# Total GULP energy -290285.988362 kJ/mol
# GULP energy per Si atom -5582.422853 kJ/mol
# Density = 2.028123 g / cm^3
# Si number density = 20.327500 Si / 1000 Ang^3
#
#
#
# Elastic Constant Matrix: (Units=GPa)
#
#
# Indices 1 2 3 4 5 6 
#
# 1 36.7273 3.3103 -4.6539 0.0000 0.0000 0.0000
# 2 3.3103 102.5650 32.1328 0.0000 0.0000 0.0000
# 3 -4.6539 32.1328 71.2791 0.0000 0.0000 0.0000
# 4 0.0000 0.0000 0.0000 12.9383 0.0000 0.0000
# 5 0.0000 0.0000 0.0000 0.0000 -0.3718 0.0000
# 6 0.0000 0.0000 0.0000 0.0000 0.0000 19.6072
#
#
#
# Elastic Compliance Matrix: (Units=1/GPa)
#
#
# Indices 1 2 3 4 5 6 
#
# 1 0.027707 -0.001701 0.002576 0.000000 0.000000 0.000000
# 2 -0.001701 0.011458 -0.005276 0.000000 0.000000 0.000000
# 3 0.002576 -0.005276 0.016576 0.000000 0.000000 0.000000
# 4 0.000000 0.000000 0.000000 0.077290 0.000000 0.000000
# 5 0.000000 0.000000 0.000000 0.000000 -2.689371 0.000000
# 6 0.000000 0.000000 0.000000 0.000000 0.000000 0.051002
#
#
# Mechanical properties :
#
#
# Convention : Reuss Voigt Hill
#
# Bulk Modulus (GPa) = 21.30460 30.23884 25.77172
# Shear Modulus (GPa) = -2.01541 18.42022 8.20241
#
# Velocity S-wave (km/s) = -0.99681 3.01354 2.01094
# Velocity P-wave (km/s) = 3.02962 5.19775 4.25413
#
# Compressibility (1/GPa) = 0.04693822
#
# Stress axis : x y z
#
# Youngs Moduli (GPa) = 36.09141 87.27642 60.32779
#
# Poissons Ratio (x) = 0.14848 -0.15540
# Poissons Ratio (y) = 0.06140 0.31831
# Poissons Ratio (z) = -0.09297 0.46050
#
# Static dielectric constant tensor:
#      x y z
#    x 1.730160 0.000000 0.000000 
#    y 0.000000 1.713440 0.000000 
#    z 0.000000 0.000000 1.728690 
# 
# From -- ./inp_files/38312.got.cif
#   From: 2010.05.17/outbox.cif.g08.bks.cpg/sg72_20_cif.got.tgz:38312.got - 2010.06.03 17:03:01.
