data_PCOD9526369
_publ_section_title
;
Structure prediction by ZEFSAII (Michael W. Deem and Ramdas Pophale) SiO2 
 PCOD9526369
Probable space group: I B A M
;
_chemical_formula_sum "Si O2"
_cell_formula_units_Z 112
_cell_length_a 31.522114
_cell_length_b 11.893102
_cell_length_c 13.766183
_cell_angle_alpha 90.000000
_cell_angle_beta 90.000000
_cell_angle_gamma 90.000000
_cell_volume 5160.883047
_symmetry_space_group_name_H-M "I B A M"
_symmetry_group_IT_number 72
_symmetry_cell_setting 'orthorhombic'
loop_
_space_group_symop_operation_xyz
x,y,z
-x,-y,z
x,-y,1/2-z
-x,y,1/2-z
-x,-y,-z
x,y,-z
-x,y,1/2+z
x,-y,1/2+z
1/2+x,1/2+y,1/2+z
1/2-x,1/2-y,1/2+z
1/2+x,1/2-y,-z
1/2-x,1/2+y,-z
1/2-x,1/2-y,1/2-z
1/2+x,1/2+y,1/2-z
1/2-x,1/2+y,z
1/2+x,1/2-y,z
loop_
_atom_site_type_symbol
_atom_site_label
_atom_site_fract_x
_atom_site_fract_y
_atom_site_fract_z
Si Si1 0.252044 0.131882 0.885961
Si Si2 0.462057 0.251366 0.616097
Si Si3 0.188550 0.266470 0.240921
Si Si4 0.060234 0.212393 0.384014
Si Si5 0.682558 0.444595 0.614023
Si Si6 0.592532 0.534188 0.383700
Si Si7 0.897800 0.629832 0.765779
O O1 0.220912 0.229039 0.843385
O O2 0.291355 0.139565 0.812502
O O3 0.225242 0.017151 0.877201
O O4 0.262046 0.149325 0.000000
O O5 0.459885 0.244191 0.500000
O O6 0.511233 0.265055 0.641181
O O7 0.434776 0.359921 0.649781
O O8 0.437755 0.147778 0.663591
O O9 0.182724 0.160325 0.313878
O O10 0.144591 0.309042 0.197408
O O11 0.064932 0.219773 0.500000
O O12 0.089370 0.303423 0.331735
O O13 0.072949 0.085653 0.355446
O O14 0.677643 0.410900 0.500000
O O15 0.642452 0.525198 0.638414
O O16 0.589613 0.539832 0.500000
O O17 0.889797 0.500000 0.750000
#
# Coordination Sequence:
#
# PCOD9526369 Si02
#       7
#    16  16  16  16  16  16  16
#     4  10  23  40  63  95 124 158 207 265 326 391
#     4  10  22  40  63  93 128 165 208 267 326 378
#     4  11  23  41  64  87 125 168 210 259 321 384
#     4  10  21  40  65  93 127 166 211 262 321 383
#     4  10  19  36  64  94 126 162 203 257 324 392
#     4   9  17  34  64  98 128 159 201 257 326 390
#     4  12  27  43  61  88 125 173 224 266 306 377
#
# _framework density 21.701712000000001
#
# number of rings (size 3 to 8) (size 9 to 14) (size 15 to 20)
#    0.000    1.714    1.429    2.571    0.000    8.571 
#    0.000    2.857    0.000    0.000    0.000    0.000 
#    0.000    0.000    0.000    0.000    0.000    0.000 
#
# Total GULP energy -313193.511791 kJ/mol
# GULP energy per Si atom -5592.741282 kJ/mol
# Density = 2.165232 g / cm^3
# Si number density = 21.701712 Si / 1000 Ang^3
#
#
#
# Elastic Constant Matrix: (Units=GPa)
#
#
# Indices 1 2 3 4 5 6 
#
# 1 61.6209 -0.8551 -20.3013 0.0000 0.0000 0.0000
# 2 -0.8551 63.5280 -10.6911 0.0000 0.0000 0.0000
# 3 -20.3013 -10.6911 68.8282 0.0000 0.0000 0.0000
# 4 0.0000 0.0000 0.0000 20.0073 0.0000 0.0000
# 5 0.0000 0.0000 0.0000 0.0000 24.3928 0.0000
# 6 0.0000 0.0000 0.0000 0.0000 0.0000 32.3919
#
#
#
# Elastic Compliance Matrix: (Units=1/GPa)
#
#
# Indices 1 2 3 4 5 6 
#
# 1 0.018059 0.001170 0.005508 0.000000 0.000000 0.000000
# 2 0.001170 0.016239 0.002868 0.000000 0.000000 0.000000
# 3 0.005508 0.002868 0.016599 0.000000 0.000000 0.000000
# 4 0.000000 0.000000 0.000000 0.049982 0.000000 0.000000
# 5 0.000000 0.000000 0.000000 0.000000 0.040996 0.000000
# 6 0.000000 0.000000 0.000000 0.000000 0.000000 0.030872
#
#
# Mechanical properties :
#
#
# Convention : Reuss Voigt Hill
#
# Bulk Modulus (GPa) = 14.28775 14.47581 14.38178
# Shear Modulus (GPa) = 28.25100 30.41338 29.33219
#
# Velocity S-wave (km/s) = 3.61194 3.74763 3.68041
# Velocity P-wave (km/s) = 4.89825 5.04094 4.97011
#
# Compressibility (1/GPa) = 0.06999002
#
# Stress axis : x y z
#
# Youngs Moduli (GPa) = 55.37322 61.57854 60.24424
#
# Poissons Ratio (x) = -0.07205 -0.33185
# Poissons Ratio (y) = -0.06479 -0.17276
# Poissons Ratio (z) = -0.30502 -0.17658
#
# Static dielectric constant tensor:
#      x y z
#    x 1.781000 0.000000 0.000000 
#    y 0.000000 1.769970 0.000000 
#    z 0.000000 0.000000 1.816410 
# 
# From -- ./inp_files/26425.got.cif
#   From: 2010.05.17/outbox.cif.g08.bks.cpg/sg72_14_cif.got.tgz:26425.got - 2010.06.03 17:03:01.
