data_PCOD9526025
_publ_section_title
;
Structure prediction by ZEFSAII (Michael W. Deem and Ramdas Pophale) SiO2 
 PCOD9526025
Probable space group: I B A M
;
_chemical_formula_sum "Si O2"
_cell_formula_units_Z 80
_cell_length_a 18.901787
_cell_length_b 13.520250
_cell_length_c 15.486733
_cell_angle_alpha 90.000000
_cell_angle_beta 90.000000
_cell_angle_gamma 90.000000
_cell_volume 3957.741255
_symmetry_space_group_name_H-M "I B A M"
_symmetry_group_IT_number 72
_symmetry_cell_setting 'orthorhombic'
loop_
_space_group_symop_operation_xyz
x,y,z
-x,-y,z
x,-y,1/2-z
-x,y,1/2-z
-x,-y,-z
x,y,-z
-x,y,1/2+z
x,-y,1/2+z
1/2+x,1/2+y,1/2+z
1/2-x,1/2-y,1/2+z
1/2+x,1/2-y,-z
1/2-x,1/2+y,-z
1/2-x,1/2-y,1/2-z
1/2+x,1/2+y,1/2-z
1/2-x,1/2+y,z
1/2+x,1/2-y,z
loop_
_atom_site_type_symbol
_atom_site_label
_atom_site_fract_x
_atom_site_fract_y
_atom_site_fract_z
Si Si1 0.988917 0.705852 0.354155
Si Si2 0.807390 0.818789 0.101093
Si Si3 0.369698 0.106157 0.359514
Si Si4 0.843713 0.388705 0.154050
Si Si5 0.449902 0.414386 0.399176
O O1 0.910596 0.673234 0.379267
O O2 0.000000 0.715365 0.250000
O O3 0.048110 0.625812 0.381007
O O4 0.008517 0.811284 0.393272
O O5 0.829271 0.703863 0.109061
O O6 0.732309 0.839822 0.143219
O O7 0.872131 0.886299 0.137680
O O8 0.800764 0.841438 0.000000
O O9 0.360090 0.104808 0.256056
O O10 0.344205 0.998191 0.387220
O O11 0.500000 0.500000 0.360923
O O12 0.438356 0.440035 0.500000
#
# Coordination Sequence:
#
# PCOD9526025 Si02
#       5
#    16  16  16  16  16
#     4   9  18  33  54  79 103 129 168 212 257 309
#     4  10  21  35  51  76 108 137 172 218 260 301
#     4   9  19  36  54  75 105 137 167 209 260 310
#     4  10  19  33  56  80 102 133 171 212 260 312
#     4   9  19  36  53  70 101 143 177 208 253 307
#
# _framework density 20.213550000000001
#
# number of rings (size 3 to 8) (size 9 to 14) (size 15 to 20)
#    0.000    2.600    0.000    1.200    0.000    6.000 
#    0.000    6.000    0.000    6.000    0.000    0.000 
#    0.000    0.000    0.000    0.000    0.000    0.000 
#
# Total GULP energy -222996.337945 kJ/mol
# GULP energy per Si atom -5574.908449 kJ/mol
# Density = 2.016754 g / cm^3
# Si number density = 20.213550 Si / 1000 Ang^3
#
#
#
# Elastic Constant Matrix: (Units=GPa)
#
#
# Indices 1 2 3 4 5 6 
#
# 1 199.8755 70.5429 4.1300 0.0000 0.0000 0.0000
# 2 70.5429 69.1983 -0.3117 0.0000 0.0000 0.0000
# 3 4.1300 -0.3117 20.9157 0.0000 0.0000 0.0000
# 4 0.0000 0.0000 0.0000 23.9068 0.0000 0.0000
# 5 0.0000 0.0000 0.0000 0.0000 -24.8004 0.0000
# 6 0.0000 0.0000 0.0000 0.0000 0.0000 27.8216
#
#
#
# Elastic Compliance Matrix: (Units=1/GPa)
#
#
# Indices 1 2 3 4 5 6 
#
# 1 0.007873 -0.008034 -0.001674 0.000000 0.000000 0.000000
# 2 -0.008034 0.022650 0.001924 0.000000 0.000000 0.000000
# 3 -0.001674 0.001924 0.048170 0.000000 0.000000 0.000000
# 4 0.000000 0.000000 0.000000 0.041829 0.000000 0.000000
# 5 0.000000 0.000000 0.000000 0.000000 -0.040322 0.000000
# 6 0.000000 0.000000 0.000000 0.000000 0.000000 0.035943
#
#
# Mechanical properties :
#
#
# Convention : Reuss Voigt Hill
#
# Bulk Modulus (GPa) = 15.84167 48.74576 32.29371
# Shear Modulus (GPa) = 32.73263 19.76082 26.24673
#
# Velocity S-wave (km/s) = 4.02847 3.13006 3.60734
# Velocity P-wave (km/s) = 5.43068 6.10170 5.77594
#
# Compressibility (1/GPa) = 0.06312466
#
# Stress axis : x y z
#
# Youngs Moduli (GPa) = 127.01610 44.15108 20.75975
#
# Poissons Ratio (x) = 0.35469 0.03476
# Poissons Ratio (y) = 1.02039 -0.03994
# Poissons Ratio (z) = 0.21267 -0.08494
#
# Static dielectric constant tensor:
#      x y z
#    x 1.722220 0.000000 0.000000 
#    y 0.000000 1.706210 0.000000 
#    z 0.000000 0.000000 1.766490 
# 
# From -- ./inp_files/31355.got.cif
#   From: 2010.05.17/outbox.cif.g08.bks.cpg/sg72_16_cif.got.tgz:31355.got - 2010.06.03 17:03:01.
