data_PCOD9526908
_publ_section_title
;
Structure prediction by ZEFSAII (Michael W. Deem and Ramdas Pophale) SiO2 
 PCOD9526908
Probable space group: I B A M
;
_chemical_formula_sum "Si O2"
_cell_formula_units_Z 112
_cell_length_a 21.349998
_cell_length_b 17.783770
_cell_length_c 15.302992
_cell_angle_alpha 90.000000
_cell_angle_beta 90.000000
_cell_angle_gamma 90.000000
_cell_volume 5810.292858
_symmetry_space_group_name_H-M "I B A M"
_symmetry_group_IT_number 72
_symmetry_cell_setting 'orthorhombic'
loop_
_space_group_symop_operation_xyz
x,y,z
-x,-y,z
x,-y,1/2-z
-x,y,1/2-z
-x,-y,-z
x,y,-z
-x,y,1/2+z
x,-y,1/2+z
1/2+x,1/2+y,1/2+z
1/2-x,1/2-y,1/2+z
1/2+x,1/2-y,-z
1/2-x,1/2+y,-z
1/2-x,1/2-y,1/2-z
1/2+x,1/2+y,1/2-z
1/2-x,1/2+y,z
1/2+x,1/2-y,z
loop_
_atom_site_type_symbol
_atom_site_label
_atom_site_fract_x
_atom_site_fract_y
_atom_site_fract_z
Si Si1 0.844746 0.417812 0.270289
Si Si2 0.127058 0.816063 0.095757
Si Si3 0.447005 0.868271 0.896955
Si Si4 0.424751 0.587937 0.246046
Si Si5 0.264765 0.213924 0.656469
Si Si6 0.591720 0.146077 0.400431
Si Si7 0.888909 0.206518 0.399468
O O1 0.820219 0.500000 0.250000
O O2 0.905814 0.419234 0.333007
O O3 0.796276 0.365863 0.321823
O O4 0.864670 0.381781 0.177727
O O5 0.105301 0.870627 0.171327
O O6 0.200369 0.796365 0.105681
O O7 0.091596 0.736585 0.103666
O O8 0.114569 0.848040 0.000000
O O9 0.520694 0.881065 0.886597
O O10 0.429271 0.781219 0.874420
O O11 0.431110 0.878624 0.000000
O O12 0.407486 0.500000 0.250000
O O13 0.500000 0.592973 0.250000
O O14 0.402402 0.636171 0.162507
O O15 0.250000 0.250000 0.750000
O O16 0.317303 0.265121 0.610782
O O17 0.611281 0.125456 0.500000
O O18 0.902758 0.188961 0.500000
#
# Coordination Sequence:
#
# PCOD9526908 Si02
#       7
#    16  16  16  16  16  16  16
#     4  11  23  37  58  84 119 158 192 233 291 355
#     4  11  22  40  65  89 116 153 203 253 301 354
#     4   9  19  35  58  86 117 151 195 240 284 345
#     4  11  24  39  58  88 127 161 196 247 306 364
#     4  11  20  40  63  86 114 153 198 250 296 343
#     4  10  20  35  57  87 116 150 195 242 288 345
#     4  10  20  37  63  88 114 153 203 249 295 352
#
# _framework density 19.276136000000001
#
# number of rings (size 3 to 8) (size 9 to 14) (size 15 to 20)
#    0.000    1.571    2.857    2.571    0.000    5.143 
#    0.000    2.857    0.000    0.000    0.000    0.000 
#    0.000    0.000    0.000    0.000    0.000    0.000 
#
# Total GULP energy -312840.587660 kJ/mol
# GULP energy per Si atom -5586.439065 kJ/mol
# Density = 1.923226 g / cm^3
# Si number density = 19.276136 Si / 1000 Ang^3
#
#
#
# Elastic Constant Matrix: (Units=GPa)
#
#
# Indices 1 2 3 4 5 6 
#
# 1 44.4926 -0.4145 -6.9551 0.0000 0.0000 0.0000
# 2 -0.4145 61.7834 17.3303 0.0000 0.0000 0.0000
# 3 -6.9551 17.3303 71.5326 0.0000 0.0000 0.0000
# 4 0.0000 0.0000 0.0000 18.6369 0.0000 0.0000
# 5 0.0000 0.0000 0.0000 0.0000 10.7025 0.0000
# 6 0.0000 0.0000 0.0000 0.0000 0.0000 -3.1487
#
#
#
# Elastic Compliance Matrix: (Units=1/GPa)
#
#
# Indices 1 2 3 4 5 6 
#
# 1 0.022837 -0.000504 0.002343 0.000000 0.000000 0.000000
# 2 -0.000504 0.017377 -0.004259 0.000000 0.000000 0.000000
# 3 0.002343 -0.004259 0.015239 0.000000 0.000000 0.000000
# 4 0.000000 0.000000 0.000000 0.053657 0.000000 0.000000
# 5 0.000000 0.000000 0.000000 0.000000 0.093436 0.000000
# 6 0.000000 0.000000 0.000000 0.000000 0.000000 -0.317588
#
#
# Mechanical properties :
#
#
# Convention : Reuss Voigt Hill
#
# Bulk Modulus (GPa) = 19.75792 21.97002 20.86397
# Shear Modulus (GPa) = -53.57309 16.42800 -18.57255
#
# Velocity S-wave (km/s) = -5.27757 2.92249 -3.10740
# Velocity P-wave (km/s) = 5.18313 4.77600 1.42384
#
# Compressibility (1/GPa) = 0.05061261
#
# Stress axis : x y z
#
# Youngs Moduli (GPa) = 43.78837 57.54788 65.62020
#
# Poissons Ratio (x) = 0.02900 -0.15372
# Poissons Ratio (y) = 0.02206 0.27947
# Poissons Ratio (z) = -0.10257 0.24509
#
# Static dielectric constant tensor:
#      x y z
#    x 1.680390 0.000000 0.000000 
#    y 0.000000 1.658710 0.000000 
#    z 0.000000 0.000000 1.675420 
# 
# From -- ./inp_files/25226.got.cif
#   From: 2010.05.17/outbox.cif.g08.bks.cpg/sg72_13_cif.got.tgz:25226.got - 2010.06.03 17:03:01.
