data_PCOD9526174
_publ_section_title
;
Structure prediction by ZEFSAII (Michael W. Deem and Ramdas Pophale) SiO2 
 PCOD9526174
Probable space group: I B A M
;
_chemical_formula_sum "Si O2"
_cell_formula_units_Z 96
_cell_length_a 19.213862
_cell_length_b 29.195664
_cell_length_c 8.728478
_cell_angle_alpha 90.000000
_cell_angle_beta 90.000000
_cell_angle_gamma 90.000000
_cell_volume 4896.339755
_symmetry_space_group_name_H-M "I B A M"
_symmetry_group_IT_number 72
_symmetry_cell_setting 'orthorhombic'
loop_
_space_group_symop_operation_xyz
x,y,z
-x,-y,z
x,-y,1/2-z
-x,y,1/2-z
-x,-y,-z
x,y,-z
-x,y,1/2+z
x,-y,1/2+z
1/2+x,1/2+y,1/2+z
1/2-x,1/2-y,1/2+z
1/2+x,1/2-y,-z
1/2-x,1/2+y,-z
1/2-x,1/2-y,1/2-z
1/2+x,1/2+y,1/2-z
1/2-x,1/2+y,z
1/2+x,1/2-y,z
loop_
_atom_site_type_symbol
_atom_site_label
_atom_site_fract_x
_atom_site_fract_y
_atom_site_fract_z
Si Si1 0.726116 0.450667 0.314894
Si Si2 0.114201 0.544037 0.675608
Si Si3 0.316715 0.352843 0.685008
Si Si4 0.570395 0.144427 0.178314
Si Si5 0.922653 0.221776 0.682827
Si Si6 0.181216 0.702316 0.178721
O O1 0.700197 0.500000 0.250000
O O2 0.722001 0.451117 0.500000
O O3 0.807415 0.447749 0.263085
O O4 0.692002 0.403349 0.255445
O O5 0.081486 0.500000 0.750000
O O6 0.125105 0.532203 0.500000
O O7 0.070706 0.589869 0.682393
O O8 0.310067 0.356443 0.500000
O O9 0.389323 0.327734 0.721570
O O10 0.255843 0.316615 0.735834
O O11 0.500000 0.163446 0.250000
O O12 0.632107 0.159188 0.288631
O O13 0.580429 0.158281 0.000000
O O14 0.927130 0.225758 0.500000
O O15 0.864477 0.258362 0.739439
O O16 0.000000 0.227991 0.750000
O O17 0.187869 0.713945 0.000000
#
# Coordination Sequence:
#
# PCOD9526174 Si02
#       6
#    16  16  16  16  16  16
#     4  10  19  34  58  88 120 154 192 239 293 348
#     4   9  19  33  50  72 102 141 185 234 286 339
#     4  10  22  39  62  91 120 153 196 243 291 346
#     4  11  22  36  51  74 107 148 194 239 290 342
#     4  11  24  42  62  87 121 157 194 240 293 352
#     4  11  22  38  60  86 114 151 195 241 290 340
#
# _framework density 19.606480999999999
#
# number of rings (size 3 to 8) (size 9 to 14) (size 15 to 20)
#    0.000    1.667    1.667    3.000    0.000    4.333 
#    0.000    1.667    0.000    0.500    0.000    3.500 
#    0.000    0.000    0.000    0.000    0.000    0.000 
#
# Total GULP energy -267602.915779 kJ/mol
# GULP energy per Si atom -5575.060745 kJ/mol
# Density = 1.956186 g / cm^3
# Si number density = 19.606481 Si / 1000 Ang^3
#
#
#
# Elastic Constant Matrix: (Units=GPa)
#
#
# Indices 1 2 3 4 5 6 
#
# 1 72.6769 58.7029 25.4896 0.0000 0.0000 -0.0001
# 2 58.7029 127.0512 51.1870 0.0000 0.0000 0.0003
# 3 25.4896 51.1870 43.2089 0.0000 0.0000 -0.0041
# 4 0.0000 0.0000 0.0000 32.9488 0.0000 0.0008
# 5 0.0000 0.0000 0.0000 0.0000 11.7779 -0.0007
# 6 -0.0001 0.0003 -0.0041 0.0008 -0.0007 2463.5395
#
#
#
# Elastic Compliance Matrix: (Units=1/GPa)
#
#
# Indices 1 2 3 4 5 6 
#
# 1 0.022024 -0.009454 -0.001793 0.000000 0.000000 0.000000
# 2 -0.009454 0.019115 -0.017068 0.000000 0.000000 0.000000
# 3 -0.001793 -0.017068 0.044420 0.000000 0.000000 0.000000
# 4 0.000000 0.000000 0.000000 0.030350 0.000000 0.000000
# 5 0.000000 0.000000 0.000000 0.000000 0.084905 0.000000
# 6 0.000000 0.000000 0.000000 0.000000 0.000000 0.000406
#
#
# Mechanical properties :
#
#
# Convention : Reuss Voigt Hill
#
# Bulk Modulus (GPa) = 34.56554 57.07731 45.82143
# Shear Modulus (GPa) = 18.69201 508.82373 263.75787
#
# Velocity S-wave (km/s) = 3.09100 16.12704 11.61111
# Velocity P-wave (km/s) = 5.51425 19.38943 14.25407
#
# Compressibility (1/GPa) = 0.02893055
#
# Stress axis : x y z
#
# Youngs Moduli (GPa) = 45.40402 52.31444 22.51218
#
# Poissons Ratio (x) = 0.49457 0.04037
# Poissons Ratio (y) = 0.42924 0.38423
# Poissons Ratio (z) = 0.08142 0.89289
#
# Static dielectric constant tensor:
#      x y z
#    x 1.724420 0.000000 0.000000 
#    y 0.000000 1.736280 0.000000 
#    z 0.000000 0.000000 1.679930 
# 
# From -- ./inp_files/6012.got.cif
#   From: 2010.05.17/outbox.cif.g08.bks.cpg/sg72_4_cif.got.tgz:6012.got - 2010.06.03 17:03:01.
