data_PCOD9526578
_publ_section_title
;
Structure prediction by ZEFSAII (Michael W. Deem and Ramdas Pophale) SiO2 
 PCOD9526578
Probable space group: I B A M
;
_chemical_formula_sum "Si O2"
_cell_formula_units_Z 96
_cell_length_a 32.214561
_cell_length_b 19.075310
_cell_length_c 8.858394
_cell_angle_alpha 90.000000
_cell_angle_beta 90.000000
_cell_angle_gamma 90.000000
_cell_volume 5443.507364
_symmetry_space_group_name_H-M "I B A M"
_symmetry_group_IT_number 72
_symmetry_cell_setting 'orthorhombic'
loop_
_space_group_symop_operation_xyz
x,y,z
-x,-y,z
x,-y,1/2-z
-x,y,1/2-z
-x,-y,-z
x,y,-z
-x,y,1/2+z
x,-y,1/2+z
1/2+x,1/2+y,1/2+z
1/2-x,1/2-y,1/2+z
1/2+x,1/2-y,-z
1/2-x,1/2+y,-z
1/2-x,1/2-y,1/2-z
1/2+x,1/2+y,1/2-z
1/2-x,1/2+y,z
1/2+x,1/2-y,z
loop_
_atom_site_type_symbol
_atom_site_label
_atom_site_fract_x
_atom_site_fract_y
_atom_site_fract_z
Si Si1 0.794477 0.576654 0.819883
Si Si2 0.957178 0.330212 0.824908
Si Si3 0.042274 0.840554 0.825985
Si Si4 0.128372 0.320977 0.179134
Si Si5 0.207959 0.077875 0.181039
Si Si6 0.633548 0.332617 0.317505
O O1 0.802195 0.500000 0.750000
O O2 0.833650 0.626551 0.793782
O O3 0.752461 0.604503 0.742089
O O4 0.787661 0.570374 0.000000
O O5 0.958030 0.244747 0.818838
O O6 0.915470 0.351081 0.737841
O O7 0.000000 0.354897 0.750000
O O8 0.955048 0.350266 0.000000
O O9 0.087903 0.860381 0.766411
O O10 0.000000 0.865846 0.750000
O O11 0.040605 0.861026 0.000000
O O12 0.136064 0.248054 0.265386
O O13 0.125325 0.307229 0.000000
O O14 0.170598 0.124565 0.243268
O O15 0.203564 0.000000 0.250000
O O16 0.207923 0.075349 0.000000
O O17 0.635176 0.336132 0.500000
#
# Coordination Sequence:
#
# PCOD9526578 Si02
#       6
#    16  16  16  16  16  16
#     4  10  21  37  56  76 101 134 172 212 255 309
#     4   9  16  27  45  70 101 136 170 207 251 300
#     4   8  15  26  43  68  98 131 164 200 242 290
#     4  10  20  33  51  78 107 135 170 212 258 304
#     4  11  22  37  57  77 100 133 171 211 256 308
#     4  10  20  34  52  77 107 137 171 211 255 301
#
# _framework density 17.635687999999998
#
# number of rings (size 3 to 8) (size 9 to 14) (size 15 to 20)
#    0.000    2.333    0.000    5.500    0.000    8.000 
#    0.000    0.000    0.000    1.000    0.000    7.000 
#    0.000    0.000    0.000    0.000    0.000    0.000 
#
# Total GULP energy -267657.214044 kJ/mol
# GULP energy per Si atom -5576.191959 kJ/mol
# Density = 1.759555 g / cm^3
# Si number density = 17.635688 Si / 1000 Ang^3
#
#
#
# Elastic Constant Matrix: (Units=GPa)
#
#
# Indices 1 2 3 4 5 6 
#
# 1 196.5218 54.3046 94.0927 0.0000 0.0000 0.0000
# 2 54.3046 26.9398 31.7272 0.0000 0.0000 0.0000
# 3 94.0927 31.7272 115.5589 0.0000 0.0000 0.0000
# 4 0.0000 0.0000 0.0000 22.2625 0.0000 0.0000
# 5 0.0000 0.0000 0.0000 0.0000 36.4178 0.0000
# 6 0.0000 0.0000 0.0000 0.0000 0.0000 -22.8007
#
#
#
# Elastic Compliance Matrix: (Units=1/GPa)
#
#
# Indices 1 2 3 4 5 6 
#
# 1 0.013256 -0.020703 -0.005109 0.000000 0.000000 0.000000
# 2 -0.020703 0.087194 -0.007082 0.000000 0.000000 0.000000
# 3 -0.005109 -0.007082 0.014758 0.000000 0.000000 0.000000
# 4 0.000000 0.000000 0.000000 0.044919 0.000000 0.000000
# 5 0.000000 0.000000 0.000000 0.000000 0.027459 0.000000
# 6 0.000000 0.000000 0.000000 0.000000 0.000000 -0.043858
#
#
# Mechanical properties :
#
#
# Convention : Reuss Voigt Hill
#
# Bulk Modulus (GPa) = 20.23532 77.69663 48.96598
# Shear Modulus (GPa) = 22.12506 17.76896 19.94701
#
# Velocity S-wave (km/s) = 3.54582 3.17765 3.36677
# Velocity P-wave (km/s) = 5.31628 7.59048 6.55279
#
# Compressibility (1/GPa) = 0.04941855
#
# Stress axis : x y z
#
# Youngs Moduli (GPa) = 75.43999 11.46873 67.76013
#
# Poissons Ratio (x) = 0.23744 0.34619
# Poissons Ratio (y) = 1.56186 0.47987
# Poissons Ratio (z) = 0.38542 0.08122
#
# Static dielectric constant tensor:
#      x y z
#    x 1.622820 0.000000 0.000000 
#    y 0.000000 1.576660 0.000000 
#    z 0.000000 0.000000 1.594820 
# 
# From -- ./inp_files/5946.got.cif
#   From: 2010.05.17/outbox.cif.g08.bks.cpg/sg72_3_cif.got.tgz:5946.got - 2010.06.03 17:03:01.
