data_PCOD9526800
_publ_section_title
;
Structure prediction by ZEFSAII (Michael W. Deem and Ramdas Pophale) SiO2 
 PCOD9526800
Probable space group: I B A M
;
_chemical_formula_sum "Si O2"
_cell_formula_units_Z 104
_cell_length_a 20.535607
_cell_length_b 9.934072
_cell_length_c 26.241426
_cell_angle_alpha 90.000000
_cell_angle_beta 90.000000
_cell_angle_gamma 90.000000
_cell_volume 5353.308596
_symmetry_space_group_name_H-M "I B A M"
_symmetry_group_IT_number 72
_symmetry_cell_setting 'orthorhombic'
loop_
_space_group_symop_operation_xyz
x,y,z
-x,-y,z
x,-y,1/2-z
-x,y,1/2-z
-x,-y,-z
x,y,-z
-x,y,1/2+z
x,-y,1/2+z
1/2+x,1/2+y,1/2+z
1/2-x,1/2-y,1/2+z
1/2+x,1/2-y,-z
1/2-x,1/2+y,-z
1/2-x,1/2-y,1/2-z
1/2+x,1/2+y,1/2-z
1/2-x,1/2+y,z
1/2+x,1/2-y,z
loop_
_atom_site_type_symbol
_atom_site_label
_atom_site_fract_x
_atom_site_fract_y
_atom_site_fract_z
Si Si1 0.103283 0.785834 0.633728
Si Si2 0.790863 0.967738 0.190540
Si Si3 0.000000 0.000000 0.859465
Si Si4 0.075028 0.354886 0.766681
Si Si5 0.693879 0.135963 0.389433
Si Si6 0.385048 0.693297 0.673458
Si Si7 0.204523 0.656851 0.439403
O O1 0.154183 0.864230 0.670618
O O2 0.048196 0.890769 0.615526
O O3 0.077468 0.674656 0.673427
O O4 0.141886 0.724569 0.586999
O O5 0.726783 0.912644 0.163717
O O6 0.784021 0.000000 0.250000
O O7 0.819489 0.106147 0.168236
O O8 0.948077 0.096464 0.830698
O O9 0.099860 0.500000 0.750000
O O10 0.112121 0.252090 0.729983
O O11 0.000000 0.345902 0.750000
O O12 0.624017 0.195364 0.370994
O O13 0.735464 0.253165 0.417497
O O14 0.700721 0.000145 0.422802
O O15 0.204663 0.666225 0.500000
#
# Coordination Sequence:
#
# PCOD9526800 Si02
#       7
#    16  16   8  16  16  16  16
#     4  10  21  37  61  90 124 166 216 260 311 376
#     4  10  20  34  59  90 129 168 202 251 317 384
#     4  10  22  39  63  94 122 172 213 252 307 378
#     4  11  21  33  54  91 127 171 208 254 310 382
#     4  11  23  41  63  94 127 164 212 266 321 384
#     4  11  21  37  62  90 130 170 208 252 306 382
#     4  11  24  44  67  92 124 165 216 272 325 377
#
# _framework density 19.427237000000002
#
# number of rings (size 3 to 8) (size 9 to 14) (size 15 to 20)
#    0.000    1.385    4.615    1.385    0.000    3.077 
#    0.000    0.385    0.000    2.769    0.000    0.000 
#    0.000    0.000    0.000    0.000    0.000    0.000 
#
# Total GULP energy -289606.977152 kJ/mol
# GULP energy per Si atom -5569.364945 kJ/mol
# Density = 1.938302 g / cm^3
# Si number density = 19.427237 Si / 1000 Ang^3
#
#
#
# Elastic Constant Matrix: (Units=GPa)
#
#
# Indices 1 2 3 4 5 6 
#
# 1 60.2295 31.9146 39.7366 0.0000 0.0000 0.0000
# 2 31.9146 109.3636 50.0988 0.0000 0.0000 0.0000
# 3 39.7366 50.0988 127.9746 0.0000 0.0000 0.0000
# 4 0.0000 0.0000 0.0000 22.4565 0.0000 0.0000
# 5 0.0000 0.0000 0.0000 0.0000 13.2893 0.0000
# 6 0.0000 0.0000 0.0000 0.0000 0.0000 25.3838
#
#
#
# Elastic Compliance Matrix: (Units=1/GPa)
#
#
# Indices 1 2 3 4 5 6 
#
# 1 0.022267 -0.004059 -0.005325 0.000000 0.000000 0.000000
# 2 -0.004059 0.011882 -0.003391 0.000000 0.000000 0.000000
# 3 -0.005325 -0.003391 0.010795 0.000000 0.000000 0.000000
# 4 0.000000 0.000000 0.000000 0.044530 0.000000 0.000000
# 5 0.000000 0.000000 0.000000 0.000000 0.075249 0.000000
# 6 0.000000 0.000000 0.000000 0.000000 0.000000 0.039395
#
#
# Mechanical properties :
#
#
# Convention : Reuss Voigt Hill
#
# Bulk Modulus (GPa) = 51.56243 60.11864 55.84053
# Shear Modulus (GPa) = 21.17454 23.94710 22.56082
#
# Velocity S-wave (km/s) = 3.30501 3.51473 3.41148
# Velocity P-wave (km/s) = 6.41584 6.89085 6.65758
#
# Compressibility (1/GPa) = 0.01939397
#
# Stress axis : x y z
#
# Youngs Moduli (GPa) = 44.90951 84.16336 92.63472
#
# Poissons Ratio (x) = 0.34158 0.49329
# Poissons Ratio (y) = 0.18227 0.31414
# Poissons Ratio (z) = 0.23915 0.28541
#
# Static dielectric constant tensor:
#      x y z
#    x 1.713780 0.000000 0.000000 
#    y 0.000000 1.781390 0.000000 
#    z 0.000000 0.000000 1.637820 
# 
# From -- ./inp_files/49428.got.cif
#   From: 2010.05.17/outbox.cif.g08.bks.cpg/sg72_25_cif.got.tgz:49428.got - 2010.06.03 17:03:01.
