data_PCOD9526121
_publ_section_title
;
Structure prediction by ZEFSAII (Michael W. Deem and Ramdas Pophale) SiO2 
 PCOD9526121
Probable space group: I B A M
;
_chemical_formula_sum "Si O2"
_cell_formula_units_Z 116
_cell_length_a 28.792973
_cell_length_b 23.550121
_cell_length_c 7.775392
_cell_angle_alpha 90.000000
_cell_angle_beta 90.000000
_cell_angle_gamma 90.000000
_cell_volume 5272.322242
_symmetry_space_group_name_H-M "I B A M"
_symmetry_group_IT_number 72
_symmetry_cell_setting 'orthorhombic'
loop_
_space_group_symop_operation_xyz
x,y,z
-x,-y,z
x,-y,1/2-z
-x,y,1/2-z
-x,-y,-z
x,y,-z
-x,y,1/2+z
x,-y,1/2+z
1/2+x,1/2+y,1/2+z
1/2-x,1/2-y,1/2+z
1/2+x,1/2-y,-z
1/2-x,1/2+y,-z
1/2-x,1/2-y,1/2-z
1/2+x,1/2+y,1/2-z
1/2-x,1/2+y,z
1/2+x,1/2-y,z
loop_
_atom_site_type_symbol
_atom_site_label
_atom_site_fract_x
_atom_site_fract_y
_atom_site_fract_z
Si Si1 0.000000 0.000000 0.250000
Si Si2 0.149132 0.252102 0.805743
Si Si3 0.070223 0.092072 0.291202
Si Si4 0.261173 0.064604 0.706540
Si Si5 0.170725 0.874120 0.202523
Si Si6 0.146302 0.623607 0.288112
Si Si7 0.949460 0.224075 0.201674
Si Si8 0.447873 0.933337 0.203574
O O1 0.038327 0.952918 0.307175
O O2 0.165014 0.193573 0.720869
O O3 0.160320 0.313243 0.728797
O O4 0.093032 0.250557 0.803746
O O5 0.166932 0.250153 0.000000
O O6 0.067099 0.080074 0.500000
O O7 0.123861 0.095111 0.232216
O O8 0.052394 0.156277 0.266054
O O9 0.262357 0.071270 0.500000
O O10 0.219029 0.103181 0.774849
O O11 0.312343 0.082153 0.767117
O O12 0.251022 0.000000 0.750000
O O13 0.170300 0.886491 0.000000
O O14 0.144769 0.625692 0.500000
O O15 0.095921 0.602192 0.226519
O O16 0.000000 0.245937 0.250000
O O17 0.940431 0.232577 0.000000
O O18 0.500000 0.914242 0.250000
O O19 0.443371 0.000000 0.250000
O O20 0.444859 0.929896 0.000000
#
# Coordination Sequence:
#
# PCOD9526121 Si02
#       8
#     4  16  16  16  16  16  16  16
#     4  12  18  28  48  74 104 140 182 220 266 320
#     4  10  20  36  57  81 109 146 191 234 281 339
#     4   9  19  32  46  70 104 139 178 221 270 324
#     4  10  21  39  62  85 114 149 184 230 287 339
#     4   9  20  39  57  78 112 148 184 234 289 338
#     4   9  20  37  57  84 116 147 183 232 283 336
#     4  10  19  35  53  75 108 145 186 231 285 335
#     4  10  19  34  55  81 115 150 186 226 276 334
#
# _framework density 22.00169
#
# number of rings (size 3 to 8) (size 9 to 14) (size 15 to 20)
#    0.000    2.345    0.690    3.103    0.966    1.655 
#    0.000    6.897    0.000    0.000    0.000    0.000 
#    0.000    0.000    0.000    0.000    0.000    0.000 
#
# Total GULP energy -323443.928259 kJ/mol
# GULP energy per Si atom -5576.619453 kJ/mol
# Density = 2.195161 g / cm^3
# Si number density = 22.001690 Si / 1000 Ang^3
#
#
#
# Elastic Constant Matrix: (Units=GPa)
#
#
# Indices 1 2 3 4 5 6 
#
# 1 146.6133 47.0499 3.5304 0.0000 0.0000 0.0000
# 2 47.0499 72.9598 -4.3016 0.0000 0.0000 0.0000
# 3 3.5304 -4.3016 33.1245 0.0000 0.0000 0.0000
# 4 0.0000 0.0000 0.0000 2.7960 0.0000 0.0000
# 5 0.0000 0.0000 0.0000 0.0000 30.0638 0.0000
# 6 0.0000 0.0000 0.0000 0.0000 0.0000 -0.9936
#
#
#
# Elastic Compliance Matrix: (Units=1/GPa)
#
#
# Indices 1 2 3 4 5 6 
#
# 1 0.008691 -0.005703 -0.001667 0.000000 0.000000 0.000000
# 2 -0.005703 0.017554 0.002887 0.000000 0.000000 0.000000
# 3 -0.001667 0.002887 0.030742 0.000000 0.000000 0.000000
# 4 0.000000 0.000000 0.000000 0.357652 0.000000 0.000000
# 5 0.000000 0.000000 0.000000 0.000000 0.033263 0.000000
# 6 0.000000 0.000000 0.000000 0.000000 0.000000 -1.006409
#
#
# Mechanical properties :
#
#
# Convention : Reuss Voigt Hill
#
# Bulk Modulus (GPa) = 20.82372 38.36165 29.59269
# Shear Modulus (GPa) = -9.37144 20.13451 5.38153
#
# Velocity S-wave (km/s) = -2.06608 3.02840 1.56565
# Velocity P-wave (km/s) = 1.94771 5.44995 4.09240
#
# Compressibility (1/GPa) = 0.04802215
#
# Stress axis : x y z
#
# Youngs Moduli (GPa) = 115.06296 56.96702 32.52905
#
# Poissons Ratio (x) = 0.32487 0.05422
# Poissons Ratio (y) = 0.65618 -0.09392
# Poissons Ratio (z) = 0.19179 -0.16449
#
# Static dielectric constant tensor:
#      x y z
#    x 1.823710 0.000000 0.000000 
#    y 0.000000 1.774910 0.000000 
#    z 0.000000 0.000000 1.784430 
# 
# From -- ./inp_files/7357.got.cif
#   From: 2010.05.17/outbox.cif.g08.bks.cpg/sg72_4_cif.got.tgz:7357.got - 2010.06.03 17:03:01.
