data_PCOD9526695
_publ_section_title
;
Structure prediction by ZEFSAII (Michael W. Deem and Ramdas Pophale) SiO2 
 PCOD9526695
Probable space group: I B A M
;
_chemical_formula_sum "Si O2"
_cell_formula_units_Z 80
_cell_length_a 18.516987
_cell_length_b 28.042741
_cell_length_c 8.716484
_cell_angle_alpha 90.000000
_cell_angle_beta 90.000000
_cell_angle_gamma 90.000000
_cell_volume 4526.183112
_symmetry_space_group_name_H-M "I B A M"
_symmetry_group_IT_number 72
_symmetry_cell_setting 'orthorhombic'
loop_
_space_group_symop_operation_xyz
x,y,z
-x,-y,z
x,-y,1/2-z
-x,y,1/2-z
-x,-y,-z
x,y,-z
-x,y,1/2+z
x,-y,1/2+z
1/2+x,1/2+y,1/2+z
1/2-x,1/2-y,1/2+z
1/2+x,1/2-y,-z
1/2-x,1/2+y,-z
1/2-x,1/2-y,1/2-z
1/2+x,1/2+y,1/2-z
1/2-x,1/2+y,z
1/2+x,1/2-y,z
loop_
_atom_site_type_symbol
_atom_site_label
_atom_site_fract_x
_atom_site_fract_y
_atom_site_fract_z
Si Si1 0.578035 0.710060 0.315121
Si Si2 0.136781 0.687026 0.314542
Si Si3 0.784033 0.851376 0.815767
Si Si4 0.732093 0.050103 0.184133
Si Si5 0.424478 0.085234 0.316309
O O1 0.500000 0.697754 0.250000
O O2 0.574591 0.710201 0.500000
O O3 0.600994 0.763498 0.265822
O O4 0.641564 0.673922 0.269181
O O5 0.143531 0.686895 0.500000
O O6 0.215929 0.679161 0.244450
O O7 0.089986 0.640502 0.271156
O O8 0.774342 0.904127 0.747479
O O9 0.780893 0.853473 0.000000
O O10 0.648047 0.057786 0.232368
O O11 0.758146 0.000000 0.250000
O O12 0.734730 0.050345 0.000000
O O13 0.500000 0.067933 0.250000
O O14 0.428247 0.083155 0.500000
#
# Coordination Sequence:
#
# PCOD9526695 Si02
#       5
#    16  16  16  16  16
#     4  10  21  34  51  77 108 139 173 210 252 302
#     4   9  18  33  50  73 105 141 178 211 244 290
#     4  10  20  34  53  78 104 134 172 212 253 303
#     4  10  21  37  55  75  98 129 169 214 261 310
#     4   9  18  30  46  70 102 136 169 204 244 289
#
# _framework density 17.674935999999999
#
# number of rings (size 3 to 8) (size 9 to 14) (size 15 to 20)
#    0.000    2.400    0.000    3.600    0.000    6.800 
#    0.000    2.000    0.000    0.600    0.000    4.200 
#    0.000    0.000    0.000    0.000    0.000    0.000 
#
# Total GULP energy -223268.350399 kJ/mol
# GULP energy per Si atom -5581.708760 kJ/mol
# Density = 1.763471 g / cm^3
# Si number density = 17.674936 Si / 1000 Ang^3
#
#
#
# Elastic Constant Matrix: (Units=GPa)
#
#
# Indices 1 2 3 4 5 6 
#
# 1 78.1990 22.2094 9.8023 0.0000 0.0000 0.0000
# 2 22.2094 67.5555 9.5870 0.0000 0.0000 0.0000
# 3 9.8023 9.5870 16.0156 0.0001 -0.0001 0.0000
# 4 0.0000 0.0000 0.0001 15.8299 0.0000 0.0000
# 5 0.0000 0.0000 -0.0001 0.0000 28.6836 0.0000
# 6 0.0000 0.0000 0.0000 0.0000 0.0000 3.4142
#
#
#
# Elastic Compliance Matrix: (Units=1/GPa)
#
#
# Indices 1 2 3 4 5 6 
#
# 1 0.014732 -0.003895 -0.006685 0.000000 0.000000 0.000000
# 2 -0.003895 0.017206 -0.007916 0.000000 0.000000 0.000000
# 3 -0.006685 -0.007916 0.071269 0.000000 0.000000 0.000001
# 4 0.000000 0.000000 0.000000 0.063171 0.000000 0.000000
# 5 0.000000 0.000000 0.000000 0.000000 0.034863 0.000000
# 6 0.000000 0.000000 0.000001 0.000000 0.000000 0.292891
#
#
# Mechanical properties :
#
#
# Convention : Reuss Voigt Hill
#
# Bulk Modulus (GPa) = 15.10215 27.21859 21.16037
# Shear Modulus (GPa) = 9.03837 17.59699 13.31768
#
# Velocity S-wave (km/s) = 2.26379 3.15872 2.74793
# Velocity P-wave (km/s) = 3.92377 5.36063 4.69746
#
# Compressibility (1/GPa) = 0.06621572
#
# Stress axis : x y z
#
# Youngs Moduli (GPa) = 67.87957 58.11792 14.03127
#
# Poissons Ratio (x) = 0.22634 0.09380
# Poissons Ratio (y) = 0.26436 0.11107
# Poissons Ratio (z) = 0.45380 0.46007
#
# Static dielectric constant tensor:
#      x y z
#    x 1.579720 0.000000 0.000000 
#    y 0.000000 1.603440 0.000000 
#    z 0.000000 0.000000 1.634400 
# 
# From -- ./inp_files/4747.got.cif
#   From: 2010.05.17/outbox.cif.g08.bks.cpg/sg72_3_cif.got.tgz:4747.got - 2010.06.03 17:03:01.
