data_PCOD9526535
_publ_section_title
;
Structure prediction by ZEFSAII (Michael W. Deem and Ramdas Pophale) SiO2 
 PCOD9526535
Probable space group: I B A M
;
_chemical_formula_sum "Si O2"
_cell_formula_units_Z 96
_cell_length_a 9.537547
_cell_length_b 25.174758
_cell_length_c 21.145453
_cell_angle_alpha 90.000000
_cell_angle_beta 90.000000
_cell_angle_gamma 90.000000
_cell_volume 5077.138247
_symmetry_space_group_name_H-M "I B A M"
_symmetry_group_IT_number 72
_symmetry_cell_setting 'orthorhombic'
loop_
_space_group_symop_operation_xyz
x,y,z
-x,-y,z
x,-y,1/2-z
-x,y,1/2-z
-x,-y,-z
x,y,-z
-x,y,1/2+z
x,-y,1/2+z
1/2+x,1/2+y,1/2+z
1/2-x,1/2-y,1/2+z
1/2+x,1/2-y,-z
1/2-x,1/2+y,-z
1/2-x,1/2-y,1/2-z
1/2+x,1/2+y,1/2-z
1/2-x,1/2+y,z
1/2+x,1/2-y,z
loop_
_atom_site_type_symbol
_atom_site_label
_atom_site_fract_x
_atom_site_fract_y
_atom_site_fract_z
Si Si1 0.286577 0.627778 0.801045
Si Si2 0.789908 0.262206 0.849900
Si Si3 0.471611 0.062666 0.178117
Si Si4 0.107962 0.855951 0.167323
Si Si5 0.669781 0.112572 0.071221
Si Si6 0.455260 0.230087 0.431535
O O1 0.206921 0.684718 0.808254
O O2 0.187408 0.583356 0.832117
O O3 0.319750 0.616139 0.727701
O O4 0.441940 0.634343 0.830612
O O5 0.848877 0.206414 0.823538
O O6 0.632538 0.255204 0.874634
O O7 0.883957 0.271154 0.911975
O O8 0.500000 0.083206 0.250000
O O9 0.571803 0.083991 0.122728
O O10 0.500000 0.000000 0.179589
O O11 0.179486 0.877461 0.103713
O O12 0.603242 0.170919 0.065306
O O13 0.675685 0.089547 0.000000
O O14 0.436758 0.256245 0.500000
#
# Coordination Sequence:
#
# PCOD9526535 Si02
#       6
#    16  16  16  16  16  16
#     4  11  21  38  60  88 125 154 208 255 299 361
#     4  11  19  34  52  85 122 160 200 247 290 355
#     4  11  23  42  69  93 115 152 207 267 318 364
#     4  10  22  37  57  90 124 166 200 242 303 368
#     4  10  21  40  62  88 126 164 200 253 310 361
#     4  10  20  32  51  80 122 168 201 234 290 360
#
# _framework density 18.908289
#
# number of rings (size 3 to 8) (size 9 to 14) (size 15 to 20)
#    0.000    1.500    5.000    1.000    0.000    1.000 
#    3.000    1.667    0.000    1.000    0.000    0.000 
#    0.000    0.000    0.000    0.000    0.000    0.000 
#
# Total GULP energy -267380.622209 kJ/mol
# GULP energy per Si atom -5570.429629 kJ/mol
# Density = 1.886525 g / cm^3
# Si number density = 18.908289 Si / 1000 Ang^3
#
#
#
# Elastic Constant Matrix: (Units=GPa)
#
#
# Indices 1 2 3 4 5 6 
#
# 1 108.6484 38.9753 34.0925 0.0000 0.0000 0.0000
# 2 38.9753 53.4484 33.6039 0.0000 0.0000 0.0000
# 3 34.0925 33.6039 99.5912 0.0000 0.0000 0.0000
# 4 0.0000 0.0000 0.0000 17.1349 0.0000 0.0000
# 5 0.0000 0.0000 0.0000 0.0000 55.7144 0.0000
# 6 0.0000 0.0000 0.0000 0.0000 0.0000 8.7699
#
#
#
# Elastic Compliance Matrix: (Units=1/GPa)
#
#
# Indices 1 2 3 4 5 6 
#
# 1 0.012649 -0.008252 -0.001546 0.000000 0.000000 0.000000
# 2 -0.008252 0.029131 -0.007004 0.000000 0.000000 0.000000
# 3 -0.001546 -0.007004 0.012934 0.000000 0.000000 0.000000
# 4 0.000000 0.000000 0.000000 0.058361 0.000000 0.000000
# 5 0.000000 0.000000 0.000000 0.000000 0.017949 0.000000
# 6 0.000000 0.000000 0.000000 0.000000 0.000000 0.114027
#
#
# Mechanical properties :
#
#
# Convention : Reuss Voigt Hill
#
# Bulk Modulus (GPa) = 47.37258 52.78127 50.07693
# Shear Modulus (GPa) = 17.50141 26.65824 22.07983
#
# Velocity S-wave (km/s) = 3.04566 3.75890 3.42092
# Velocity P-wave (km/s) = 6.12179 6.84208 6.49193
#
# Compressibility (1/GPa) = 0.02110926
#
# Stress axis : x y z
#
# Youngs Moduli (GPa) = 79.05543 34.32761 77.31798
#
# Poissons Ratio (x) = 0.28328 0.11951
# Poissons Ratio (y) = 0.65239 0.54157
# Poissons Ratio (z) = 0.12220 0.24044
#
# Static dielectric constant tensor:
#      x y z
#    x 1.666030 0.000000 0.000000 
#    y 0.000000 1.659600 0.000000 
#    z 0.000000 0.000000 1.703090 
# 
# From -- ./inp_files/35998.got.cif
#   From: 2010.05.17/outbox.cif.g08.bks.cpg/sg72_18_cif.got.tgz:35998.got - 2010.06.03 17:03:01.
