data_PCOD9526079
_publ_section_title
;
Structure prediction by ZEFSAII (Michael W. Deem and Ramdas Pophale) SiO2 
 PCOD9526079
Probable space group: I B A M
;
_chemical_formula_sum "Si O2"
_cell_formula_units_Z 80
_cell_length_a 24.664919
_cell_length_b 5.290307
_cell_length_c 33.119547
_cell_angle_alpha 90.000000
_cell_angle_beta 90.000000
_cell_angle_gamma 90.000000
_cell_volume 4321.603880
_symmetry_space_group_name_H-M "I B A M"
_symmetry_group_IT_number 72
_symmetry_cell_setting 'orthorhombic'
loop_
_space_group_symop_operation_xyz
x,y,z
-x,-y,z
x,-y,1/2-z
-x,y,1/2-z
-x,-y,-z
x,y,-z
-x,y,1/2+z
x,-y,1/2+z
1/2+x,1/2+y,1/2+z
1/2-x,1/2-y,1/2+z
1/2+x,1/2-y,-z
1/2-x,1/2+y,-z
1/2-x,1/2-y,1/2-z
1/2+x,1/2+y,1/2-z
1/2-x,1/2+y,z
1/2+x,1/2-y,z
loop_
_atom_site_type_symbol
_atom_site_label
_atom_site_fract_x
_atom_site_fract_y
_atom_site_fract_z
Si Si1 0.559369 0.429162 0.797038
Si Si2 0.064196 0.705187 0.079418
Si Si3 0.103797 0.419041 0.332325
Si Si4 0.558431 0.708648 0.546912
Si Si5 0.214243 0.471543 0.203867
O O1 0.500000 0.500000 0.813927
O O2 0.558837 0.500000 0.750000
O O3 0.599964 0.634347 0.815437
O O4 0.572675 0.138916 0.807074
O O5 0.076710 0.604240 0.123853
O O6 0.085120 0.482563 0.050721
O O7 0.000727 0.748943 0.067781
O O8 0.087546 0.982274 0.070421
O O9 0.166121 0.499506 0.328091
O O10 0.552078 0.642674 0.500000
O O11 0.191423 0.500000 0.250000
O O12 0.243305 0.201510 0.200235
#
# Coordination Sequence:
#
# PCOD9526079 Si02
#       5
#    16  16  16  16  16
#     4  11  24  37  51  73 109 155 189 216 263 328
#     4  10  20  30  50  78 105 141 177 218 272 307
#     4  12  23  36  57  80 111 138 189 240 280 329
#     4  10  19  34  52  75 112 149 183 214 250 323
#     4  10  21  38  59  78 100 138 187 241 296 333
#
# _framework density 18.511644
#
# number of rings (size 3 to 8) (size 9 to 14) (size 15 to 20)
#    0.000    1.400    0.000    7.800    8.400    3.200 
#    0.000    0.000    0.000    0.000    0.000    0.000 
#    0.000   27.200    0.000    0.000    0.000    0.000 
#
# Total GULP energy -222919.390901 kJ/mol
# GULP energy per Si atom -5572.984773 kJ/mol
# Density = 1.846951 g / cm^3
# Si number density = 18.511644 Si / 1000 Ang^3
#
#
#
# Elastic Constant Matrix: (Units=GPa)
#
#
# Indices 1 2 3 4 5 6 
#
# 1 30.9365 -4.8836 16.7346 0.0000 0.0000 0.0000
# 2 -4.8836 126.6267 21.0035 0.0000 0.0000 0.0000
# 3 16.7346 21.0035 98.4598 0.0000 0.0000 0.0000
# 4 0.0000 0.0000 0.0000 30.4393 0.0000 0.0000
# 5 0.0000 0.0000 0.0000 0.0000 4.3961 0.0000
# 6 0.0000 0.0000 0.0000 0.0000 0.0000 20.4935
#
#
#
# Elastic Compliance Matrix: (Units=1/GPa)
#
#
# Indices 1 2 3 4 5 6 
#
# 1 0.036354 0.002516 -0.006716 0.000000 0.000000 0.000000
# 2 0.002516 0.008361 -0.002211 0.000000 0.000000 0.000000
# 3 -0.006716 -0.002211 0.011770 0.000000 0.000000 0.000000
# 4 0.000000 0.000000 0.000000 0.032852 0.000000 0.000000
# 5 0.000000 0.000000 0.000000 0.000000 0.227474 0.000000
# 6 0.000000 0.000000 0.000000 0.000000 0.000000 0.048796
#
#
# Mechanical properties :
#
#
# Convention : Reuss Voigt Hill
#
# Bulk Modulus (GPa) = 22.90264 35.74798 29.32531
# Shear Modulus (GPa) = 12.72321 25.94370 19.33345
#
# Velocity S-wave (km/s) = 2.62450 3.74770 3.23521
# Velocity P-wave (km/s) = 4.64574 6.17090 5.46182
#
# Compressibility (1/GPa) = 0.04366309
#
# Stress axis : x y z
#
# Youngs Moduli (GPa) = 27.50718 119.60245 84.96513
#
# Poissons Ratio (x) = -0.30092 0.57059
# Poissons Ratio (y) = -0.06921 0.18788
# Poissons Ratio (z) = 0.18473 0.26447
#
# Static dielectric constant tensor:
#      x y z
#    x 1.717800 0.000000 0.000000 
#    y 0.000000 1.656430 0.000000 
#    z 0.000000 0.000000 1.690660 
# 
# From -- ./inp_files/50354.got.cif
#   From: 2010.05.17/outbox.cif.g08.bks.cpg/sg72_26_cif.got.tgz:50354.got - 2010.06.03 17:03:01.
