data_PCOD9526484
_publ_section_title
;
Structure prediction by ZEFSAII (Michael W. Deem and Ramdas Pophale) SiO2 
 PCOD9526484
Probable space group: I B A M
;
_chemical_formula_sum "Si O2"
_cell_formula_units_Z 96
_cell_length_a 19.242338
_cell_length_b 9.175667
_cell_length_c 25.664178
_cell_angle_alpha 90.000000
_cell_angle_beta 90.000000
_cell_angle_gamma 90.000000
_cell_volume 4531.300266
_symmetry_space_group_name_H-M "I B A M"
_symmetry_group_IT_number 72
_symmetry_cell_setting 'orthorhombic'
loop_
_space_group_symop_operation_xyz
x,y,z
-x,-y,z
x,-y,1/2-z
-x,y,1/2-z
-x,-y,-z
x,y,-z
-x,y,1/2+z
x,-y,1/2+z
1/2+x,1/2+y,1/2+z
1/2-x,1/2-y,1/2+z
1/2+x,1/2-y,-z
1/2-x,1/2+y,-z
1/2-x,1/2-y,1/2-z
1/2+x,1/2+y,1/2-z
1/2-x,1/2+y,z
1/2+x,1/2-y,z
loop_
_atom_site_type_symbol
_atom_site_label
_atom_site_fract_x
_atom_site_fract_y
_atom_site_fract_z
Si Si1 0.108828 0.518192 0.940782
Si Si2 0.305027 0.881917 0.145370
Si Si3 0.756214 0.276371 0.942184
Si Si4 0.279129 0.621258 0.787324
Si Si5 0.972096 0.788249 0.436989
Si Si6 0.612209 0.558278 0.562547
O O1 0.131938 0.420391 0.892801
O O2 0.176061 0.625106 0.944570
O O3 0.046673 0.623936 0.925040
O O4 0.098460 0.456349 0.000000
O O5 0.243844 0.837367 0.104845
O O6 0.320966 0.730051 0.175164
O O7 0.277115 0.019299 0.180461
O O8 0.688183 0.374677 0.931122
O O9 0.748091 0.206785 0.000000
O O10 0.314237 0.500000 0.750000
O O11 0.250000 0.750000 0.750000
O O12 0.970471 0.793681 0.500000
O O13 0.047628 0.841085 0.420373
O O14 0.912320 0.899519 0.417817
O O15 0.607008 0.548386 0.500000
#
# Coordination Sequence:
#
# PCOD9526484 Si02
#       6
#    16  16  16  16  16  16
#     4  10  20  29  44  76 115 151 182 216 265 326
#     4  11  19  34  50  75 105 142 173 220 273 328
#     4  10  20  29  44  76 115 151 180 209 258 322
#     4   9  20  36  54  70  97 138 174 226 283 334
#     4   8  15  29  47  66  98 151 202 230 250 291
#     4   8  15  29  47  66  98 151 202 229 248 294
#
# _framework density 21.185970999999999
#
# number of rings (size 3 to 8) (size 9 to 14) (size 15 to 20)
#    0.000    2.667    1.667    1.500    2.333    0.000 
#    0.000    0.833    0.000    4.000    0.000    0.000 
#    0.000   24.000   11.333    0.167    0.000    0.000 
#
# Total GULP energy -267315.780693 kJ/mol
# GULP energy per Si atom -5569.078764 kJ/mol
# Density = 2.113775 g / cm^3
# Si number density = 21.185971 Si / 1000 Ang^3
#
#
#
# Elastic Constant Matrix: (Units=GPa)
#
#
# Indices 1 2 3 4 5 6 
#
# 1 65.6444 48.8671 1.4500 0.0000 0.0000 0.0000
# 2 48.8671 158.1847 56.1133 0.0000 0.0000 0.0000
# 3 1.4500 56.1133 86.2282 0.0000 0.0000 0.0000
# 4 0.0000 0.0000 0.0000 56.2698 0.0000 0.0000
# 5 0.0000 0.0000 0.0000 0.0000 2.6361 0.0000
# 6 0.0000 0.0000 0.0000 0.0000 0.0000 43.4587
#
#
#
# Elastic Compliance Matrix: (Units=1/GPa)
#
#
# Indices 1 2 3 4 5 6 
#
# 1 0.021393 -0.008426 0.005124 0.000000 0.000000 0.000000
# 2 -0.008426 0.011538 -0.007367 0.000000 0.000000 0.000000
# 3 0.005124 -0.007367 0.016305 0.000000 0.000000 0.000000
# 4 0.000000 0.000000 0.000000 0.017772 0.000000 0.000000
# 5 0.000000 0.000000 0.000000 0.000000 0.379349 0.000000
# 6 0.000000 0.000000 0.000000 0.000000 0.000000 0.023010
#
#
# Mechanical properties :
#
#
# Convention : Reuss Voigt Hill
#
# Bulk Modulus (GPa) = 35.84560 58.10201 46.97380
# Shear Modulus (GPa) = 9.99989 34.04806 22.02398
#
# Velocity S-wave (km/s) = 2.17493 4.01322 3.22771
# Velocity P-wave (km/s) = 4.82320 6.99706 6.00925
#
# Compressibility (1/GPa) = 0.02789743
#
# Stress axis : x y z
#
# Youngs Moduli (GPa) = 46.74372 86.66941 61.33119
#
# Poissons Ratio (x) = 0.73032 -0.31425
# Poissons Ratio (y) = 0.39388 0.45181
# Poissons Ratio (z) = -0.23951 0.63847
#
# Static dielectric constant tensor:
#      x y z
#    x 1.803770 0.000000 0.000000 
#    y 0.000000 1.913130 0.000000 
#    z 0.000000 0.000000 1.862350 
# 
# From -- ./inp_files/49622.got.cif
#   From: 2010.05.17/outbox.cif.g08.bks.cpg/sg72_25_cif.got.tgz:49622.got - 2010.06.03 17:03:01.
