data_PCOD9526756
_publ_section_title
;
Structure prediction by ZEFSAII (Michael W. Deem and Ramdas Pophale) SiO2 
 PCOD9526756
Probable space group: I B A M
;
_chemical_formula_sum "Si O2"
_cell_formula_units_Z 64
_cell_length_a 14.433775
_cell_length_b 15.662959
_cell_length_c 11.401474
_cell_angle_alpha 90.000000
_cell_angle_beta 90.000000
_cell_angle_gamma 90.000000
_cell_volume 2577.595372
_symmetry_space_group_name_H-M "I B A M"
_symmetry_group_IT_number 72
_symmetry_cell_setting 'orthorhombic'
loop_
_space_group_symop_operation_xyz
x,y,z
-x,-y,z
x,-y,1/2-z
-x,y,1/2-z
-x,-y,-z
x,y,-z
-x,y,1/2+z
x,-y,1/2+z
1/2+x,1/2+y,1/2+z
1/2-x,1/2-y,1/2+z
1/2+x,1/2-y,-z
1/2-x,1/2+y,-z
1/2-x,1/2-y,1/2-z
1/2+x,1/2+y,1/2-z
1/2-x,1/2+y,z
1/2+x,1/2-y,z
loop_
_atom_site_type_symbol
_atom_site_label
_atom_site_fract_x
_atom_site_fract_y
_atom_site_fract_z
Si Si1 0.274226 0.745441 0.000000
Si Si2 0.346678 0.441235 0.500000
Si Si3 0.500000 0.794608 0.250000
Si Si4 0.661456 0.500000 0.750000
Si Si5 0.054656 0.290996 0.500000
Si Si6 0.625272 0.979007 0.000000
Si Si7 0.827580 0.614403 0.185475
O O1 0.336151 0.660609 0.000000
O O2 0.298034 0.805650 0.891730
O O3 0.163588 0.731505 0.000000
O O4 0.384813 0.481904 0.622661
O O5 0.236207 0.461982 0.500000
O O6 0.496679 0.755411 0.381766
O O7 0.593026 0.849313 0.234234
O O8 0.732894 0.578936 0.762467
O O9 0.060021 0.396172 0.500000
O O10 0.621005 0.040082 0.887221
#
# Coordination Sequence:
#
# PCOD9526756 Si02
#       7
#     8   8   8   8   8   8  16
#     4  10  21  40  61  84 118 166 203 244 290 344
#     4   9  18  32  53  78 112 149 195 239 273 325
#     4  12  24  37  54  84 120 159 194 230 284 351
#     4  10  20  35  54  84 120 155 194 230 280 355
#     4  11  24  37  56  83 120 156 196 236 284 343
#     4   8  17  33  52  80 114 153 192 222 271 345
#     4  10  20  34  56  84 120 152 196 241 284 341
#
# _framework density 24.829343999999999
#
# number of rings (size 3 to 8) (size 9 to 14) (size 15 to 20)
#    0.000    2.000    0.000    6.750    0.000    9.500 
#    0.000    0.000    0.000    0.000    0.000    0.000 
#    0.000  326.000    0.000    0.000    0.000    0.000 
#
# Total GULP energy -178461.076496 kJ/mol
# GULP energy per Si atom -5576.908640 kJ/mol
# Density = 2.477283 g / cm^3
# Si number density = 24.829344 Si / 1000 Ang^3
#
#
#
# Elastic Constant Matrix: (Units=GPa)
#
#
# Indices 1 2 3 4 5 6 
#
# 1 78.8605 26.3199 21.6981 0.0000 0.0000 0.0000
# 2 26.3199 69.0162 39.4575 0.0000 0.0000 0.0000
# 3 21.6981 39.4575 217.7944 0.0000 0.0000 0.0000
# 4 0.0000 0.0000 0.0000 117.8717 0.0000 0.0000
# 5 0.0000 0.0000 0.0000 0.0000 28.1780 0.0000
# 6 0.0000 0.0000 0.0000 0.0000 0.0000 -5.3094
#
#
#
# Elastic Compliance Matrix: (Units=1/GPa)
#
#
# Indices 1 2 3 4 5 6 
#
# 1 0.014578 -0.005276 -0.000497 0.000000 0.000000 0.000000
# 2 -0.005276 0.018073 -0.002749 0.000000 0.000000 0.000000
# 3 -0.000497 -0.002749 0.005139 0.000000 0.000000 0.000000
# 4 0.000000 0.000000 0.000000 0.008484 0.000000 0.000000
# 5 0.000000 0.000000 0.000000 0.000000 0.035489 0.000000
# 6 0.000000 0.000000 0.000000 0.000000 0.000000 -0.188345
#
#
# Mechanical properties :
#
#
# Convention : Reuss Voigt Hill
#
# Bulk Modulus (GPa) = 48.19726 60.06913 54.13320
# Shear Modulus (GPa) = -60.51424 46.69441 -6.90991
#
# Velocity S-wave (km/s) = -4.94216 4.34131 -1.67003
# Velocity P-wave (km/s) = 3.62120 7.02671 4.25802
#
# Compressibility (1/GPa) = 0.02074807
#
# Stress axis : x y z
#
# Youngs Moduli (GPa) = 68.59658 55.33230 194.59334
#
# Poissons Ratio (x) = 0.29191 0.09663
# Poissons Ratio (y) = 0.36188 0.53486
# Poissons Ratio (z) = 0.03406 0.15209
#
# Static dielectric constant tensor:
#      x y z
#    x 1.925690 0.000000 0.000000 
#    y 0.000000 1.977260 0.000000 
#    z 0.000000 0.000000 2.157490 
# 
# From -- ./inp_files/13536.got.cif
#   From: 2010.05.17/outbox.cif.g08.bks.cpg/sg72_7_cif.got.tgz:13536.got - 2010.06.03 17:03:01.
