data_PCOD9526864
_publ_section_title
;
Structure prediction by ZEFSAII (Michael W. Deem and Ramdas Pophale) SiO2 
 PCOD9526864
Probable space group: I B A M
;
_chemical_formula_sum "Si O2"
_cell_formula_units_Z 96
_cell_length_a 14.682861
_cell_length_b 19.975605
_cell_length_c 14.531623
_cell_angle_alpha 90.000000
_cell_angle_beta 90.000000
_cell_angle_gamma 90.000000
_cell_volume 4262.110954
_symmetry_space_group_name_H-M "I B A M"
_symmetry_group_IT_number 72
_symmetry_cell_setting 'orthorhombic'
loop_
_space_group_symop_operation_xyz
x,y,z
-x,-y,z
x,-y,1/2-z
-x,y,1/2-z
-x,-y,-z
x,y,-z
-x,y,1/2+z
x,-y,1/2+z
1/2+x,1/2+y,1/2+z
1/2-x,1/2-y,1/2+z
1/2+x,1/2-y,-z
1/2-x,1/2+y,-z
1/2-x,1/2-y,1/2-z
1/2+x,1/2+y,1/2-z
1/2-x,1/2+y,z
1/2+x,1/2-y,z
loop_
_atom_site_type_symbol
_atom_site_label
_atom_site_fract_x
_atom_site_fract_y
_atom_site_fract_z
Si Si1 0.856586 0.223478 0.000000
Si Si2 0.777796 0.924502 0.500000
Si Si3 0.772271 0.153204 0.500000
Si Si4 0.097686 0.429764 0.702714
Si Si5 0.859633 0.532886 0.500000
Si Si6 0.435404 0.319790 0.819115
Si Si7 0.235701 0.175304 0.793630
Si Si8 0.920390 0.961033 0.652165
O O1 0.791475 0.156887 0.000000
O O2 0.809345 0.293785 0.000000
O O3 0.914784 0.220446 0.908838
O O4 0.831952 0.951254 0.589458
O O5 0.677387 0.956577 0.500000
O O6 0.732596 0.078591 0.500000
O O7 0.807560 0.170053 0.603125
O O8 0.128827 0.500000 0.750000
O O9 0.089582 0.446824 0.593872
O O10 0.174210 0.371118 0.711495
O O11 0.000000 0.413237 0.750000
O O12 0.500000 0.281459 0.750000
O O13 0.343581 0.347664 0.773121
O O14 0.475529 0.390640 0.843686
O O15 0.250000 0.250000 0.750000
O O16 0.903198 0.000000 0.750000
O O17 0.000000 0.000000 0.601364
#
# Coordination Sequence:
#
# PCOD9526864 Si02
#       8
#     8   8   8  16   8  16  16  16
#     4  10  22  42  63  90 136 176 223 275 320 399
#     4  10  23  34  63  95 123 172 217 267 325 381
#     4  10  22  43  60  95 133 167 228 278 329 397
#     4  10  25  46  71 101 134 173 228 293 347 406
#     4  10  24  40  66 102 127 167 220 290 338 406
#     4  11  23  39  62  98 133 175 219 265 323 406
#     4  11  24  43  71  96 133 180 226 280 342 407
#     4  10  20  35  55  88 135 174 210 257 311 391
#
# _framework density 22.524049000000002
#
# number of rings (size 3 to 8) (size 9 to 14) (size 15 to 20)
#    0.000    1.667    3.333    0.250    9.333    2.667 
#    0.000    1.667    0.000    0.000    0.000    0.000 
#    0.000    0.000    0.000    0.000    0.000    0.000 
#
# Total GULP energy -267259.848236 kJ/mol
# GULP energy per Si atom -5567.913505 kJ/mol
# Density = 2.247278 g / cm^3
# Si number density = 22.524049 Si / 1000 Ang^3
#
#
#
# Elastic Constant Matrix: (Units=GPa)
#
#
# Indices 1 2 3 4 5 6 
#
# 1 75.4221 15.5525 39.6353 0.0000 0.0000 0.0000
# 2 15.5525 85.8702 11.1809 0.0001 0.0000 0.0000
# 3 39.6353 11.1809 185.5318 0.0002 0.0000 0.0000
# 4 0.0000 0.0001 0.0002 12.8173 0.0000 0.0000
# 5 0.0000 0.0000 0.0000 0.0000 36.0231 0.0000
# 6 0.0000 0.0000 0.0000 0.0000 0.0000 -15.9995
#
#
#
# Elastic Compliance Matrix: (Units=1/GPa)
#
#
# Indices 1 2 3 4 5 6 
#
# 1 0.015403 -0.002380 -0.003147 0.000000 0.000000 0.000000
# 2 -0.002380 0.012105 -0.000221 0.000000 0.000000 0.000000
# 3 -0.003147 -0.000221 0.006076 0.000000 0.000000 0.000000
# 4 0.000000 0.000000 0.000000 0.078020 0.000000 0.000000
# 5 0.000000 0.000000 0.000000 0.000000 0.027760 0.000000
# 6 0.000000 0.000000 0.000000 0.000000 0.000000 -0.062502
#
#
# Mechanical properties :
#
#
# Convention : Reuss Voigt Hill
#
# Bulk Modulus (GPa) = 45.27407 53.28462 49.27935
# Shear Modulus (GPa) = 52.23504 25.26521 38.75012
#
# Velocity S-wave (km/s) = 4.82091 3.35281 4.15226
# Velocity P-wave (km/s) = 7.15067 6.22066 6.70182
#
# Compressibility (1/GPa) = 0.02208770
#
# Stress axis : x y z
#
# Youngs Moduli (GPa) = 64.92082 82.60832 164.59347
#
# Poissons Ratio (x) = 0.19661 0.51801
# Poissons Ratio (y) = 0.15451 0.03639
# Poissons Ratio (z) = 0.20432 0.01826
#
# Static dielectric constant tensor:
#      x y z
#    x 2.124630 0.000000 0.000000 
#    y 0.000000 2.356700 0.000000 
#    z 0.000000 0.000000 1.805430 
# 
# From -- ./inp_files/21935.got.cif
#   From: 2010.05.17/outbox.cif.g08.bks.cpg/sg72_11_cif.got.tgz:21935.got - 2010.06.03 17:03:01.
