data_PCOD9526631
_publ_section_title
;
Structure prediction by ZEFSAII (Michael W. Deem and Ramdas Pophale) SiO2 
 PCOD9526631
Probable space group: I B A M
;
_chemical_formula_sum "Si O2"
_cell_formula_units_Z 96
_cell_length_a 23.484956
_cell_length_b 12.676234
_cell_length_c 16.773669
_cell_angle_alpha 90.000000
_cell_angle_beta 90.000000
_cell_angle_gamma 90.000000
_cell_volume 4993.534642
_symmetry_space_group_name_H-M "I B A M"
_symmetry_group_IT_number 72
_symmetry_cell_setting 'orthorhombic'
loop_
_space_group_symop_operation_xyz
x,y,z
-x,-y,z
x,-y,1/2-z
-x,y,1/2-z
-x,-y,-z
x,y,-z
-x,y,1/2+z
x,-y,1/2+z
1/2+x,1/2+y,1/2+z
1/2-x,1/2-y,1/2+z
1/2+x,1/2-y,-z
1/2-x,1/2+y,-z
1/2-x,1/2-y,1/2-z
1/2+x,1/2+y,1/2-z
1/2-x,1/2+y,z
1/2+x,1/2-y,z
loop_
_atom_site_type_symbol
_atom_site_label
_atom_site_fract_x
_atom_site_fract_y
_atom_site_fract_z
Si Si1 0.712552 0.364223 0.829483
Si Si2 0.565057 0.474923 0.843260
Si Si3 0.830795 0.262787 0.180228
Si Si4 0.612964 0.745165 0.593944
Si Si5 0.566874 0.874219 0.738293
Si Si6 0.171753 0.931666 0.911833
O O1 0.779190 0.344885 0.818585
O O2 0.681908 0.323074 0.749560
O O3 0.679297 0.288739 0.892940
O O4 0.701405 0.484517 0.853024
O O5 0.500000 0.500000 0.856975
O O6 0.576994 0.500000 0.750000
O O7 0.579890 0.356465 0.869872
O O8 0.605363 0.546752 0.896693
O O9 0.891352 0.314892 0.199075
O O10 0.821853 0.191626 0.102943
O O11 0.602105 0.760369 0.500000
O O12 0.591994 0.839214 0.651798
O O13 0.500000 0.844652 0.750000
O O14 0.571194 0.000000 0.750000
O O15 0.189478 0.962062 0.000000
#
# Coordination Sequence:
#
# PCOD9526631 Si02
#       6
#    16  16  16  16  16  16
#     4   9  19  37  59  83 118 153 199 246 296 365
#     4  10  20  33  56  85 119 158 197 241 299 365
#     4  10  21  37  62  86 109 158 207 246 295 363
#     4  10  21  37  61  88 120 161 201 252 316 367
#     4  10  23  43  63  85 118 161 212 259 302 362
#     4  11  22  35  53  86 127 154 189 249 307 361
#
# _framework density 19.224858999999999
#
# number of rings (size 3 to 8) (size 9 to 14) (size 15 to 20)
#    0.000    2.000    0.000    5.500    4.667    6.667 
#    0.000    2.500    0.000    0.000    0.000    0.000 
#    0.000    0.000    0.000    0.000    0.000    0.000 
#
# Total GULP energy -267540.847917 kJ/mol
# GULP energy per Si atom -5573.767665 kJ/mol
# Density = 1.918110 g / cm^3
# Si number density = 19.224859 Si / 1000 Ang^3
#
#
#
# Elastic Constant Matrix: (Units=GPa)
#
#
# Indices 1 2 3 4 5 6 
#
# 1 119.6477 39.5945 10.0610 0.0000 0.0000 0.0000
# 2 39.5945 61.1860 23.6977 0.0000 0.0000 0.0000
# 3 10.0610 23.6977 75.7120 0.0000 0.0000 0.0000
# 4 0.0000 0.0000 0.0000 12.3773 0.0000 0.0000
# 5 0.0000 0.0000 0.0000 0.0000 -4.6309 0.0000
# 6 0.0000 0.0000 0.0000 0.0000 0.0000 19.1444
#
#
#
# Elastic Compliance Matrix: (Units=1/GPa)
#
#
# Indices 1 2 3 4 5 6 
#
# 1 0.010683 -0.007241 0.000847 0.000000 0.000000 0.000000
# 2 -0.007241 0.023506 -0.006395 0.000000 0.000000 0.000000
# 3 0.000847 -0.006395 0.015097 0.000000 0.000000 0.000000
# 4 0.000000 0.000000 0.000000 0.080793 0.000000 0.000000
# 5 0.000000 0.000000 0.000000 0.000000 -0.215943 0.000000
# 6 0.000000 0.000000 0.000000 0.000000 0.000000 0.052234
#
#
# Mechanical properties :
#
#
# Convention : Reuss Voigt Hill
#
# Bulk Modulus (GPa) = 42.18081 44.80579 43.49330
# Shear Modulus (GPa) = -33954.49953 17.59100 -16968.45427
#
# Velocity S-wave (km/s) = -133.04176 3.02820 -94.05036
# Velocity P-wave (km/s) = 153.55181 5.96519 108.49556
#
# Compressibility (1/GPa) = 0.02370746
#
# Stress axis : x y z
#
# Youngs Moduli (GPa) = 93.60742 42.54170 66.23781
#
# Poissons Ratio (x) = 0.30805 -0.05609
# Poissons Ratio (y) = 0.67782 0.42361
# Poissons Ratio (z) = -0.07927 0.27206
#
# Static dielectric constant tensor:
#      x y z
#    x 1.682260 0.000000 0.000000 
#    y 0.000000 1.692080 0.000000 
#    z 0.000000 0.000000 1.722020 
# 
# From -- ./inp_files/33240.got.cif
#   From: 2010.05.17/outbox.cif.g08.bks.cpg/sg72_17_cif.got.tgz:33240.got - 2010.06.03 17:03:01.
