data_PCOD9526873
_publ_section_title
;
Structure prediction by ZEFSAII (Michael W. Deem and Ramdas Pophale) SiO2 
 PCOD9526873
Probable space group: I B A M
;
_chemical_formula_sum "Si O2"
_cell_formula_units_Z 112
_cell_length_a 20.678487
_cell_length_b 11.363076
_cell_length_c 23.002388
_cell_angle_alpha 90.000000
_cell_angle_beta 90.000000
_cell_angle_gamma 90.000000
_cell_volume 5404.899156
_symmetry_space_group_name_H-M "I B A M"
_symmetry_group_IT_number 72
_symmetry_cell_setting 'orthorhombic'
loop_
_space_group_symop_operation_xyz
x,y,z
-x,-y,z
x,-y,1/2-z
-x,y,1/2-z
-x,-y,-z
x,y,-z
-x,y,1/2+z
x,-y,1/2+z
1/2+x,1/2+y,1/2+z
1/2-x,1/2-y,1/2+z
1/2+x,1/2-y,-z
1/2-x,1/2+y,-z
1/2-x,1/2-y,1/2-z
1/2+x,1/2+y,1/2-z
1/2-x,1/2+y,z
1/2+x,1/2-y,z
loop_
_atom_site_type_symbol
_atom_site_label
_atom_site_fract_x
_atom_site_fract_y
_atom_site_fract_z
Si Si1 0.750960 0.847883 0.863248
Si Si2 0.536011 0.878456 0.831724
Si Si3 0.124673 0.573382 0.932470
Si Si4 0.646914 0.479117 0.683878
Si Si5 0.926342 0.193815 0.332220
Si Si6 0.847165 0.274847 0.223585
Si Si7 0.352050 0.795190 0.932025
O O1 0.689048 0.878279 0.902016
O O2 0.800055 0.958393 0.856928
O O3 0.722319 0.817342 0.799254
O O4 0.788363 0.743176 0.896211
O O5 0.562349 0.881355 0.897611
O O6 0.490489 0.766694 0.818533
O O7 0.600527 0.872106 0.793753
O O8 0.500000 0.000000 0.820842
O O9 0.130443 0.432115 0.926646
O O10 0.122210 0.603918 0.000000
O O11 0.669553 0.500000 0.750000
O O12 0.580906 0.554088 0.676337
O O13 0.639208 0.339689 0.682590
O O14 0.868602 0.241082 0.288938
O O15 0.907733 0.225091 0.397966
O O16 0.345547 0.765998 0.000000
#
# Coordination Sequence:
#
# PCOD9526873 Si02
#       7
#    16  16  16  16  16  16  16
#     4  10  20  35  58  87 117 151 191 244 295 358
#     4  11  22  39  56  84 114 151 198 247 295 346
#     4  10  21  36  56  83 114 154 199 249 299 345
#     4   9  20  37  56  84 116 153 188 227 286 358
#     4  10  21  37  57  83 115 151 196 238 293 350
#     4  10  22  37  58  86 118 153 189 240 297 352
#     4  10  20  35  56  81 114 152 195 240 288 348
#
# _framework density 20.72194
#
# number of rings (size 3 to 8) (size 9 to 14) (size 15 to 20)
#    0.000    2.000    1.429    1.714    0.000    8.857 
#    0.000    2.143    0.000    7.714    0.000    8.000 
#    0.000    0.000    0.000    0.000    0.000    0.000 
#
# Total GULP energy -312322.329476 kJ/mol
# GULP energy per Si atom -5577.184455 kJ/mol
# Density = 2.067478 g / cm^3
# Si number density = 20.721940 Si / 1000 Ang^3
#
#
#
# Elastic Constant Matrix: (Units=GPa)
#
#
# Indices 1 2 3 4 5 6 
#
# 1 80.2226 27.2297 26.4605 0.0000 0.0000 0.0000
# 2 27.2297 69.1373 18.7488 0.0000 0.0000 0.0000
# 3 26.4605 18.7488 103.5753 0.0000 0.0000 0.0000
# 4 0.0000 0.0000 0.0000 28.6787 0.0000 0.0000
# 5 0.0000 0.0000 0.0000 0.0000 24.1991 0.0000
# 6 0.0000 0.0000 0.0000 0.0000 0.0000 31.6589
#
#
#
# Elastic Compliance Matrix: (Units=1/GPa)
#
#
# Indices 1 2 3 4 5 6 
#
# 1 0.015197 -0.005187 -0.002943 0.000000 0.000000 0.000000
# 2 -0.005187 0.016981 -0.001749 0.000000 0.000000 0.000000
# 3 -0.002943 -0.001749 0.010723 0.000000 0.000000 0.000000
# 4 0.000000 0.000000 0.000000 0.034869 0.000000 0.000000
# 5 0.000000 0.000000 0.000000 0.000000 0.041324 0.000000
# 6 0.000000 0.000000 0.000000 0.000000 0.000000 0.031587
#
#
# Mechanical properties :
#
#
# Convention : Reuss Voigt Hill
#
# Bulk Modulus (GPa) = 43.20985 44.20148 43.70566
# Shear Modulus (GPa) = 28.06571 28.94044 28.50308
#
# Velocity S-wave (km/s) = 3.68420 3.74118 3.71280
# Velocity P-wave (km/s) = 6.24462 6.32763 6.28626
#
# Compressibility (1/GPa) = 0.02314287
#
# Stress axis : x y z
#
# Youngs Moduli (GPa) = 65.80342 58.88896 93.25480
#
# Poissons Ratio (x) = 0.30546 0.27449
# Poissons Ratio (y) = 0.34133 0.16308
# Poissons Ratio (z) = 0.19369 0.10298
#
# Static dielectric constant tensor:
#      x y z
#    x 1.777540 0.000000 0.000000 
#    y 0.000000 1.767140 0.000000 
#    z 0.000000 0.000000 1.738040 
# 
# From -- ./inp_files/43507.got.cif
#   From: 2010.05.17/outbox.cif.g08.bks.cpg/sg72_22_cif.got.tgz:43507.got - 2010.06.03 17:03:01.
