data_PCOD9526227
_publ_section_title
;
Structure prediction by ZEFSAII (Michael W. Deem and Ramdas Pophale) SiO2 
 PCOD9526227
Probable space group: I B A M
;
_chemical_formula_sum "Si O2"
_cell_formula_units_Z 96
_cell_length_a 19.397424
_cell_length_b 30.393310
_cell_length_c 8.113694
_cell_angle_alpha 90.000000
_cell_angle_beta 90.000000
_cell_angle_gamma 90.000000
_cell_volume 4783.443883
_symmetry_space_group_name_H-M "I B A M"
_symmetry_group_IT_number 72
_symmetry_cell_setting 'orthorhombic'
loop_
_space_group_symop_operation_xyz
x,y,z
-x,-y,z
x,-y,1/2-z
-x,y,1/2-z
-x,-y,-z
x,y,-z
-x,y,1/2+z
x,-y,1/2+z
1/2+x,1/2+y,1/2+z
1/2-x,1/2-y,1/2+z
1/2+x,1/2-y,-z
1/2-x,1/2+y,-z
1/2-x,1/2-y,1/2-z
1/2+x,1/2+y,1/2-z
1/2-x,1/2+y,z
1/2+x,1/2-y,z
loop_
_atom_site_type_symbol
_atom_site_label
_atom_site_fract_x
_atom_site_fract_y
_atom_site_fract_z
Si Si1 0.424716 0.328106 0.196823
Si Si2 0.074678 0.068047 0.696342
Si Si3 0.218410 0.046634 0.187779
Si Si4 0.774563 0.798090 0.700034
Si Si5 0.421112 0.049902 0.697344
Si Si6 0.810171 0.380673 0.310195
O O1 0.500000 0.310546 0.250000
O O2 0.422639 0.379883 0.238996
O O3 0.353144 0.307102 0.259290
O O4 0.423450 0.324850 0.000000
O O5 0.084433 0.062911 0.500000
O O6 0.136442 0.046426 0.795103
O O7 0.000000 0.051904 0.750000
O O8 0.246355 0.085558 0.300990
O O9 0.245191 0.000000 0.250000
O O10 0.238971 0.054565 0.000000
O O11 0.775597 0.801649 0.500000
O O12 0.750000 0.750000 0.750000
O O13 0.720481 0.835434 0.761742
O O14 0.500000 0.057196 0.750000
O O15 0.416383 0.050524 0.500000
O O16 0.371939 0.089264 0.762434
O O17 0.402617 0.000000 0.750000
O O18 0.828929 0.371417 0.500000
#
# Coordination Sequence:
#
# PCOD9526227 Si02
#       6
#    16  16  16  16  16  16
#     4   9  18  34  58  82 111 147 186 232 281 335
#     4  10  19  35  55  78 110 147 188 233 278 327
#     4  12  24  36  54  81 112 150 192 233 281 336
#     4  10  21  39  60  86 117 151 189 240 298 348
#     4  10  20  35  59  86 117 154 191 234 288 349
#     4  10  21  40  60  81 114 152 188 238 295 342
#
# _framework density 20.069220999999999
#
# number of rings (size 3 to 8) (size 9 to 14) (size 15 to 20)
#    0.000    1.833    1.667    3.500    0.000    5.000 
#    0.000    2.500    0.000    4.000    0.000    0.000 
#    0.000    0.000    0.000    0.000    0.000    0.000 
#
# Total GULP energy -267846.342966 kJ/mol
# GULP energy per Si atom -5580.132145 kJ/mol
# Density = 2.002354 g / cm^3
# Si number density = 20.069221 Si / 1000 Ang^3
#
#
#
# Elastic Constant Matrix: (Units=GPa)
#
#
# Indices 1 2 3 4 5 6 
#
# 1 155.6535 69.2916 9.4286 0.0000 0.0000 -0.0001
# 2 69.2916 140.5892 9.0994 0.0000 0.0000 -0.0001
# 3 9.4286 9.0994 30.8203 0.0003 0.0005 -0.0013
# 4 0.0000 0.0000 0.0003 19.3278 0.0000 -0.0001
# 5 0.0000 0.0000 0.0005 0.0000 20.9540 -0.0002
# 6 -0.0001 -0.0001 -0.0013 -0.0001 -0.0002 12.0053
#
#
#
# Elastic Compliance Matrix: (Units=1/GPa)
#
#
# Indices 1 2 3 4 5 6 
#
# 1 0.008285 -0.003996 -0.001355 0.000000 0.000000 0.000000
# 2 -0.003996 0.009179 -0.001487 0.000000 0.000000 0.000000
# 3 -0.001355 -0.001487 0.033300 0.000000 -0.000001 0.000004
# 4 0.000000 0.000000 0.000000 0.051739 0.000000 0.000001
# 5 0.000000 0.000000 -0.000001 0.000000 0.047724 0.000001
# 6 0.000000 0.000000 0.000004 0.000001 0.000001 0.083297
#
#
# Mechanical properties :
#
#
# Convention : Reuss Voigt Hill
#
# Bulk Modulus (GPa) = 26.96344 55.85579 41.40962
# Shear Modulus (GPa) = 19.26321 26.40698 22.83509
#
# Velocity S-wave (km/s) = 3.10149 3.63132 3.37681
# Velocity P-wave (km/s) = 5.12738 6.74344 5.99016
#
# Compressibility (1/GPa) = 0.03708725
#
# Stress axis : x y z
#
# Youngs Moduli (GPa) = 120.69357 108.94857 30.03021
#
# Poissons Ratio (x) = 0.43535 0.04069
# Poissons Ratio (y) = 0.48228 0.04467
# Poissons Ratio (z) = 0.16353 0.16206
#
# Static dielectric constant tensor:
#      x y z
#    x 1.752020 0.000000 0.000000 
#    y 0.000000 1.698650 0.000000 
#    z 0.000000 0.000000 1.644750 
# 
# From -- ./inp_files/5985.got.cif
#   From: 2010.05.17/outbox.cif.g08.bks.cpg/sg72_3_cif.got.tgz:5985.got - 2010.06.03 17:03:01.
