data_PCOD9526341
_publ_section_title
;
Structure prediction by ZEFSAII (Michael W. Deem and Ramdas Pophale) SiO2 
 PCOD9526341
Probable space group: I B A M
;
_chemical_formula_sum "Si O2"
_cell_formula_units_Z 112
_cell_length_a 11.239769
_cell_length_b 31.550765
_cell_length_c 17.126601
_cell_angle_alpha 90.000000
_cell_angle_beta 90.000000
_cell_angle_gamma 90.000000
_cell_volume 6073.491942
_symmetry_space_group_name_H-M "I B A M"
_symmetry_group_IT_number 72
_symmetry_cell_setting 'orthorhombic'
loop_
_space_group_symop_operation_xyz
x,y,z
-x,-y,z
x,-y,1/2-z
-x,y,1/2-z
-x,-y,-z
x,y,-z
-x,y,1/2+z
x,-y,1/2+z
1/2+x,1/2+y,1/2+z
1/2-x,1/2-y,1/2+z
1/2+x,1/2-y,-z
1/2-x,1/2+y,-z
1/2-x,1/2-y,1/2-z
1/2+x,1/2+y,1/2-z
1/2-x,1/2+y,z
1/2+x,1/2-y,z
loop_
_atom_site_type_symbol
_atom_site_label
_atom_site_fract_x
_atom_site_fract_y
_atom_site_fract_z
Si Si1 0.961077 0.063304 0.408956
Si Si2 0.167780 0.014657 0.661946
Si Si3 0.282394 0.365070 0.592778
Si Si4 0.910054 0.460676 0.410044
Si Si5 0.532652 0.121550 0.659255
Si Si6 0.743231 0.266010 0.906520
Si Si7 0.991038 0.715622 0.904930
O O1 0.993656 0.062438 0.500000
O O2 0.899182 0.107714 0.390873
O O3 0.074772 0.051516 0.358219
O O4 0.867604 0.025430 0.392100
O O5 0.298837 0.029963 0.644444
O O6 0.153070 0.000000 0.750000
O O7 0.254056 0.370826 0.500000
O O8 0.173347 0.382000 0.643556
O O9 0.292620 0.315027 0.606405
O O10 0.870028 0.458321 0.500000
O O11 0.000000 0.500000 0.403155
O O12 0.970932 0.416979 0.385565
O O13 0.500000 0.119655 0.750000
O O14 0.496228 0.167321 0.624602
O O15 0.882170 0.262603 0.879670
O O16 0.632487 0.237457 0.877648
O O17 0.747654 0.259000 0.000000
O O18 0.992151 0.715656 0.000000
#
# Coordination Sequence:
#
# PCOD9526341 Si02
#       7
#    16  16  16  16  16  16  16
#     4  10  19  36  59  80 109 151 196 234 282 346
#     4  11  23  36  55  81 116 149 185 240 293 341
#     4   9  18  35  59  82 110 150 195 236 284 344
#     4  11  24  40  60  83 111 149 197 241 285 344
#     4  11  23  36  56  84 117 150 189 237 294 352
#     4   8  15  30  56  84 109 143 189 235 282 341
#     4   9  17  35  58  82 113 149 192 238 290 347
#
# _framework density 18.440791999999998
#
# number of rings (size 3 to 8) (size 9 to 14) (size 15 to 20)
#    0.000    2.143    0.000    5.571    4.000    2.286 
#    2.571    2.857    0.000    1.714    0.000    0.000 
#    0.000    0.000    0.000    0.000    0.000    0.000 
#
# Total GULP energy -312412.711026 kJ/mol
# GULP energy per Si atom -5578.798411 kJ/mol
# Density = 1.839882 g / cm^3
# Si number density = 18.440792 Si / 1000 Ang^3
#
#
#
# Elastic Constant Matrix: (Units=GPa)
#
#
# Indices 1 2 3 4 5 6 
#
# 1 91.6502 42.2730 37.6642 -0.0001 0.0000 0.0000
# 2 42.2730 39.5342 16.6397 0.0000 0.0000 0.0000
# 3 37.6642 16.6397 67.4806 0.0001 -0.0001 0.0000
# 4 -0.0001 0.0000 0.0001 -44.5848 0.0000 0.0000
# 5 0.0000 0.0000 -0.0001 0.0000 62.3625 0.0000
# 6 0.0000 0.0000 0.0000 0.0000 0.0000 36.9215
#
#
#
# Elastic Compliance Matrix: (Units=1/GPa)
#
#
# Indices 1 2 3 4 5 6 
#
# 1 0.025051 -0.023322 -0.008231 0.000000 0.000000 0.000000
# 2 -0.023322 0.049936 0.000704 0.000000 0.000000 0.000000
# 3 -0.008231 0.000704 0.019240 0.000000 0.000000 0.000000
# 4 0.000000 0.000000 0.000000 -0.022429 0.000000 0.000000
# 5 0.000000 0.000000 0.000000 0.000000 0.016035 0.000000
# 6 0.000000 0.000000 0.000000 0.000000 0.000000 0.027084
#
#
# Mechanical properties :
#
#
# Convention : Reuss Voigt Hill
#
# Bulk Modulus (GPa) = 30.74316 43.53545 37.13930
# Shear Modulus (GPa) = 26.67266 17.74571 22.20919
#
# Velocity S-wave (km/s) = 3.80728 3.10547 3.47414
# Velocity P-wave (km/s) = 6.00288 6.04302 6.02299
#
# Compressibility (1/GPa) = 0.03252757
#
# Stress axis : x y z
#
# Youngs Moduli (GPa) = 39.91916 20.02576 51.97550
#
# Poissons Ratio (x) = 0.46703 0.42782
# Poissons Ratio (y) = 0.93098 -0.03657
# Poissons Ratio (z) = 0.32858 -0.01409
#
# Static dielectric constant tensor:
#      x y z
#    x 1.646780 0.000000 0.000000 
#    y 0.000000 1.628640 0.000000 
#    z 0.000000 0.000000 1.624860 
# 
# From -- ./inp_files/20697.got.cif
#   From: 2010.05.17/outbox.cif.g08.bks.cpg/sg72_11_cif.got.tgz:20697.got - 2010.06.03 17:03:01.
