data_PCOD9526009
_publ_section_title
;
Structure prediction by ZEFSAII (Michael W. Deem and Ramdas Pophale) SiO2 
 PCOD9526009
Probable space group: I B A M
;
_chemical_formula_sum "Si O2"
_cell_formula_units_Z 112
_cell_length_a 16.533306
_cell_length_b 20.598368
_cell_length_c 18.425703
_cell_angle_alpha 90.000000
_cell_angle_beta 90.000000
_cell_angle_gamma 90.000000
_cell_volume 6275.041222
_symmetry_space_group_name_H-M "I B A M"
_symmetry_group_IT_number 72
_symmetry_cell_setting 'orthorhombic'
loop_
_space_group_symop_operation_xyz
x,y,z
-x,-y,z
x,-y,1/2-z
-x,y,1/2-z
-x,-y,-z
x,y,-z
-x,y,1/2+z
x,-y,1/2+z
1/2+x,1/2+y,1/2+z
1/2-x,1/2-y,1/2+z
1/2+x,1/2-y,-z
1/2-x,1/2+y,-z
1/2-x,1/2-y,1/2-z
1/2+x,1/2+y,1/2-z
1/2-x,1/2+y,z
1/2+x,1/2-y,z
loop_
_atom_site_type_symbol
_atom_site_label
_atom_site_fract_x
_atom_site_fract_y
_atom_site_fract_z
Si Si1 0.187303 0.638552 0.669610
Si Si2 0.762047 0.000211 0.162796
Si Si3 0.049743 0.807010 0.416666
Si Si4 0.664371 0.872524 0.157416
Si Si5 0.764125 0.240332 0.582746
Si Si6 0.924605 0.047664 0.413783
Si Si7 0.506755 0.819426 0.663691
O O1 0.226039 0.570787 0.644833
O O2 0.184298 0.640506 0.757338
O O3 0.237273 0.698010 0.635811
O O4 0.093533 0.648414 0.646225
O O5 0.698671 0.943785 0.142241
O O6 0.846303 0.981138 0.125623
O O7 0.772704 0.000000 0.250000
O O8 0.020858 0.808112 0.500000
O O9 0.143591 0.785385 0.416267
O O10 0.050247 0.880359 0.387255
O O11 0.003101 0.751171 0.373436
O O12 0.709274 0.817990 0.110894
O O13 0.569176 0.864130 0.144008
O O14 0.743946 0.258415 0.500000
O O15 0.906458 0.054125 0.500000
O O16 0.000000 0.000000 0.404973
O O17 0.500000 0.809750 0.750000
#
# Coordination Sequence:
#
# PCOD9526009 Si02
#       7
#    16  16  16  16  16  16  16
#     4   9  20  36  54  80 116 144 181 232 275 324
#     4  10  21  37  56  83 113 147 184 225 278 331
#     4   9  18  35  54  74 106 141 179 228 278 325
#     4  10  19  34  57  81 110 147 188 223 274 335
#     4  10  19  33  55  78 103 144 185 226 276 323
#     4  10  21  38  57  77 107 145 181 224 280 335
#     4   9  19  35  54  81 110 145 184 225 276 321
#
# _framework density 17.848489000000001
#
# number of rings (size 3 to 8) (size 9 to 14) (size 15 to 20)
#    0.000    2.429    1.429    0.429    0.000    3.143 
#    2.571    4.286    0.000    0.000    0.000    6.000 
#    0.000    0.000    0.000    0.000    0.000    0.000 
#
# Total GULP energy -312272.043001 kJ/mol
# GULP energy per Si atom -5576.286482 kJ/mol
# Density = 1.780786 g / cm^3
# Si number density = 17.848489 Si / 1000 Ang^3
#
#
#
# Elastic Constant Matrix: (Units=GPa)
#
#
# Indices 1 2 3 4 5 6 
#
# 1 50.3561 27.0498 18.7496 0.0000 0.0000 0.0000
# 2 27.0498 125.2637 24.1855 0.0000 0.0000 0.0000
# 3 18.7496 24.1855 13.9421 0.0000 0.0000 0.0000
# 4 0.0000 0.0000 0.0000 19.4980 0.0000 0.0000
# 5 0.0000 0.0000 0.0000 0.0000 15.2989 0.0000
# 6 0.0000 0.0000 0.0000 0.0000 0.0000 22.0675
#
#
#
# Elastic Compliance Matrix: (Units=1/GPa)
#
#
# Indices 1 2 3 4 5 6 
#
# 1 0.040353 0.002652 -0.058868 0.000000 0.000000 0.000000
# 2 0.002652 0.012178 -0.024692 0.000000 0.000000 0.000000
# 3 -0.058868 -0.024692 0.193725 0.000000 0.000000 0.000000
# 4 0.000000 0.000000 0.000000 0.051287 0.000000 0.000000
# 5 0.000000 0.000000 0.000000 0.000000 0.065364 0.000000
# 6 0.000000 0.000000 0.000000 0.000000 0.000000 0.045315
#
#
# Mechanical properties :
#
#
# Convention : Reuss Voigt Hill
#
# Bulk Modulus (GPa) = 11.84260 36.61463 24.22862
# Shear Modulus (GPa) = 8.35862 19.34470 13.85166
#
# Velocity S-wave (km/s) = 2.16639 3.29573 2.78882
# Velocity P-wave (km/s) = 3.59265 5.91955 4.89634
#
# Compressibility (1/GPa) = 0.08444091
#
# Stress axis : x y z
#
# Youngs Moduli (GPa) = 24.78146 82.11622 5.16194
#
# Poissons Ratio (x) = -0.21778 0.30387
# Poissons Ratio (y) = -0.06572 0.12746
# Poissons Ratio (z) = 1.45883 2.02760
#
# Static dielectric constant tensor:
#      x y z
#    x 1.598900 0.000000 0.000000 
#    y 0.000000 1.591870 0.000000 
#    z 0.000000 0.000000 1.612230 
# 
# From -- ./inp_files/39192.got.cif
#   From: 2010.05.17/outbox.cif.g08.bks.cpg/sg72_20_cif.got.tgz:39192.got - 2010.06.03 17:03:01.
