data_PCOD9526372
_publ_section_title
;
Structure prediction by ZEFSAII (Michael W. Deem and Ramdas Pophale) SiO2 
 PCOD9526372
Probable space group: I B A M
;
_chemical_formula_sum "Si O2"
_cell_formula_units_Z 72
_cell_length_a 24.190125
_cell_length_b 9.919968
_cell_length_c 15.515584
_cell_angle_alpha 90.000000
_cell_angle_beta 90.000000
_cell_angle_gamma 90.000000
_cell_volume 3723.201240
_symmetry_space_group_name_H-M "I B A M"
_symmetry_group_IT_number 72
_symmetry_cell_setting 'orthorhombic'
loop_
_space_group_symop_operation_xyz
x,y,z
-x,-y,z
x,-y,1/2-z
-x,y,1/2-z
-x,-y,-z
x,y,-z
-x,y,1/2+z
x,-y,1/2+z
1/2+x,1/2+y,1/2+z
1/2-x,1/2-y,1/2+z
1/2+x,1/2-y,-z
1/2-x,1/2+y,-z
1/2-x,1/2-y,1/2-z
1/2+x,1/2+y,1/2-z
1/2-x,1/2+y,z
1/2+x,1/2-y,z
loop_
_atom_site_type_symbol
_atom_site_label
_atom_site_fract_x
_atom_site_fract_y
_atom_site_fract_z
Si Si1 0.635587 0.500000 0.250000
Si Si2 0.317136 0.018957 0.144919
Si Si3 0.532583 0.640404 0.327983
Si Si4 0.493660 0.205445 0.500000
Si Si5 0.593108 0.969315 0.000000
Si Si6 0.275668 0.690017 0.662360
O O1 0.594721 0.601279 0.301079
O O2 0.674424 0.410184 0.311541
O O3 0.370782 0.006482 0.085678
O O4 0.295601 0.170005 0.121130
O O5 0.326034 0.000000 0.250000
O O6 0.271555 0.904904 0.121759
O O7 0.500000 0.500000 0.338055
O O8 0.500000 0.713163 0.250000
O O9 0.524216 0.716242 0.415348
O O10 0.559096 0.171296 0.500000
O O11 0.455204 0.076344 0.500000
O O12 0.250000 0.750000 0.750000
#
# Coordination Sequence:
#
# PCOD9526372 Si02
#       6
#     8  16  16   8   8  16
#     4  10  19  36  66 100 116 165 210 254 324 380
#     4  10  23  41  65  89 130 167 205 266 315 381
#     4   9  22  40  67  94 121 163 215 258 315 379
#     4  11  25  44  58  90 132 160 221 267 305 384
#     4  11  28  40  60  92 123 175 214 255 323 380
#     4  10  19  37  64  94 125 160 208 254 315 383
#
# _framework density 19.338197000000001
#
# number of rings (size 3 to 8) (size 9 to 14) (size 15 to 20)
#    0.000    2.222    3.333    0.333   12.444    0.889 
#    0.000    3.333    0.000    0.000    0.000    0.000 
#    0.000    0.000    0.000    0.000    0.000    0.000 
#
# Total GULP energy -200490.249882 kJ/mol
# GULP energy per Si atom -5569.173608 kJ/mol
# Density = 1.929418 g / cm^3
# Si number density = 19.338197 Si / 1000 Ang^3
#
#
#
# Elastic Constant Matrix: (Units=GPa)
#
#
# Indices 1 2 3 4 5 6 
#
# 1 137.7006 47.1856 51.1204 0.0000 0.0000 0.0000
# 2 47.1856 92.5661 38.2320 0.0000 0.0000 0.0000
# 3 51.1204 38.2320 108.3195 0.0000 0.0000 0.0000
# 4 0.0000 0.0000 0.0000 23.3949 0.0000 0.0000
# 5 0.0000 0.0000 0.0000 0.0000 14.1620 0.0000
# 6 0.0000 0.0000 0.0000 0.0000 0.0000 3.6205
#
#
#
# Elastic Compliance Matrix: (Units=1/GPa)
#
#
# Indices 1 2 3 4 5 6 
#
# 1 0.009724 -0.003584 -0.003324 0.000000 0.000000 0.000000
# 2 -0.003584 0.013968 -0.003239 0.000000 0.000000 0.000000
# 3 -0.003324 -0.003239 0.011944 0.000000 0.000000 0.000000
# 4 0.000000 0.000000 0.000000 0.042744 0.000000 0.000000
# 5 0.000000 0.000000 0.000000 0.000000 0.070611 0.000000
# 6 0.000000 0.000000 0.000000 0.000000 0.000000 0.276205
#
#
# Mechanical properties :
#
#
# Convention : Reuss Voigt Hill
#
# Bulk Modulus (GPa) = 65.17971 67.96248 66.57110
# Shear Modulus (GPa) = 11.09621 21.70537 16.40079
#
# Velocity S-wave (km/s) = 2.39801 3.35387 2.91538
# Velocity P-wave (km/s) = 6.43782 7.08649 6.76993
#
# Compressibility (1/GPa) = 0.01534220
#
# Stress axis : x y z
#
# Youngs Moduli (GPa) = 102.83428 71.59417 83.72473
#
# Poissons Ratio (x) = 0.25659 0.27833
# Poissons Ratio (y) = 0.36855 0.27115
# Poissons Ratio (z) = 0.34186 0.23186
#
# Static dielectric constant tensor:
#      x y z
#    x 1.787670 0.000000 0.000000 
#    y 0.000000 1.675390 0.000000 
#    z 0.000000 0.000000 1.715760 
# 
# From -- ./inp_files/33153.got.cif
#   From: 2010.05.17/outbox.cif.g08.bks.cpg/sg72_17_cif.got.tgz:33153.got - 2010.06.03 17:03:01.
