data_PCOD9526749
_publ_section_title
;
Structure prediction by ZEFSAII (Michael W. Deem and Ramdas Pophale) SiO2 
 PCOD9526749
Probable space group: I B A M
;
_chemical_formula_sum "Si O2"
_cell_formula_units_Z 116
_cell_length_a 21.970882
_cell_length_b 32.908391
_cell_length_c 9.035322
_cell_angle_alpha 90.000000
_cell_angle_beta 90.000000
_cell_angle_gamma 90.000000
_cell_volume 6532.776117
_symmetry_space_group_name_H-M "I B A M"
_symmetry_group_IT_number 72
_symmetry_cell_setting 'orthorhombic'
loop_
_space_group_symop_operation_xyz
x,y,z
-x,-y,z
x,-y,1/2-z
-x,y,1/2-z
-x,-y,-z
x,y,-z
-x,y,1/2+z
x,-y,1/2+z
1/2+x,1/2+y,1/2+z
1/2-x,1/2-y,1/2+z
1/2+x,1/2-y,-z
1/2-x,1/2+y,-z
1/2-x,1/2-y,1/2-z
1/2+x,1/2+y,1/2-z
1/2-x,1/2+y,z
1/2+x,1/2-y,z
loop_
_atom_site_type_symbol
_atom_site_label
_atom_site_fract_x
_atom_site_fract_y
_atom_site_fract_z
Si Si1 0.879643 0.960568 0.667258
Si Si2 0.500000 0.500000 0.250000
Si Si3 0.434402 0.074306 0.675238
Si Si4 0.435801 0.828630 0.174129
Si Si5 0.167341 0.724208 0.823718
Si Si6 0.198649 0.896967 0.323256
Si Si7 0.789459 0.190115 0.823943
Si Si8 0.189379 0.457063 0.678257
O O1 0.857765 0.957471 0.500000
O O2 0.858184 0.922194 0.759468
O O3 0.852983 0.000000 0.750000
O O4 0.951952 0.970762 0.667266
O O5 0.500000 0.064785 0.750000
O O6 0.435838 0.064105 0.500000
O O7 0.424375 0.123000 0.688735
O O8 0.377029 0.053967 0.756136
O O9 0.500000 0.820776 0.250000
O O10 0.387374 0.801582 0.259151
O O11 0.436246 0.819151 0.000000
O O12 0.163733 0.772719 0.796645
O O13 0.226594 0.707080 0.741588
O O14 0.173690 0.718312 0.000000
O O15 0.195745 0.894589 0.500000
O O16 0.197976 0.852463 0.253331
O O17 0.260226 0.922437 0.284927
O O18 0.784395 0.184291 0.000000
O O19 0.207389 0.500000 0.750000
O O20 0.186380 0.460211 0.500000
#
# Coordination Sequence:
#
# PCOD9526749 Si02
#       8
#    16   4  16  16  16  16  16  16
#     4  10  20  35  58  84 113 145 184 229 274 328
#     4   8  22  36  62  88 114 148 188 228 274 324
#     4  10  21  37  57  81 109 144 186 230 274 325
#     4  10  20  34  56  83 111 145 183 227 276 326
#     4  10  20  35  56  82 112 145 184 228 274 330
#     4  11  23  37  57  84 115 148 185 231 283 334
#     4  10  21  36  56  82 112 147 184 226 277 331
#     4  11  24  39  55  79 110 145 184 228 277 328
#
# _framework density 17.756616999999999
#
# number of rings (size 3 to 8) (size 9 to 14) (size 15 to 20)
#    0.414    1.379    0.000    4.345    0.000    9.103 
#    0.000    1.379    1.517    0.000    0.000    0.000 
#    0.000    0.000    0.000    0.000    0.000    0.000 
#
# Total GULP energy -323542.003495 kJ/mol
# GULP energy per Si atom -5578.310405 kJ/mol
# Density = 1.771620 g / cm^3
# Si number density = 17.756617 Si / 1000 Ang^3
#
#
#
# Elastic Constant Matrix: (Units=GPa)
#
#
# Indices 1 2 3 4 5 6 
#
# 1 67.4937 20.2608 21.7959 0.0000 0.0000 0.0000
# 2 20.2608 75.9072 35.1169 0.0000 0.0000 0.0000
# 3 21.7959 35.1169 89.7987 0.0000 0.0000 0.0000
# 4 0.0000 0.0000 0.0000 33.0934 0.0000 0.0000
# 5 0.0000 0.0000 0.0000 0.0000 25.4037 0.0000
# 6 0.0000 0.0000 0.0000 0.0000 0.0000 63.7350
#
#
#
# Elastic Compliance Matrix: (Units=1/GPa)
#
#
# Indices 1 2 3 4 5 6 
#
# 1 0.016670 -0.003147 -0.002816 0.000000 0.000000 0.000000
# 2 -0.003147 0.016678 -0.005758 0.000000 0.000000 0.000000
# 3 -0.002816 -0.005758 0.014071 0.000000 0.000000 0.000000
# 4 0.000000 0.000000 0.000000 0.030218 0.000000 0.000000
# 5 0.000000 0.000000 0.000000 0.000000 0.039364 0.000000
# 6 0.000000 0.000000 0.000000 0.000000 0.000000 0.015690
#
#
# Mechanical properties :
#
#
# Convention : Reuss Voigt Hill
#
# Bulk Modulus (GPa) = 41.70533 43.06077 42.38305
# Shear Modulus (GPa) = 30.46458 34.84817 32.65637
#
# Velocity S-wave (km/s) = 4.14656 4.43487 4.29314
# Velocity P-wave (km/s) = 6.81642 7.10825 6.96386
#
# Compressibility (1/GPa) = 0.02397775
#
# Stress axis : x y z
#
# Youngs Moduli (GPa) = 59.98770 59.95960 71.06695
#
# Poissons Ratio (x) = 0.18869 0.20009
# Poissons Ratio (y) = 0.18878 0.40922
# Poissons Ratio (z) = 0.16890 0.34526
#
# Static dielectric constant tensor:
#      x y z
#    x 1.591500 0.000000 0.000000 
#    y 0.000000 1.594810 0.000000 
#    z 0.000000 0.000000 1.590600 
# 
# From -- ./inp_files/7266.got.cif
#   From: 2010.05.17/outbox.cif.g08.bks.cpg/sg72_4_cif.got.tgz:7266.got - 2010.06.03 17:03:01.
