data_PCOD9526997
_publ_section_title
;
Structure prediction by ZEFSAII (Michael W. Deem and Ramdas Pophale) SiO2 
 PCOD9526997
Probable space group: I B A M
;
_chemical_formula_sum "Si O2"
_cell_formula_units_Z 80
_cell_length_a 14.961775
_cell_length_b 23.062689
_cell_length_c 11.045516
_cell_angle_alpha 90.000000
_cell_angle_beta 90.000000
_cell_angle_gamma 90.000000
_cell_volume 3811.352096
_symmetry_space_group_name_H-M "I B A M"
_symmetry_group_IT_number 72
_symmetry_cell_setting 'orthorhombic'
loop_
_space_group_symop_operation_xyz
x,y,z
-x,-y,z
x,-y,1/2-z
-x,y,1/2-z
-x,-y,-z
x,y,-z
-x,y,1/2+z
x,-y,1/2+z
1/2+x,1/2+y,1/2+z
1/2-x,1/2-y,1/2+z
1/2+x,1/2-y,-z
1/2-x,1/2+y,-z
1/2-x,1/2-y,1/2-z
1/2+x,1/2+y,1/2-z
1/2-x,1/2+y,z
1/2+x,1/2-y,z
loop_
_atom_site_type_symbol
_atom_site_label
_atom_site_fract_x
_atom_site_fract_y
_atom_site_fract_z
Si Si1 0.264178 0.848486 0.134438
Si Si2 0.441139 0.321326 0.864781
Si Si3 0.443121 0.068915 0.869251
Si Si4 0.226774 0.482157 0.869471
Si Si5 0.641233 0.804400 0.134194
O O1 0.156855 0.850226 0.140194
O O2 0.298823 0.914583 0.142364
O O3 0.298204 0.811005 0.246809
O O4 0.289241 0.826133 0.000000
O O5 0.500000 0.338467 0.750000
O O6 0.419727 0.252376 0.856179
O O7 0.479138 0.332305 0.000000
O O8 0.500000 0.059287 0.750000
O O9 0.412733 0.135626 0.866578
O O10 0.357782 0.025945 0.869720
O O11 0.490367 0.061351 0.000000
O O12 0.280441 0.500000 0.750000
O O13 0.271847 0.488669 0.000000
O O14 0.686216 0.800674 0.000000
#
# Coordination Sequence:
#
# PCOD9526997 Si02
#       5
#    16  16  16  16  16
#     4  10  21  37  58  83 112 147 189 233 278 329
#     4  10  22  39  59  85 114 146 186 234 283 332
#     4  10  21  35  52  79 114 150 185 220 267 328
#     4  10  20  36  55  77 108 148 190 230 273 325
#     4  10  20  36  57  84 116 150 187 224 269 333
#
# _framework density 20.989927999999999
#
# number of rings (size 3 to 8) (size 9 to 14) (size 15 to 20)
#    0.000    2.000    2.000    1.200    0.000    3.600 
#    0.000    2.000    0.000    0.600    0.000    4.200 
#    0.000    0.000    0.000    0.000    0.000    0.000 
#
# Total GULP energy -223159.473355 kJ/mol
# GULP energy per Si atom -5578.986834 kJ/mol
# Density = 2.094215 g / cm^3
# Si number density = 20.989928 Si / 1000 Ang^3
#
#
#
# Elastic Constant Matrix: (Units=GPa)
#
#
# Indices 1 2 3 4 5 6 
#
# 1 31.0771 9.7661 40.1158 0.0000 0.0000 0.0000
# 2 9.7661 80.2621 -4.3035 0.0000 0.0000 0.0000
# 3 40.1158 -4.3035 256.0533 0.0001 0.0001 0.0000
# 4 0.0000 0.0000 0.0001 -42.0946 0.0000 0.0000
# 5 0.0000 0.0000 0.0001 0.0000 31.8448 0.0000
# 6 0.0000 0.0000 0.0000 0.0000 0.0000 16.4097
#
#
#
# Elastic Compliance Matrix: (Units=1/GPa)
#
#
# Indices 1 2 3 4 5 6 
#
# 1 0.042675 -0.005556 -0.006779 0.000000 0.000000 0.000000
# 2 -0.005556 0.013194 0.001092 0.000000 0.000000 0.000000
# 3 -0.006779 0.001092 0.004986 0.000000 0.000000 0.000000
# 4 0.000000 0.000000 0.000000 -0.023756 0.000000 0.000000
# 5 0.000000 0.000000 0.000000 0.000000 0.031402 0.000000
# 6 0.000000 0.000000 0.000000 0.000000 0.000000 0.060939
#
#
# Mechanical properties :
#
#
# Convention : Reuss Voigt Hill
#
# Bulk Modulus (GPa) = 26.06305 50.94993 38.50649
# Shear Modulus (GPa) = 30.35519 22.68625 26.52072
#
# Velocity S-wave (km/s) = 3.80699 3.29114 3.55843
# Velocity P-wave (km/s) = 5.63632 6.22643 5.93871
#
# Compressibility (1/GPa) = 0.03836850
#
# Stress axis : x y z
#
# Youngs Moduli (GPa) = 23.43284 75.79315 200.56536
#
# Poissons Ratio (x) = 0.42112 1.35969
# Poissons Ratio (y) = 0.13020 -0.21906
# Poissons Ratio (z) = 0.15886 -0.08278
#
# Static dielectric constant tensor:
#      x y z
#    x 1.750420 0.000000 0.000000 
#    y 0.000000 1.758550 0.000000 
#    z 0.000000 0.000000 1.863560 
# 
# From -- ./inp_files/12779.got.cif
#   From: 2010.05.17/outbox.cif.g08.bks.cpg/sg72_7_cif.got.tgz:12779.got - 2010.06.03 17:03:01.
