data_PCOD9526797
_publ_section_title
;
Structure prediction by ZEFSAII (Michael W. Deem and Ramdas Pophale) SiO2 
 PCOD9526797
Probable space group: I B A M
;
_chemical_formula_sum "Si O2"
_cell_formula_units_Z 104
_cell_length_a 25.824481
_cell_length_b 10.267551
_cell_length_c 21.321086
_cell_angle_alpha 90.000000
_cell_angle_beta 90.000000
_cell_angle_gamma 90.000000
_cell_volume 5653.374984
_symmetry_space_group_name_H-M "I B A M"
_symmetry_group_IT_number 72
_symmetry_cell_setting 'orthorhombic'
loop_
_space_group_symop_operation_xyz
x,y,z
-x,-y,z
x,-y,1/2-z
-x,y,1/2-z
-x,-y,-z
x,y,-z
-x,y,1/2+z
x,-y,1/2+z
1/2+x,1/2+y,1/2+z
1/2-x,1/2-y,1/2+z
1/2+x,1/2-y,-z
1/2-x,1/2+y,-z
1/2-x,1/2-y,1/2-z
1/2+x,1/2+y,1/2-z
1/2-x,1/2+y,z
1/2+x,1/2-y,z
loop_
_atom_site_type_symbol
_atom_site_label
_atom_site_fract_x
_atom_site_fract_y
_atom_site_fract_z
Si Si1 0.699676 0.500852 0.177993
Si Si2 0.355147 0.377556 0.500000
Si Si3 0.633717 0.730433 0.632058
Si Si4 0.231869 0.617618 0.000000
Si Si5 0.690407 0.001609 0.371110
Si Si6 0.137728 0.811323 0.000000
Si Si7 0.370230 0.263507 0.862894
Si Si8 0.060251 0.842667 0.747563
O O1 0.683371 0.500000 0.250000
O O2 0.682139 0.362830 0.150337
O O3 0.760399 0.523092 0.172565
O O4 0.669732 0.615887 0.142753
O O5 0.380358 0.318362 0.562537
O O6 0.292831 0.349933 0.500000
O O7 0.360038 0.533272 0.500000
O O8 0.653293 0.877700 0.628581
O O9 0.590464 0.705747 0.685265
O O10 0.215373 0.535354 0.938903
O O11 0.195229 0.745958 0.000000
O O12 0.659672 0.129797 0.350532
O O13 0.111694 0.764193 0.935253
O O14 0.412253 0.287759 0.809662
O O15 0.000000 0.806122 0.750000
O O16 0.063355 0.000000 0.750000
#
# Coordination Sequence:
#
# PCOD9526797 Si02
#       8
#    16   8  16   8  16   8  16  16
#     4  12  22  36  55  85 124 164 201 238 292 353
#     4  12  21  32  62  84 125 157 210 242 280 356
#     4  12  23  39  58  91 121 162 206 251 297 360
#     4  10  21  36  49  87 125 176 188 229 299 358
#     4  11  25  34  57  87 133 162 198 240 296 367
#     4  10  20  34  59  81 117 156 202 235 279 353
#     4  11  21  41  58  88 119 160 203 242 302 364
#     4  11  23  45  69  87 114 155 206 269 326 356
#
# _framework density 18.396090000000001
#
# number of rings (size 3 to 8) (size 9 to 14) (size 15 to 20)
#    0.000    0.769    6.154    1.385    6.462    1.231 
#    0.000    2.308    0.000    2.769    0.000    4.308 
#    0.000    0.000    0.000    0.000    0.000    0.000 
#
# Total GULP energy -290560.787488 kJ/mol
# GULP energy per Si atom -5587.707452 kJ/mol
# Density = 1.835422 g / cm^3
# Si number density = 18.396090 Si / 1000 Ang^3
#
#
#
# Elastic Constant Matrix: (Units=GPa)
#
#
# Indices 1 2 3 4 5 6 
#
# 1 99.8785 30.5133 53.8812 0.0000 0.0000 0.0000
# 2 30.5133 84.1406 14.1999 0.0000 0.0000 0.0000
# 3 53.8812 14.1999 137.3880 0.0000 0.0000 0.0000
# 4 0.0000 0.0000 0.0000 16.8557 0.0000 0.0000
# 5 0.0000 0.0000 0.0000 0.0000 6.9133 0.0000
# 6 0.0000 0.0000 0.0000 0.0000 0.0000 11.2336
#
#
#
# Elastic Compliance Matrix: (Units=1/GPa)
#
#
# Indices 1 2 3 4 5 6 
#
# 1 0.014041 -0.004236 -0.005069 0.000000 0.000000 0.000000
# 2 -0.004236 0.013374 0.000279 0.000000 0.000000 0.000000
# 3 -0.005069 0.000279 0.009238 0.000000 0.000000 0.000000
# 4 0.000000 0.000000 0.000000 0.059327 0.000000 0.000000
# 5 0.000000 0.000000 0.000000 0.000000 0.144648 0.000000
# 6 0.000000 0.000000 0.000000 0.000000 0.000000 0.089018
#
#
# Mechanical properties :
#
#
# Convention : Reuss Voigt Hill
#
# Bulk Modulus (GPa) = 53.76171 57.62178 55.69174
# Shear Modulus (GPa) = 14.12836 21.85471 17.99153
#
# Velocity S-wave (km/s) = 2.77430 3.45049 3.13071
# Velocity P-wave (km/s) = 6.28890 6.87498 6.58846
#
# Compressibility (1/GPa) = 0.01860060
#
# Stress axis : x y z
#
# Youngs Moduli (GPa) = 71.22094 74.77148 108.25248
#
# Poissons Ratio (x) = 0.31677 0.54870
# Poissons Ratio (y) = 0.30172 -0.03022
# Poissons Ratio (z) = 0.36100 -0.02087
#
# Static dielectric constant tensor:
#      x y z
#    x 1.598170 0.000000 0.000000 
#    y 0.000000 1.613800 0.000000 
#    z 0.000000 0.000000 1.686870 
# 
# From -- ./inp_files/36181.got.cif
#   From: 2010.05.17/outbox.cif.g08.bks.cpg/sg72_19_cif.got.tgz:36181.got - 2010.06.03 17:03:01.
