data_PCOD9526801
_publ_section_title
;
Structure prediction by ZEFSAII (Michael W. Deem and Ramdas Pophale) SiO2 
 PCOD9526801
Probable space group: I B A M
;
_chemical_formula_sum "Si O2"
_cell_formula_units_Z 112
_cell_length_a 15.269825
_cell_length_b 22.265183
_cell_length_c 15.699409
_cell_angle_alpha 90.000000
_cell_angle_beta 90.000000
_cell_angle_gamma 90.000000
_cell_volume 5337.570602
_symmetry_space_group_name_H-M "I B A M"
_symmetry_group_IT_number 72
_symmetry_cell_setting 'orthorhombic'
loop_
_space_group_symop_operation_xyz
x,y,z
-x,-y,z
x,-y,1/2-z
-x,y,1/2-z
-x,-y,-z
x,y,-z
-x,y,1/2+z
x,-y,1/2+z
1/2+x,1/2+y,1/2+z
1/2-x,1/2-y,1/2+z
1/2+x,1/2-y,-z
1/2-x,1/2+y,-z
1/2-x,1/2-y,1/2-z
1/2+x,1/2+y,1/2-z
1/2-x,1/2+y,z
1/2+x,1/2-y,z
loop_
_atom_site_type_symbol
_atom_site_label
_atom_site_fract_x
_atom_site_fract_y
_atom_site_fract_z
Si Si1 0.691426 0.221194 0.102704
Si Si2 0.911309 0.611478 0.640753
Si Si3 0.115549 0.248608 0.602506
Si Si4 0.723996 0.011542 0.598271
Si Si5 0.894520 0.403594 0.657724
Si Si6 0.554565 0.678558 0.395551
Si Si7 0.581459 0.458501 0.895640
O O1 0.789890 0.228793 0.135671
O O2 0.649155 0.157777 0.125771
O O3 0.631089 0.276323 0.132360
O O4 0.694098 0.224618 0.000000
O O5 0.902477 0.681740 0.621092
O O6 0.832296 0.572820 0.602260
O O7 0.905665 0.602743 0.741638
O O8 0.009069 0.589883 0.615864
O O9 0.116922 0.242495 0.500000
O O10 0.036844 0.207008 0.634020
O O11 0.732778 0.993282 0.500000
O O12 0.822341 0.019790 0.632680
O O13 0.666979 0.960258 0.641944
O O14 0.554607 0.678559 0.500000
O O15 0.567654 0.610248 0.368435
O O16 0.500000 0.500000 0.869042
O O17 0.582653 0.458887 0.000000
#
# Coordination Sequence:
#
# PCOD9526801 Si02
#       7
#    16  16  16  16  16  16  16
#     4  10  20  35  58  89 120 150 199 251 297 354
#     4  11  23  41  59  85 122 161 200 245 304 367
#     4  10  20  34  60  89 118 155 200 249 301 358
#     4  11  23  38  62  90 119 157 203 250 302 357
#     4  11  24  39  59  86 121 160 201 249 303 363
#     4   9  17  32  54  84 120 153 184 239 299 346
#     4   9  19  35  58  89 122 151 191 246 303 355
#
# _framework density 20.983328
#
# number of rings (size 3 to 8) (size 9 to 14) (size 15 to 20)
#    0.000    1.857    1.429    2.571    2.000    6.286 
#    0.000    0.000    0.000    1.714    0.000    0.000 
#    0.000    0.000    0.000    0.000    0.000    0.000 
#
# Total GULP energy -313013.250414 kJ/mol
# GULP energy per Si atom -5589.522329 kJ/mol
# Density = 2.093557 g / cm^3
# Si number density = 20.983328 Si / 1000 Ang^3
#
#
#
# Elastic Constant Matrix: (Units=GPa)
#
#
# Indices 1 2 3 4 5 6 
#
# 1 208.2363 73.0511 11.9714 0.0000 0.0000 0.0000
# 2 73.0511 98.6251 -10.9748 0.0001 0.0000 0.0000
# 3 11.9714 -10.9748 11.3334 0.0001 0.0001 -0.0001
# 4 0.0000 0.0001 0.0001 -17.8650 -0.0001 0.0000
# 5 0.0000 0.0000 0.0001 -0.0001 26.9131 0.0000
# 6 0.0000 0.0000 -0.0001 0.0000 0.0000 34.8560
#
#
#
# Elastic Compliance Matrix: (Units=1/GPa)
#
#
# Indices 1 2 3 4 5 6 
#
# 1 0.008759 -0.008425 -0.017410 0.000000 0.000000 0.000000
# 2 -0.008425 0.019468 0.027751 0.000000 0.000000 0.000000
# 3 -0.017410 0.027751 0.133498 0.000001 0.000000 0.000000
# 4 0.000000 0.000000 0.000001 -0.055975 0.000000 0.000000
# 5 0.000000 0.000000 0.000000 0.000000 0.037157 0.000000
# 6 0.000000 0.000000 0.000000 0.000000 0.000000 0.028689
#
#
# Mechanical properties :
#
#
# Convention : Reuss Voigt Hill
#
# Bulk Modulus (GPa) = 6.04024 51.81001 28.92513
# Shear Modulus (GPa) = 22.42672 25.05728 23.74200
#
# Velocity S-wave (km/s) = 3.27278 3.45940 3.36738
# Velocity P-wave (km/s) = 4.14322 6.37975 5.37901
#
# Compressibility (1/GPa) = 0.16555635
#
# Stress axis : x y z
#
# Youngs Moduli (GPa) = 114.17319 51.36720 7.49075
#
# Poissons Ratio (x) = 0.43276 0.13041
# Poissons Ratio (y) = 0.96189 -0.20787
# Poissons Ratio (z) = 1.98775 -1.42548
#
# Static dielectric constant tensor:
#      x y z
#    x 1.781930 0.000000 0.000000 
#    y 0.000000 1.694710 0.000000 
#    z 0.000000 0.000000 1.781200 
# 
# From -- ./inp_files/22102.got.cif
#   From: 2010.05.17/outbox.cif.g08.bks.cpg/sg72_12_cif.got.tgz:22102.got - 2010.06.03 17:03:01.
