data_PCOD9526433
_publ_section_title
;
Structure prediction by ZEFSAII (Michael W. Deem and Ramdas Pophale) SiO2 
 PCOD9526433
Probable space group: I B A M
;
_chemical_formula_sum "Si O2"
_cell_formula_units_Z 112
_cell_length_a 11.633422
_cell_length_b 22.481203
_cell_length_c 21.080618
_cell_angle_alpha 90.000000
_cell_angle_beta 90.000000
_cell_angle_gamma 90.000000
_cell_volume 5513.284046
_symmetry_space_group_name_H-M "I B A M"
_symmetry_group_IT_number 72
_symmetry_cell_setting 'orthorhombic'
loop_
_space_group_symop_operation_xyz
x,y,z
-x,-y,z
x,-y,1/2-z
-x,y,1/2-z
-x,-y,-z
x,y,-z
-x,y,1/2+z
x,-y,1/2+z
1/2+x,1/2+y,1/2+z
1/2-x,1/2-y,1/2+z
1/2+x,1/2-y,-z
1/2-x,1/2+y,-z
1/2-x,1/2-y,1/2-z
1/2+x,1/2+y,1/2-z
1/2-x,1/2+y,z
1/2+x,1/2-y,z
loop_
_atom_site_type_symbol
_atom_site_label
_atom_site_fract_x
_atom_site_fract_y
_atom_site_fract_z
Si Si1 0.684042 0.730341 0.926719
Si Si2 0.292782 0.077507 0.798827
Si Si3 0.545211 0.393720 0.820472
Si Si4 0.430569 0.740564 0.137584
Si Si5 0.331142 0.048069 0.656421
Si Si6 0.004780 0.362548 0.320772
Si Si7 0.859588 0.090121 0.927024
O O1 0.553305 0.744936 0.901531
O O2 0.804531 0.753323 0.895554
O O3 0.686484 0.658290 0.922694
O O4 0.687303 0.748746 0.000000
O O5 0.166468 0.074519 0.826116
O O6 0.280682 0.077463 0.722026
O O7 0.358946 0.133832 0.829220
O O8 0.358716 0.018379 0.821622
O O9 0.500000 0.406317 0.750000
O O10 0.563478 0.322498 0.827437
O O11 0.463067 0.413272 0.877224
O O12 0.444592 0.799303 0.180274
O O13 0.434228 0.091745 0.636848
O O14 0.240014 0.048834 0.600409
O O15 0.000000 0.389553 0.250000
O O16 0.890658 0.078630 0.000000
#
# Coordination Sequence:
#
# PCOD9526433 Si02
#       7
#    16  16  16  16  16  16  16
#     4  10  21  37  57  84 120 166 210 246 296 372
#     4  10  21  36  61  87 119 153 203 254 304 358
#     4  11  22  38  57  90 126 161 203 253 305 366
#     4  11  21  35  60  87 122 160 201 256 309 360
#     4  10  19  38  60  87 115 157 202 253 300 364
#     4  10  20  35  57  89 118 153 195 251 315 366
#     4  10  21  39  61  85 120 162 202 247 305 369
#
# _framework density 20.314571000000001
#
# number of rings (size 3 to 8) (size 9 to 14) (size 15 to 20)
#    0.000    1.714    2.857    2.143    0.000    2.857 
#    0.000    5.714    0.000    4.286    0.000    0.000 
#    0.000    0.000    0.000    0.000    0.000    0.000 
#
# Total GULP energy -311736.923741 kJ/mol
# GULP energy per Si atom -5566.730781 kJ/mol
# Density = 2.026833 g / cm^3
# Si number density = 20.314571 Si / 1000 Ang^3
#
#
#
# Elastic Constant Matrix: (Units=GPa)
#
#
# Indices 1 2 3 4 5 6 
#
# 1 107.4748 -3.5094 41.9067 0.0000 0.0000 0.0000
# 2 -3.5094 25.3090 2.9582 0.0000 0.0000 0.0000
# 3 41.9067 2.9582 88.6936 0.0000 0.0000 0.0000
# 4 0.0000 0.0000 0.0000 15.8989 0.0000 0.0000
# 5 0.0000 0.0000 0.0000 0.0000 24.8522 0.0000
# 6 0.0000 0.0000 0.0000 0.0000 0.0000 28.0870
#
#
#
# Elastic Compliance Matrix: (Units=1/GPa)
#
#
# Indices 1 2 3 4 5 6 
#
# 1 0.011531 0.002245 -0.005523 0.000000 0.000000 0.000000
# 2 0.002245 0.040103 -0.002398 0.000000 0.000000 0.000000
# 3 -0.005523 -0.002398 0.013964 0.000000 0.000000 0.000000
# 4 0.000000 0.000000 0.000000 0.062898 0.000000 0.000000
# 5 0.000000 0.000000 0.000000 0.000000 0.040238 0.000000
# 6 0.000000 0.000000 0.000000 0.000000 0.000000 0.035604
#
#
# Mechanical properties :
#
#
# Convention : Reuss Voigt Hill
#
# Bulk Modulus (GPa) = 18.43478 33.79872 26.11675
# Shear Modulus (GPa) = 21.38820 25.77574 23.58197
#
# Velocity S-wave (km/s) = 3.24829 3.56593 3.41081
# Velocity P-wave (km/s) = 4.81278 5.79899 5.32875
#
# Compressibility (1/GPa) = 0.05424530
#
# Stress axis : x y z
#
# Youngs Moduli (GPa) = 86.71913 24.93571 71.61024
#
# Poissons Ratio (x) = -0.05597 0.39553
# Poissons Ratio (y) = -0.19465 0.17173
# Poissons Ratio (z) = 0.47898 0.05980
#
# Static dielectric constant tensor:
#      x y z
#    x 1.870690 0.000000 0.000000 
#    y 0.000000 1.728410 0.000000 
#    z 0.000000 0.000000 1.699930 
# 
# From -- ./inp_files/37326.got.cif
#   From: 2010.05.17/outbox.cif.g08.bks.cpg/sg72_19_cif.got.tgz:37326.got - 2010.06.03 17:03:01.
