data_PCOD9526032
_publ_section_title
;
Structure prediction by ZEFSAII (Michael W. Deem and Ramdas Pophale) SiO2 
 PCOD9526032
Probable space group: I B A M
;
_chemical_formula_sum "Si O2"
_cell_formula_units_Z 96
_cell_length_a 23.791917
_cell_length_b 10.537018
_cell_length_c 22.338486
_cell_angle_alpha 90.000000
_cell_angle_beta 90.000000
_cell_angle_gamma 90.000000
_cell_volume 5600.165907
_symmetry_space_group_name_H-M "I B A M"
_symmetry_group_IT_number 72
_symmetry_cell_setting 'orthorhombic'
loop_
_space_group_symop_operation_xyz
x,y,z
-x,-y,z
x,-y,1/2-z
-x,y,1/2-z
-x,-y,-z
x,y,-z
-x,y,1/2+z
x,-y,1/2+z
1/2+x,1/2+y,1/2+z
1/2-x,1/2-y,1/2+z
1/2+x,1/2-y,-z
1/2-x,1/2+y,-z
1/2-x,1/2-y,1/2-z
1/2+x,1/2+y,1/2-z
1/2-x,1/2+y,z
1/2+x,1/2-y,z
loop_
_atom_site_type_symbol
_atom_site_label
_atom_site_fract_x
_atom_site_fract_y
_atom_site_fract_z
Si Si1 0.670768 0.493326 0.316335
Si Si2 0.226567 0.592667 0.893185
Si Si3 0.386931 0.747891 0.173047
Si Si4 0.197805 0.680542 0.566277
Si Si5 0.505633 0.143676 0.322220
Si Si6 0.368194 0.791462 0.311408
O O1 0.696012 0.500000 0.250000
O O2 0.718547 0.539124 0.360193
O O3 0.621537 0.597281 0.318930
O O4 0.649860 0.352102 0.325227
O O5 0.209688 0.470500 0.932356
O O6 0.248393 0.725439 0.922342
O O7 0.176931 0.622043 0.845726
O O8 0.345172 0.793489 0.120875
O O9 0.451021 0.779773 0.157229
O O10 0.370338 0.806810 0.238552
O O11 0.175778 0.713963 0.500000
O O12 0.500000 0.143801 0.250000
O O13 0.568526 0.188978 0.334796
O O14 0.500000 0.000000 0.343833
#
# Coordination Sequence:
#
# PCOD9526032 Si02
#       6
#    16  16  16  16  16  16
#     4   9  19  31  49  83 111 138 174 218 279 330
#     4  11  21  35  56  79 109 142 180 228 279 321
#     4   9  20  34  54  81 110 145 180 219 276 327
#     4  11  23  37  54  76 108 149 188 222 264 324
#     4   9  17  31  50  79 109 141 175 214 273 330
#     4  10  19  33  56  84 114 137 174 231 279 330
#
# _framework density 17.142348999999999
#
# number of rings (size 3 to 8) (size 9 to 14) (size 15 to 20)
#    0.000    2.167    1.667    1.500    2.333    4.000 
#    0.000    3.333    0.000    5.500    0.000    2.333 
#    0.000    0.000    0.000    0.000    0.000    0.000 
#
# Total GULP energy -267246.287708 kJ/mol
# GULP energy per Si atom -5567.630994 kJ/mol
# Density = 1.710333 g / cm^3
# Si number density = 17.142349 Si / 1000 Ang^3
#
#
#
# Elastic Constant Matrix: (Units=GPa)
#
#
# Indices 1 2 3 4 5 6 
#
# 1 92.7150 25.8670 36.8240 0.0000 0.0000 0.0000
# 2 25.8670 76.8509 32.4381 0.0000 0.0000 0.0000
# 3 36.8240 32.4381 74.3926 0.0000 0.0000 0.0000
# 4 0.0000 0.0000 0.0000 11.0010 0.0000 0.0000
# 5 0.0000 0.0000 0.0000 0.0000 4.2784 0.0000
# 6 0.0000 0.0000 0.0000 0.0000 0.0000 11.2087
#
#
#
# Elastic Compliance Matrix: (Units=1/GPa)
#
#
# Indices 1 2 3 4 5 6 
#
# 1 0.013708 -0.002145 -0.005850 0.000000 0.000000 0.000000
# 2 -0.002145 0.016283 -0.006038 0.000000 0.000000 0.000000
# 3 -0.005850 -0.006038 0.018971 0.000000 0.000000 0.000000
# 4 0.000000 0.000000 0.000000 0.090901 0.000000 0.000000
# 5 0.000000 0.000000 0.000000 0.000000 0.233730 0.000000
# 6 0.000000 0.000000 0.000000 0.000000 0.000000 0.089216
#
#
# Mechanical properties :
#
#
# Convention : Reuss Voigt Hill
#
# Bulk Modulus (GPa) = 47.85773 48.24630 48.05201
# Shear Modulus (GPa) = 10.04340 15.21959 12.63150
#
# Velocity S-wave (km/s) = 2.42313 2.98289 2.71746
# Velocity P-wave (km/s) = 5.98391 6.33002 6.15939
#
# Compressibility (1/GPa) = 0.02089527
#
# Stress axis : x y z
#
# Youngs Moduli (GPa) = 72.95247 61.41458 52.71221
#
# Poissons Ratio (x) = 0.13171 0.30837
# Poissons Ratio (y) = 0.15645 0.31830
# Poissons Ratio (z) = 0.42678 0.37085
#
# Static dielectric constant tensor:
#      x y z
#    x 1.572430 0.000000 0.000000 
#    y 0.000000 1.607780 0.000000 
#    z 0.000000 0.000000 1.584070 
# 
# From -- ./inp_files/43460.got.cif
#   From: 2010.05.17/outbox.cif.g08.bks.cpg/sg72_22_cif.got.tgz:43460.got - 2010.06.03 17:03:01.
