data_PCOD9526527
_publ_section_title
;
Structure prediction by ZEFSAII (Michael W. Deem and Ramdas Pophale) SiO2 
 PCOD9526527
Probable space group: I B A M
;
_chemical_formula_sum "Si O2"
_cell_formula_units_Z 72
_cell_length_a 17.774060
_cell_length_b 23.474921
_cell_length_c 7.576356
_cell_angle_alpha 90.000000
_cell_angle_beta 90.000000
_cell_angle_gamma 90.000000
_cell_volume 3161.194040
_symmetry_space_group_name_H-M "I B A M"
_symmetry_group_IT_number 72
_symmetry_cell_setting 'orthorhombic'
loop_
_space_group_symop_operation_xyz
x,y,z
-x,-y,z
x,-y,1/2-z
-x,y,1/2-z
-x,-y,-z
x,y,-z
-x,y,1/2+z
x,-y,1/2+z
1/2+x,1/2+y,1/2+z
1/2-x,1/2-y,1/2+z
1/2+x,1/2-y,-z
1/2-x,1/2+y,-z
1/2-x,1/2-y,1/2-z
1/2+x,1/2+y,1/2-z
1/2-x,1/2+y,z
1/2+x,1/2-y,z
loop_
_atom_site_type_symbol
_atom_site_label
_atom_site_fract_x
_atom_site_fract_y
_atom_site_fract_z
Si Si1 0.335988 0.809426 0.288813
Si Si2 0.711377 0.000000 0.250000
Si Si3 0.411907 0.305132 0.787966
Si Si4 0.584532 0.078956 0.291355
Si Si5 0.797897 0.106417 0.793862
O O1 0.324467 0.805168 0.500000
O O2 0.363064 0.748585 0.219712
O O3 0.402838 0.854539 0.256517
O O4 0.262956 0.841897 0.215974
O O5 0.646702 0.955717 0.316844
O O6 0.768078 0.949448 0.192992
O O7 0.500000 0.299456 0.750000
O O8 0.374260 0.364250 0.728170
O O9 0.403488 0.304524 0.000000
O O10 0.500000 0.062787 0.250000
O O11 0.600917 0.069611 0.500000
O O12 0.804085 0.088826 0.000000
#
# Coordination Sequence:
#
# PCOD9526527 Si02
#       5
#    16   8  16  16  16
#     4   9  19  35  55  82 114 143 173 214 268 329
#     4  10  21  36  53  72 104 142 182 228 271 314
#     4  10  21  37  57  83 112 142 180 225 274 327
#     4  10  20  32  49  75 106 139 172 208 256 315
#     4  10  21  37  58  82 107 141 186 229 270 321
#
# _framework density 22.776205999999998
#
# number of rings (size 3 to 8) (size 9 to 14) (size 15 to 20)
#    0.000    2.222    0.000    2.333    0.000    8.000 
#    0.000    0.556    0.000    2.667    0.000    0.000 
#    0.000    0.000    0.000    0.000    0.000    0.000 
#
# Total GULP energy -200438.862338 kJ/mol
# GULP energy per Si atom -5567.746176 kJ/mol
# Density = 2.272437 g / cm^3
# Si number density = 22.776206 Si / 1000 Ang^3
#
#
#
# Elastic Constant Matrix: (Units=GPa)
#
#
# Indices 1 2 3 4 5 6 
#
# 1 72.2736 64.2538 0.4789 0.0000 0.0000 0.0000
# 2 64.2538 160.3058 26.8944 0.0000 0.0000 0.0000
# 3 0.4789 26.8944 81.0110 0.0000 0.0000 0.0000
# 4 0.0000 0.0000 0.0000 8.3258 0.0000 0.0000
# 5 0.0000 0.0000 0.0000 0.0000 12.1404 0.0000
# 6 0.0000 0.0000 0.0000 0.0000 0.0000 15.7951
#
#
#
# Elastic Compliance Matrix: (Units=1/GPa)
#
#
# Indices 1 2 3 4 5 6 
#
# 1 0.022157 -0.009382 0.002984 0.000000 0.000000 0.000000
# 2 -0.009382 0.010578 -0.003456 0.000000 0.000000 0.000000
# 3 0.002984 -0.003456 0.013474 0.000000 0.000000 0.000000
# 4 0.000000 0.000000 0.000000 0.120108 0.000000 0.000000
# 5 0.000000 0.000000 0.000000 0.000000 0.082370 0.000000
# 6 0.000000 0.000000 0.000000 0.000000 0.000000 0.063311
#
#
# Mechanical properties :
#
#
# Convention : Reuss Voigt Hill
#
# Bulk Modulus (GPa) = 37.73522 55.20497 46.47009
# Shear Modulus (GPa) = 14.68255 22.04981 18.36618
#
# Velocity S-wave (km/s) = 2.54174 3.11482 2.84276
# Velocity P-wave (km/s) = 5.02172 6.10137 5.58768
#
# Compressibility (1/GPa) = 0.02650044
#
# Stress axis : x y z
#
# Youngs Moduli (GPa) = 45.13227 94.53342 74.21801
#
# Poissons Ratio (x) = 0.88687 -0.22143
# Poissons Ratio (y) = 0.42341 0.25652
# Poissons Ratio (z) = -0.13465 0.32674
#
# Static dielectric constant tensor:
#      x y z
#    x 1.820370 0.000000 0.000000 
#    y 0.000000 1.875420 0.000000 
#    z 0.000000 0.000000 2.297280 
# 
# From -- ./inp_files/3680.got.cif
#   From: 2010.05.17/outbox.cif.g08.bks.cpg/sg72_2_cif.got.tgz:3680.got - 2010.06.03 17:03:01.
