data_PCOD9526042
_publ_section_title
;
Structure prediction by ZEFSAII (Michael W. Deem and Ramdas Pophale) SiO2 
 PCOD9526042
Probable space group: I B A M
;
_chemical_formula_sum "Si O2"
_cell_formula_units_Z 96
_cell_length_a 29.204903
_cell_length_b 20.507877
_cell_length_c 8.945948
_cell_angle_alpha 90.000000
_cell_angle_beta 90.000000
_cell_angle_gamma 90.000000
_cell_volume 5358.001632
_symmetry_space_group_name_H-M "I B A M"
_symmetry_group_IT_number 72
_symmetry_cell_setting 'orthorhombic'
loop_
_space_group_symop_operation_xyz
x,y,z
-x,-y,z
x,-y,1/2-z
-x,y,1/2-z
-x,-y,-z
x,y,-z
-x,y,1/2+z
x,-y,1/2+z
1/2+x,1/2+y,1/2+z
1/2-x,1/2-y,1/2+z
1/2+x,1/2-y,-z
1/2-x,1/2+y,-z
1/2-x,1/2-y,1/2-z
1/2+x,1/2+y,1/2-z
1/2-x,1/2+y,z
1/2+x,1/2-y,z
loop_
_atom_site_type_symbol
_atom_site_label
_atom_site_fract_x
_atom_site_fract_y
_atom_site_fract_z
Si Si1 0.588027 0.688243 0.172705
Si Si2 0.632759 0.071497 0.320384
Si Si3 0.786961 0.653286 0.175755
Si Si4 0.049784 0.331654 0.320198
Si Si5 0.450016 0.563386 0.176171
Si Si6 0.804742 0.789410 0.327578
O O1 0.567225 0.758485 0.216235
O O2 0.572882 0.630951 0.280296
O O3 0.642792 0.690676 0.175528
O O4 0.573556 0.675010 0.000000
O O5 0.633057 0.067565 0.500000
O O6 0.679613 0.105843 0.265707
O O7 0.589519 0.117231 0.275310
O O8 0.628582 0.000000 0.250000
O O9 0.799637 0.727430 0.220400
O O10 0.732353 0.654574 0.208855
O O11 0.793755 0.641428 0.000000
O O12 0.045931 0.335058 0.500000
O O13 0.000000 0.344026 0.250000
O O14 0.426621 0.500000 0.250000
O O15 0.500000 0.566980 0.250000
O O16 0.453321 0.554546 0.000000
O O17 0.794414 0.768641 0.500000
#
# Coordination Sequence:
#
# PCOD9526042 Si02
#       6
#    16  16  16  16  16  16
#     4  10  19  36  58  84 116 151 185 232 285 334
#     4  11  23  41  60  82 114 155 196 244 298 350
#     4  10  19  33  57  87 113 146 187 228 276 336
#     4  10  22  38  58  82 114 150 191 241 294 343
#     4  11  22  37  56  80 109 147 189 230 277 336
#     4   9  18  34  57  84 117 148 181 226 278 330
#
# _framework density 17.917128000000002
#
# number of rings (size 3 to 8) (size 9 to 14) (size 15 to 20)
#    0.000    1.833    1.667    3.500    0.000    5.000 
#    0.000    2.500    0.000    0.000    0.000    0.000 
#    0.000    0.000    0.000    0.000    0.000    0.000 
#
# Total GULP energy -267750.825713 kJ/mol
# GULP energy per Si atom -5578.142202 kJ/mol
# Density = 1.787635 g / cm^3
# Si number density = 17.917128 Si / 1000 Ang^3
#
#
#
# Elastic Constant Matrix: (Units=GPa)
#
#
# Indices 1 2 3 4 5 6 
#
# 1 85.5057 46.9830 30.6166 0.0000 0.0000 0.0000
# 2 46.9830 117.6906 49.7000 0.0000 0.0000 0.0000
# 3 30.6166 49.7000 76.9775 0.0000 0.0000 0.0000
# 4 0.0000 0.0000 0.0000 30.3114 0.0000 0.0000
# 5 0.0000 0.0000 0.0000 0.0000 25.9795 0.0000
# 6 0.0000 0.0000 0.0000 0.0000 0.0000 -10.9616
#
#
#
# Elastic Compliance Matrix: (Units=1/GPa)
#
#
# Indices 1 2 3 4 5 6 
#
# 1 0.015462 -0.004916 -0.002976 0.000000 0.000000 0.000000
# 2 -0.004916 0.013245 -0.006596 0.000000 0.000000 0.000000
# 3 -0.002976 -0.006596 0.018433 0.000000 0.000000 0.000000
# 4 0.000000 0.000000 0.000000 0.032991 0.000000 0.000000
# 5 0.000000 0.000000 0.000000 0.000000 0.038492 0.000000
# 6 0.000000 0.000000 0.000000 0.000000 0.000000 -0.091227
#
#
# Mechanical properties :
#
#
# Convention : Reuss Voigt Hill
#
# Bulk Modulus (GPa) = 55.05372 59.41921 57.23647
# Shear Modulus (GPa) = 80.09537 19.25747 49.67642
#
# Velocity S-wave (km/s) = 6.69330 3.28198 5.27123
# Velocity P-wave (km/s) = 9.51458 6.89907 8.31037
#
# Compressibility (1/GPa) = 0.01816408
#
# Stress axis : x y z
#
# Youngs Moduli (GPa) = 64.67577 75.50117 54.24979
#
# Poissons Ratio (x) = 0.37115 0.16144
# Poissons Ratio (y) = 0.31793 0.35785
# Poissons Ratio (z) = 0.19246 0.49803
#
# Static dielectric constant tensor:
#      x y z
#    x 1.636210 0.000000 0.000000 
#    y 0.000000 1.612210 0.000000 
#    z 0.000000 0.000000 1.622250 
# 
# From -- ./inp_files/8067.got.cif
#   From: 2010.05.17/outbox.cif.g08.bks.cpg/sg72_5_cif.got.tgz:8067.got - 2010.06.03 17:03:01.
