data_PCOD9526185
_publ_section_title
;
Structure prediction by ZEFSAII (Michael W. Deem and Ramdas Pophale) SiO2 
 PCOD9526185
Probable space group: I B A M
;
_chemical_formula_sum "Si O2"
_cell_formula_units_Z 64
_cell_length_a 5.206671
_cell_length_b 34.825555
_cell_length_c 15.492800
_cell_angle_alpha 90.000000
_cell_angle_beta 90.000000
_cell_angle_gamma 90.000000
_cell_volume 2809.235171
_symmetry_space_group_name_H-M "I B A M"
_symmetry_group_IT_number 72
_symmetry_cell_setting 'orthorhombic'
loop_
_space_group_symop_operation_xyz
x,y,z
-x,-y,z
x,-y,1/2-z
-x,y,1/2-z
-x,-y,-z
x,y,-z
-x,y,1/2+z
x,-y,1/2+z
1/2+x,1/2+y,1/2+z
1/2-x,1/2-y,1/2+z
1/2+x,1/2-y,-z
1/2-x,1/2+y,-z
1/2-x,1/2-y,1/2-z
1/2+x,1/2+y,1/2-z
1/2-x,1/2+y,z
1/2+x,1/2-y,z
loop_
_atom_site_type_symbol
_atom_site_label
_atom_site_fract_x
_atom_site_fract_y
_atom_site_fract_z
Si Si1 0.640842 0.728417 0.894444
Si Si2 0.847306 0.353453 0.598765
Si Si3 0.361458 0.606920 0.841149
Si Si4 0.248517 0.982779 0.651506
O O1 0.856688 0.759184 0.867189
O O2 0.736348 0.686672 0.865877
O O3 0.635503 0.727686 0.000000
O O4 0.931499 0.346874 0.500000
O O5 0.601143 0.381832 0.598174
O O6 0.102007 0.368791 0.645713
O O7 0.500000 0.612823 0.750000
O O8 0.272301 0.562784 0.846824
O O9 0.500000 0.000000 0.609856
O O10 0.249131 0.000000 0.750000
O O11 0.000000 0.000000 0.608020
#
# Coordination Sequence:
#
# PCOD9526185 Si02
#       4
#    16  16  16  16
#     4   9  17  33  59  86 113 159 216 251 283 356
#     4  11  24  40  62  94 133 162 197 262 325 367
#     4  12  23  39  65  95 122 162 212 259 305 370
#     4  10  19  34  59  89 110 148 205 267 279 334
#
# _framework density 22.782
#
# number of rings (size 3 to 8) (size 9 to 14) (size 15 to 20)
#    0.000    1.500    2.500    4.500    3.500    4.000 
#    0.000    0.000    0.000   30.000    0.000    0.000 
#    0.000    0.000    0.000    0.000    0.000    0.000 
#
# Total GULP energy -178738.920998 kJ/mol
# GULP energy per Si atom -5585.591281 kJ/mol
# Density = 2.273015 g / cm^3
# Si number density = 22.782000 Si / 1000 Ang^3
#
#
#
# Elastic Constant Matrix: (Units=GPa)
#
#
# Indices 1 2 3 4 5 6 
#
# 1 155.9831 13.9875 5.4497 0.0000 0.0000 0.0000
# 2 13.9875 90.3810 9.1390 0.0000 0.0000 0.0000
# 3 5.4497 9.1390 35.4634 0.0000 0.0000 0.0000
# 4 0.0000 0.0000 0.0000 -24.1518 0.0000 0.0000
# 5 0.0000 0.0000 0.0000 0.0000 22.4011 0.0000
# 6 0.0000 0.0000 0.0000 0.0000 0.0000 46.9064
#
#
#
# Elastic Compliance Matrix: (Units=1/GPa)
#
#
# Indices 1 2 3 4 5 6 
#
# 1 0.006521 -0.000932 -0.000762 0.000000 0.000000 0.000000
# 2 -0.000932 0.011494 -0.002819 0.000000 0.000000 0.000000
# 3 -0.000762 -0.002819 0.029042 0.000000 0.000000 0.000000
# 4 0.000000 0.000000 0.000000 -0.041405 0.000000 0.000000
# 5 0.000000 0.000000 0.000000 0.000000 0.044641 0.000000
# 6 0.000000 0.000000 0.000000 0.000000 0.000000 0.021319
#
#
# Mechanical properties :
#
#
# Convention : Reuss Voigt Hill
#
# Bulk Modulus (GPa) = 26.29450 37.66443 31.97947
# Shear Modulus (GPa) = 53.58285 25.91458 39.74871
#
# Velocity S-wave (km/s) = 4.85498 3.37635 4.18154
# Velocity P-wave (km/s) = 6.55703 5.63632 6.11403
#
# Compressibility (1/GPa) = 0.03803077
#
# Stress axis : x y z
#
# Youngs Moduli (GPa) = 153.34696 87.00531 34.43346
#
# Poissons Ratio (x) = 0.08110 0.02623
# Poissons Ratio (y) = 0.14295 0.09706
# Poissons Ratio (z) = 0.11683 0.24524
#
# Static dielectric constant tensor:
#      x y z
#    x 1.827470 0.000000 0.000000 
#    y 0.000000 1.879450 0.000000 
#    z 0.000000 0.000000 1.906780 
# 
# From -- ./inp_files/27033.got.cif
#   From: 2010.05.17/outbox.cif.g08.bks.cpg/sg72_14_cif.got.tgz:27033.got - 2010.06.03 17:03:01.
