data_PCOD9526201
_publ_section_title
;
Structure prediction by ZEFSAII (Michael W. Deem and Ramdas Pophale) SiO2 
 PCOD9526201
Probable space group: I B A M
;
_chemical_formula_sum "Si O2"
_cell_formula_units_Z 80
_cell_length_a 19.500832
_cell_length_b 9.525455
_cell_length_c 18.486115
_cell_angle_alpha 90.000000
_cell_angle_beta 90.000000
_cell_angle_gamma 90.000000
_cell_volume 3433.875309
_symmetry_space_group_name_H-M "I B A M"
_symmetry_group_IT_number 72
_symmetry_cell_setting 'orthorhombic'
loop_
_space_group_symop_operation_xyz
x,y,z
-x,-y,z
x,-y,1/2-z
-x,y,1/2-z
-x,-y,-z
x,y,-z
-x,y,1/2+z
x,-y,1/2+z
1/2+x,1/2+y,1/2+z
1/2-x,1/2-y,1/2+z
1/2+x,1/2-y,-z
1/2-x,1/2+y,-z
1/2-x,1/2-y,1/2-z
1/2+x,1/2+y,1/2-z
1/2-x,1/2+y,z
1/2+x,1/2-y,z
loop_
_atom_site_type_symbol
_atom_site_label
_atom_site_fract_x
_atom_site_fract_y
_atom_site_fract_z
Si Si1 0.026995 0.842505 0.418069
Si Si2 0.141409 0.469216 0.000000
Si Si3 0.830933 0.500000 0.250000
Si Si4 0.562738 0.897980 0.137853
Si Si5 0.174314 0.072090 0.912798
Si Si6 0.240835 0.336878 0.126001
O O1 0.034890 0.780454 0.500000
O O2 0.103665 0.857305 0.387412
O O3 0.973737 0.750385 0.374842
O O4 0.000000 0.000000 0.424470
O O5 0.095689 0.545340 0.063727
O O6 0.190524 0.395369 0.063031
O O7 0.880074 0.591986 0.301150
O O8 0.786436 0.605388 0.201535
O O9 0.500000 0.000000 0.157520
O O10 0.235727 0.170035 0.883691
O O11 0.186986 0.912857 0.888994
O O12 0.173997 0.074027 0.000000
#
# Coordination Sequence:
#
# PCOD9526201 Si02
#       6
#    16   8   8  16  16  16
#     4  10  22  39  62 101 138 168 214 285 354 411
#     4  10  19  34  61  92 122 170 217 278 324 380
#     4  10  25  40  64  96 131 172 228 274 336 408
#     4  11  21  37  66  95 133 175 222 276 333 407
#     4  11  22  40  66  93 127 169 222 280 335 396
#     4  11  23  42  63  96 131 172 226 278 332 405
#
# _framework density 23.297293
#
# number of rings (size 3 to 8) (size 9 to 14) (size 15 to 20)
#    0.000    1.400    3.000    3.000    2.800    4.000 
#    3.600    0.000    0.000    8.400    0.000    0.000 
#    0.000    0.000    0.000    0.000    0.000    0.000 
#
# Total GULP energy -222912.999090 kJ/mol
# GULP energy per Si atom -5572.824977 kJ/mol
# Density = 2.324427 g / cm^3
# Si number density = 23.297293 Si / 1000 Ang^3
#
#
#
# Elastic Constant Matrix: (Units=GPa)
#
#
# Indices 1 2 3 4 5 6 
#
# 1 76.1681 17.5869 15.5684 0.0000 0.0000 0.0000
# 2 17.5869 66.5713 -9.1960 0.0000 0.0000 0.0000
# 3 15.5684 -9.1960 97.6028 0.0000 0.0000 0.0000
# 4 0.0000 0.0000 0.0000 8.2625 0.0000 0.0000
# 5 0.0000 0.0000 0.0000 0.0000 28.0952 0.0000
# 6 0.0000 0.0000 0.0000 0.0000 0.0000 28.2257
#
#
#
# Elastic Compliance Matrix: (Units=1/GPa)
#
#
# Indices 1 2 3 4 5 6 
#
# 1 0.014671 -0.004255 -0.002741 0.000000 0.000000 0.000000
# 2 -0.004255 0.016453 0.002229 0.000000 0.000000 0.000000
# 3 -0.002741 0.002229 0.010893 0.000000 0.000000 0.000000
# 4 0.000000 0.000000 0.000000 0.121028 0.000000 0.000000
# 5 0.000000 0.000000 0.000000 0.000000 0.035593 0.000000
# 6 0.000000 0.000000 0.000000 0.000000 0.000000 0.035429
#
#
# Mechanical properties :
#
#
# Convention : Reuss Voigt Hill
#
# Bulk Modulus (GPa) = 30.78431 32.02896 31.40664
# Shear Modulus (GPa) = 19.65180 27.34222 23.49701
#
# Velocity S-wave (km/s) = 2.90750 3.42953 3.17925
# Velocity P-wave (km/s) = 4.95114 5.42771 5.19489
#
# Compressibility (1/GPa) = 0.03248408
#
# Stress axis : x y z
#
# Youngs Moduli (GPa) = 68.15944 60.77783 91.80350
#
# Poissons Ratio (x) = 0.25858 0.25164
# Poissons Ratio (y) = 0.28999 -0.20462
# Poissons Ratio (z) = 0.18683 -0.13546
#
# Static dielectric constant tensor:
#      x y z
#    x 1.948620 0.000000 0.000000 
#    y 0.000000 1.915200 0.000000 
#    z 0.000000 0.000000 1.828970 
# 
# From -- ./inp_files/32427.got.cif
#   From: 2010.05.17/outbox.cif.g08.bks.cpg/sg72_17_cif.got.tgz:32427.got - 2010.06.03 17:03:01.
