data_PCOD9526429
_publ_section_title
;
Structure prediction by ZEFSAII (Michael W. Deem and Ramdas Pophale) SiO2 
 PCOD9526429
Probable space group: I B A M
;
_chemical_formula_sum "Si O2"
_cell_formula_units_Z 80
_cell_length_a 17.006369
_cell_length_b 7.797450
_cell_length_c 26.122257
_cell_angle_alpha 90.000000
_cell_angle_beta 90.000000
_cell_angle_gamma 90.000000
_cell_volume 3463.976161
_symmetry_space_group_name_H-M "I B A M"
_symmetry_group_IT_number 72
_symmetry_cell_setting 'orthorhombic'
loop_
_space_group_symop_operation_xyz
x,y,z
-x,-y,z
x,-y,1/2-z
-x,y,1/2-z
-x,-y,-z
x,y,-z
-x,y,1/2+z
x,-y,1/2+z
1/2+x,1/2+y,1/2+z
1/2-x,1/2-y,1/2+z
1/2+x,1/2-y,-z
1/2-x,1/2+y,-z
1/2-x,1/2-y,1/2-z
1/2+x,1/2+y,1/2-z
1/2-x,1/2+y,z
1/2+x,1/2-y,z
loop_
_atom_site_type_symbol
_atom_site_label
_atom_site_fract_x
_atom_site_fract_y
_atom_site_fract_z
Si Si1 0.191893 0.246831 0.054615
Si Si2 0.794687 0.121048 0.338117
Si Si3 0.865372 0.532256 0.804883
Si Si4 0.589605 0.451099 0.593828
Si Si5 0.585716 0.061066 0.583000
O O1 0.235460 0.204746 0.107734
O O2 0.150735 0.431021 0.060950
O O3 0.125274 0.098807 0.057348
O O4 0.233393 0.239386 0.000000
O O5 0.846110 0.267565 0.312112
O O6 0.720386 0.058546 0.307128
O O7 0.854603 0.973244 0.356283
O O8 0.902626 0.500000 0.750000
O O9 0.909619 0.466516 0.855314
O O10 0.500000 0.500000 0.605578
O O11 0.594480 0.261178 0.571859
O O12 0.500000 0.000000 0.565443
#
# Coordination Sequence:
#
# PCOD9526429 Si02
#       5
#    16  16  16  16  16
#     4   9  21  38  59  87 120 156 199 240 297 360
#     4   9  21  37  57  89 120 151 203 249 297 355
#     4  11  21  38  64  87 118 161 203 252 305 366
#     4  10  19  38  59  84 124 160 193 248 297 353
#     4  11  21  39  60  90 124 158 196 255 302 357
#
# _framework density 23.094847000000001
#
# number of rings (size 3 to 8) (size 9 to 14) (size 15 to 20)
#    1.200    0.800    2.000    1.800    0.000    2.000 
#    0.000    4.000    0.000    4.200    0.000    0.000 
#    0.000    0.000    0.000    0.000    0.000    0.000 
#
# Total GULP energy -223443.933406 kJ/mol
# GULP energy per Si atom -5586.098335 kJ/mol
# Density = 2.304228 g / cm^3
# Si number density = 23.094847 Si / 1000 Ang^3
#
#
#
# Elastic Constant Matrix: (Units=GPa)
#
#
# Indices 1 2 3 4 5 6 
#
# 1 70.7936 27.8216 4.6245 0.0000 0.0000 0.0000
# 2 27.8216 179.5963 4.1001 0.0000 0.0000 0.0000
# 3 4.6245 4.1001 116.8845 0.0000 0.0000 0.0000
# 4 0.0000 0.0000 0.0000 -25.7010 0.0000 0.0000
# 5 0.0000 0.0000 0.0000 0.0000 34.0525 0.0000
# 6 0.0000 0.0000 0.0000 0.0000 0.0000 29.4449
#
#
#
# Elastic Compliance Matrix: (Units=1/GPa)
#
#
# Indices 1 2 3 4 5 6 
#
# 1 0.015072 -0.002323 -0.000515 0.000000 0.000000 0.000000
# 2 -0.002323 0.005931 -0.000116 0.000000 0.000000 0.000000
# 3 -0.000515 -0.000116 0.008580 0.000000 0.000000 0.000000
# 4 0.000000 0.000000 0.000000 -0.038909 0.000000 0.000000
# 5 0.000000 0.000000 0.000000 0.000000 0.029366 0.000000
# 6 0.000000 0.000000 0.000000 0.000000 0.000000 0.033962
#
#
# Mechanical properties :
#
#
# Convention : Reuss Voigt Hill
#
# Bulk Modulus (GPa) = 42.23953 48.92966 45.58460
# Shear Modulus (GPa) = 73.74473 29.60782 51.67627
#
# Velocity S-wave (km/s) = 5.65690 3.58440 4.73542
# Velocity P-wave (km/s) = 7.81004 6.19378 7.04839
#
# Compressibility (1/GPa) = 0.02367450
#
# Stress axis : x y z
#
# Youngs Moduli (GPa) = 66.34748 168.61786 116.55154
#
# Poissons Ratio (x) = 0.39172 0.06001
# Poissons Ratio (y) = 0.15413 0.01353
# Poissons Ratio (z) = 0.03416 0.01958
#
# Static dielectric constant tensor:
#      x y z
#    x 1.857200 0.000000 0.000000 
#    y 0.000000 1.853950 0.000000 
#    z 0.000000 0.000000 1.887140 
# 
# From -- ./inp_files/48929.got.cif
#   From: 2010.05.17/outbox.cif.g08.bks.cpg/sg72_25_cif.got.tgz:48929.got - 2010.06.03 17:03:01.
