data_PCOD9526471
_publ_section_title
;
Structure prediction by ZEFSAII (Michael W. Deem and Ramdas Pophale) SiO2 
 PCOD9526471
Probable space group: I B A M
;
_chemical_formula_sum "Si O2"
_cell_formula_units_Z 56
_cell_length_a 5.527479
_cell_length_b 26.803725
_cell_length_c 17.395493
_cell_angle_alpha 90.000000
_cell_angle_beta 90.000000
_cell_angle_gamma 90.000000
_cell_volume 2577.264527
_symmetry_space_group_name_H-M "I B A M"
_symmetry_group_IT_number 72
_symmetry_cell_setting 'orthorhombic'
loop_
_space_group_symop_operation_xyz
x,y,z
-x,-y,z
x,-y,1/2-z
-x,y,1/2-z
-x,-y,-z
x,y,-z
-x,y,1/2+z
x,-y,1/2+z
1/2+x,1/2+y,1/2+z
1/2-x,1/2-y,1/2+z
1/2+x,1/2-y,-z
1/2-x,1/2+y,-z
1/2-x,1/2-y,1/2-z
1/2+x,1/2+y,1/2-z
1/2-x,1/2+y,z
1/2+x,1/2-y,z
loop_
_atom_site_type_symbol
_atom_site_label
_atom_site_fract_x
_atom_site_fract_y
_atom_site_fract_z
Si Si1 0.500000 0.779386 0.250000
Si Si2 0.596254 0.947404 0.161241
Si Si3 0.000000 0.093496 0.250000
Si Si4 0.660393 0.851300 0.633426
Si Si5 0.656529 0.282754 0.500000
O O1 0.250000 0.750000 0.250000
O O2 0.482861 0.812278 0.326850
O O3 0.500000 0.944598 0.250000
O O4 0.491090 0.901093 0.112875
O O5 0.876829 0.939657 0.182619
O O6 0.500000 0.000000 0.130921
O O7 0.825646 0.129635 0.203150
O O8 0.811324 0.820614 0.571661
O O9 0.398226 0.253499 0.500000
#
# Coordination Sequence:
#
# PCOD9526471 Si02
#       5
#     8  16   8  16   8
#     4  12  23  36  62  92 123 165 228 279 326 384
#     4   9  19  35  63 101 132 170 216 278 342 400
#     4  10  19  39  71  94 142 169 228 279 339 398
#     4  11  23  41  64  98 130 178 224 284 337 404
#     4  12  30  48  67  95 137 185 228 280 348 404
#
# _framework density 21.728463999999999
#
# number of rings (size 3 to 8) (size 9 to 14) (size 15 to 20)
#    0.000    1.429    4.286    2.571    4.000    9.143 
#    0.000    0.714    0.000    1.714    0.000    0.000 
#    0.000    0.000    0.000    0.000    0.000    0.000 
#
# Total GULP energy -156013.014094 kJ/mol
# GULP energy per Si atom -5571.893361 kJ/mol
# Density = 2.167901 g / cm^3
# Si number density = 21.728464 Si / 1000 Ang^3
#
#
#
# Elastic Constant Matrix: (Units=GPa)
#
#
# Indices 1 2 3 4 5 6 
#
# 1 100.8322 58.3936 2.5415 0.0000 0.0000 0.0000
# 2 58.3936 157.0973 19.3206 0.0000 0.0000 0.0000
# 3 2.5415 19.3206 30.1733 0.0000 0.0000 0.0000
# 4 0.0000 0.0000 0.0000 10.6648 0.0000 0.0000
# 5 0.0000 0.0000 0.0000 0.0000 14.3818 0.0000
# 6 0.0000 0.0000 0.0000 0.0000 0.0000 24.3159
#
#
#
# Elastic Compliance Matrix: (Units=1/GPa)
#
#
# Indices 1 2 3 4 5 6 
#
# 1 0.012763 -0.005006 0.002130 0.000000 0.000000 0.000000
# 2 -0.005006 0.008873 -0.005260 0.000000 0.000000 0.000000
# 3 0.002130 -0.005260 0.036331 0.000000 0.000000 0.000000
# 4 0.000000 0.000000 0.000000 0.093766 0.000000 0.000000
# 5 0.000000 0.000000 0.000000 0.000000 0.069532 0.000000
# 6 0.000000 0.000000 0.000000 0.000000 0.000000 0.041125
#
#
# Mechanical properties :
#
#
# Convention : Reuss Voigt Hill
#
# Bulk Modulus (GPa) = 23.98348 49.84603 36.91475
# Shear Modulus (GPa) = 17.09052 23.72897 20.40975
#
# Velocity S-wave (km/s) = 2.80759 3.30823 3.06814
# Velocity P-wave (km/s) = 4.64455 6.13048 5.43850
#
# Compressibility (1/GPa) = 0.04169537
#
# Stress axis : x y z
#
# Youngs Moduli (GPa) = 78.35249 112.69972 27.52506
#
# Poissons Ratio (x) = 0.56418 -0.05864
# Poissons Ratio (y) = 0.39223 0.14478
# Poissons Ratio (z) = -0.16693 0.59280
#
# Static dielectric constant tensor:
#      x y z
#    x 2.363810 0.000000 0.000000 
#    y 0.000000 1.870760 0.000000 
#    z 0.000000 0.000000 1.817660 
# 
# From -- ./inp_files/26976.got.cif
#   From: 2010.05.17/outbox.cif.g08.bks.cpg/sg72_14_cif.got.tgz:26976.got - 2010.06.03 17:03:01.
