data_PCOD9526059
_publ_section_title
;
Structure prediction by ZEFSAII (Michael W. Deem and Ramdas Pophale) SiO2 
 PCOD9526059
Probable space group: I B A M
;
_chemical_formula_sum "Si O2"
_cell_formula_units_Z 112
_cell_length_a 13.377156
_cell_length_b 14.811146
_cell_length_c 23.883584
_cell_angle_alpha 90.000000
_cell_angle_beta 90.000000
_cell_angle_gamma 90.000000
_cell_volume 4732.078634
_symmetry_space_group_name_H-M "I B A M"
_symmetry_group_IT_number 72
_symmetry_cell_setting 'orthorhombic'
loop_
_space_group_symop_operation_xyz
x,y,z
-x,-y,z
x,-y,1/2-z
-x,y,1/2-z
-x,-y,-z
x,y,-z
-x,y,1/2+z
x,-y,1/2+z
1/2+x,1/2+y,1/2+z
1/2-x,1/2-y,1/2+z
1/2+x,1/2-y,-z
1/2-x,1/2+y,-z
1/2-x,1/2-y,1/2-z
1/2+x,1/2+y,1/2-z
1/2-x,1/2+y,z
1/2+x,1/2-y,z
loop_
_atom_site_type_symbol
_atom_site_label
_atom_site_fract_x
_atom_site_fract_y
_atom_site_fract_z
Si Si1 0.708116 0.811141 0.936013
Si Si2 0.762551 0.386827 0.438936
Si Si3 0.080084 0.657655 0.171818
Si Si4 0.476126 0.605314 0.438891
Si Si5 0.212708 0.482101 0.827934
Si Si6 0.140873 0.697792 0.289141
Si Si7 0.142888 0.877018 0.642491
O O1 0.775556 0.720462 0.934072
O O2 0.620728 0.811815 0.889133
O O3 0.786772 0.883422 0.912942
O O4 0.674854 0.823380 0.000000
O O5 0.794147 0.418571 0.500000
O O6 0.642342 0.389141 0.434463
O O7 0.808211 0.443216 0.389720
O O8 0.127830 0.557922 0.182510
O O9 0.120650 0.716940 0.223895
O O10 0.961923 0.662326 0.181605
O O11 0.500000 0.500000 0.441853
O O12 0.504810 0.646725 0.500000
O O13 0.533656 0.635791 0.383265
O O14 0.211582 0.389872 0.792881
O O15 0.319646 0.533581 0.825811
O O16 0.169476 0.789249 0.321048
#
# Coordination Sequence:
#
# PCOD9526059 Si02
#       7
#    16  16  16  16  16  16  16
#     4  10  21  39  64  98 131 166 215 271 333 394
#     4  10  20  37  59  91 133 168 208 269 324 390
#     4  10  24  43  71  92 126 178 221 284 328 395
#     4  10  19  33  58  89 128 176 222 258 319 401
#     4  11  22  38  63  99 125 168 222 272 330 400
#     4  11  23  46  66  96 132 170 233 271 331 397
#     4  11  22  37  67  97 132 178 214 278 333 392
#
# _framework density 23.668246
#
# number of rings (size 3 to 8) (size 9 to 14) (size 15 to 20)
#    0.000    1.571    2.857    2.143    0.000    5.714 
#    2.571    1.429    0.000    4.286    0.000    0.000 
#    0.000    0.000    0.000    0.000    0.000    0.000 
#
# Total GULP energy -312573.526775 kJ/mol
# GULP energy per Si atom -5581.670121 kJ/mol
# Density = 2.361438 g / cm^3
# Si number density = 23.668246 Si / 1000 Ang^3
#
#
#
# Elastic Constant Matrix: (Units=GPa)
#
#
# Indices 1 2 3 4 5 6 
#
# 1 36.9849 1.5305 26.6175 0.0000 0.0000 0.0000
# 2 1.5305 90.8254 37.6695 0.0000 0.0000 0.0000
# 3 26.6175 37.6695 166.9292 0.0000 0.0000 0.0000
# 4 0.0000 0.0000 0.0000 33.7439 0.0000 0.0000
# 5 0.0000 0.0000 0.0000 0.0000 43.6619 0.0000
# 6 0.0000 0.0000 0.0000 0.0000 0.0000 25.4357
#
#
#
# Elastic Compliance Matrix: (Units=1/GPa)
#
#
# Indices 1 2 3 4 5 6 
#
# 1 0.030772 0.001673 -0.005284 0.000000 0.000000 0.000000
# 2 0.001673 0.012238 -0.003028 0.000000 0.000000 0.000000
# 3 -0.005284 -0.003028 0.007517 0.000000 0.000000 0.000000
# 4 0.000000 0.000000 0.000000 0.029635 0.000000 0.000000
# 5 0.000000 0.000000 0.000000 0.000000 0.022903 0.000000
# 6 0.000000 0.000000 0.000000 0.000000 0.000000 0.039315
#
#
# Mechanical properties :
#
#
# Convention : Reuss Voigt Hill
#
# Bulk Modulus (GPa) = 26.84767 47.37494 37.11130
# Shear Modulus (GPa) = 29.74876 35.82979 32.78928
#
# Velocity S-wave (km/s) = 3.54913 3.89502 3.72609
# Velocity P-wave (km/s) = 5.30689 6.34728 5.85026
#
# Compressibility (1/GPa) = 0.03724718
#
# Stress axis : x y z
#
# Youngs Moduli (GPa) = 32.49727 81.71295 133.03980
#
# Poissons Ratio (x) = -0.13671 0.70301
# Poissons Ratio (y) = -0.05437 0.40290
# Poissons Ratio (z) = 0.17172 0.24746
#
# Static dielectric constant tensor:
#      x y z
#    x 1.958510 0.000000 0.000000 
#    y 0.000000 2.057080 0.000000 
#    z 0.000000 0.000000 1.985860 
# 
# From -- ./inp_files/44329.got.cif
#   From: 2010.05.17/outbox.cif.g08.bks.cpg/sg72_23_cif.got.tgz:44329.got - 2010.06.03 17:03:01.
