data_PCOD9526182
_publ_section_title
;
Structure prediction by ZEFSAII (Michael W. Deem and Ramdas Pophale) SiO2 
 PCOD9526182
Probable space group: I B A M
;
_chemical_formula_sum "Si O2"
_cell_formula_units_Z 96
_cell_length_a 17.372707
_cell_length_b 18.424701
_cell_length_c 13.898173
_cell_angle_alpha 90.000000
_cell_angle_beta 90.000000
_cell_angle_gamma 90.000000
_cell_volume 4448.623556
_symmetry_space_group_name_H-M "I B A M"
_symmetry_group_IT_number 72
_symmetry_cell_setting 'orthorhombic'
loop_
_space_group_symop_operation_xyz
x,y,z
-x,-y,z
x,-y,1/2-z
-x,y,1/2-z
-x,-y,-z
x,y,-z
-x,y,1/2+z
x,-y,1/2+z
1/2+x,1/2+y,1/2+z
1/2-x,1/2-y,1/2+z
1/2+x,1/2-y,-z
1/2-x,1/2+y,-z
1/2-x,1/2-y,1/2-z
1/2+x,1/2+y,1/2-z
1/2-x,1/2+y,z
1/2+x,1/2-y,z
loop_
_atom_site_type_symbol
_atom_site_label
_atom_site_fract_x
_atom_site_fract_y
_atom_site_fract_z
Si Si1 0.667439 0.442442 0.383467
Si Si2 0.919148 0.322857 0.768855
Si Si3 0.376561 0.396370 0.616798
Si Si4 0.038447 0.176432 0.383245
Si Si5 0.707144 0.833968 0.385322
Si Si6 0.721993 0.817405 0.886144
O O1 0.670920 0.445956 0.500000
O O2 0.639752 0.521519 0.351396
O O3 0.602157 0.383913 0.360432
O O4 0.750000 0.408378 0.355321
O O5 0.944017 0.249739 0.825743
O O6 0.871548 0.315807 0.669723
O O7 0.851562 0.352896 0.836868
O O8 0.000000 0.362416 0.750000
O O9 0.378327 0.397098 0.500000
O O10 0.456029 0.358082 0.643588
O O11 0.302047 0.351496 0.646822
O O12 0.040306 0.189684 0.500000
O O13 0.693808 0.834346 0.500000
O O14 0.767346 0.768304 0.365963
O O15 0.715421 0.825995 0.000000
#
# Coordination Sequence:
#
# PCOD9526182 Si02
#       6
#    16  16  16  16  16  16
#     4   9  17  33  59  89 122 164 201 243 303 366
#     4  12  24  36  58  85 119 159 204 254 308 360
#     4   9  18  33  59  92 126 161 199 243 303 374
#     4  10  19  34  58  92 130 160 194 243 304 372
#     4  10  21  38  60  84 118 163 211 256 303 360
#     4  10  20  37  59  85 117 155 198 247 303 365
#
# _framework density 21.579709000000001
#
# number of rings (size 3 to 8) (size 9 to 14) (size 15 to 20)
#    0.000    2.000    1.667    2.500    0.000    4.667 
#    0.000    0.833    0.000    3.000    0.000    4.667 
#    0.000    2.667    0.000    0.000    0.000    0.000 
#
# Total GULP energy -268181.831484 kJ/mol
# GULP energy per Si atom -5587.121489 kJ/mol
# Density = 2.153059 g / cm^3
# Si number density = 21.579709 Si / 1000 Ang^3
#
#
#
# Elastic Constant Matrix: (Units=GPa)
#
#
# Indices 1 2 3 4 5 6 
#
# 1 184.0251 34.8816 43.8784 0.0000 0.0000 0.0000
# 2 34.8816 60.6847 15.8875 0.0000 0.0000 0.0000
# 3 43.8784 15.8875 95.5652 0.0000 0.0000 0.0000
# 4 0.0000 0.0000 0.0000 12.2591 0.0000 0.0000
# 5 0.0000 0.0000 0.0000 0.0000 45.2658 0.0000
# 6 0.0000 0.0000 0.0000 0.0000 0.0000 21.8115
#
#
#
# Elastic Compliance Matrix: (Units=1/GPa)
#
#
# Indices 1 2 3 4 5 6 
#
# 1 0.006633 -0.003152 -0.002521 0.000000 0.000000 0.000000
# 2 -0.003152 0.018727 -0.001666 0.000000 0.000000 0.000000
# 3 -0.002521 -0.001666 0.011899 0.000000 0.000000 0.000000
# 4 0.000000 0.000000 0.000000 0.081572 0.000000 0.000000
# 5 0.000000 0.000000 0.000000 0.000000 0.022092 0.000000
# 6 0.000000 0.000000 0.000000 0.000000 0.000000 0.045847
#
#
# Mechanical properties :
#
#
# Convention : Reuss Voigt Hill
#
# Bulk Modulus (GPa) = 44.28897 58.84109 51.56503
# Shear Modulus (GPa) = 23.92629 32.24243 28.08436
#
# Velocity S-wave (km/s) = 3.33339 3.86956 3.61144
# Velocity P-wave (km/s) = 5.94839 6.87683 6.42939
#
# Compressibility (1/GPa) = 0.02257898
#
# Stress axis : x y z
#
# Youngs Moduli (GPa) = 150.76690 53.39954 84.04304
#
# Poissons Ratio (x) = 0.16834 0.21190
# Poissons Ratio (y) = 0.47528 0.14000
# Poissons Ratio (z) = 0.38013 0.08896
#
# Static dielectric constant tensor:
#      x y z
#    x 1.774190 0.000000 0.000000 
#    y 0.000000 1.782340 0.000000 
#    z 0.000000 0.000000 1.872340 
# 
# From -- ./inp_files/21796.got.cif
#   From: 2010.05.17/outbox.cif.g08.bks.cpg/sg72_11_cif.got.tgz:21796.got - 2010.06.03 17:03:01.
