data_PCOD9526623
_publ_section_title
;
Structure prediction by ZEFSAII (Michael W. Deem and Ramdas Pophale) SiO2 
 PCOD9526623
Probable space group: I B A M
;
_chemical_formula_sum "Si O2"
_cell_formula_units_Z 80
_cell_length_a 24.161039
_cell_length_b 7.739540
_cell_length_c 18.766284
_cell_angle_alpha 90.000000
_cell_angle_beta 90.000000
_cell_angle_gamma 90.000000
_cell_volume 3509.207428
_symmetry_space_group_name_H-M "I B A M"
_symmetry_group_IT_number 72
_symmetry_cell_setting 'orthorhombic'
loop_
_space_group_symop_operation_xyz
x,y,z
-x,-y,z
x,-y,1/2-z
-x,y,1/2-z
-x,-y,-z
x,y,-z
-x,y,1/2+z
x,-y,1/2+z
1/2+x,1/2+y,1/2+z
1/2-x,1/2-y,1/2+z
1/2+x,1/2-y,-z
1/2-x,1/2+y,-z
1/2-x,1/2-y,1/2-z
1/2+x,1/2+y,1/2-z
1/2-x,1/2+y,z
1/2+x,1/2-y,z
loop_
_atom_site_type_symbol
_atom_site_label
_atom_site_fract_x
_atom_site_fract_y
_atom_site_fract_z
Si Si1 0.120370 0.935089 0.582914
Si Si2 0.665516 0.044948 0.670649
Si Si3 0.281574 0.574800 0.330411
Si Si4 0.069210 0.673620 0.920235
Si Si5 0.022751 0.196371 0.827501
O O1 0.118832 0.872687 0.500000
O O2 0.085081 0.828187 0.642412
O O3 0.181455 0.965943 0.614474
O O4 0.093580 0.128833 0.580779
O O5 0.693419 0.234450 0.671904
O O6 0.613085 0.057471 0.620768
O O7 0.646931 0.000000 0.750000
O O8 0.716921 0.924479 0.649585
O O9 0.285367 0.500000 0.250000
O O10 0.010444 0.690858 0.883511
O O11 0.064346 0.614483 0.000000
O O12 0.000000 0.257125 0.750000
O O13 0.000000 0.000000 0.830182
#
# Coordination Sequence:
#
# PCOD9526623 Si02
#       5
#    16  16  16  16  16
#     4   9  18  30  49  79 117 148 185 240 293 343
#     4  10  20  35  55  84 112 149 191 233 286 344
#     4  10  20  33  55  82 113 148 189 236 284 343
#     4   9  18  32  52  80 114 149 186 235 293 351
#     4   9  17  28  50  82 113 149 189 240 290 343
#
# _framework density 22.797170999999999
#
# number of rings (size 3 to 8) (size 9 to 14) (size 15 to 20)
#    0.000    2.600    0.000    3.000    8.400    3.200 
#    0.000    0.000    0.000    4.200    0.000    1.400 
#    0.000    0.000    0.000    0.000    0.000    0.000 
#
# Total GULP energy -223427.754074 kJ/mol
# GULP energy per Si atom -5585.693852 kJ/mol
# Density = 2.274528 g / cm^3
# Si number density = 22.797171 Si / 1000 Ang^3
#
#
#
# Elastic Constant Matrix: (Units=GPa)
#
#
# Indices 1 2 3 4 5 6 
#
# 1 65.9825 2.5967 69.8547 0.0000 0.0000 0.0000
# 2 2.5967 76.0314 20.7362 0.0000 0.0000 0.0000
# 3 69.8547 20.7362 159.0362 0.0000 0.0000 0.0000
# 4 0.0000 0.0000 0.0000 19.5963 0.0000 0.0000
# 5 0.0000 0.0000 0.0000 0.0000 38.7139 0.0000
# 6 0.0000 0.0000 0.0000 0.0000 0.0000 51.1317
#
#
#
# Elastic Compliance Matrix: (Units=1/GPa)
#
#
# Indices 1 2 3 4 5 6 
#
# 1 0.028801 0.002557 -0.012984 0.000000 0.000000 0.000000
# 2 0.002557 0.013865 -0.002931 0.000000 0.000000 0.000000
# 3 -0.012984 -0.002931 0.012373 0.000000 0.000000 0.000000
# 4 0.000000 0.000000 0.000000 0.051030 0.000000 0.000000
# 5 0.000000 0.000000 0.000000 0.000000 0.025830 0.000000
# 6 0.000000 0.000000 0.000000 0.000000 0.000000 0.019557
#
#
# Mechanical properties :
#
#
# Convention : Reuss Voigt Hill
#
# Bulk Modulus (GPa) = 35.30657 54.15837 44.73247
# Shear Modulus (GPa) = 26.65078 35.74590 31.19834
#
# Velocity S-wave (km/s) = 3.42283 3.96409 3.70336
# Velocity P-wave (km/s) = 5.58049 6.69031 6.16044
#
# Compressibility (1/GPa) = 0.02832334
#
# Stress axis : x y z
#
# Youngs Moduli (GPa) = 34.72153 72.12662 80.82114
#
# Poissons Ratio (x) = -0.18446 1.04936
# Poissons Ratio (y) = -0.08880 0.23689
# Poissons Ratio (z) = 0.45082 0.21141
#
# Static dielectric constant tensor:
#      x y z
#    x 1.840090 0.000000 0.000000 
#    y 0.000000 1.914790 0.000000 
#    z 0.000000 0.000000 1.820050 
# 
# From -- ./inp_files/33755.got.cif
#   From: 2010.05.17/outbox.cif.g08.bks.cpg/sg72_17_cif.got.tgz:33755.got - 2010.06.03 17:03:01.
