data_PCOD9526481
_publ_section_title
;
Structure prediction by ZEFSAII (Michael W. Deem and Ramdas Pophale) SiO2 
 PCOD9526481
Probable space group: I B A M
;
_chemical_formula_sum "Si O2"
_cell_formula_units_Z 72
_cell_length_a 13.797098
_cell_length_b 28.565421
_cell_length_c 8.834838
_cell_angle_alpha 90.000000
_cell_angle_beta 90.000000
_cell_angle_gamma 90.000000
_cell_volume 3481.985583
_symmetry_space_group_name_H-M "I B A M"
_symmetry_group_IT_number 72
_symmetry_cell_setting 'orthorhombic'
loop_
_space_group_symop_operation_xyz
x,y,z
-x,-y,z
x,-y,1/2-z
-x,y,1/2-z
-x,-y,-z
x,y,-z
-x,y,1/2+z
x,-y,1/2+z
1/2+x,1/2+y,1/2+z
1/2-x,1/2-y,1/2+z
1/2+x,1/2-y,-z
1/2-x,1/2+y,-z
1/2-x,1/2-y,1/2-z
1/2+x,1/2+y,1/2-z
1/2-x,1/2+y,z
1/2+x,1/2-y,z
loop_
_atom_site_type_symbol
_atom_site_label
_atom_site_fract_x
_atom_site_fract_y
_atom_site_fract_z
Si Si1 0.399882 0.741710 0.000000
Si Si2 0.000000 0.305488 0.750000
Si Si3 0.292800 0.450989 0.674910
Si Si4 0.230167 0.800849 0.000000
Si Si5 0.200035 0.351888 0.682295
Si Si6 0.033900 0.838524 0.000000
Si Si7 0.500000 0.411328 0.750000
O O1 0.446103 0.769852 0.138312
O O2 0.432741 0.688388 0.000000
O O3 0.286113 0.751977 0.000000
O O4 0.913643 0.337951 0.813767
O O5 0.267909 0.500000 0.750000
O O6 0.274436 0.457134 0.500000
O O7 0.231786 0.405136 0.721103
O O8 0.408266 0.440777 0.694878
O O9 0.257666 0.824443 0.834791
O O10 0.115018 0.798971 0.000000
O O11 0.228117 0.346217 0.500000
O O12 0.044605 0.874387 0.865517
#
# Coordination Sequence:
#
# PCOD9526481 Si02
#       7
#     8   8  16   8  16   8   8
#     4  10  22  40  64  99 123 172 220 263 315 387
#     4  10  19  42  67  89 132 171 211 268 327 376
#     4  11  25  41  64  94 127 167 216 268 330 399
#     4  10  22  42  71  89 133 184 210 269 342 376
#     4  10  21  41  66  98 129 171 222 269 326 397
#     4  12  24  44  62  99 133 168 226 269 321 395
#     4  12  24  42  64  89 134 173 208 274 322 386
#
# _framework density 20.677856999999999
#
# number of rings (size 3 to 8) (size 9 to 14) (size 15 to 20)
#    0.000    1.333    4.444    1.000    3.111    0.889 
#    4.000    3.889    0.000    2.667    0.000    0.000 
#    0.000    0.000    0.000    0.000    0.000    0.000 
#
# Total GULP energy -200439.319593 kJ/mol
# GULP energy per Si atom -5567.758878 kJ/mol
# Density = 2.063079 g / cm^3
# Si number density = 20.677857 Si / 1000 Ang^3
#
#
#
# Elastic Constant Matrix: (Units=GPa)
#
#
# Indices 1 2 3 4 5 6 
#
# 1 67.8156 20.4414 6.3551 0.0034 0.0000 0.0021
# 2 20.4414 107.8291 19.1185 0.0100 -0.0003 0.0033
# 3 6.3551 19.1185 79.8295 0.0587 -0.0008 0.0062
# 4 0.0034 0.0100 0.0587 346.6645 0.0051 0.0203
# 5 0.0000 -0.0003 -0.0008 0.0051 17.0903 0.0010
# 6 0.0021 0.0033 0.0062 0.0203 0.0010 294.5750
#
#
#
# Elastic Compliance Matrix: (Units=1/GPa)
#
#
# Indices 1 2 3 4 5 6 
#
# 1 0.015663 -0.002870 -0.000560 0.000000 0.000000 0.000000
# 2 -0.002870 0.010211 -0.002217 0.000000 0.000000 0.000000
# 3 -0.000560 -0.002217 0.013102 -0.000002 0.000001 0.000000
# 4 0.000000 0.000000 -0.000002 0.002885 -0.000001 0.000000
# 5 0.000000 0.000000 0.000001 -0.000001 0.058513 0.000000
# 6 0.000000 0.000000 0.000000 0.000000 0.000000 0.003395
#
#
# Mechanical properties :
#
#
# Convention : Reuss Voigt Hill
#
# Bulk Modulus (GPa) = 36.12276 38.58934 37.35605
# Shear Modulus (GPa) = 40.22850 145.63658 92.93254
#
# Velocity S-wave (km/s) = 4.41555 8.40143 6.71123
# Velocity P-wave (km/s) = 6.59571 10.62143 8.84076
#
# Compressibility (1/GPa) = 0.02768338
#
# Stress axis : x y z
#
# Youngs Moduli (GPa) = 63.84288 97.93247 76.32309
#
# Poissons Ratio (x) = 0.28108 0.04271
# Poissons Ratio (y) = 0.18324 0.16921
# Poissons Ratio (z) = 0.03572 0.21712
#
# Static dielectric constant tensor:
#      x y z
#    x 1.750850 0.000000 0.000000 
#    y 0.000000 1.705500 0.000000 
#    z 0.000000 0.000000 1.774980 
# 
# From -- ./inp_files/3725.got.cif
#   From: 2010.05.17/outbox.cif.g08.bks.cpg/sg72_2_cif.got.tgz:3725.got - 2010.06.03 17:03:01.
