data_PCOD9526541
_publ_section_title
;
Structure prediction by ZEFSAII (Michael W. Deem and Ramdas Pophale) SiO2 
 PCOD9526541
Probable space group: I B A M
;
_chemical_formula_sum "Si O2"
_cell_formula_units_Z 104
_cell_length_a 18.188895
_cell_length_b 17.102897
_cell_length_c 20.454192
_cell_angle_alpha 90.000000
_cell_angle_beta 90.000000
_cell_angle_gamma 90.000000
_cell_volume 6362.947273
_symmetry_space_group_name_H-M "I B A M"
_symmetry_group_IT_number 72
_symmetry_cell_setting 'orthorhombic'
loop_
_space_group_symop_operation_xyz
x,y,z
-x,-y,z
x,-y,1/2-z
-x,y,1/2-z
-x,-y,-z
x,y,-z
-x,y,1/2+z
x,-y,1/2+z
1/2+x,1/2+y,1/2+z
1/2-x,1/2-y,1/2+z
1/2+x,1/2-y,-z
1/2-x,1/2+y,-z
1/2-x,1/2-y,1/2-z
1/2+x,1/2+y,1/2-z
1/2-x,1/2+y,z
1/2+x,1/2-y,z
loop_
_atom_site_type_symbol
_atom_site_label
_atom_site_fract_x
_atom_site_fract_y
_atom_site_fract_z
Si Si1 0.730310 0.000000 0.250000
Si Si2 0.672509 0.604074 0.153489
Si Si3 0.548208 0.271435 0.684000
Si Si4 0.788809 0.728238 0.850578
Si Si5 0.918738 0.020777 0.577917
Si Si6 0.576202 0.299074 0.077911
Si Si7 0.172914 0.657228 0.208825
O O1 0.783136 0.946105 0.293579
O O2 0.681567 0.936004 0.211632
O O3 0.607738 0.657922 0.183498
O O4 0.730904 0.664580 0.123033
O O5 0.637323 0.541811 0.105376
O O6 0.500000 0.274003 0.750000
O O7 0.494933 0.279118 0.621602
O O8 0.597063 0.192676 0.682092
O O9 0.855203 0.747749 0.898260
O O10 0.819709 0.692842 0.782361
O O11 0.740717 0.804234 0.830944
O O12 0.920168 0.014093 0.500000
O O13 0.903401 0.110774 0.593794
O O14 0.000000 0.000000 0.603553
O O15 0.562815 0.292919 0.000000
#
# Coordination Sequence:
#
# PCOD9526541 Si02
#       7
#     8  16  16  16  16  16  16
#     4  10  20  32  54  82 110 134 180 228 272 324
#     4  10  21  32  54  82 107 144 174 223 271 329
#     4  11  21  34  56  81 111 144 178 227 275 321
#     4   9  18  34  53  77 108 142 182 222 267 323
#     4  10  20  33  48  73 111 142 172 218 270 321
#     4  11  22  36  55  80 111 148 184 223 273 330
#     4   9  18  34  54  78 108 141 178 228 271 318
#
# _framework density 16.344628
#
# number of rings (size 3 to 8) (size 9 to 14) (size 15 to 20)
#    0.000    2.000    3.077    1.846    2.154    0.615 
#    0.000    2.692    0.000    0.923    0.000    4.308 
#    0.000    0.000    0.000    0.000    0.000    0.000 
#
# Total GULP energy -289872.244491 kJ/mol
# GULP energy per Si atom -5574.466240 kJ/mol
# Density = 1.630743 g / cm^3
# Si number density = 16.344628 Si / 1000 Ang^3
#
#
#
# Elastic Constant Matrix: (Units=GPa)
#
#
# Indices 1 2 3 4 5 6 
#
# 1 103.2519 74.1649 44.9715 0.0000 0.0000 0.0000
# 2 74.1649 116.5205 35.7160 0.0000 0.0000 0.0000
# 3 44.9715 35.7160 48.7580 0.0000 0.0000 0.0000
# 4 0.0000 0.0000 0.0000 21.3008 0.0000 0.0000
# 5 0.0000 0.0000 0.0000 0.0000 24.9406 0.0000
# 6 0.0000 0.0000 0.0000 0.0000 0.0000 31.6643
#
#
#
# Elastic Compliance Matrix: (Units=1/GPa)
#
#
# Indices 1 2 3 4 5 6 
#
# 1 0.023274 -0.010618 -0.013689 0.000000 0.000000 0.000000
# 2 -0.010618 0.015911 -0.001862 0.000000 0.000000 0.000000
# 3 -0.013689 -0.001862 0.034499 0.000000 0.000000 0.000000
# 4 0.000000 0.000000 0.000000 0.046947 0.000000 0.000000
# 5 0.000000 0.000000 0.000000 0.000000 0.040095 0.000000
# 6 0.000000 0.000000 0.000000 0.000000 0.000000 0.031581
#
#
# Mechanical properties :
#
#
# Convention : Reuss Voigt Hill
#
# Bulk Modulus (GPa) = 46.84481 64.24836 55.54658
# Shear Modulus (GPa) = 19.86021 23.15968 21.50995
#
# Velocity S-wave (km/s) = 3.48960 3.76834 3.63164
# Velocity P-wave (km/s) = 6.70517 7.63726 7.18634
#
# Compressibility (1/GPa) = 0.02134708
#
# Stress axis : x y z
#
# Youngs Moduli (GPa) = 42.96653 62.84909 28.98641
#
# Poissons Ratio (x) = 0.66732 0.39679
# Poissons Ratio (y) = 0.45621 0.05397
# Poissons Ratio (z) = 0.58816 0.11702
#
# Static dielectric constant tensor:
#      x y z
#    x 1.567480 0.000000 0.000000 
#    y 0.000000 1.561020 0.000000 
#    z 0.000000 0.000000 1.553500 
# 
# From -- ./inp_files/38288.got.cif
#   From: 2010.05.17/outbox.cif.g08.bks.cpg/sg72_20_cif.got.tgz:38288.got - 2010.06.03 17:03:01.
