data_PCOD9526297
_publ_section_title
;
Structure prediction by ZEFSAII (Michael W. Deem and Ramdas Pophale) SiO2 
 PCOD9526297
Probable space group: I B A M
;
_chemical_formula_sum "Si O2"
_cell_formula_units_Z 80
_cell_length_a 9.547269
_cell_length_b 16.403313
_cell_length_c 24.012694
_cell_angle_alpha 90.000000
_cell_angle_beta 90.000000
_cell_angle_gamma 90.000000
_cell_volume 3760.552168
_symmetry_space_group_name_H-M "I B A M"
_symmetry_group_IT_number 72
_symmetry_cell_setting 'orthorhombic'
loop_
_space_group_symop_operation_xyz
x,y,z
-x,-y,z
x,-y,1/2-z
-x,y,1/2-z
-x,-y,-z
x,y,-z
-x,y,1/2+z
x,-y,1/2+z
1/2+x,1/2+y,1/2+z
1/2-x,1/2-y,1/2+z
1/2+x,1/2-y,-z
1/2-x,1/2+y,-z
1/2-x,1/2-y,1/2-z
1/2+x,1/2+y,1/2-z
1/2-x,1/2+y,z
1/2+x,1/2-y,z
loop_
_atom_site_type_symbol
_atom_site_label
_atom_site_fract_x
_atom_site_fract_y
_atom_site_fract_z
Si Si1 0.258608 0.208839 0.190333
Si Si2 0.959932 0.837964 0.559247
Si Si3 0.308888 0.054007 0.564885
Si Si4 0.964343 0.687737 0.878663
Si Si5 0.124123 0.055927 0.851862
O O1 0.250000 0.250000 0.250000
O O2 0.414846 0.196208 0.167442
O O3 0.194111 0.117927 0.190881
O O4 0.171769 0.268441 0.148593
O O5 0.023368 0.860841 0.500000
O O6 0.041037 0.885404 0.606350
O O7 0.803058 0.871585 0.559675
O O8 0.979079 0.743364 0.570879
O O9 0.333000 0.026713 0.500000
O O10 0.436406 0.097999 0.596922
O O11 0.233668 0.991772 0.607963
O O12 0.000000 0.000000 0.827762
#
# Coordination Sequence:
#
# PCOD9526297 Si02
#       5
#    16  16  16  16  16
#     4  11  24  43  68  90 121 175 230 286 332 382
#     4   9  17  33  59  91 131 178 219 261 322 401
#     4  10  19  35  62  98 139 176 211 262 336 407
#     4  11  21  39  62  95 130 165 225 275 327 396
#     4   9  20  39  65  95 132 174 223 276 332 410
#
# _framework density 21.273472999999999
#
# number of rings (size 3 to 8) (size 9 to 14) (size 15 to 20)
#    0.000    2.000    2.000    1.800    0.000    3.200 
#    0.000    5.000    4.400    2.400    0.000    0.000 
#    0.000    0.000    0.000    0.000    0.000    0.000 
#
# Total GULP energy -223043.041632 kJ/mol
# GULP energy per Si atom -5576.076041 kJ/mol
# Density = 2.122505 g / cm^3
# Si number density = 21.273473 Si / 1000 Ang^3
#
#
#
# Elastic Constant Matrix: (Units=GPa)
#
#
# Indices 1 2 3 4 5 6 
#
# 1 82.1314 29.3705 31.1904 0.0000 0.0000 0.0000
# 2 29.3705 90.1187 39.5356 0.0000 0.0000 0.0000
# 3 31.1904 39.5356 91.8012 0.0000 0.0000 0.0000
# 4 0.0000 0.0000 0.0000 -13.0373 0.0000 0.0000
# 5 0.0000 0.0000 0.0000 0.0000 12.2790 0.0000
# 6 0.0000 0.0000 0.0000 0.0000 0.0000 32.7679
#
#
#
# Elastic Compliance Matrix: (Units=1/GPa)
#
#
# Indices 1 2 3 4 5 6 
#
# 1 0.014693 -0.003204 -0.003612 0.000000 0.000000 0.000000
# 2 -0.003204 0.014380 -0.005104 0.000000 0.000000 0.000000
# 3 -0.003612 -0.005104 0.014319 0.000000 0.000000 0.000000
# 4 0.000000 0.000000 0.000000 -0.076703 0.000000 0.000000
# 5 0.000000 0.000000 0.000000 0.000000 0.081440 0.000000
# 6 0.000000 0.000000 0.000000 0.000000 0.000000 0.030518
#
#
# Mechanical properties :
#
#
# Convention : Reuss Voigt Hill
#
# Bulk Modulus (GPa) = 51.14933 51.58270 51.36602
# Shear Modulus (GPa) = 45.86948 17.33222 31.60085
#
# Velocity S-wave (km/s) = 4.64851 2.85745 3.85835
# Velocity P-wave (km/s) = 7.27375 5.93184 6.63680
#
# Compressibility (1/GPa) = 0.01955060
#
# Stress axis : x y z
#
# Youngs Moduli (GPa) = 68.05880 69.54112 69.83862
#
# Poissons Ratio (x) = 0.22280 0.25228
# Poissons Ratio (y) = 0.21805 0.35648
# Poissons Ratio (z) = 0.24585 0.35497
#
# Static dielectric constant tensor:
#      x y z
#    x 1.842850 0.000000 0.000000 
#    y 0.000000 1.808710 0.000000 
#    z 0.000000 0.000000 1.763900 
# 
# From -- ./inp_files/47191.got.cif
#   From: 2010.05.17/outbox.cif.g08.bks.cpg/sg72_24_cif.got.tgz:47191.got - 2010.06.03 17:03:01.
