data_PCOD9526143
_publ_section_title
;
Structure prediction by ZEFSAII (Michael W. Deem and Ramdas Pophale) SiO2 
 PCOD9526143
Probable space group: I B A M
;
_chemical_formula_sum "Si O2"
_cell_formula_units_Z 96
_cell_length_a 18.522426
_cell_length_b 14.337779
_cell_length_c 15.743567
_cell_angle_alpha 90.000000
_cell_angle_beta 90.000000
_cell_angle_gamma 90.000000
_cell_volume 4181.026181
_symmetry_space_group_name_H-M "I B A M"
_symmetry_group_IT_number 72
_symmetry_cell_setting 'orthorhombic'
loop_
_space_group_symop_operation_xyz
x,y,z
-x,-y,z
x,-y,1/2-z
-x,y,1/2-z
-x,-y,-z
x,y,-z
-x,y,1/2+z
x,-y,1/2+z
1/2+x,1/2+y,1/2+z
1/2-x,1/2-y,1/2+z
1/2+x,1/2-y,-z
1/2-x,1/2+y,-z
1/2-x,1/2-y,1/2-z
1/2+x,1/2+y,1/2-z
1/2-x,1/2+y,z
1/2+x,1/2-y,z
loop_
_atom_site_type_symbol
_atom_site_label
_atom_site_fract_x
_atom_site_fract_y
_atom_site_fract_z
Si Si1 0.788147 0.163549 0.906198
Si Si2 0.752213 0.549577 0.593941
Si Si3 0.380580 0.902988 0.699535
Si Si4 0.994002 0.612931 0.908171
Si Si5 0.135641 0.101398 0.236153
Si Si6 0.642182 0.779334 0.349280
O O1 0.841167 0.148659 0.825833
O O2 0.720579 0.233057 0.891744
O O3 0.749927 0.062393 0.909357
O O4 0.820876 0.180769 0.000000
O O5 0.728010 0.581081 0.500000
O O6 0.832516 0.580337 0.616885
O O7 0.703937 0.574227 0.675970
O O8 0.454772 0.858404 0.668561
O O9 0.340348 0.834787 0.763098
O O10 0.391918 0.000000 0.750000
O O11 0.000000 0.500000 0.906307
O O12 0.914320 0.654314 0.896951
O O13 0.020854 0.644120 0.000000
O O14 0.103082 0.183517 0.178020
O O15 0.099036 0.000000 0.250000
#
# Coordination Sequence:
#
# PCOD9526143 Si02
#       6
#    16  16  16  16  16  16
#     4  10  19  34  56  86 122 159 202 253 311 372
#     4  10  19  34  57  85 124 168 206 250 306 368
#     4  12  20  35  56  83 121 161 200 248 305 371
#     4  11  23  37  56  87 124 160 201 250 309 378
#     4  10  22  41  57  85 123 163 213 259 305 365
#     4  12  22  35  59  85 117 165 203 251 306 370
#
# _framework density 22.96087
#
# number of rings (size 3 to 8) (size 9 to 14) (size 15 to 20)
#    0.000    1.167    5.000    2.500    0.000    4.000 
#    0.000    0.833    0.000    2.000    0.000    1.167 
#    0.000    0.000    0.000    0.000    0.000    0.000 
#
# Total GULP energy -267813.550035 kJ/mol
# GULP energy per Si atom -5579.448959 kJ/mol
# Density = 2.290861 g / cm^3
# Si number density = 22.960870 Si / 1000 Ang^3
#
#
#
# Elastic Constant Matrix: (Units=GPa)
#
#
# Indices 1 2 3 4 5 6 
#
# 1 22.8980 -6.8862 9.0473 0.0000 0.0000 0.0000
# 2 -6.8862 94.0760 14.7993 0.0000 0.0000 0.0000
# 3 9.0473 14.7993 132.1282 0.0000 0.0000 0.0000
# 4 0.0000 0.0000 0.0000 18.1128 0.0000 0.0000
# 5 0.0000 0.0000 0.0000 0.0000 11.5662 0.0000
# 6 0.0000 0.0000 0.0000 0.0000 0.0000 15.0714
#
#
#
# Elastic Compliance Matrix: (Units=1/GPa)
#
#
# Indices 1 2 3 4 5 6 
#
# 1 0.046289 0.003957 -0.003613 0.000000 0.000000 0.000000
# 2 0.003957 0.011159 -0.001521 0.000000 0.000000 0.000000
# 3 -0.003613 -0.001521 0.007986 0.000000 0.000000 0.000000
# 4 0.000000 0.000000 0.000000 0.055210 0.000000 0.000000
# 5 0.000000 0.000000 0.000000 0.000000 0.086459 0.000000
# 6 0.000000 0.000000 0.000000 0.000000 0.000000 0.066351
#
#
# Mechanical properties :
#
#
# Convention : Reuss Voigt Hill
#
# Bulk Modulus (GPa) = 15.85284 31.44700 23.64992
# Shear Modulus (GPa) = 16.84444 24.42620 20.63532
#
# Velocity S-wave (km/s) = 2.71147 3.26516 3.00111
# Velocity P-wave (km/s) = 4.08926 5.28589 4.72561
#
# Compressibility (1/GPa) = 0.06308017
#
# Stress axis : x y z
#
# Youngs Moduli (GPa) = 21.60329 89.61724 125.21725
#
# Poissons Ratio (x) = -0.35458 0.45238
# Poissons Ratio (y) = -0.08548 0.19043
# Poissons Ratio (z) = 0.07805 0.13629
#
# Static dielectric constant tensor:
#      x y z
#    x 1.831930 0.000000 0.000000 
#    y 0.000000 1.944490 0.000000 
#    z 0.000000 0.000000 1.898590 
# 
# From -- ./inp_files/24170.got.cif
#   From: 2010.05.17/outbox.cif.g08.bks.cpg/sg72_13_cif.got.tgz:24170.got - 2010.06.03 17:03:01.
