data_PCOD9526284
_publ_section_title
;
Structure prediction by ZEFSAII (Michael W. Deem and Ramdas Pophale) SiO2 
 PCOD9526284
Probable space group: I B A M
;
_chemical_formula_sum "Si O2"
_cell_formula_units_Z 112
_cell_length_a 14.227941
_cell_length_b 24.139059
_cell_length_c 15.958443
_cell_angle_alpha 90.000000
_cell_angle_beta 90.000000
_cell_angle_gamma 90.000000
_cell_volume 5480.913001
_symmetry_space_group_name_H-M "I B A M"
_symmetry_group_IT_number 72
_symmetry_cell_setting 'orthorhombic'
loop_
_space_group_symop_operation_xyz
x,y,z
-x,-y,z
x,-y,1/2-z
-x,y,1/2-z
-x,-y,-z
x,y,-z
-x,y,1/2+z
x,-y,1/2+z
1/2+x,1/2+y,1/2+z
1/2-x,1/2-y,1/2+z
1/2+x,1/2-y,-z
1/2-x,1/2+y,-z
1/2-x,1/2-y,1/2-z
1/2+x,1/2+y,1/2-z
1/2-x,1/2+y,z
1/2+x,1/2-y,z
loop_
_atom_site_type_symbol
_atom_site_label
_atom_site_fract_x
_atom_site_fract_y
_atom_site_fract_z
Si Si1 0.778741 0.101435 0.401877
Si Si2 0.266763 0.714264 0.332825
Si Si3 0.559970 0.948571 0.400721
Si Si4 0.888847 0.884248 0.264575
Si Si5 0.758708 0.020595 0.160452
Si Si6 0.067952 0.325928 0.898737
Si Si7 0.127254 0.688163 0.096194
O O1 0.796323 0.115329 0.500000
O O2 0.849885 0.120597 0.330337
O O3 0.682497 0.133016 0.374305
O O4 0.780220 0.034953 0.391606
O O5 0.250000 0.750000 0.250000
O O6 0.344546 0.667350 0.314981
O O7 0.166688 0.689177 0.358365
O O8 0.303807 0.759911 0.397428
O O9 0.542463 0.948731 0.500000
O O10 0.671282 0.952126 0.385654
O O11 0.535290 0.887431 0.371850
O O12 0.500000 0.000000 0.365377
O O13 0.843644 0.938268 0.312460
O O14 0.000000 0.887456 0.250000
O O15 0.720763 0.000000 0.250000
O O16 0.974652 0.293114 0.869900
O O17 0.082791 0.322738 0.000000
O O18 0.107358 0.674783 0.000000
#
# Coordination Sequence:
#
# PCOD9526284 Si02
#       7
#    16  16  16  16  16  16  16
#     4  10  21  42  67  94 127 172 218 262 330 401
#     4  12  24  41  64  91 125 173 218 267 330 383
#     4  10  19  35  60  92 129 167 204 257 326 393
#     4  11  25  45  64  94 132 169 220 282 328 376
#     4  10  21  38  61  89 125 164 209 267 322 382
#     4  10  22  40  63  94 129 166 214 269 326 394
#     4  10  22  40  64  95 130 170 218 272 328 397
#
# _framework density 20.434552
#
# number of rings (size 3 to 8) (size 9 to 14) (size 15 to 20)
#    0.000    1.571    2.857    1.714    2.000    5.143 
#    0.000    5.000    0.000    0.000    0.000    0.000 
#    0.000    0.000    0.000    0.000    0.000    0.000 
#
# Total GULP energy -311871.791439 kJ/mol
# GULP energy per Si atom -5569.139133 kJ/mol
# Density = 2.038804 g / cm^3
# Si number density = 20.434552 Si / 1000 Ang^3
#
#
#
# Elastic Constant Matrix: (Units=GPa)
#
#
# Indices 1 2 3 4 5 6 
#
# 1 162.9795 58.6938 18.6191 0.0000 0.0000 0.0000
# 2 58.6938 95.8272 21.0901 0.0005 0.0003 -0.0001
# 3 18.6191 21.0901 34.9724 0.0005 0.0002 -0.0001
# 4 0.0000 0.0005 0.0005 22.5702 0.0003 -0.0001
# 5 0.0000 0.0003 0.0002 0.0003 74.8611 -0.0005
# 6 0.0000 -0.0001 -0.0001 -0.0001 -0.0005 5.4109
#
#
#
# Elastic Compliance Matrix: (Units=1/GPa)
#
#
# Indices 1 2 3 4 5 6 
#
# 1 0.007939 -0.004534 -0.001492 0.000000 0.000000 0.000000
# 2 -0.004534 0.014622 -0.006404 0.000000 0.000000 0.000000
# 3 -0.001492 -0.006404 0.033250 -0.000001 0.000000 0.000000
# 4 0.000000 0.000000 -0.000001 0.044306 0.000000 0.000001
# 5 0.000000 0.000000 0.000000 0.000000 0.013358 0.000001
# 6 0.000000 0.000000 0.000000 0.000001 0.000001 0.184812
#
#
# Mechanical properties :
#
#
# Convention : Reuss Voigt Hill
#
# Bulk Modulus (GPa) = 32.30950 54.50947 43.40949
# Shear Modulus (GPa) = 14.99403 33.59351 24.29377
#
# Velocity S-wave (km/s) = 2.71174 4.05897 3.45172
# Velocity P-wave (km/s) = 5.06461 6.97854 6.09714
#
# Compressibility (1/GPa) = 0.03095065
#
# Stress axis : x y z
#
# Youngs Moduli (GPa) = 125.95798 68.38990 30.07485
#
# Poissons Ratio (x) = 0.31010 0.04488
# Poissons Ratio (y) = 0.57112 0.19259
# Poissons Ratio (z) = 0.18798 0.43796
#
# Static dielectric constant tensor:
#      x y z
#    x 1.787240 0.000000 0.000000 
#    y 0.000000 1.822920 0.000000 
#    z 0.000000 0.000000 1.720090 
# 
# From -- ./inp_files/22163.got.cif
#   From: 2010.05.17/outbox.cif.g08.bks.cpg/sg72_12_cif.got.tgz:22163.got - 2010.06.03 17:03:01.
