data_PCOD9526053
_publ_section_title
;
Structure prediction by ZEFSAII (Michael W. Deem and Ramdas Pophale) SiO2 
 PCOD9526053
Probable space group: I B A M
;
_chemical_formula_sum "Si O2"
_cell_formula_units_Z 80
_cell_length_a 13.878047
_cell_length_b 18.113992
_cell_length_c 13.890386
_cell_angle_alpha 90.000000
_cell_angle_beta 90.000000
_cell_angle_gamma 90.000000
_cell_volume 3491.860136
_symmetry_space_group_name_H-M "I B A M"
_symmetry_group_IT_number 72
_symmetry_cell_setting 'orthorhombic'
loop_
_space_group_symop_operation_xyz
x,y,z
-x,-y,z
x,-y,1/2-z
-x,y,1/2-z
-x,-y,-z
x,y,-z
-x,y,1/2+z
x,-y,1/2+z
1/2+x,1/2+y,1/2+z
1/2-x,1/2-y,1/2+z
1/2+x,1/2-y,-z
1/2-x,1/2+y,-z
1/2-x,1/2-y,1/2-z
1/2+x,1/2+y,1/2-z
1/2-x,1/2+y,z
1/2+x,1/2-y,z
loop_
_atom_site_type_symbol
_atom_site_label
_atom_site_fract_x
_atom_site_fract_y
_atom_site_fract_z
Si Si1 0.417966 0.326105 0.115211
Si Si2 0.797207 0.038198 0.883709
Si Si3 0.898199 0.540774 0.616906
Si Si4 0.805320 0.309791 0.178910
Si Si5 0.382002 0.387402 0.388052
O O1 0.339923 0.385422 0.154213
O O2 0.384633 0.244519 0.136062
O O3 0.524178 0.346896 0.150168
O O4 0.417310 0.333022 0.000000
O O5 0.686816 0.018609 0.865058
O O6 0.859339 0.968506 0.848885
O O7 0.804407 0.040631 0.000000
O O8 0.894959 0.559875 0.500000
O O9 0.867436 0.612410 0.681019
O O10 0.000000 0.500000 0.634677
O O11 0.750000 0.250000 0.250000
O O12 0.713388 0.338573 0.119503
O O13 0.401728 0.400254 0.500000
#
# Coordination Sequence:
#
# PCOD9526053 Si02
#       5
#    16  16  16  16  16
#     4  10  19  33  58  85 107 142 194 246 300 366
#     4   8  15  30  55  86 111 135 180 241 298 352
#     4   9  18  36  62  89 119 158 207 258 305 366
#     4  11  23  37  54  83 125 161 194 247 318 390
#     4   9  18  35  57  80 111 148 190 244 300 360
#
# _framework density 22.910425
#
# number of rings (size 3 to 8) (size 9 to 14) (size 15 to 20)
#    0.000    2.600    0.000    3.600    0.000    4.800 
#    0.000    8.000    0.000    6.000    0.000    0.000 
#    0.000    4.800    0.000    0.000    0.000    0.000 
#
# Total GULP energy -222832.846904 kJ/mol
# GULP energy per Si atom -5570.821173 kJ/mol
# Density = 2.285828 g / cm^3
# Si number density = 22.910425 Si / 1000 Ang^3
#
#
#
# Elastic Constant Matrix: (Units=GPa)
#
#
# Indices 1 2 3 4 5 6 
#
# 1 174.8033 102.9125 5.9351 0.0000 0.0000 0.0000
# 2 102.9125 160.8594 20.9443 0.0000 0.0000 0.0000
# 3 5.9351 20.9443 80.8216 0.0000 0.0000 0.0000
# 4 0.0000 0.0000 0.0000 23.0940 0.0000 0.0000
# 5 0.0000 0.0000 0.0000 0.0000 -94.5677 0.0000
# 6 0.0000 0.0000 0.0000 0.0000 0.0000 38.1857
#
#
#
# Elastic Compliance Matrix: (Units=1/GPa)
#
#
# Indices 1 2 3 4 5 6 
#
# 1 0.009238 -0.006025 0.000883 0.000000 0.000000 0.000000
# 2 -0.006025 0.010363 -0.002243 0.000000 0.000000 0.000000
# 3 0.000883 -0.002243 0.012889 0.000000 0.000000 0.000000
# 4 0.000000 0.000000 0.000000 0.043301 0.000000 0.000000
# 5 0.000000 0.000000 0.000000 0.000000 -0.010574 0.000000
# 6 0.000000 0.000000 0.000000 0.000000 0.000000 0.026188
#
#
# Mechanical properties :
#
#
# Convention : Reuss Voigt Hill
#
# Bulk Modulus (GPa) = 56.43298 75.11869 65.77583
# Shear Modulus (GPa) = 44.61005 12.45524 28.53264
#
# Velocity S-wave (km/s) = 4.41744 2.33416 3.53285
# Velocity P-wave (km/s) = 7.12066 6.33432 6.73897
#
# Compressibility (1/GPa) = 0.01772014
#
# Stress axis : x y z
#
# Youngs Moduli (GPa) = 108.24989 96.49439 77.58330
#
# Poissons Ratio (x) = 0.58138 -0.06850
# Poissons Ratio (y) = 0.65221 0.17403
# Poissons Ratio (z) = -0.09558 0.21645
#
# Static dielectric constant tensor:
#      x y z
#    x 1.825250 0.000000 0.000000 
#    y 0.000000 1.841240 0.000000 
#    z 0.000000 0.000000 1.965430 
# 
# From -- ./inp_files/37856.got.cif
#   From: 2010.05.17/outbox.cif.g08.bks.cpg/sg72_19_cif.got.tgz:37856.got - 2010.06.03 17:03:01.
