data_PCOD9526225
_publ_section_title
;
Structure prediction by ZEFSAII (Michael W. Deem and Ramdas Pophale) SiO2 
 PCOD9526225
Probable space group: I B A M
;
_chemical_formula_sum "Si O2"
_cell_formula_units_Z 116
_cell_length_a 25.372039
_cell_length_b 27.550846
_cell_length_c 8.485527
_cell_angle_alpha 90.000000
_cell_angle_beta 90.000000
_cell_angle_gamma 90.000000
_cell_volume 5931.562750
_symmetry_space_group_name_H-M "I B A M"
_symmetry_group_IT_number 72
_symmetry_cell_setting 'orthorhombic'
loop_
_space_group_symop_operation_xyz
x,y,z
-x,-y,z
x,-y,1/2-z
-x,y,1/2-z
-x,-y,-z
x,y,-z
-x,y,1/2+z
x,-y,1/2+z
1/2+x,1/2+y,1/2+z
1/2-x,1/2-y,1/2+z
1/2+x,1/2-y,-z
1/2-x,1/2+y,-z
1/2-x,1/2-y,1/2-z
1/2+x,1/2+y,1/2-z
1/2-x,1/2+y,z
1/2+x,1/2-y,z
loop_
_atom_site_type_symbol
_atom_site_label
_atom_site_fract_x
_atom_site_fract_y
_atom_site_fract_z
Si Si1 0.440451 0.280359 0.685913
Si Si2 0.702888 0.095258 0.689835
Si Si3 0.058941 0.681419 0.815138
Si Si4 0.248149 0.304376 0.683855
Si Si5 0.500000 0.000000 0.250000
Si Si6 0.853601 0.847857 0.684994
Si Si7 0.688974 0.448615 0.314021
Si Si8 0.909891 0.429440 0.188866
O O1 0.500000 0.280177 0.750000
O O2 0.440413 0.287220 0.500000
O O3 0.416245 0.227365 0.727204
O O4 0.406940 0.321446 0.770429
O O5 0.698960 0.097970 0.500000
O O6 0.710475 0.151563 0.747289
O O7 0.755753 0.067361 0.736710
O O8 0.650792 0.065687 0.740782
O O9 0.082938 0.628411 0.796764
O O10 0.000000 0.676826 0.750000
O O11 0.057952 0.693390 0.000000
O O12 0.235781 0.300114 0.500000
O O13 0.250000 0.250000 0.750000
O O14 0.306545 0.325136 0.713205
O O15 0.453982 0.959014 0.213823
O O16 0.841431 0.840087 0.500000
O O17 0.851916 0.905189 0.715510
O O18 0.671386 0.500000 0.250000
O O19 0.697926 0.451852 0.500000
O O20 0.917670 0.441818 0.000000
#
# Coordination Sequence:
#
# PCOD9526225 Si02
#       8
#    16  16  16  16   4  16  16  16
#     4  11  22  37  59  90 121 156 197 238 287 344
#     4   9  20  38  56  79 111 151 195 241 297 356
#     4  10  19  35  55  77 109 148 190 236 290 349
#     4  10  20  34  55  83 117 154 192 241 298 363
#     4  12  22  40  56  82 112 148 206 264 318 364
#     4  10  21  38  59  85 119 156 194 239 290 349
#     4  10  21  38  61  88 116 150 191 236 289 347
#     4  10  22  38  56  77 107 148 193 247 309 360
#
# _framework density 19.556398999999999
#
# number of rings (size 3 to 8) (size 9 to 14) (size 15 to 20)
#    0.000    1.931    0.690    3.931    2.897    2.207 
#    0.000    2.069    0.000    0.414    0.000    2.897 
#    0.000    0.000    0.000    0.000    0.000    0.000 
#
# Total GULP energy -323181.100577 kJ/mol
# GULP energy per Si atom -5572.087941 kJ/mol
# Density = 1.951189 g / cm^3
# Si number density = 19.556399 Si / 1000 Ang^3
#
#
#
# Elastic Constant Matrix: (Units=GPa)
#
#
# Indices 1 2 3 4 5 6 
#
# 1 53.4389 23.2126 -6.7430 0.0000 0.0000 0.0000
# 2 23.2126 110.7384 13.7642 0.0000 0.0000 0.0000
# 3 -6.7430 13.7642 21.2918 0.0000 0.0000 0.0000
# 4 0.0000 0.0000 0.0000 22.5339 0.0000 0.0000
# 5 0.0000 0.0000 0.0000 0.0000 15.2242 0.0000
# 6 0.0000 0.0000 0.0000 0.0000 0.0000 19.7893
#
#
#
# Elastic Compliance Matrix: (Units=1/GPa)
#
#
# Indices 1 2 3 4 5 6 
#
# 1 0.022811 -0.006176 0.011216 0.000000 0.000000 0.000000
# 2 -0.006176 0.011491 -0.009384 0.000000 0.000000 0.000000
# 3 0.011216 -0.009384 0.056585 0.000000 0.000000 0.000000
# 4 0.000000 0.000000 0.000000 0.044378 0.000000 0.000000
# 5 0.000000 0.000000 0.000000 0.000000 0.065685 0.000000
# 6 0.000000 0.000000 0.000000 0.000000 0.000000 0.050532
#
#
# Mechanical properties :
#
#
# Convention : Reuss Voigt Hill
#
# Bulk Modulus (GPa) = 12.16548 27.32629 19.74588
# Shear Modulus (GPa) = 17.38711 21.85849 19.62280
#
# Velocity S-wave (km/s) = 2.98497 3.34685 3.17108
# Velocity P-wave (km/s) = 4.25609 5.37946 4.85041
#
# Compressibility (1/GPa) = 0.08219982
#
# Stress axis : x y z
#
# Youngs Moduli (GPa) = 43.83882 87.02281 17.67250
#
# Poissons Ratio (x) = 0.53742 -0.19822
# Poissons Ratio (y) = 0.27073 0.16584
# Poissons Ratio (z) = -0.49171 0.81665
#
# Static dielectric constant tensor:
#      x y z
#    x 1.692730 0.000000 0.000000 
#    y 0.000000 1.719990 0.000000 
#    z 0.000000 0.000000 1.693510 
# 
# From -- ./inp_files/8380.got.cif
#   From: 2010.05.17/outbox.cif.g08.bks.cpg/sg72_5_cif.got.tgz:8380.got - 2010.06.03 17:03:01.
