data_PCOD9526522
_publ_section_title
;
Structure prediction by ZEFSAII (Michael W. Deem and Ramdas Pophale) SiO2 
 PCOD9526522
Probable space group: I B A M
;
_chemical_formula_sum "Si O2"
_cell_formula_units_Z 112
_cell_length_a 27.364285
_cell_length_b 17.384564
_cell_length_c 14.663750
_cell_angle_alpha 90.000000
_cell_angle_beta 90.000000
_cell_angle_gamma 90.000000
_cell_volume 6975.782898
_symmetry_space_group_name_H-M "I B A M"
_symmetry_group_IT_number 72
_symmetry_cell_setting 'orthorhombic'
loop_
_space_group_symop_operation_xyz
x,y,z
-x,-y,z
x,-y,1/2-z
-x,y,1/2-z
-x,-y,-z
x,y,-z
-x,y,1/2+z
x,-y,1/2+z
1/2+x,1/2+y,1/2+z
1/2-x,1/2-y,1/2+z
1/2+x,1/2-y,-z
1/2-x,1/2+y,-z
1/2-x,1/2-y,1/2-z
1/2+x,1/2+y,1/2-z
1/2-x,1/2+y,z
1/2+x,1/2-y,z
loop_
_atom_site_type_symbol
_atom_site_label
_atom_site_fract_x
_atom_site_fract_y
_atom_site_fract_z
Si Si1 0.242858 0.700298 0.105842
Si Si2 0.986616 0.909842 0.604901
Si Si3 0.392870 0.587970 0.279939
Si Si4 0.699766 0.632917 0.107173
Si Si5 0.288294 0.911933 0.232270
Si Si6 0.159899 0.300314 0.895695
Si Si7 0.909265 0.170345 0.602136
O O1 0.208586 0.775480 0.120395
O O2 0.228461 0.634913 0.177564
O O3 0.297426 0.735714 0.118631
O O4 0.238793 0.675767 0.000000
O O5 0.968885 0.904926 0.500000
O O6 0.944495 0.889049 0.675444
O O7 0.034540 0.856407 0.611809
O O8 0.000000 0.000000 0.620355
O O9 0.395333 0.500000 0.250000
O O10 0.351224 0.605401 0.352575
O O11 0.382516 0.631490 0.186311
O O12 0.742348 0.591409 0.163399
O O13 0.703775 0.617482 0.000000
O O14 0.330277 0.864477 0.179504
O O15 0.301299 0.000000 0.250000
O O16 0.107476 0.258733 0.891819
O O17 0.167548 0.328633 0.000000
O O18 0.894121 0.144295 0.500000
#
# Coordination Sequence:
#
# PCOD9526522 Si02
#       7
#    16  16  16  16  16  16  16
#     4   9  18  33  51  68  96 130 166 207 251 300
#     4  10  20  34  47  67 100 135 171 214 250 290
#     4  12  21  30  48  69 100 138 172 211 256 293
#     4  10  21  35  49  70  99 137 174 209 250 301
#     4  11  20  32  51  75 101 128 161 213 262 305
#     4   9  18  34  52  69  93 131 170 208 249 302
#     4  10  20  32  49  68  92 132 178 211 248 298
#
# _framework density 16.055546
#
# number of rings (size 3 to 8) (size 9 to 14) (size 15 to 20)
#    0.000    1.857    1.429    6.000    0.000    1.714 
#    0.000    1.429    0.000    0.000    0.000    0.000 
#    0.000    9.143    0.000   41.143    0.000    0.143 
#
# Total GULP energy -312230.340942 kJ/mol
# GULP energy per Si atom -5575.541803 kJ/mol
# Density = 1.601900 g / cm^3
# Si number density = 16.055546 Si / 1000 Ang^3
#
#
#
# Elastic Constant Matrix: (Units=GPa)
#
#
# Indices 1 2 3 4 5 6 
#
# 1 49.3140 34.2169 27.1230 0.0000 0.0000 0.0000
# 2 34.2169 80.5355 57.6212 0.0000 0.0000 0.0000
# 3 27.1230 57.6212 113.3548 0.0000 0.0000 0.0000
# 4 0.0000 0.0000 0.0000 9.6349 0.0000 0.0000
# 5 0.0000 0.0000 0.0000 0.0000 4.1823 0.0000
# 6 0.0000 0.0000 0.0000 0.0000 0.0000 20.5407
#
#
#
# Elastic Compliance Matrix: (Units=1/GPa)
#
#
# Indices 1 2 3 4 5 6 
#
# 1 0.028835 -0.011496 -0.001056 0.000000 0.000000 0.000000
# 2 -0.011496 0.024097 -0.009498 0.000000 0.000000 0.000000
# 3 -0.001056 -0.009498 0.013903 0.000000 0.000000 0.000000
# 4 0.000000 0.000000 0.000000 0.103789 0.000000 0.000000
# 5 0.000000 0.000000 0.000000 0.000000 0.239102 0.000000
# 6 0.000000 0.000000 0.000000 0.000000 0.000000 0.048684
#
#
# Mechanical properties :
#
#
# Convention : Reuss Voigt Hill
#
# Bulk Modulus (GPa) = 43.98533 53.45850 48.72192
# Shear Modulus (GPa) = 9.80223 15.15448 12.47835
#
# Velocity S-wave (km/s) = 2.47355 3.07559 2.79085
# Velocity P-wave (km/s) = 5.96767 6.78090 6.38724
#
# Compressibility (1/GPa) = 0.02273485
#
# Stress axis : x y z
#
# Youngs Moduli (GPa) = 34.67955 41.49906 71.92756
#
# Poissons Ratio (x) = 0.47706 0.07596
# Poissons Ratio (y) = 0.39866 0.68320
# Poissons Ratio (z) = 0.03662 0.39418
#
# Static dielectric constant tensor:
#      x y z
#    x 1.559890 0.000000 0.000000 
#    y 0.000000 1.546600 0.000000 
#    z 0.000000 0.000000 1.562920 
# 
# From -- ./inp_files/25945.got.cif
#   From: 2010.05.17/outbox.cif.g08.bks.cpg/sg72_13_cif.got.tgz:25945.got - 2010.06.03 17:03:01.
