data_PCOD9526327
_publ_section_title
;
Structure prediction by ZEFSAII (Michael W. Deem and Ramdas Pophale) SiO2 
 PCOD9526327
Probable space group: I B A M
;
_chemical_formula_sum "Si O2"
_cell_formula_units_Z 116
_cell_length_a 18.958466
_cell_length_b 18.543361
_cell_length_c 18.995787
_cell_angle_alpha 90.000000
_cell_angle_beta 90.000000
_cell_angle_gamma 90.000000
_cell_volume 6678.038806
_symmetry_space_group_name_H-M "I B A M"
_symmetry_group_IT_number 72
_symmetry_cell_setting 'orthorhombic'
loop_
_space_group_symop_operation_xyz
x,y,z
-x,-y,z
x,-y,1/2-z
-x,y,1/2-z
-x,-y,-z
x,y,-z
-x,y,1/2+z
x,-y,1/2+z
1/2+x,1/2+y,1/2+z
1/2-x,1/2-y,1/2+z
1/2+x,1/2-y,-z
1/2-x,1/2+y,-z
1/2-x,1/2-y,1/2-z
1/2+x,1/2+y,1/2-z
1/2-x,1/2+y,z
1/2+x,1/2-y,z
loop_
_atom_site_type_symbol
_atom_site_label
_atom_site_fract_x
_atom_site_fract_y
_atom_site_fract_z
Si Si1 0.000000 0.500000 0.250000
Si Si2 0.389363 0.887856 0.246590
Si Si3 0.620931 0.208290 0.376465
Si Si4 0.157245 0.778138 0.582959
Si Si5 0.970259 0.731868 0.172754
Si Si6 0.745190 0.032683 0.181559
Si Si7 0.778644 0.837970 0.416658
Si Si8 0.772633 0.401843 0.922123
O O1 0.056978 0.555443 0.215904
O O2 0.364473 0.824653 0.298717
O O3 0.435183 0.845756 0.188728
O O4 0.323956 0.928489 0.213168
O O5 0.537754 0.221451 0.377071
O O6 0.661291 0.281381 0.394234
O O7 0.656387 0.145850 0.422547
O O8 0.137071 0.779499 0.500000
O O9 0.090601 0.777383 0.634769
O O10 0.205365 0.706524 0.593852
O O11 0.209877 0.845437 0.595276
O O12 0.000000 0.757088 0.250000
O O13 0.781704 0.092117 0.132536
O O14 0.784583 0.000000 0.250000
O O15 0.724011 0.965434 0.133310
O O16 0.784246 0.854161 0.500000
O O17 0.759700 0.431260 0.000000
#
# Coordination Sequence:
#
# PCOD9526327 Si02
#       8
#     4  16  16  16  16  16  16  16
#     4  12  16  32  48  76 130 152 174 210 282 336
#     4  11  20  31  52  82 116 153 185 223 274 340
#     4  10  19  36  57  83 109 149 194 236 281 330
#     4   9  19  36  57  78 109 153 193 235 284 338
#     4  10  20  34  54  84 113 149 186 236 279 334
#     4  12  22  34  55  84 114 153 188 234 287 340
#     4  10  22  38  57  80 114 152 194 243 285 331
#     4  10  21  37  56  80 114 152 194 236 285 345
#
# _framework density 17.370369
#
# number of rings (size 3 to 8) (size 9 to 14) (size 15 to 20)
#    0.000    1.655    5.517    1.655    0.000    3.862 
#    0.000    0.000    0.000    1.655    0.000    6.759 
#    0.000    0.000    0.000    0.000    0.000    0.000 
#
# Total GULP energy -322881.533845 kJ/mol
# GULP energy per Si atom -5566.922997 kJ/mol
# Density = 1.733083 g / cm^3
# Si number density = 17.370369 Si / 1000 Ang^3
#
#
#
# Elastic Constant Matrix: (Units=GPa)
#
#
# Indices 1 2 3 4 5 6 
#
# 1 60.4531 11.4046 42.7486 0.0000 0.0000 0.0000
# 2 11.4046 69.4521 54.6850 0.0000 0.0000 0.0000
# 3 42.7486 54.6850 91.1799 0.0000 0.0000 0.0000
# 4 0.0000 0.0000 0.0000 20.3534 0.0000 0.0000
# 5 0.0000 0.0000 0.0000 0.0000 25.9016 0.0000
# 6 0.0000 0.0000 0.0000 0.0000 0.0000 24.1190
#
#
#
# Elastic Compliance Matrix: (Units=1/GPa)
#
#
# Indices 1 2 3 4 5 6 
#
# 1 0.028667 0.011132 -0.020116 0.000000 0.000000 0.000000
# 2 0.011132 0.031604 -0.024174 0.000000 0.000000 0.000000
# 3 -0.020116 -0.024174 0.034897 0.000000 0.000000 0.000000
# 4 0.000000 0.000000 0.000000 0.049132 0.000000 0.000000
# 5 0.000000 0.000000 0.000000 0.000000 0.038608 0.000000
# 6 0.000000 0.000000 0.000000 0.000000 0.000000 0.041461
#
#
# Mechanical properties :
#
#
# Convention : Reuss Voigt Hill
#
# Bulk Modulus (GPa) = 34.66033 48.75128 41.70581
# Shear Modulus (GPa) = 16.64993 21.55793 19.10393
#
# Velocity S-wave (km/s) = 3.09936 3.52671 3.31992
# Velocity P-wave (km/s) = 5.72757 6.68658 6.22557
#
# Compressibility (1/GPa) = 0.02885143
#
# Stress axis : x y z
#
# Youngs Moduli (GPa) = 34.88363 31.64136 28.65598
#
# Poissons Ratio (x) = -0.35223 0.57645
# Poissons Ratio (y) = -0.38832 0.69272
# Poissons Ratio (z) = 0.70173 0.76489
#
# Static dielectric constant tensor:
#      x y z
#    x 1.596210 0.000000 0.000000 
#    y 0.000000 1.593200 0.000000 
#    z 0.000000 0.000000 1.649880 
# 
# From -- ./inp_files/31734.got.cif
#   From: 2010.05.17/outbox.cif.g08.bks.cpg/sg72_16_cif.got.tgz:31734.got - 2010.06.03 17:03:01.
