data_PCOD9526241
_publ_section_title
;
Structure prediction by ZEFSAII (Michael W. Deem and Ramdas Pophale) SiO2 
 PCOD9526241
Probable space group: I B A M
;
_chemical_formula_sum "Si O2"
_cell_formula_units_Z 112
_cell_length_a 11.651078
_cell_length_b 20.942252
_cell_length_c 24.267286
_cell_angle_alpha 90.000000
_cell_angle_beta 90.000000
_cell_angle_gamma 90.000000
_cell_volume 5921.213211
_symmetry_space_group_name_H-M "I B A M"
_symmetry_group_IT_number 72
_symmetry_cell_setting 'orthorhombic'
loop_
_space_group_symop_operation_xyz
x,y,z
-x,-y,z
x,-y,1/2-z
-x,y,1/2-z
-x,-y,-z
x,y,-z
-x,y,1/2+z
x,-y,1/2+z
1/2+x,1/2+y,1/2+z
1/2-x,1/2-y,1/2+z
1/2+x,1/2-y,-z
1/2-x,1/2+y,-z
1/2-x,1/2-y,1/2-z
1/2+x,1/2+y,1/2-z
1/2-x,1/2+y,z
1/2+x,1/2-y,z
loop_
_atom_site_type_symbol
_atom_site_label
_atom_site_fract_x
_atom_site_fract_y
_atom_site_fract_z
Si Si1 0.878006 0.562307 0.220148
Si Si2 0.480864 0.932833 0.103340
Si Si3 0.785274 0.824428 0.750233
Si Si4 0.606320 0.303260 0.641612
Si Si5 0.691061 0.842451 0.867753
Si Si6 0.397196 0.312973 0.562258
Si Si7 0.809133 0.331074 0.439340
O O1 0.824660 0.500000 0.250000
O O2 0.905707 0.549065 0.157053
O O3 0.807235 0.626952 0.224847
O O4 0.000000 0.572469 0.250000
O O5 0.595205 0.896757 0.125172
O O6 0.405866 0.883728 0.068861
O O7 0.500000 0.000000 0.073841
O O8 0.750000 0.750000 0.750000
O O9 0.888892 0.824669 0.705655
O O10 0.775390 0.845000 0.814265
O O11 0.625596 0.226118 0.637650
O O12 0.495015 0.323539 0.607573
O O13 0.714922 0.331832 0.608571
O O14 0.776338 0.843210 0.919541
O O15 0.430324 0.330969 0.500000
O O16 0.370983 0.237362 0.563360
O O17 0.754632 0.336442 0.500000
#
# Coordination Sequence:
#
# PCOD9526241 Si02
#       7
#    16  16  16  16  16  16  16
#     4  11  19  34  57  85 116 159 185 221 290 367
#     4  12  21  35  59  85 118 152 189 233 287 351
#     4  10  20  32  52  87 122 146 183 246 291 340
#     4  10  19  35  57  81 113 154 192 238 293 350
#     4  10  21  34  52  88 120 149 189 236 297 348
#     4  10  21  37  57  79 114 157 193 241 296 348
#     4  10  21  35  54  81 113 150 197 243 284 339
#
# _framework density 18.915043000000001
#
# number of rings (size 3 to 8) (size 9 to 14) (size 15 to 20)
#    0.000    1.571    5.714    0.429    0.000    2.000 
#    0.000    0.000    0.000    0.857    0.000    3.000 
#    0.000    0.000    0.000    0.000    0.000    0.000 
#
# Total GULP energy -312017.774868 kJ/mol
# GULP energy per Si atom -5571.745980 kJ/mol
# Density = 1.887199 g / cm^3
# Si number density = 18.915043 Si / 1000 Ang^3
#
#
#
# Elastic Constant Matrix: (Units=GPa)
#
#
# Indices 1 2 3 4 5 6 
#
# 1 52.7013 38.3028 24.2349 0.0000 0.0000 0.0000
# 2 38.3028 94.5956 20.1473 0.0000 0.0000 0.0000
# 3 24.2349 20.1473 77.3607 0.0000 0.0000 0.0000
# 4 0.0000 0.0000 0.0000 8.2040 0.0000 0.0000
# 5 0.0000 0.0000 0.0000 0.0000 26.1306 0.0000
# 6 0.0000 0.0000 0.0000 0.0000 0.0000 24.5521
#
#
#
# Elastic Compliance Matrix: (Units=1/GPa)
#
#
# Indices 1 2 3 4 5 6 
#
# 1 0.029713 -0.010639 -0.006538 0.000000 0.000000 0.000000
# 2 -0.010639 0.015001 -0.000574 0.000000 0.000000 0.000000
# 3 -0.006538 -0.000574 0.015124 0.000000 0.000000 0.000000
# 4 0.000000 0.000000 0.000000 0.121892 0.000000 0.000000
# 5 0.000000 0.000000 0.000000 0.000000 0.038269 0.000000
# 6 0.000000 0.000000 0.000000 0.000000 0.000000 0.040730
#
#
# Mechanical properties :
#
#
# Convention : Reuss Voigt Hill
#
# Bulk Modulus (GPa) = 41.08844 43.33640 42.21242
# Shear Modulus (GPa) = 16.42880 21.24218 18.83549
#
# Velocity S-wave (km/s) = 2.95033 3.35480 3.15904
# Velocity P-wave (km/s) = 5.77717 6.16174 5.97255
#
# Compressibility (1/GPa) = 0.02433775
#
# Stress axis : x y z
#
# Youngs Moduli (GPa) = 33.65480 66.66061 66.12001
#
# Poissons Ratio (x) = 0.70919 0.43227
# Poissons Ratio (y) = 0.35805 0.03795
# Poissons Ratio (z) = 0.22002 0.03826
#
# Static dielectric constant tensor:
#      x y z
#    x 1.662160 0.000000 0.000000 
#    y 0.000000 1.642820 0.000000 
#    z 0.000000 0.000000 1.703880 
# 
# From -- ./inp_files/43542.got.cif
#   From: 2010.05.17/outbox.cif.g08.bks.cpg/sg72_22_cif.got.tgz:43542.got - 2010.06.03 17:03:01.
