data_PCOD9526622
_publ_section_title
;
Structure prediction by ZEFSAII (Michael W. Deem and Ramdas Pophale) SiO2 
 PCOD9526622
Probable space group: I B A M
;
_chemical_formula_sum "Si O2"
_cell_formula_units_Z 116
_cell_length_a 30.228871
_cell_length_b 11.280257
_cell_length_c 17.987269
_cell_angle_alpha 90.000000
_cell_angle_beta 90.000000
_cell_angle_gamma 90.000000
_cell_volume 6133.468670
_symmetry_space_group_name_H-M "I B A M"
_symmetry_group_IT_number 72
_symmetry_cell_setting 'orthorhombic'
loop_
_space_group_symop_operation_xyz
x,y,z
-x,-y,z
x,-y,1/2-z
-x,y,1/2-z
-x,-y,-z
x,y,-z
-x,y,1/2+z
x,-y,1/2+z
1/2+x,1/2+y,1/2+z
1/2-x,1/2-y,1/2+z
1/2+x,1/2-y,-z
1/2-x,1/2+y,-z
1/2-x,1/2-y,1/2-z
1/2+x,1/2+y,1/2-z
1/2-x,1/2+y,z
1/2+x,1/2-y,z
loop_
_atom_site_type_symbol
_atom_site_label
_atom_site_fract_x
_atom_site_fract_y
_atom_site_fract_z
Si Si1 0.091856 0.377239 0.206850
Si Si2 0.538665 0.301536 0.693514
Si Si3 0.668620 0.434581 0.914839
Si Si4 0.717700 0.605869 0.810121
Si Si5 0.811784 0.713956 0.809586
Si Si6 0.517549 0.134650 0.086484
Si Si7 0.000000 0.000000 0.500000
Si Si8 0.067619 0.001386 0.584995
O O1 0.082319 0.500000 0.250000
O O2 0.074635 0.270077 0.258443
O O3 0.143908 0.362426 0.193129
O O4 0.063886 0.365955 0.131193
O O5 0.500000 0.340538 0.750000
O O6 0.517111 0.211118 0.634668
O O7 0.561627 0.409747 0.651393
O O8 0.689499 0.551625 0.877281
O O9 0.682290 0.319927 0.868459
O O10 0.615288 0.445734 0.913400
O O11 0.682638 0.425497 0.000000
O O12 0.718807 0.500000 0.750000
O O13 0.767919 0.640287 0.828733
O O14 0.696442 0.719938 0.769560
O O15 0.500000 0.000000 0.088874
O O16 0.521422 0.167249 0.000000
O O17 0.974565 0.079480 0.569488
O O18 0.058276 0.061726 0.500000
#
# Coordination Sequence:
#
# PCOD9526622 Si02
#       8
#    16  16  16  16  16  16   4  16
#     4  11  21  35  55  82 117 143 191 245 286 330
#     4  10  20  33  55  81 107 150 195 242 280 338
#     4  10  21  38  60  84 118 150 186 241 286 344
#     4   9  19  39  62  84 115 148 186 231 294 351
#     4  10  21  36  60  89 111 149 191 232 291 358
#     4  10  20  35  53  74 109 155 192 234 288 341
#     4   8  20  36  58  72 114 152 186 244 260 348
#     4   9  19  37  56  78 113 151 189 231 290 337
#
# _framework density 18.912625999999999
#
# number of rings (size 3 to 8) (size 9 to 14) (size 15 to 20)
#    0.414    1.793    1.379    1.655    0.000    3.310 
#    0.000    1.724    0.000    0.000    0.000    0.000 
#    0.000    0.000    0.000    0.000    0.000    0.000 
#
# Total GULP energy -323156.373397 kJ/mol
# GULP energy per Si atom -5571.661610 kJ/mol
# Density = 1.886958 g / cm^3
# Si number density = 18.912626 Si / 1000 Ang^3
#
#
#
# Elastic Constant Matrix: (Units=GPa)
#
#
# Indices 1 2 3 4 5 6 
#
# 1 88.9148 -10.7723 16.7739 0.0000 0.0000 0.0000
# 2 -10.7723 25.0476 8.9793 0.0000 0.0000 0.0000
# 3 16.7739 8.9793 101.6882 0.0000 0.0000 0.0000
# 4 0.0000 0.0000 0.0000 21.9048 0.0000 0.0000
# 5 0.0000 0.0000 0.0000 0.0000 25.1553 0.0000
# 6 0.0000 0.0000 0.0000 0.0000 0.0000 25.9472
#
#
#
# Elastic Compliance Matrix: (Units=1/GPa)
#
#
# Indices 1 2 3 4 5 6 
#
# 1 0.012507 0.006318 -0.002621 0.000000 0.000000 0.000000
# 2 0.006318 0.044421 -0.004965 0.000000 0.000000 0.000000
# 3 -0.002621 -0.004965 0.010705 0.000000 0.000000 0.000000
# 4 0.000000 0.000000 0.000000 0.045652 0.000000 0.000000
# 5 0.000000 0.000000 0.000000 0.000000 0.039753 0.000000
# 6 0.000000 0.000000 0.000000 0.000000 0.000000 0.038540
#
#
# Mechanical properties :
#
#
# Convention : Reuss Voigt Hill
#
# Bulk Modulus (GPa) = 15.36151 27.29025 21.32588
# Shear Modulus (GPa) = 23.16840 27.97945 25.57392
#
# Velocity S-wave (km/s) = 3.50383 3.85048 3.68124
# Velocity P-wave (km/s) = 4.95066 5.85057 5.41933
#
# Compressibility (1/GPa) = 0.06509779
#
# Stress axis : x y z
#
# Youngs Moduli (GPa) = 79.95746 22.51186 93.41681
#
# Poissons Ratio (x) = -0.14224 0.24484
# Poissons Ratio (y) = -0.50520 0.46379
# Poissons Ratio (z) = 0.20956 0.11176
#
# Static dielectric constant tensor:
#      x y z
#    x 1.669160 0.000000 0.000000 
#    y 0.000000 1.684320 0.000000 
#    z 0.000000 0.000000 1.675450 
# 
# From -- ./inp_files/34326.got.cif
#   From: 2010.05.17/outbox.cif.g08.bks.cpg/sg72_18_cif.got.tgz:34326.got - 2010.06.03 17:03:01.
