data_PCOD9526476
_publ_section_title
;
Structure prediction by ZEFSAII (Michael W. Deem and Ramdas Pophale) SiO2 
 PCOD9526476
Probable space group: I B A M
;
_chemical_formula_sum "Si O2"
_cell_formula_units_Z 96
_cell_length_a 21.347978
_cell_length_b 15.633021
_cell_length_c 15.560833
_cell_angle_alpha 90.000000
_cell_angle_beta 90.000000
_cell_angle_gamma 90.000000
_cell_volume 5193.169523
_symmetry_space_group_name_H-M "I B A M"
_symmetry_group_IT_number 72
_symmetry_cell_setting 'orthorhombic'
loop_
_space_group_symop_operation_xyz
x,y,z
-x,-y,z
x,-y,1/2-z
-x,y,1/2-z
-x,-y,-z
x,y,-z
-x,y,1/2+z
x,-y,1/2+z
1/2+x,1/2+y,1/2+z
1/2-x,1/2-y,1/2+z
1/2+x,1/2-y,-z
1/2-x,1/2+y,-z
1/2-x,1/2-y,1/2-z
1/2+x,1/2+y,1/2-z
1/2-x,1/2+y,z
1/2+x,1/2-y,z
loop_
_atom_site_type_symbol
_atom_site_label
_atom_site_fract_x
_atom_site_fract_y
_atom_site_fract_z
Si Si1 0.512069 0.138800 0.000000
Si Si2 0.697576 0.034950 0.340075
Si Si3 0.469855 0.763322 0.339036
Si Si4 0.326174 0.783429 0.394648
Si Si5 0.105887 0.509734 0.000000
Si Si6 0.308807 0.585745 0.602935
Si Si7 0.952698 0.076375 0.896685
O O1 0.508484 0.195803 0.916041
O O2 0.572821 0.081158 0.000000
O O3 0.450409 0.078288 0.000000
O O4 0.709511 0.137101 0.350285
O O5 0.671267 0.000000 0.250000
O O6 0.648468 0.019129 0.416362
O O7 0.758919 0.977300 0.355393
O O8 0.500000 0.792030 0.250000
O O9 0.397132 0.786395 0.357575
O O10 0.472931 0.661464 0.348266
O O11 0.327604 0.792937 0.500000
O O12 0.301535 0.687199 0.376595
O O13 0.301770 0.578336 0.500000
O O14 0.380068 0.559538 0.624902
O O15 0.954042 0.093914 0.000000
O O16 0.000000 0.000000 0.878599
#
# Coordination Sequence:
#
# PCOD9526476 Si02
#       7
#     8  16  16  16   8  16  16
#     4  11  22  40  60  87 119 155 199 253 294 360
#     4  12  23  39  62  90 121 161 200 249 298 361
#     4  11  20  35  60  89 118 159 197 245 303 361
#     4  10  19  41  65  83 118 165 204 243 303 365
#     4  11  24  40  61  85 124 155 198 247 301 356
#     4   9  19  38  65  84 113 161 204 244 300 357
#     4   9  18  37  63  87 117 157 202 250 301 354
#
# _framework density 18.48582
#
# number of rings (size 3 to 8) (size 9 to 14) (size 15 to 20)
#    0.000    1.667    5.000    1.000    2.333    1.000 
#    6.000    3.333    0.000    0.000    0.000    0.000 
#    0.000    0.000    0.000    0.000    0.000    0.000 
#
# Total GULP energy -267798.672807 kJ/mol
# GULP energy per Si atom -5579.139017 kJ/mol
# Density = 1.844375 g / cm^3
# Si number density = 18.485820 Si / 1000 Ang^3
#
#
#
# Elastic Constant Matrix: (Units=GPa)
#
#
# Indices 1 2 3 4 5 6 
#
# 1 55.9100 49.5982 27.3282 0.0000 0.0000 0.0000
# 2 49.5982 104.5196 36.9291 0.0000 0.0000 0.0000
# 3 27.3282 36.9291 99.4840 0.0000 0.0000 0.0000
# 4 0.0000 0.0000 0.0000 31.4653 0.0000 0.0000
# 5 0.0000 0.0000 0.0000 0.0000 8.1129 0.0000
# 6 0.0000 0.0000 0.0000 0.0000 0.0000 38.7693
#
#
#
# Elastic Compliance Matrix: (Units=1/GPa)
#
#
# Indices 1 2 3 4 5 6 
#
# 1 0.031988 -0.013897 -0.003628 0.000000 0.000000 0.000000
# 2 -0.013897 0.017050 -0.002511 0.000000 0.000000 0.000000
# 3 -0.003628 -0.002511 0.011981 0.000000 0.000000 0.000000
# 4 0.000000 0.000000 0.000000 0.031781 0.000000 0.000000
# 5 0.000000 0.000000 0.000000 0.000000 0.123260 0.000000
# 6 0.000000 0.000000 0.000000 0.000000 0.000000 0.025794
#
#
# Mechanical properties :
#
#
# Convention : Reuss Voigt Hill
#
# Bulk Modulus (GPa) = 47.74565 54.18051 50.96308
# Shear Modulus (GPa) = 17.30653 25.40672 21.35663
#
# Velocity S-wave (km/s) = 3.06307 3.71130 3.40265
# Velocity P-wave (km/s) = 6.19630 6.90926 6.56247
#
# Compressibility (1/GPa) = 0.02094432
#
# Stress axis : x y z
#
# Youngs Moduli (GPa) = 31.26194 58.65208 83.46713
#
# Poissons Ratio (x) = 0.81511 0.30284
# Poissons Ratio (y) = 0.43446 0.20962
# Poissons Ratio (z) = 0.11343 0.14730
#
# Static dielectric constant tensor:
#      x y z
#    x 1.622370 0.000000 0.000000 
#    y 0.000000 1.660720 0.000000 
#    z 0.000000 0.000000 1.618940 
# 
# From -- ./inp_files/24189.got.cif
#   From: 2010.05.17/outbox.cif.g08.bks.cpg/sg72_13_cif.got.tgz:24189.got - 2010.06.03 17:03:01.
