data_PCOD9526260
_publ_section_title
;
Structure prediction by ZEFSAII (Michael W. Deem and Ramdas Pophale) SiO2 
 PCOD9526260
Probable space group: I B A M
;
_chemical_formula_sum "Si O2"
_cell_formula_units_Z 112
_cell_length_a 12.165309
_cell_length_b 29.073219
_cell_length_c 16.701107
_cell_angle_alpha 90.000000
_cell_angle_beta 90.000000
_cell_angle_gamma 90.000000
_cell_volume 5906.925898
_symmetry_space_group_name_H-M "I B A M"
_symmetry_group_IT_number 72
_symmetry_cell_setting 'orthorhombic'
loop_
_space_group_symop_operation_xyz
x,y,z
-x,-y,z
x,-y,1/2-z
-x,y,1/2-z
-x,-y,-z
x,y,-z
-x,y,1/2+z
x,-y,1/2+z
1/2+x,1/2+y,1/2+z
1/2-x,1/2-y,1/2+z
1/2+x,1/2-y,-z
1/2-x,1/2+y,-z
1/2-x,1/2-y,1/2-z
1/2+x,1/2+y,1/2-z
1/2-x,1/2+y,z
1/2+x,1/2-y,z
loop_
_atom_site_type_symbol
_atom_site_label
_atom_site_fract_x
_atom_site_fract_y
_atom_site_fract_z
Si Si1 0.631337 0.167801 0.097351
Si Si2 0.314458 0.605994 0.329147
Si Si3 0.878859 0.338299 0.903853
Si Si4 0.206980 0.911095 0.641787
Si Si5 0.483730 0.345148 0.407828
Si Si6 0.873407 0.991616 0.595941
Si Si7 0.189432 0.229573 0.902510
O O1 0.703668 0.128697 0.137935
O O2 0.504097 0.165413 0.122970
O O3 0.679889 0.217620 0.120592
O O4 0.637077 0.163803 0.000000
O O5 0.312271 0.599259 0.234628
O O6 0.414495 0.639041 0.355285
O O7 0.334331 0.556520 0.368916
O O8 0.819400 0.386155 0.883151
O O9 0.797147 0.297918 0.873817
O O10 0.881168 0.334155 0.000000
O O11 0.108336 0.885295 0.594851
O O12 0.197683 0.964909 0.624387
O O13 0.520311 0.338739 0.500000
O O14 0.418533 0.299840 0.379769
O O15 0.870851 0.989485 0.500000
O O16 0.000000 0.000000 0.621331
O O17 0.190946 0.228174 0.000000
#
# Coordination Sequence:
#
# PCOD9526260 Si02
#       7
#    16  16  16  16  16  16  16
#     4  10  21  37  59  87 119 157 203 255 296 343
#     4  12  24  35  57  91 129 154 188 249 310 357
#     4   9  19  38  61  82 112 159 210 247 287 352
#     4  11  22  38  59  83 121 160 194 236 301 365
#     4  10  19  35  58  85 116 153 199 244 288 349
#     4  11  22  38  63  91 118 153 197 247 298 355
#     4   8  17  33  59  87 111 150 206 252 291 339
#
# _framework density 18.960794
#
# number of rings (size 3 to 8) (size 9 to 14) (size 15 to 20)
#    0.000    1.857    1.429    4.286    2.000    1.143 
#    0.000    3.571    6.286    4.286    0.000    0.000 
#    0.000    0.000    0.000    0.000    0.000    0.000 
#
# Total GULP energy -312864.647199 kJ/mol
# GULP energy per Si atom -5586.868700 kJ/mol
# Density = 1.891764 g / cm^3
# Si number density = 18.960794 Si / 1000 Ang^3
#
#
#
# Elastic Constant Matrix: (Units=GPa)
#
#
# Indices 1 2 3 4 5 6 
#
# 1 111.6031 52.4628 13.1202 -0.0001 0.0000 0.0000
# 2 52.4628 84.2451 -10.2078 -0.0002 0.0000 0.0000
# 3 13.1202 -10.2078 23.1751 -0.0004 0.0000 0.0000
# 4 -0.0001 -0.0002 -0.0004 -10.2426 0.0000 0.0000
# 5 0.0000 0.0000 0.0000 0.0000 10.3655 0.0000
# 6 0.0000 0.0000 0.0000 0.0000 0.0000 20.8274
#
#
#
# Elastic Compliance Matrix: (Units=1/GPa)
#
#
# Indices 1 2 3 4 5 6 
#
# 1 0.016223 -0.011848 -0.014403 0.000001 0.000000 0.000000
# 2 -0.011848 0.021192 0.016042 -0.000001 0.000000 0.000000
# 3 -0.014403 0.016042 0.058370 -0.000002 0.000000 0.000000
# 4 0.000001 -0.000001 -0.000002 -0.097632 0.000000 0.000000
# 5 0.000000 0.000000 0.000000 0.000000 0.096474 0.000000
# 6 0.000000 0.000000 0.000000 0.000000 0.000000 0.048014
#
#
# Mechanical properties :
#
#
# Convention : Reuss Voigt Hill
#
# Bulk Modulus (GPa) = 13.26848 36.64151 24.95499
# Shear Modulus (GPa) = 26.57012 15.09994 20.83503
#
# Velocity S-wave (km/s) = 3.74748 2.82508 3.31848
# Velocity P-wave (km/s) = 5.07325 5.47798 5.27949
#
# Compressibility (1/GPa) = 0.07536661
#
# Stress axis : x y z
#
# Youngs Moduli (GPa) = 61.64056 47.18739 17.13221
#
# Poissons Ratio (x) = 0.55907 0.24676
# Poissons Ratio (y) = 0.73031 -0.27483
# Poissons Ratio (z) = 0.88781 -0.75697
#
# Static dielectric constant tensor:
#      x y z
#    x 1.651390 0.000000 0.000000 
#    y 0.000000 1.644140 0.000000 
#    z 0.000000 0.000000 1.652180 
# 
# From -- ./inp_files/20672.got.cif
#   From: 2010.05.17/outbox.cif.g08.bks.cpg/sg72_11_cif.got.tgz:20672.got - 2010.06.03 17:03:01.
