data_PCOD9526573
_publ_section_title
;
Structure prediction by ZEFSAII (Michael W. Deem and Ramdas Pophale) SiO2 
 PCOD9526573
Probable space group: I B A M
;
_chemical_formula_sum "Si O2"
_cell_formula_units_Z 80
_cell_length_a 33.339046
_cell_length_b 14.775282
_cell_length_c 8.880289
_cell_angle_alpha 90.000000
_cell_angle_beta 90.000000
_cell_angle_gamma 90.000000
_cell_volume 4374.375359
_symmetry_space_group_name_H-M "I B A M"
_symmetry_group_IT_number 72
_symmetry_cell_setting 'orthorhombic'
loop_
_space_group_symop_operation_xyz
x,y,z
-x,-y,z
x,-y,1/2-z
-x,y,1/2-z
-x,-y,-z
x,y,-z
-x,y,1/2+z
x,-y,1/2+z
1/2+x,1/2+y,1/2+z
1/2-x,1/2-y,1/2+z
1/2+x,1/2-y,-z
1/2-x,1/2+y,-z
1/2-x,1/2-y,1/2-z
1/2+x,1/2+y,1/2-z
1/2-x,1/2+y,z
1/2+x,1/2-y,z
loop_
_atom_site_type_symbol
_atom_site_label
_atom_site_fract_x
_atom_site_fract_y
_atom_site_fract_z
Si Si1 0.637630 0.409724 0.677955
Si Si2 0.199652 0.658032 0.671239
Si Si3 0.616710 0.794353 0.818589
Si Si4 0.542243 0.100369 0.181281
Si Si5 0.220583 0.127917 0.829837
O O1 0.619416 0.500000 0.750000
O O2 0.635295 0.417010 0.500000
O O3 0.619373 0.312463 0.722057
O O4 0.683983 0.405100 0.728776
O O5 0.194827 0.624911 0.500000
O O6 0.157712 0.659199 0.759551
O O7 0.213376 0.763489 0.662263
O O8 0.236105 0.610725 0.758122
O O9 0.578899 0.839319 0.738728
O O10 0.614451 0.802221 0.000000
O O11 0.500000 0.133823 0.250000
O O12 0.547923 0.000000 0.250000
O O13 0.540405 0.096410 0.000000
O O14 0.217769 0.092338 0.000000
#
# Coordination Sequence:
#
# PCOD9526573 Si02
#       5
#    16  16  16  16  16
#     4  10  20  33  51  75 107 146 189 232 270 314
#     4   9  16  27  45  70  99 134 176 220 267 315
#     4  10  20  35  55  81 111 144 181 222 270 322
#     4  11  22  39  63  89 115 141 170 209 260 321
#     4   9  16  27  44  66  96 135 179 224 268 312
#
# _framework density 18.288325
#
# number of rings (size 3 to 8) (size 9 to 14) (size 15 to 20)
#    0.000    2.200    0.000    4.800    0.000    7.200 
#    0.000    1.000    0.000    0.600    0.000    4.200 
#    0.000    0.000    0.000    0.000    0.000    0.000 
#
# Total GULP energy -223266.025832 kJ/mol
# GULP energy per Si atom -5581.650646 kJ/mol
# Density = 1.824670 g / cm^3
# Si number density = 18.288325 Si / 1000 Ang^3
#
#
#
# Elastic Constant Matrix: (Units=GPa)
#
#
# Indices 1 2 3 4 5 6 
#
# 1 141.8365 55.7579 69.3855 0.0000 0.0000 0.0000
# 2 55.7579 56.6845 32.5146 0.0000 0.0000 0.0000
# 3 69.3855 32.5146 106.9966 0.0000 0.0000 0.0000
# 4 0.0000 0.0000 0.0000 24.4261 0.0000 0.0000
# 5 0.0000 0.0000 0.0000 0.0000 29.4483 0.0000
# 6 0.0000 0.0000 0.0000 0.0000 0.0000 0.9843
#
#
#
# Elastic Compliance Matrix: (Units=1/GPa)
#
#
# Indices 1 2 3 4 5 6 
#
# 1 0.014054 -0.010411 -0.005950 0.000000 0.000000 0.000000
# 2 -0.010411 0.029078 -0.002085 0.000000 0.000000 0.000000
# 3 -0.005950 -0.002085 0.013838 0.000000 0.000000 0.000000
# 4 0.000000 0.000000 0.000000 0.040940 0.000000 0.000000
# 5 0.000000 0.000000 0.000000 0.000000 0.033958 0.000000
# 6 0.000000 0.000000 0.000000 0.000000 0.000000 1.015966
#
#
# Mechanical properties :
#
#
# Convention : Reuss Voigt Hill
#
# Bulk Modulus (GPa) = 49.80520 68.98151 59.39336
# Shear Modulus (GPa) = 4.19668 20.82905 12.51286
#
# Velocity S-wave (km/s) = 1.51648 3.37846 2.61856
# Velocity P-wave (km/s) = 5.50988 7.28144 6.45671
#
# Compressibility (1/GPa) = 0.02007822
#
# Stress axis : x y z
#
# Youngs Moduli (GPa) = 71.15528 34.38974 72.26436
#
# Poissons Ratio (x) = 0.35804 0.42996
# Poissons Ratio (y) = 0.74081 0.15067
# Poissons Ratio (z) = 0.42336 0.07170
#
# Static dielectric constant tensor:
#      x y z
#    x 1.593490 0.000000 0.000000 
#    y 0.000000 1.684550 0.000000 
#    z 0.000000 0.000000 1.621930 
# 
# From -- ./inp_files/9021.got.cif
#   From: 2010.05.17/outbox.cif.g08.bks.cpg/sg72_5_cif.got.tgz:9021.got - 2010.06.03 17:03:01.
