data_PCOD9526324
_publ_section_title
;
Structure prediction by ZEFSAII (Michael W. Deem and Ramdas Pophale) SiO2 
 PCOD9526324
Probable space group: I B A M
;
_chemical_formula_sum "Si O2"
_cell_formula_units_Z 88
_cell_length_a 13.480562
_cell_length_b 10.290599
_cell_length_c 28.112737
_cell_angle_alpha 90.000000
_cell_angle_beta 90.000000
_cell_angle_gamma 90.000000
_cell_volume 3899.884841
_symmetry_space_group_name_H-M "I B A M"
_symmetry_group_IT_number 72
_symmetry_cell_setting 'orthorhombic'
loop_
_space_group_symop_operation_xyz
x,y,z
-x,-y,z
x,-y,1/2-z
-x,y,1/2-z
-x,-y,-z
x,y,-z
-x,y,1/2+z
x,-y,1/2+z
1/2+x,1/2+y,1/2+z
1/2-x,1/2-y,1/2+z
1/2+x,1/2-y,-z
1/2-x,1/2+y,-z
1/2-x,1/2-y,1/2-z
1/2+x,1/2+y,1/2-z
1/2-x,1/2+y,z
1/2+x,1/2-y,z
loop_
_atom_site_type_symbol
_atom_site_label
_atom_site_fract_x
_atom_site_fract_y
_atom_site_fract_z
Si Si1 0.857882 0.094695 0.891043
Si Si2 0.135395 0.069367 0.500000
Si Si3 0.130497 0.634556 0.722415
Si Si4 0.189353 0.615764 0.101557
Si Si5 0.500000 0.000000 0.652999
Si Si6 0.773099 0.660464 0.500000
Si Si7 0.364569 0.381974 0.786861
O O1 0.906075 0.090213 0.945102
O O2 0.797937 0.231122 0.889895
O O3 0.911460 0.099765 0.839333
O O4 0.785240 0.970749 0.887586
O O5 0.221520 0.182483 0.500000
O O6 0.169915 0.918870 0.500000
O O7 0.118453 0.500000 0.750000
O O8 0.244835 0.632560 0.705876
O O9 0.111294 0.752571 0.757671
O O10 0.051650 0.618837 0.680990
O O11 0.092696 0.562920 0.126697
O O12 0.171836 0.607854 0.045712
O O13 0.381399 0.500000 0.750000
#
# Coordination Sequence:
#
# PCOD9526324 Si02
#       7
#    16   8  16  16   8   8  16
#     4  10  19  36  56  85 110 153 195 241 287 361
#     4   8  16  30  54  78 112 140 192 244 286 332
#     4  10  21  35  54  80 113 152 195 235 293 343
#     4  10  21  34  61  83 119 152 198 242 300 343
#     4  12  21  35  56  90 114 157 188 254 295 356
#     4   8  16  33  50  86 112 149 190 244 290 353
#     4  10  21  35  57  85 112 154 197 240 282 358
#
# _framework density 22.564768999999998
#
# number of rings (size 3 to 8) (size 9 to 14) (size 15 to 20)
#    0.000    2.182    1.818    1.364    5.091    0.364 
#    0.000    0.000    0.000   14.182    0.000    1.273 
#    0.000   34.909    0.000    0.000    0.000    0.000 
#
# Total GULP energy -245039.097543 kJ/mol
# GULP energy per Si atom -5569.070399 kJ/mol
# Density = 2.251341 g / cm^3
# Si number density = 22.564769 Si / 1000 Ang^3
#
#
#
# Elastic Constant Matrix: (Units=GPa)
#
#
# Indices 1 2 3 4 5 6 
#
# 1 41.6711 8.5929 7.7963 0.0000 0.0000 0.0000
# 2 8.5929 143.2327 45.9676 0.0000 0.0000 0.0000
# 3 7.7963 45.9676 191.8599 0.0000 0.0000 0.0000
# 4 0.0000 0.0000 0.0000 30.2847 0.0000 0.0000
# 5 0.0000 0.0000 0.0000 0.0000 12.8648 0.0000
# 6 0.0000 0.0000 0.0000 0.0000 0.0000 20.3948
#
#
#
# Elastic Compliance Matrix: (Units=1/GPa)
#
#
# Indices 1 2 3 4 5 6 
#
# 1 0.024383 -0.001240 -0.000694 0.000000 0.000000 0.000000
# 2 -0.001240 0.007626 -0.001777 0.000000 0.000000 0.000000
# 3 -0.000694 -0.001777 0.005666 0.000000 0.000000 0.000000
# 4 0.000000 0.000000 0.000000 0.033020 0.000000 0.000000
# 5 0.000000 0.000000 0.000000 0.000000 0.077732 0.000000
# 6 0.000000 0.000000 0.000000 0.000000 0.000000 0.049032
#
#
# Mechanical properties :
#
#
# Convention : Reuss Voigt Hill
#
# Bulk Modulus (GPa) = 33.05349 55.71971 44.38660
# Shear Modulus (GPa) = 23.25961 33.66931 28.46446
#
# Velocity S-wave (km/s) = 3.21408 3.86699 3.55555
# Velocity P-wave (km/s) = 5.33421 6.68468 6.04726
#
# Compressibility (1/GPa) = 0.03025399
#
# Stress axis : x y z
#
# Youngs Moduli (GPa) = 41.01221 131.12570 176.49070
#
# Poissons Ratio (x) = 0.16262 0.12243
# Poissons Ratio (y) = 0.05086 0.31358
# Poissons Ratio (z) = 0.02845 0.23298
#
# Static dielectric constant tensor:
#      x y z
#    x 1.863670 0.000000 0.000000 
#    y 0.000000 1.819270 0.000000 
#    z 0.000000 0.000000 1.933240 
# 
# From -- ./inp_files/48615.got.cif
#   From: 2010.05.17/outbox.cif.g08.bks.cpg/sg72_25_cif.got.tgz:48615.got - 2010.06.03 17:03:01.
