data_PCOD9526596
_publ_section_title
;
Structure prediction by ZEFSAII (Michael W. Deem and Ramdas Pophale) SiO2 
 PCOD9526596
Probable space group: I B A M
;
_chemical_formula_sum "Si O2"
_cell_formula_units_Z 112
_cell_length_a 15.302213
_cell_length_b 27.645873
_cell_length_c 13.997891
_cell_angle_alpha 90.000000
_cell_angle_beta 90.000000
_cell_angle_gamma 90.000000
_cell_volume 5921.710323
_symmetry_space_group_name_H-M "I B A M"
_symmetry_group_IT_number 72
_symmetry_cell_setting 'orthorhombic'
loop_
_space_group_symop_operation_xyz
x,y,z
-x,-y,z
x,-y,1/2-z
-x,y,1/2-z
-x,-y,-z
x,y,-z
-x,y,1/2+z
x,-y,1/2+z
1/2+x,1/2+y,1/2+z
1/2-x,1/2-y,1/2+z
1/2+x,1/2-y,-z
1/2-x,1/2+y,-z
1/2-x,1/2-y,1/2-z
1/2+x,1/2+y,1/2-z
1/2-x,1/2+y,z
1/2+x,1/2-y,z
loop_
_atom_site_type_symbol
_atom_site_label
_atom_site_fract_x
_atom_site_fract_y
_atom_site_fract_z
Si Si1 0.877056 0.358140 0.605914
Si Si2 0.540256 0.755796 0.384211
Si Si3 0.091914 0.153101 0.211536
Si Si4 0.893857 0.556345 0.745530
Si Si5 0.346497 0.785701 0.387879
Si Si6 0.191832 0.185493 0.396694
Si Si7 0.737327 0.115448 0.615905
O O1 0.917134 0.366027 0.500000
O O2 0.916619 0.307421 0.644656
O O3 0.879287 0.405999 0.668352
O O4 0.776105 0.346444 0.595745
O O5 0.548644 0.753281 0.500000
O O6 0.572920 0.704156 0.343850
O O7 0.439104 0.764753 0.355041
O O8 0.137328 0.167214 0.309894
O O9 0.162253 0.119800 0.154291
O O10 0.000000 0.131402 0.250000
O O11 0.869068 0.500000 0.750000
O O12 0.832006 0.577355 0.660212
O O13 0.000000 0.556707 0.750000
O O14 0.359636 0.796443 0.500000
O O15 0.280487 0.741087 0.379570
O O16 0.305825 0.833923 0.347841
O O17 0.144502 0.185593 0.500000
O O18 0.739188 0.112526 0.500000
#
# Coordination Sequence:
#
# PCOD9526596 Si02
#       7
#    16  16  16  16  16  16  16
#     4  10  21  38  59  82 116 162 205 247 300 365
#     4  10  20  33  52  85 124 165 209 248 293 360
#     4  12  23  35  58  91 125 172 210 253 302 360
#     4  11  25  43  66  96 124 153 201 261 322 385
#     4   9  18  33  52  81 124 164 200 243 291 352
#     4  10  20  35  52  79 117 159 204 246 288 348
#     4  11  24  42  64  92 128 168 210 258 314 373
#
# _framework density 18.913454999999999
#
# number of rings (size 3 to 8) (size 9 to 14) (size 15 to 20)
#    0.000    1.571    2.857    2.143    2.000    6.857 
#    0.000    1.429    0.000    0.429    0.000    1.000 
#    0.000    0.000    0.000    0.000    0.000    0.000 
#
# Total GULP energy -311779.105594 kJ/mol
# GULP energy per Si atom -5567.484028 kJ/mol
# Density = 1.887041 g / cm^3
# Si number density = 18.913455 Si / 1000 Ang^3
#
#
#
# Elastic Constant Matrix: (Units=GPa)
#
#
# Indices 1 2 3 4 5 6 
#
# 1 95.9530 49.5621 40.5773 0.0000 0.0000 0.0000
# 2 49.5621 95.5639 46.8223 0.0000 0.0000 0.0000
# 3 40.5773 46.8223 97.3023 0.0000 0.0000 0.0000
# 4 0.0000 0.0000 0.0000 9.4973 0.0000 0.0000
# 5 0.0000 0.0000 0.0000 0.0000 25.8845 0.0000
# 6 0.0000 0.0000 0.0000 0.0000 0.0000 23.0480
#
#
#
# Elastic Compliance Matrix: (Units=1/GPa)
#
#
# Indices 1 2 3 4 5 6 
#
# 1 0.014997 -0.006168 -0.003286 0.000000 0.000000 0.000000
# 2 -0.006168 0.016229 -0.005237 0.000000 0.000000 0.000000
# 3 -0.003286 -0.005237 0.014168 0.000000 0.000000 0.000000
# 4 0.000000 0.000000 0.000000 0.105294 0.000000 0.000000
# 5 0.000000 0.000000 0.000000 0.000000 0.038633 0.000000
# 6 0.000000 0.000000 0.000000 0.000000 0.000000 0.043388
#
#
# Mechanical properties :
#
#
# Convention : Reuss Voigt Hill
#
# Bulk Modulus (GPa) = 62.45549 62.52696 62.49122
# Shear Modulus (GPa) = 18.69655 21.80979 20.25317
#
# Velocity S-wave (km/s) = 3.14750 3.39947 3.27591
# Velocity P-wave (km/s) = 6.80459 6.96705 6.88630
#
# Compressibility (1/GPa) = 0.01601140
#
# Stress axis : x y z
#
# Youngs Moduli (GPa) = 66.67841 61.61746 70.58197
#
# Poissons Ratio (x) = 0.38005 0.23195
# Poissons Ratio (y) = 0.41127 0.36966
# Poissons Ratio (z) = 0.21912 0.32271
#
# Static dielectric constant tensor:
#      x y z
#    x 1.750910 0.000000 0.000000 
#    y 0.000000 1.639760 0.000000 
#    z 0.000000 0.000000 1.763390 
# 
# From -- ./inp_files/22299.got.cif
#   From: 2010.05.17/outbox.cif.g08.bks.cpg/sg72_12_cif.got.tgz:22299.got - 2010.06.03 17:03:01.
