data_PCOD9526426
_publ_section_title
;
Structure prediction by ZEFSAII (Michael W. Deem and Ramdas Pophale) SiO2 
 PCOD9526426
Probable space group: I B A M
;
_chemical_formula_sum "Si O2"
_cell_formula_units_Z 72
_cell_length_a 9.591006
_cell_length_b 27.295239
_cell_length_c 14.359198
_cell_angle_alpha 90.000000
_cell_angle_beta 90.000000
_cell_angle_gamma 90.000000
_cell_volume 3759.077228
_symmetry_space_group_name_H-M "I B A M"
_symmetry_group_IT_number 72
_symmetry_cell_setting 'orthorhombic'
loop_
_space_group_symop_operation_xyz
x,y,z
-x,-y,z
x,-y,1/2-z
-x,y,1/2-z
-x,-y,-z
x,y,-z
-x,y,1/2+z
x,-y,1/2+z
1/2+x,1/2+y,1/2+z
1/2-x,1/2-y,1/2+z
1/2+x,1/2-y,-z
1/2-x,1/2+y,-z
1/2-x,1/2-y,1/2-z
1/2+x,1/2+y,1/2-z
1/2-x,1/2+y,z
1/2+x,1/2-y,z
loop_
_atom_site_type_symbol
_atom_site_label
_atom_site_fract_x
_atom_site_fract_y
_atom_site_fract_z
Si Si1 0.235944 0.680198 0.500000
Si Si2 0.034698 0.871065 0.500000
Si Si3 0.496248 0.844687 0.638146
Si Si4 0.616249 0.537030 0.606321
Si Si5 0.709762 0.204576 0.500000
Si Si6 0.073928 0.546679 0.150346
O O1 0.383822 0.653114 0.500000
O O2 0.254008 0.738555 0.500000
O O3 0.144478 0.665436 0.409914
O O4 0.057093 0.908392 0.412686
O O5 0.154103 0.829957 0.500000
O O6 0.500000 0.840065 0.750000
O O7 0.384885 0.808960 0.589479
O O8 0.450424 0.899714 0.609109
O O9 0.500000 0.500000 0.642594
O O10 0.651045 0.519521 0.500000
O O11 0.761495 0.538306 0.658940
O O12 0.000000 0.500000 0.103691
O O13 0.000000 0.550062 0.250000
#
# Coordination Sequence:
#
# PCOD9526426 Si02
#       6
#     8   8  16  16   8  16
#     4  11  25  38  66  95 118 168 210 274 316 373
#     4  10  19  38  57  88 126 153 202 264 320 351
#     4  10  22  42  66  93 125 166 215 255 316 386
#     4   9  19  34  58  89 114 156 201 252 300 369
#     4  11  21  44  64  90 128 163 211 272 319 361
#     4  10  21  37  60  88 127 165 202 250 306 375
#
# _framework density 19.153635999999999
#
# number of rings (size 3 to 8) (size 9 to 14) (size 15 to 20)
#    0.667    1.333    2.222    1.333    4.667    1.333 
#    0.000    3.333    0.000    0.000    0.000    0.000 
#    0.000    0.000    0.000    0.000    0.000    0.000 
#
# Total GULP energy -200712.780563 kJ/mol
# GULP energy per Si atom -5575.355016 kJ/mol
# Density = 1.911004 g / cm^3
# Si number density = 19.153636 Si / 1000 Ang^3
#
#
#
# Elastic Constant Matrix: (Units=GPa)
#
#
# Indices 1 2 3 4 5 6 
#
# 1 213.3395 89.7068 54.2290 0.0000 0.0000 0.0000
# 2 89.7068 141.6738 22.2326 0.0000 0.0000 0.0000
# 3 54.2290 22.2326 115.8732 0.0000 0.0000 0.0000
# 4 0.0000 0.0000 0.0000 6.0212 0.0000 0.0000
# 5 0.0000 0.0000 0.0000 0.0000 22.4164 0.0000
# 6 0.0000 0.0000 0.0000 0.0000 0.0000 32.9581
#
#
#
# Elastic Compliance Matrix: (Units=1/GPa)
#
#
# Indices 1 2 3 4 5 6 
#
# 1 0.007033 -0.004059 -0.002513 0.000000 0.000000 0.000000
# 2 -0.004059 0.009620 0.000054 0.000000 0.000000 0.000000
# 3 -0.002513 0.000054 0.009796 0.000000 0.000000 0.000000
# 4 0.000000 0.000000 0.000000 0.166080 0.000000 0.000000
# 5 0.000000 0.000000 0.000000 0.000000 0.044610 0.000000
# 6 0.000000 0.000000 0.000000 0.000000 0.000000 0.030342
#
#
# Mechanical properties :
#
#
# Convention : Reuss Voigt Hill
#
# Bulk Modulus (GPa) = 74.55343 89.24702 81.90022
# Shear Modulus (GPa) = 17.54471 32.59369 25.06920
#
# Velocity S-wave (km/s) = 3.02983 4.12964 3.62173
# Velocity P-wave (km/s) = 7.15879 8.33277 7.76799
#
# Compressibility (1/GPa) = 0.01341320
#
# Stress axis : x y z
#
# Youngs Moduli (GPa) = 142.19297 103.94995 102.08555
#
# Poissons Ratio (x) = 0.42191 0.25650
# Poissons Ratio (y) = 0.57713 -0.00548
# Poissons Ratio (z) = 0.35727 -0.00558
#
# Static dielectric constant tensor:
#      x y z
#    x 1.639710 0.000000 0.000000 
#    y 0.000000 1.702440 0.000000 
#    z 0.000000 0.000000 1.762570 
# 
# From -- ./inp_files/19018.got.cif
#   From: 2010.05.17/outbox.cif.g08.bks.cpg/sg72_10_cif.got.tgz:19018.got - 2010.06.03 17:03:01.
