data_PCOD9526123
_publ_section_title
;
Structure prediction by ZEFSAII (Michael W. Deem and Ramdas Pophale) SiO2 
 PCOD9526123
Probable space group: I B A M
;
_chemical_formula_sum "Si O2"
_cell_formula_units_Z 104
_cell_length_a 30.166637
_cell_length_b 7.874910
_cell_length_c 25.191280
_cell_angle_alpha 90.000000
_cell_angle_beta 90.000000
_cell_angle_gamma 90.000000
_cell_volume 5984.429175
_symmetry_space_group_name_H-M "I B A M"
_symmetry_group_IT_number 72
_symmetry_cell_setting 'orthorhombic'
loop_
_space_group_symop_operation_xyz
x,y,z
-x,-y,z
x,-y,1/2-z
-x,y,1/2-z
-x,-y,-z
x,y,-z
-x,y,1/2+z
x,-y,1/2+z
1/2+x,1/2+y,1/2+z
1/2-x,1/2-y,1/2+z
1/2+x,1/2-y,-z
1/2-x,1/2+y,-z
1/2-x,1/2-y,1/2-z
1/2+x,1/2+y,1/2-z
1/2-x,1/2+y,z
1/2+x,1/2-y,z
loop_
_atom_site_type_symbol
_atom_site_label
_atom_site_fract_x
_atom_site_fract_y
_atom_site_fract_z
Si Si1 0.931187 0.414990 0.000000
Si Si2 0.136682 0.403964 0.595812
Si Si3 0.196694 0.901939 0.935478
Si Si4 0.499627 0.259463 0.689421
Si Si5 0.923291 0.516817 0.808671
Si Si6 0.500000 0.500000 0.405252
Si Si7 0.797655 0.293385 0.563606
Si Si8 0.024615 0.780822 0.500000
O O1 0.901073 0.387589 0.051124
O O2 0.946505 0.611562 0.000000
O O3 0.974010 0.292169 0.000000
O O4 0.163891 0.228570 0.593288
O O5 0.111776 0.455549 0.649053
O O6 0.169762 0.559544 0.582992
O O7 0.246978 0.842922 0.923658
O O8 0.191559 0.099759 0.919956
O O9 0.190451 0.886827 0.000000
O O10 0.500000 0.328135 0.750000
O O11 0.449213 0.193579 0.679444
O O12 0.516423 0.364994 0.638483
O O13 0.535246 0.110493 0.692268
O O14 0.903601 0.500000 0.750000
O O15 0.530293 0.604640 0.447185
O O16 0.800683 0.293905 0.500000
#
# Coordination Sequence:
#
# PCOD9526123 Si02
#       8
#     8  16  16  16  16   8  16   8
#     4  11  22  40  52  76 106 162 186 212 274 335
#     4  12  20  35  58  84 111 143 191 231 272 335
#     4  10  19  34  55  82 115 144 179 224 280 334
#     4   9  18  37  60  78 103 144 195 237 277 314
#     4   9  20  38  58  78 106 148 189 233 278 325
#     4  11  19  34  52  82 101 145 184 226 272 327
#     4  10  19  34  55  82 115 144 179 224 280 334
#     4  10  24  38  50  68 128 156 172 206 282 366
#
# _framework density 17.378433000000001
#
# number of rings (size 3 to 8) (size 9 to 14) (size 15 to 20)
#    0.000    1.846    3.077    3.000    0.000    2.462 
#   13.846    0.000    0.000    0.923    0.000    0.000 
#    0.000    0.000    0.000    0.000    0.000    0.000 
#
# Total GULP energy -289559.593752 kJ/mol
# GULP energy per Si atom -5568.453726 kJ/mol
# Density = 1.733888 g / cm^3
# Si number density = 17.378433 Si / 1000 Ang^3
#
#
#
# Elastic Constant Matrix: (Units=GPa)
#
#
# Indices 1 2 3 4 5 6 
#
# 1 46.6705 1.1970 11.1475 0.0000 0.0000 0.0000
# 2 1.1970 77.3766 8.0289 0.0000 0.0000 0.0000
# 3 11.1475 8.0289 89.4534 0.0000 0.0000 0.0000
# 4 0.0000 0.0000 0.0000 22.3522 0.0000 0.0000
# 5 0.0000 0.0000 0.0000 0.0000 94.2833 0.0000
# 6 0.0000 0.0000 0.0000 0.0000 0.0000 -197.0314
#
#
#
# Elastic Compliance Matrix: (Units=1/GPa)
#
#
# Indices 1 2 3 4 5 6 
#
# 1 0.022084 -0.000057 -0.002747 0.000000 0.000000 0.000000
# 2 -0.000057 0.013045 -0.001164 0.000000 0.000000 0.000000
# 3 -0.002747 -0.001164 0.011626 0.000000 0.000000 0.000000
# 4 0.000000 0.000000 0.000000 0.044738 0.000000 0.000000
# 5 0.000000 0.000000 0.000000 0.000000 0.010606 0.000000
# 6 0.000000 0.000000 0.000000 0.000000 0.000000 -0.005075
#
#
# Mechanical properties :
#
#
# Convention : Reuss Voigt Hill
#
# Bulk Modulus (GPa) = 25.75944 28.24969 27.00457
# Shear Modulus (GPa) = 42.40876 -3.20404 19.60236
#
# Velocity S-wave (km/s) = 4.94531 -1.35930 3.36217
# Velocity P-wave (km/s) = 6.88933 3.71851 5.53580
#
# Compressibility (1/GPa) = 0.03882072
#
# Stress axis : x y z
#
# Youngs Moduli (GPa) = 45.28078 76.65514 86.01561
#
# Poissons Ratio (x) = 0.00434 0.23629
# Poissons Ratio (y) = 0.00256 0.10011
# Poissons Ratio (z) = 0.12439 0.08921
#
# Static dielectric constant tensor:
#      x y z
#    x 1.574730 0.000000 0.000000 
#    y 0.000000 1.657640 0.000000 
#    z 0.000000 0.000000 1.602200 
# 
# From -- ./inp_files/46195.got.cif
#   From: 2010.05.17/outbox.cif.g08.bks.cpg/sg72_24_cif.got.tgz:46195.got - 2010.06.03 17:03:01.
