data_PCOD9526759
_publ_section_title
;
Structure prediction by ZEFSAII (Michael W. Deem and Ramdas Pophale) SiO2 
 PCOD9526759
Probable space group: I B A M
;
_chemical_formula_sum "Si O2"
_cell_formula_units_Z 64
_cell_length_a 19.910038
_cell_length_b 21.007948
_cell_length_c 8.692426
_cell_angle_alpha 90.000000
_cell_angle_beta 90.000000
_cell_angle_gamma 90.000000
_cell_volume 3635.772704
_symmetry_space_group_name_H-M "I B A M"
_symmetry_group_IT_number 72
_symmetry_cell_setting 'orthorhombic'
loop_
_space_group_symop_operation_xyz
x,y,z
-x,-y,z
x,-y,1/2-z
-x,y,1/2-z
-x,-y,-z
x,y,-z
-x,y,1/2+z
x,-y,1/2+z
1/2+x,1/2+y,1/2+z
1/2-x,1/2-y,1/2+z
1/2+x,1/2-y,-z
1/2-x,1/2+y,-z
1/2-x,1/2-y,1/2-z
1/2+x,1/2+y,1/2-z
1/2-x,1/2+y,z
1/2+x,1/2-y,z
loop_
_atom_site_type_symbol
_atom_site_label
_atom_site_fract_x
_atom_site_fract_y
_atom_site_fract_z
Si Si1 0.709492 0.566894 0.683348
Si Si2 0.569811 0.240722 0.183542
Si Si3 0.071892 0.883073 0.816210
Si Si4 0.286330 0.187520 0.683556
O O1 0.734332 0.500000 0.750000
O O2 0.707238 0.565325 0.500000
O O3 0.634701 0.579205 0.748358
O O4 0.755068 0.625363 0.739685
O O5 0.500000 0.214762 0.250000
O O6 0.580352 0.309544 0.262581
O O7 0.634456 0.197273 0.212405
O O8 0.563987 0.251038 0.000000
O O9 0.000000 0.904639 0.750000
O O10 0.071592 0.886470 0.000000
O O11 0.275359 0.184856 0.500000
O O12 0.250000 0.250000 0.750000
#
# Coordination Sequence:
#
# PCOD9526759 Si02
#       4
#    16  16  16  16
#     4  12  25  41  59  83 116 154 197 241 293 348
#     4  10  20  34  56  86 118 150 190 236 288 340
#     4  11  21  35  56  82 116 154 195 236 284 341
#     4  11  22  37  60  88 117 153 195 240 288 342
#
# _framework density 17.60286
#
# number of rings (size 3 to 8) (size 9 to 14) (size 15 to 20)
#    0.000    1.000    2.500    7.500    0.000    3.500 
#    0.000    2.500    0.000    0.750    0.000    5.250 
#    0.000    0.000    0.000    0.000    0.000    0.000 
#
# Total GULP energy -178949.516602 kJ/mol
# GULP energy per Si atom -5592.172394 kJ/mol
# Density = 1.756280 g / cm^3
# Si number density = 17.602860 Si / 1000 Ang^3
#
#
#
# Elastic Constant Matrix: (Units=GPa)
#
#
# Indices 1 2 3 4 5 6 
#
# 1 108.2119 61.1009 71.7259 0.0000 0.0000 0.0000
# 2 61.1009 118.3179 61.5167 0.0000 0.0000 0.0000
# 3 71.7259 61.5167 161.2596 0.0000 0.0000 0.0000
# 4 0.0000 0.0000 0.0000 27.2776 0.0000 0.0000
# 5 0.0000 0.0000 0.0000 0.0000 34.1201 0.0000
# 6 0.0000 0.0000 0.0000 0.0000 0.0000 19.3355
#
#
#
# Elastic Compliance Matrix: (Units=1/GPa)
#
#
# Indices 1 2 3 4 5 6 
#
# 1 0.015550 -0.005531 -0.004806 0.000000 0.000000 0.000000
# 2 -0.005531 0.012510 -0.002312 0.000000 0.000000 0.000000
# 3 -0.004806 -0.002312 0.009221 0.000000 0.000000 0.000000
# 4 0.000000 0.000000 0.000000 0.036660 0.000000 0.000000
# 5 0.000000 0.000000 0.000000 0.000000 0.029308 0.000000
# 6 0.000000 0.000000 0.000000 0.000000 0.000000 0.051718
#
#
# Mechanical properties :
#
#
# Convention : Reuss Voigt Hill
#
# Bulk Modulus (GPa) = 83.45989 86.27512 84.86751
# Shear Modulus (GPa) = 27.13527 29.04304 28.08916
#
# Velocity S-wave (km/s) = 3.93049 4.06631 3.99897
# Velocity P-wave (km/s) = 8.25312 8.43593 8.34502
#
# Compressibility (1/GPa) = 0.01198180
#
# Stress axis : x y z
#
# Youngs Moduli (GPa) = 64.30796 79.93338 108.44761
#
# Poissons Ratio (x) = 0.44214 0.52124
# Poissons Ratio (y) = 0.35571 0.25075
# Poissons Ratio (z) = 0.30909 0.18482
#
# Static dielectric constant tensor:
#      x y z
#    x 1.612200 0.000000 0.000000 
#    y 0.000000 1.583680 0.000000 
#    z 0.000000 0.000000 1.586190 
# 
# From -- ./inp_files/4319.got.cif
#   From: 2010.05.17/outbox.cif.g08.bks.cpg/sg72_3_cif.got.tgz:4319.got - 2010.06.03 17:03:01.
