data_PCOD9526463
_publ_section_title
;
Structure prediction by ZEFSAII (Michael W. Deem and Ramdas Pophale) SiO2 
 PCOD9526463
Probable space group: I B A M
;
_chemical_formula_sum "Si O2"
_cell_formula_units_Z 112
_cell_length_a 27.133828
_cell_length_b 12.177381
_cell_length_c 17.038882
_cell_angle_alpha 90.000000
_cell_angle_beta 90.000000
_cell_angle_gamma 90.000000
_cell_volume 5629.969696
_symmetry_space_group_name_H-M "I B A M"
_symmetry_group_IT_number 72
_symmetry_cell_setting 'orthorhombic'
loop_
_space_group_symop_operation_xyz
x,y,z
-x,-y,z
x,-y,1/2-z
-x,y,1/2-z
-x,-y,-z
x,y,-z
-x,y,1/2+z
x,-y,1/2+z
1/2+x,1/2+y,1/2+z
1/2-x,1/2-y,1/2+z
1/2+x,1/2-y,-z
1/2-x,1/2+y,-z
1/2-x,1/2-y,1/2-z
1/2+x,1/2+y,1/2-z
1/2-x,1/2+y,z
1/2+x,1/2-y,z
loop_
_atom_site_type_symbol
_atom_site_label
_atom_site_fract_x
_atom_site_fract_y
_atom_site_fract_z
Si Si1 0.123481 0.896193 0.690905
Si Si2 0.782330 0.242454 0.670586
Si Si3 0.092649 0.753210 0.822857
Si Si4 0.186519 0.315657 0.588441
Si Si5 0.553742 0.532553 0.907290
Si Si6 0.657314 0.931465 0.591296
Si Si7 0.944212 0.460007 0.092931
O O1 0.178324 0.855653 0.674086
O O2 0.095111 0.796092 0.734050
O O3 0.093142 0.940711 0.617575
O O4 0.124668 0.000000 0.750000
O O5 0.750000 0.250000 0.750000
O O6 0.741722 0.221332 0.604135
O O7 0.814356 0.349724 0.648936
O O8 0.149201 0.740517 0.851109
O O9 0.066995 0.640631 0.848690
O O10 0.068646 0.851498 0.871365
O O11 0.170823 0.287817 0.500000
O O12 0.180436 0.446597 0.597970
O O13 0.500000 0.500000 0.876067
O O14 0.551617 0.542052 0.000000
O O15 0.662441 0.895609 0.500000
O O16 0.598963 0.950271 0.607171
O O17 0.000000 0.500000 0.102566
O O18 0.938014 0.427205 0.000000
#
# Coordination Sequence:
#
# PCOD9526463 Si02
#       7
#    16  16  16  16  16  16  16
#     4  10  24  41  60  89 125 160 208 257 311 372
#     4  12  24  38  60  87 122 170 202 258 313 369
#     4  10  19  39  61  89 125 166 204 249 318 382
#     4  10  21  38  62  88 117 161 208 253 307 375
#     4  10  22  40  65  93 123 166 213 263 314 372
#     4   9  21  39  59  90 124 153 203 258 304 369
#     4   9  18  36  65  97 127 161 203 258 315 376
#
# _framework density 19.893536000000001
#
# number of rings (size 3 to 8) (size 9 to 14) (size 15 to 20)
#    0.000    2.000    1.429    2.571    2.000    4.857 
#    0.000    4.286    0.000    0.857    0.000    0.000 
#    0.000    0.571    0.000    0.000    0.000    0.000 
#
# Total GULP energy -312616.881739 kJ/mol
# GULP energy per Si atom -5582.444317 kJ/mol
# Density = 1.984826 g / cm^3
# Si number density = 19.893536 Si / 1000 Ang^3
#
#
#
# Elastic Constant Matrix: (Units=GPa)
#
#
# Indices 1 2 3 4 5 6 
#
# 1 129.8537 40.3893 8.4985 0.0000 0.0000 0.0000
# 2 40.3893 52.3229 10.7891 0.0000 0.0000 0.0000
# 3 8.4985 10.7891 14.9827 0.0000 0.0000 0.0000
# 4 0.0000 0.0000 0.0000 41.0019 0.0000 0.0000
# 5 0.0000 0.0000 0.0000 0.0000 -18.4795 0.0000
# 6 0.0000 0.0000 0.0000 0.0000 0.0000 24.9147
#
#
#
# Elastic Compliance Matrix: (Units=1/GPa)
#
#
# Indices 1 2 3 4 5 6 
#
# 1 0.010134 -0.007795 -0.000135 0.000000 0.000000 0.000000
# 2 -0.007795 0.028441 -0.016059 0.000000 0.000000 0.000000
# 3 -0.000135 -0.016059 0.078384 0.000000 0.000000 0.000000
# 4 0.000000 0.000000 0.000000 0.024389 0.000000 0.000000
# 5 0.000000 0.000000 0.000000 0.000000 -0.054114 0.000000
# 6 0.000000 0.000000 0.000000 0.000000 0.000000 0.040137
#
#
# Mechanical properties :
#
#
# Convention : Reuss Voigt Hill
#
# Bulk Modulus (GPa) = 14.49665 35.16813 24.83239
# Shear Modulus (GPa) = 25.20878 18.65290 21.93084
#
# Velocity S-wave (km/s) = 3.56362 3.06541 3.32386
# Velocity P-wave (km/s) = 4.92295 5.49959 5.21924
#
# Compressibility (1/GPa) = 0.06898144
#
# Stress axis : x y z
#
# Youngs Moduli (GPa) = 98.67404 35.16087 12.75763
#
# Poissons Ratio (x) = 0.27408 0.00172
# Poissons Ratio (y) = 0.76917 0.20487
# Poissons Ratio (z) = 0.01334 0.56464
#
# Static dielectric constant tensor:
#      x y z
#    x 1.694860 0.000000 0.000000 
#    y 0.000000 1.684320 0.000000 
#    z 0.000000 0.000000 1.719720 
# 
# From -- ./inp_files/40366.got.cif
#   From: 2010.05.17/outbox.cif.g08.bks.cpg/sg72_21_cif.got.tgz:40366.got - 2010.06.03 17:03:01.
