data_PCOD9526192
_publ_section_title
;
Structure prediction by ZEFSAII (Michael W. Deem and Ramdas Pophale) SiO2 
 PCOD9526192
Probable space group: I B A M
;
_chemical_formula_sum "Si O2"
_cell_formula_units_Z 112
_cell_length_a 14.061543
_cell_length_b 13.573342
_cell_length_c 27.787783
_cell_angle_alpha 90.000000
_cell_angle_beta 90.000000
_cell_angle_gamma 90.000000
_cell_volume 5303.635512
_symmetry_space_group_name_H-M "I B A M"
_symmetry_group_IT_number 72
_symmetry_cell_setting 'orthorhombic'
loop_
_space_group_symop_operation_xyz
x,y,z
-x,-y,z
x,-y,1/2-z
-x,y,1/2-z
-x,-y,-z
x,y,-z
-x,y,1/2+z
x,-y,1/2+z
1/2+x,1/2+y,1/2+z
1/2-x,1/2-y,1/2+z
1/2+x,1/2-y,-z
1/2-x,1/2+y,-z
1/2-x,1/2-y,1/2-z
1/2+x,1/2+y,1/2-z
1/2-x,1/2+y,z
1/2+x,1/2-y,z
loop_
_atom_site_type_symbol
_atom_site_label
_atom_site_fract_x
_atom_site_fract_y
_atom_site_fract_z
Si Si1 0.273061 0.759304 0.305580
Si Si2 0.140026 0.778706 0.944195
Si Si3 0.963276 0.284278 0.151779
Si Si4 0.857577 0.769981 0.053264
Si Si5 0.412504 0.070657 0.604028
Si Si6 0.296235 0.566403 0.371945
Si Si7 0.100819 0.123114 0.147326
O O1 0.250000 0.750000 0.250000
O O2 0.375123 0.808899 0.314853
O O3 0.279837 0.656483 0.334949
O O4 0.190392 0.821824 0.329692
O O5 0.076186 0.726674 0.903304
O O6 0.243305 0.726737 0.943610
O O7 0.161497 0.885869 0.920880
O O8 0.108391 0.779887 0.000000
O O9 0.044201 0.367026 0.148885
O O10 0.008673 0.179532 0.167237
O O11 0.886063 0.657700 0.066576
O O12 0.899779 0.844656 0.091540
O O13 0.887861 0.793988 0.000000
O O14 0.309843 0.023557 0.616972
O O15 0.500000 0.000000 0.589089
O O16 0.372524 0.490412 0.350917
#
# Coordination Sequence:
#
# PCOD9526192 Si02
#       7
#    16  16  16  16  16  16  16
#     4  11  23  42  63  88 123 162 206 266 321 374
#     4   9  18  35  57  84 118 160 207 248 296 367
#     4  10  20  38  62  90 121 168 204 254 311 374
#     4   9  18  35  55  82 124 168 203 251 314 363
#     4  10  19  34  60  90 125 160 209 260 313 373
#     4  10  21  40  62  89 126 164 202 260 324 374
#     4  11  21  39  62  89 125 163 209 257 314 373
#
# _framework density 21.117591000000001
#
# number of rings (size 3 to 8) (size 9 to 14) (size 15 to 20)
#    0.000    2.000    5.714    0.857    0.000    6.571 
#    0.000    0.714    0.000    3.429    0.000    0.000 
#    0.000    0.000    0.000    0.000    0.000    0.000 
#
# Total GULP energy -312275.596917 kJ/mol
# GULP energy per Si atom -5576.349945 kJ/mol
# Density = 2.106953 g / cm^3
# Si number density = 21.117591 Si / 1000 Ang^3
#
#
#
# Elastic Constant Matrix: (Units=GPa)
#
#
# Indices 1 2 3 4 5 6 
#
# 1 89.7083 -11.3809 -4.1746 0.0000 0.0000 0.0000
# 2 -11.3809 45.3635 -4.3522 0.0000 0.0000 0.0000
# 3 -4.1746 -4.3522 82.9184 0.0000 0.0000 0.0000
# 4 0.0000 0.0000 0.0000 0.6121 0.0000 0.0000
# 5 0.0000 0.0000 0.0000 0.0000 -0.7066 0.0000
# 6 0.0000 0.0000 0.0000 0.0000 0.0000 31.2950
#
#
#
# Elastic Compliance Matrix: (Units=1/GPa)
#
#
# Indices 1 2 3 4 5 6 
#
# 1 0.011558 0.002971 0.000738 0.000000 0.000000 0.000000
# 2 0.002971 0.022919 0.001353 0.000000 0.000000 0.000000
# 3 0.000738 0.001353 0.012168 0.000000 0.000000 0.000000
# 4 0.000000 0.000000 0.000000 1.633659 0.000000 0.000000
# 5 0.000000 0.000000 0.000000 0.000000 -1.415251 0.000000
# 6 0.000000 0.000000 0.000000 0.000000 0.000000 0.031954
#
#
# Mechanical properties :
#
#
# Convention : Reuss Voigt Hill
#
# Bulk Modulus (GPa) = 17.61565 19.79722 18.70643
# Shear Modulus (GPa) = 16.35007 22.09996 19.22502
#
# Velocity S-wave (km/s) = 2.78553 3.23850 3.02052
# Velocity P-wave (km/s) = 4.32497 4.83518 4.58718
#
# Compressibility (1/GPa) = 0.05676770
#
# Stress axis : x y z
#
# Youngs Moduli (GPa) = 86.51682 43.63159 82.18155
#
# Poissons Ratio (x) = -0.12961 -0.06064
# Poissons Ratio (y) = -0.25701 -0.11115
# Poissons Ratio (z) = -0.06384 -0.05901
#
# Static dielectric constant tensor:
#      x y z
#    x 1.849810 0.000000 0.000000 
#    y 0.000000 1.800620 0.000000 
#    z 0.000000 0.000000 2.126110 
# 
# From -- ./inp_files/48712.got.cif
#   From: 2010.05.17/outbox.cif.g08.bks.cpg/sg72_25_cif.got.tgz:48712.got - 2010.06.03 17:03:01.
