data_PCOD9526443
_publ_section_title
;
Structure prediction by ZEFSAII (Michael W. Deem and Ramdas Pophale) SiO2 
 PCOD9526443
Probable space group: I B A M
;
_chemical_formula_sum "Si O2"
_cell_formula_units_Z 96
_cell_length_a 14.834106
_cell_length_b 15.425093
_cell_length_c 23.165397
_cell_angle_alpha 90.000000
_cell_angle_beta 90.000000
_cell_angle_gamma 90.000000
_cell_volume 5300.647408
_symmetry_space_group_name_H-M "I B A M"
_symmetry_group_IT_number 72
_symmetry_cell_setting 'orthorhombic'
loop_
_space_group_symop_operation_xyz
x,y,z
-x,-y,z
x,-y,1/2-z
-x,y,1/2-z
-x,-y,-z
x,y,-z
-x,y,1/2+z
x,-y,1/2+z
1/2+x,1/2+y,1/2+z
1/2-x,1/2-y,1/2+z
1/2+x,1/2-y,-z
1/2-x,1/2+y,-z
1/2-x,1/2-y,1/2-z
1/2+x,1/2+y,1/2-z
1/2-x,1/2+y,z
1/2+x,1/2-y,z
loop_
_atom_site_type_symbol
_atom_site_label
_atom_site_fract_x
_atom_site_fract_y
_atom_site_fract_z
Si Si1 0.754856 0.016547 0.186431
Si Si2 0.306445 0.656503 0.122623
Si Si3 0.167374 0.182124 0.620704
Si Si4 0.981019 0.229461 0.318578
Si Si5 0.898104 0.110053 0.000000
Si Si6 0.051010 0.422801 0.188353
Si Si7 0.885866 0.901422 0.000000
O O1 0.801170 0.095629 0.153606
O O2 0.652805 0.048166 0.195526
O O3 0.795015 0.000000 0.250000
O O4 0.759128 0.928270 0.149829
O O5 0.240161 0.739863 0.125025
O O6 0.396583 0.672770 0.160557
O O7 0.339010 0.635891 0.057579
O O8 0.145531 0.154499 0.555636
O O9 0.073626 0.208980 0.649739
O O10 0.954823 0.327420 0.336340
O O11 0.000000 0.222539 0.250000
O O12 0.007072 0.120451 0.000000
O O13 0.879752 0.006444 0.000000
O O14 0.000000 0.500000 0.155394
O O15 0.000000 0.415088 0.250000
#
# Coordination Sequence:
#
# PCOD9526443 Si02
#       7
#    16  16  16  16   8  16   8
#     4  12  24  39  65 101 134 173 212 262 326 393
#     4  12  25  43  68  96 132 172 223 276 323 388
#     4  12  25  43  68  96 131 172 223 276 323 389
#     4  11  24  40  63  98 136 174 210 266 331 392
#     4  11  23  46  70  88 121 175 228 272 338 384
#     4  10  19  38  62  88 133 175 214 247 309 399
#     4  11  23  46  70  88 121 175 228 274 336 382
#
# _framework density 18.110996
#
# number of rings (size 3 to 8) (size 9 to 14) (size 15 to 20)
#    0.000    0.667    6.667    2.500    2.333    2.000 
#    0.000    1.667    0.000    0.000    0.000    7.000 
#    0.000    0.000    0.000    0.000    0.000    0.000 
#
# Total GULP energy -267982.013615 kJ/mol
# GULP energy per Si atom -5582.958617 kJ/mol
# Density = 1.806977 g / cm^3
# Si number density = 18.110996 Si / 1000 Ang^3
#
#
#
# Elastic Constant Matrix: (Units=GPa)
#
#
# Indices 1 2 3 4 5 6 
#
# 1 122.5856 56.2667 62.7397 0.0000 0.0000 0.0000
# 2 56.2667 131.2373 67.9060 0.0000 0.0000 0.0000
# 3 62.7397 67.9060 141.6874 0.0000 0.0000 0.0000
# 4 0.0000 0.0000 0.0000 23.4457 0.0000 0.0000
# 5 0.0000 0.0000 0.0000 0.0000 17.1356 0.0000
# 6 0.0000 0.0000 0.0000 0.0000 0.0000 21.2670
#
#
#
# Elastic Compliance Matrix: (Units=1/GPa)
#
#
# Indices 1 2 3 4 5 6 
#
# 1 0.011383 -0.003022 -0.003592 0.000000 0.000000 0.000000
# 2 -0.003022 0.010935 -0.003903 0.000000 0.000000 0.000000
# 3 -0.003592 -0.003903 0.010519 0.000000 0.000000 0.000000
# 4 0.000000 0.000000 0.000000 0.042652 0.000000 0.000000
# 5 0.000000 0.000000 0.000000 0.000000 0.058358 0.000000
# 6 0.000000 0.000000 0.000000 0.000000 0.000000 0.047021
#
#
# Mechanical properties :
#
#
# Convention : Reuss Voigt Hill
#
# Bulk Modulus (GPa) = 84.72082 85.48167 85.10125
# Shear Modulus (GPa) = 24.29132 26.27619 25.28376
#
# Velocity S-wave (km/s) = 3.66628 3.81312 3.74042
# Velocity P-wave (km/s) = 8.04999 8.16626 8.10833
#
# Compressibility (1/GPa) = 0.01180347
#
# Stress axis : x y z
#
# Youngs Moduli (GPa) = 87.85010 91.45294 95.06738
#
# Poissons Ratio (x) = 0.27633 0.34151
# Poissons Ratio (y) = 0.26545 0.37101
# Poissons Ratio (z) = 0.31558 0.35690
#
# Static dielectric constant tensor:
#      x y z
#    x 1.663380 0.000000 0.000000 
#    y 0.000000 1.649830 0.000000 
#    z 0.000000 0.000000 1.636780 
# 
# From -- ./inp_files/38072.got.cif
#   From: 2010.05.17/outbox.cif.g08.bks.cpg/sg72_20_cif.got.tgz:38072.got - 2010.06.03 17:03:01.
