data_PCOD9526716
_publ_section_title
;
Structure prediction by ZEFSAII (Michael W. Deem and Ramdas Pophale) SiO2 
 PCOD9526716
Probable space group: I B A M
;
_chemical_formula_sum "Si O2"
_cell_formula_units_Z 104
_cell_length_a 20.627555
_cell_length_b 14.858112
_cell_length_c 19.904329
_cell_angle_alpha 90.000000
_cell_angle_beta 90.000000
_cell_angle_gamma 90.000000
_cell_volume 6100.408577
_symmetry_space_group_name_H-M "I B A M"
_symmetry_group_IT_number 72
_symmetry_cell_setting 'orthorhombic'
loop_
_space_group_symop_operation_xyz
x,y,z
-x,-y,z
x,-y,1/2-z
-x,y,1/2-z
-x,-y,-z
x,y,-z
-x,y,1/2+z
x,-y,1/2+z
1/2+x,1/2+y,1/2+z
1/2-x,1/2-y,1/2+z
1/2+x,1/2-y,-z
1/2-x,1/2+y,-z
1/2-x,1/2-y,1/2-z
1/2+x,1/2+y,1/2-z
1/2-x,1/2+y,z
1/2+x,1/2-y,z
loop_
_atom_site_type_symbol
_atom_site_label
_atom_site_fract_x
_atom_site_fract_y
_atom_site_fract_z
Si Si1 0.545227 0.778012 0.075592
Si Si2 0.747899 0.114225 0.309464
Si Si3 0.405631 0.131308 0.422842
Si Si4 0.649280 0.935838 0.075549
Si Si5 0.140678 0.000000 0.250000
Si Si6 0.431596 0.677459 0.288438
Si Si7 0.672355 0.209440 0.799149
O O1 0.478863 0.834015 0.085785
O O2 0.603235 0.849444 0.078283
O O3 0.556254 0.708556 0.135519
O O4 0.542927 0.738804 0.000000
O O5 0.703428 0.076754 0.368283
O O6 0.810378 0.051852 0.299603
O O7 0.706269 0.127506 0.240968
O O8 0.774492 0.215747 0.319597
O O9 0.386631 0.153208 0.500000
O O10 0.362866 0.177750 0.366076
O O11 0.394602 0.024617 0.414386
O O12 0.677162 0.942431 0.000000
O O13 0.097272 0.922825 0.216524
O O14 0.500000 0.682674 0.250000
O O15 0.379422 0.742879 0.251200
#
# Coordination Sequence:
#
# PCOD9526716 Si02
#       7
#    16  16  16  16   8  16  16
#     4  10  20  36  58  84 115 145 179 228 283 336
#     4  10  20  36  54  79 111 144 185 229 274 327
#     4  10  20  34  54  81 112 145 179 224 280 333
#     4  10  20  35  55  81 114 149 180 221 279 338
#     4  10  23  36  58  80 111 148 184 236 280 320
#     4  11  20  38  60  85 108 143 193 231 281 331
#     4  10  20  34  57  81 107 146 187 232 273 330
#
# _framework density 17.048037999999998
#
# number of rings (size 3 to 8) (size 9 to 14) (size 15 to 20)
#    0.000    1.846    3.077    1.615    0.000    2.462 
#    0.000    0.769    0.000    2.769    0.000    0.000 
#    0.000    0.000    0.000    0.000    0.000    0.000 
#
# Total GULP energy -290007.602239 kJ/mol
# GULP energy per Si atom -5577.069274 kJ/mol
# Density = 1.700924 g / cm^3
# Si number density = 17.048038 Si / 1000 Ang^3
#
#
#
# Elastic Constant Matrix: (Units=GPa)
#
#
# Indices 1 2 3 4 5 6 
#
# 1 77.2833 29.2375 54.5992 0.0000 0.0000 0.0000
# 2 29.2375 78.1615 63.7373 0.0000 0.0000 0.0000
# 3 54.5992 63.7373 129.3261 0.0000 0.0000 0.0000
# 4 0.0000 0.0000 0.0000 20.4846 0.0000 0.0000
# 5 0.0000 0.0000 0.0000 0.0000 24.1492 0.0000
# 6 0.0000 0.0000 0.0000 0.0000 0.0000 27.4705
#
#
#
# Elastic Compliance Matrix: (Units=1/GPa)
#
#
# Indices 1 2 3 4 5 6 
#
# 1 0.018479 -0.000921 -0.007348 0.000000 0.000000 0.000000
# 2 -0.000921 0.021437 -0.010176 0.000000 0.000000 0.000000
# 3 -0.007348 -0.010176 0.015850 0.000000 0.000000 0.000000
# 4 0.000000 0.000000 0.000000 0.048817 0.000000 0.000000
# 5 0.000000 0.000000 0.000000 0.000000 0.041409 0.000000
# 6 0.000000 0.000000 0.000000 0.000000 0.000000 0.036403
#
#
# Mechanical properties :
#
#
# Convention : Reuss Voigt Hill
#
# Bulk Modulus (GPa) = 52.97694 64.43543 58.70618
# Shear Modulus (GPa) = 22.16557 23.56732 22.86645
#
# Velocity S-wave (km/s) = 3.60972 3.72211 3.66634
# Velocity P-wave (km/s) = 6.96534 7.50670 7.24108
#
# Compressibility (1/GPa) = 0.01887614
#
# Stress axis : x y z
#
# Youngs Moduli (GPa) = 54.11646 46.64908 63.09252
#
# Poissons Ratio (x) = 0.04294 0.46358
# Poissons Ratio (y) = 0.04981 0.64205
# Poissons Ratio (z) = 0.39763 0.47471
#
# Static dielectric constant tensor:
#      x y z
#    x 1.572640 0.000000 0.000000 
#    y 0.000000 1.571690 0.000000 
#    z 0.000000 0.000000 1.570820 
# 
# From -- ./inp_files/32659.got.cif
#   From: 2010.05.17/outbox.cif.g08.bks.cpg/sg72_17_cif.got.tgz:32659.got - 2010.06.03 17:03:01.
