data_PCOD9526097
_publ_section_title
;
Structure prediction by ZEFSAII (Michael W. Deem and Ramdas Pophale) SiO2 
 PCOD9526097
Probable space group: I B A M
;
_chemical_formula_sum "Si O2"
_cell_formula_units_Z 96
_cell_length_a 30.314260
_cell_length_b 16.886934
_cell_length_c 8.510213
_cell_angle_alpha 90.000000
_cell_angle_beta 90.000000
_cell_angle_gamma 90.000000
_cell_volume 4356.504904
_symmetry_space_group_name_H-M "I B A M"
_symmetry_group_IT_number 72
_symmetry_cell_setting 'orthorhombic'
loop_
_space_group_symop_operation_xyz
x,y,z
-x,-y,z
x,-y,1/2-z
-x,y,1/2-z
-x,-y,-z
x,y,-z
-x,y,1/2+z
x,-y,1/2+z
1/2+x,1/2+y,1/2+z
1/2-x,1/2-y,1/2+z
1/2+x,1/2-y,-z
1/2-x,1/2+y,-z
1/2-x,1/2-y,1/2-z
1/2+x,1/2+y,1/2-z
1/2-x,1/2+y,z
1/2+x,1/2-y,z
loop_
_atom_site_type_symbol
_atom_site_label
_atom_site_fract_x
_atom_site_fract_y
_atom_site_fract_z
Si Si1 0.263557 0.082788 0.313689
Si Si2 0.123792 0.915856 0.182113
Si Si3 0.046259 0.823460 0.680423
Si Si4 0.193717 0.805775 0.683171
Si Si5 0.855497 0.645245 0.807942
Si Si6 0.047104 0.368047 0.820972
O O1 0.261613 0.080179 0.500000
O O2 0.238633 0.163003 0.261640
O O3 0.314688 0.089772 0.263971
O O4 0.244987 0.000000 0.250000
O O5 0.083781 0.855882 0.207495
O O6 0.162850 0.881604 0.287654
O O7 0.110005 0.000000 0.250000
O O8 0.136987 0.920186 0.000000
O O9 0.053483 0.849534 0.500000
O O10 0.045988 0.728087 0.678069
O O11 0.000000 0.850929 0.750000
O O12 0.202219 0.791668 0.500000
O O13 0.163729 0.731870 0.741355
O O14 0.903836 0.618085 0.749021
O O15 0.859372 0.648939 0.000000
O O16 0.000000 0.394265 0.750000
O O17 0.047673 0.397311 0.000000
#
# Coordination Sequence:
#
# PCOD9526097 Si02
#       6
#    16  16  16  16  16  16
#     4  11  23  40  60  86 118 155 193 236 289 347
#     4  12  24  37  53  76 107 148 194 238 287 341
#     4  10  19  34  54  76 107 143 186 235 290 343
#     4  11  21  39  61  84 113 149 191 240 289 339
#     4   9  19  37  62  87 117 153 191 236 288 339
#     4   9  17  33  56  85 116 148 183 231 285 339
#
# _framework density 22.036013000000001
#
# number of rings (size 3 to 8) (size 9 to 14) (size 15 to 20)
#    0.000    1.667    1.667    4.000    0.000    1.000 
#    0.000    5.833    0.000    0.500    0.000    3.500 
#    0.000    0.000    0.000    0.000    0.000    0.000 
#
# Total GULP energy -267804.065632 kJ/mol
# GULP energy per Si atom -5579.251367 kJ/mol
# Density = 2.198586 g / cm^3
# Si number density = 22.036013 Si / 1000 Ang^3
#
#
#
# Elastic Constant Matrix: (Units=GPa)
#
#
# Indices 1 2 3 4 5 6 
#
# 1 142.8797 4.3685 -3.1008 0.0000 0.0000 0.0000
# 2 4.3685 48.4703 7.9028 0.0000 0.0000 0.0000
# 3 -3.1008 7.9028 27.6284 0.0000 0.0000 0.0000
# 4 0.0000 0.0000 0.0000 4.5307 0.0000 0.0000
# 5 0.0000 0.0000 0.0000 0.0000 27.1105 0.0000
# 6 0.0000 0.0000 0.0000 0.0000 0.0000 7.5060
#
#
#
# Elastic Compliance Matrix: (Units=1/GPa)
#
#
# Indices 1 2 3 4 5 6 
#
# 1 0.007046 -0.000801 0.001020 0.000000 0.000000 0.000000
# 2 -0.000801 0.021732 -0.006306 0.000000 0.000000 0.000000
# 3 0.001020 -0.006306 0.038113 0.000000 0.000000 0.000000
# 4 0.000000 0.000000 0.000000 0.220719 0.000000 0.000000
# 5 0.000000 0.000000 0.000000 0.000000 0.036886 0.000000
# 6 0.000000 0.000000 0.000000 0.000000 0.000000 0.133227
#
#
# Mechanical properties :
#
#
# Convention : Reuss Voigt Hill
#
# Bulk Modulus (GPa) = 18.27645 26.36882 22.32264
# Shear Modulus (GPa) = 10.24308 21.81663 16.02985
#
# Velocity S-wave (km/s) = 2.15834 3.14991 2.70003
# Velocity P-wave (km/s) = 3.81092 5.02210 4.45784
#
# Compressibility (1/GPa) = 0.05471521
#
# Stress axis : x y z
#
# Youngs Moduli (GPa) = 141.93392 46.01605 26.23789
#
# Poissons Ratio (x) = 0.03687 -0.02676
# Poissons Ratio (y) = 0.11373 0.16546
# Poissons Ratio (z) = -0.14476 0.29018
#
# Static dielectric constant tensor:
#      x y z
#    x 1.893840 0.000000 0.000000 
#    y 0.000000 1.817480 0.000000 
#    z 0.000000 0.000000 2.922120 
# 
# From -- ./inp_files/6018.got.cif
#   From: 2010.05.17/outbox.cif.g08.bks.cpg/sg72_4_cif.got.tgz:6018.got - 2010.06.03 17:03:01.
