data_PCOD9526656
_publ_section_title
;
Structure prediction by ZEFSAII (Michael W. Deem and Ramdas Pophale) SiO2 
 PCOD9526656
Probable space group: I B A M
;
_chemical_formula_sum "Si O2"
_cell_formula_units_Z 72
_cell_length_a 5.191633
_cell_length_b 28.330709
_cell_length_c 25.893098
_cell_angle_alpha 90.000000
_cell_angle_beta 90.000000
_cell_angle_gamma 90.000000
_cell_volume 3808.425309
_symmetry_space_group_name_H-M "I B A M"
_symmetry_group_IT_number 72
_symmetry_cell_setting 'orthorhombic'
loop_
_space_group_symop_operation_xyz
x,y,z
-x,-y,z
x,-y,1/2-z
-x,y,1/2-z
-x,-y,-z
x,y,-z
-x,y,1/2+z
x,-y,1/2+z
1/2+x,1/2+y,1/2+z
1/2-x,1/2-y,1/2+z
1/2+x,1/2-y,-z
1/2-x,1/2+y,-z
1/2-x,1/2-y,1/2-z
1/2+x,1/2+y,1/2-z
1/2-x,1/2+y,z
1/2+x,1/2-y,z
loop_
_atom_site_type_symbol
_atom_site_label
_atom_site_fract_x
_atom_site_fract_y
_atom_site_fract_z
Si Si1 0.584517 0.117350 0.344834
Si Si2 0.508713 0.779917 0.311586
Si Si3 0.392379 0.431093 0.805363
Si Si4 0.000000 0.000000 0.113913
Si Si5 0.888122 0.553636 0.440827
O O1 0.564662 0.173493 0.343173
O O2 0.364236 0.099700 0.305316
O O3 0.522056 0.092642 0.399976
O O4 0.866402 0.098522 0.328568
O O5 0.500000 0.790926 0.250000
O O6 0.792893 0.759851 0.321876
O O7 0.500000 0.446058 0.750000
O O8 0.321192 0.474335 0.843614
O O9 0.902003 0.958849 0.076767
O O10 0.915325 0.567830 0.500000
O O11 0.000000 0.500000 0.435473
#
# Coordination Sequence:
#
# PCOD9526656 Si02
#       5
#    16  16  16   8  16
#     4  11  22  37  56  84 113 147 192 231 280 336
#     4  10  20  35  57  81 108 144 183 227 281 339
#     4  11  21  33  52  78 116 152 182 224 275 335
#     4  10  20  34  50  80 112 152 192 230 268 336
#     4  10  20  37  58  80 112 151 194 238 277 326
#
# _framework density 18.905449999999998
#
# number of rings (size 3 to 8) (size 9 to 14) (size 15 to 20)
#    0.000    1.556    2.222    4.000    0.000    1.778 
#    0.000    2.222    0.000    1.333    0.000    0.000 
#    0.000    0.000    0.000    0.000    0.000    0.000 
#
# Total GULP energy -200492.233717 kJ/mol
# GULP energy per Si atom -5569.228714 kJ/mol
# Density = 1.886242 g / cm^3
# Si number density = 18.905450 Si / 1000 Ang^3
#
#
#
# Elastic Constant Matrix: (Units=GPa)
#
#
# Indices 1 2 3 4 5 6 
#
# 1 68.2599 4.8539 16.0568 0.0000 0.0000 0.0000
# 2 4.8539 83.4955 47.0153 0.0000 0.0000 0.0000
# 3 16.0568 47.0153 124.2240 0.0000 0.0000 0.0000
# 4 0.0000 0.0000 0.0000 24.2970 0.0000 0.0000
# 5 0.0000 0.0000 0.0000 0.0000 16.2056 0.0000
# 6 0.0000 0.0000 0.0000 0.0000 0.0000 19.3832
#
#
#
# Elastic Compliance Matrix: (Units=1/GPa)
#
#
# Indices 1 2 3 4 5 6 
#
# 1 0.015114 0.000281 -0.002060 0.000000 0.000000 0.000000
# 2 0.000281 0.015226 -0.005799 0.000000 0.000000 0.000000
# 3 -0.002060 -0.005799 0.010511 0.000000 0.000000 0.000000
# 4 0.000000 0.000000 0.000000 0.041157 0.000000 0.000000
# 5 0.000000 0.000000 0.000000 0.000000 0.061707 0.000000
# 6 0.000000 0.000000 0.000000 0.000000 0.000000 0.051591
#
#
# Mechanical properties :
#
#
# Convention : Reuss Voigt Hill
#
# Bulk Modulus (GPa) = 38.91677 45.75902 42.33789
# Shear Modulus (GPa) = 22.82823 25.84738 24.33780
#
# Velocity S-wave (km/s) = 3.47867 3.70157 3.59185
# Velocity P-wave (km/s) = 6.06337 6.52116 6.29643
#
# Compressibility (1/GPa) = 0.02569586
#
# Stress axis : x y z
#
# Youngs Moduli (GPa) = 66.16163 65.67892 95.13885
#
# Poissons Ratio (x) = -0.01848 0.19600
# Poissons Ratio (y) = -0.01862 0.55169
# Poissons Ratio (z) = 0.13630 0.38086
#
# Static dielectric constant tensor:
#      x y z
#    x 1.827410 0.000000 0.000000 
#    y 0.000000 1.678150 0.000000 
#    z 0.000000 0.000000 1.648380 
# 
# From -- ./inp_files/41458.got.cif
#   From: 2010.05.17/outbox.cif.g08.bks.cpg/sg72_21_cif.got.tgz:41458.got - 2010.06.03 17:03:01.
