data_PCOD9526718
_publ_section_title
;
Structure prediction by ZEFSAII (Michael W. Deem and Ramdas Pophale) SiO2 
 PCOD9526718
Probable space group: I B A M
;
_chemical_formula_sum "Si O2"
_cell_formula_units_Z 112
_cell_length_a 27.531882
_cell_length_b 12.751670
_cell_length_c 15.179030
_cell_angle_alpha 90.000000
_cell_angle_beta 90.000000
_cell_angle_gamma 90.000000
_cell_volume 5329.015506
_symmetry_space_group_name_H-M "I B A M"
_symmetry_group_IT_number 72
_symmetry_cell_setting 'orthorhombic'
loop_
_space_group_symop_operation_xyz
x,y,z
-x,-y,z
x,-y,1/2-z
-x,y,1/2-z
-x,-y,-z
x,y,-z
-x,y,1/2+z
x,-y,1/2+z
1/2+x,1/2+y,1/2+z
1/2-x,1/2-y,1/2+z
1/2+x,1/2-y,-z
1/2-x,1/2+y,-z
1/2-x,1/2-y,1/2-z
1/2+x,1/2+y,1/2-z
1/2-x,1/2+y,z
1/2+x,1/2-y,z
loop_
_atom_site_type_symbol
_atom_site_label
_atom_site_fract_x
_atom_site_fract_y
_atom_site_fract_z
Si Si1 0.063230 0.330217 0.104292
Si Si2 0.852197 0.667535 0.402967
Si Si3 0.551890 0.462263 0.649717
Si Si4 0.458758 0.225229 0.895769
Si Si5 0.193935 0.246662 0.775417
Si Si6 0.871028 0.124739 0.600429
Si Si7 0.654843 0.950409 0.655565
O O1 0.088374 0.216096 0.115305
O O2 0.099446 0.412972 0.146454
O O3 0.008425 0.325057 0.138117
O O4 0.062632 0.353676 0.000000
O O5 0.844200 0.716593 0.500000
O O6 0.910170 0.658308 0.388642
O O7 0.832835 0.729179 0.317663
O O8 0.832598 0.548529 0.405018
O O9 0.500000 0.500000 0.610386
O O10 0.552539 0.500000 0.750000
O O11 0.551988 0.337458 0.646448
O O12 0.598913 0.516895 0.607597
O O13 0.466997 0.245597 0.000000
O O14 0.250000 0.250000 0.750000
O O15 0.170139 0.147321 0.825988
O O16 0.184448 0.342432 0.844276
O O17 0.852574 0.136450 0.500000
O O18 0.663013 0.000000 0.750000
#
# Coordination Sequence:
#
# PCOD9526718 Si02
#       7
#    16  16  16  16  16  16  16
#     4   9  17  31  54  83 116 154 196 236 282 347
#     4  10  21  39  61  86 122 159 198 245 306 374
#     4  11  21  33  52  83 125 172 212 253 304 368
#     4  10  20  34  54  82 119 162 202 245 293 354
#     4  10  22  42  65  89 117 150 203 271 324 372
#     4  10  20  36  60  90 123 163 209 256 312 381
#     4   9  19  37  57  84 114 152 194 241 302 364
#
# _framework density 21.017015000000001
#
# number of rings (size 3 to 8) (size 9 to 14) (size 15 to 20)
#    0.000    2.143    1.429    1.714    0.000    2.286 
#    0.000   10.714    0.000    1.714    0.000    0.000 
#    0.000    0.000    0.000    0.000    0.000    0.000 
#
# Total GULP energy -312321.103501 kJ/mol
# GULP energy per Si atom -5577.162563 kJ/mol
# Density = 2.096918 g / cm^3
# Si number density = 21.017015 Si / 1000 Ang^3
#
#
#
# Elastic Constant Matrix: (Units=GPa)
#
#
# Indices 1 2 3 4 5 6 
#
# 1 107.3461 4.7835 29.1399 0.0000 0.0000 0.0000
# 2 4.7835 41.0444 -3.8468 0.0000 0.0000 0.0000
# 3 29.1399 -3.8468 76.9260 0.0000 0.0000 0.0000
# 4 0.0000 0.0000 0.0000 51.1764 0.0000 0.0000
# 5 0.0000 0.0000 0.0000 0.0000 30.9208 0.0000
# 6 0.0000 0.0000 0.0000 0.0000 0.0000 9.4944
#
#
#
# Elastic Compliance Matrix: (Units=1/GPa)
#
#
# Indices 1 2 3 4 5 6 
#
# 1 0.010487 -0.001602 -0.004053 0.000000 0.000000 0.000000
# 2 -0.001602 0.024723 0.001843 0.000000 0.000000 0.000000
# 3 -0.004053 0.001843 0.014627 0.000000 0.000000 0.000000
# 4 0.000000 0.000000 0.000000 0.019540 0.000000 0.000000
# 5 0.000000 0.000000 0.000000 0.000000 0.032341 0.000000
# 6 0.000000 0.000000 0.000000 0.000000 0.000000 0.105326
#
#
# Mechanical properties :
#
#
# Convention : Reuss Voigt Hill
#
# Bulk Modulus (GPa) = 23.68868 31.71885 27.70376
# Shear Modulus (GPa) = 21.85902 31.33432 26.59667
#
# Velocity S-wave (km/s) = 3.22850 3.86541 3.56122
# Velocity P-wave (km/s) = 5.01929 5.92002 5.48816
#
# Compressibility (1/GPa) = 0.04221426
#
# Stress axis : x y z
#
# Youngs Moduli (GPa) = 95.35445 40.44759 68.36743
#
# Poissons Ratio (x) = 0.06480 0.27707
# Poissons Ratio (y) = 0.15276 -0.12602
# Poissons Ratio (z) = 0.38644 -0.07455
#
# Static dielectric constant tensor:
#      x y z
#    x 1.771920 0.000000 0.000000 
#    y 0.000000 1.813810 0.000000 
#    z 0.000000 0.000000 1.798940 
# 
# From -- ./inp_files/26392.got.cif
#   From: 2010.05.17/outbox.cif.g08.bks.cpg/sg72_14_cif.got.tgz:26392.got - 2010.06.03 17:03:01.
