data_PCOD9526985
_publ_section_title
;
Structure prediction by ZEFSAII (Michael W. Deem and Ramdas Pophale) SiO2 
 PCOD9526985
Probable space group: I B A M
;
_chemical_formula_sum "Si O2"
_cell_formula_units_Z 76
_cell_length_a 34.010316
_cell_length_b 5.236107
_cell_length_c 28.367054
_cell_angle_alpha 90.000000
_cell_angle_beta 90.000000
_cell_angle_gamma 90.000000
_cell_volume 5051.651886
_symmetry_space_group_name_H-M "I B A M"
_symmetry_group_IT_number 72
_symmetry_cell_setting 'orthorhombic'
loop_
_space_group_symop_operation_xyz
x,y,z
-x,-y,z
x,-y,1/2-z
-x,y,1/2-z
-x,-y,-z
x,y,-z
-x,y,1/2+z
x,-y,1/2+z
1/2+x,1/2+y,1/2+z
1/2-x,1/2-y,1/2+z
1/2+x,1/2-y,-z
1/2-x,1/2+y,-z
1/2-x,1/2-y,1/2-z
1/2+x,1/2+y,1/2-z
1/2-x,1/2+y,z
1/2+x,1/2-y,z
loop_
_atom_site_type_symbol
_atom_site_label
_atom_site_fract_x
_atom_site_fract_y
_atom_site_fract_z
Si Si1 0.000000 0.500000 0.250000
Si Si2 0.527001 0.750219 0.500000
Si Si3 0.727004 0.700432 0.057307
Si Si4 0.089129 0.217889 0.915374
Si Si5 0.136217 0.285569 0.442821
Si Si6 0.524528 0.758418 0.658492
O O1 0.974813 0.672673 0.214092
O O2 0.500000 0.500000 0.500000
O O3 0.555163 0.746016 0.454700
O O4 0.500000 0.000000 0.500000
O O5 0.745345 0.432937 0.073057
O O6 0.681761 0.744599 0.070288
O O7 0.727684 0.698408 0.000000
O O8 0.119322 0.448797 0.923640
O O9 0.066445 0.235494 0.865954
O O10 0.110593 0.949557 0.923736
O O11 0.133273 0.288501 0.500000
O O12 0.500000 0.500000 0.651137
O O13 0.500000 0.000000 0.637676
#
# Coordination Sequence:
#
# PCOD9526985 Si02
#       6
#     4   8  16  16  16  16
#     4   8  22  36  58  70  86 120 162 212 254 294
#     4  12  22  32  44  62  90 130 170 196 228 268
#     4   9  17  29  46  65  87 125 171 203 226 272
#     4  12  21  33  47  68  97 131 161 209 242 282
#     4  11  20  33  46  68 101 133 165 201 245 274
#     4  10  20  36  53  70  91 121 167 203 250 289
#
# _framework density 15.044584
#
# number of rings (size 3 to 8) (size 9 to 14) (size 15 to 20)
#    0.632    0.842    2.105    5.368    0.000    3.368 
#    0.000    0.000    0.000    0.000    0.000    0.000 
#    0.000    0.000    0.000   18.947    0.000    0.000 
#
# Total GULP energy -211951.902421 kJ/mol
# GULP energy per Si atom -5577.681643 kJ/mol
# Density = 1.501034 g / cm^3
# Si number density = 15.044584 Si / 1000 Ang^3
#
#
#
# Elastic Constant Matrix: (Units=GPa)
#
#
# Indices 1 2 3 4 5 6 
#
# 1 38.9394 -15.8895 12.1042 0.0000 0.0000 0.0000
# 2 -15.8895 57.9307 -6.6070 0.0000 0.0000 0.0000
# 3 12.1042 -6.6070 54.7845 0.0000 0.0000 0.0000
# 4 0.0000 0.0000 0.0000 4.3841 0.0000 0.0000
# 5 0.0000 0.0000 0.0000 0.0000 8.2003 0.0000
# 6 0.0000 0.0000 0.0000 0.0000 0.0000 32.3456
#
#
#
# Elastic Compliance Matrix: (Units=1/GPa)
#
#
# Indices 1 2 3 4 5 6 
#
# 1 0.030655 0.007742 -0.005839 0.000000 0.000000 0.000000
# 2 0.007742 0.019458 0.000636 0.000000 0.000000 0.000000
# 3 -0.005839 0.000636 0.019620 0.000000 0.000000 0.000000
# 4 0.000000 0.000000 0.000000 0.228098 0.000000 0.000000
# 5 0.000000 0.000000 0.000000 0.000000 0.121946 0.000000
# 6 0.000000 0.000000 0.000000 0.000000 0.000000 0.030916
#
#
# Mechanical properties :
#
#
# Convention : Reuss Voigt Hill
#
# Bulk Modulus (GPa) = 13.36689 14.54112 13.95400
# Shear Modulus (GPa) = 10.62577 19.78912 15.20745
#
# Velocity S-wave (km/s) = 2.66049 3.63073 3.18280
# Velocity P-wave (km/s) = 4.28272 5.22136 4.77516
#
# Compressibility (1/GPa) = 0.07481173
#
# Stress axis : x y z
#
# Youngs Moduli (GPa) = 32.62073 51.39237 50.96787
#
# Poissons Ratio (x) = -0.39790 0.29762
# Poissons Ratio (y) = -0.25256 -0.03242
# Poissons Ratio (z) = 0.19048 -0.03269
#
# Static dielectric constant tensor:
#      x y z
#    x 1.482770 0.000000 0.000000 
#    y 0.000000 1.508680 0.000000 
#    z 0.000000 0.000000 1.497940 
# 
# From -- ./inp_files/52479.got.cif
#   From: 2010.05.17/outbox.cif.g08.bks.cpg/sg72_27_cif.got.tgz:52479.got - 2010.06.03 17:03:01.
