data_PCOD9526821
_publ_section_title
;
Structure prediction by ZEFSAII (Michael W. Deem and Ramdas Pophale) SiO2 
 PCOD9526821
Probable space group: I B A M
;
_chemical_formula_sum "Si O2"
_cell_formula_units_Z 64
_cell_length_a 14.921123
_cell_length_b 28.605044
_cell_length_c 8.639648
_cell_angle_alpha 90.000000
_cell_angle_beta 90.000000
_cell_angle_gamma 90.000000
_cell_volume 3687.569202
_symmetry_space_group_name_H-M "I B A M"
_symmetry_group_IT_number 72
_symmetry_cell_setting 'orthorhombic'
loop_
_space_group_symop_operation_xyz
x,y,z
-x,-y,z
x,-y,1/2-z
-x,y,1/2-z
-x,-y,-z
x,y,-z
-x,y,1/2+z
x,-y,1/2+z
1/2+x,1/2+y,1/2+z
1/2-x,1/2-y,1/2+z
1/2+x,1/2-y,-z
1/2-x,1/2+y,-z
1/2-x,1/2-y,1/2-z
1/2+x,1/2+y,1/2-z
1/2-x,1/2+y,z
1/2+x,1/2-y,z
loop_
_atom_site_type_symbol
_atom_site_label
_atom_site_fract_x
_atom_site_fract_y
_atom_site_fract_z
Si Si1 0.901044 0.948564 0.185110
Si Si2 0.291343 0.636832 0.314098
Si Si3 0.092106 0.330785 0.814422
Si Si4 0.655758 0.731517 0.685670
O O1 0.830897 0.910134 0.242851
O O2 0.000000 0.936677 0.250000
O O3 0.878866 0.000000 0.250000
O O4 0.904513 0.949912 0.000000
O O5 0.292852 0.634918 0.500000
O O6 0.187797 0.647100 0.264600
O O7 0.352983 0.680513 0.259455
O O8 0.094421 0.275595 0.771858
O O9 0.000000 0.351736 0.750000
O O10 0.090631 0.333536 0.000000
O O11 0.657185 0.727145 0.500000
O O12 0.750000 0.750000 0.750000
#
# Coordination Sequence:
#
# PCOD9526821 Si02
#       4
#    16  16  16  16
#     4  11  22  38  59  82 106 134 166 209 261 315
#     4  10  20  35  53  77 106 138 176 219 261 311
#     4   9  19  32  49  73 105 141 178 216 256 302
#     4   9  17  30  46  69  99 135 175 216 258 302
#
# _framework density 17.355606999999999
#
# number of rings (size 3 to 8) (size 9 to 14) (size 15 to 20)
#    0.000    2.250    0.000    6.000    0.000    7.000 
#    0.000    2.500    0.000    0.750    0.000    5.250 
#    0.000    0.000    0.000    0.000    0.000    0.000 
#
# Total GULP energy -178309.801052 kJ/mol
# GULP energy per Si atom -5572.181283 kJ/mol
# Density = 1.731610 g / cm^3
# Si number density = 17.355607 Si / 1000 Ang^3
#
#
#
# Elastic Constant Matrix: (Units=GPa)
#
#
# Indices 1 2 3 4 5 6 
#
# 1 112.4542 75.7649 44.3286 0.0001 -0.0001 0.0001
# 2 75.7649 114.1469 46.4283 -0.0004 -0.0001 -0.0002
# 3 44.3286 46.4283 77.8375 -0.0003 -0.0008 0.0003
# 4 0.0001 -0.0004 -0.0003 29.7860 -0.0004 -0.0002
# 5 -0.0001 -0.0001 -0.0008 -0.0004 24.4430 -0.0001
# 6 0.0001 -0.0002 0.0003 -0.0002 -0.0001 23.7701
#
#
#
# Elastic Compliance Matrix: (Units=1/GPa)
#
#
# Indices 1 2 3 4 5 6 
#
# 1 0.016930 -0.009659 -0.003880 0.000000 0.000000 0.000000
# 2 -0.009659 0.017077 -0.004686 0.000000 0.000000 0.000000
# 3 -0.003880 -0.004686 0.017852 0.000000 0.000001 0.000000
# 4 0.000000 0.000000 0.000000 0.033573 0.000001 0.000000
# 5 0.000000 0.000000 0.000001 0.000001 0.040911 0.000000
# 6 0.000000 0.000000 0.000000 0.000000 0.000000 0.042070
#
#
# Mechanical properties :
#
#
# Convention : Reuss Voigt Hill
#
# Bulk Modulus (GPa) = 64.89380 70.83135 67.86257
# Shear Modulus (GPa) = 23.80969 24.79429 24.30199
#
# Velocity S-wave (km/s) = 3.70790 3.78379 3.74604
# Velocity P-wave (km/s) = 7.47015 7.74531 7.60898
#
# Compressibility (1/GPa) = 0.01540979
#
# Stress axis : x y z
#
# Youngs Moduli (GPa) = 59.06845 58.55673 56.01633
#
# Poissons Ratio (x) = 0.56558 0.21735
# Poissons Ratio (y) = 0.57053 0.26247
# Poissons Ratio (z) = 0.22920 0.27438
#
# Static dielectric constant tensor:
#      x y z
#    x 1.597560 0.000000 0.000000 
#    y 0.000000 1.595800 0.000000 
#    z 0.000000 0.000000 1.580400 
# 
# From -- ./inp_files/3427.got.cif
#   From: 2010.05.17/outbox.cif.g08.bks.cpg/sg72_2_cif.got.tgz:3427.got - 2010.06.03 17:03:01.
