data_PCOD9526621
_publ_section_title
;
Structure prediction by ZEFSAII (Michael W. Deem and Ramdas Pophale) SiO2 
 PCOD9526621
Probable space group: I B A M
;
_chemical_formula_sum "Si O2"
_cell_formula_units_Z 96
_cell_length_a 23.312774
_cell_length_b 8.193464
_cell_length_c 24.855735
_cell_angle_alpha 90.000000
_cell_angle_beta 90.000000
_cell_angle_gamma 90.000000
_cell_volume 4747.752963
_symmetry_space_group_name_H-M "I B A M"
_symmetry_group_IT_number 72
_symmetry_cell_setting 'orthorhombic'
loop_
_space_group_symop_operation_xyz
x,y,z
-x,-y,z
x,-y,1/2-z
-x,y,1/2-z
-x,-y,-z
x,y,-z
-x,y,1/2+z
x,-y,1/2+z
1/2+x,1/2+y,1/2+z
1/2-x,1/2-y,1/2+z
1/2+x,1/2-y,-z
1/2-x,1/2+y,-z
1/2-x,1/2-y,1/2-z
1/2+x,1/2+y,1/2-z
1/2-x,1/2+y,z
1/2+x,1/2-y,z
loop_
_atom_site_type_symbol
_atom_site_label
_atom_site_fract_x
_atom_site_fract_y
_atom_site_fract_z
Si Si1 0.328804 0.325346 0.939434
Si Si2 0.792355 0.147285 0.712828
Si Si3 0.738179 0.973849 0.107224
Si Si4 0.133659 0.316776 0.875178
Si Si5 0.535535 0.659808 0.563478
Si Si6 0.931979 0.601522 0.436012
O O1 0.301733 0.467933 0.905535
O O2 0.392408 0.262989 0.930400
O O3 0.289760 0.166289 0.928287
O O4 0.322743 0.378923 0.000000
O O5 0.750000 0.250000 0.750000
O O6 0.843296 0.249065 0.682657
O O7 0.815446 0.000000 0.750000
O O8 0.746895 0.082176 0.668137
O O9 0.694462 0.124885 0.100607
O O10 0.093705 0.183949 0.903713
O O11 0.094718 0.479132 0.890891
O O12 0.500000 0.500000 0.580007
O O13 0.548092 0.643667 0.500000
O O14 0.495625 0.822984 0.569577
O O15 0.924220 0.547563 0.500000
#
# Coordination Sequence:
#
# PCOD9526621 Si02
#       6
#    16  16  16  16  16  16
#     4  10  20  33  54  90 135 168 196 246 309 392
#     4  12  24  44  65  92 122 164 227 288 343 389
#     4  11  21  38  58  92 124 168 214 256 328 393
#     4  11  22  38  65  93 123 173 218 265 333 398
#     4  10  22  40  65 102 140 176 216 258 315 395
#     4   9  20  38  61  94 138 180 211 249 313 401
#
# _framework density 20.220091
#
# number of rings (size 3 to 8) (size 9 to 14) (size 15 to 20)
#    0.000    1.500    3.333    1.500    2.333    3.333 
#    0.000    0.000    0.000    0.500    4.333    0.000 
#    0.000    0.000    0.000    0.000    0.000    0.000 
#
# Total GULP energy -267233.189741 kJ/mol
# GULP energy per Si atom -5567.358120 kJ/mol
# Density = 2.017407 g / cm^3
# Si number density = 20.220091 Si / 1000 Ang^3
#
#
#
# Elastic Constant Matrix: (Units=GPa)
#
#
# Indices 1 2 3 4 5 6 
#
# 1 115.7029 46.3616 62.4155 0.0000 0.0000 0.0000
# 2 46.3616 76.2084 37.0219 0.0000 0.0000 0.0000
# 3 62.4155 37.0219 80.6494 0.0000 0.0000 0.0000
# 4 0.0000 0.0000 0.0000 49.6105 0.0000 0.0000
# 5 0.0000 0.0000 0.0000 0.0000 -46.3316 0.0000
# 6 0.0000 0.0000 0.0000 0.0000 0.0000 45.3897
#
#
#
# Elastic Compliance Matrix: (Units=1/GPa)
#
#
# Indices 1 2 3 4 5 6 
#
# 1 0.016103 -0.004816 -0.010251 0.000000 0.000000 0.000000
# 2 -0.004816 0.018328 -0.004686 0.000000 0.000000 0.000000
# 3 -0.010251 -0.004686 0.022484 0.000000 0.000000 0.000000
# 4 0.000000 0.000000 0.000000 0.020157 0.000000 0.000000
# 5 0.000000 0.000000 0.000000 0.000000 -0.021584 0.000000
# 6 0.000000 0.000000 0.000000 0.000000 0.000000 0.022031
#
#
# Mechanical properties :
#
#
# Convention : Reuss Voigt Hill
#
# Bulk Modulus (GPa) = 57.44536 62.68431 60.06483
# Shear Modulus (GPa) = 40.70671 18.18450 29.44561
#
# Velocity S-wave (km/s) = 4.49172 3.00213 3.82023
# Velocity P-wave (km/s) = 7.44126 6.56395 7.01633
#
# Compressibility (1/GPa) = 0.01740785
#
# Stress axis : x y z
#
# Youngs Moduli (GPa) = 62.10203 54.56008 44.47579
#
# Poissons Ratio (x) = 0.26276 0.45593
# Poissons Ratio (y) = 0.29908 0.20843
# Poissons Ratio (z) = 0.63662 0.25569
#
# Static dielectric constant tensor:
#      x y z
#    x 1.744170 0.000000 0.000000 
#    y 0.000000 1.855970 0.000000 
#    z 0.000000 0.000000 1.705090 
# 
# From -- ./inp_files/49370.got.cif
#   From: 2010.05.17/outbox.cif.g08.bks.cpg/sg72_25_cif.got.tgz:49370.got - 2010.06.03 17:03:01.
