data_PCOD9526965
_publ_section_title
;
Structure prediction by ZEFSAII (Michael W. Deem and Ramdas Pophale) SiO2 
 PCOD9526965
Probable space group: I B A M
;
_chemical_formula_sum "Si O2"
_cell_formula_units_Z 96
_cell_length_a 14.330309
_cell_length_b 18.420323
_cell_length_c 19.289326
_cell_angle_alpha 90.000000
_cell_angle_beta 90.000000
_cell_angle_gamma 90.000000
_cell_volume 5091.782561
_symmetry_space_group_name_H-M "I B A M"
_symmetry_group_IT_number 72
_symmetry_cell_setting 'orthorhombic'
loop_
_space_group_symop_operation_xyz
x,y,z
-x,-y,z
x,-y,1/2-z
-x,y,1/2-z
-x,-y,-z
x,y,-z
-x,y,1/2+z
x,-y,1/2+z
1/2+x,1/2+y,1/2+z
1/2-x,1/2-y,1/2+z
1/2+x,1/2-y,-z
1/2-x,1/2+y,-z
1/2-x,1/2-y,1/2-z
1/2+x,1/2+y,1/2-z
1/2-x,1/2+y,z
1/2+x,1/2-y,z
loop_
_atom_site_type_symbol
_atom_site_label
_atom_site_fract_x
_atom_site_fract_y
_atom_site_fract_z
Si Si1 0.757815 0.078531 0.785715
Si Si2 0.573455 0.837375 0.311014
Si Si3 0.759994 0.502646 0.578438
Si Si4 0.949144 0.577660 0.579506
Si Si5 0.908687 0.175480 0.297159
Si Si6 0.558757 0.428558 0.077454
O O1 0.653717 0.109422 0.783937
O O2 0.829080 0.132832 0.746779
O O3 0.768083 0.000000 0.750000
O O4 0.765949 0.061373 0.868192
O O5 0.500000 0.831838 0.250000
O O6 0.513928 0.869261 0.375323
O O7 0.617268 0.757225 0.320152
O O8 0.785546 0.477583 0.500000
O O9 0.844604 0.554809 0.604000
O O10 0.666500 0.548738 0.573384
O O11 0.941594 0.603881 0.500000
O O12 0.000000 0.500000 0.579815
O O13 0.942267 0.131795 0.364484
O O14 0.000000 0.179066 0.250000
O O15 0.500000 0.500000 0.097775
O O16 0.526665 0.406943 0.000000
#
# Coordination Sequence:
#
# PCOD9526965 Si02
#       6
#    16  16  16  16  16  16
#     4  12  22  37  64  89 116 165 206 251 312 377
#     4  11  25  39  57  91 127 160 200 254 313 376
#     4  10  20  35  60  95 122 150 206 262 302 361
#     4  10  20  37  62  89 121 161 206 254 304 373
#     4  11  25  41  58  88 127 163 203 259 315 375
#     4  10  21  39  64  90 118 158 208 256 301 363
#
# _framework density 18.853909000000002
#
# number of rings (size 3 to 8) (size 9 to 14) (size 15 to 20)
#    0.000    1.333    3.333    2.500    0.000    0.667 
#    0.000    0.000    0.000    1.000    0.000    0.000 
#    0.000    0.000    0.000    0.000    0.000    0.000 
#
# Total GULP energy -267511.259524 kJ/mol
# GULP energy per Si atom -5573.151240 kJ/mol
# Density = 1.881100 g / cm^3
# Si number density = 18.853909 Si / 1000 Ang^3
#
#
#
# Elastic Constant Matrix: (Units=GPa)
#
#
# Indices 1 2 3 4 5 6 
#
# 1 79.8646 23.6212 3.7924 0.0000 0.0000 0.0000
# 2 23.6212 87.3474 45.5001 0.0000 0.0000 0.0001
# 3 3.7924 45.5001 88.5337 0.0000 0.0000 0.0001
# 4 0.0000 0.0000 0.0000 -60.5980 0.0000 0.0001
# 5 0.0000 0.0000 0.0000 0.0000 26.5377 0.0000
# 6 0.0000 0.0001 0.0001 0.0001 0.0000 -535.6116
#
#
#
# Elastic Compliance Matrix: (Units=1/GPa)
#
#
# Indices 1 2 3 4 5 6 
#
# 1 0.013820 -0.004682 0.001814 0.000000 0.000000 0.000000
# 2 -0.004682 0.017220 -0.008649 0.000000 0.000000 0.000000
# 3 0.001814 -0.008649 0.015663 0.000000 0.000000 0.000000
# 4 0.000000 0.000000 0.000000 -0.016502 0.000000 0.000000
# 5 0.000000 0.000000 0.000000 0.000000 0.037682 0.000000
# 6 0.000000 0.000000 0.000000 0.000000 0.000000 -0.001867
#
#
# Mechanical properties :
#
#
# Convention : Reuss Voigt Hill
#
# Bulk Modulus (GPa) = 42.25116 44.61924 43.43520
# Shear Modulus (GPa) = 51.57813 -101.74558 -25.08372
#
# Velocity S-wave (km/s) = 5.23604 -7.35407 -3.65146
# Velocity P-wave (km/s) = 7.68201 6.95649 2.30440
#
# Compressibility (1/GPa) = 0.02366799
#
# Stress axis : x y z
#
# Youngs Moduli (GPa) = 72.35916 58.07060 63.84623
#
# Poissons Ratio (x) = 0.27191 -0.11585
# Poissons Ratio (y) = 0.33882 0.55224
# Poissons Ratio (z) = -0.13129 0.50228
#
# Static dielectric constant tensor:
#      x y z
#    x 1.548190 0.000000 0.000000 
#    y 0.000000 1.676210 0.000000 
#    z 0.000000 0.000000 1.736900 
# 
# From -- ./inp_files/38033.got.cif
#   From: 2010.05.17/outbox.cif.g08.bks.cpg/sg72_20_cif.got.tgz:38033.got - 2010.06.03 17:03:01.
