data_PCOD9526701
_publ_section_title
;
Structure prediction by ZEFSAII (Michael W. Deem and Ramdas Pophale) SiO2 
 PCOD9526701
Probable space group: I B A M
;
_chemical_formula_sum "Si O2"
_cell_formula_units_Z 80
_cell_length_a 17.913304
_cell_length_b 24.577437
_cell_length_c 9.916084
_cell_angle_alpha 90.000000
_cell_angle_beta 90.000000
_cell_angle_gamma 90.000000
_cell_volume 4365.685887
_symmetry_space_group_name_H-M "I B A M"
_symmetry_group_IT_number 72
_symmetry_cell_setting 'orthorhombic'
loop_
_space_group_symop_operation_xyz
x,y,z
-x,-y,z
x,-y,1/2-z
-x,y,1/2-z
-x,-y,-z
x,y,-z
-x,y,1/2+z
x,-y,1/2+z
1/2+x,1/2+y,1/2+z
1/2-x,1/2-y,1/2+z
1/2+x,1/2-y,-z
1/2-x,1/2+y,-z
1/2-x,1/2-y,1/2-z
1/2+x,1/2+y,1/2-z
1/2-x,1/2+y,z
1/2+x,1/2-y,z
loop_
_atom_site_type_symbol
_atom_site_label
_atom_site_fract_x
_atom_site_fract_y
_atom_site_fract_z
Si Si1 0.928559 0.054776 0.162426
Si Si2 0.062627 0.369247 0.000000
Si Si3 0.260542 0.674910 0.000000
Si Si4 0.129304 0.436174 0.764970
Si Si5 0.281733 0.622077 0.714624
Si Si6 0.287760 0.199442 0.500000
Si Si7 0.602934 0.865960 0.000000
O O1 0.859230 0.095677 0.171235
O O2 0.000000 0.075512 0.250000
O O3 0.909257 0.000000 0.250000
O O4 0.942992 0.045496 0.000000
O O5 0.075491 0.408625 0.126583
O O6 0.128974 0.325450 0.000000
O O7 0.980767 0.343916 0.000000
O O8 0.284463 0.641475 0.131454
O O9 0.289771 0.736016 0.000000
O O10 0.169957 0.676995 0.000000
O O11 0.118568 0.500000 0.750000
O O12 0.214828 0.421707 0.804942
O O13 0.114607 0.404468 0.627689
O O14 0.255654 0.673888 0.627357
#
# Coordination Sequence:
#
# PCOD9526701 Si02
#       7
#    16   8   8  16  16   8   8
#     4  11  23  39  61  90 125 159 193 237 302 362
#     4  10  21  34  56  77 114 144 186 232 283 331
#     4  10  22  37  63  81 113 151 204 241 299 345
#     4  10  20  34  53  81 113 150 184 218 274 337
#     4  10  21  38  59  84 116 150 195 246 283 353
#     4  10  20  41  59  83 109 155 196 249 299 341
#     4  10  21  36  50  83 110 146 184 234 273 333
#
# _framework density 18.324725999999998
#
# number of rings (size 3 to 8) (size 9 to 14) (size 15 to 20)
#    0.000    1.800    1.000    3.600    2.800    2.400 
#    3.600    2.000    0.000    0.000    0.000    0.000 
#    0.000    0.000    0.000    0.000    0.000    0.000 
#
# Total GULP energy -223141.960917 kJ/mol
# GULP energy per Si atom -5578.549023 kJ/mol
# Density = 1.828302 g / cm^3
# Si number density = 18.324726 Si / 1000 Ang^3
#
#
#
# Elastic Constant Matrix: (Units=GPa)
#
#
# Indices 1 2 3 4 5 6 
#
# 1 113.9275 30.6323 15.4466 0.0000 0.0000 0.0000
# 2 30.6323 59.9124 3.4451 0.0000 0.0000 0.0000
# 3 15.4466 3.4451 127.2509 0.0000 0.0000 0.0000
# 4 0.0000 0.0000 0.0000 8.6710 0.0000 0.0000
# 5 0.0000 0.0000 0.0000 0.0000 19.4093 0.0000
# 6 0.0000 0.0000 0.0000 0.0000 0.0000 14.6663
#
#
#
# Elastic Compliance Matrix: (Units=1/GPa)
#
#
# Indices 1 2 3 4 5 6 
#
# 1 0.010331 -0.005218 -0.001113 0.000000 0.000000 0.000000
# 2 -0.005218 0.019353 0.000109 0.000000 0.000000 0.000000
# 3 -0.001113 0.000109 0.007991 0.000000 0.000000 0.000000
# 4 0.000000 0.000000 0.000000 0.115327 0.000000 0.000000
# 5 0.000000 0.000000 0.000000 0.000000 0.051522 0.000000
# 6 0.000000 0.000000 0.000000 0.000000 0.000000 0.068184
#
#
# Mechanical properties :
#
#
# Convention : Reuss Voigt Hill
#
# Bulk Modulus (GPa) = 39.63295 44.45988 42.04641
# Shear Modulus (GPa) = 17.03222 25.32042 21.17632
#
# Velocity S-wave (km/s) = 3.05202 3.72124 3.40312
# Velocity P-wave (km/s) = 5.83908 6.54052 6.19973
#
# Compressibility (1/GPa) = 0.02523153
#
# Stress axis : x y z
#
# Youngs Moduli (GPa) = 96.79157 51.67210 125.14687
#
# Poissons Ratio (x) = 0.26964 0.13927
# Poissons Ratio (y) = 0.50509 -0.01370
# Poissons Ratio (z) = 0.10771 -0.00566
#
# Static dielectric constant tensor:
#      x y z
#    x 1.654430 0.000000 0.000000 
#    y 0.000000 1.576950 0.000000 
#    z 0.000000 0.000000 1.650040 
# 
# From -- ./inp_files/4890.got.cif
#   From: 2010.05.17/outbox.cif.g08.bks.cpg/sg72_3_cif.got.tgz:4890.got - 2010.06.03 17:03:01.
