data_PCOD9526988
_publ_section_title
;
Structure prediction by ZEFSAII (Michael W. Deem and Ramdas Pophale) SiO2 
 PCOD9526988
Probable space group: I B A M
;
_chemical_formula_sum "Si O2"
_cell_formula_units_Z 96
_cell_length_a 30.887924
_cell_length_b 20.520954
_cell_length_c 8.553982
_cell_angle_alpha 90.000000
_cell_angle_beta 90.000000
_cell_angle_gamma 90.000000
_cell_volume 5421.938647
_symmetry_space_group_name_H-M "I B A M"
_symmetry_group_IT_number 72
_symmetry_cell_setting 'orthorhombic'
loop_
_space_group_symop_operation_xyz
x,y,z
-x,-y,z
x,-y,1/2-z
-x,y,1/2-z
-x,-y,-z
x,y,-z
-x,y,1/2+z
x,-y,1/2+z
1/2+x,1/2+y,1/2+z
1/2-x,1/2-y,1/2+z
1/2+x,1/2-y,-z
1/2-x,1/2+y,-z
1/2-x,1/2-y,1/2-z
1/2+x,1/2+y,1/2-z
1/2-x,1/2+y,z
1/2+x,1/2-y,z
loop_
_atom_site_type_symbol
_atom_site_label
_atom_site_fract_x
_atom_site_fract_y
_atom_site_fract_z
Si Si1 0.765775 0.569535 0.311907
Si Si2 0.451340 0.790207 0.811496
Si Si3 0.627676 0.294336 0.810538
Si Si4 0.049342 0.566345 0.313318
Si Si5 0.664813 0.430764 0.188230
Si Si6 0.207902 0.711588 0.188189
O O1 0.782064 0.500000 0.250000
O O2 0.766618 0.567249 0.500000
O O3 0.715222 0.576287 0.262538
O O4 0.789473 0.635726 0.261587
O O5 0.500000 0.782521 0.750000
O O6 0.418125 0.734999 0.758400
O O7 0.433561 0.862377 0.766364
O O8 0.453352 0.789336 0.000000
O O9 0.638240 0.367757 0.758477
O O10 0.665790 0.247665 0.751738
O O11 0.628458 0.293869 0.000000
O O12 0.070435 0.500000 0.250000
O O13 0.048347 0.562253 0.500000
O O14 0.000000 0.566910 0.250000
O O15 0.648743 0.500000 0.250000
O O16 0.664406 0.431977 0.000000
O O17 0.250000 0.750000 0.250000
O O18 0.208570 0.713364 0.000000
#
# Coordination Sequence:
#
# PCOD9526988 Si02
#       6
#    16  16  16  16  16  16
#     4   9  18  32  49  72 101 136 173 209 250 297
#     4   9  19  34  53  74 101 133 170 213 260 306
#     4  10  20  36  54  76 105 138 171 211 261 310
#     4   9  15  25  43  68  92 122 159 200 246 294
#     4   9  17  31  50  73 101 130 167 210 251 300
#     4  11  21  34  52  77 106 136 171 211 253 304
#
# _framework density 17.705845
#
# number of rings (size 3 to 8) (size 9 to 14) (size 15 to 20)
#    0.000    2.500    1.667    1.500    0.000    3.333 
#    0.000    0.833    0.000    4.500    0.000    3.500 
#    0.000    0.000    0.000    0.000    0.000    0.000 
#
# Total GULP energy -267544.680275 kJ/mol
# GULP energy per Si atom -5573.847506 kJ/mol
# Density = 1.766555 g / cm^3
# Si number density = 17.705845 Si / 1000 Ang^3
#
#
#
# Elastic Constant Matrix: (Units=GPa)
#
#
# Indices 1 2 3 4 5 6 
#
# 1 67.2820 63.6649 8.6516 0.0000 0.0000 0.0000
# 2 63.6649 196.7731 24.7814 0.0000 0.0000 0.0000
# 3 8.6516 24.7814 9.9900 0.0000 0.0000 0.0000
# 4 0.0000 0.0000 0.0000 42.0673 0.0000 0.0000
# 5 0.0000 0.0000 0.0000 0.0000 13.1863 0.0000
# 6 0.0000 0.0000 0.0000 0.0000 0.0000 23.9663
#
#
#
# Elastic Compliance Matrix: (Units=1/GPa)
#
#
# Indices 1 2 3 4 5 6 
#
# 1 0.021448 -0.006690 -0.001979 0.000000 0.000000 0.000000
# 2 -0.006690 0.009478 -0.017717 0.000000 0.000000 0.000000
# 3 -0.001979 -0.017717 0.145763 0.000000 0.000000 0.000000
# 4 0.000000 0.000000 0.000000 0.023771 0.000000 0.000000
# 5 0.000000 0.000000 0.000000 0.000000 0.075836 0.000000
# 6 0.000000 0.000000 0.000000 0.000000 0.000000 0.041725
#
#
# Mechanical properties :
#
#
# Convention : Reuss Voigt Hill
#
# Bulk Modulus (GPa) = 8.06996 52.02678 30.04837
# Shear Modulus (GPa) = 12.13304 27.64046 19.88675
#
# Velocity S-wave (km/s) = 2.62058 3.95535 3.35501
# Velocity P-wave (km/s) = 3.70463 7.09278 5.65826
#
# Compressibility (1/GPa) = 0.12391637
#
# Stress axis : x y z
#
# Youngs Moduli (GPa) = 46.62514 105.50976 6.86047
#
# Poissons Ratio (x) = 0.70587 0.01358
# Poissons Ratio (y) = 0.31193 0.12155
# Poissons Ratio (z) = 0.09226 1.86932
#
# Static dielectric constant tensor:
#      x y z
#    x 1.583740 0.000000 0.000000 
#    y 0.000000 1.644130 0.000000 
#    z 0.000000 0.000000 1.606920 
# 
# From -- ./inp_files/8070.got.cif
#   From: 2010.05.17/outbox.cif.g08.bks.cpg/sg72_5_cif.got.tgz:8070.got - 2010.06.03 17:03:01.
