data_PCOD9526231
_publ_section_title
;
Structure prediction by ZEFSAII (Michael W. Deem and Ramdas Pophale) SiO2 
 PCOD9526231
Probable space group: I B A M
;
_chemical_formula_sum "Si O2"
_cell_formula_units_Z 96
_cell_length_a 16.377856
_cell_length_b 17.813772
_cell_length_c 18.162904
_cell_angle_alpha 90.000000
_cell_angle_beta 90.000000
_cell_angle_gamma 90.000000
_cell_volume 5299.052536
_symmetry_space_group_name_H-M "I B A M"
_symmetry_group_IT_number 72
_symmetry_cell_setting 'orthorhombic'
loop_
_space_group_symop_operation_xyz
x,y,z
-x,-y,z
x,-y,1/2-z
-x,y,1/2-z
-x,-y,-z
x,y,-z
-x,y,1/2+z
x,-y,1/2+z
1/2+x,1/2+y,1/2+z
1/2-x,1/2-y,1/2+z
1/2+x,1/2-y,-z
1/2-x,1/2+y,-z
1/2-x,1/2-y,1/2-z
1/2+x,1/2+y,1/2-z
1/2-x,1/2+y,z
1/2+x,1/2-y,z
loop_
_atom_site_type_symbol
_atom_site_label
_atom_site_fract_x
_atom_site_fract_y
_atom_site_fract_z
Si Si1 0.909297 0.527969 0.912725
Si Si2 0.664117 0.421289 0.225860
Si Si3 0.736823 0.911550 0.082739
Si Si4 0.408872 0.264952 0.769379
Si Si5 0.807963 0.355518 0.322686
Si Si6 0.681516 0.261272 0.415808
O O1 0.843855 0.461027 0.902910
O O2 0.877025 0.595393 0.862245
O O3 0.000000 0.500000 0.893808
O O4 0.909387 0.548418 0.000000
O O5 0.626251 0.500000 0.250000
O O6 0.694859 0.427112 0.142656
O O7 0.609681 0.347958 0.238448
O O8 0.745693 0.406173 0.275122
O O9 0.713031 0.824219 0.086253
O O10 0.764436 0.929369 0.000000
O O11 0.500000 0.242063 0.750000
O O12 0.346303 0.207117 0.730925
O O13 0.390861 0.266672 0.856425
O O14 0.752908 0.314364 0.384222
O O15 0.660215 0.279873 0.500000
#
# Coordination Sequence:
#
# PCOD9526231 Si02
#       6
#    16  16  16  16  16  16
#     4  10  22  35  52  87 125 152 181 229 292 356
#     4  11  20  39  61  81 108 151 200 237 283 339
#     4  10  19  35  56  83 115 148 189 234 280 341
#     4  11  24  39  57  87 121 150 193 245 288 350
#     4  11  20  36  60  83 116 149 198 232 280 348
#     4  10  20  38  61  84 112 154 196 241 287 336
#
# _framework density 18.116447000000001
#
# number of rings (size 3 to 8) (size 9 to 14) (size 15 to 20)
#    0.000    1.500    5.000    1.500    2.333    0.333 
#    0.000    2.500    0.000    0.000    0.000    3.500 
#    0.000    0.000    0.000    0.000    0.000    0.000 
#
# Total GULP energy -268019.297401 kJ/mol
# GULP energy per Si atom -5583.735363 kJ/mol
# Density = 1.807521 g / cm^3
# Si number density = 18.116447 Si / 1000 Ang^3
#
#
#
# Elastic Constant Matrix: (Units=GPa)
#
#
# Indices 1 2 3 4 5 6 
#
# 1 40.5928 -3.4951 30.6226 0.0000 0.0000 0.0000
# 2 -3.4951 73.9057 22.1791 0.0000 0.0000 0.0000
# 3 30.6226 22.1791 119.4294 0.0000 0.0000 0.0000
# 4 0.0000 0.0000 0.0000 17.7613 0.0000 0.0000
# 5 0.0000 0.0000 0.0000 0.0000 14.2197 0.0000
# 6 0.0000 0.0000 0.0000 0.0000 0.0000 21.2735
#
#
#
# Elastic Compliance Matrix: (Units=1/GPa)
#
#
# Indices 1 2 3 4 5 6 
#
# 1 0.031713 0.004173 -0.008906 0.000000 0.000000 0.000000
# 2 0.004173 0.014878 -0.003833 0.000000 0.000000 0.000000
# 3 -0.008906 -0.003833 0.011369 0.000000 0.000000 0.000000
# 4 0.000000 0.000000 0.000000 0.056302 0.000000 0.000000
# 5 0.000000 0.000000 0.000000 0.000000 0.070325 0.000000
# 6 0.000000 0.000000 0.000000 0.000000 0.000000 0.047007
#
#
# Mechanical properties :
#
#
# Convention : Reuss Voigt Hill
#
# Bulk Modulus (GPa) = 24.49388 36.94900 30.72144
# Shear Modulus (GPa) = 19.05950 22.95898 21.00924
#
# Velocity S-wave (km/s) = 3.24706 3.56378 3.40910
# Velocity P-wave (km/s) = 5.25428 6.11339 5.70004
#
# Compressibility (1/GPa) = 0.04082652
#
# Stress axis : x y z
#
# Youngs Moduli (GPa) = 31.53283 67.21184 87.96162
#
# Poissons Ratio (x) = -0.28044 0.78341
# Poissons Ratio (y) = -0.13157 0.33715
# Poissons Ratio (z) = 0.28084 0.25762
#
# Static dielectric constant tensor:
#      x y z
#    x 1.591880 0.000000 0.000000 
#    y 0.000000 1.619590 0.000000 
#    z 0.000000 0.000000 1.632060 
# 
# From -- ./inp_files/31612.got.cif
#   From: 2010.05.17/outbox.cif.g08.bks.cpg/sg72_16_cif.got.tgz:31612.got - 2010.06.03 17:03:01.
