data_PCOD9526496
_publ_section_title
;
Structure prediction by ZEFSAII (Michael W. Deem and Ramdas Pophale) SiO2 
 PCOD9526496
Probable space group: I B A M
;
_chemical_formula_sum "Si O2"
_cell_formula_units_Z 72
_cell_length_a 24.606965
_cell_length_b 18.446488
_cell_length_c 9.127418
_cell_angle_alpha 90.000000
_cell_angle_beta 90.000000
_cell_angle_gamma 90.000000
_cell_volume 4143.045331
_symmetry_space_group_name_H-M "I B A M"
_symmetry_group_IT_number 72
_symmetry_cell_setting 'orthorhombic'
loop_
_space_group_symop_operation_xyz
x,y,z
-x,-y,z
x,-y,1/2-z
-x,y,1/2-z
-x,-y,-z
x,y,-z
-x,y,1/2+z
x,-y,1/2+z
1/2+x,1/2+y,1/2+z
1/2-x,1/2-y,1/2+z
1/2+x,1/2-y,-z
1/2-x,1/2+y,-z
1/2-x,1/2-y,1/2-z
1/2+x,1/2+y,1/2-z
1/2-x,1/2+y,z
1/2+x,1/2-y,z
loop_
_atom_site_type_symbol
_atom_site_label
_atom_site_fract_x
_atom_site_fract_y
_atom_site_fract_z
Si Si1 0.837897 0.764481 0.327812
Si Si2 0.233865 0.647019 0.666211
Si Si3 0.315214 0.000000 0.250000
Si Si4 0.943424 0.720897 0.824432
Si Si5 0.922328 0.569196 0.664128
O O1 0.803208 0.694919 0.273617
O O2 0.796362 0.831275 0.307508
O O3 0.892541 0.767341 0.233686
O O4 0.648934 0.743161 0.000000
O O5 0.220461 0.670936 0.500000
O O6 0.220757 0.562274 0.677779
O O7 0.358629 0.953482 0.344469
O O8 0.931225 0.640131 0.761180
O O9 0.000000 0.743924 0.750000
O O10 0.946668 0.720013 0.000000
O O11 0.944995 0.500000 0.750000
O O12 0.943800 0.579493 0.500000
#
# Coordination Sequence:
#
# PCOD9526496 Si02
#       5
#    16  16   8  16  16
#     4  10  20  35  55  79 106 140 181 225 272 322
#     4  10  20  34  54  79 110 144 180 220 268 322
#     4  10  20  30  55  78 113 146 178 214 260 314
#     4  12  24  38  55  74 103 139 184 228 269 319
#     4  10  20  33  51  74 105 139 177 217 260 310
#
# _framework density 17.378520999999999
#
# number of rings (size 3 to 8) (size 9 to 14) (size 15 to 20)
#    0.667    0.889    2.222    4.000    0.000    2.222 
#    0.000    2.222    0.000    0.000    0.000    0.778 
#    0.000    5.333    0.000    0.000    0.000    0.000 
#
# Total GULP energy -200643.809429 kJ/mol
# GULP energy per Si atom -5573.439151 kJ/mol
# Density = 1.733897 g / cm^3
# Si number density = 17.378521 Si / 1000 Ang^3
#
#
#
# Elastic Constant Matrix: (Units=GPa)
#
#
# Indices 1 2 3 4 5 6 
#
# 1 121.8723 41.3862 63.8300 0.0000 0.0000 0.0000
# 2 41.3862 44.2816 17.2352 0.0000 0.0000 0.0000
# 3 63.8300 17.2352 146.7587 0.0000 0.0000 0.0000
# 4 0.0000 0.0000 0.0000 16.2581 0.0000 0.0000
# 5 0.0000 0.0000 0.0000 0.0000 22.3468 0.0000
# 6 0.0000 0.0000 0.0000 0.0000 0.0000 -0.3101
#
#
#
# Elastic Compliance Matrix: (Units=1/GPa)
#
#
# Indices 1 2 3 4 5 6 
#
# 1 0.014941 -0.011982 -0.005091 0.000000 0.000000 0.000000
# 2 -0.011982 0.033274 0.001304 0.000000 0.000000 0.000000
# 3 -0.005091 0.001304 0.008875 0.000000 0.000000 0.000000
# 4 0.000000 0.000000 0.000000 0.061508 0.000000 0.000000
# 5 0.000000 0.000000 0.000000 0.000000 0.044749 0.000000
# 6 0.000000 0.000000 0.000000 0.000000 0.000000 -3.224753
#
#
# Mechanical properties :
#
#
# Convention : Reuss Voigt Hill
#
# Bulk Modulus (GPa) = 39.13769 61.97950 50.55859
# Shear Modulus (GPa) = -1.65489 20.35639 9.35075
#
# Velocity S-wave (km/s) = -0.97690 3.42622 2.32214
# Velocity P-wave (km/s) = 4.61489 7.16895 6.02872
#
# Compressibility (1/GPa) = 0.02555082
#
# Stress axis : x y z
#
# Youngs Moduli (GPa) = 66.93128 30.05347 112.67575
#
# Poissons Ratio (x) = 0.36011 0.57363
# Poissons Ratio (y) = 0.80199 -0.14690
# Poissons Ratio (z) = 0.34075 -0.03918
#
# Static dielectric constant tensor:
#      x y z
#    x 1.647560 0.000000 0.000000 
#    y 0.000000 1.571220 0.000000 
#    z 0.000000 0.000000 1.602280 
# 
# From -- ./inp_files/6772.got.cif
#   From: 2010.05.17/outbox.cif.g08.bks.cpg/sg72_4_cif.got.tgz:6772.got - 2010.06.03 17:03:01.
