data_PCOD9526243
_publ_section_title
;
Structure prediction by ZEFSAII (Michael W. Deem and Ramdas Pophale) SiO2 
 PCOD9526243
Probable space group: I B A M
;
_chemical_formula_sum "Si O2"
_cell_formula_units_Z 96
_cell_length_a 8.238766
_cell_length_b 24.212829
_cell_length_c 23.896474
_cell_angle_alpha 90.000000
_cell_angle_beta 90.000000
_cell_angle_gamma 90.000000
_cell_volume 4766.960213
_symmetry_space_group_name_H-M "I B A M"
_symmetry_group_IT_number 72
_symmetry_cell_setting 'orthorhombic'
loop_
_space_group_symop_operation_xyz
x,y,z
-x,-y,z
x,-y,1/2-z
-x,y,1/2-z
-x,-y,-z
x,y,-z
-x,y,1/2+z
x,-y,1/2+z
1/2+x,1/2+y,1/2+z
1/2-x,1/2-y,1/2+z
1/2+x,1/2-y,-z
1/2-x,1/2+y,-z
1/2-x,1/2-y,1/2-z
1/2+x,1/2+y,1/2-z
1/2-x,1/2+y,z
1/2+x,1/2-y,z
loop_
_atom_site_type_symbol
_atom_site_label
_atom_site_fract_x
_atom_site_fract_y
_atom_site_fract_z
Si Si1 0.228289 0.422272 0.694904
Si Si2 0.292618 0.758214 0.000000
Si Si3 0.328606 0.535002 0.316349
Si Si4 0.042046 0.162376 0.500000
Si Si5 0.959479 0.316639 0.187103
Si Si6 0.734857 0.732248 0.872402
Si Si7 0.020075 0.126719 0.621348
O O1 0.204461 0.484976 0.674511
O O2 0.286482 0.431909 0.759321
O O3 0.077410 0.381615 0.688992
O O4 0.369583 0.392495 0.658996
O O5 0.237108 0.745413 0.063995
O O6 0.235752 0.823253 0.000000
O O7 0.461308 0.723923 0.000000
O O8 0.500000 0.500000 0.311700
O O9 0.348308 0.579542 0.364607
O O10 0.988401 0.130968 0.555451
O O11 0.802022 0.282952 0.167785
O O12 0.000000 0.299372 0.250000
O O13 0.100324 0.298496 0.144704
O O14 0.593900 0.686570 0.864532
#
# Coordination Sequence:
#
# PCOD9526243 Si02
#       7
#    16   8  16   8  16  16  16
#     4  10  19  36  58  79 107 146 185 220 269 333
#     4  10  20  38  56  75 105 151 195 222 260 328
#     4   9  18  35  60  81 105 144 186 226 270 327
#     4  10  20  32  55  81 109 143 184 232 276 324
#     4  12  24  36  53  84 117 145 179 227 285 337
#     4  11  23  38  57  81 113 150 186 228 276 331
#     4  10  19  35  57  82 108 142 183 228 277 325
#
# _framework density 20.138621000000001
#
# number of rings (size 3 to 8) (size 9 to 14) (size 15 to 20)
#    0.000    1.667    0.000    9.000    0.000    1.333 
#    0.000    9.583    0.000    0.000    0.000    3.500 
#    0.000    0.000    0.000    0.000    0.000    0.000 
#
# Total GULP energy -267328.962609 kJ/mol
# GULP energy per Si atom -5569.353388 kJ/mol
# Density = 2.009278 g / cm^3
# Si number density = 20.138621 Si / 1000 Ang^3
#
#
#
# Elastic Constant Matrix: (Units=GPa)
#
#
# Indices 1 2 3 4 5 6 
#
# 1 57.3005 35.3033 39.5868 0.0000 0.0000 0.0000
# 2 35.3033 115.7002 76.8549 0.0000 0.0000 0.0000
# 3 39.5868 76.8549 108.3253 0.0000 0.0000 0.0000
# 4 0.0000 0.0000 0.0000 16.0036 0.0000 0.0000
# 5 0.0000 0.0000 0.0000 0.0000 14.5863 0.0000
# 6 0.0000 0.0000 0.0000 0.0000 0.0000 35.5559
#
#
#
# Elastic Compliance Matrix: (Units=1/GPa)
#
#
# Indices 1 2 3 4 5 6 
#
# 1 0.023820 -0.002810 -0.006711 0.000000 0.000000 0.000000
# 2 -0.002810 0.016679 -0.010806 0.000000 0.000000 0.000000
# 3 -0.006711 -0.010806 0.019351 0.000000 0.000000 0.000000
# 4 0.000000 0.000000 0.000000 0.062486 0.000000 0.000000
# 5 0.000000 0.000000 0.000000 0.000000 0.068558 0.000000
# 6 0.000000 0.000000 0.000000 0.000000 0.000000 0.028125
#
#
# Mechanical properties :
#
#
# Convention : Reuss Voigt Hill
#
# Bulk Modulus (GPa) = 52.09898 64.97957 58.53928
# Shear Modulus (GPa) = 18.79205 21.86789 20.32997
#
# Velocity S-wave (km/s) = 3.05804 3.29883 3.18071
# Velocity P-wave (km/s) = 6.19638 6.84440 6.52844
#
# Compressibility (1/GPa) = 0.01919423
#
# Stress axis : x y z
#
# Youngs Moduli (GPa) = 41.98230 59.95697 51.67770
#
# Poissons Ratio (x) = 0.16849 0.34680
# Poissons Ratio (y) = 0.11798 0.55844
# Poissons Ratio (z) = 0.28174 0.64791
#
# Static dielectric constant tensor:
#      x y z
#    x 1.862460 0.000000 0.000000 
#    y 0.000000 1.717220 0.000000 
#    z 0.000000 0.000000 1.697070 
# 
# From -- ./inp_files/42482.got.cif
#   From: 2010.05.17/outbox.cif.g08.bks.cpg/sg72_22_cif.got.tgz:42482.got - 2010.06.03 17:03:01.
