data_PCOD9526498
_publ_section_title
;
Structure prediction by ZEFSAII (Michael W. Deem and Ramdas Pophale) SiO2 
 PCOD9526498
Probable space group: I B A M
;
_chemical_formula_sum "Si O2"
_cell_formula_units_Z 112
_cell_length_a 11.602924
_cell_length_b 19.619271
_cell_length_c 22.140264
_cell_angle_alpha 90.000000
_cell_angle_beta 90.000000
_cell_angle_gamma 90.000000
_cell_volume 5040.029852
_symmetry_space_group_name_H-M "I B A M"
_symmetry_group_IT_number 72
_symmetry_cell_setting 'orthorhombic'
loop_
_space_group_symop_operation_xyz
x,y,z
-x,-y,z
x,-y,1/2-z
-x,y,1/2-z
-x,-y,-z
x,y,-z
-x,y,1/2+z
x,-y,1/2+z
1/2+x,1/2+y,1/2+z
1/2-x,1/2-y,1/2+z
1/2+x,1/2-y,-z
1/2-x,1/2+y,-z
1/2-x,1/2-y,1/2-z
1/2+x,1/2+y,1/2-z
1/2-x,1/2+y,z
1/2+x,1/2-y,z
loop_
_atom_site_type_symbol
_atom_site_label
_atom_site_fract_x
_atom_site_fract_y
_atom_site_fract_z
Si Si1 0.251795 0.750916 0.429599
Si Si2 0.826640 0.388003 0.873389
Si Si3 0.557884 0.304417 0.665483
Si Si4 0.932766 0.674300 0.146621
Si Si5 0.799707 0.003276 0.067249
Si Si6 0.249621 0.833036 0.755632
Si Si7 0.005635 0.105274 0.432642
O O1 0.269490 0.737206 0.500000
O O2 0.267754 0.832254 0.418464
O O3 0.347613 0.720500 0.384165
O O4 0.135462 0.713369 0.406925
O O5 0.789626 0.464582 0.890159
O O6 0.781240 0.366989 0.807155
O O7 0.964408 0.374557 0.874554
O O8 0.494744 0.235569 0.683043
O O9 0.622220 0.344466 0.718051
O O10 0.475900 0.350006 0.624953
O O11 0.840249 0.644346 0.193086
O O12 0.908701 0.952158 0.064466
O O13 0.866976 0.073510 0.080445
O O14 0.749350 0.009564 0.000000
O O15 0.250000 0.750000 0.750000
O O16 0.007826 0.137323 0.500000
#
# Coordination Sequence:
#
# PCOD9526498 Si02
#       7
#    16  16  16  16  16  16  16
#     4  10  20  31  45  74 107 132 169 217 268 328
#     4  11  20  32  53  73 104 141 180 219 268 330
#     4  10  20  32  53  74 102 139 175 213 267 325
#     4  10  20  32  50  76 108 139 176 219 272 333
#     4   9  19  35  54  79 106 137 179 223 272 324
#     4  11  20  35  49  75 106 143 177 217 269 325
#     4   9  18  35  56  76 105 140 176 221 271 326
#
# _framework density 22.222090999999999
#
# number of rings (size 3 to 8) (size 9 to 14) (size 15 to 20)
#    0.000    2.000    4.286    3.000    0.000    4.571 
#    0.000    0.714    0.000    5.143    0.000   13.000 
#    0.000    0.000    0.000    0.000    0.000    0.000 
#
# Total GULP energy -312521.453459 kJ/mol
# GULP energy per Si atom -5580.740240 kJ/mol
# Density = 2.217151 g / cm^3
# Si number density = 22.222091 Si / 1000 Ang^3
#
#
#
# Elastic Constant Matrix: (Units=GPa)
#
#
# Indices 1 2 3 4 5 6 
#
# 1 94.7004 -4.9761 11.4446 0.0000 0.0000 0.0000
# 2 -4.9761 20.7241 -3.1160 0.0000 0.0000 0.0000
# 3 11.4446 -3.1160 79.7031 0.0000 0.0000 0.0000
# 4 0.0000 0.0000 0.0000 13.7416 0.0000 0.0000
# 5 0.0000 0.0000 0.0000 0.0000 19.5102 0.0000
# 6 0.0000 0.0000 0.0000 0.0000 0.0000 28.6513
#
#
#
# Elastic Compliance Matrix: (Units=1/GPa)
#
#
# Indices 1 2 3 4 5 6 
#
# 1 0.010862 0.002388 -0.001466 0.000000 0.000000 0.000000
# 2 0.002388 0.049063 0.001575 0.000000 0.000000 0.000000
# 3 -0.001466 0.001575 0.012819 0.000000 0.000000 0.000000
# 4 0.000000 0.000000 0.000000 0.072772 0.000000 0.000000
# 5 0.000000 0.000000 0.000000 0.000000 0.051255 0.000000
# 6 0.000000 0.000000 0.000000 0.000000 0.000000 0.034902
#
#
# Mechanical properties :
#
#
# Convention : Reuss Voigt Hill
#
# Bulk Modulus (GPa) = 12.86382 22.42583 17.64483
# Shear Modulus (GPa) = 19.79471 25.16563 22.48017
#
# Velocity S-wave (km/s) = 2.98781 3.36886 3.18404
# Velocity P-wave (km/s) = 4.20761 5.02452 4.63410
#
# Compressibility (1/GPa) = 0.07773740
#
# Stress axis : x y z
#
# Youngs Moduli (GPa) = 92.06164 20.38188 78.01094
#
# Poissons Ratio (x) = -0.04867 0.11439
# Poissons Ratio (y) = -0.21981 -0.12289
# Poissons Ratio (z) = 0.13500 -0.03211
#
# Static dielectric constant tensor:
#      x y z
#    x 1.897250 0.000000 0.000000 
#    y 0.000000 1.889080 0.000000 
#    z 0.000000 0.000000 1.842260 
# 
# From -- ./inp_files/43625.got.cif
#   From: 2010.05.17/outbox.cif.g08.bks.cpg/sg72_22_cif.got.tgz:43625.got - 2010.06.03 17:03:01.
