data_PCOD9526846
_publ_section_title
;
Structure prediction by ZEFSAII (Michael W. Deem and Ramdas Pophale) SiO2 
 PCOD9526846
Probable space group: I B A M
;
_chemical_formula_sum "Si O2"
_cell_formula_units_Z 96
_cell_length_a 21.126938
_cell_length_b 28.183226
_cell_length_c 8.536375
_cell_angle_alpha 90.000000
_cell_angle_beta 90.000000
_cell_angle_gamma 90.000000
_cell_volume 5082.773375
_symmetry_space_group_name_H-M "I B A M"
_symmetry_group_IT_number 72
_symmetry_cell_setting 'orthorhombic'
loop_
_space_group_symop_operation_xyz
x,y,z
-x,-y,z
x,-y,1/2-z
-x,y,1/2-z
-x,-y,-z
x,y,-z
-x,y,1/2+z
x,-y,1/2+z
1/2+x,1/2+y,1/2+z
1/2-x,1/2-y,1/2+z
1/2+x,1/2-y,-z
1/2-x,1/2+y,-z
1/2-x,1/2-y,1/2-z
1/2+x,1/2+y,1/2-z
1/2-x,1/2+y,z
1/2+x,1/2-y,z
loop_
_atom_site_type_symbol
_atom_site_label
_atom_site_fract_x
_atom_site_fract_y
_atom_site_fract_z
Si Si1 0.568690 0.446843 0.812100
Si Si2 0.568624 0.788869 0.311026
Si Si3 0.688374 0.384072 0.189481
Si Si4 0.802487 0.552481 0.812150
Si Si5 0.568567 0.898772 0.311160
Si Si6 0.313296 0.725362 0.189568
O O1 0.580353 0.500000 0.750000
O O2 0.500000 0.431505 0.750000
O O3 0.625355 0.412477 0.762322
O O4 0.566551 0.448371 0.000000
O O5 0.500000 0.773599 0.250000
O O6 0.567579 0.788332 0.500000
O O7 0.578489 0.843775 0.261446
O O8 0.625399 0.755134 0.257486
O O9 0.749636 0.410835 0.254334
O O10 0.685138 0.329414 0.240189
O O11 0.691261 0.385117 0.000000
O O12 0.788738 0.500000 0.750000
O O13 0.872004 0.569950 0.758454
O O14 0.802022 0.551785 0.000000
O O15 0.500000 0.914410 0.250000
O O16 0.567046 0.899529 0.500000
O O17 0.250000 0.750000 0.250000
O O18 0.312982 0.726148 0.000000
#
# Coordination Sequence:
#
# PCOD9526846 Si02
#       6
#    16  16  16  16  16  16
#     4  10  20  35  55  79 107 140 178 220 267 319
#     4   9  18  34  55  79 108 141 178 220 265 315
#     4  10  22  38  56  80 110 144 182 225 271 319
#     4  11  23  38  57  81 109 142 181 225 272 323
#     4   9  19  35  55  79 107 141 179 219 265 317
#     4  10  21  37  56  80 111 144 181 226 271 318
#
# _framework density 18.887326999999999
#
# number of rings (size 3 to 8) (size 9 to 14) (size 15 to 20)
#    0.000    2.167    0.000    3.000    0.000    7.667 
#    0.000    5.000    0.000    0.000    0.000    0.000 
#    0.000    0.000    0.000    0.000    0.000    0.000 
#
# Total GULP energy -268079.644359 kJ/mol
# GULP energy per Si atom -5584.992591 kJ/mol
# Density = 1.884434 g / cm^3
# Si number density = 18.887327 Si / 1000 Ang^3
#
#
#
# Elastic Constant Matrix: (Units=GPa)
#
#
# Indices 1 2 3 4 5 6 
#
# 1 76.7105 12.8989 9.7607 0.0000 0.0000 0.0000
# 2 12.8989 37.0738 6.5761 0.0000 0.0000 0.0000
# 3 9.7607 6.5761 11.3305 0.0000 0.0000 0.0000
# 4 0.0000 0.0000 0.0000 18.8800 0.0000 0.0000
# 5 0.0000 0.0000 0.0000 0.0000 34.1306 0.0000
# 6 0.0000 0.0000 0.0000 0.0000 0.0000 43.2168
#
#
#
# Elastic Compliance Matrix: (Units=1/GPa)
#
#
# Indices 1 2 3 4 5 6 
#
# 1 0.014986 -0.003260 -0.011018 0.000000 0.000000 0.000000
# 2 -0.003260 0.030778 -0.015055 0.000000 0.000000 0.000000
# 3 -0.011018 -0.015055 0.106487 0.000000 0.000000 0.000000
# 4 0.000000 0.000000 0.000000 0.052966 0.000000 0.000000
# 5 0.000000 0.000000 0.000000 0.000000 0.029299 0.000000
# 6 0.000000 0.000000 0.000000 0.000000 0.000000 0.023139
#
#
# Mechanical properties :
#
#
# Convention : Reuss Voigt Hill
#
# Bulk Modulus (GPa) = 10.68543 20.39847 15.54195
# Shear Modulus (GPa) = 14.38785 25.63741 20.01263
#
# Velocity S-wave (km/s) = 2.76302 3.68827 3.25865
# Velocity P-wave (km/s) = 3.98105 5.38157 4.73340
#
# Compressibility (1/GPa) = 0.09358537
#
# Stress axis : x y z
#
# Youngs Moduli (GPa) = 66.72858 32.49101 9.39084
#
# Poissons Ratio (x) = 0.10591 0.10347
# Poissons Ratio (y) = 0.21752 0.14138
# Poissons Ratio (z) = 0.73521 0.48915
#
# Static dielectric constant tensor:
#      x y z
#    x 1.633190 0.000000 0.000000 
#    y 0.000000 1.638750 0.000000 
#    z 0.000000 0.000000 1.650990 
# 
# From -- ./inp_files/5955.got.cif
#   From: 2010.05.17/outbox.cif.g08.bks.cpg/sg72_3_cif.got.tgz:5955.got - 2010.06.03 17:03:01.
