data_PCOD9526748
_publ_section_title
;
Structure prediction by ZEFSAII (Michael W. Deem and Ramdas Pophale) SiO2 
 PCOD9526748
Probable space group: I B A M
;
_chemical_formula_sum "Si O2"
_cell_formula_units_Z 116
_cell_length_a 22.032651
_cell_length_b 33.150665
_cell_length_c 9.179795
_cell_angle_alpha 90.000000
_cell_angle_beta 90.000000
_cell_angle_gamma 90.000000
_cell_volume 6704.895026
_symmetry_space_group_name_H-M "I B A M"
_symmetry_group_IT_number 72
_symmetry_cell_setting 'orthorhombic'
loop_
_space_group_symop_operation_xyz
x,y,z
-x,-y,z
x,-y,1/2-z
-x,y,1/2-z
-x,-y,-z
x,y,-z
-x,y,1/2+z
x,-y,1/2+z
1/2+x,1/2+y,1/2+z
1/2-x,1/2-y,1/2+z
1/2+x,1/2-y,-z
1/2-x,1/2+y,-z
1/2-x,1/2-y,1/2-z
1/2+x,1/2+y,1/2-z
1/2-x,1/2+y,z
1/2+x,1/2-y,z
loop_
_atom_site_type_symbol
_atom_site_label
_atom_site_fract_x
_atom_site_fract_y
_atom_site_fract_z
Si Si1 0.183398 0.042185 0.325076
Si Si2 0.837648 0.228021 0.172309
Si Si3 0.620535 0.037791 0.164162
Si Si4 0.000000 0.500000 0.250000
Si Si5 0.720617 0.190402 0.672723
Si Si6 0.707003 0.894493 0.325896
Si Si7 0.565952 0.579993 0.325882
Si Si8 0.063886 0.174533 0.828452
O O1 0.177222 0.037564 0.500000
O O2 0.234712 0.076579 0.299357
O O3 0.119442 0.055585 0.253217
O O4 0.201106 0.000000 0.250000
O O5 0.777247 0.208308 0.238987
O O6 0.832229 0.276249 0.193338
O O7 0.891238 0.205901 0.254921
O O8 0.840790 0.220120 0.000000
O O9 0.548107 0.029348 0.170080
O O10 0.647257 0.079702 0.217484
O O11 0.646951 0.000000 0.250000
O O12 0.641806 0.034474 0.000000
O O13 0.734261 0.188892 0.500000
O O14 0.708594 0.146409 0.735651
O O15 0.705473 0.885587 0.500000
O O16 0.500000 0.573524 0.250000
O O17 0.562513 0.571328 0.500000
O O18 0.582312 0.627562 0.309211
O O19 0.000000 0.178596 0.750000
O O20 0.059037 0.181907 0.000000
#
# Coordination Sequence:
#
# PCOD9526748 Si02
#       8
#    16  16  16   4  16  16  16  16
#     4  11  23  37  54  77 107 141 179 222 271 322
#     4  10  20  35  55  79 109 141 179 222 266 320
#     4   9  18  32  53  79 106 137 177 218 263 313
#     4   8  18  32  58  80 110 136 180 220 258 312
#     4  10  21  35  54  81 108 140 179 219 268 323
#     4  10  21  36  54  79 110 142 177 221 272 323
#     4  10  21  37  56  79 107 139 180 223 265 316
#     4  10  20  34  56  83 110 142 180 223 269 318
#
# _framework density 17.300792999999999
#
# number of rings (size 3 to 8) (size 9 to 14) (size 15 to 20)
#    0.414    1.655    0.000    3.517    0.000    7.448 
#    0.000    1.379    1.517    0.000    0.000    0.000 
#    0.000    0.000    0.000    0.000    0.000    0.000 
#
# Total GULP energy -323213.077353 kJ/mol
# GULP energy per Si atom -5572.639265 kJ/mol
# Density = 1.726142 g / cm^3
# Si number density = 17.300793 Si / 1000 Ang^3
#
#
#
# Elastic Constant Matrix: (Units=GPa)
#
#
# Indices 1 2 3 4 5 6 
#
# 1 64.6617 41.2171 33.4535 0.0000 0.0000 0.0000
# 2 41.2171 107.9270 58.3834 0.0000 0.0000 0.0000
# 3 33.4535 58.3834 94.6396 0.0000 0.0000 0.0000
# 4 0.0000 0.0000 0.0000 33.4607 0.0000 0.0000
# 5 0.0000 0.0000 0.0000 0.0000 21.5425 0.0000
# 6 0.0000 0.0000 0.0000 0.0000 0.0000 32.7116
#
#
#
# Elastic Compliance Matrix: (Units=1/GPa)
#
#
# Indices 1 2 3 4 5 6 
#
# 1 0.021301 -0.006096 -0.003769 0.000000 0.000000 0.000000
# 2 -0.006096 0.015651 -0.007500 0.000000 0.000000 0.000000
# 3 -0.003769 -0.007500 0.016526 0.000000 0.000000 0.000000
# 4 0.000000 0.000000 0.000000 0.029886 0.000000 0.000000
# 5 0.000000 0.000000 0.000000 0.000000 0.046420 0.000000
# 6 0.000000 0.000000 0.000000 0.000000 0.000000 0.030570
#
#
# Mechanical properties :
#
#
# Convention : Reuss Voigt Hill
#
# Bulk Modulus (GPa) = 53.34174 59.25959 56.30067
# Shear Modulus (GPa) = 24.83463 26.48792 25.66127
#
# Velocity S-wave (km/s) = 3.79286 3.91707 3.85547
# Velocity P-wave (km/s) = 7.07672 7.40168 7.24102
#
# Compressibility (1/GPa) = 0.01874705
#
# Stress axis : x y z
#
# Youngs Moduli (GPa) = 46.94689 63.89451 60.51247
#
# Poissons Ratio (x) = 0.38950 0.22806
# Poissons Ratio (y) = 0.28618 0.45386
# Poissons Ratio (z) = 0.17694 0.47922
#
# Static dielectric constant tensor:
#      x y z
#    x 1.546950 0.000000 0.000000 
#    y 0.000000 1.600230 0.000000 
#    z 0.000000 0.000000 1.577820 
# 
# From -- ./inp_files/7267.got.cif
#   From: 2010.05.17/outbox.cif.g08.bks.cpg/sg72_4_cif.got.tgz:7267.got - 2010.06.03 17:03:01.
