data_PCOD9526497
_publ_section_title
;
Structure prediction by ZEFSAII (Michael W. Deem and Ramdas Pophale) SiO2 
 PCOD9526497
Probable space group: I B A M
;
_chemical_formula_sum "Si O2"
_cell_formula_units_Z 112
_cell_length_a 28.981170
_cell_length_b 13.338659
_cell_length_c 13.765762
_cell_angle_alpha 90.000000
_cell_angle_beta 90.000000
_cell_angle_gamma 90.000000
_cell_volume 5321.429846
_symmetry_space_group_name_H-M "I B A M"
_symmetry_group_IT_number 72
_symmetry_cell_setting 'orthorhombic'
loop_
_space_group_symop_operation_xyz
x,y,z
-x,-y,z
x,-y,1/2-z
-x,y,1/2-z
-x,-y,-z
x,y,-z
-x,y,1/2+z
x,-y,1/2+z
1/2+x,1/2+y,1/2+z
1/2-x,1/2-y,1/2+z
1/2+x,1/2-y,-z
1/2-x,1/2+y,-z
1/2-x,1/2-y,1/2-z
1/2+x,1/2+y,1/2-z
1/2-x,1/2+y,z
1/2+x,1/2-y,z
loop_
_atom_site_type_symbol
_atom_site_label
_atom_site_fract_x
_atom_site_fract_y
_atom_site_fract_z
Si Si1 0.550154 0.243629 0.115476
Si Si2 0.933522 0.974636 0.883617
Si Si3 0.125162 0.283430 0.752713
Si Si4 0.451164 0.310493 0.116196
Si Si5 0.330341 0.546833 0.616488
Si Si6 0.301834 0.665478 0.883883
Si Si7 0.802492 0.728079 0.615546
O O1 0.561237 0.359591 0.146664
O O2 0.584667 0.174548 0.177103
O O3 0.495368 0.240231 0.133718
O O4 0.557729 0.233438 0.000000
O O5 0.882214 0.013346 0.858499
O O6 0.962676 0.073670 0.855674
O O7 0.938715 0.967715 0.000000
O O8 0.093456 0.227228 0.672349
O O9 0.157292 0.221952 0.828349
O O10 0.163390 0.336390 0.684107
O O11 0.442331 0.311524 0.000000
O O12 0.329602 0.551234 0.500000
O O13 0.300564 0.451122 0.645938
O O14 0.313592 0.656508 0.645020
O O15 0.251328 0.709956 0.867349
O O16 0.311632 0.670108 0.000000
O O17 0.811383 0.714212 0.500000
#
# Coordination Sequence:
#
# PCOD9526497 Si02
#       7
#    16  16  16  16  16  16  16
#     4  10  20  31  43  63  93 127 164 201 232 269
#     4   9  15  28  45  62  88 128 168 198 228 271
#     4  12  20  31  47  67  89 124 164 204 234 282
#     4  10  20  31  43  63  93 127 164 201 232 269
#     4   9  16  31  51  68  91 127 166 200 237 286
#     4  10  21  35  50  69  93 123 162 207 248 284
#     4  10  21  35  50  69  93 123 162 207 248 284
#
# _framework density 21.046973999999999
#
# number of rings (size 3 to 8) (size 9 to 14) (size 15 to 20)
#    0.000    2.000    2.857    2.143    0.000    4.000 
#    0.000    1.429    0.000    0.000    0.000    0.000 
#    0.000    0.000    0.000   10.286    0.000  105.143 
#
# Total GULP energy -312123.212756 kJ/mol
# GULP energy per Si atom -5573.628799 kJ/mol
# Density = 2.099907 g / cm^3
# Si number density = 21.046974 Si / 1000 Ang^3
#
#
#
# Elastic Constant Matrix: (Units=GPa)
#
#
# Indices 1 2 3 4 5 6 
#
# 1 126.6242 8.0950 34.6602 0.0000 0.0000 0.0000
# 2 8.0950 1.3605 -2.3218 0.0000 0.0000 0.0000
# 3 34.6602 -2.3218 114.1380 0.0000 0.0000 0.0000
# 4 0.0000 0.0000 0.0000 9.2862 0.0000 0.0000
# 5 0.0000 0.0000 0.0000 0.0000 36.9925 0.0000
# 6 0.0000 0.0000 0.0000 0.0000 0.0000 24.5906
#
#
#
# Elastic Compliance Matrix: (Units=1/GPa)
#
#
# Indices 1 2 3 4 5 6 
#
# 1 0.017503 -0.117284 -0.007701 0.000000 0.000000 0.000000
# 2 -0.117284 1.547326 0.067091 0.000000 0.000000 0.000000
# 3 -0.007701 0.067091 0.012465 0.000000 0.000000 0.000000
# 4 0.000000 0.000000 0.000000 0.107687 0.000000 0.000000
# 5 0.000000 0.000000 0.000000 0.000000 0.027033 0.000000
# 6 0.000000 0.000000 0.000000 0.000000 0.000000 0.040666
#
#
# Mechanical properties :
#
#
# Convention : Reuss Voigt Hill
#
# Bulk Modulus (GPa) = 0.68423 35.88773 18.28598
# Shear Modulus (GPa) = 2.12257 27.61980 14.87119
#
# Velocity S-wave (km/s) = 1.00533 3.62649 2.66102
# Velocity P-wave (km/s) = 1.29359 5.88417 4.26010
#
# Compressibility (1/GPa) = 1.46150521
#
# Stress axis : x y z
#
# Youngs Moduli (GPa) = 57.13217 0.64628 80.22694
#
# Poissons Ratio (x) = 0.07580 0.61783
# Poissons Ratio (y) = 6.70071 -5.38252
# Poissons Ratio (z) = 0.43997 -0.04336
#
# Static dielectric constant tensor:
#      x y z
#    x 1.822840 0.000000 0.000000 
#    y 0.000000 1.748080 0.000000 
#    z 0.000000 0.000000 1.847770 
# 
# From -- ./inp_files/26506.got.cif
#   From: 2010.05.17/outbox.cif.g08.bks.cpg/sg72_14_cif.got.tgz:26506.got - 2010.06.03 17:03:01.
