data_PCOD9526781
_publ_section_title
;
Structure prediction by ZEFSAII (Michael W. Deem and Ramdas Pophale) SiO2 
 PCOD9526781
Probable space group: I B A M
;
_chemical_formula_sum "Si O2"
_cell_formula_units_Z 56
_cell_length_a 17.368256
_cell_length_b 16.503912
_cell_length_c 9.091959
_cell_angle_alpha 90.000000
_cell_angle_beta 90.000000
_cell_angle_gamma 90.000000
_cell_volume 2606.157029
_symmetry_space_group_name_H-M "I B A M"
_symmetry_group_IT_number 72
_symmetry_cell_setting 'orthorhombic'
loop_
_space_group_symop_operation_xyz
x,y,z
-x,-y,z
x,-y,1/2-z
-x,y,1/2-z
-x,-y,-z
x,y,-z
-x,y,1/2+z
x,-y,1/2+z
1/2+x,1/2+y,1/2+z
1/2-x,1/2-y,1/2+z
1/2+x,1/2-y,-z
1/2-x,1/2+y,-z
1/2-x,1/2-y,1/2-z
1/2+x,1/2+y,1/2-z
1/2-x,1/2+y,z
1/2+x,1/2-y,z
loop_
_atom_site_type_symbol
_atom_site_label
_atom_site_fract_x
_atom_site_fract_y
_atom_site_fract_z
Si Si1 0.113924 0.585695 0.325535
Si Si2 0.500000 0.215791 0.250000
Si Si3 0.429612 0.375569 0.339327
Si Si4 0.723539 0.667212 0.829146
O O1 0.098925 0.500000 0.250000
O O2 0.089867 0.588874 0.500000
O O3 0.204035 0.607045 0.322438
O O4 0.069622 0.653197 0.228444
O O5 0.459954 0.282218 0.354260
O O6 0.500000 0.413732 0.250000
O O7 0.417697 0.411102 0.500000
O O8 0.351117 0.369841 0.249054
O O9 0.750000 0.750000 0.750000
O O10 0.705767 0.684275 0.000000
#
# Coordination Sequence:
#
# PCOD9526781 Si02
#       4
#    16   8  16  16
#     4  11  25  41  57  85 121 161 201 239 292 355
#     4  10  21  36  60  84 121 156 200 236 291 350
#     4  10  20  34  57  89 118 148 192 240 295 345
#     4  11  21  37  60  84 116 154 199 248 294 348
#
# _framework density 21.487577999999999
#
# number of rings (size 3 to 8) (size 9 to 14) (size 15 to 20)
#    0.857    0.571    2.857    3.000    0.000    5.714 
#    0.000    0.000    0.000    0.857    0.000    6.000 
#    0.000    0.000    0.000    0.000    0.000    0.000 
#
# Total GULP energy -155944.674822 kJ/mol
# GULP energy per Si atom -5569.452672 kJ/mol
# Density = 2.143867 g / cm^3
# Si number density = 21.487578 Si / 1000 Ang^3
#
#
#
# Elastic Constant Matrix: (Units=GPa)
#
#
# Indices 1 2 3 4 5 6 
#
# 1 141.4964 -3.0218 56.0830 0.0000 0.0000 0.0000
# 2 -3.0218 83.0283 1.7297 0.0000 0.0000 0.0000
# 3 56.0830 1.7297 106.6801 0.0000 0.0000 0.0000
# 4 0.0000 0.0000 0.0000 11.1757 0.0000 0.0000
# 5 0.0000 0.0000 0.0000 0.0000 213.3163 0.0000
# 6 0.0000 0.0000 0.0000 0.0000 0.0000 -0.1700
#
#
#
# Elastic Compliance Matrix: (Units=1/GPa)
#
#
# Indices 1 2 3 4 5 6 
#
# 1 0.008942 0.000424 -0.004708 0.000000 0.000000 0.000000
# 2 0.000424 0.012068 -0.000418 0.000000 0.000000 0.000000
# 3 -0.004708 -0.000418 0.011856 0.000000 0.000000 0.000000
# 4 0.000000 0.000000 0.000000 0.089480 0.000000 0.000000
# 5 0.000000 0.000000 0.000000 0.000000 0.004688 0.000000
# 6 0.000000 0.000000 0.000000 0.000000 0.000000 -5.880974
#
#
# Mechanical properties :
#
#
# Convention : Reuss Voigt Hill
#
# Bulk Modulus (GPa) = 42.62448 48.97629 45.80039
# Shear Modulus (GPa) = -0.87158 63.29199 31.21021
#
# Velocity S-wave (km/s) = -0.63757 5.43315 3.81527
# Velocity P-wave (km/s) = 4.39748 7.88677 6.38510
#
# Compressibility (1/GPa) = 0.02346070
#
# Stress axis : x y z
#
# Youngs Moduli (GPa) = 111.82674 82.86228 84.34797
#
# Poissons Ratio (x) = -0.03509 0.39711
# Poissons Ratio (y) = -0.04736 0.03528
# Poissons Ratio (z) = 0.52648 0.03466
#
# Static dielectric constant tensor:
#      x y z
#    x 1.767140 0.000000 0.000000 
#    y 0.000000 1.777810 0.000000 
#    z 0.000000 0.000000 1.762310 
# 
# From -- ./inp_files/4183.got.cif
#   From: 2010.05.17/outbox.cif.g08.bks.cpg/sg72_3_cif.got.tgz:4183.got - 2010.06.03 17:03:01.
