data_PCOD9526092
_publ_section_title
;
Structure prediction by ZEFSAII (Michael W. Deem and Ramdas Pophale) SiO2 
 PCOD9526092
Probable space group: I B A M
;
_chemical_formula_sum "Si O2"
_cell_formula_units_Z 80
_cell_length_a 22.061242
_cell_length_b 20.649572
_cell_length_c 10.215413
_cell_angle_alpha 90.000000
_cell_angle_beta 90.000000
_cell_angle_gamma 90.000000
_cell_volume 4653.684564
_symmetry_space_group_name_H-M "I B A M"
_symmetry_group_IT_number 72
_symmetry_cell_setting 'orthorhombic'
loop_
_space_group_symop_operation_xyz
x,y,z
-x,-y,z
x,-y,1/2-z
-x,y,1/2-z
-x,-y,-z
x,y,-z
-x,y,1/2+z
x,-y,1/2+z
1/2+x,1/2+y,1/2+z
1/2-x,1/2-y,1/2+z
1/2+x,1/2-y,-z
1/2-x,1/2+y,-z
1/2-x,1/2-y,1/2-z
1/2+x,1/2+y,1/2-z
1/2-x,1/2+y,z
1/2+x,1/2-y,z
loop_
_atom_site_type_symbol
_atom_site_label
_atom_site_fract_x
_atom_site_fract_y
_atom_site_fract_z
Si Si1 0.367363 0.405446 0.000000
Si Si2 0.501493 0.351221 0.000000
Si Si3 0.325761 0.061041 0.846870
Si Si4 0.000000 0.234124 0.750000
Si Si5 0.695517 0.421798 0.235125
Si Si6 0.051175 0.640299 0.153217
Si Si7 0.109537 0.939868 0.500000
O O1 0.430236 0.367084 0.000000
O O2 0.327681 0.393347 0.871046
O O3 0.383981 0.482390 0.000000
O O4 0.517601 0.310148 0.871515
O O5 0.540874 0.416345 0.000000
O O6 0.262972 0.096676 0.809349
O O7 0.384534 0.105982 0.832885
O O8 0.332662 0.000000 0.750000
O O9 0.320860 0.040575 0.000000
O O10 0.050991 0.284583 0.698619
O O11 0.699169 0.500000 0.250000
O O12 0.644999 0.412032 0.125048
O O13 0.000000 0.610571 0.250000
O O14 0.033022 0.637060 0.000000
#
# Coordination Sequence:
#
# PCOD9526092 Si02
#       7
#     8   8  16   8  16  16   8
#     4  10  21  34  51  82 116 136 174 226 279 319
#     4  12  21  34  60  78 103 142 190 230 266 332
#     4  10  20  34  58  86 112 146 178 213 268 330
#     4  10  20  38  54  78 102 148 186 224 272 312
#     4   9  18  33  51  77 113 148 170 208 269 337
#     4   9  19  38  57  79 110 146 177 227 267 313
#     4  10  19  34  53  80 112 138 174 222 279 329
#
# _framework density 17.19068
#
# number of rings (size 3 to 8) (size 9 to 14) (size 15 to 20)
#    0.600    1.600    2.000    1.500    4.200    1.200 
#    0.000    6.000    0.000    7.200    0.000    0.000 
#    0.000    0.000    0.000    0.000    0.000    0.000 
#
# Total GULP energy -222756.443165 kJ/mol
# GULP energy per Si atom -5568.911079 kJ/mol
# Density = 1.715155 g / cm^3
# Si number density = 17.190680 Si / 1000 Ang^3
#
#
#
# Elastic Constant Matrix: (Units=GPa)
#
#
# Indices 1 2 3 4 5 6 
#
# 1 102.8308 21.1135 55.2246 0.0000 0.0000 0.0000
# 2 21.1135 35.6921 28.1641 0.0000 0.0000 0.0000
# 3 55.2246 28.1641 150.6531 0.0000 0.0000 0.0000
# 4 0.0000 0.0000 0.0000 33.1834 0.0000 0.0000
# 5 0.0000 0.0000 0.0000 0.0000 151.8278 0.0000
# 6 0.0000 0.0000 0.0000 0.0000 0.0000 -15.2905
#
#
#
# Elastic Compliance Matrix: (Units=1/GPa)
#
#
# Indices 1 2 3 4 5 6 
#
# 1 0.012697 -0.004502 -0.003812 0.000000 0.000000 0.000000
# 2 -0.004502 0.034462 -0.004792 0.000000 0.000000 0.000000
# 3 -0.003812 -0.004792 0.008931 0.000000 0.000000 0.000000
# 4 0.000000 0.000000 0.000000 0.030136 0.000000 0.000000
# 5 0.000000 0.000000 0.000000 0.000000 0.006586 0.000000
# 6 0.000000 0.000000 0.000000 0.000000 0.000000 -0.065400
#
#
# Mechanical properties :
#
#
# Convention : Reuss Voigt Hill
#
# Bulk Modulus (GPa) = 33.47165 55.35339 44.41252
# Shear Modulus (GPa) = 78.63562 46.25572 62.44567
#
# Velocity S-wave (km/s) = 6.77071 5.19287 6.03359
# Velocity P-wave (km/s) = 8.97978 8.25978 8.62729
#
# Compressibility (1/GPa) = 0.02987603
#
# Stress axis : x y z
#
# Youngs Moduli (GPa) = 78.76121 29.01737 111.96715
#
# Poissons Ratio (x) = 0.13064 0.42687
# Poissons Ratio (y) = 0.35460 0.53657
# Poissons Ratio (z) = 0.30028 0.13906
#
# Static dielectric constant tensor:
#      x y z
#    x 1.573890 0.000000 0.000000 
#    y 0.000000 1.572780 0.000000 
#    z 0.000000 0.000000 1.601390 
# 
# From -- ./inp_files/5729.got.cif
#   From: 2010.05.17/outbox.cif.g08.bks.cpg/sg72_3_cif.got.tgz:5729.got - 2010.06.03 17:03:01.
