data_PCOD9526363
_publ_section_title
;
Structure prediction by ZEFSAII (Michael W. Deem and Ramdas Pophale) SiO2 
 PCOD9526363
Probable space group: I B A M
;
_chemical_formula_sum "Si O2"
_cell_formula_units_Z 112
_cell_length_a 13.839272
_cell_length_b 14.602206
_cell_length_c 26.625851
_cell_angle_alpha 90.000000
_cell_angle_beta 90.000000
_cell_angle_gamma 90.000000
_cell_volume 5380.655828
_symmetry_space_group_name_H-M "I B A M"
_symmetry_group_IT_number 72
_symmetry_cell_setting 'orthorhombic'
loop_
_space_group_symop_operation_xyz
x,y,z
-x,-y,z
x,-y,1/2-z
-x,y,1/2-z
-x,-y,-z
x,y,-z
-x,y,1/2+z
x,-y,1/2+z
1/2+x,1/2+y,1/2+z
1/2-x,1/2-y,1/2+z
1/2+x,1/2-y,-z
1/2-x,1/2+y,-z
1/2-x,1/2-y,1/2-z
1/2+x,1/2+y,1/2-z
1/2-x,1/2+y,z
1/2+x,1/2-y,z
loop_
_atom_site_type_symbol
_atom_site_label
_atom_site_fract_x
_atom_site_fract_y
_atom_site_fract_z
Si Si1 0.720345 0.941743 0.701882
Si Si2 0.924581 0.286336 0.941851
Si Si3 0.586554 0.932674 0.134067
Si Si4 0.891542 0.034361 0.439998
Si Si5 0.953033 0.301878 0.299306
Si Si6 0.121478 0.238273 0.098942
Si Si7 0.692078 0.635386 0.110384
O O1 0.635337 0.869655 0.715787
O O2 0.800791 0.888701 0.669422
O O3 0.751654 0.000000 0.750000
O O4 0.667905 0.010505 0.662637
O O5 0.880563 0.373433 0.913341
O O6 0.894168 0.197776 0.909861
O O7 0.039691 0.288279 0.934317
O O8 0.897916 0.278412 0.000000
O O9 0.534751 0.864125 0.173582
O O10 0.500000 0.000000 0.118042
O O11 0.889186 0.036394 0.500000
O O12 0.868622 0.135373 0.420035
O O13 0.817696 0.959313 0.419086
O O14 0.000000 0.000000 0.425156
O O15 0.912928 0.237490 0.342992
O O16 0.000000 0.259286 0.250000
O O17 0.214755 0.302959 0.097834
#
# Coordination Sequence:
#
# PCOD9526363 Si02
#       7
#    16  16  16  16  16  16  16
#     4  10  19  36  62  95 133 172 220 272 334 401
#     4  11  23  42  62  87 134 177 215 276 337 389
#     4   9  19  34  60  94 122 160 217 272 322 395
#     4  11  23  44  72  92 124 185 233 274 339 405
#     4   9  16  33  64  97 129 172 215 269 339 395
#     4  10  23  42  66  97 132 169 226 280 326 404
#     4  11  25  42  64 100 134 169 228 281 326 402
#
# _framework density 20.815308000000002
#
# number of rings (size 3 to 8) (size 9 to 14) (size 15 to 20)
#    0.000    1.857    2.857    1.714    2.000    2.571 
#    0.000    4.286    0.000    0.000    0.000    0.000 
#    0.000    0.000    0.000    0.000    0.000    0.000 
#
# Total GULP energy -312725.066158 kJ/mol
# GULP energy per Si atom -5584.376181 kJ/mol
# Density = 2.076793 g / cm^3
# Si number density = 20.815308 Si / 1000 Ang^3
#
#
#
# Elastic Constant Matrix: (Units=GPa)
#
#
# Indices 1 2 3 4 5 6 
#
# 1 45.4170 24.1890 33.0593 0.0000 0.0000 0.0000
# 2 24.1890 94.4031 54.8679 0.0000 0.0000 0.0000
# 3 33.0593 54.8679 119.1027 0.0000 0.0000 0.0000
# 4 0.0000 0.0000 0.0000 29.7611 0.0000 0.0000
# 5 0.0000 0.0000 0.0000 0.0000 17.6243 0.0000
# 6 0.0000 0.0000 0.0000 0.0000 0.0000 25.3333
#
#
#
# Elastic Compliance Matrix: (Units=1/GPa)
#
#
# Indices 1 2 3 4 5 6 
#
# 1 0.028507 -0.003695 -0.006211 0.000000 0.000000 0.000000
# 2 -0.003695 0.014945 -0.005859 0.000000 0.000000 0.000000
# 3 -0.006211 -0.005859 0.012819 0.000000 0.000000 0.000000
# 4 0.000000 0.000000 0.000000 0.033601 0.000000 0.000000
# 5 0.000000 0.000000 0.000000 0.000000 0.056740 0.000000
# 6 0.000000 0.000000 0.000000 0.000000 0.000000 0.039474
#
#
# Mechanical properties :
#
#
# Convention : Reuss Voigt Hill
#
# Bulk Modulus (GPa) = 40.41733 53.68392 47.05063
# Shear Modulus (GPa) = 22.13743 24.33084 23.23414
#
# Velocity S-wave (km/s) = 3.26470 3.42262 3.34459
# Velocity P-wave (km/s) = 5.80261 6.43938 6.12927
#
# Compressibility (1/GPa) = 0.02474186
#
# Stress axis : x y z
#
# Youngs Moduli (GPa) = 35.07957 66.91182 78.00786
#
# Poissons Ratio (x) = 0.24722 0.48447
# Poissons Ratio (y) = 0.12961 0.45707
# Poissons Ratio (z) = 0.21786 0.39206
#
# Static dielectric constant tensor:
#      x y z
#    x 1.792030 0.000000 0.000000 
#    y 0.000000 1.752100 0.000000 
#    z 0.000000 0.000000 1.728160 
# 
# From -- ./inp_files/44370.got.cif
#   From: 2010.05.17/outbox.cif.g08.bks.cpg/sg72_23_cif.got.tgz:44370.got - 2010.06.03 17:03:01.
