data_PCOD9526760
_publ_section_title
;
Structure prediction by ZEFSAII (Michael W. Deem and Ramdas Pophale) SiO2 
 PCOD9526760
Probable space group: I B A M
;
_chemical_formula_sum "Si O2"
_cell_formula_units_Z 116
_cell_length_a 25.721993
_cell_length_b 23.399103
_cell_length_c 9.960207
_cell_angle_alpha 90.000000
_cell_angle_beta 90.000000
_cell_angle_gamma 90.000000
_cell_volume 5994.765361
_symmetry_space_group_name_H-M "I B A M"
_symmetry_group_IT_number 72
_symmetry_cell_setting 'orthorhombic'
loop_
_space_group_symop_operation_xyz
x,y,z
-x,-y,z
x,-y,1/2-z
-x,y,1/2-z
-x,-y,-z
x,y,-z
-x,y,1/2+z
x,-y,1/2+z
1/2+x,1/2+y,1/2+z
1/2-x,1/2-y,1/2+z
1/2+x,1/2-y,-z
1/2-x,1/2+y,-z
1/2-x,1/2-y,1/2-z
1/2+x,1/2+y,1/2-z
1/2-x,1/2+y,z
1/2+x,1/2-y,z
loop_
_atom_site_type_symbol
_atom_site_label
_atom_site_fract_x
_atom_site_fract_y
_atom_site_fract_z
Si Si1 0.198571 0.373343 0.159158
Si Si2 0.621137 0.053986 0.342450
Si Si3 0.500000 0.500000 0.750000
Si Si4 0.546814 0.160920 0.353603
Si Si5 0.683859 0.354894 0.340668
Si Si6 0.135084 0.262693 0.234767
Si Si7 0.076894 0.095839 0.655704
Si Si8 0.958652 0.803606 0.850928
O O1 0.167277 0.414666 0.259416
O O2 0.258513 0.370709 0.205362
O O3 0.172955 0.310319 0.174636
O O4 0.195055 0.389534 0.000000
O O5 0.633954 0.040898 0.500000
O O6 0.574013 0.099027 0.346107
O O7 0.607497 0.000000 0.250000
O O8 0.459666 0.459527 0.830713
O O9 0.500000 0.161345 0.250000
O O10 0.523894 0.172103 0.500000
O O11 0.595849 0.203933 0.334884
O O12 0.688051 0.349982 0.500000
O O13 0.665487 0.292419 0.290633
O O14 0.638913 0.402240 0.313294
O O15 0.092264 0.234691 0.138858
O O16 0.073735 0.115199 0.500000
O O17 0.056075 0.139827 0.767353
O O18 0.000000 0.775897 0.750000
O O19 0.978410 0.815228 0.000000
#
# Coordination Sequence:
#
# PCOD9526760 Si02
#       8
#    16  16   4  16  16  16  16  16
#     4  10  20  37  61  88 118 153 195 242 296 351
#     4  10  22  41  63  87 116 154 199 246 300 355
#     4  12  22  36  64  86 114 152 198 240 294 336
#     4  10  22  37  57  87 121 158 198 243 293 351
#     4   9  19  37  59  85 119 156 194 242 296 348
#     4  10  20  34  56  86 120 157 196 237 287 347
#     4  10  22  39  59  83 112 148 192 239 292 346
#     4  11  22  35  53  80 115 151 192 235 284 342
#
# _framework density 19.350214999999999
#
# number of rings (size 3 to 8) (size 9 to 14) (size 15 to 20)
#    0.000    1.931    0.690    2.690    0.000    7.448 
#    1.241    4.828    0.000    0.000    0.000    0.000 
#    0.000    0.000    0.000    0.000    0.000    0.000 
#
# Total GULP energy -322969.451382 kJ/mol
# GULP energy per Si atom -5568.438817 kJ/mol
# Density = 1.930617 g / cm^3
# Si number density = 19.350215 Si / 1000 Ang^3
#
#
#
# Elastic Constant Matrix: (Units=GPa)
#
#
# Indices 1 2 3 4 5 6 
#
# 1 113.9702 16.5612 48.9810 0.0000 0.0000 0.0000
# 2 16.5612 68.9341 34.0466 0.0000 0.0000 0.0000
# 3 48.9810 34.0466 140.2288 0.0000 0.0000 0.0000
# 4 0.0000 0.0000 0.0000 50.9195 0.0000 0.0000
# 5 0.0000 0.0000 0.0000 0.0000 43.2391 0.0000
# 6 0.0000 0.0000 0.0000 0.0000 0.0000 18.5508
#
#
#
# Elastic Compliance Matrix: (Units=1/GPa)
#
#
# Indices 1 2 3 4 5 6 
#
# 1 0.010362 -0.000797 -0.003426 0.000000 0.000000 0.000000
# 2 -0.000797 0.016545 -0.003738 0.000000 0.000000 0.000000
# 3 -0.003426 -0.003738 0.009235 0.000000 0.000000 0.000000
# 4 0.000000 0.000000 0.000000 0.019639 0.000000 0.000000
# 5 0.000000 0.000000 0.000000 0.000000 0.023127 0.000000
# 6 0.000000 0.000000 0.000000 0.000000 0.000000 0.053906
#
#
# Mechanical properties :
#
#
# Convention : Reuss Voigt Hill
#
# Bulk Modulus (GPa) = 49.45839 58.03454 53.74646
# Shear Modulus (GPa) = 32.15892 37.44483 34.80188
#
# Velocity S-wave (km/s) = 4.08111 4.40376 4.24550
# Velocity P-wave (km/s) = 6.91538 7.47759 7.20197
#
# Compressibility (1/GPa) = 0.02021902
#
# Stress axis : x y z
#
# Youngs Moduli (GPa) = 96.50211 60.44279 108.27787
#
# Poissons Ratio (x) = 0.04820 0.37095
# Poissons Ratio (y) = 0.07696 0.40478
# Poissons Ratio (z) = 0.33061 0.22596
#
# Static dielectric constant tensor:
#      x y z
#    x 1.718200 0.000000 0.000000 
#    y 0.000000 1.714410 0.000000 
#    z 0.000000 0.000000 1.671560 
# 
# From -- ./inp_files/8434.got.cif
#   From: 2010.05.17/outbox.cif.g08.bks.cpg/sg72_5_cif.got.tgz:8434.got - 2010.06.03 17:03:01.
