data_PCOD9526038
_publ_section_title
;
Structure prediction by ZEFSAII (Michael W. Deem and Ramdas Pophale) SiO2 
 PCOD9526038
Probable space group: I B A M
;
_chemical_formula_sum "Si O2"
_cell_formula_units_Z 116
_cell_length_a 15.177386
_cell_length_b 23.395316
_cell_length_c 14.082207
_cell_angle_alpha 90.000000
_cell_angle_beta 90.000000
_cell_angle_gamma 90.000000
_cell_volume 5000.306422
_symmetry_space_group_name_H-M "I B A M"
_symmetry_group_IT_number 72
_symmetry_cell_setting 'orthorhombic'
loop_
_space_group_symop_operation_xyz
x,y,z
-x,-y,z
x,-y,1/2-z
-x,y,1/2-z
-x,-y,-z
x,y,-z
-x,y,1/2+z
x,-y,1/2+z
1/2+x,1/2+y,1/2+z
1/2-x,1/2-y,1/2+z
1/2+x,1/2-y,-z
1/2-x,1/2+y,-z
1/2-x,1/2-y,1/2-z
1/2+x,1/2+y,1/2-z
1/2-x,1/2+y,z
1/2+x,1/2-y,z
loop_
_atom_site_type_symbol
_atom_site_label
_atom_site_fract_x
_atom_site_fract_y
_atom_site_fract_z
Si Si1 0.167916 0.400304 0.393275
Si Si2 0.795631 0.277135 0.883965
Si Si3 0.886039 0.275566 0.384334
Si Si4 0.041699 0.198239 0.615702
Si Si5 0.372043 0.584342 0.605664
Si Si6 0.699774 0.974452 0.387437
Si Si7 0.000000 0.000000 0.500000
Si Si8 0.531952 0.897841 0.351687
O O1 0.205769 0.401153 0.500000
O O2 0.203383 0.342176 0.347265
O O3 0.188945 0.461462 0.347713
O O4 0.062120 0.394915 0.402925
O O5 0.712674 0.239248 0.854774
O O6 0.886110 0.245932 0.860628
O O7 0.792960 0.280111 0.000000
O O8 0.888128 0.280159 0.500000
O O9 0.925257 0.335049 0.348377
O O10 0.947911 0.222855 0.354126
O O11 0.034814 0.194109 0.500000
O O12 0.076367 0.137263 0.651094
O O13 0.342678 0.607147 0.500000
O O14 0.283177 0.560566 0.651882
O O15 0.440159 0.533786 0.581098
O O16 0.719639 0.981612 0.500000
O O17 0.608010 0.940495 0.384448
O O18 0.500000 0.917935 0.250000
#
# Coordination Sequence:
#
# PCOD9526038 Si02
#       8
#    16  16  16  16  16  16   4  16
#     4  10  20  36  56  81 113 141 188 245 292 348
#     4   9  17  30  52  82 109 137 185 238 282 350
#     4  10  19  33  57  82 107 149 187 234 294 357
#     4   9  15  27  48  74 107 140 175 218 271 334
#     4   8  16  29  48  80 117 148 176 226 287 352
#     4  10  20  35  57  81 111 155 193 237 298 359
#     4   8  16  28  48  84 130 146 172 238 294 346
#     4  12  24  37  54  80 113 157 200 245 291 347
#
# _framework density 23.198577
#
# number of rings (size 3 to 8) (size 9 to 14) (size 15 to 20)
#    0.414    1.931    1.379    2.483    0.000    5.517 
#    2.483    0.690    0.000    0.000    0.000    0.000 
#    0.000    0.000    0.000    0.000    0.000    0.000 
#
# Total GULP energy -323316.076432 kJ/mol
# GULP energy per Si atom -5574.415111 kJ/mol
# Density = 2.314578 g / cm^3
# Si number density = 23.198577 Si / 1000 Ang^3
#
#
#
# Elastic Constant Matrix: (Units=GPa)
#
#
# Indices 1 2 3 4 5 6 
#
# 1 46.0262 12.5406 3.8271 0.0000 0.0000 0.0000
# 2 12.5406 99.7679 1.2960 -0.0001 0.0000 0.0000
# 3 3.8271 1.2960 39.1247 -0.0002 0.0000 0.0000
# 4 0.0000 -0.0001 -0.0002 12.8797 0.0000 0.0000
# 5 0.0000 0.0000 0.0000 0.0000 -2.0278 0.0000
# 6 0.0000 0.0000 0.0000 0.0000 0.0000 33.8354
#
#
#
# Elastic Compliance Matrix: (Units=1/GPa)
#
#
# Indices 1 2 3 4 5 6 
#
# 1 0.022672 -0.002822 -0.002124 0.000000 0.000000 0.000000
# 2 -0.002822 0.010379 -0.000068 0.000000 0.000000 0.000000
# 3 -0.002124 -0.000068 0.025769 0.000000 0.000000 0.000000
# 4 0.000000 0.000000 0.000000 0.077642 0.000000 0.000000
# 5 0.000000 0.000000 0.000000 0.000000 -0.493146 0.000000
# 6 0.000000 0.000000 0.000000 0.000000 0.000000 0.029555
#
#
# Mechanical properties :
#
#
# Convention : Reuss Voigt Hill
#
# Bulk Modulus (GPa) = 20.49517 24.47181 22.48349
# Shear Modulus (GPa) = -16.62034 20.08781 1.73373
#
# Velocity S-wave (km/s) = -2.67954 2.94582 0.86543
# Velocity P-wave (km/s) = 0.84817 4.70555 3.27283
#
# Compressibility (1/GPa) = 0.04879198
#
# Stress axis : x y z
#
# Youngs Moduli (GPa) = 44.10658 96.34934 38.80585
#
# Poissons Ratio (x) = 0.27192 0.08244
# Poissons Ratio (y) = 0.12448 0.00263
# Poissons Ratio (z) = 0.09370 0.00653
#
# Static dielectric constant tensor:
#      x y z
#    x 1.819770 0.000000 0.000000 
#    y 0.000000 1.860120 0.000000 
#    z 0.000000 0.000000 2.022050 
# 
# From -- ./inp_files/30884.got.cif
#   From: 2010.05.17/outbox.cif.g08.bks.cpg/sg72_16_cif.got.tgz:30884.got - 2010.06.03 17:03:01.
