data_PCOD9526074
_publ_section_title
;
Structure prediction by ZEFSAII (Michael W. Deem and Ramdas Pophale) SiO2 
 PCOD9526074
Probable space group: I B A M
;
_chemical_formula_sum "Si O2"
_cell_formula_units_Z 104
_cell_length_a 24.000208
_cell_length_b 26.258587
_cell_length_c 9.008372
_cell_angle_alpha 90.000000
_cell_angle_beta 90.000000
_cell_angle_gamma 90.000000
_cell_volume 5677.180079
_symmetry_space_group_name_H-M "I B A M"
_symmetry_group_IT_number 72
_symmetry_cell_setting 'orthorhombic'
loop_
_space_group_symop_operation_xyz
x,y,z
-x,-y,z
x,-y,1/2-z
-x,y,1/2-z
-x,-y,-z
x,y,-z
-x,y,1/2+z
x,-y,1/2+z
1/2+x,1/2+y,1/2+z
1/2-x,1/2-y,1/2+z
1/2+x,1/2-y,-z
1/2-x,1/2+y,-z
1/2-x,1/2-y,1/2-z
1/2+x,1/2+y,1/2-z
1/2-x,1/2+y,z
1/2+x,1/2-y,z
loop_
_atom_site_type_symbol
_atom_site_label
_atom_site_fract_x
_atom_site_fract_y
_atom_site_fract_z
Si Si1 0.059347 0.258469 0.322511
Si Si2 0.874679 0.838181 0.679683
Si Si3 0.223100 0.906040 0.171037
Si Si4 0.146415 0.000000 0.250000
Si Si5 0.939719 0.622885 0.321007
Si Si6 0.054420 0.923682 0.334409
Si Si7 0.157900 0.443813 0.819207
O O1 0.052995 0.254564 0.500000
O O2 0.107057 0.218539 0.277099
O O3 0.072037 0.317353 0.288480
O O4 0.000000 0.245194 0.250000
O O5 0.874424 0.841546 0.500000
O O6 0.815759 0.861196 0.735506
O O7 0.920844 0.876547 0.742834
O O8 0.283816 0.918134 0.233420
O O9 0.186431 0.957948 0.176438
O O10 0.232570 0.892573 0.000000
O O11 0.103179 0.034347 0.158204
O O12 0.940702 0.616008 0.500000
O O13 0.893298 0.588467 0.243956
O O14 0.000000 0.611427 0.250000
O O15 0.039141 0.907863 0.500000
O O16 0.000000 0.942708 0.250000
O O17 0.155864 0.500000 0.750000
O O18 0.156930 0.446320 0.000000
#
# Coordination Sequence:
#
# PCOD9526074 Si02
#       7
#    16  16  16   8  16  16  16
#     4   9  18  33  56  81 110 146 185 227 275 328
#     4   9  18  34  54  77 107 145 186 228 272 320
#     4   9  18  33  53  76 105 142 183 224 270 321
#     4  10  19  34  50  68  97 138 182 230 276 324
#     4  10  21  39  61  88 116 144 178 221 272 329
#     4  11  22  32  46  70 102 139 183 233 283 329
#     4  11  22  38  60  86 114 147 183 223 271 328
#
# _framework density 18.318953
#
# number of rings (size 3 to 8) (size 9 to 14) (size 15 to 20)
#    0.000    2.154    0.769    2.538    0.000    5.231 
#    0.000    3.077    0.000    0.000    0.000    0.000 
#    0.000    0.000    0.000    0.000    0.000    0.000 
#
# Total GULP energy -289807.859665 kJ/mol
# GULP energy per Si atom -5573.228070 kJ/mol
# Density = 1.827726 g / cm^3
# Si number density = 18.318953 Si / 1000 Ang^3
#
#
#
# Elastic Constant Matrix: (Units=GPa)
#
#
# Indices 1 2 3 4 5 6 
#
# 1 160.3255 89.3389 41.6643 0.0000 0.0000 0.0000
# 2 89.3389 94.3724 30.6589 0.0000 0.0000 0.0000
# 3 41.6643 30.6589 52.5127 0.0000 0.0000 0.0000
# 4 0.0000 0.0000 0.0000 -0.9723 0.0000 0.0000
# 5 0.0000 0.0000 0.0000 0.0000 19.9857 0.0000
# 6 0.0000 0.0000 0.0000 0.0000 0.0000 27.2853
#
#
#
# Elastic Compliance Matrix: (Units=1/GPa)
#
#
# Indices 1 2 3 4 5 6 
#
# 1 0.013890 -0.011808 -0.004126 0.000000 0.000000 0.000000
# 2 -0.011808 0.023115 -0.004127 0.000000 0.000000 0.000000
# 3 -0.004126 -0.004127 0.024726 0.000000 0.000000 0.000000
# 4 0.000000 0.000000 0.000000 -1.028491 0.000000 0.000000
# 5 0.000000 0.000000 0.000000 0.000000 0.050036 0.000000
# 6 0.000000 0.000000 0.000000 0.000000 0.000000 0.036650
#
#
# Mechanical properties :
#
#
# Convention : Reuss Voigt Hill
#
# Bulk Modulus (GPa) = 46.27749 70.05942 58.16846
# Shear Modulus (GPa) = -6.00421 18.96298 6.47939
#
# Velocity S-wave (km/s) = -1.81238 3.22088 1.88273
# Velocity P-wave (km/s) = 4.57573 7.22214 6.04552
#
# Compressibility (1/GPa) = 0.02160878
#
# Stress axis : x y z
#
# Youngs Moduli (GPa) = 71.99663 43.26107 40.44320
#
# Poissons Ratio (x) = 0.51084 0.16687
# Poissons Ratio (y) = 0.85016 0.16690
# Poissons Ratio (z) = 0.29706 0.17853
#
# Static dielectric constant tensor:
#      x y z
#    x 1.630870 0.000000 0.000000 
#    y 0.000000 1.635440 0.000000 
#    z 0.000000 0.000000 1.611060 
# 
# From -- ./inp_files/7203.got.cif
#   From: 2010.05.17/outbox.cif.g08.bks.cpg/sg72_4_cif.got.tgz:7203.got - 2010.06.03 17:03:01.
