data_PCOD9526061
_publ_section_title
;
Structure prediction by ZEFSAII (Michael W. Deem and Ramdas Pophale) SiO2 
 PCOD9526061
Probable space group: I B A M
;
_chemical_formula_sum "Si O2"
_cell_formula_units_Z 120
_cell_length_a 9.307858
_cell_length_b 20.321506
_cell_length_c 28.859641
_cell_angle_alpha 90.000000
_cell_angle_beta 90.000000
_cell_angle_gamma 90.000000
_cell_volume 5458.792212
_symmetry_space_group_name_H-M "I B A M"
_symmetry_group_IT_number 72
_symmetry_cell_setting 'orthorhombic'
loop_
_space_group_symop_operation_xyz
x,y,z
-x,-y,z
x,-y,1/2-z
-x,y,1/2-z
-x,-y,-z
x,y,-z
-x,y,1/2+z
x,-y,1/2+z
1/2+x,1/2+y,1/2+z
1/2-x,1/2-y,1/2+z
1/2+x,1/2-y,-z
1/2-x,1/2+y,-z
1/2-x,1/2-y,1/2-z
1/2+x,1/2+y,1/2-z
1/2-x,1/2+y,z
1/2+x,1/2-y,z
loop_
_atom_site_type_symbol
_atom_site_label
_atom_site_fract_x
_atom_site_fract_y
_atom_site_fract_z
Si Si1 0.757787 0.499777 0.198433
Si Si2 0.832230 0.824655 0.101481
Si Si3 0.175995 0.802766 0.902382
Si Si4 0.658319 0.356517 0.797372
Si Si5 0.136102 0.038100 0.947083
Si Si6 0.825727 0.850103 0.302622
Si Si7 0.144662 0.418073 0.051880
Si Si8 0.000000 0.500000 0.622579
O O1 0.826262 0.500000 0.250000
O O2 0.655889 0.436267 0.200670
O O3 0.689741 0.571244 0.190590
O O4 0.867388 0.489370 0.156902
O O5 0.736500 0.766774 0.080537
O O6 0.779340 0.831681 0.154595
O O7 0.822783 0.895872 0.078582
O O8 0.002767 0.806792 0.098033
O O9 0.228864 0.816006 0.849190
O O10 0.249060 0.860151 0.932612
O O11 0.493763 0.334007 0.798484
O O12 0.733857 0.336282 0.749139
O O13 0.261922 0.984994 0.948678
O O14 0.094989 0.055743 0.000000
O O15 0.000000 0.000000 0.925095
O O16 0.027900 0.436224 0.090523
O O17 0.087404 0.406804 0.000000
#
# Coordination Sequence:
#
# PCOD9526061 Si02
#       8
#    16  16  16  16  16  16  16   8
#     4  10  19  33  58  93 131 169 217 269 330 383
#     4  11  24  39  65  98 131 174 219 271 333 393
#     4  11  24  42  62  93 135 175 215 268 334 400
#     4   9  19  34  61  90 121 165 229 271 313 380
#     4  10  21  42  72  97 115 153 219 276 322 381
#     4   9  18  37  59  89 125 169 215 274 326 381
#     4  11  24  43  68  94 124 168 217 273 332 392
#     4  12  22  36  56  90 132 170 208 266 326 404
#
# _framework density 21.982885
#
# number of rings (size 3 to 8) (size 9 to 14) (size 15 to 20)
#    0.000    1.733    2.667    1.600    0.000    4.800 
#    0.000    0.000    0.000    0.000    0.000    0.000 
#    0.000    0.000    0.000    0.000    0.000    0.000 
#
# Total GULP energy -334961.269024 kJ/mol
# GULP energy per Si atom -5582.687817 kJ/mol
# Density = 2.193285 g / cm^3
# Si number density = 21.982885 Si / 1000 Ang^3
#
#
#
# Elastic Constant Matrix: (Units=GPa)
#
#
# Indices 1 2 3 4 5 6 
#
# 1 34.4290 7.8222 20.6046 0.0000 0.0000 0.0000
# 2 7.8222 116.6198 28.1025 0.0000 0.0000 0.0000
# 3 20.6046 28.1025 116.1060 0.0000 0.0000 0.0000
# 4 0.0000 0.0000 0.0000 -16.9349 0.0000 0.0000
# 5 0.0000 0.0000 0.0000 0.0000 21.0438 0.0000
# 6 0.0000 0.0000 0.0000 0.0000 0.0000 29.3865
#
#
#
# Elastic Compliance Matrix: (Units=1/GPa)
#
#
# Indices 1 2 3 4 5 6 
#
# 1 0.032574 -0.000841 -0.005577 0.000000 0.000000 0.000000
# 2 -0.000841 0.009128 -0.002060 0.000000 0.000000 0.000000
# 3 -0.005577 -0.002060 0.010101 0.000000 0.000000 0.000000
# 4 0.000000 0.000000 0.000000 -0.059050 0.000000 0.000000
# 5 0.000000 0.000000 0.000000 0.000000 0.047520 0.000000
# 6 0.000000 0.000000 0.000000 0.000000 0.000000 0.034029
#
#
# Mechanical properties :
#
#
# Convention : Reuss Voigt Hill
#
# Bulk Modulus (GPa) = 28.69715 42.24594 35.47155
# Shear Modulus (GPa) = 48.60306 20.74079 34.67193
#
# Velocity S-wave (km/s) = 4.70718 3.07497 3.97574
# Velocity P-wave (km/s) = 6.52886 5.64505 6.10298
#
# Compressibility (1/GPa) = 0.03484666
#
# Stress axis : x y z
#
# Youngs Moduli (GPa) = 30.69926 109.55658 98.99826
#
# Poissons Ratio (x) = 0.09213 0.55213
# Poissons Ratio (y) = 0.02582 0.20394
# Poissons Ratio (z) = 0.17122 0.22569
#
# Static dielectric constant tensor:
#      x y z
#    x 1.817110 0.000000 0.000000 
#    y 0.000000 1.780490 0.000000 
#    z 0.000000 0.000000 1.876920 
# 
# From -- ./inp_files/48290.got.cif
#   From: 2010.05.17/outbox.cif.g08.bks.cpg/sg72_25_cif.got.tgz:48290.got - 2010.06.03 17:03:01.
