data_PCOD9526891
_publ_section_title
;
Structure prediction by ZEFSAII (Michael W. Deem and Ramdas Pophale) SiO2 
 PCOD9526891
Probable space group: I B A M
;
_chemical_formula_sum "Si O2"
_cell_formula_units_Z 96
_cell_length_a 27.251490
_cell_length_b 15.840968
_cell_length_c 10.784507
_cell_angle_alpha 90.000000
_cell_angle_beta 90.000000
_cell_angle_gamma 90.000000
_cell_volume 4655.563622
_symmetry_space_group_name_H-M "I B A M"
_symmetry_group_IT_number 72
_symmetry_cell_setting 'orthorhombic'
loop_
_space_group_symop_operation_xyz
x,y,z
-x,-y,z
x,-y,1/2-z
-x,y,1/2-z
-x,-y,-z
x,y,-z
-x,y,1/2+z
x,-y,1/2+z
1/2+x,1/2+y,1/2+z
1/2-x,1/2-y,1/2+z
1/2+x,1/2-y,-z
1/2-x,1/2+y,-z
1/2-x,1/2-y,1/2-z
1/2+x,1/2+y,1/2-z
1/2-x,1/2+y,z
1/2+x,1/2-y,z
loop_
_atom_site_type_symbol
_atom_site_label
_atom_site_fract_x
_atom_site_fract_y
_atom_site_fract_z
Si Si1 0.463488 0.862661 0.858663
Si Si2 0.466039 0.657658 0.862632
Si Si3 0.361671 0.434525 0.636849
Si Si4 0.199282 0.801491 0.757159
Si Si5 0.246342 0.442136 0.868253
Si Si6 0.145095 0.340988 0.856920
O O1 0.500000 0.891031 0.750000
O O2 0.462703 0.759641 0.856489
O O3 0.406701 0.885709 0.834380
O O4 0.477127 0.887792 0.000000
O O5 0.500000 0.628573 0.750000
O O6 0.412503 0.616986 0.851889
O O7 0.485804 0.636082 0.000000
O O8 0.359983 0.500000 0.750000
O O9 0.360677 0.473933 0.500000
O O10 0.318071 0.366099 0.650416
O O11 0.250000 0.750000 0.750000
O O12 0.212985 0.867739 0.864155
O O13 0.157311 0.730345 0.745830
O O14 0.252682 0.500000 0.750000
O O15 0.192371 0.401002 0.857579
O O16 0.248922 0.487217 0.000000
O O17 0.142064 0.306142 0.000000
#
# Coordination Sequence:
#
# PCOD9526891 Si02
#       6
#    16  16  16  16  16  16
#     4   9  16  30  54  82 109 138 175 222 272 320
#     4   9  18  33  54  78 106 143 181 222 268 316
#     4  11  23  38  56  79 111 149 185 224 273 327
#     4  10  20  35  57  81 104 136 182 230 273 320
#     4  10  22  38  56  81 111 144 182 224 274 330
#     4   9  17  34  59  82 108 145 184 222 271 328
#
# _framework density 20.62049
#
# number of rings (size 3 to 8) (size 9 to 14) (size 15 to 20)
#    0.000    2.333    1.667    1.000    0.000    5.000 
#    0.000    5.833    0.000    0.500    0.000    3.500 
#    0.000    0.000    0.000    0.000    0.000    0.000 
#
# Total GULP energy -267234.589045 kJ/mol
# GULP energy per Si atom -5567.387272 kJ/mol
# Density = 2.057356 g / cm^3
# Si number density = 20.620490 Si / 1000 Ang^3
#
#
#
# Elastic Constant Matrix: (Units=GPa)
#
#
# Indices 1 2 3 4 5 6 
#
# 1 114.7375 7.6514 54.9684 0.0000 0.0000 0.0000
# 2 7.6514 33.3873 33.1506 0.0000 0.0000 0.0000
# 3 54.9684 33.1506 142.1138 0.0000 0.0000 0.0000
# 4 0.0000 0.0000 0.0000 9.4907 0.0000 0.0000
# 5 0.0000 0.0000 0.0000 0.0000 25.1409 0.0000
# 6 0.0000 0.0000 0.0000 0.0000 0.0000 23.0882
#
#
#
# Elastic Compliance Matrix: (Units=1/GPa)
#
#
# Indices 1 2 3 4 5 6 
#
# 1 0.010819 0.002181 -0.004693 0.000000 0.000000 0.000000
# 2 0.002181 0.039419 -0.010039 0.000000 0.000000 0.000000
# 3 -0.004693 -0.010039 0.011194 0.000000 0.000000 0.000000
# 4 0.000000 0.000000 0.000000 0.105367 0.000000 0.000000
# 5 0.000000 0.000000 0.000000 0.000000 0.039776 0.000000
# 6 0.000000 0.000000 0.000000 0.000000 0.000000 0.043312
#
#
# Mechanical properties :
#
#
# Convention : Reuss Voigt Hill
#
# Bulk Modulus (GPa) = 27.52631 53.53104 40.52867
# Shear Modulus (GPa) = 17.41565 24.50852 20.96209
#
# Velocity S-wave (km/s) = 2.90932 3.45128 3.19182
# Velocity P-wave (km/s) = 4.96624 6.47288 5.76896
#
# Compressibility (1/GPa) = 0.03632888
#
# Stress axis : x y z
#
# Youngs Moduli (GPa) = 92.43387 25.36832 89.33676
#
# Poissons Ratio (x) = -0.05532 0.41927
# Poissons Ratio (y) = -0.20156 0.89682
# Poissons Ratio (z) = 0.43381 0.25466
#
# Static dielectric constant tensor:
#      x y z
#    x 1.749980 0.000000 0.000000 
#    y 0.000000 1.765340 0.000000 
#    z 0.000000 0.000000 1.730680 
# 
# From -- ./inp_files/15532.got.cif
#   From: 2010.05.17/outbox.cif.g08.bks.cpg/sg72_8_cif.got.tgz:15532.got - 2010.06.03 17:03:01.
