data_PCOD9526963
_publ_section_title
;
Structure prediction by ZEFSAII (Michael W. Deem and Ramdas Pophale) SiO2 
 PCOD9526963
Probable space group: I B A M
;
_chemical_formula_sum "Si O2"
_cell_formula_units_Z 116
_cell_length_a 28.103654
_cell_length_b 22.545231
_cell_length_c 8.913853
_cell_angle_alpha 90.000000
_cell_angle_beta 90.000000
_cell_angle_gamma 90.000000
_cell_volume 5647.847313
_symmetry_space_group_name_H-M "I B A M"
_symmetry_group_IT_number 72
_symmetry_cell_setting 'orthorhombic'
loop_
_space_group_symop_operation_xyz
x,y,z
-x,-y,z
x,-y,1/2-z
-x,y,1/2-z
-x,-y,-z
x,y,-z
-x,y,1/2+z
x,-y,1/2+z
1/2+x,1/2+y,1/2+z
1/2-x,1/2-y,1/2+z
1/2+x,1/2-y,-z
1/2-x,1/2+y,-z
1/2-x,1/2-y,1/2-z
1/2+x,1/2+y,1/2-z
1/2-x,1/2+y,z
1/2+x,1/2-y,z
loop_
_atom_site_type_symbol
_atom_site_label
_atom_site_fract_x
_atom_site_fract_y
_atom_site_fract_z
Si Si1 0.721749 0.442664 0.824026
Si Si2 0.451084 0.797166 0.678180
Si Si3 0.409033 0.920350 0.671736
Si Si4 0.699380 0.770022 0.180575
Si Si5 0.354259 0.661523 0.823204
Si Si6 0.000000 0.500000 0.250000
Si Si7 0.682674 0.100854 0.822715
Si Si8 0.050482 0.160247 0.319211
O O1 0.697858 0.500000 0.750000
O O2 0.688625 0.385150 0.808997
O O3 0.770786 0.432255 0.737087
O O4 0.730841 0.452071 0.000000
O O5 0.500000 0.816531 0.750000
O O6 0.455392 0.794690 0.500000
O O7 0.416625 0.851018 0.711181
O O8 0.443360 0.729843 0.727515
O O9 0.392872 0.925190 0.500000
O O10 0.365369 0.934829 0.780336
O O11 0.459801 0.954982 0.680821
O O12 0.750000 0.750000 0.250000
O O13 0.661767 0.720607 0.234948
O O14 0.686033 0.834762 0.242314
O O15 0.701757 0.771443 0.000000
O O16 0.401986 0.633564 0.752223
O O17 0.361269 0.674535 0.000000
O O18 0.684796 0.109386 0.000000
O O19 0.049711 0.155612 0.500000
O O20 0.000000 0.140506 0.250000
#
# Coordination Sequence:
#
# PCOD9526963 Si02
#       8
#    16  16  16  16  16   4  16  16
#     4  11  25  45  68  93 128 168 216 268 319 384
#     4   9  18  34  55  80 112 154 197 249 309 371
#     4  11  24  42  62  85 118 159 214 277 335 392
#     4  12  23  39  65  99 137 173 214 267 332 400
#     4  11  23  40  65  97 132 173 215 262 321 387
#     4  12  26  44  68  90 118 168 232 290 354 400
#     4  12  26  43  67  95 127 170 219 272 335 398
#     4  10  20  35  60  93 129 167 208 256 313 381
#
# _framework density 20.538799999999998
#
# number of rings (size 3 to 8) (size 9 to 14) (size 15 to 20)
#    0.000    1.103    2.069    4.759    0.966    4.966 
#    0.000    0.000    0.000    0.414    0.000    2.897 
#    0.000    0.000    0.000    0.000    0.000    0.000 
#
# Total GULP energy -323762.366109 kJ/mol
# GULP energy per Si atom -5582.109761 kJ/mol
# Density = 2.049205 g / cm^3
# Si number density = 20.538800 Si / 1000 Ang^3
#
#
#
# Elastic Constant Matrix: (Units=GPa)
#
#
# Indices 1 2 3 4 5 6 
#
# 1 129.0262 3.3678 63.8447 0.0000 0.0000 0.0000
# 2 3.3678 62.2328 32.0488 0.0000 0.0000 0.0000
# 3 63.8447 32.0488 112.1926 0.0000 0.0000 0.0000
# 4 0.0000 0.0000 0.0000 9.0563 0.0000 0.0000
# 5 0.0000 0.0000 0.0000 0.0000 30.8150 0.0000
# 6 0.0000 0.0000 0.0000 0.0000 0.0000 7.8146
#
#
#
# Elastic Compliance Matrix: (Units=1/GPa)
#
#
# Indices 1 2 3 4 5 6 
#
# 1 0.011296 0.003165 -0.007332 0.000000 0.000000 0.000000
# 2 0.003165 0.019727 -0.007436 0.000000 0.000000 0.000000
# 3 -0.007332 -0.007436 0.015210 0.000000 0.000000 0.000000
# 4 0.000000 0.000000 0.000000 0.110420 0.000000 0.000000
# 5 0.000000 0.000000 0.000000 0.000000 0.032452 0.000000
# 6 0.000000 0.000000 0.000000 0.000000 0.000000 0.127965
#
#
# Mechanical properties :
#
#
# Convention : Reuss Voigt Hill
#
# Bulk Modulus (GPa) = 43.43002 55.77492 49.60247
# Shear Modulus (GPa) = 14.36981 23.14987 18.75984
#
# Velocity S-wave (km/s) = 2.64794 3.36092 3.02551
# Velocity P-wave (km/s) = 5.52631 6.50199 6.03390
#
# Compressibility (1/GPa) = 0.02302555
#
# Stress axis : x y z
#
# Youngs Moduli (GPa) = 88.52855 50.69234 65.74711
#
# Poissons Ratio (x) = -0.16042 0.48206
# Poissons Ratio (y) = -0.28015 0.48890
# Poissons Ratio (z) = 0.64909 0.37695
#
# Static dielectric constant tensor:
#      x y z
#    x 1.764360 0.000000 0.000000 
#    y 0.000000 1.890810 0.000000 
#    z 0.000000 0.000000 1.690660 
# 
# From -- ./inp_files/8452.got.cif
#   From: 2010.05.17/outbox.cif.g08.bks.cpg/sg72_5_cif.got.tgz:8452.got - 2010.06.03 17:03:01.
