data_PCOD9526503
_publ_section_title
;
Structure prediction by ZEFSAII (Michael W. Deem and Ramdas Pophale) SiO2 
 PCOD9526503
Probable space group: I B A M
;
_chemical_formula_sum "Si O2"
_cell_formula_units_Z 60
_cell_length_a 15.184808
_cell_length_b 22.243280
_cell_length_c 9.530802
_cell_angle_alpha 90.000000
_cell_angle_beta 90.000000
_cell_angle_gamma 90.000000
_cell_volume 3219.123074
_symmetry_space_group_name_H-M "I B A M"
_symmetry_group_IT_number 72
_symmetry_cell_setting 'orthorhombic'
loop_
_space_group_symop_operation_xyz
x,y,z
-x,-y,z
x,-y,1/2-z
-x,y,1/2-z
-x,-y,-z
x,y,-z
-x,y,1/2+z
x,-y,1/2+z
1/2+x,1/2+y,1/2+z
1/2-x,1/2-y,1/2+z
1/2+x,1/2-y,-z
1/2-x,1/2+y,-z
1/2-x,1/2-y,1/2-z
1/2+x,1/2+y,1/2-z
1/2-x,1/2+y,z
1/2+x,1/2-y,z
loop_
_atom_site_type_symbol
_atom_site_label
_atom_site_fract_x
_atom_site_fract_y
_atom_site_fract_z
Si Si1 0.882738 0.240867 0.000000
Si Si2 0.685820 0.877192 0.000000
Si Si3 0.500000 0.000000 0.750000
Si Si4 0.312982 0.195324 0.500000
Si Si5 0.500000 0.309601 0.750000
Si Si6 0.119434 0.166003 0.000000
Si Si7 0.094450 0.611016 0.280105
O O1 0.938367 0.226313 0.860151
O O2 0.853451 0.309578 0.000000
O O3 0.791930 0.203181 0.000000
O O4 0.646505 0.905164 0.860289
O O5 0.790370 0.870722 0.000000
O O6 0.439807 0.953260 0.836967
O O7 0.354902 0.262298 0.500000
O O8 0.347551 0.156073 0.630024
O O9 0.436563 0.344711 0.641414
O O10 0.000000 0.642189 0.250000
#
# Coordination Sequence:
#
# PCOD9526503 Si02
#       7
#     8   8   4   8   8   8  16
#     4  10  22  33  48  78 105 137 189 218 247 332
#     4  11  21  34  51  75 106 142 181 218 263 312
#     4   8  24  36  52  86 108 136 192 220 248 328
#     4  11  21  34  51  75 106 142 181 218 263 312
#     4  10  20  31  50  64 104 140 166 215 266 282
#     4  10  22  33  48  78 105 137 189 218 247 332
#     4  10  22  34  54  75 108 146 172 220 259 311
#
# _framework density 18.638615000000001
#
# number of rings (size 3 to 8) (size 9 to 14) (size 15 to 20)
#    0.800    1.067    0.000    4.000   11.200    6.400 
#    0.000    0.000    0.000    0.000    0.000    0.000 
#    0.000   74.667    0.000    0.000    0.000    0.000 
#
# Total GULP energy -167127.108665 kJ/mol
# GULP energy per Si atom -5570.903622 kJ/mol
# Density = 1.859619 g / cm^3
# Si number density = 18.638615 Si / 1000 Ang^3
#
#
#
# Elastic Constant Matrix: (Units=GPa)
#
#
# Indices 1 2 3 4 5 6 
#
# 1 142.0289 31.5518 54.8925 0.0000 0.0000 0.0000
# 2 31.5518 57.6280 14.3355 0.0000 0.0000 0.0000
# 3 54.8925 14.3355 126.1486 0.0000 -0.0001 0.0000
# 4 0.0000 0.0000 0.0000 6.7437 0.0001 0.0000
# 5 0.0000 0.0000 -0.0001 0.0001 81.7815 0.0000
# 6 0.0000 0.0000 0.0000 0.0000 0.0000 11.7397
#
#
#
# Elastic Compliance Matrix: (Units=1/GPa)
#
#
# Indices 1 2 3 4 5 6 
#
# 1 0.009372 -0.004237 -0.003597 0.000000 0.000000 0.000000
# 2 -0.004237 0.019773 -0.000403 0.000000 0.000000 0.000000
# 3 -0.003597 -0.000403 0.009538 0.000000 0.000000 0.000000
# 4 0.000000 0.000000 0.000000 0.148286 0.000000 0.000000
# 5 0.000000 0.000000 0.000000 0.000000 0.012228 0.000000
# 6 0.000000 0.000000 0.000000 0.000000 0.000000 0.085181
#
#
# Mechanical properties :
#
#
# Convention : Reuss Voigt Hill
#
# Bulk Modulus (GPa) = 45.02628 58.59614 51.81121
# Shear Modulus (GPa) = 16.22040 35.05471 25.63756
#
# Velocity S-wave (km/s) = 2.95321 4.34147 3.71281
# Velocity P-wave (km/s) = 5.98653 7.52579 6.79986
#
# Compressibility (1/GPa) = 0.02220925
#
# Stress axis : x y z
#
# Youngs Moduli (GPa) = 106.70001 50.57511 104.84272
#
# Poissons Ratio (x) = 0.21426 0.37709
# Poissons Ratio (y) = 0.45204 0.04230
# Poissons Ratio (z) = 0.38377 0.02040
#
# Static dielectric constant tensor:
#      x y z
#    x 1.653020 0.000000 0.000000 
#    y 0.000000 1.625080 0.000000 
#    z 0.000000 0.000000 1.704580 
# 
# From -- ./inp_files/3411.got.cif
#   From: 2010.05.17/outbox.cif.g08.bks.cpg/sg72_2_cif.got.tgz:3411.got - 2010.06.03 17:03:01.
