data_PCOD9526303
_publ_section_title
;
Structure prediction by ZEFSAII (Michael W. Deem and Ramdas Pophale) SiO2 
 PCOD9526303
Probable space group: I B A M
;
_chemical_formula_sum "Si O2"
_cell_formula_units_Z 112
_cell_length_a 13.705022
_cell_length_b 24.209793
_cell_length_c 15.328383
_cell_angle_alpha 90.000000
_cell_angle_beta 90.000000
_cell_angle_gamma 90.000000
_cell_volume 5085.892268
_symmetry_space_group_name_H-M "I B A M"
_symmetry_group_IT_number 72
_symmetry_cell_setting 'orthorhombic'
loop_
_space_group_symop_operation_xyz
x,y,z
-x,-y,z
x,-y,1/2-z
-x,y,1/2-z
-x,-y,-z
x,y,-z
-x,y,1/2+z
x,-y,1/2+z
1/2+x,1/2+y,1/2+z
1/2-x,1/2-y,1/2+z
1/2+x,1/2-y,-z
1/2-x,1/2+y,-z
1/2-x,1/2-y,1/2-z
1/2+x,1/2+y,1/2-z
1/2-x,1/2+y,z
1/2+x,1/2-y,z
loop_
_atom_site_type_symbol
_atom_site_label
_atom_site_fract_x
_atom_site_fract_y
_atom_site_fract_z
Si Si1 0.118384 0.310509 0.641617
Si Si2 0.912077 0.328004 0.344976
Si Si3 0.224291 0.106510 0.097810
Si Si4 0.940623 0.446935 0.398576
Si Si5 0.212208 0.974173 0.901784
Si Si6 0.802330 0.804071 0.403777
Si Si7 0.888099 0.888466 0.727637
O O1 0.111364 0.310715 0.746446
O O2 0.167637 0.367460 0.609233
O O3 0.186968 0.261025 0.610981
O O4 0.006659 0.298781 0.613873
O O5 0.949104 0.391131 0.345042
O O6 0.810442 0.321981 0.394457
O O7 0.165326 0.126213 0.181853
O O8 0.213512 0.040362 0.105434
O O9 0.190679 0.121770 0.000000
O O10 0.970044 0.437269 0.500000
O O11 0.825785 0.458993 0.397748
O O12 0.000000 0.500000 0.366643
O O13 0.157060 0.940665 0.825854
O O14 0.175327 0.959951 0.000000
O O15 0.836300 0.818535 0.500000
O O16 0.867250 0.836722 0.334701
O O17 0.000000 0.898689 0.750000
#
# Coordination Sequence:
#
# PCOD9526303 Si02
#       7
#    16  16  16  16  16  16  16
#     4  11  25  44  69 105 145 189 238 298 360 437
#     4  11  23  42  73 102 144 192 237 293 367 441
#     4  11  24  43  68 101 144 186 230 299 364 430
#     4  10  19  35  65 105 145 183 228 287 355 437
#     4  10  21  41  68 101 143 183 234 294 364 438
#     4  12  26  46  74 102 141 193 248 306 366 435
#     4  12  27  45  71  98 139 189 250 310 355 427
#
# _framework density 22.021702999999999
#
# number of rings (size 3 to 8) (size 9 to 14) (size 15 to 20)
#    0.000    1.000    2.857    3.000    2.000    5.714 
#    0.000    5.714    0.000    0.000    0.000    0.000 
#    0.000    0.000    0.000    0.000    0.000    0.000 
#
# Total GULP energy -312991.682334 kJ/mol
# GULP energy per Si atom -5589.137185 kJ/mol
# Density = 2.197158 g / cm^3
# Si number density = 22.021703 Si / 1000 Ang^3
#
#
#
# Elastic Constant Matrix: (Units=GPa)
#
#
# Indices 1 2 3 4 5 6 
#
# 1 105.8730 29.0496 45.6263 0.0000 0.0000 0.0000
# 2 29.0496 75.7996 24.4326 0.0002 -0.0004 0.0000
# 3 45.6263 24.4326 150.9775 0.0002 -0.0005 0.0000
# 4 0.0000 0.0002 0.0002 45.6484 -0.0010 -0.0001
# 5 0.0000 -0.0004 -0.0005 -0.0010 -121.7750 0.0006
# 6 0.0000 0.0000 0.0000 -0.0001 0.0006 17.6106
#
#
#
# Elastic Compliance Matrix: (Units=1/GPa)
#
#
# Indices 1 2 3 4 5 6 
#
# 1 0.011689 -0.003525 -0.002962 0.000000 0.000000 0.000000
# 2 -0.003525 0.014982 -0.001359 0.000000 0.000000 0.000000
# 3 -0.002962 -0.001359 0.007739 0.000000 0.000000 0.000000
# 4 0.000000 0.000000 0.000000 0.021907 0.000000 0.000000
# 5 0.000000 0.000000 0.000000 0.000000 -0.008212 0.000000
# 6 0.000000 0.000000 0.000000 0.000000 0.000000 0.056784
#
#
# Mechanical properties :
#
#
# Convention : Reuss Voigt Hill
#
# Bulk Modulus (GPa) = 53.42774 58.98526 56.20650
# Shear Modulus (GPa) = 39.42619 3.86623 21.64621
#
# Velocity S-wave (km/s) = 4.23582 1.32645 3.13860
# Velocity P-wave (km/s) = 6.94529 5.40270 6.22198
#
# Compressibility (1/GPa) = 0.01871687
#
# Stress axis : x y z
#
# Youngs Moduli (GPa) = 85.55087 66.74804 129.22222
#
# Poissons Ratio (x) = 0.23528 0.38276
# Poissons Ratio (y) = 0.30156 0.17564
# Poissons Ratio (z) = 0.25340 0.09073
#
# Static dielectric constant tensor:
#      x y z
#    x 1.830370 0.000000 0.000000 
#    y 0.000000 1.846130 0.000000 
#    z 0.000000 0.000000 1.822680 
# 
# From -- ./inp_files/22124.got.cif
#   From: 2010.05.17/outbox.cif.g08.bks.cpg/sg72_12_cif.got.tgz:22124.got - 2010.06.03 17:03:01.
