data_PCOD9526841
_publ_section_title
;
Structure prediction by ZEFSAII (Michael W. Deem and Ramdas Pophale) SiO2 
 PCOD9526841
Probable space group: I B A M
;
_chemical_formula_sum "Si O2"
_cell_formula_units_Z 68
_cell_length_a 20.699877
_cell_length_b 20.528588
_cell_length_c 9.225217
_cell_angle_alpha 90.000000
_cell_angle_beta 90.000000
_cell_angle_gamma 90.000000
_cell_volume 3920.156762
_symmetry_space_group_name_H-M "I B A M"
_symmetry_group_IT_number 72
_symmetry_cell_setting 'orthorhombic'
loop_
_space_group_symop_operation_xyz
x,y,z
-x,-y,z
x,-y,1/2-z
-x,y,1/2-z
-x,-y,-z
x,y,-z
-x,y,1/2+z
x,-y,1/2+z
1/2+x,1/2+y,1/2+z
1/2-x,1/2-y,1/2+z
1/2+x,1/2-y,-z
1/2-x,1/2+y,-z
1/2-x,1/2-y,1/2-z
1/2+x,1/2+y,1/2-z
1/2-x,1/2+y,z
1/2+x,1/2-y,z
loop_
_atom_site_type_symbol
_atom_site_label
_atom_site_fract_x
_atom_site_fract_y
_atom_site_fract_z
Si Si1 0.560609 0.626388 0.838207
Si Si2 0.174365 0.680404 0.828293
Si Si3 0.568199 0.930646 0.824578
Si Si4 0.000000 0.000000 0.250000
Si Si5 0.823672 0.817560 0.828645
O O1 0.500000 0.656404 0.750000
O O2 0.543337 0.549846 0.840197
O O3 0.625736 0.636987 0.751680
O O4 0.564526 0.652656 0.000000
O O5 0.123437 0.623250 0.797197
O O6 0.164245 0.745399 0.735090
O O7 0.249386 0.662255 0.801621
O O8 0.168982 0.696251 0.000000
O O9 0.500000 0.911254 0.750000
O O10 0.585030 0.000000 0.750000
O O11 0.560979 0.937773 0.000000
O O12 0.834681 0.817894 0.000000
#
# Coordination Sequence:
#
# PCOD9526841 Si02
#       5
#    16  16  16   4  16
#     4  10  20  35  55  78 108 144 183 224 268 316
#     4   9  20  38  56  78 110 145 181 224 272 324
#     4  10  20  36  57  80 108 139 176 222 270 324
#     4   8  22  36  58  76 110 148 182 220 266 316
#     4  10  20  35  57  81 110 144 183 226 271 320
#
# _framework density 17.346246000000001
#
# number of rings (size 3 to 8) (size 9 to 14) (size 15 to 20)
#    0.706    1.647    0.000    3.176    0.000    3.765 
#    2.118    2.353    0.000    0.000    0.000    0.000 
#    0.000    0.000    0.000    0.000    0.000    0.000 
#
# Total GULP energy -189337.711539 kJ/mol
# GULP energy per Si atom -5568.756222 kJ/mol
# Density = 1.730677 g / cm^3
# Si number density = 17.346246 Si / 1000 Ang^3
#
#
#
# Elastic Constant Matrix: (Units=GPa)
#
#
# Indices 1 2 3 4 5 6 
#
# 1 125.5591 82.2271 79.0167 0.0000 0.0000 0.0000
# 2 82.2271 76.6584 53.2715 0.0000 0.0000 0.0000
# 3 79.0167 53.2715 105.4508 0.0000 0.0000 0.0000
# 4 0.0000 0.0000 0.0000 4.0319 0.0000 0.0000
# 5 0.0000 0.0000 0.0000 0.0000 21.4346 0.0000
# 6 0.0000 0.0000 0.0000 0.0000 0.0000 43.5970
#
#
#
# Elastic Compliance Matrix: (Units=1/GPa)
#
#
# Indices 1 2 3 4 5 6 
#
# 1 0.032932 -0.028008 -0.010527 0.000000 0.000000 0.000000
# 2 -0.028008 0.043923 -0.001202 0.000000 0.000000 0.000000
# 3 -0.010527 -0.001202 0.017978 0.000000 0.000000 0.000000
# 4 0.000000 0.000000 0.000000 0.248021 0.000000 0.000000
# 5 0.000000 0.000000 0.000000 0.000000 0.046654 0.000000
# 6 0.000000 0.000000 0.000000 0.000000 0.000000 0.022937
#
#
# Mechanical properties :
#
#
# Convention : Reuss Voigt Hill
#
# Bulk Modulus (GPa) = 65.11018 81.85545 73.48281
# Shear Modulus (GPa) = 10.05958 20.02291 15.04124
#
# Velocity S-wave (km/s) = 2.41078 3.40120 2.94788
# Velocity P-wave (km/s) = 6.73545 7.91933 7.35126
#
# Compressibility (1/GPa) = 0.01535858
#
# Stress axis : x y z
#
# Youngs Moduli (GPa) = 30.36588 22.76720 55.62214
#
# Poissons Ratio (x) = 0.63767 0.58555
# Poissons Ratio (y) = 0.85050 0.06684
# Poissons Ratio (z) = 0.31967 0.02736
#
# Static dielectric constant tensor:
#      x y z
#    x 1.584780 0.000000 0.000000 
#    y 0.000000 1.575810 0.000000 
#    z 0.000000 0.000000 1.598700 
# 
# From -- ./inp_files/5488.got.cif
#   From: 2010.05.17/outbox.cif.g08.bks.cpg/sg72_3_cif.got.tgz:5488.got - 2010.06.03 17:03:01.
