data_PCOD9526568
_publ_section_title
;
Structure prediction by ZEFSAII (Michael W. Deem and Ramdas Pophale) SiO2 
 PCOD9526568
Probable space group: I B A M
;
_chemical_formula_sum "Si O2"
_cell_formula_units_Z 112
_cell_length_a 13.997672
_cell_length_b 24.083050
_cell_length_c 17.260859
_cell_angle_alpha 90.000000
_cell_angle_beta 90.000000
_cell_angle_gamma 90.000000
_cell_volume 5818.750089
_symmetry_space_group_name_H-M "I B A M"
_symmetry_group_IT_number 72
_symmetry_cell_setting 'orthorhombic'
loop_
_space_group_symop_operation_xyz
x,y,z
-x,-y,z
x,-y,1/2-z
-x,y,1/2-z
-x,-y,-z
x,y,-z
-x,y,1/2+z
x,-y,1/2+z
1/2+x,1/2+y,1/2+z
1/2-x,1/2-y,1/2+z
1/2+x,1/2-y,-z
1/2-x,1/2+y,-z
1/2-x,1/2-y,1/2-z
1/2+x,1/2+y,1/2-z
1/2-x,1/2+y,z
1/2+x,1/2-y,z
loop_
_atom_site_type_symbol
_atom_site_label
_atom_site_fract_x
_atom_site_fract_y
_atom_site_fract_z
Si Si1 0.792199 0.042502 0.593489
Si Si2 0.797228 0.226057 0.906154
Si Si3 0.105470 0.484111 0.159804
Si Si4 0.686497 0.667950 0.407053
Si Si5 0.309113 0.118544 0.588583
Si Si6 0.484774 0.668560 0.340749
Si Si7 0.401152 0.561266 0.410995
O O1 0.797372 0.042260 0.500000
O O2 0.690525 0.017225 0.617773
O O3 0.799924 0.105266 0.622916
O O4 0.877109 0.000495 0.618897
O O5 0.763940 0.286941 0.880914
O O6 0.713639 0.181441 0.887816
O O7 0.894414 0.204261 0.868753
O O8 0.808287 0.224458 0.000000
O O9 0.110917 0.500000 0.250000
O O10 0.126385 0.419351 0.143253
O O11 0.000000 0.500000 0.131294
O O12 0.692461 0.665767 0.500000
O O13 0.580965 0.686597 0.383659
O O14 0.345801 0.117056 0.500000
O O15 0.204168 0.089765 0.586926
O O16 0.500000 0.673374 0.250000
O O17 0.464191 0.604310 0.363588
O O18 0.436867 0.559198 0.500000
#
# Coordination Sequence:
#
# PCOD9526568 Si02
#       7
#    16  16  16  16  16  16  16
#     4   9  19  35  56  82 108 141 184 239 291 327
#     4   9  19  39  62  81 109 150 195 240 280 330
#     4  10  20  33  50  76 112 148 182 221 280 343
#     4  10  21  38  59  83 113 147 193 245 287 329
#     4   8  15  31  56  78  96 135 185 225 267 319
#     4  11  22  35  55  85 116 149 190 231 287 348
#     4   8  15  32  56  78 106 139 177 223 278 337
#
# _framework density 19.248118999999999
#
# number of rings (size 3 to 8) (size 9 to 14) (size 15 to 20)
#    0.000    2.714    0.000    3.429    0.000    5.714 
#    2.571    2.857    0.000    0.000    0.000    0.000 
#    0.000    0.000    0.000    0.000    0.000    0.000 
#
# Total GULP energy -312347.268972 kJ/mol
# GULP energy per Si atom -5577.629803 kJ/mol
# Density = 1.920431 g / cm^3
# Si number density = 19.248119 Si / 1000 Ang^3
#
#
#
# Elastic Constant Matrix: (Units=GPa)
#
#
# Indices 1 2 3 4 5 6 
#
# 1 90.5026 49.8241 18.4427 0.0000 0.0000 0.0000
# 2 49.8241 138.2008 28.3761 0.0001 0.0000 0.0000
# 3 18.4427 28.3761 14.7398 0.0002 0.0001 0.0000
# 4 0.0000 0.0001 0.0002 5.3965 0.0001 0.0000
# 5 0.0000 0.0000 0.0001 0.0001 24.7968 0.0000
# 6 0.0000 0.0000 0.0000 0.0000 0.0000 21.5780
#
#
#
# Elastic Compliance Matrix: (Units=1/GPa)
#
#
# Indices 1 2 3 4 5 6 
#
# 1 0.015391 -0.002637 -0.014181 0.000000 0.000000 0.000000
# 2 -0.002637 0.012417 -0.020606 0.000000 0.000000 0.000000
# 3 -0.014181 -0.020606 0.125255 -0.000003 0.000000 0.000000
# 4 0.000000 0.000000 -0.000003 0.185304 0.000000 0.000000
# 5 0.000000 0.000000 0.000000 0.000000 0.040328 0.000000
# 6 0.000000 0.000000 0.000000 0.000000 0.000000 0.046344
#
#
# Mechanical properties :
#
#
# Convention : Reuss Voigt Hill
#
# Bulk Modulus (GPa) = 12.78502 48.52543 30.65523
# Shear Modulus (GPa) = 9.50648 20.14094 14.82371
#
# Velocity S-wave (km/s) = 2.22478 3.23830 2.77815
# Velocity P-wave (km/s) = 3.64090 6.26477 5.12364
#
# Compressibility (1/GPa) = 0.07821654
#
# Stress axis : x y z
#
# Youngs Moduli (GPa) = 64.97333 80.53197 7.98373
#
# Poissons Ratio (x) = 0.21237 0.11321
# Poissons Ratio (y) = 0.17134 0.16451
# Poissons Ratio (z) = 0.92136 1.65941
#
# Static dielectric constant tensor:
#      x y z
#    x 1.654780 0.000000 0.000000 
#    y 0.000000 1.725170 0.000000 
#    z 0.000000 0.000000 1.653730 
# 
# From -- ./inp_files/22080.got.cif
#   From: 2010.05.17/outbox.cif.g08.bks.cpg/sg72_12_cif.got.tgz:22080.got - 2010.06.03 17:03:01.
