data_PCOD9526508
_publ_section_title
;
Structure prediction by ZEFSAII (Michael W. Deem and Ramdas Pophale) SiO2 
 PCOD9526508
Probable space group: I B A M
;
_chemical_formula_sum "Si O2"
_cell_formula_units_Z 88
_cell_length_a 8.738699
_cell_length_b 18.757410
_cell_length_c 26.498025
_cell_angle_alpha 90.000000
_cell_angle_beta 90.000000
_cell_angle_gamma 90.000000
_cell_volume 4343.433307
_symmetry_space_group_name_H-M "I B A M"
_symmetry_group_IT_number 72
_symmetry_cell_setting 'orthorhombic'
loop_
_space_group_symop_operation_xyz
x,y,z
-x,-y,z
x,-y,1/2-z
-x,y,1/2-z
-x,-y,-z
x,y,-z
-x,y,1/2+z
x,-y,1/2+z
1/2+x,1/2+y,1/2+z
1/2-x,1/2-y,1/2+z
1/2+x,1/2-y,-z
1/2-x,1/2+y,-z
1/2-x,1/2-y,1/2-z
1/2+x,1/2+y,1/2-z
1/2-x,1/2+y,z
1/2+x,1/2-y,z
loop_
_atom_site_type_symbol
_atom_site_label
_atom_site_fract_x
_atom_site_fract_y
_atom_site_fract_z
Si Si1 0.964419 0.253537 0.000000
Si Si2 0.768030 0.341885 0.500000
Si Si3 0.500000 0.254063 0.250000
Si Si4 0.754585 0.797200 0.324269
Si Si5 0.168866 0.035106 0.060683
Si Si6 0.858565 0.411294 0.396399
Si Si7 0.328131 0.832005 0.401292
O O1 0.910641 0.172293 0.000000
O O2 0.899153 0.289493 0.050914
O O3 0.143878 0.266593 0.000000
O O4 0.824778 0.380886 0.451532
O O5 0.392365 0.210229 0.287988
O O6 0.394878 0.299843 0.213639
O O7 0.744098 0.866996 0.357827
O O8 0.774787 0.726981 0.360263
O O9 0.192585 0.115993 0.080030
O O10 0.293567 0.990238 0.093917
O O11 0.204210 0.032160 0.000000
O O12 0.000000 0.000000 0.067300
O O13 0.030493 0.383466 0.383826
#
# Coordination Sequence:
#
# PCOD9526508 Si02
#       7
#     8   8   8  16  16  16  16
#     4  10  20  31  52  89 127 159 195 243 288 365
#     4  10  20  31  52  89 127 159 195 243 288 365
#     4  10  24  42  64  94 124 146 214 278 324 356
#     4  11  22  41  68  96 118 161 206 269 318 368
#     4  11  25  39  57  90 135 174 205 242 291 368
#     4  11  22  38  61  90 127 170 203 241 307 370
#     4  11  22  38  61  90 127 170 203 241 307 370
#
# _framework density 20.260470000000002
#
# number of rings (size 3 to 8) (size 9 to 14) (size 15 to 20)
#    0.000    1.273    5.455    0.545    2.545    2.182 
#    0.000    0.000    0.000    6.545    0.000    0.000 
#    0.000    0.000    0.000    0.000    0.000    0.000 
#
# Total GULP energy -245276.238046 kJ/mol
# GULP energy per Si atom -5574.459956 kJ/mol
# Density = 2.021436 g / cm^3
# Si number density = 20.260470 Si / 1000 Ang^3
#
#
#
# Elastic Constant Matrix: (Units=GPa)
#
#
# Indices 1 2 3 4 5 6 
#
# 1 52.3262 18.4387 29.4727 0.0000 0.0000 0.0000
# 2 18.4387 72.6376 39.7562 0.0000 0.0000 0.0000
# 3 29.4727 39.7562 121.1208 0.0000 0.0000 0.0000
# 4 0.0000 0.0000 0.0000 25.2025 0.0000 0.0000
# 5 0.0000 0.0000 0.0000 0.0000 15.0281 0.0000
# 6 0.0000 0.0000 0.0000 0.0000 0.0000 21.2668
#
#
#
# Elastic Compliance Matrix: (Units=1/GPa)
#
#
# Indices 1 2 3 4 5 6 
#
# 1 0.022797 -0.003353 -0.004447 0.000000 0.000000 0.000000
# 2 -0.003353 0.017275 -0.004854 0.000000 0.000000 0.000000
# 3 -0.004447 -0.004854 0.010932 0.000000 0.000000 0.000000
# 4 0.000000 0.000000 0.000000 0.039679 0.000000 0.000000
# 5 0.000000 0.000000 0.000000 0.000000 0.066542 0.000000
# 6 0.000000 0.000000 0.000000 0.000000 0.000000 0.047022
#
#
# Mechanical properties :
#
#
# Convention : Reuss Voigt Hill
#
# Bulk Modulus (GPa) = 38.91749 46.82441 42.87095
# Shear Modulus (GPa) = 20.99788 22.86062 21.92925
#
# Velocity S-wave (km/s) = 3.22280 3.36272 3.29350
# Velocity P-wave (km/s) = 5.75316 6.18373 5.97233
#
# Compressibility (1/GPa) = 0.02569539
#
# Stress axis : x y z
#
# Youngs Moduli (GPa) = 43.86532 57.88691 91.47775
#
# Poissons Ratio (x) = 0.19410 0.40677
# Poissons Ratio (y) = 0.14709 0.44407
# Poissons Ratio (z) = 0.19505 0.28100
#
# Static dielectric constant tensor:
#      x y z
#    x 1.797710 0.000000 0.000000 
#    y 0.000000 1.807600 0.000000 
#    z 0.000000 0.000000 1.669850 
# 
# From -- ./inp_files/42321.got.cif
#   From: 2010.05.17/outbox.cif.g08.bks.cpg/sg72_22_cif.got.tgz:42321.got - 2010.06.03 17:03:01.
