data_PCOD9526398
_publ_section_title
;
Structure prediction by ZEFSAII (Michael W. Deem and Ramdas Pophale) SiO2 
 PCOD9526398
Probable space group: I B A M
;
_chemical_formula_sum "Si O2"
_cell_formula_units_Z 112
_cell_length_a 32.384089
_cell_length_b 12.064304
_cell_length_c 15.035998
_cell_angle_alpha 90.000000
_cell_angle_beta 90.000000
_cell_angle_gamma 90.000000
_cell_volume 5874.436529
_symmetry_space_group_name_H-M "I B A M"
_symmetry_group_IT_number 72
_symmetry_cell_setting 'orthorhombic'
loop_
_space_group_symop_operation_xyz
x,y,z
-x,-y,z
x,-y,1/2-z
-x,y,1/2-z
-x,-y,-z
x,y,-z
-x,y,1/2+z
x,-y,1/2+z
1/2+x,1/2+y,1/2+z
1/2-x,1/2-y,1/2+z
1/2+x,1/2-y,-z
1/2-x,1/2+y,-z
1/2-x,1/2-y,1/2-z
1/2+x,1/2+y,1/2-z
1/2-x,1/2+y,z
1/2+x,1/2-y,z
loop_
_atom_site_type_symbol
_atom_site_label
_atom_site_fract_x
_atom_site_fract_y
_atom_site_fract_z
Si Si1 0.328770 0.374282 0.142915
Si Si2 0.047932 0.633031 0.743029
Si Si3 0.824477 0.523447 0.603910
Si Si4 0.396688 0.206653 0.901938
Si Si5 0.238561 0.702714 0.153012
Si Si6 0.325865 0.628495 0.140722
Si Si7 0.881768 0.673049 0.897380
O O1 0.370903 0.318363 0.111469
O O2 0.291264 0.295469 0.111095
O O3 0.326196 0.500602 0.114024
O O4 0.327520 0.369882 0.250948
O O5 0.049878 0.500000 0.750000
O O6 0.070643 0.687828 0.826039
O O7 0.076228 0.662698 0.658006
O O8 0.000000 0.665067 0.750000
O O9 0.812060 0.508490 0.500000
O O10 0.862476 0.609704 0.606273
O O11 0.787164 0.586883 0.653398
O O12 0.845168 0.409498 0.638535
O O13 0.415039 0.201156 0.000000
O O14 0.250000 0.750000 0.250000
O O15 0.282647 0.681019 0.109525
O O16 0.363188 0.704250 0.108402
O O17 0.888457 0.640671 0.000000
#
# Coordination Sequence:
#
# PCOD9526398 Si02
#       7
#    16  16  16  16  16  16  16
#     4   9  19  36  53  86 117 158 208 255 296 355
#     4  11  23  39  64  95 124 153 189 245 313 379
#     4   9  19  35  55  80 115 158 201 242 293 355
#     4  10  19  37  62  85 113 155 198 239 296 363
#     4   9  19  33  53  83 117 158 206 255 298 345
#     4  10  20  34  57  83 121 162 212 254 299 351
#     4  11  23  39  60  89 125 166 202 249 311 372
#
# _framework density 19.065659
#
# number of rings (size 3 to 8) (size 9 to 14) (size 15 to 20)
#    0.000    2.143    2.857    0.000    2.000    1.714 
#    2.571    1.429    0.000    1.714    0.000    2.000 
#    0.000    0.000    0.000    0.000    0.000    0.000 
#
# Total GULP energy -312573.893100 kJ/mol
# GULP energy per Si atom -5581.676663 kJ/mol
# Density = 1.902226 g / cm^3
# Si number density = 19.065659 Si / 1000 Ang^3
#
#
#
# Elastic Constant Matrix: (Units=GPa)
#
#
# Indices 1 2 3 4 5 6 
#
# 1 126.6517 41.7980 47.8093 0.0000 0.0000 0.0000
# 2 41.7980 96.3826 15.3507 0.0000 0.0000 0.0000
# 3 47.8093 15.3507 85.1144 0.0000 0.0000 0.0000
# 4 0.0000 0.0000 0.0000 12.4965 0.0000 0.0000
# 5 0.0000 0.0000 0.0000 0.0000 12.6566 0.0000
# 6 0.0000 0.0000 0.0000 0.0000 0.0000 12.5771
#
#
#
# Elastic Compliance Matrix: (Units=1/GPa)
#
#
# Indices 1 2 3 4 5 6 
#
# 1 0.011358 -0.004025 -0.005654 0.000000 0.000000 0.000000
# 2 -0.004025 0.012109 0.000077 0.000000 0.000000 0.000000
# 3 -0.005654 0.000077 0.014911 0.000000 0.000000 0.000000
# 4 0.000000 0.000000 0.000000 0.080023 0.000000 0.000000
# 5 0.000000 0.000000 0.000000 0.000000 0.079010 0.000000
# 6 0.000000 0.000000 0.000000 0.000000 0.000000 0.079510
#
#
# Mechanical properties :
#
#
# Convention : Reuss Voigt Hill
#
# Bulk Modulus (GPa) = 52.15510 57.56275 54.85893
# Shear Modulus (GPa) = 16.52804 21.09207 18.81005
#
# Velocity S-wave (km/s) = 2.94751 3.32970 3.14442
# Velocity P-wave (km/s) = 6.24489 6.71118 6.48223
#
# Compressibility (1/GPa) = 0.01917358
#
# Stress axis : x y z
#
# Youngs Moduli (GPa) = 88.04009 82.58555 67.06483
#
# Poissons Ratio (x) = 0.33243 0.37919
# Poissons Ratio (y) = 0.35438 -0.00518
# Poissons Ratio (z) = 0.49779 -0.00637
#
# Static dielectric constant tensor:
#      x y z
#    x 1.638860 0.000000 0.000000 
#    y 0.000000 1.678300 0.000000 
#    z 0.000000 0.000000 1.759110 
# 
# From -- ./inp_files/26365.got.cif
#   From: 2010.05.17/outbox.cif.g08.bks.cpg/sg72_14_cif.got.tgz:26365.got - 2010.06.03 17:03:01.
