data_PCOD9526633
_publ_section_title
;
Structure prediction by ZEFSAII (Michael W. Deem and Ramdas Pophale) SiO2 
 PCOD9526633
Probable space group: I B A M
;
_chemical_formula_sum "Si O2"
_cell_formula_units_Z 88
_cell_length_a 12.608295
_cell_length_b 24.858413
_cell_length_c 11.389095
_cell_angle_alpha 90.000000
_cell_angle_beta 90.000000
_cell_angle_gamma 90.000000
_cell_volume 3569.595260
_symmetry_space_group_name_H-M "I B A M"
_symmetry_group_IT_number 72
_symmetry_cell_setting 'orthorhombic'
loop_
_space_group_symop_operation_xyz
x,y,z
-x,-y,z
x,-y,1/2-z
-x,y,1/2-z
-x,-y,-z
x,y,-z
-x,y,1/2+z
x,-y,1/2+z
1/2+x,1/2+y,1/2+z
1/2-x,1/2-y,1/2+z
1/2+x,1/2-y,-z
1/2-x,1/2+y,-z
1/2-x,1/2-y,1/2-z
1/2+x,1/2+y,1/2-z
1/2-x,1/2+y,z
1/2+x,1/2-y,z
loop_
_atom_site_type_symbol
_atom_site_label
_atom_site_fract_x
_atom_site_fract_y
_atom_site_fract_z
Si Si1 0.422052 0.792321 0.000000
Si Si2 0.761555 0.790400 0.000000
Si Si3 0.711143 0.000000 0.750000
Si Si4 0.619930 0.107622 0.753102
Si Si5 0.407718 0.453940 0.369289
Si Si6 0.500000 0.260250 0.250000
Si Si7 0.665862 0.654470 0.260094
Si Si8 0.587716 0.867886 0.000000
O O1 0.301516 0.770386 0.000000
O O2 0.462103 0.770312 0.130391
O O3 0.462294 0.854498 0.000000
O O4 0.809382 0.819442 0.886400
O O5 0.639363 0.807858 0.000000
O O6 0.638301 0.952100 0.702538
O O7 0.795707 0.983620 0.850272
O O8 0.500000 0.127645 0.750000
O O9 0.718258 0.143427 0.794940
O O10 0.632928 0.102887 0.612216
O O11 0.500000 0.500000 0.360067
O O12 0.419425 0.431369 0.500000
O O13 0.391846 0.403007 0.281092
O O14 0.408103 0.300722 0.203365
#
# Coordination Sequence:
#
# PCOD9526633 Si02
#       8
#     8   8   8  16  16   8  16   8
#     4  10  22  42  66  97 127 168 219 273 337 415
#     4   8  16  38  59  89 115 169 208 251 339 389
#     4  10  22  36  60  84 122 163 217 256 308 390
#     4  10  22  41  60  89 119 170 214 266 319 379
#     4  10  20  33  56  92 128 168 210 265 319 388
#     4  10  22  40  65 100 130 169 212 276 348 406
#     4   9  18  35  62  83 126 167 205 259 328 400
#     4  10  22  42  69  86 124 171 215 272 335 395
#
# _framework density 24.652656
#
# number of rings (size 3 to 8) (size 9 to 14) (size 15 to 20)
#    0.000    2.364    0.909    0.545   10.182    0.000 
#    4.909    3.636    0.000    0.000    0.000    0.000 
#    0.000    0.000    0.000    0.000    0.000    0.000 
#
# Total GULP energy -244961.344293 kJ/mol
# GULP energy per Si atom -5567.303279 kJ/mol
# Density = 2.459655 g / cm^3
# Si number density = 24.652656 Si / 1000 Ang^3
#
#
#
# Elastic Constant Matrix: (Units=GPa)
#
#
# Indices 1 2 3 4 5 6 
#
# 1 145.1844 40.8131 -0.8264 0.0000 0.0000 0.0000
# 2 40.8131 97.3707 7.6622 0.0002 0.0000 0.0000
# 3 -0.8264 7.6622 40.7089 0.0005 -0.0002 0.0000
# 4 0.0000 0.0002 0.0005 16.8519 0.0000 0.0000
# 5 0.0000 0.0000 -0.0002 0.0000 17.8066 0.0000
# 6 0.0000 0.0000 0.0000 0.0000 0.0000 31.7808
#
#
#
# Elastic Compliance Matrix: (Units=1/GPa)
#
#
# Indices 1 2 3 4 5 6 
#
# 1 0.007833 -0.003345 0.000789 0.000000 0.000000 0.000000
# 2 -0.003345 0.011853 -0.002299 0.000000 0.000000 0.000000
# 3 0.000789 -0.002299 0.025013 -0.000001 0.000000 0.000000
# 4 0.000000 0.000000 -0.000001 0.059341 0.000000 0.000000
# 5 0.000000 0.000000 0.000000 0.000000 0.056159 0.000000
# 6 0.000000 0.000000 0.000000 0.000000 0.000000 0.031466
#
#
# Mechanical properties :
#
#
# Convention : Reuss Voigt Hill
#
# Bulk Modulus (GPa) = 28.58102 42.06244 35.32173
# Shear Modulus (GPa) = 23.47002 28.99552 26.23277
#
# Velocity S-wave (km/s) = 3.08884 3.43324 3.26559
# Velocity P-wave (km/s) = 4.93355 5.72846 5.34580
#
# Compressibility (1/GPa) = 0.03498826
#
# Stress axis : x y z
#
# Youngs Moduli (GPa) = 127.67098 84.36655 39.97863
#
# Poissons Ratio (x) = 0.28222 -0.03153
# Poissons Ratio (y) = 0.42707 0.09191
# Poissons Ratio (z) = -0.10068 0.19395
#
# Static dielectric constant tensor:
#      x y z
#    x 2.035540 0.000000 0.000000 
#    y 0.000000 1.973290 0.000000 
#    z 0.000000 0.000000 2.036230 
# 
# From -- ./inp_files/20575.got.cif
#   From: 2010.05.17/outbox.cif.g08.bks.cpg/sg72_11_cif.got.tgz:20575.got - 2010.06.03 17:03:01.
