data_PCOD9526212
_publ_section_title
;
Structure prediction by ZEFSAII (Michael W. Deem and Ramdas Pophale) SiO2 
 PCOD9526212
Probable space group: I B A M
;
_chemical_formula_sum "Si O2"
_cell_formula_units_Z 68
_cell_length_a 17.045926
_cell_length_b 16.660570
_cell_length_c 13.655668
_cell_angle_alpha 90.000000
_cell_angle_beta 90.000000
_cell_angle_gamma 90.000000
_cell_volume 3878.139294
_symmetry_space_group_name_H-M "I B A M"
_symmetry_group_IT_number 72
_symmetry_cell_setting 'orthorhombic'
loop_
_space_group_symop_operation_xyz
x,y,z
-x,-y,z
x,-y,1/2-z
-x,y,1/2-z
-x,-y,-z
x,y,-z
-x,y,1/2+z
x,-y,1/2+z
1/2+x,1/2+y,1/2+z
1/2-x,1/2-y,1/2+z
1/2+x,1/2-y,-z
1/2-x,1/2+y,-z
1/2-x,1/2-y,1/2-z
1/2+x,1/2+y,1/2-z
1/2-x,1/2+y,z
1/2+x,1/2-y,z
loop_
_atom_site_type_symbol
_atom_site_label
_atom_site_fract_x
_atom_site_fract_y
_atom_site_fract_z
Si Si1 0.212870 0.924324 0.000000
Si Si2 0.903672 0.140020 0.158441
Si Si3 0.811801 0.782768 0.826939
Si Si4 0.485900 0.714841 0.000000
Si Si5 0.000000 0.000000 0.250000
Si Si6 0.361970 0.833300 0.000000
Si Si7 0.176784 0.111120 0.000000
O O1 0.172803 0.881009 0.906381
O O2 0.307281 0.912345 0.000000
O O3 0.184087 0.016105 0.000000
O O4 0.881006 0.181755 0.260090
O O5 0.960940 0.194238 0.093271
O O6 0.946921 0.057179 0.183480
O O7 0.750000 0.750000 0.750000
O O8 0.835367 0.712728 0.901367
O O9 0.784805 0.852882 0.901346
O O10 0.453488 0.806334 0.000000
O O11 0.411291 0.651714 0.000000
#
# Coordination Sequence:
#
# PCOD9526212 Si02
#       7
#     8  16  16   8   4   8   8
#     4  11  20  33  49  77 107 150 176 218 272 317
#     4  11  20  31  54  75 110 146 179 208 276 332
#     4  10  19  35  52  75 103 145 186 218 250 322
#     4   9  20  34  50  78 108 144 177 217 267 326
#     4  12  20  30  48  84 116 142 164 218 272 344
#     4  10  20  34  49  71 111 137 184 231 253 304
#     4  10  22  32  50  76 114 137 174 222 268 321
#
# _framework density 17.534182999999999
#
# number of rings (size 3 to 8) (size 9 to 14) (size 15 to 20)
#    0.000    1.882    2.353    5.647    0.000    1.882 
#    0.000    0.000    0.000    0.000    0.000    3.294 
#    0.000   15.059    0.000    3.529    0.000    0.000 
#
# Total GULP energy -189300.735376 kJ/mol
# GULP energy per Si atom -5567.668688 kJ/mol
# Density = 1.749427 g / cm^3
# Si number density = 17.534183 Si / 1000 Ang^3
#
#
#
# Elastic Constant Matrix: (Units=GPa)
#
#
# Indices 1 2 3 4 5 6 
#
# 1 62.5397 32.4627 31.4336 0.0000 0.0000 0.0000
# 2 32.4627 39.8368 21.9443 0.0000 0.0000 0.0000
# 3 31.4336 21.9443 131.6227 0.0000 0.0000 0.0000
# 4 0.0000 0.0000 0.0000 17.2567 0.0000 0.0000
# 5 0.0000 0.0000 0.0000 0.0000 20.9560 0.0000
# 6 0.0000 0.0000 0.0000 0.0000 0.0000 24.9073
#
#
#
# Elastic Compliance Matrix: (Units=1/GPa)
#
#
# Indices 1 2 3 4 5 6 
#
# 1 0.028944 -0.021779 -0.003281 0.000000 0.000000 0.000000
# 2 -0.021779 0.044028 -0.002139 0.000000 0.000000 0.000000
# 3 -0.003281 -0.002139 0.008738 0.000000 0.000000 0.000000
# 4 0.000000 0.000000 0.000000 0.057949 0.000000 0.000000
# 5 0.000000 0.000000 0.000000 0.000000 0.047719 0.000000
# 6 0.000000 0.000000 0.000000 0.000000 0.000000 0.040149
#
#
# Mechanical properties :
#
#
# Convention : Reuss Voigt Hill
#
# Bulk Modulus (GPa) = 36.61495 45.07560 40.84527
# Shear Modulus (GPa) = 17.18045 22.50123 19.84084
#
# Velocity S-wave (km/s) = 3.13361 3.58617 3.36750
# Velocity P-wave (km/s) = 5.83267 6.55062 6.20204
#
# Compressibility (1/GPa) = 0.02731125
#
# Stress axis : x y z
#
# Youngs Moduli (GPa) = 34.54976 22.71272 114.44566
#
# Poissons Ratio (x) = 0.49465 0.37553
# Poissons Ratio (y) = 0.75245 0.24484
# Poissons Ratio (z) = 0.11337 0.04859
#
# Static dielectric constant tensor:
#      x y z
#    x 1.670630 0.000000 0.000000 
#    y 0.000000 1.595000 0.000000 
#    z 0.000000 0.000000 1.611100 
# 
# From -- ./inp_files/12633.got.cif
#   From: 2010.05.17/outbox.cif.g08.bks.cpg/sg72_7_cif.got.tgz:12633.got - 2010.06.03 17:03:01.
