data_PCOD9526438
_publ_section_title
;
Structure prediction by ZEFSAII (Michael W. Deem and Ramdas Pophale) SiO2 
 PCOD9526438
Probable space group: I B A M
;
_chemical_formula_sum "Si O2"
_cell_formula_units_Z 120
_cell_length_a 13.585506
_cell_length_b 14.227068
_cell_length_c 30.713895
_cell_angle_alpha 90.000000
_cell_angle_beta 90.000000
_cell_angle_gamma 90.000000
_cell_volume 5936.440525
_symmetry_space_group_name_H-M "I B A M"
_symmetry_group_IT_number 72
_symmetry_cell_setting 'orthorhombic'
loop_
_space_group_symop_operation_xyz
x,y,z
-x,-y,z
x,-y,1/2-z
-x,y,1/2-z
-x,-y,-z
x,y,-z
-x,y,1/2+z
x,-y,1/2+z
1/2+x,1/2+y,1/2+z
1/2-x,1/2-y,1/2+z
1/2+x,1/2-y,-z
1/2-x,1/2+y,-z
1/2-x,1/2-y,1/2-z
1/2+x,1/2+y,1/2-z
1/2-x,1/2+y,z
1/2+x,1/2-y,z
loop_
_atom_site_type_symbol
_atom_site_label
_atom_site_fract_x
_atom_site_fract_y
_atom_site_fract_z
Si Si1 0.000000 0.000000 0.681552
Si Si2 0.173616 0.026610 0.618824
Si Si3 0.138649 0.639336 0.048014
Si Si4 0.831616 0.752019 0.631770
Si Si5 0.371408 0.388963 0.451873
Si Si6 0.473652 0.285933 0.797964
Si Si7 0.394183 0.247153 0.618616
Si Si8 0.395347 0.028636 0.604704
O O1 0.097233 0.981815 0.652539
O O2 0.024957 0.099593 0.703941
O O3 0.160972 0.137772 0.621006
O O4 0.289432 0.004248 0.626767
O O5 0.140557 0.988260 0.572010
O O6 0.114805 0.696218 0.092491
O O7 0.257517 0.645778 0.044949
O O8 0.110001 0.532377 0.060394
O O9 0.099478 0.666091 0.000000
O O10 0.717855 0.725951 0.630114
O O11 0.874054 0.745273 0.680517
O O12 0.413442 0.393311 0.500000
O O13 0.425985 0.318905 0.419100
O O14 0.500000 0.250794 0.750000
O O15 0.547468 0.256360 0.836583
O O16 0.394656 0.140796 0.600713
O O17 0.500000 0.000000 0.626093
#
# Coordination Sequence:
#
# PCOD9526438 Si02
#       8
#     8  16  16  16  16  16  16  16
#     4  10  19  38  61  84 114 142 197 244 305 346
#     4   9  18  34  58  83 114 151 189 242 290 350
#     4   9  18  33  55  84 117 156 197 234 277 335
#     4   9  20  36  58  84 118 154 190 237 292 347
#     4   9  17  32  55  83 116 154 193 234 282 342
#     4  11  22  37  61  86 112 146 192 248 297 350
#     4  10  20  37  57  83 118 158 190 236 293 345
#     4  10  20  34  56  82 113 156 198 232 286 341
#
# _framework density 20.214134000000001
#
# number of rings (size 3 to 8) (size 9 to 14) (size 15 to 20)
#    0.000    2.400    1.333    1.000    0.000    1.867 
#    0.000    7.667    0.000    3.600    0.000    0.000 
#    0.000    0.000    0.000    0.000    0.000    0.000 
#
# Total GULP energy -334144.831479 kJ/mol
# GULP energy per Si atom -5569.080525 kJ/mol
# Density = 2.016813 g / cm^3
# Si number density = 20.214134 Si / 1000 Ang^3
#
#
#
# Elastic Constant Matrix: (Units=GPa)
#
#
# Indices 1 2 3 4 5 6 
#
# 1 81.5258 -5.2116 16.7220 0.0000 0.0000 0.0000
# 2 -5.2116 43.3109 21.2929 0.0000 0.0000 0.0000
# 3 16.7220 21.2929 138.0014 0.0000 0.0000 0.0000
# 4 0.0000 0.0000 0.0000 13.6978 0.0000 0.0000
# 5 0.0000 0.0000 0.0000 0.0000 18.3782 0.0000
# 6 0.0000 0.0000 0.0000 0.0000 0.0000 18.6289
#
#
#
# Elastic Compliance Matrix: (Units=1/GPa)
#
#
# Indices 1 2 3 4 5 6 
#
# 1 0.012823 0.002496 -0.001939 0.000000 0.000000 0.000000
# 2 0.002496 0.025470 -0.004232 0.000000 0.000000 0.000000
# 3 -0.001939 -0.004232 0.008134 0.000000 0.000000 0.000000
# 4 0.000000 0.000000 0.000000 0.073004 0.000000 0.000000
# 5 0.000000 0.000000 0.000000 0.000000 0.054412 0.000000
# 6 0.000000 0.000000 0.000000 0.000000 0.000000 0.053680
#
#
# Mechanical properties :
#
#
# Convention : Reuss Voigt Hill
#
# Bulk Modulus (GPa) = 25.59019 36.49387 31.04203
# Shear Modulus (GPa) = 20.16940 25.47663 22.82302
#
# Velocity S-wave (km/s) = 3.16220 3.55397 3.36380
# Velocity P-wave (km/s) = 5.10096 5.91048 5.52058
#
# Compressibility (1/GPa) = 0.03907747
#
# Stress axis : x y z
#
# Youngs Moduli (GPa) = 77.98272 39.26186 122.93631
#
# Poissons Ratio (x) = -0.09801 0.23837
# Poissons Ratio (y) = -0.19467 0.52031
# Poissons Ratio (z) = 0.15121 0.16617
#
# Static dielectric constant tensor:
#      x y z
#    x 1.812210 0.000000 0.000000 
#    y 0.000000 1.737710 0.000000 
#    z 0.000000 0.000000 1.698560 
# 
# From -- ./inp_files/51891.got.cif
#   From: 2010.05.17/outbox.cif.g08.bks.cpg/sg72_26_cif.got.tgz:51891.got - 2010.06.03 17:03:01.
