data_PCOD9526807
_publ_section_title
;
Structure prediction by ZEFSAII (Michael W. Deem and Ramdas Pophale) SiO2 
 PCOD9526807
Probable space group: I B A M
;
_chemical_formula_sum "Si O2"
_cell_formula_units_Z 60
_cell_length_a 8.166737
_cell_length_b 14.349098
_cell_length_c 23.350962
_cell_angle_alpha 90.000000
_cell_angle_beta 90.000000
_cell_angle_gamma 90.000000
_cell_volume 2736.389710
_symmetry_space_group_name_H-M "I B A M"
_symmetry_group_IT_number 72
_symmetry_cell_setting 'orthorhombic'
loop_
_space_group_symop_operation_xyz
x,y,z
-x,-y,z
x,-y,1/2-z
-x,y,1/2-z
-x,-y,-z
x,y,-z
-x,y,1/2+z
x,-y,1/2+z
1/2+x,1/2+y,1/2+z
1/2-x,1/2-y,1/2+z
1/2+x,1/2-y,-z
1/2-x,1/2+y,-z
1/2-x,1/2-y,1/2-z
1/2+x,1/2+y,1/2-z
1/2-x,1/2+y,z
1/2+x,1/2-y,z
loop_
_atom_site_type_symbol
_atom_site_label
_atom_site_fract_x
_atom_site_fract_y
_atom_site_fract_z
Si Si1 0.000000 0.000000 0.400078
Si Si2 0.824885 0.102870 0.000000
Si Si3 0.351509 0.275885 0.500000
Si Si4 0.053108 0.330067 0.189841
Si Si5 0.221175 0.165325 0.125250
Si Si6 0.000000 0.500000 0.750000
O O1 0.913100 0.083924 0.366626
O O2 0.137284 0.042652 0.443564
O O3 0.661586 0.163852 0.000000
O O4 0.966226 0.182381 0.000000
O O5 0.272016 0.315242 0.557732
O O6 0.895547 0.355476 0.152189
O O7 0.000000 0.281916 0.250000
O O8 0.165133 0.261578 0.154712
O O9 0.112132 0.430271 0.212893
#
# Coordination Sequence:
#
# PCOD9526807 Si02
#       6
#     8   8   8  16  16   4
#     4   9  20  34  57  94 126 166 203 259 306 398
#     4   9  18  36  54  87 132 159 216 252 308 382
#     4  10  20  34  62  94 120 168 204 258 316 386
#     4  10  23  43  63  89 124 167 214 273 314 374
#     4  11  21  40  66  91 131 167 215 261 331 384
#     4   8  24  40  60  86 120 156 220 282 310 362
#
# _framework density 21.9267
#
# number of rings (size 3 to 8) (size 9 to 14) (size 15 to 20)
#    0.800    1.333    0.000    4.800    0.000    4.267 
#    0.000    0.000    0.000   14.400    0.000    0.000 
#    0.000    0.000    0.000    0.000    0.000    0.000 
#
# Total GULP energy -167339.529075 kJ/mol
# GULP energy per Si atom -5577.984302 kJ/mol
# Density = 2.187679 g / cm^3
# Si number density = 21.926700 Si / 1000 Ang^3
#
#
#
# Elastic Constant Matrix: (Units=GPa)
#
#
# Indices 1 2 3 4 5 6 
#
# 1 21.4056 24.1453 16.0822 0.0000 0.0000 0.0000
# 2 24.1453 141.9279 21.8925 0.0000 0.0000 0.0000
# 3 16.0822 21.8925 97.7046 0.0000 0.0000 0.0000
# 4 0.0000 0.0000 0.0000 28.3625 0.0000 0.0000
# 5 0.0000 0.0000 0.0000 0.0000 0.0399 0.0000
# 6 0.0000 0.0000 0.0000 0.0000 0.0000 30.2642
#
#
#
# Elastic Compliance Matrix: (Units=1/GPa)
#
#
# Indices 1 2 3 4 5 6 
#
# 1 0.063780 -0.009562 -0.008356 0.000000 0.000000 0.000000
# 2 -0.009562 0.008731 -0.000383 0.000000 0.000000 0.000000
# 3 -0.008356 -0.000383 0.011696 0.000000 0.000000 0.000000
# 4 0.000000 0.000000 0.000000 0.035258 0.000000 0.000000
# 5 0.000000 0.000000 0.000000 0.000000 25.077750 0.000000
# 6 0.000000 0.000000 0.000000 0.000000 0.000000 0.033042
#
#
# Mechanical properties :
#
#
# Convention : Reuss Voigt Hill
#
# Bulk Modulus (GPa) = 21.00511 42.80867 31.90689
# Shear Modulus (GPa) = 0.19776 24.99453 12.59615
#
# Velocity S-wave (km/s) = 0.30065 3.37992 2.39940
# Velocity P-wave (km/s) = 3.11785 5.89896 4.71799
#
# Compressibility (1/GPa) = 0.04760746
#
# Stress axis : x y z
#
# Youngs Moduli (GPa) = 15.67896 114.52791 85.49914
#
# Poissons Ratio (x) = 1.09506 0.71441
# Poissons Ratio (y) = 0.14992 0.03271
# Poissons Ratio (z) = 0.13101 0.04382
#
# Static dielectric constant tensor:
#      x y z
#    x 1.816570 0.000000 0.000000 
#    y 0.000000 1.840610 0.000000 
#    z 0.000000 0.000000 1.828120 
# 
# From -- ./inp_files/37729.got.cif
#   From: 2010.05.17/outbox.cif.g08.bks.cpg/sg72_19_cif.got.tgz:37729.got - 2010.06.03 17:03:01.
