data_PCOD9526849
_publ_section_title
;
Structure prediction by ZEFSAII (Michael W. Deem and Ramdas Pophale) SiO2 
 PCOD9526849
Probable space group: I B A M
;
_chemical_formula_sum "Si O2"
_cell_formula_units_Z 96
_cell_length_a 24.256160
_cell_length_b 25.887388
_cell_length_c 8.668446
_cell_angle_alpha 90.000000
_cell_angle_beta 90.000000
_cell_angle_gamma 90.000000
_cell_volume 5443.165380
_symmetry_space_group_name_H-M "I B A M"
_symmetry_group_IT_number 72
_symmetry_cell_setting 'orthorhombic'
loop_
_space_group_symop_operation_xyz
x,y,z
-x,-y,z
x,-y,1/2-z
-x,y,1/2-z
-x,-y,-z
x,y,-z
-x,y,1/2+z
x,-y,1/2+z
1/2+x,1/2+y,1/2+z
1/2-x,1/2-y,1/2+z
1/2+x,1/2-y,-z
1/2-x,1/2+y,-z
1/2-x,1/2-y,1/2-z
1/2+x,1/2+y,1/2-z
1/2-x,1/2+y,z
1/2+x,1/2-y,z
loop_
_atom_site_type_symbol
_atom_site_label
_atom_site_fract_x
_atom_site_fract_y
_atom_site_fract_z
Si Si1 0.939333 0.056517 0.685507
Si Si2 0.868613 0.845366 0.186222
Si Si3 0.368695 0.851732 0.313844
Si Si4 0.249239 0.691800 0.813640
Si Si5 0.061427 0.750064 0.184585
Si Si6 0.440163 0.942826 0.816050
O O1 0.942268 0.054214 0.500000
O O2 0.895902 0.100389 0.732198
O O3 0.000000 0.070008 0.750000
O O4 0.925176 0.000000 0.750000
O O5 0.805347 0.836884 0.234324
O O6 0.904827 0.798657 0.251636
O O7 0.870500 0.842854 0.000000
O O8 0.369933 0.857680 0.500000
O O9 0.306378 0.837745 0.266264
O O10 0.406530 0.802428 0.273042
O O11 0.394442 0.902259 0.237704
O O12 0.250000 0.750000 0.750000
O O13 0.248409 0.694912 0.000000
O O14 0.000000 0.749757 0.250000
O O15 0.059525 0.753187 0.000000
O O16 0.500000 0.926383 0.750000
O O17 0.429248 0.000000 0.750000
O O18 0.443486 0.945153 0.000000
#
# Coordination Sequence:
#
# PCOD9526849 Si02
#       6
#    16  16  16  16  16  16
#     4  10  20  35  55  80 107 142 180 223 275 326
#     4  10  21  36  56  81 111 145 183 227 278 331
#     4  10  21  37  56  82 114 148 188 231 276 330
#     4  10  20  37  58  81 112 150 188 230 275 328
#     4  11  22  34  52  80 112 146 182 227 280 332
#     4  11  22  38  61  86 114 149 187 232 284 340
#
# _framework density 17.636797000000001
#
# number of rings (size 3 to 8) (size 9 to 14) (size 15 to 20)
#    0.000    1.667    1.667    4.500    0.000    6.000 
#    0.000    0.833    0.000    2.000    0.000    0.000 
#    0.000    0.000    0.000    0.000    0.000    0.000 
#
# Total GULP energy -268156.870397 kJ/mol
# GULP energy per Si atom -5586.601467 kJ/mol
# Density = 1.759665 g / cm^3
# Si number density = 17.636797 Si / 1000 Ang^3
#
#
#
# Elastic Constant Matrix: (Units=GPa)
#
#
# Indices 1 2 3 4 5 6 
#
# 1 189.4122 107.6256 47.9062 0.0000 0.0000 0.0000
# 2 107.6256 127.8180 44.1923 0.0000 0.0000 0.0000
# 3 47.9062 44.1923 46.3321 0.0000 0.0000 0.0000
# 4 0.0000 0.0000 0.0000 30.0369 0.0000 0.0000
# 5 0.0000 0.0000 0.0000 0.0000 5.3587 0.0000
# 6 0.0000 0.0000 0.0000 0.0000 0.0000 15.7511
#
#
#
# Elastic Compliance Matrix: (Units=1/GPa)
#
#
# Indices 1 2 3 4 5 6 
#
# 1 0.010515 -0.007601 -0.003621 0.000000 0.000000 0.000000
# 2 -0.007601 0.017169 -0.008516 0.000000 0.000000 0.000000
# 3 -0.003621 -0.008516 0.033450 0.000000 0.000000 0.000000
# 4 0.000000 0.000000 0.000000 0.033292 0.000000 0.000000
# 5 0.000000 0.000000 0.000000 0.000000 0.186613 0.000000
# 6 0.000000 0.000000 0.000000 0.000000 0.000000 0.063488
#
#
# Mechanical properties :
#
#
# Convention : Reuss Voigt Hill
#
# Bulk Modulus (GPa) = 46.17677 84.77896 65.47787
# Shear Modulus (GPa) = 12.78042 21.15187 16.96615
#
# Velocity S-wave (km/s) = 2.69484 3.46685 3.10494
# Velocity P-wave (km/s) = 5.99348 8.01244 7.07534
#
# Compressibility (1/GPa) = 0.02165591
#
# Stress axis : x y z
#
# Youngs Moduli (GPa) = 95.10544 58.24601 29.89496
#
# Poissons Ratio (x) = 0.44275 0.10826
# Poissons Ratio (y) = 0.72294 0.25458
# Poissons Ratio (z) = 0.34442 0.49602
#
# Static dielectric constant tensor:
#      x y z
#    x 1.591780 0.000000 0.000000 
#    y 0.000000 1.572610 0.000000 
#    z 0.000000 0.000000 1.593530 
# 
# From -- ./inp_files/5996.got.cif
#   From: 2010.05.17/outbox.cif.g08.bks.cpg/sg72_3_cif.got.tgz:5996.got - 2010.06.03 17:03:01.
