data_PCOD9526415
_publ_section_title
;
Structure prediction by ZEFSAII (Michael W. Deem and Ramdas Pophale) SiO2 
 PCOD9526415
Probable space group: I B A M
;
_chemical_formula_sum "Si O2"
_cell_formula_units_Z 84
_cell_length_a 12.940096
_cell_length_b 11.446693
_cell_length_c 21.666603
_cell_angle_alpha 90.000000
_cell_angle_beta 90.000000
_cell_angle_gamma 90.000000
_cell_volume 3209.285539
_symmetry_space_group_name_H-M "I B A M"
_symmetry_group_IT_number 72
_symmetry_cell_setting 'orthorhombic'
loop_
_space_group_symop_operation_xyz
x,y,z
-x,-y,z
x,-y,1/2-z
-x,y,1/2-z
-x,-y,-z
x,y,-z
-x,y,1/2+z
x,-y,1/2+z
1/2+x,1/2+y,1/2+z
1/2-x,1/2-y,1/2+z
1/2+x,1/2-y,-z
1/2-x,1/2+y,-z
1/2-x,1/2-y,1/2-z
1/2+x,1/2+y,1/2-z
1/2-x,1/2+y,z
1/2+x,1/2-y,z
loop_
_atom_site_type_symbol
_atom_site_label
_atom_site_fract_x
_atom_site_fract_y
_atom_site_fract_z
Si Si1 0.939423 0.772375 0.500000
Si Si2 0.500000 0.000000 0.500000
Si Si3 0.774064 0.589473 0.500000
Si Si4 0.989461 0.836159 0.133889
Si Si5 0.216968 0.948862 0.631439
Si Si6 0.656071 0.780233 0.206857
Si Si7 0.093131 0.409901 0.823496
O O1 0.966896 0.839153 0.436013
O O2 0.000854 0.647723 0.500000
O O3 0.821288 0.721351 0.500000
O O4 0.624701 0.008085 0.500000
O O5 0.709096 0.556895 0.441036
O O6 0.899986 0.927053 0.152821
O O7 0.080692 0.819796 0.183894
O O8 0.934729 0.709202 0.141523
O O9 0.292201 0.840463 0.648505
O O10 0.291900 0.049903 0.656437
O O11 0.750000 0.750000 0.250000
O O12 0.601189 0.875895 0.250946
O O13 0.000000 0.500000 0.842040
#
# Coordination Sequence:
#
# PCOD9526415 Si02
#       7
#     8   4   8  16  16  16  16
#     4  10  19  37  64  98 144 180 230 300 362 408
#     4   8  16  32  64 104 130 172 256 302 332 416
#     4  10  19  39  64 104 139 185 234 303 356 421
#     4  12  25  42  68 106 143 187 235 306 359 443
#     4  12  25  39  68 104 142 182 239 297 372 425
#     4  12  25  44  68 100 139 183 238 297 361 432
#     4  12  25  42  71 100 132 185 241 298 358 428
#
# _framework density 26.174050999999999
#
# number of rings (size 3 to 8) (size 9 to 14) (size 15 to 20)
#    0.571    0.000    5.714    2.857    5.333    0.000 
#    0.000    0.952    0.000    2.286    0.000    4.000 
#    0.000    0.000    0.000    1.810    0.000    0.000 
#
# Total GULP energy -234343.765462 kJ/mol
# GULP energy per Si atom -5579.613463 kJ/mol
# Density = 2.611448 g / cm^3
# Si number density = 26.174051 Si / 1000 Ang^3
#
#
#
# Elastic Constant Matrix: (Units=GPa)
#
#
# Indices 1 2 3 4 5 6 
#
# 1 211.1995 57.7173 43.1111 0.0000 0.0000 0.0000
# 2 57.7173 97.9154 26.8052 0.0000 0.0000 0.0000
# 3 43.1111 26.8052 141.8259 0.0000 0.0000 0.0000
# 4 0.0000 0.0000 0.0000 45.0994 0.0000 0.0000
# 5 0.0000 0.0000 0.0000 0.0000 -193.3075 0.0000
# 6 0.0000 0.0000 0.0000 0.0000 0.0000 37.8357
#
#
#
# Elastic Compliance Matrix: (Units=1/GPa)
#
#
# Indices 1 2 3 4 5 6 
#
# 1 0.005826 -0.003111 -0.001183 0.000000 0.000000 0.000000
# 2 -0.003111 0.012431 -0.001404 0.000000 0.000000 0.000000
# 3 -0.001183 -0.001404 0.007676 0.000000 0.000000 0.000000
# 4 0.000000 0.000000 0.000000 0.022173 0.000000 0.000000
# 5 0.000000 0.000000 0.000000 0.000000 -0.005173 0.000000
# 6 0.000000 0.000000 0.000000 0.000000 0.000000 0.026430
#
#
# Mechanical properties :
#
#
# Convention : Reuss Voigt Hill
#
# Bulk Modulus (GPa) = 68.78606 78.46757 73.62682
# Shear Modulus (GPa) = 58.40815 -0.52065 28.94375
#
# Velocity S-wave (km/s) = 4.72903 -0.44648 3.32899
# Velocity P-wave (km/s) = 7.49370 5.45696 6.55492
#
# Compressibility (1/GPa) = 0.01453783
#
# Stress axis : x y z
#
# Youngs Moduli (GPa) = 171.63150 80.44552 130.27808
#
# Poissons Ratio (x) = 0.25023 0.15414
# Poissons Ratio (y) = 0.53387 0.18290
# Poissons Ratio (z) = 0.20307 0.11294
#
# Static dielectric constant tensor:
#      x y z
#    x 2.101870 0.000000 0.000000 
#    y 0.000000 2.234110 0.000000 
#    z 0.000000 0.000000 2.135110 
# 
# From -- ./inp_files/44265.got.cif
#   From: 2010.05.17/outbox.cif.g08.bks.cpg/sg72_23_cif.got.tgz:44265.got - 2010.06.03 17:03:01.
