data_PCOD9526179
_publ_section_title
;
Structure prediction by ZEFSAII (Michael W. Deem and Ramdas Pophale) SiO2 
 PCOD9526179
Probable space group: I B A M
;
_chemical_formula_sum "Si O2"
_cell_formula_units_Z 104
_cell_length_a 30.238926
_cell_length_b 7.915742
_cell_length_c 20.956354
_cell_angle_alpha 90.000000
_cell_angle_beta 90.000000
_cell_angle_gamma 90.000000
_cell_volume 5016.187007
_symmetry_space_group_name_H-M "I B A M"
_symmetry_group_IT_number 72
_symmetry_cell_setting 'orthorhombic'
loop_
_space_group_symop_operation_xyz
x,y,z
-x,-y,z
x,-y,1/2-z
-x,y,1/2-z
-x,-y,-z
x,y,-z
-x,y,1/2+z
x,-y,1/2+z
1/2+x,1/2+y,1/2+z
1/2-x,1/2-y,1/2+z
1/2+x,1/2-y,-z
1/2-x,1/2+y,-z
1/2-x,1/2-y,1/2-z
1/2+x,1/2+y,1/2-z
1/2-x,1/2+y,z
1/2+x,1/2-y,z
loop_
_atom_site_type_symbol
_atom_site_label
_atom_site_fract_x
_atom_site_fract_y
_atom_site_fract_z
Si Si1 0.887789 0.538602 0.385962
Si Si2 0.973284 0.676618 0.433597
Si Si3 0.067674 0.500000 0.250000
Si Si4 0.793296 0.353860 0.926661
Si Si5 0.301040 0.547187 0.927325
Si Si6 0.602306 0.656651 0.424510
Si Si7 0.972571 0.167256 0.322780
O O1 0.920752 0.661283 0.424366
O O2 0.903968 0.541709 0.312904
O O3 0.836126 0.573717 0.392129
O O4 0.897785 0.358975 0.418453
O O5 0.982905 0.769759 0.500000
O O6 0.000000 0.500000 0.438098
O O7 0.993308 0.745809 0.370038
O O8 0.043703 0.679054 0.274488
O O9 0.745119 0.392098 0.897601
O O10 0.798901 0.153728 0.929201
O O11 0.793838 0.420734 0.000000
O O12 0.348867 0.599074 0.902564
O O13 0.300452 0.616557 0.000000
O O14 0.595017 0.609959 0.500000
O O15 0.567284 0.606334 0.369890
O O16 0.000000 0.000000 0.305432
#
# Coordination Sequence:
#
# PCOD9526179 Si02
#       7
#    16  16   8  16  16  16  16
#     4  11  22  37  63  84 125 172 217 265 315 378
#     4  11  21  37  63  95 128 167 205 254 331 405
#     4  10  24  47  66  88 128 172 238 274 321 376
#     4  10  19  34  58  91 124 162 203 256 329 395
#     4   9  19  33  57  92 131 160 196 252 323 408
#     4  10  19  35  60  95 134 166 203 261 331 402
#     4  11  25  42  68  94 128 175 223 278 329 383
#
# _framework density 20.732879000000001
#
# number of rings (size 3 to 8) (size 9 to 14) (size 15 to 20)
#    0.000    1.692    3.077    2.769    2.154    4.923 
#    0.000    1.538    3.385    8.308    0.000    0.000 
#    0.000    0.923    0.000    0.000    0.000    0.000 
#
# Total GULP energy -289598.385968 kJ/mol
# GULP energy per Si atom -5569.199730 kJ/mol
# Density = 2.068569 g / cm^3
# Si number density = 20.732879 Si / 1000 Ang^3
#
#
#
# Elastic Constant Matrix: (Units=GPa)
#
#
# Indices 1 2 3 4 5 6 
#
# 1 187.1374 34.7406 55.0733 0.0000 0.0000 0.0000
# 2 34.7406 72.8077 39.8526 0.0000 0.0000 0.0000
# 3 55.0733 39.8526 120.8047 0.0000 0.0000 0.0000
# 4 0.0000 0.0000 0.0000 3.5839 0.0000 0.0000
# 5 0.0000 0.0000 0.0000 0.0000 21.9013 0.0000
# 6 0.0000 0.0000 0.0000 0.0000 0.0000 38.9416
#
#
#
# Elastic Compliance Matrix: (Units=1/GPa)
#
#
# Indices 1 2 3 4 5 6 
#
# 1 0.006352 -0.001764 -0.002314 0.000000 0.000000 0.000000
# 2 -0.001764 0.017252 -0.004887 0.000000 0.000000 0.000000
# 3 -0.002314 -0.004887 0.010945 0.000000 0.000000 0.000000
# 4 0.000000 0.000000 0.000000 0.279028 0.000000 0.000000
# 5 0.000000 0.000000 0.000000 0.000000 0.045659 0.000000
# 6 0.000000 0.000000 0.000000 0.000000 0.000000 0.025679
#
#
# Mechanical properties :
#
#
# Convention : Reuss Voigt Hill
#
# Bulk Modulus (GPa) = 60.17407 71.12031 65.64719
# Shear Modulus (GPa) = 12.24336 29.62424 20.93380
#
# Velocity S-wave (km/s) = 2.43272 3.78412 3.18101
# Velocity P-wave (km/s) = 6.08090 7.31234 6.72487
#
# Compressibility (1/GPa) = 0.01661846
#
# Stress axis : x y z
#
# Youngs Moduli (GPa) = 157.42675 57.96562 91.36790
#
# Poissons Ratio (x) = 0.10228 0.21141
# Poissons Ratio (y) = 0.27778 0.44649
# Poissons Ratio (z) = 0.36425 0.28327
#
# Static dielectric constant tensor:
#      x y z
#    x 1.796440 0.000000 0.000000 
#    y 0.000000 1.753840 0.000000 
#    z 0.000000 0.000000 1.805060 
# 
# From -- ./inp_files/41057.got.cif
#   From: 2010.05.17/outbox.cif.g08.bks.cpg/sg72_21_cif.got.tgz:41057.got - 2010.06.03 17:03:01.
