data_PCOD9526819
_publ_section_title
;
Structure prediction by ZEFSAII (Michael W. Deem and Ramdas Pophale) SiO2 
 PCOD9526819
Probable space group: I B A M
;
_chemical_formula_sum "Si O2"
_cell_formula_units_Z 96
_cell_length_a 24.839155
_cell_length_b 24.789539
_cell_length_c 8.072436
_cell_angle_alpha 90.000000
_cell_angle_beta 90.000000
_cell_angle_gamma 90.000000
_cell_volume 4970.612167
_symmetry_space_group_name_H-M "I B A M"
_symmetry_group_IT_number 72
_symmetry_cell_setting 'orthorhombic'
loop_
_space_group_symop_operation_xyz
x,y,z
-x,-y,z
x,-y,1/2-z
-x,y,1/2-z
-x,-y,-z
x,y,-z
-x,y,1/2+z
x,-y,1/2+z
1/2+x,1/2+y,1/2+z
1/2-x,1/2-y,1/2+z
1/2+x,1/2-y,-z
1/2-x,1/2+y,-z
1/2-x,1/2-y,1/2-z
1/2+x,1/2+y,1/2-z
1/2-x,1/2+y,z
1/2+x,1/2-y,z
loop_
_atom_site_type_symbol
_atom_site_label
_atom_site_fract_x
_atom_site_fract_y
_atom_site_fract_z
Si Si1 0.645110 0.940514 0.300329
Si Si2 0.854919 0.143638 0.188009
Si Si3 0.769040 0.060472 0.200723
Si Si4 0.440311 0.561768 0.197646
Si Si5 0.059717 0.647125 0.700229
Si Si6 0.059789 0.769900 0.303530
O O1 0.646387 0.938077 0.500000
O O2 0.707030 0.934913 0.242969
O O3 0.605584 0.893659 0.239676
O O4 0.625985 0.000000 0.250000
O O5 0.803468 0.111906 0.263434
O O6 0.898715 0.096371 0.199704
O O7 0.888560 0.193638 0.260677
O O8 0.841188 0.158145 0.000000
O O9 0.788561 0.000000 0.250000
O O10 0.771142 0.062053 0.000000
O O11 0.434438 0.500000 0.250000
O O12 0.500000 0.578459 0.250000
O O13 0.432792 0.568520 0.000000
O O14 0.062483 0.648419 0.500000
O O15 0.066259 0.708714 0.762269
O O16 0.000000 0.628855 0.750000
O O17 0.057305 0.767556 0.500000
O O18 0.000000 0.789823 0.250000
#
# Coordination Sequence:
#
# PCOD9526819 Si02
#       6
#    16  16  16  16  16  16
#     4   9  18  35  56  80 107 137 168 204 249 302
#     4  11  21  33  49  71  97 131 172 214 255 302
#     4   9  19  34  53  74 101 135 172 211 255 301
#     4  11  21  33  47  66  93 125 162 210 262 311
#     4   9  19  35  56  79 107 137 168 205 251 303
#     4  10  20  35  53  74 100 135 173 214 258 304
#
# _framework density 19.313517000000001
#
# number of rings (size 3 to 8) (size 9 to 14) (size 15 to 20)
#    0.000    2.167    0.000    4.000    0.000    4.333 
#    0.000    2.500    0.000    0.000    0.000    0.000 
#    0.000    0.000    0.000    0.000    0.000    0.000 
#
# Total GULP energy -267586.015260 kJ/mol
# GULP energy per Si atom -5574.708651 kJ/mol
# Density = 1.926956 g / cm^3
# Si number density = 19.313517 Si / 1000 Ang^3
#
#
#
# Elastic Constant Matrix: (Units=GPa)
#
#
# Indices 1 2 3 4 5 6 
#
# 1 95.0888 70.7726 0.0634 0.0000 0.0000 0.0000
# 2 70.7726 111.2547 4.6841 0.0000 0.0000 0.0000
# 3 0.0634 4.6841 31.3922 0.0000 0.0000 0.0000
# 4 0.0000 0.0000 0.0000 21.6408 0.0000 0.0000
# 5 0.0000 0.0000 0.0000 0.0000 19.0800 0.0000
# 6 0.0000 0.0000 0.0000 0.0000 0.0000 36.0598
#
#
#
# Elastic Compliance Matrix: (Units=1/GPa)
#
#
# Indices 1 2 3 4 5 6 
#
# 1 0.020082 -0.012854 0.001877 0.000000 0.000000 0.000000
# 2 -0.012854 0.017273 -0.002551 0.000000 0.000000 0.000000
# 3 0.001877 -0.002551 0.032232 0.000000 0.000000 0.000000
# 4 0.000000 0.000000 0.000000 0.046209 0.000000 0.000000
# 5 0.000000 0.000000 0.000000 0.000000 0.052411 0.000000
# 6 0.000000 0.000000 0.000000 0.000000 0.000000 0.027732
#
#
# Mechanical properties :
#
#
# Convention : Reuss Voigt Hill
#
# Bulk Modulus (GPa) = 23.51227 43.19730 33.35478
# Shear Modulus (GPa) = 21.08185 26.17050 23.62618
#
# Velocity S-wave (km/s) = 3.30746 3.68507 3.50136
# Velocity P-wave (km/s) = 5.17553 6.36563 5.80118
#
# Compressibility (1/GPa) = 0.04253099
#
# Stress axis : x y z
#
# Youngs Moduli (GPa) = 49.79556 57.89530 31.02513
#
# Poissons Ratio (x) = 0.74418 -0.05825
# Poissons Ratio (y) = 0.64007 0.07915
# Poissons Ratio (z) = -0.09348 0.14771
#
# Static dielectric constant tensor:
#      x y z
#    x 1.686950 0.000000 0.000000 
#    y 0.000000 1.694820 0.000000 
#    z 0.000000 0.000000 1.701250 
# 
# From -- ./inp_files/7107.got.cif
#   From: 2010.05.17/outbox.cif.g08.bks.cpg/sg72_4_cif.got.tgz:7107.got - 2010.06.03 17:03:01.
