data_PCOD9526199
_publ_section_title
;
Structure prediction by ZEFSAII (Michael W. Deem and Ramdas Pophale) SiO2 
 PCOD9526199
Probable space group: I B A M
;
_chemical_formula_sum "Si O2"
_cell_formula_units_Z 116
_cell_length_a 17.577954
_cell_length_b 11.705896
_cell_length_c 31.460944
_cell_angle_alpha 90.000000
_cell_angle_beta 90.000000
_cell_angle_gamma 90.000000
_cell_volume 6473.583209
_symmetry_space_group_name_H-M "I B A M"
_symmetry_group_IT_number 72
_symmetry_cell_setting 'orthorhombic'
loop_
_space_group_symop_operation_xyz
x,y,z
-x,-y,z
x,-y,1/2-z
-x,y,1/2-z
-x,-y,-z
x,y,-z
-x,y,1/2+z
x,-y,1/2+z
1/2+x,1/2+y,1/2+z
1/2-x,1/2-y,1/2+z
1/2+x,1/2-y,-z
1/2-x,1/2+y,-z
1/2-x,1/2-y,1/2-z
1/2+x,1/2+y,1/2-z
1/2-x,1/2+y,z
1/2+x,1/2-y,z
loop_
_atom_site_type_symbol
_atom_site_label
_atom_site_fract_x
_atom_site_fract_y
_atom_site_fract_z
Si Si1 0.533743 0.624571 0.296043
Si Si2 0.828632 0.594025 0.616581
Si Si3 0.130382 0.335359 0.097073
Si Si4 0.389507 0.457694 0.079144
Si Si5 0.231285 0.773880 0.951080
Si Si6 0.172594 0.128598 0.151812
Si Si7 0.500000 0.500000 0.500000
Si Si8 0.972952 0.251256 0.876143
O O1 0.500000 0.500000 0.306096
O O2 0.500000 0.653721 0.250000
O O3 0.624206 0.615555 0.305127
O O4 0.505105 0.713667 0.330834
O O5 0.853204 0.467290 0.604742
O O6 0.794803 0.665011 0.576535
O O7 0.760657 0.594362 0.650972
O O8 0.902796 0.664137 0.629828
O O9 0.179483 0.294805 0.056814
O O10 0.165441 0.258578 0.135262
O O11 0.041230 0.307332 0.096927
O O12 0.314555 0.385209 0.065704
O O13 0.367582 0.551963 0.114535
O O14 0.433344 0.502596 0.037793
O O15 0.443308 0.362342 0.100692
O O16 0.212927 0.756470 0.000000
#
# Coordination Sequence:
#
# PCOD9526199 Si02
#       8
#    16  16  16  16  16  16   4  16
#     4  10  19  34  61  92 121 149 186 246 299 352
#     4  10  21  37  60  80 115 161 196 237 297 357
#     4  10  20  36  55  84 107 158 206 231 292 357
#     4  11  20  36  54  84 115 147 193 251 295 335
#     4  10  21  38  54  79 117 157 197 253 300 337
#     4  10  20  37  59  86 115 149 195 243 294 361
#     4  12  20  28  56  80 108 142 188 246 286 334
#     4  10  21  38  59  83 118 151 196 242 292 359
#
# _framework density 17.918980000000001
#
# number of rings (size 3 to 8) (size 9 to 14) (size 15 to 20)
#    0.000    1.793    3.448    2.069    0.000    0.552 
#   11.172    0.690    0.000   10.759    0.000    0.000 
#    0.000    0.000    0.000    0.000    0.000    0.000 
#
# Total GULP energy -322912.004043 kJ/mol
# GULP energy per Si atom -5567.448346 kJ/mol
# Density = 1.787820 g / cm^3
# Si number density = 17.918980 Si / 1000 Ang^3
#
#
#
# Elastic Constant Matrix: (Units=GPa)
#
#
# Indices 1 2 3 4 5 6 
#
# 1 131.3355 31.2841 41.5537 0.0000 0.0000 0.0000
# 2 31.2841 94.8173 24.5501 0.0000 0.0000 0.0000
# 3 41.5537 24.5501 77.2034 0.0000 0.0000 0.0000
# 4 0.0000 0.0000 0.0000 8.7368 0.0000 0.0000
# 5 0.0000 0.0000 0.0000 0.0000 21.0652 0.0000
# 6 0.0000 0.0000 0.0000 0.0000 0.0000 7.9393
#
#
#
# Elastic Compliance Matrix: (Units=1/GPa)
#
#
# Indices 1 2 3 4 5 6 
#
# 1 0.009504 -0.001974 -0.004488 0.000000 0.000000 0.000000
# 2 -0.001974 0.011903 -0.002723 0.000000 0.000000 0.000000
# 3 -0.004488 -0.002723 0.016234 0.000000 0.000000 0.000000
# 4 0.000000 0.000000 0.000000 0.114458 0.000000 0.000000
# 5 0.000000 0.000000 0.000000 0.000000 0.047472 0.000000
# 6 0.000000 0.000000 0.000000 0.000000 0.000000 0.125956
#
#
# Mechanical properties :
#
#
# Convention : Reuss Voigt Hill
#
# Bulk Modulus (GPa) = 51.88739 55.34799 53.61769
# Shear Modulus (GPa) = 14.27267 21.27948 17.77608
#
# Velocity S-wave (km/s) = 2.82532 3.44981 3.15306
# Velocity P-wave (km/s) = 6.29784 6.84275 6.57594
#
# Compressibility (1/GPa) = 0.01927250
#
# Stress axis : x y z
#
# Youngs Moduli (GPa) = 105.21693 84.01396 61.59885
#
# Poissons Ratio (x) = 0.16583 0.27645
# Poissons Ratio (y) = 0.20768 0.16771
# Poissons Ratio (z) = 0.47220 0.22874
#
# Static dielectric constant tensor:
#      x y z
#    x 1.675740 0.000000 0.000000 
#    y 0.000000 1.611980 0.000000 
#    z 0.000000 0.000000 1.591950 
# 
# From -- ./inp_files/52128.got.cif
#   From: 2010.05.17/outbox.cif.g08.bks.cpg/sg72_27_cif.got.tgz:52128.got - 2010.06.03 17:03:01.
