data_PCOD9526909
_publ_section_title
;
Structure prediction by ZEFSAII (Michael W. Deem and Ramdas Pophale) SiO2 
 PCOD9526909
Probable space group: I B A M
;
_chemical_formula_sum "Si O2"
_cell_formula_units_Z 104
_cell_length_a 19.108611
_cell_length_b 14.452988
_cell_length_c 20.772452
_cell_angle_alpha 90.000000
_cell_angle_beta 90.000000
_cell_angle_gamma 90.000000
_cell_volume 5736.863619
_symmetry_space_group_name_H-M "I B A M"
_symmetry_group_IT_number 72
_symmetry_cell_setting 'orthorhombic'
loop_
_space_group_symop_operation_xyz
x,y,z
-x,-y,z
x,-y,1/2-z
-x,y,1/2-z
-x,-y,-z
x,y,-z
-x,y,1/2+z
x,-y,1/2+z
1/2+x,1/2+y,1/2+z
1/2-x,1/2-y,1/2+z
1/2+x,1/2-y,-z
1/2-x,1/2+y,-z
1/2-x,1/2-y,1/2-z
1/2+x,1/2+y,1/2-z
1/2-x,1/2+y,z
1/2+x,1/2-y,z
loop_
_atom_site_type_symbol
_atom_site_label
_atom_site_fract_x
_atom_site_fract_y
_atom_site_fract_z
Si Si1 0.378574 0.000000 0.250000
Si Si2 0.936378 0.933831 0.856414
Si Si3 0.842231 0.807455 0.770828
Si Si4 0.838098 0.918075 0.574569
Si Si5 0.724513 0.132343 0.178375
Si Si6 0.470824 0.284069 0.072979
Si Si7 0.942805 0.319351 0.196888
O O1 0.331714 0.056041 0.301199
O O2 0.422820 0.075641 0.211263
O O3 0.897968 0.877297 0.800550
O O4 0.972633 0.860390 0.904455
O O5 0.878795 0.996348 0.892348
O O6 0.000000 0.000000 0.834024
O O7 0.778390 0.860919 0.738375
O O8 0.813446 0.732651 0.822335
O O9 0.877017 0.745427 0.714782
O O10 0.821710 0.937806 0.500000
O O11 0.770242 0.891769 0.616205
O O12 0.895599 0.835748 0.575441
O O13 0.469414 0.204066 0.126186
O O14 0.483921 0.254293 0.000000
O O15 0.000000 0.292192 0.250000
#
# Coordination Sequence:
#
# PCOD9526909 Si02
#       7
#     8  16  16  16  16  16  16
#     4  10  23  36  60  80 111 146 188 240 288 314
#     4  10  20  35  57  87 118 145 186 239 296 335
#     4  10  20  35  58  85 112 147 189 239 286 336
#     4  10  20  36  55  81 118 155 185 224 283 349
#     4  10  20  37  55  80 115 149 188 232 278 338
#     4  10  20  36  58  86 120 150 181 232 297 349
#     4  11  20  38  60  86 109 145 195 239 283 340
#
# _framework density 18.128371999999999
#
# number of rings (size 3 to 8) (size 9 to 14) (size 15 to 20)
#    0.000    1.846    3.077    1.615    0.000    1.846 
#    2.769    2.308    0.000    1.846    0.000    0.000 
#    0.000    0.000    0.000    0.000    0.000    0.000 
#
# Total GULP energy -290279.600656 kJ/mol
# GULP energy per Si atom -5582.300013 kJ/mol
# Density = 1.808711 g / cm^3
# Si number density = 18.128372 Si / 1000 Ang^3
#
#
#
# Elastic Constant Matrix: (Units=GPa)
#
#
# Indices 1 2 3 4 5 6 
#
# 1 56.2758 34.1095 26.6556 0.0000 0.0000 0.0000
# 2 34.1095 93.3873 61.4927 0.0000 0.0000 0.0000
# 3 26.6556 61.4927 96.5693 0.0000 0.0000 0.0000
# 4 0.0000 0.0000 0.0000 4.4109 0.0000 0.0000
# 5 0.0000 0.0000 0.0000 0.0000 10.3178 0.0000
# 6 0.0000 0.0000 0.0000 0.0000 0.0000 32.0520
#
#
#
# Elastic Compliance Matrix: (Units=1/GPa)
#
#
# Indices 1 2 3 4 5 6 
#
# 1 0.022987 -0.007263 -0.001720 0.000000 0.000000 0.000000
# 2 -0.007263 0.020735 -0.011199 0.000000 0.000000 0.000000
# 3 -0.001720 -0.011199 0.017961 0.000000 0.000000 0.000000
# 4 0.000000 0.000000 0.000000 0.226713 0.000000 0.000000
# 5 0.000000 0.000000 0.000000 0.000000 0.096920 0.000000
# 6 0.000000 0.000000 0.000000 0.000000 0.000000 0.031199
#
#
# Mechanical properties :
#
#
# Convention : Reuss Voigt Hill
#
# Bulk Modulus (GPa) = 46.90645 54.52756 50.71701
# Shear Modulus (GPa) = 10.77621 17.62110 14.19865
#
# Velocity S-wave (km/s) = 2.44076 3.12110 2.80166
# Velocity P-wave (km/s) = 5.82012 6.56751 6.20508
#
# Compressibility (1/GPa) = 0.02131903
#
# Stress axis : x y z
#
# Youngs Moduli (GPa) = 43.50349 48.22776 55.67654
#
# Poissons Ratio (x) = 0.35030 0.09575
# Poissons Ratio (y) = 0.31598 0.62350
# Poissons Ratio (z) = 0.07482 0.54008
#
# Static dielectric constant tensor:
#      x y z
#    x 1.648110 0.000000 0.000000 
#    y 0.000000 1.626280 0.000000 
#    z 0.000000 0.000000 1.606510 
# 
# From -- ./inp_files/39066.got.cif
#   From: 2010.05.17/outbox.cif.g08.bks.cpg/sg72_20_cif.got.tgz:39066.got - 2010.06.03 17:03:01.
