data_PCOD9526770
_publ_section_title
;
Structure prediction by ZEFSAII (Michael W. Deem and Ramdas Pophale) SiO2 
 PCOD9526770
Probable space group: I B A M
;
_chemical_formula_sum "Si O2"
_cell_formula_units_Z 112
_cell_length_a 12.734998
_cell_length_b 26.912739
_cell_length_c 15.217533
_cell_angle_alpha 90.000000
_cell_angle_beta 90.000000
_cell_angle_gamma 90.000000
_cell_volume 5215.561045
_symmetry_space_group_name_H-M "I B A M"
_symmetry_group_IT_number 72
_symmetry_cell_setting 'orthorhombic'
loop_
_space_group_symop_operation_xyz
x,y,z
-x,-y,z
x,-y,1/2-z
-x,y,1/2-z
-x,-y,-z
x,y,-z
-x,y,1/2+z
x,-y,1/2+z
1/2+x,1/2+y,1/2+z
1/2-x,1/2-y,1/2+z
1/2+x,1/2-y,-z
1/2-x,1/2+y,-z
1/2-x,1/2-y,1/2-z
1/2+x,1/2+y,1/2-z
1/2-x,1/2+y,z
1/2+x,1/2-y,z
loop_
_atom_site_type_symbol
_atom_site_label
_atom_site_fract_x
_atom_site_fract_y
_atom_site_fract_z
Si Si1 0.387837 0.607388 0.803569
Si Si2 0.429801 0.843806 0.396552
Si Si3 0.879198 0.003991 0.642656
Si Si4 0.846505 0.693037 0.897733
Si Si5 0.486329 0.054866 0.354518
Si Si6 0.792195 0.802507 0.107243
Si Si7 0.750398 0.408503 0.364005
O O1 0.500000 0.601239 0.750000
O O2 0.360050 0.562578 0.871240
O O3 0.377393 0.659910 0.851723
O O4 0.297219 0.601986 0.731320
O O5 0.429460 0.832415 0.500000
O O6 0.541031 0.824240 0.358338
O O7 0.434754 0.903247 0.387540
O O8 0.322692 0.820922 0.361290
O O9 0.868513 0.000000 0.750000
O O10 0.817399 0.956577 0.604533
O O11 0.000000 0.000000 0.618666
O O12 0.808782 0.745862 0.862708
O O13 0.762550 0.647968 0.898269
O O14 0.867715 0.702570 0.000000
O O15 0.500000 0.052630 0.250000
O O16 0.368485 0.072184 0.371630
O O17 0.500000 0.000000 0.391374
O O18 0.796017 0.805533 0.000000
#
# Coordination Sequence:
#
# PCOD9526770 Si02
#       7
#    16  16  16  16  16  16  16
#     4  11  21  36  60  88 118 154 196 247 299 359
#     4   9  19  38  57  78 112 151 188 232 284 339
#     4   9  16  33  55  80 109 152 189 225 296 361
#     4   9  20  40  59  82 117 156 198 242 299 352
#     4  10  21  31  50  83 112 142 182 231 277 334
#     4  10  22  39  62  85 114 158 200 243 294 353
#     4  10  20  34  57  81 110 155 192 234 292 355
#
# _framework density 21.474198000000001
#
# number of rings (size 3 to 8) (size 9 to 14) (size 15 to 20)
#    0.000    2.286    2.857    0.857    8.000    2.000 
#    0.000    5.714    0.000    0.857    0.000    0.000 
#    0.000    0.000    0.000    0.000    0.000    0.000 
#
# Total GULP energy -311747.656519 kJ/mol
# GULP energy per Si atom -5566.922438 kJ/mol
# Density = 2.142532 g / cm^3
# Si number density = 21.474198 Si / 1000 Ang^3
#
#
#
# Elastic Constant Matrix: (Units=GPa)
#
#
# Indices 1 2 3 4 5 6 
#
# 1 65.8160 71.7966 9.7369 0.0000 0.0000 0.0000
# 2 71.7966 221.9504 16.2342 0.0000 0.0000 0.0000
# 3 9.7369 16.2342 27.2576 -0.0001 0.0000 0.0001
# 4 0.0000 0.0000 -0.0001 4.9266 0.0000 0.0000
# 5 0.0000 0.0000 0.0000 0.0000 10.7582 0.0000
# 6 0.0000 0.0000 0.0001 0.0000 0.0000 20.8901
#
#
#
# Elastic Compliance Matrix: (Units=1/GPa)
#
#
# Indices 1 2 3 4 5 6 
#
# 1 0.023912 -0.007434 -0.004114 0.000000 0.000000 0.000000
# 2 -0.007434 0.007022 -0.001527 0.000000 0.000000 0.000000
# 3 -0.004114 -0.001527 0.039066 0.000001 0.000000 0.000000
# 4 0.000000 0.000000 0.000001 0.202981 0.000000 0.000000
# 5 0.000000 0.000000 0.000000 0.000000 0.092952 0.000000
# 6 0.000000 0.000000 0.000000 0.000000 0.000000 0.047870
#
#
# Mechanical properties :
#
#
# Convention : Reuss Voigt Hill
#
# Bulk Modulus (GPa) = 22.80491 56.72881 39.76686
# Shear Modulus (GPa) = 10.99942 21.79873 16.39907
#
# Velocity S-wave (km/s) = 2.26567 3.18954 2.76645
# Velocity P-wave (km/s) = 4.18176 6.32762 5.36311
#
# Compressibility (1/GPa) = 0.04385020
#
# Stress axis : x y z
#
# Youngs Moduli (GPa) = 41.81950 142.40965 25.59784
#
# Poissons Ratio (x) = 1.05871 0.10531
# Poissons Ratio (y) = 0.31090 0.03908
# Poissons Ratio (z) = 0.17205 0.21740
#
# Static dielectric constant tensor:
#      x y z
#    x 1.779170 0.000000 0.000000 
#    y 0.000000 1.854710 0.000000 
#    z 0.000000 0.000000 1.811360 
# 
# From -- ./inp_files/37315.got.cif
#   From: 2010.05.17/outbox.cif.g08.bks.cpg/sg72_19_cif.got.tgz:37315.got - 2010.06.03 17:03:01.
