data_PCOD9526681
_publ_section_title
;
Structure prediction by ZEFSAII (Michael W. Deem and Ramdas Pophale) SiO2 
 PCOD9526681
Probable space group: I B A M
;
_chemical_formula_sum "Si O2"
_cell_formula_units_Z 128
_cell_length_a 13.822229
_cell_length_b 23.457932
_cell_length_c 20.360490
_cell_angle_alpha 90.000000
_cell_angle_beta 90.000000
_cell_angle_gamma 90.000000
_cell_volume 6601.703764
_symmetry_space_group_name_H-M "I B A M"
_symmetry_group_IT_number 72
_symmetry_cell_setting 'orthorhombic'
loop_
_space_group_symop_operation_xyz
x,y,z
-x,-y,z
x,-y,1/2-z
-x,y,1/2-z
-x,-y,-z
x,y,-z
-x,y,1/2+z
x,-y,1/2+z
1/2+x,1/2+y,1/2+z
1/2-x,1/2-y,1/2+z
1/2+x,1/2-y,-z
1/2-x,1/2+y,-z
1/2-x,1/2-y,1/2-z
1/2+x,1/2+y,1/2-z
1/2-x,1/2+y,z
1/2+x,1/2-y,z
loop_
_atom_site_type_symbol
_atom_site_label
_atom_site_fract_x
_atom_site_fract_y
_atom_site_fract_z
Si Si1 0.093980 0.961545 0.074378
Si Si2 0.661918 0.098358 0.647734
Si Si3 0.997500 0.332433 0.678838
Si Si4 0.792565 0.821714 0.077897
Si Si5 0.147771 0.236302 0.650284
Si Si6 0.989977 0.156682 0.077707
Si Si7 0.252914 0.016305 0.323720
Si Si8 0.210542 0.645774 0.706906
O O1 0.169933 0.989901 0.122572
O O2 0.056200 0.901723 0.103430
O O3 0.133143 0.953101 0.000000
O O4 0.000000 0.000000 0.069397
O O5 0.556842 0.125097 0.632151
O O6 0.737400 0.119145 0.593216
O O7 0.696451 0.130100 0.715861
O O8 0.665928 0.031056 0.659984
O O9 0.883200 0.325228 0.671707
O O10 0.000000 0.362447 0.750000
O O11 0.064777 0.276173 0.683114
O O12 0.729952 0.775176 0.117163
O O13 0.903111 0.827330 0.102090
O O14 0.792186 0.809444 0.000000
O O15 0.200430 0.189128 0.695637
O O16 0.087347 0.204656 0.594053
O O17 0.001062 0.148270 0.000000
O O18 0.279865 0.082945 0.324627
O O19 0.219534 0.000000 0.250000
#
# Coordination Sequence:
#
# PCOD9526681 Si02
#       8
#    16  16  16  16  16  16  16  16
#     4  10  20  35  55  78 107 145 186 227 273 338
#     4   9  20  36  56  81 110 145 186 227 279 336
#     4   9  20  35  53  80 109 144 184 223 273 337
#     4  10  21  36  55  78 109 148 189 232 274 331
#     4  11  20  34  56  81 112 143 181 233 281 327
#     4  10  20  34  52  77 106 142 185 222 275 334
#     4  10  20  36  57  82 112 145 184 236 283 329
#     4  10  20  36  56  83 115 143 182 231 282 334
#
# _framework density 19.388933999999999
#
# number of rings (size 3 to 8) (size 9 to 14) (size 15 to 20)
#    0.000    2.125    1.250    1.875    0.000    7.750 
#    0.000    2.500    0.000    3.750    0.000    4.375 
#    0.000    0.000    0.000    0.000    0.000    0.000 
#
# Total GULP energy -356307.582501 kJ/mol
# GULP energy per Si atom -5567.305977 kJ/mol
# Density = 1.934480 g / cm^3
# Si number density = 19.388934 Si / 1000 Ang^3
#
#
#
# Elastic Constant Matrix: (Units=GPa)
#
#
# Indices 1 2 3 4 5 6 
#
# 1 99.2694 33.7957 16.2001 0.0000 0.0000 0.0000
# 2 33.7957 104.6433 10.3326 0.0000 0.0000 0.0000
# 3 16.2001 10.3326 23.2765 0.0000 0.0000 0.0000
# 4 0.0000 0.0000 0.0000 24.9645 0.0000 0.0000
# 5 0.0000 0.0000 0.0000 0.0000 34.7243 0.0000
# 6 0.0000 0.0000 0.0000 0.0000 0.0000 19.4963
#
#
#
# Elastic Compliance Matrix: (Units=1/GPa)
#
#
# Indices 1 2 3 4 5 6 
#
# 1 0.012358 -0.003286 -0.007142 0.000000 0.000000 0.000000
# 2 -0.003286 0.010868 -0.002537 0.000000 0.000000 0.000000
# 3 -0.007142 -0.002537 0.049059 0.000000 0.000000 0.000000
# 4 0.000000 0.000000 0.000000 0.040057 0.000000 0.000000
# 5 0.000000 0.000000 0.000000 0.000000 0.028798 0.000000
# 6 0.000000 0.000000 0.000000 0.000000 0.000000 0.051292
#
#
# Mechanical properties :
#
#
# Convention : Reuss Voigt Hill
#
# Bulk Modulus (GPa) = 21.57325 38.64957 30.11141
# Shear Modulus (GPa) = 21.38449 26.96106 24.17278
#
# Velocity S-wave (km/s) = 3.32463 3.73304 3.53474
# Velocity P-wave (km/s) = 5.08805 6.20950 5.67654
#
# Compressibility (1/GPa) = 0.04635370
#
# Stress axis : x y z
#
# Youngs Moduli (GPa) = 80.92042 92.01291 20.38362
#
# Poissons Ratio (x) = 0.30234 0.14558
# Poissons Ratio (y) = 0.26589 0.05172
# Poissons Ratio (z) = 0.57795 0.23348
#
# Static dielectric constant tensor:
#      x y z
#    x 1.719130 0.000000 0.000000 
#    y 0.000000 1.748650 0.000000 
#    z 0.000000 0.000000 1.692620 
# 
# From -- ./inp_files/43668.got.cif
#   From: 2010.05.17/outbox.cif.g08.bks.cpg/sg72_22_cif.got.tgz:43668.got - 2010.06.03 17:03:01.
