data_PCOD9526693
_publ_section_title
;
Structure prediction by ZEFSAII (Michael W. Deem and Ramdas Pophale) SiO2 
 PCOD9526693
Probable space group: I B A M
;
_chemical_formula_sum "Si O2"
_cell_formula_units_Z 116
_cell_length_a 8.712795
_cell_length_b 25.238577
_cell_length_c 26.682278
_cell_angle_alpha 90.000000
_cell_angle_beta 90.000000
_cell_angle_gamma 90.000000
_cell_volume 5867.394176
_symmetry_space_group_name_H-M "I B A M"
_symmetry_group_IT_number 72
_symmetry_cell_setting 'orthorhombic'
loop_
_space_group_symop_operation_xyz
x,y,z
-x,-y,z
x,-y,1/2-z
-x,y,1/2-z
-x,-y,-z
x,y,-z
-x,y,1/2+z
x,-y,1/2+z
1/2+x,1/2+y,1/2+z
1/2-x,1/2-y,1/2+z
1/2+x,1/2-y,-z
1/2-x,1/2+y,-z
1/2-x,1/2-y,1/2-z
1/2+x,1/2+y,1/2-z
1/2-x,1/2+y,z
1/2+x,1/2-y,z
loop_
_atom_site_type_symbol
_atom_site_label
_atom_site_fract_x
_atom_site_fract_y
_atom_site_fract_z
Si Si1 0.500000 0.000000 0.000000
Si Si2 0.403724 0.824744 0.938646
Si Si3 0.735539 0.575534 0.943258
Si Si4 0.771078 0.276980 0.939809
Si Si5 0.439585 0.629649 0.090933
Si Si6 0.802891 0.535943 0.408930
Si Si7 0.479297 0.411858 0.804895
Si Si8 0.757666 0.502320 0.694336
O O1 0.579320 0.964030 0.045615
O O2 0.357603 0.883261 0.920752
O O3 0.273552 0.782236 0.923520
O O4 0.568634 0.802424 0.922231
O O5 0.402605 0.827599 0.000000
O O6 0.578870 0.608420 0.942818
O O7 0.710007 0.519276 0.917787
O O8 0.787865 0.560029 0.000000
O O9 0.630395 0.314843 0.925034
O O10 0.780663 0.275709 0.000000
O O11 0.304482 0.586429 0.086823
O O12 0.495922 0.626425 0.148299
O O13 0.854646 0.526331 0.351642
O O14 0.500000 0.386644 0.750000
O O15 0.613380 0.456598 0.804726
O O16 0.321205 0.444486 0.812483
O O17 0.826057 0.500000 0.750000
#
# Coordination Sequence:
#
# PCOD9526693 Si02
#       8
#     4  16  16  16  16  16  16  16
#     4  12  28  36  44  68 120 164 186 214 268 338
#     4   9  20  36  53  73 103 143 187 230 273 315
#     4  11  21  33  51  75 109 145 182 221 269 332
#     4  10  20  34  53  75 105 139 184 231 269 322
#     4  11  21  31  53  81 108 141 184 223 270 333
#     4  11  23  34  49  74 114 150 185 213 273 334
#     4   8  14  27  49  77 105 130 171 229 277 317
#     4   8  14  30  52  72  99 139 186 233 262 309
#
# _framework density 19.770275999999999
#
# number of rings (size 3 to 8) (size 9 to 14) (size 15 to 20)
#    0.000    2.207    2.069    2.483    3.862    2.759 
#    0.000    0.345    0.000    0.000    0.000    4.828 
#    0.000    0.000    0.000    0.000    0.000    0.000 
#
# Total GULP energy -322998.461459 kJ/mol
# GULP energy per Si atom -5568.938991 kJ/mol
# Density = 1.972528 g / cm^3
# Si number density = 19.770276 Si / 1000 Ang^3
#
#
#
# Elastic Constant Matrix: (Units=GPa)
#
#
# Indices 1 2 3 4 5 6 
#
# 1 48.7014 -4.1247 4.4924 0.0000 0.0000 0.0000
# 2 -4.1247 66.9427 -10.2418 0.0000 0.0000 0.0000
# 3 4.4924 -10.2418 104.7449 0.0000 0.0000 0.0000
# 4 0.0000 0.0000 0.0000 11.3405 0.0000 0.0000
# 5 0.0000 0.0000 0.0000 0.0000 114.3928 0.0000
# 6 0.0000 0.0000 0.0000 0.0000 0.0000 24.9518
#
#
#
# Elastic Compliance Matrix: (Units=1/GPa)
#
#
# Indices 1 2 3 4 5 6 
#
# 1 0.020703 0.001157 -0.000775 0.000000 0.000000 0.000000
# 2 0.001157 0.015230 0.001440 0.000000 0.000000 0.000000
# 3 -0.000775 0.001440 0.009721 0.000000 0.000000 0.000000
# 4 0.000000 0.000000 0.000000 0.088180 0.000000 0.000000
# 5 0.000000 0.000000 0.000000 0.000000 0.008742 0.000000
# 6 0.000000 0.000000 0.000000 0.000000 0.000000 0.040077
#
#
# Mechanical properties :
#
#
# Convention : Reuss Voigt Hill
#
# Bulk Modulus (GPa) = 20.28518 22.29340 21.28929
# Shear Modulus (GPa) = 25.58319 45.48791 35.53555
#
# Velocity S-wave (km/s) = 3.60116 4.80189 4.24420
# Velocity P-wave (km/s) = 5.25108 6.48421 5.89995
#
# Compressibility (1/GPa) = 0.04929707
#
# Stress axis : x y z
#
# Youngs Moduli (GPa) = 48.30275 65.66123 102.87019
#
# Poissons Ratio (x) = -0.07598 0.07970
# Poissons Ratio (y) = -0.05589 -0.14808
# Poissons Ratio (z) = 0.03742 -0.09452
#
# Static dielectric constant tensor:
#      x y z
#    x 1.632640 0.000000 0.000000 
#    y 0.000000 1.632860 0.000000 
#    z 0.000000 0.000000 1.740080 
# 
# From -- ./inp_files/47716.got.cif
#   From: 2010.05.17/outbox.cif.g08.bks.cpg/sg72_24_cif.got.tgz:47716.got - 2010.06.03 17:03:01.
