data_PCOD9526881
_publ_section_title
;
Structure prediction by ZEFSAII (Michael W. Deem and Ramdas Pophale) SiO2 
 PCOD9526881
Probable space group: I B A M
;
_chemical_formula_sum "Si O2"
_cell_formula_units_Z 116
_cell_length_a 21.896469
_cell_length_b 23.934465
_cell_length_c 10.393602
_cell_angle_alpha 90.000000
_cell_angle_beta 90.000000
_cell_angle_gamma 90.000000
_cell_volume 5447.081752
_symmetry_space_group_name_H-M "I B A M"
_symmetry_group_IT_number 72
_symmetry_cell_setting 'orthorhombic'
loop_
_space_group_symop_operation_xyz
x,y,z
-x,-y,z
x,-y,1/2-z
-x,y,1/2-z
-x,-y,-z
x,y,-z
-x,y,1/2+z
x,-y,1/2+z
1/2+x,1/2+y,1/2+z
1/2-x,1/2-y,1/2+z
1/2+x,1/2-y,-z
1/2-x,1/2+y,-z
1/2-x,1/2-y,1/2-z
1/2+x,1/2+y,1/2-z
1/2-x,1/2+y,z
1/2+x,1/2-y,z
loop_
_atom_site_type_symbol
_atom_site_label
_atom_site_fract_x
_atom_site_fract_y
_atom_site_fract_z
Si Si1 0.550533 0.912860 0.647190
Si Si2 0.387291 0.433957 0.638799
Si Si3 0.688348 0.953523 0.648105
Si Si4 0.538955 0.328225 0.868123
Si Si5 0.192669 0.758560 0.845391
Si Si6 0.807274 0.890868 0.353993
Si Si7 0.399393 0.789834 0.145308
Si Si8 0.500000 0.500000 0.750000
O O1 0.500000 0.930243 0.750000
O O2 0.532069 0.925855 0.500000
O O3 0.617819 0.937950 0.670069
O O4 0.562495 0.846332 0.656821
O O5 0.362912 0.452800 0.500000
O O6 0.403129 0.368174 0.628208
O O7 0.341925 0.432886 0.758367
O O8 0.451967 0.463845 0.666674
O O9 0.694021 0.972799 0.500000
O O10 0.734607 0.901396 0.662020
O O11 0.706442 0.000000 0.750000
O O12 0.500000 0.346045 0.750000
O O13 0.557927 0.264440 0.858784
O O14 0.502892 0.337009 0.000000
O O15 0.250000 0.750000 0.750000
O O16 0.178431 0.825113 0.838333
O O17 0.142199 0.721455 0.770456
O O18 0.200240 0.745653 0.000000
O O19 0.823781 0.905648 0.500000
O O20 0.368800 0.792124 0.000000
#
# Coordination Sequence:
#
# PCOD9526881 Si02
#       8
#    16  16  16  16  16  16  16   4
#     4  10  22  41  66  95 132 168 207 257 317 383
#     4  11  24  41  62  88 120 165 218 270 322 375
#     4  10  23  44  66  92 125 164 207 262 323 385
#     4  10  20  35  56  83 116 155 199 250 305 365
#     4  11  22  36  59  90 125 167 208 255 313 380
#     4  10  23  43  65  91 126 166 211 266 328 381
#     4  10  20  37  59  87 124 163 202 253 309 372
#     4  12  26  44  60  90 134 172 218 282 336 372
#
# _framework density 21.295807
#
# number of rings (size 3 to 8) (size 9 to 14) (size 15 to 20)
#    0.000    1.655    2.069    1.862    0.966    6.897 
#    0.000    2.759    0.000    0.000    0.000    0.000 
#    0.000    0.000    0.000    0.000    0.000    0.000 
#
# Total GULP energy -323450.675827 kJ/mol
# GULP energy per Si atom -5576.735790 kJ/mol
# Density = 2.124734 g / cm^3
# Si number density = 21.295807 Si / 1000 Ang^3
#
#
#
# Elastic Constant Matrix: (Units=GPa)
#
#
# Indices 1 2 3 4 5 6 
#
# 1 71.3660 -4.9535 71.6432 0.0000 0.0000 0.0000
# 2 -4.9535 57.6389 19.4311 0.0000 0.0000 0.0000
# 3 71.6432 19.4311 184.0998 0.0000 0.0000 0.0000
# 4 0.0000 0.0000 0.0000 17.5027 0.0000 0.0000
# 5 0.0000 0.0000 0.0000 0.0000 32.9211 0.0000
# 6 0.0000 0.0000 0.0000 0.0000 0.0000 21.2903
#
#
#
# Elastic Compliance Matrix: (Units=1/GPa)
#
#
# Indices 1 2 3 4 5 6 
#
# 1 0.024589 0.005536 -0.010153 0.000000 0.000000 0.000000
# 2 0.005536 0.019236 -0.004185 0.000000 0.000000 0.000000
# 3 -0.010153 -0.004185 0.009825 0.000000 0.000000 0.000000
# 4 0.000000 0.000000 0.000000 0.057134 0.000000 0.000000
# 5 0.000000 0.000000 0.000000 0.000000 0.030376 0.000000
# 6 0.000000 0.000000 0.000000 0.000000 0.000000 0.046970
#
#
# Mechanical properties :
#
#
# Convention : Reuss Voigt Hill
#
# Bulk Modulus (GPa) = 27.74225 53.92736 40.83480
# Shear Modulus (GPa) = 22.96226 29.47508 26.21867
#
# Velocity S-wave (km/s) = 3.28724 3.72436 3.51260
# Velocity P-wave (km/s) = 5.24054 6.62363 5.97226
#
# Compressibility (1/GPa) = 0.03604610
#
# Stress axis : x y z
#
# Youngs Moduli (GPa) = 40.66800 51.98611 101.78383
#
# Poissons Ratio (x) = -0.28780 1.03345
# Poissons Ratio (y) = -0.22514 0.42593
# Poissons Ratio (z) = 0.41292 0.21755
#
# Static dielectric constant tensor:
#      x y z
#    x 1.790950 0.000000 0.000000 
#    y 0.000000 1.772600 0.000000 
#    z 0.000000 0.000000 1.819140 
# 
# From -- ./inp_files/7338.got.cif
#   From: 2010.05.17/outbox.cif.g08.bks.cpg/sg72_4_cif.got.tgz:7338.got - 2010.06.03 17:03:01.
