data_PCOD9526378
_publ_section_title
;
Structure prediction by ZEFSAII (Michael W. Deem and Ramdas Pophale) SiO2 
 PCOD9526378
Probable space group: I B A M
;
_chemical_formula_sum "Si O2"
_cell_formula_units_Z 112
_cell_length_a 17.006740
_cell_length_b 15.144956
_cell_length_c 23.581305
_cell_angle_alpha 90.000000
_cell_angle_beta 90.000000
_cell_angle_gamma 90.000000
_cell_volume 6073.750162
_symmetry_space_group_name_H-M "I B A M"
_symmetry_group_IT_number 72
_symmetry_cell_setting 'orthorhombic'
loop_
_space_group_symop_operation_xyz
x,y,z
-x,-y,z
x,-y,1/2-z
-x,y,1/2-z
-x,-y,-z
x,y,-z
-x,y,1/2+z
x,-y,1/2+z
1/2+x,1/2+y,1/2+z
1/2-x,1/2-y,1/2+z
1/2+x,1/2-y,-z
1/2-x,1/2+y,-z
1/2-x,1/2-y,1/2-z
1/2+x,1/2+y,1/2-z
1/2-x,1/2+y,z
1/2+x,1/2-y,z
loop_
_atom_site_type_symbol
_atom_site_label
_atom_site_fract_x
_atom_site_fract_y
_atom_site_fract_z
Si Si1 0.105328 0.046833 0.065775
Si Si2 0.281453 0.861135 0.836308
Si Si3 0.155104 0.275953 0.366833
Si Si4 0.909611 0.724726 0.240303
Si Si5 0.456228 0.643530 0.568922
Si Si6 0.763937 0.447404 0.120635
Si Si7 0.662601 0.407178 0.233296
O O1 0.196314 0.061397 0.074267
O O2 0.046795 0.123924 0.086132
O O3 0.084881 0.948908 0.088241
O O4 0.085791 0.040316 0.000000
O O5 0.234921 0.783489 0.869308
O O6 0.361971 0.828499 0.807605
O O7 0.222154 0.883187 0.784278
O O8 0.290805 0.951652 0.871291
O O9 0.132997 0.287249 0.300851
O O10 0.087154 0.222297 0.399054
O O11 0.170736 0.373881 0.389473
O O12 0.897769 0.827947 0.225872
O O13 0.000000 0.701151 0.250000
O O14 0.449186 0.654740 0.500000
O O15 0.716434 0.420908 0.178102
O O16 0.624130 0.500000 0.250000
#
# Coordination Sequence:
#
# PCOD9526378 Si02
#       7
#    16  16  16  16  16  16  16
#     4   9  19  35  56  83 111 140 179 232 289 343
#     4  10  19  37  50  76 111 149 185 227 273 330
#     4  11  20  34  56  79 108 148 187 228 280 330
#     4  11  22  35  51  77 115 149 187 233 274 342
#     4   9  19  36  55  82 117 142 174 233 297 342
#     4  11  19  32  60  78 104 152 188 224 269 335
#     4   9  18  32  51  75 107 141 181 226 282 328
#
# _framework density 18.440007000000001
#
# number of rings (size 3 to 8) (size 9 to 14) (size 15 to 20)
#    0.000    2.000    4.286    1.714    2.000    0.857 
#    0.000    1.429    0.000    0.000    0.000    0.000 
#    0.000    4.571    0.000    0.000    0.000    0.000 
#
# Total GULP energy -312126.004348 kJ/mol
# GULP energy per Si atom -5573.678649 kJ/mol
# Density = 1.839804 g / cm^3
# Si number density = 18.440007 Si / 1000 Ang^3
#
#
#
# Elastic Constant Matrix: (Units=GPa)
#
#
# Indices 1 2 3 4 5 6 
#
# 1 91.8800 62.8089 8.0106 0.0000 0.0000 0.0000
# 2 62.8089 113.5835 15.4995 0.0000 0.0000 0.0000
# 3 8.0106 15.4995 20.2905 0.0000 0.0000 0.0000
# 4 0.0000 0.0000 0.0000 18.1845 0.0000 0.0000
# 5 0.0000 0.0000 0.0000 0.0000 25.3368 0.0000
# 6 0.0000 0.0000 0.0000 0.0000 0.0000 28.1158
#
#
#
# Elastic Compliance Matrix: (Units=1/GPa)
#
#
# Indices 1 2 3 4 5 6 
#
# 1 0.017504 -0.009753 0.000540 0.000000 0.000000 0.000000
# 2 -0.009753 0.015263 -0.007808 0.000000 0.000000 0.000000
# 3 0.000540 -0.007808 0.055036 0.000000 0.000000 0.000000
# 4 0.000000 0.000000 0.000000 0.054992 0.000000 0.000000
# 5 0.000000 0.000000 0.000000 0.000000 0.039468 0.000000
# 6 0.000000 0.000000 0.000000 0.000000 0.000000 0.035567
#
#
# Mechanical properties :
#
#
# Convention : Reuss Voigt Hill
#
# Bulk Modulus (GPa) = 18.60158 44.26577 31.43367
# Shear Modulus (GPa) = 18.53276 23.62308 21.07792
#
# Velocity S-wave (km/s) = 3.17366 3.58310 3.38458
# Velocity P-wave (km/s) = 4.85170 6.41682 5.68834
#
# Compressibility (1/GPa) = 0.05375888
#
# Stress axis : x y z
#
# Youngs Moduli (GPa) = 57.13090 65.51937 18.16994
#
# Poissons Ratio (x) = 0.63899 -0.00980
# Poissons Ratio (y) = 0.55718 0.14188
# Poissons Ratio (z) = -0.03082 0.51161
#
# Static dielectric constant tensor:
#      x y z
#    x 1.642950 0.000000 0.000000 
#    y 0.000000 1.668480 0.000000 
#    z 0.000000 0.000000 1.662030 
# 
# From -- ./inp_files/44331.got.cif
#   From: 2010.05.17/outbox.cif.g08.bks.cpg/sg72_23_cif.got.tgz:44331.got - 2010.06.03 17:03:01.
