data_PCOD9526526
_publ_section_title
;
Structure prediction by ZEFSAII (Michael W. Deem and Ramdas Pophale) SiO2 
 PCOD9526526
Probable space group: I B A M
;
_chemical_formula_sum "Si O2"
_cell_formula_units_Z 112
_cell_length_a 16.720275
_cell_length_b 26.724897
_cell_length_c 15.365465
_cell_angle_alpha 90.000000
_cell_angle_beta 90.000000
_cell_angle_gamma 90.000000
_cell_volume 6866.021576
_symmetry_space_group_name_H-M "I B A M"
_symmetry_group_IT_number 72
_symmetry_cell_setting 'orthorhombic'
loop_
_space_group_symop_operation_xyz
x,y,z
-x,-y,z
x,-y,1/2-z
-x,y,1/2-z
-x,-y,-z
x,y,-z
-x,y,1/2+z
x,-y,1/2+z
1/2+x,1/2+y,1/2+z
1/2-x,1/2-y,1/2+z
1/2+x,1/2-y,-z
1/2-x,1/2+y,-z
1/2-x,1/2-y,1/2-z
1/2+x,1/2+y,1/2-z
1/2-x,1/2+y,z
1/2+x,1/2-y,z
loop_
_atom_site_type_symbol
_atom_site_label
_atom_site_fract_x
_atom_site_fract_y
_atom_site_fract_z
Si Si1 0.596515 0.942293 0.750178
Si Si2 0.978141 0.695030 0.155796
Si Si3 0.164575 0.626208 0.400521
Si Si4 0.582602 0.300772 0.766537
Si Si5 0.877053 0.364949 0.904281
Si Si6 0.302039 0.295571 0.896728
Si Si7 0.288867 0.692511 0.098379
O O1 0.500000 0.942859 0.750000
O O2 0.637619 0.915422 0.667772
O O3 0.616417 0.908088 0.833318
O O4 0.622945 0.000000 0.750000
O O5 0.905423 0.667628 0.109375
O O6 0.947865 0.750462 0.181673
O O7 0.000000 0.671848 0.250000
O O8 0.059643 0.681048 0.106405
O O9 0.166470 0.608339 0.500000
O O10 0.247997 0.654898 0.381830
O O11 0.500000 0.329529 0.750000
O O12 0.627532 0.291480 0.674601
O O13 0.646859 0.323903 0.831189
O O14 0.789559 0.341362 0.898531
O O15 0.891197 0.386360 0.000000
O O16 0.243351 0.248345 0.881776
O O17 0.325742 0.294077 0.000000
O O18 0.321371 0.692541 0.000000
#
# Coordination Sequence:
#
# PCOD9526526 Si02
#       7
#    16  16  16  16  16  16  16
#     4  11  23  36  50  73 105 136 179 226 261 299
#     4  11  19  30  48  72  98 133 177 211 245 293
#     4  11  20  34  55  72  99 137 176 216 256 300
#     4  11  22  31  50  70 102 141 168 211 252 300
#     4  11  21  35  55  74 102 141 179 219 256 301
#     4  10  21  34  50  74 101 134 173 215 254 302
#     4  10  20  32  49  74 101 131 171 213 255 301
#
# _framework density 16.312211999999999
#
# number of rings (size 3 to 8) (size 9 to 14) (size 15 to 20)
#    0.000    1.286    4.286    3.429    0.000    1.714 
#    0.000    3.571    0.000    0.000    0.000    0.000 
#    0.000    9.143    0.000   25.143    0.000    0.000 
#
# Total GULP energy -312024.404629 kJ/mol
# GULP energy per Si atom -5571.864368 kJ/mol
# Density = 1.627508 g / cm^3
# Si number density = 16.312212 Si / 1000 Ang^3
#
#
#
# Elastic Constant Matrix: (Units=GPa)
#
#
# Indices 1 2 3 4 5 6 
#
# 1 83.7885 9.2682 49.4633 0.0000 0.0000 0.0000
# 2 9.2682 63.1979 32.6161 0.0001 0.0000 0.0000
# 3 49.4633 32.6161 113.8535 0.0001 0.0000 0.0000
# 4 0.0000 0.0001 0.0001 -1.1175 0.0000 0.0000
# 5 0.0000 0.0000 0.0000 0.0000 3.3008 0.0000
# 6 0.0000 0.0000 0.0000 0.0000 0.0000 13.6633
#
#
#
# Elastic Compliance Matrix: (Units=1/GPa)
#
#
# Indices 1 2 3 4 5 6 
#
# 1 0.016167 0.001472 -0.007445 -0.000001 0.000000 0.000000
# 2 0.001472 0.018703 -0.005997 0.000000 0.000000 0.000000
# 3 -0.007445 -0.005997 0.013736 0.000001 0.000000 0.000000
# 4 -0.000001 0.000000 0.000001 -0.894849 -0.000010 0.000000
# 5 0.000000 0.000000 0.000000 -0.000010 0.302954 0.000000
# 6 0.000000 0.000000 0.000000 0.000000 0.000000 0.073189
#
#
# Mechanical properties :
#
#
# Convention : Reuss Voigt Hill
#
# Bulk Modulus (GPa) = 40.54523 49.28167 44.91345
# Shear Modulus (GPa) = -11.41716 14.46881 1.52582
#
# Velocity S-wave (km/s) = -2.64846 2.98147 0.96820
# Velocity P-wave (km/s) = 3.94427 6.49071 5.37060
#
# Compressibility (1/GPa) = 0.02466382
#
# Stress axis : x y z
#
# Youngs Moduli (GPa) = 61.85319 53.46856 72.80212
#
# Poissons Ratio (x) = -0.07868 0.54204
# Poissons Ratio (y) = -0.09102 0.43660
# Poissons Ratio (z) = 0.46052 0.32066
#
# Static dielectric constant tensor:
#      x y z
#    x 1.587950 0.000000 0.000000 
#    y 0.000000 1.535880 0.000000 
#    z 0.000000 0.000000 1.555570 
# 
# From -- ./inp_files/22290.got.cif
#   From: 2010.05.17/outbox.cif.g08.bks.cpg/sg72_12_cif.got.tgz:22290.got - 2010.06.03 17:03:01.
