data_PCOD9526116
_publ_section_title
;
Structure prediction by ZEFSAII (Michael W. Deem and Ramdas Pophale) SiO2 
 PCOD9526116
Probable space group: I B A M
;
_chemical_formula_sum "Si O2"
_cell_formula_units_Z 96
_cell_length_a 9.085520
_cell_length_b 31.675273
_cell_length_c 14.877119
_cell_angle_alpha 90.000000
_cell_angle_beta 90.000000
_cell_angle_gamma 90.000000
_cell_volume 4281.431424
_symmetry_space_group_name_H-M "I B A M"
_symmetry_group_IT_number 72
_symmetry_cell_setting 'orthorhombic'
loop_
_space_group_symop_operation_xyz
x,y,z
-x,-y,z
x,-y,1/2-z
-x,y,1/2-z
-x,-y,-z
x,y,-z
-x,y,1/2+z
x,-y,1/2+z
1/2+x,1/2+y,1/2+z
1/2-x,1/2-y,1/2+z
1/2+x,1/2-y,-z
1/2-x,1/2+y,-z
1/2-x,1/2-y,1/2-z
1/2+x,1/2+y,1/2-z
1/2-x,1/2+y,z
1/2+x,1/2-y,z
loop_
_atom_site_type_symbol
_atom_site_label
_atom_site_fract_x
_atom_site_fract_y
_atom_site_fract_z
Si Si1 0.415892 0.542544 0.889878
Si Si2 0.924016 0.214754 0.655627
Si Si3 0.089893 0.628260 0.610191
Si Si4 0.899363 0.292461 0.898174
Si Si5 0.924132 0.872430 0.392336
Si Si6 0.422500 0.043282 0.890142
O O1 0.500000 0.500000 0.862421
O O2 0.501173 0.584459 0.860203
O O3 0.246636 0.544053 0.860073
O O4 0.414394 0.542537 0.000000
O O5 0.993300 0.252385 0.597691
O O6 0.977806 0.168405 0.626843
O O7 0.000000 0.222562 0.750000
O O8 0.748707 0.216597 0.655837
O O9 0.093329 0.629130 0.500000
O O10 0.257614 0.632360 0.642777
O O11 0.990323 0.667763 0.637593
O O12 0.014775 0.584354 0.637333
O O13 0.848992 0.302590 0.000000
O O14 0.912684 0.876033 0.500000
O O15 0.500000 0.000000 0.862150
O O16 0.421015 0.043603 0.000000
#
# Coordination Sequence:
#
# PCOD9526116 Si02
#       6
#    16  16  16  16  16  16
#     4   9  16  26  45  76 111 146 186 235 287 338
#     4  12  25  40  58  84 116 147 185 235 291 346
#     4   9  18  31  51  79 107 140 183 229 274 329
#     4  11  22  39  61  83 110 148 193 235 282 342
#     4  10  19  34  55  79 110 148 191 235 285 347
#     4   9  15  24  40  68 108 145 176 219 279 337
#
# _framework density 22.422408999999998
#
# number of rings (size 3 to 8) (size 9 to 14) (size 15 to 20)
#    0.000    2.000    0.000    5.000    0.000    8.000 
#    0.000    0.000    0.000    0.500    0.000    0.000 
#    0.000    4.667    0.000    0.000    0.000    0.000 
#
# Total GULP energy -268522.112794 kJ/mol
# GULP energy per Si atom -5594.210683 kJ/mol
# Density = 2.237137 g / cm^3
# Si number density = 22.422409 Si / 1000 Ang^3
#
#
#
# Elastic Constant Matrix: (Units=GPa)
#
#
# Indices 1 2 3 4 5 6 
#
# 1 187.1110 97.6356 1.8941 0.0000 0.0000 0.0000
# 2 97.6356 195.3825 1.4630 0.0000 0.0000 0.0000
# 3 1.8941 1.4630 43.9453 0.0000 0.0000 0.0000
# 4 0.0000 0.0000 0.0000 60.3142 -0.0001 0.0000
# 5 0.0000 0.0000 0.0000 -0.0001 13.8152 0.0000
# 6 0.0000 0.0000 0.0000 0.0000 0.0000 45.0293
#
#
#
# Elastic Compliance Matrix: (Units=1/GPa)
#
#
# Indices 1 2 3 4 5 6 
#
# 1 0.007231 -0.003612 -0.000191 0.000000 0.000000 0.000000
# 2 -0.003612 0.006924 -0.000075 0.000000 0.000000 0.000000
# 3 -0.000191 -0.000075 0.022766 0.000000 0.000000 0.000000
# 4 0.000000 0.000000 0.000000 0.016580 0.000000 0.000000
# 5 0.000000 0.000000 0.000000 0.000000 0.072384 0.000000
# 6 0.000000 0.000000 0.000000 0.000000 0.000000 0.022208
#
#
# Mechanical properties :
#
#
# Convention : Reuss Voigt Hill
#
# Bulk Modulus (GPa) = 34.28821 69.82489 52.05655
# Shear Modulus (GPa) = 30.19848 45.52814 37.86331
#
# Velocity S-wave (km/s) = 3.67386 4.51097 4.11376
# Velocity P-wave (km/s) = 5.77247 7.63807 6.76984
#
# Compressibility (1/GPa) = 0.02916455
#
# Stress axis : x y z
#
# Youngs Moduli (GPa) = 138.29023 144.43053 43.92461
#
# Poissons Ratio (x) = 0.52170 0.00841
# Poissons Ratio (y) = 0.49952 0.00329
# Poissons Ratio (z) = 0.02647 0.01081
#
# Static dielectric constant tensor:
#      x y z
#    x 1.760480 0.000000 0.000000 
#    y 0.000000 1.803130 0.000000 
#    z 0.000000 0.000000 1.898120 
# 
# From -- ./inp_files/35991.got.cif
#   From: 2010.05.17/outbox.cif.g08.bks.cpg/sg72_18_cif.got.tgz:35991.got - 2010.06.03 17:03:01.
