data_PCOD9526102
_publ_section_title
;
Structure prediction by ZEFSAII (Michael W. Deem and Ramdas Pophale) SiO2 
 PCOD9526102
Probable space group: I B A M
;
_chemical_formula_sum "Si O2"
_cell_formula_units_Z 96
_cell_length_a 21.112984
_cell_length_b 28.333691
_cell_length_c 8.449307
_cell_angle_alpha 90.000000
_cell_angle_beta 90.000000
_cell_angle_gamma 90.000000
_cell_volume 5054.449503
_symmetry_space_group_name_H-M "I B A M"
_symmetry_group_IT_number 72
_symmetry_cell_setting 'orthorhombic'
loop_
_space_group_symop_operation_xyz
x,y,z
-x,-y,z
x,-y,1/2-z
-x,y,1/2-z
-x,-y,-z
x,y,-z
-x,y,1/2+z
x,-y,1/2+z
1/2+x,1/2+y,1/2+z
1/2-x,1/2-y,1/2+z
1/2+x,1/2-y,-z
1/2-x,1/2+y,-z
1/2-x,1/2-y,1/2-z
1/2+x,1/2+y,1/2-z
1/2-x,1/2+y,z
1/2+x,1/2-y,z
loop_
_atom_site_type_symbol
_atom_site_label
_atom_site_fract_x
_atom_site_fract_y
_atom_site_fract_z
Si Si1 0.813014 0.775560 0.308322
Si Si2 0.569249 0.553139 0.189850
Si Si3 0.569438 0.896842 0.189613
Si Si4 0.312134 0.384034 0.193139
Si Si5 0.193876 0.552655 0.689549
Si Si6 0.930771 0.712205 0.309174
O O1 0.813190 0.775442 0.500000
O O2 0.750000 0.750000 0.250000
O O3 0.813560 0.829857 0.254412
O O4 0.874649 0.746317 0.254567
O O5 0.580828 0.500000 0.250000
O O6 0.500000 0.567988 0.250000
O O7 0.625409 0.587469 0.243229
O O8 0.568171 0.552193 0.000000
O O9 0.500000 0.911314 0.250000
O O10 0.626047 0.928737 0.252898
O O11 0.579823 0.842227 0.241942
O O12 0.569587 0.898049 0.000000
O O13 0.249243 0.411826 0.245043
O O14 0.311805 0.383892 0.000000
O O15 0.206116 0.500000 0.750000
O O16 0.194432 0.552190 0.500000
O O17 0.931354 0.712462 0.500000
O O18 0.000000 0.726910 0.250000
#
# Coordination Sequence:
#
# PCOD9526102 Si02
#       6
#    16  16  16  16  16  16
#     4  10  20  36  55  79 108 140 176 218 262 311
#     4  10  19  34  54  78 106 140 177 218 263 312
#     4  10  20  36  56  81 109 140 175 215 259 311
#     4   9  20  36  55  77 107 142 177 216 264 314
#     4  11  22  37  56  79 105 139 177 219 266 315
#     4   9  19  34  55  80 109 141 176 215 259 308
#
# _framework density 18.993165999999999
#
# number of rings (size 3 to 8) (size 9 to 14) (size 15 to 20)
#    0.000    2.167    0.000    3.500    0.000    2.333 
#    0.000    6.667    0.000    0.000    0.000    0.000 
#    0.000    0.000    0.000    0.000    0.000    0.000 
#
# Total GULP energy -268092.940902 kJ/mol
# GULP energy per Si atom -5585.269602 kJ/mol
# Density = 1.894994 g / cm^3
# Si number density = 18.993166 Si / 1000 Ang^3
#
#
#
# Elastic Constant Matrix: (Units=GPa)
#
#
# Indices 1 2 3 4 5 6 
#
# 1 82.6722 29.7789 7.9598 0.0000 0.0000 0.0000
# 2 29.7789 57.5625 6.9231 0.0000 0.0000 0.0000
# 3 7.9598 6.9231 27.7069 0.0000 0.0000 0.0000
# 4 0.0000 0.0000 0.0000 19.7522 0.0000 0.0000
# 5 0.0000 0.0000 0.0000 0.0000 25.6941 0.0000
# 6 0.0000 0.0000 0.0000 0.0000 0.0000 43.3790
#
#
#
# Elastic Compliance Matrix: (Units=1/GPa)
#
#
# Indices 1 2 3 4 5 6 
#
# 1 0.015026 -0.007479 -0.002448 0.000000 0.000000 0.000000
# 2 -0.007479 0.021633 -0.003257 0.000000 0.000000 0.000000
# 3 -0.002448 -0.003257 0.037609 0.000000 0.000000 0.000000
# 4 0.000000 0.000000 0.000000 0.050627 0.000000 0.000000
# 5 0.000000 0.000000 0.000000 0.000000 0.038919 0.000000
# 6 0.000000 0.000000 0.000000 0.000000 0.000000 0.023053
#
#
# Mechanical properties :
#
#
# Convention : Reuss Voigt Hill
#
# Bulk Modulus (GPa) = 20.87655 28.58503 24.73079
# Shear Modulus (GPa) = 21.81489 25.98372 23.89930
#
# Velocity S-wave (km/s) = 3.39273 3.70274 3.55112
# Velocity P-wave (km/s) = 5.13448 5.77609 5.46471
#
# Compressibility (1/GPa) = 0.04790063
#
# Stress axis : x y z
#
# Youngs Moduli (GPa) = 66.55342 46.22544 26.58923
#
# Poissons Ratio (x) = 0.34571 0.06509
# Poissons Ratio (y) = 0.49774 0.08660
# Poissons Ratio (z) = 0.16292 0.15055
#
# Static dielectric constant tensor:
#      x y z
#    x 1.633770 0.000000 0.000000 
#    y 0.000000 1.645640 0.000000 
#    z 0.000000 0.000000 1.634730 
# 
# From -- ./inp_files/5956.got.cif
#   From: 2010.05.17/outbox.cif.g08.bks.cpg/sg72_3_cif.got.tgz:5956.got - 2010.06.03 17:03:01.
