data_PCOD9526905
_publ_section_title
;
Structure prediction by ZEFSAII (Michael W. Deem and Ramdas Pophale) SiO2 
 PCOD9526905
Probable space group: I B A M
;
_chemical_formula_sum "Si O2"
_cell_formula_units_Z 64
_cell_length_a 9.636415
_cell_length_b 22.194418
_cell_length_c 14.130551
_cell_angle_alpha 90.000000
_cell_angle_beta 90.000000
_cell_angle_gamma 90.000000
_cell_volume 3022.166261
_symmetry_space_group_name_H-M "I B A M"
_symmetry_group_IT_number 72
_symmetry_cell_setting 'orthorhombic'
loop_
_space_group_symop_operation_xyz
x,y,z
-x,-y,z
x,-y,1/2-z
-x,y,1/2-z
-x,-y,-z
x,y,-z
-x,y,1/2+z
x,-y,1/2+z
1/2+x,1/2+y,1/2+z
1/2-x,1/2-y,1/2+z
1/2+x,1/2-y,-z
1/2-x,1/2+y,-z
1/2-x,1/2-y,1/2-z
1/2+x,1/2+y,1/2-z
1/2-x,1/2+y,z
1/2+x,1/2-y,z
loop_
_atom_site_type_symbol
_atom_site_label
_atom_site_fract_x
_atom_site_fract_y
_atom_site_fract_z
Si Si1 0.602980 0.054883 0.388050
Si Si2 0.629943 0.729354 0.319056
Si Si3 0.841730 0.100707 0.725456
Si Si4 0.860901 0.643608 0.106904
O O1 0.633516 0.053695 0.500000
O O2 0.742975 0.054051 0.328018
O O3 0.508924 0.113827 0.366788
O O4 0.500000 0.000000 0.366614
O O5 0.500000 0.728873 0.250000
O O6 0.750000 0.750000 0.250000
O O7 0.651833 0.659679 0.344248
O O8 0.621427 0.784101 0.391651
O O9 0.756903 0.121955 0.819426
O O10 0.000000 0.083403 0.750000
O O11 0.827555 0.623356 0.000000
#
# Coordination Sequence:
#
# PCOD9526905 Si02
#       4
#    16  16  16  16
#     4  10  22  41  64  88 117 159 208 251 294 356
#     4   9  17  32  52  78 115 154 195 242 292 348
#     4  10  21  37  59  88 121 156 197 252 310 360
#     4  10  20  35  57  85 120 165 210 248 291 353
#
# _framework density 21.176863000000001
#
# number of rings (size 3 to 8) (size 9 to 14) (size 15 to 20)
#    0.000    2.250    0.000    3.750    0.000    4.000 
#    0.000   17.500    0.000    4.500    0.000    0.000 
#    0.000    0.000    0.000    0.000    0.000    0.000 
#
# Total GULP energy -178520.876913 kJ/mol
# GULP energy per Si atom -5578.777404 kJ/mol
# Density = 2.112866 g / cm^3
# Si number density = 21.176863 Si / 1000 Ang^3
#
#
#
# Elastic Constant Matrix: (Units=GPa)
#
#
# Indices 1 2 3 4 5 6 
#
# 1 158.8388 38.4821 42.0274 0.0000 0.0000 0.0000
# 2 38.4821 66.6671 26.9032 0.0000 0.0000 0.0000
# 3 42.0274 26.9032 92.6822 0.0000 0.0000 0.0000
# 4 0.0000 0.0000 0.0000 25.9876 0.0000 0.0000
# 5 0.0000 0.0000 0.0000 0.0000 14.7790 0.0000
# 6 0.0000 0.0000 0.0000 0.0000 0.0000 27.0730
#
#
#
# Elastic Compliance Matrix: (Units=1/GPa)
#
#
# Indices 1 2 3 4 5 6 
#
# 1 0.007810 -0.003487 -0.002529 0.000000 0.000000 0.000000
# 2 -0.003487 0.018547 -0.003802 0.000000 0.000000 0.000000
# 3 -0.002529 -0.003802 0.013040 0.000000 0.000000 0.000000
# 4 0.000000 0.000000 0.000000 0.038480 0.000000 0.000000
# 5 0.000000 0.000000 0.000000 0.000000 0.067664 0.000000
# 6 0.000000 0.000000 0.000000 0.000000 0.000000 0.036937
#
#
# Mechanical properties :
#
#
# Convention : Reuss Voigt Hill
#
# Bulk Modulus (GPa) = 50.60872 59.22372 54.91622
# Shear Modulus (GPa) = 23.95758 27.61962 25.78860
#
# Velocity S-wave (km/s) = 3.36714 3.61534 3.49345
# Velocity P-wave (km/s) = 6.25035 6.74200 6.50082
#
# Compressibility (1/GPa) = 0.01975944
#
# Stress axis : x y z
#
# Youngs Moduli (GPa) = 128.04477 53.91593 76.68629
#
# Poissons Ratio (x) = 0.18803 0.19395
# Poissons Ratio (y) = 0.44655 0.29159
# Poissons Ratio (z) = 0.32384 0.20501
#
# Static dielectric constant tensor:
#      x y z
#    x 1.728260 0.000000 0.000000 
#    y 0.000000 1.956020 0.000000 
#    z 0.000000 0.000000 1.731500 
# 
# From -- ./inp_files/18620.got.cif
#   From: 2010.05.17/outbox.cif.g08.bks.cpg/sg72_10_cif.got.tgz:18620.got - 2010.06.03 17:03:01.
