data_PCOD9526729
_publ_section_title
;
Structure prediction by ZEFSAII (Michael W. Deem and Ramdas Pophale) SiO2 
 PCOD9526729
Probable space group: I B A M
;
_chemical_formula_sum "Si O2"
_cell_formula_units_Z 80
_cell_length_a 26.455709
_cell_length_b 16.996629
_cell_length_c 10.129729
_cell_angle_alpha 90.000000
_cell_angle_beta 90.000000
_cell_angle_gamma 90.000000
_cell_volume 4554.912374
_symmetry_space_group_name_H-M "I B A M"
_symmetry_group_IT_number 72
_symmetry_cell_setting 'orthorhombic'
loop_
_space_group_symop_operation_xyz
x,y,z
-x,-y,z
x,-y,1/2-z
-x,y,1/2-z
-x,-y,-z
x,y,-z
-x,y,1/2+z
x,-y,1/2+z
1/2+x,1/2+y,1/2+z
1/2-x,1/2-y,1/2+z
1/2+x,1/2-y,-z
1/2-x,1/2+y,-z
1/2-x,1/2-y,1/2-z
1/2+x,1/2+y,1/2-z
1/2-x,1/2+y,z
1/2+x,1/2-y,z
loop_
_atom_site_type_symbol
_atom_site_label
_atom_site_fract_x
_atom_site_fract_y
_atom_site_fract_z
Si Si1 0.701833 0.762040 0.657174
Si Si2 0.045462 0.650955 0.654137
Si Si3 0.062931 0.923354 0.500000
Si Si4 0.403046 0.684712 0.231362
Si Si5 0.651978 0.932125 0.650366
Si Si6 0.943042 0.890771 0.500000
O O1 0.708993 0.743468 0.500000
O O2 0.750000 0.750000 0.750000
O O3 0.654835 0.712197 0.715348
O O4 0.684840 0.853202 0.663520
O O5 0.030825 0.648464 0.500000
O O6 0.064033 0.739288 0.688363
O O7 0.094139 0.595507 0.673120
O O8 0.000000 0.629168 0.750000
O O9 0.087063 0.884703 0.628482
O O10 0.004067 0.896514 0.500000
O O11 0.070616 0.016740 0.500000
O O12 0.421307 0.654127 0.372826
O O13 0.655964 0.960405 0.500000
O O14 0.666641 0.000000 0.750000
#
# Coordination Sequence:
#
# PCOD9526729 Si02
#       6
#    16  16   8  16  16   8
#     4  10  22  42  67  87 114 151 196 247 298 349
#     4  10  20  34  55  81 114 154 193 233 281 337
#     4  11  20  40  55  82 125 167 198 243 302 342
#     4  11  21  38  57  85 119 153 199 250 290 346
#     4   9  20  39  58  84 117 148 184 233 286 340
#     4  11  24  32  59  88 119 165 206 237 290 372
#
# _framework density 17.563455999999999
#
# number of rings (size 3 to 8) (size 9 to 14) (size 15 to 20)
#    0.000    1.800    2.000    3.600    2.800    3.600 
#    3.600    4.000    0.000    0.000    0.000    0.000 
#    0.000    0.000    0.000    0.000    0.000    0.000 
#
# Total GULP energy -223303.538156 kJ/mol
# GULP energy per Si atom -5582.588454 kJ/mol
# Density = 1.752348 g / cm^3
# Si number density = 17.563456 Si / 1000 Ang^3
#
#
#
# Elastic Constant Matrix: (Units=GPa)
#
#
# Indices 1 2 3 4 5 6 
#
# 1 96.4017 22.0855 62.8810 0.0000 0.0000 0.0000
# 2 22.0855 67.9129 47.3251 0.0000 0.0000 0.0000
# 3 62.8810 47.3251 134.4457 0.0000 0.0000 0.0000
# 4 0.0000 0.0000 0.0000 242.7820 0.0000 0.0000
# 5 0.0000 0.0000 0.0000 0.0000 15.1225 0.0000
# 6 0.0000 0.0000 0.0000 0.0000 0.0000 8.1979
#
#
#
# Elastic Compliance Matrix: (Units=1/GPa)
#
#
# Indices 1 2 3 4 5 6 
#
# 1 0.014927 0.000014 -0.006987 0.000000 0.000000 0.000000
# 2 0.000014 0.019511 -0.006874 0.000000 0.000000 0.000000
# 3 -0.006987 -0.006874 0.013125 0.000000 0.000000 0.000000
# 4 0.000000 0.000000 0.000000 0.004119 0.000000 0.000000
# 5 0.000000 0.000000 0.000000 0.000000 0.066127 0.000000
# 6 0.000000 0.000000 0.000000 0.000000 0.000000 0.121983
#
#
# Mechanical properties :
#
#
# Convention : Reuss Voigt Hill
#
# Bulk Modulus (GPa) = 50.32795 62.59373 56.46084
# Shear Modulus (GPa) = 18.24099 64.31840 41.27969
#
# Velocity S-wave (km/s) = 3.22619 6.05806 4.85327
# Velocity P-wave (km/s) = 6.52648 9.20051 7.97635
#
# Compressibility (1/GPa) = 0.01986967
#
# Stress axis : x y z
#
# Youngs Moduli (GPa) = 66.99183 51.25436 76.18825
#
# Poissons Ratio (x) = -0.00073 0.53229
# Poissons Ratio (y) = -0.00095 0.52375
# Poissons Ratio (z) = 0.46804 0.35234
#
# Static dielectric constant tensor:
#      x y z
#    x 1.590320 0.000000 0.000000 
#    y 0.000000 1.580240 0.000000 
#    z 0.000000 0.000000 1.511650 
# 
# From -- ./inp_files/4848.got.cif
#   From: 2010.05.17/outbox.cif.g08.bks.cpg/sg72_3_cif.got.tgz:4848.got - 2010.06.03 17:03:01.
