data_PCOD9526110
_publ_section_title
;
Structure prediction by ZEFSAII (Michael W. Deem and Ramdas Pophale) SiO2 
 PCOD9526110
Probable space group: I B A M
;
_chemical_formula_sum "Si O2"
_cell_formula_units_Z 104
_cell_length_a 17.623357
_cell_length_b 17.785229
_cell_length_c 15.213577
_cell_angle_alpha 90.000000
_cell_angle_beta 90.000000
_cell_angle_gamma 90.000000
_cell_volume 4768.474201
_symmetry_space_group_name_H-M "I B A M"
_symmetry_group_IT_number 72
_symmetry_cell_setting 'orthorhombic'
loop_
_space_group_symop_operation_xyz
x,y,z
-x,-y,z
x,-y,1/2-z
-x,y,1/2-z
-x,-y,-z
x,y,-z
-x,y,1/2+z
x,-y,1/2+z
1/2+x,1/2+y,1/2+z
1/2-x,1/2-y,1/2+z
1/2+x,1/2-y,-z
1/2-x,1/2+y,-z
1/2-x,1/2-y,1/2-z
1/2+x,1/2+y,1/2-z
1/2-x,1/2+y,z
1/2+x,1/2-y,z
loop_
_atom_site_type_symbol
_atom_site_label
_atom_site_fract_x
_atom_site_fract_y
_atom_site_fract_z
Si Si1 0.500000 0.664491 0.750000
Si Si2 0.526514 0.415508 0.093682
Si Si3 0.564621 0.165679 0.603018
Si Si4 0.817392 0.075944 0.303932
Si Si5 0.835761 0.522899 0.396023
Si Si6 0.617196 0.146926 0.895402
Si Si7 0.644246 0.260317 0.243728
O O1 0.528298 0.615716 0.830362
O O2 0.436733 0.712887 0.792778
O O3 0.500000 0.500000 0.084757
O O4 0.613224 0.415741 0.126950
O O5 0.519599 0.375601 0.000000
O O6 0.575788 0.185871 0.500000
O O7 0.597121 0.082160 0.617971
O O8 0.473801 0.158699 0.618032
O O9 0.616017 0.219877 0.666136
O O10 0.737688 0.055191 0.347506
O O11 0.812650 0.158954 0.256978
O O12 0.837159 0.000000 0.250000
O O13 0.819053 0.521157 0.500000
O O14 0.859987 0.438587 0.371228
O O15 0.666026 0.201448 0.831865
O O16 0.631669 0.158795 0.000000
#
# Coordination Sequence:
#
# PCOD9526110 Si02
#       7
#     8  16  16  16  16  16  16
#     4  10  19  34  54  91 124 152 204 264 318 389
#     4  10  20  36  62  88 118 164 215 270 327 382
#     4  10  21  40  67 100 136 171 218 281 338 399
#     4  11  25  43  63  90 133 179 225 277 329 405
#     4  10  23  43  65  95 133 177 223 271 339 412
#     4  10  21  40  69 101 133 171 220 279 340 404
#     4  11  22  39  65  96 130 169 221 272 338 395
#
# _framework density 21.809912000000001
#
# number of rings (size 3 to 8) (size 9 to 14) (size 15 to 20)
#    0.000    1.692    1.538    3.000    2.154    6.154 
#    0.000    3.077    0.000    0.000    0.000    0.000 
#    0.000    0.000    0.000    0.000    0.000    0.000 
#
# Total GULP energy -289510.459308 kJ/mol
# GULP energy per Si atom -5567.508833 kJ/mol
# Density = 2.176027 g / cm^3
# Si number density = 21.809912 Si / 1000 Ang^3
#
#
#
# Elastic Constant Matrix: (Units=GPa)
#
#
# Indices 1 2 3 4 5 6 
#
# 1 82.5512 33.3872 44.7161 0.0000 0.0000 0.0000
# 2 33.3872 168.6577 96.9097 0.0000 0.0000 0.0000
# 3 44.7161 96.9097 84.2944 0.0000 0.0000 0.0000
# 4 0.0000 0.0000 0.0000 3.5636 0.0000 0.0000
# 5 0.0000 0.0000 0.0000 0.0000 27.3521 0.0000
# 6 0.0000 0.0000 0.0000 0.0000 0.0000 10.8317
#
#
#
# Elastic Compliance Matrix: (Units=1/GPa)
#
#
# Indices 1 2 3 4 5 6 
#
# 1 0.018812 0.005922 -0.016788 0.000000 0.000000 0.000000
# 2 0.005922 0.019333 -0.025368 0.000000 0.000000 0.000000
# 3 -0.016788 -0.025368 0.049933 0.000000 0.000000 0.000000
# 4 0.000000 0.000000 0.000000 0.280615 0.000000 0.000000
# 5 0.000000 0.000000 0.000000 0.000000 0.036560 0.000000
# 6 0.000000 0.000000 0.000000 0.000000 0.000000 0.092322
#
#
# Mechanical properties :
#
#
# Convention : Reuss Voigt Hill
#
# Bulk Modulus (GPa) = 64.05695 76.16992 70.11344
# Shear Modulus (GPa) = 8.69193 19.04883 13.87038
#
# Velocity S-wave (km/s) = 1.99849 2.95854 2.52457
# Velocity P-wave (km/s) = 5.89573 6.83161 6.38085
#
# Compressibility (1/GPa) = 0.01561111
#
# Stress axis : x y z
#
# Youngs Moduli (GPa) = 53.15720 51.72456 20.02670
#
# Poissons Ratio (x) = -0.30632 0.33621
# Poissons Ratio (y) = -0.31481 0.50804
# Poissons Ratio (z) = 0.89240 1.31215
#
# Static dielectric constant tensor:
#      x y z
#    x 1.827350 0.000000 0.000000 
#    y 0.000000 1.863080 0.000000 
#    z 0.000000 0.000000 0.831980 
# 
# From -- ./inp_files/24311.got.cif
#   From: 2010.05.17/outbox.cif.g08.bks.cpg/sg72_13_cif.got.tgz:24311.got - 2010.06.03 17:03:01.
