data_PCOD9526726
_publ_section_title
;
Structure prediction by ZEFSAII (Michael W. Deem and Ramdas Pophale) SiO2 
 PCOD9526726
Probable space group: I B A M
;
_chemical_formula_sum "Si O2"
_cell_formula_units_Z 80
_cell_length_a 18.939881
_cell_length_b 26.817805
_cell_length_c 8.799122
_cell_angle_alpha 90.000000
_cell_angle_beta 90.000000
_cell_angle_gamma 90.000000
_cell_volume 4469.303152
_symmetry_space_group_name_H-M "I B A M"
_symmetry_group_IT_number 72
_symmetry_cell_setting 'orthorhombic'
loop_
_space_group_symop_operation_xyz
x,y,z
-x,-y,z
x,-y,1/2-z
-x,y,1/2-z
-x,-y,-z
x,y,-z
-x,y,1/2+z
x,-y,1/2+z
1/2+x,1/2+y,1/2+z
1/2-x,1/2-y,1/2+z
1/2+x,1/2-y,-z
1/2-x,1/2+y,-z
1/2-x,1/2-y,1/2-z
1/2+x,1/2+y,1/2-z
1/2-x,1/2+y,z
1/2+x,1/2-y,z
loop_
_atom_site_type_symbol
_atom_site_label
_atom_site_fract_x
_atom_site_fract_y
_atom_site_fract_z
Si Si1 0.079047 0.645303 0.681561
Si Si2 0.078747 0.857412 0.181753
Si Si3 0.663778 0.946617 0.180900
Si Si4 0.579153 0.246883 0.682156
Si Si5 0.331798 0.446845 0.680110
O O1 0.075207 0.646667 0.500000
O O2 0.123196 0.598385 0.739567
O O3 0.111403 0.697427 0.743600
O O4 0.000000 0.641367 0.750000
O O5 0.108779 0.801878 0.217472
O O6 0.126442 0.901282 0.246560
O O7 0.000000 0.861093 0.250000
O O8 0.073823 0.861134 0.000000
O O9 0.747852 0.941217 0.207154
O O10 0.642188 0.000000 0.250000
O O11 0.651066 0.946000 0.000000
O O12 0.500000 0.248573 0.750000
O O13 0.576379 0.240871 0.500000
O O14 0.353705 0.500000 0.750000
O O15 0.343817 0.447593 0.500000
#
# Coordination Sequence:
#
# PCOD9526726 Si02
#       5
#    16  16  16  16  16
#     4  11  21  34  55  81 108 139 175 216 259 309
#     4  10  20  34  55  81 109 139 176 218 261 310
#     4  10  21  38  57  78 105 138 175 216 263 315
#     4   9  17  31  51  76 106 139 172 212 260 309
#     4  10  21  37  57  78 105 139 175 216 264 315
#
# _framework density 17.899882999999999
#
# number of rings (size 3 to 8) (size 9 to 14) (size 15 to 20)
#    0.000    2.000    0.000    5.400    0.000    5.600 
#    0.000    5.000    0.000    0.000    0.000    0.000 
#    0.000    0.000    0.000    0.000    0.000    0.000 
#
# Total GULP energy -223219.653195 kJ/mol
# GULP energy per Si atom -5580.491330 kJ/mol
# Density = 1.785914 g / cm^3
# Si number density = 17.899883 Si / 1000 Ang^3
#
#
#
# Elastic Constant Matrix: (Units=GPa)
#
#
# Indices 1 2 3 4 5 6 
#
# 1 32.1808 67.1916 49.7400 0.0000 0.0000 0.0000
# 2 67.1916 228.9809 104.0543 0.0000 0.0000 0.0000
# 3 49.7400 104.0543 119.7162 0.0000 0.0000 0.0000
# 4 0.0000 0.0000 0.0000 37.1875 0.0000 0.0000
# 5 0.0000 0.0000 0.0000 0.0000 24.9544 0.0000
# 6 0.0000 0.0000 0.0000 0.0000 0.0000 -25.7498
#
#
#
# Elastic Compliance Matrix: (Units=1/GPa)
#
#
# Indices 1 2 3 4 5 6 
#
# 1 0.135662 -0.023461 -0.035973 0.000000 0.000000 0.000000
# 2 -0.023461 0.011276 -0.000053 0.000000 0.000000 0.000000
# 3 -0.035973 -0.000053 0.023345 0.000000 0.000000 0.000000
# 4 0.000000 0.000000 0.000000 0.026891 0.000000 0.000000
# 5 0.000000 0.000000 0.000000 0.000000 0.040073 0.000000
# 6 0.000000 0.000000 0.000000 0.000000 0.000000 -0.038835
#
#
# Mechanical properties :
#
#
# Convention : Reuss Voigt Hill
#
# Bulk Modulus (GPa) = 19.48996 91.42774 55.45885
# Shear Modulus (GPa) = 14.94816 17.93788 16.44302
#
# Velocity S-wave (km/s) = 2.89294 3.16907 3.03415
# Velocity P-wave (km/s) = 4.69795 8.03609 6.58216
#
# Compressibility (1/GPa) = 0.05130846
#
# Stress axis : x y z
#
# Youngs Moduli (GPa) = 7.37124 88.68748 42.83547
#
# Poissons Ratio (x) = 2.08073 1.54094
# Poissons Ratio (y) = 0.17294 0.00225
# Poissons Ratio (z) = 0.26517 0.00467
#
# Static dielectric constant tensor:
#      x y z
#    x 1.587320 0.000000 0.000000 
#    y 0.000000 1.633240 0.000000 
#    z 0.000000 0.000000 1.594280 
# 
# From -- ./inp_files/4743.got.cif
#   From: 2010.05.17/outbox.cif.g08.bks.cpg/sg72_3_cif.got.tgz:4743.got - 2010.06.03 17:03:01.
