data_PCOD9526723
_publ_section_title
;
Structure prediction by ZEFSAII (Michael W. Deem and Ramdas Pophale) SiO2 
 PCOD9526723
Probable space group: I B A M
;
_chemical_formula_sum "Si O2"
_cell_formula_units_Z 80
_cell_length_a 26.931420
_cell_length_b 7.531083
_cell_length_c 16.969994
_cell_angle_alpha 90.000000
_cell_angle_beta 90.000000
_cell_angle_gamma 90.000000
_cell_volume 3441.901009
_symmetry_space_group_name_H-M "I B A M"
_symmetry_group_IT_number 72
_symmetry_cell_setting 'orthorhombic'
loop_
_space_group_symop_operation_xyz
x,y,z
-x,-y,z
x,-y,1/2-z
-x,y,1/2-z
-x,-y,-z
x,y,-z
-x,y,1/2+z
x,-y,1/2+z
1/2+x,1/2+y,1/2+z
1/2-x,1/2-y,1/2+z
1/2+x,1/2-y,-z
1/2-x,1/2+y,-z
1/2-x,1/2-y,1/2-z
1/2+x,1/2+y,1/2-z
1/2-x,1/2+y,z
1/2+x,1/2-y,z
loop_
_atom_site_type_symbol
_atom_site_label
_atom_site_fract_x
_atom_site_fract_y
_atom_site_fract_z
Si Si1 0.394643 0.325563 0.870828
Si Si2 0.773517 0.420029 0.000000
Si Si3 0.918079 0.697934 0.789048
Si Si4 0.669875 0.462771 0.500000
Si Si5 0.002791 0.713779 0.583594
Si Si6 0.824462 0.514863 0.842179
O O1 0.409425 0.334313 0.780457
O O2 0.446886 0.281659 0.911191
O O3 0.357671 0.156651 0.863930
O O4 0.364687 0.464437 0.922903
O O5 0.714335 0.399560 0.000000
O O6 0.787759 0.519077 0.083047
O O7 0.801583 0.229984 0.000000
O O8 0.929944 0.500000 0.750000
O O9 0.866514 0.666042 0.835168
O O10 0.962011 0.760802 0.844612
O O11 0.025006 0.770651 0.500000
O O12 0.000000 0.500000 0.584817
O O13 0.804754 0.500000 0.750000
#
# Coordination Sequence:
#
# PCOD9526723 Si02
#       6
#    16   8  16   8  16  16
#     4   9  16  27  39  60  99 129 164 189 248 299
#     4  10  20  34  55  68  99 130 174 222 259 305
#     4   9  16  24  36  61  96 134 160 191 238 307
#     4  10  20  36  50  75  94 139 172 214 263 291
#     4  11  17  19  35  64  95 139 160 185 234 323
#     4   8  16  28  44  69  92 132 164 211 251 297
#
# _framework density 23.24297
#
# number of rings (size 3 to 8) (size 9 to 14) (size 15 to 20)
#    0.000    3.000    5.000    0.600    1.400    0.000 
#    0.000    9.000    0.000    0.000    0.000    0.000 
#    0.000    3.200    0.000   49.600    0.000    0.000 
#
# Total GULP energy -222957.416835 kJ/mol
# GULP energy per Si atom -5573.935421 kJ/mol
# Density = 2.319007 g / cm^3
# Si number density = 23.242970 Si / 1000 Ang^3
#
#
#
# Elastic Constant Matrix: (Units=GPa)
#
#
# Indices 1 2 3 4 5 6 
#
# 1 94.2529 21.6727 74.7642 0.0000 0.0000 0.0000
# 2 21.6727 59.7787 52.1955 0.0000 0.0000 0.0000
# 3 74.7642 52.1955 153.2521 0.0000 0.0000 0.0000
# 4 0.0000 0.0000 0.0000 3.2797 0.0000 0.0000
# 5 0.0000 0.0000 0.0000 0.0000 32.7400 0.0000
# 6 0.0000 0.0000 0.0000 0.0000 0.0000 -20.8750
#
#
#
# Elastic Compliance Matrix: (Units=1/GPa)
#
#
# Indices 1 2 3 4 5 6 
#
# 1 0.017410 0.001571 -0.009029 0.000000 0.000000 0.000000
# 2 0.001571 0.023950 -0.008924 0.000000 0.000000 0.000000
# 3 -0.009029 -0.008924 0.013969 0.000000 0.000000 0.000000
# 4 0.000000 0.000000 0.000000 0.304906 0.000000 0.000000
# 5 0.000000 0.000000 0.000000 0.000000 0.030544 0.000000
# 6 0.000000 0.000000 0.000000 0.000000 0.000000 -0.047904
#
#
# Mechanical properties :
#
#
# Convention : Reuss Voigt Hill
#
# Bulk Modulus (GPa) = 44.31139 67.17205 55.74172
# Shear Modulus (GPa) = 13.04936 13.60570 13.32753
#
# Velocity S-wave (km/s) = 2.37203 2.42206 2.39718
# Velocity P-wave (km/s) = 5.15828 6.06503 5.62994
#
# Compressibility (1/GPa) = 0.02256756
#
# Stress axis : x y z
#
# Youngs Moduli (GPa) = 57.43701 41.75291 71.58579
#
# Poissons Ratio (x) = -0.06561 0.64634
# Poissons Ratio (y) = -0.09026 0.63882
# Poissons Ratio (z) = 0.51859 0.37259
#
# Static dielectric constant tensor:
#      x y z
#    x 1.865280 0.000000 0.000000 
#    y 0.000000 1.895530 0.000000 
#    z 0.000000 0.000000 1.945290 
# 
# From -- ./inp_files/29381.got.cif
#   From: 2010.05.17/outbox.cif.g08.bks.cpg/sg72_15_cif.got.tgz:29381.got - 2010.06.03 17:03:01.
