data_PCOD9526169
_publ_section_title
;
Structure prediction by ZEFSAII (Michael W. Deem and Ramdas Pophale) SiO2 
 PCOD9526169
Probable space group: I B A M
;
_chemical_formula_sum "Si O2"
_cell_formula_units_Z 96
_cell_length_a 17.989232
_cell_length_b 13.890760
_cell_length_c 20.096564
_cell_angle_alpha 90.000000
_cell_angle_beta 90.000000
_cell_angle_gamma 90.000000
_cell_volume 5021.811895
_symmetry_space_group_name_H-M "I B A M"
_symmetry_group_IT_number 72
_symmetry_cell_setting 'orthorhombic'
loop_
_space_group_symop_operation_xyz
x,y,z
-x,-y,z
x,-y,1/2-z
-x,y,1/2-z
-x,-y,-z
x,y,-z
-x,y,1/2+z
x,-y,1/2+z
1/2+x,1/2+y,1/2+z
1/2-x,1/2-y,1/2+z
1/2+x,1/2-y,-z
1/2-x,1/2+y,-z
1/2-x,1/2-y,1/2-z
1/2+x,1/2+y,1/2-z
1/2-x,1/2+y,z
1/2+x,1/2-y,z
loop_
_atom_site_type_symbol
_atom_site_label
_atom_site_fract_x
_atom_site_fract_y
_atom_site_fract_z
Si Si1 0.766910 0.829238 0.425807
Si Si2 0.985159 0.390090 0.328468
Si Si3 0.799547 0.898231 0.218350
Si Si4 0.250500 0.442078 0.574639
Si Si5 0.104899 0.310002 0.424621
Si Si6 0.670823 0.193852 0.199319
O O1 0.743307 0.797008 0.500000
O O2 0.851102 0.791065 0.418863
O O3 0.724674 0.787032 0.362985
O O4 0.751508 0.942393 0.423001
O O5 0.900036 0.357996 0.331651
O O6 0.000000 0.500000 0.349735
O O7 0.000000 0.383683 0.250000
O O8 0.041323 0.325783 0.370951
O O9 0.796505 0.913360 0.139410
O O10 0.717668 0.872228 0.249284
O O11 0.844258 0.798804 0.231524
O O12 0.823550 0.000000 0.250000
O O13 0.277438 0.416526 0.500000
O O14 0.169624 0.391701 0.582142
O O15 0.075240 0.318003 0.500000
#
# Coordination Sequence:
#
# PCOD9526169 Si02
#       6
#    16  16  16  16  16  16
#     4  10  20  35  60  88 114 152 202 247 293 349
#     4  11  25  37  56  85 122 157 194 237 300 371
#     4  11  22  35  60  89 120 152 203 253 301 342
#     4  10  19  34  58  85 114 150 195 244 293 348
#     4  10  21  39  58  83 122 155 187 242 298 355
#     4  11  23  36  59  90 120 159 196 254 297 356
#
# _framework density 19.116606000000001
#
# number of rings (size 3 to 8) (size 9 to 14) (size 15 to 20)
#    0.000    1.500    3.333    2.000    4.667    1.000 
#    0.000    0.000    0.000    3.500    0.000    3.500 
#    0.000    0.000    0.000    0.000    0.000    0.000 
#
# Total GULP energy -267520.282630 kJ/mol
# GULP energy per Si atom -5573.339221 kJ/mol
# Density = 1.907310 g / cm^3
# Si number density = 19.116606 Si / 1000 Ang^3
#
#
#
# Elastic Constant Matrix: (Units=GPa)
#
#
# Indices 1 2 3 4 5 6 
#
# 1 53.1439 7.4268 12.0018 0.0000 0.0000 0.0000
# 2 7.4268 106.1329 0.5201 0.0000 0.0000 0.0000
# 3 12.0018 0.5201 92.3059 0.0000 0.0000 0.0000
# 4 0.0000 0.0000 0.0000 24.4570 0.0000 0.0000
# 5 0.0000 0.0000 0.0000 0.0000 24.3611 0.0000
# 6 0.0000 0.0000 0.0000 0.0000 0.0000 16.9153
#
#
#
# Elastic Compliance Matrix: (Units=1/GPa)
#
#
# Indices 1 2 3 4 5 6 
#
# 1 0.019580 -0.001358 -0.002538 0.000000 0.000000 0.000000
# 2 -0.001358 0.009517 0.000123 0.000000 0.000000 0.000000
# 3 -0.002538 0.000123 0.011163 0.000000 0.000000 0.000000
# 4 0.000000 0.000000 0.000000 0.040888 0.000000 0.000000
# 5 0.000000 0.000000 0.000000 0.000000 0.041049 0.000000
# 6 0.000000 0.000000 0.000000 0.000000 0.000000 0.059118
#
#
# Mechanical properties :
#
#
# Convention : Reuss Voigt Hill
#
# Bulk Modulus (GPa) = 30.56857 32.38668 31.47763
# Shear Modulus (GPa) = 25.02948 28.58897 26.80922
#
# Velocity S-wave (km/s) = 3.62236 3.87137 3.74893
# Velocity P-wave (km/s) = 5.78970 6.07962 5.93643
#
# Compressibility (1/GPa) = 0.03271334
#
# Stress axis : x y z
#
# Youngs Moduli (GPa) = 51.07307 105.08010 89.58275
#
# Poissons Ratio (x) = 0.14266 0.22738
# Poissons Ratio (y) = 0.06934 -0.01101
# Poissons Ratio (z) = 0.12963 -0.01291
#
# Static dielectric constant tensor:
#      x y z
#    x 1.694170 0.000000 0.000000 
#    y 0.000000 1.724600 0.000000 
#    z 0.000000 0.000000 1.708530 
# 
# From -- ./inp_files/38044.got.cif
#   From: 2010.05.17/outbox.cif.g08.bks.cpg/sg72_20_cif.got.tgz:38044.got - 2010.06.03 17:03:01.
