data_PCOD9526724
_publ_section_title
;
Structure prediction by ZEFSAII (Michael W. Deem and Ramdas Pophale) SiO2 
 PCOD9526724
Probable space group: I B A M
;
_chemical_formula_sum "Si O2"
_cell_formula_units_Z 116
_cell_length_a 20.210202
_cell_length_b 30.573046
_cell_length_c 10.479428
_cell_angle_alpha 90.000000
_cell_angle_beta 90.000000
_cell_angle_gamma 90.000000
_cell_volume 6475.106892
_symmetry_space_group_name_H-M "I B A M"
_symmetry_group_IT_number 72
_symmetry_cell_setting 'orthorhombic'
loop_
_space_group_symop_operation_xyz
x,y,z
-x,-y,z
x,-y,1/2-z
-x,y,1/2-z
-x,-y,-z
x,y,-z
-x,y,1/2+z
x,-y,1/2+z
1/2+x,1/2+y,1/2+z
1/2-x,1/2-y,1/2+z
1/2+x,1/2-y,-z
1/2-x,1/2+y,-z
1/2-x,1/2-y,1/2-z
1/2+x,1/2+y,1/2-z
1/2-x,1/2+y,z
1/2+x,1/2-y,z
loop_
_atom_site_type_symbol
_atom_site_label
_atom_site_fract_x
_atom_site_fract_y
_atom_site_fract_z
Si Si1 0.555568 0.181749 0.146911
Si Si2 0.000000 0.000000 0.750000
Si Si3 0.193356 0.632092 0.643279
Si Si4 0.756416 0.692348 0.360508
Si Si5 0.558159 0.339130 0.649011
Si Si6 0.638355 0.258897 0.258254
Si Si7 0.744844 0.963924 0.650735
Si Si8 0.390160 0.566147 0.650520
O O1 0.500000 0.170241 0.250000
O O2 0.618136 0.148906 0.154834
O O3 0.584710 0.229127 0.186312
O O4 0.531853 0.182375 0.000000
O O5 0.050095 0.967378 0.822778
O O6 0.216506 0.644169 0.500000
O O7 0.235640 0.657448 0.748210
O O8 0.202522 0.580484 0.656815
O O9 0.758910 0.672059 0.500000
O O10 0.689376 0.719349 0.340663
O O11 0.816850 0.726312 0.342394
O O12 0.500000 0.331454 0.750000
O O13 0.537219 0.343704 0.500000
O O14 0.606093 0.297747 0.662052
O O15 0.591996 0.384786 0.692490
O O16 0.746799 0.977602 0.500000
O O17 0.819355 0.951202 0.696742
O O18 0.719975 0.000000 0.750000
O O19 0.381461 0.569589 0.500000
#
# Coordination Sequence:
#
# PCOD9526724 Si02
#       8
#    16   4  16  16  16  16  16  16
#     4  10  21  37  57  81 109 147 186 225 276 333
#     4  12  18  36  56  74 104 140 188 224 262 316
#     4   9  20  38  58  80 114 150 181 225 284 339
#     4  10  20  34  55  81 105 141 190 231 266 318
#     4  11  23  38  53  74 104 142 182 223 273 323
#     4  10  21  34  53  77 111 145 178 226 280 329
#     4  10  20  37  59  84 110 141 179 222 275 329
#     4  10  21  35  54  77 106 143 181 222 271 321
#
# _framework density 17.914762
#
# number of rings (size 3 to 8) (size 9 to 14) (size 15 to 20)
#    0.000    1.931    1.379    2.276    0.000   10.483 
#    0.000    0.690    0.000    0.414    0.000    2.897 
#    0.000    0.000    0.000    0.000    0.000    0.000 
#
# Total GULP energy -323518.856554 kJ/mol
# GULP energy per Si atom -5577.911320 kJ/mol
# Density = 1.787399 g / cm^3
# Si number density = 17.914762 Si / 1000 Ang^3
#
#
#
# Elastic Constant Matrix: (Units=GPa)
#
#
# Indices 1 2 3 4 5 6 
#
# 1 38.1664 25.0811 33.9323 0.0000 0.0000 0.0000
# 2 25.0811 96.6430 41.0043 0.0000 0.0000 0.0000
# 3 33.9323 41.0043 111.2809 0.0002 0.0002 0.0000
# 4 0.0000 0.0000 0.0002 5.1685 0.0001 0.0000
# 5 0.0000 0.0000 0.0002 0.0001 3.2319 0.0000
# 6 0.0000 0.0000 0.0000 0.0000 0.0000 27.5395
#
#
#
# Elastic Compliance Matrix: (Units=1/GPa)
#
#
# Indices 1 2 3 4 5 6 
#
# 1 0.038641 -0.005961 -0.009586 0.000000 0.000001 0.000000
# 2 -0.005961 0.013184 -0.003040 0.000000 0.000000 0.000000
# 3 -0.009586 -0.003040 0.013030 0.000000 -0.000001 0.000000
# 4 0.000000 0.000000 0.000000 0.193479 -0.000004 0.000000
# 5 0.000001 0.000000 -0.000001 -0.000004 0.309414 0.000000
# 6 0.000000 0.000000 0.000000 0.000000 0.000000 0.036312
#
#
# Mechanical properties :
#
#
# Convention : Reuss Voigt Hill
#
# Bulk Modulus (GPa) = 36.12733 49.56953 42.84843
# Shear Modulus (GPa) = 7.68685 16.92616 12.30651
#
# Velocity S-wave (km/s) = 2.07367 3.07712 2.62381
# Velocity P-wave (km/s) = 5.09348 6.35253 5.75752
#
# Compressibility (1/GPa) = 0.02767987
#
# Stress axis : x y z
#
# Youngs Moduli (GPa) = 25.87930 75.84721 76.74811
#
# Poissons Ratio (x) = 0.45212 0.73571
# Poissons Ratio (y) = 0.15427 0.23335
# Poissons Ratio (z) = 0.24808 0.23061
#
# Static dielectric constant tensor:
#      x y z
#    x 1.630890 0.000000 0.000000 
#    y 0.000000 1.614980 0.000000 
#    z 0.000000 0.000000 1.620520 
# 
# From -- ./inp_files/14196.got.cif
#   From: 2010.05.17/outbox.cif.g08.bks.cpg/sg72_8_cif.got.tgz:14196.got - 2010.06.03 17:03:01.
