data_PCOD9526654
_publ_section_title
;
Structure prediction by ZEFSAII (Michael W. Deem and Ramdas Pophale) SiO2 
 PCOD9526654
Probable space group: I B A M
;
_chemical_formula_sum "Si O2"
_cell_formula_units_Z 88
_cell_length_a 9.097822
_cell_length_b 21.196371
_cell_length_c 24.444219
_cell_angle_alpha 90.000000
_cell_angle_beta 90.000000
_cell_angle_gamma 90.000000
_cell_volume 4713.843002
_symmetry_space_group_name_H-M "I B A M"
_symmetry_group_IT_number 72
_symmetry_cell_setting 'orthorhombic'
loop_
_space_group_symop_operation_xyz
x,y,z
-x,-y,z
x,-y,1/2-z
-x,y,1/2-z
-x,-y,-z
x,y,-z
-x,y,1/2+z
x,-y,1/2+z
1/2+x,1/2+y,1/2+z
1/2-x,1/2-y,1/2+z
1/2+x,1/2-y,-z
1/2-x,1/2+y,-z
1/2-x,1/2-y,1/2-z
1/2+x,1/2+y,1/2-z
1/2-x,1/2+y,z
1/2+x,1/2-y,z
loop_
_atom_site_type_symbol
_atom_site_label
_atom_site_fract_x
_atom_site_fract_y
_atom_site_fract_z
Si Si1 0.170641 0.924747 0.247392
Si Si2 0.677751 0.890643 0.366336
Si Si3 0.678123 0.009861 0.437136
Si Si4 0.500000 0.258332 0.750000
Si Si5 0.674211 0.876795 0.143117
Si Si6 0.743816 0.732262 0.165843
O O1 0.252161 0.907034 0.191934
O O2 0.259158 0.898432 0.299097
O O3 0.000000 0.904540 0.250000
O O4 0.171790 0.000000 0.250000
O O5 0.727220 0.945805 0.407047
O O6 0.501898 0.885438 0.359369
O O7 0.732339 0.820329 0.379987
O O8 0.725070 0.014223 0.500000
O O9 0.500000 0.000000 0.436780
O O10 0.723353 0.072544 0.403199
O O11 0.394685 0.286097 0.796493
O O12 0.379252 0.227239 0.709201
O O13 0.719389 0.802625 0.141929
#
# Coordination Sequence:
#
# PCOD9526654 Si02
#       6
#    16  16  16   8  16  16
#     4  11  23  34  52  88 125 155 185 227 291 359
#     4  11  22  37  58  86 117 155 192 237 284 344
#     4   9  20  41  65  84 104 143 202 255 290 329
#     4  10  20  34  50  76 128 160 188 212 278 340
#     4  11  22  37  58  86 117 155 192 237 284 344
#     4  11  22  34  49  86 118 162 185 229 274 350
#
# _framework density 18.668420000000001
#
# number of rings (size 3 to 8) (size 9 to 14) (size 15 to 20)
#    0.000    1.455    3.636    2.727    5.091    0.727 
#    0.000    0.909    0.000    2.182    0.000    0.000 
#    0.000    0.000    0.000    0.000    0.000    0.000 
#
# Total GULP energy -245048.436087 kJ/mol
# GULP energy per Si atom -5569.282638 kJ/mol
# Density = 1.862593 g / cm^3
# Si number density = 18.668420 Si / 1000 Ang^3
#
#
#
# Elastic Constant Matrix: (Units=GPa)
#
#
# Indices 1 2 3 4 5 6 
#
# 1 50.6271 31.8270 8.0423 0.0000 0.0000 0.0000
# 2 31.8270 185.6328 78.7645 0.0000 0.0000 0.0000
# 3 8.0423 78.7645 118.7899 0.0000 0.0000 0.0000
# 4 0.0000 0.0000 0.0000 0.7318 0.0000 0.0000
# 5 0.0000 0.0000 0.0000 0.0000 2.4252 0.0000
# 6 0.0000 0.0000 0.0000 0.0000 0.0000 9.4808
#
#
#
# Elastic Compliance Matrix: (Units=1/GPa)
#
#
# Indices 1 2 3 4 5 6 
#
# 1 0.022311 -0.004431 0.001427 0.000000 0.000000 0.000000
# 2 -0.004431 0.008376 -0.005254 0.000000 0.000000 0.000000
# 3 0.001427 -0.005254 0.011805 0.000000 0.000000 0.000000
# 4 0.000000 0.000000 0.000000 1.366402 0.000000 0.000000
# 5 0.000000 0.000000 0.000000 0.000000 0.412331 0.000000
# 6 0.000000 0.000000 0.000000 0.000000 0.000000 0.105476
#
#
# Mechanical properties :
#
#
# Convention : Reuss Voigt Hill
#
# Bulk Modulus (GPa) = 38.49462 65.81303 52.15383
# Shear Modulus (GPa) = 2.56164 18.28866 10.42515
#
# Velocity S-wave (km/s) = 1.17267 3.13334 2.36569
# Velocity P-wave (km/s) = 4.74326 6.95850 5.95479
#
# Compressibility (1/GPa) = 0.02597765
#
# Stress axis : x y z
#
# Youngs Moduli (GPa) = 44.82088 119.39146 84.70944
#
# Poissons Ratio (x) = 0.52902 -0.12092
# Poissons Ratio (y) = 0.19860 0.44503
# Poissons Ratio (z) = -0.06398 0.62724
#
# Static dielectric constant tensor:
#      x y z
#    x 1.673490 0.000000 0.000000 
#    y 0.000000 1.763380 0.000000 
#    z 0.000000 0.000000 1.610580 
# 
# From -- ./inp_files/42268.got.cif
#   From: 2010.05.17/outbox.cif.g08.bks.cpg/sg72_22_cif.got.tgz:42268.got - 2010.06.03 17:03:01.
