data_PCOD9526798
_publ_section_title
;
Structure prediction by ZEFSAII (Michael W. Deem and Ramdas Pophale) SiO2 
 PCOD9526798
Probable space group: I B A M
;
_chemical_formula_sum "Si O2"
_cell_formula_units_Z 92
_cell_length_a 20.851233
_cell_length_b 27.646046
_cell_length_c 9.256940
_cell_angle_alpha 90.000000
_cell_angle_beta 90.000000
_cell_angle_gamma 90.000000
_cell_volume 5336.201449
_symmetry_space_group_name_H-M "I B A M"
_symmetry_group_IT_number 72
_symmetry_cell_setting 'orthorhombic'
loop_
_space_group_symop_operation_xyz
x,y,z
-x,-y,z
x,-y,1/2-z
-x,y,1/2-z
-x,-y,-z
x,y,-z
-x,y,1/2+z
x,-y,1/2+z
1/2+x,1/2+y,1/2+z
1/2-x,1/2-y,1/2+z
1/2+x,1/2-y,-z
1/2-x,1/2+y,-z
1/2-x,1/2-y,1/2-z
1/2+x,1/2+y,1/2-z
1/2-x,1/2+y,z
1/2+x,1/2-y,z
loop_
_atom_site_type_symbol
_atom_site_label
_atom_site_fract_x
_atom_site_fract_y
_atom_site_fract_z
Si Si1 0.599864 0.000000 0.250000
Si Si2 0.831255 0.049909 0.826406
Si Si3 0.567369 0.364857 0.327699
Si Si4 0.299570 0.916795 0.328485
Si Si5 0.302983 0.182838 0.670387
Si Si6 0.158477 0.777718 0.829200
Si Si7 0.500000 0.000000 0.500000
O O1 0.645276 0.043803 0.301406
O O2 0.552867 0.984932 0.377040
O O3 0.884019 0.091091 0.798409
O O4 0.764083 0.065930 0.755715
O O5 0.850390 0.000000 0.750000
O O6 0.823927 0.044316 0.000000
O O7 0.500000 0.370706 0.250000
O O8 0.557682 0.363396 0.500000
O O9 0.603312 0.315186 0.286088
O O10 0.287354 0.912844 0.500000
O O11 0.317836 0.865085 0.260680
O O12 0.315454 0.176254 0.500000
O O13 0.227079 0.195193 0.686921
O O14 0.339043 0.229378 0.735003
O O15 0.152211 0.766064 0.000000
#
# Coordination Sequence:
#
# PCOD9526798 Si02
#       7
#     8  16  16  16  16  16   4
#     4  11  24  42  66  90 119 162 196 238 293 354
#     4  11  23  39  58  89 126 156 203 258 301 357
#     4  10  22  40  61  83 119 166 206 250 305 367
#     4  12  23  36  61  95 122 159 201 249 303 351
#     4  10  20  34  59  89 121 149 194 252 304 352
#     4   9  18  37  57  83 118 155 194 249 303 356
#     4  10  24  46  64  86 124 158 198 234 284 374
#
# _framework density 17.240728000000001
#
# number of rings (size 3 to 8) (size 9 to 14) (size 15 to 20)
#    0.000    1.565    3.478    1.565    2.435    3.130 
#    0.000    1.739    3.826    0.000    0.000    0.000 
#    0.000    0.000    0.000    0.000    0.000    0.000 
#
# Total GULP energy -256249.986570 kJ/mol
# GULP energy per Si atom -5570.651882 kJ/mol
# Density = 1.720149 g / cm^3
# Si number density = 17.240728 Si / 1000 Ang^3
#
#
#
# Elastic Constant Matrix: (Units=GPa)
#
#
# Indices 1 2 3 4 5 6 
#
# 1 89.1451 38.5287 42.3637 0.0000 0.0000 0.0000
# 2 38.5287 111.4543 54.2528 0.0000 0.0000 0.0000
# 3 42.3637 54.2528 113.9880 0.0000 0.0000 0.0000
# 4 0.0000 0.0000 0.0000 20.0357 0.0000 0.0000
# 5 0.0000 0.0000 0.0000 0.0000 29.8709 0.0000
# 6 0.0000 0.0000 0.0000 0.0000 0.0000 7.5690
#
#
#
# Elastic Compliance Matrix: (Units=1/GPa)
#
#
# Indices 1 2 3 4 5 6 
#
# 1 0.014396 -0.003088 -0.003881 0.000000 0.000000 0.000000
# 2 -0.003088 0.012340 -0.004726 0.000000 0.000000 0.000000
# 3 -0.003881 -0.004726 0.012464 0.000000 0.000000 0.000000
# 4 0.000000 0.000000 0.000000 0.049911 0.000000 0.000000
# 5 0.000000 0.000000 0.000000 0.000000 0.033477 0.000000
# 6 0.000000 0.000000 0.000000 0.000000 0.000000 0.132118
#
#
# Mechanical properties :
#
#
# Convention : Reuss Voigt Hill
#
# Bulk Modulus (GPa) = 63.24157 64.98640 64.11399
# Shear Modulus (GPa) = 17.64501 23.45794 20.55147
#
# Velocity S-wave (km/s) = 3.20261 3.69265 3.45632
# Velocity P-wave (km/s) = 7.10188 7.48039 7.29359
#
# Compressibility (1/GPa) = 0.01581238
#
# Stress axis : x y z
#
# Youngs Moduli (GPa) = 69.46171 81.03735 80.22844
#
# Poissons Ratio (x) = 0.25021 0.31136
# Poissons Ratio (y) = 0.21447 0.37914
# Poissons Ratio (z) = 0.26957 0.38296
#
# Static dielectric constant tensor:
#      x y z
#    x 1.564810 0.000000 0.000000 
#    y 0.000000 1.587800 0.000000 
#    z 0.000000 0.000000 1.573690 
# 
# From -- ./inp_files/6102.got.cif
#   From: 2010.05.17/outbox.cif.g08.bks.cpg/sg72_4_cif.got.tgz:6102.got - 2010.06.03 17:03:01.
