data_PCOD9526679
_publ_section_title
;
Structure prediction by ZEFSAII (Michael W. Deem and Ramdas Pophale) SiO2 
 PCOD9526679
Probable space group: I B A M
;
_chemical_formula_sum "Si O2"
_cell_formula_units_Z 112
_cell_length_a 12.922359
_cell_length_b 28.445436
_cell_length_c 14.925263
_cell_angle_alpha 90.000000
_cell_angle_beta 90.000000
_cell_angle_gamma 90.000000
_cell_volume 5486.260052
_symmetry_space_group_name_H-M "I B A M"
_symmetry_group_IT_number 72
_symmetry_cell_setting 'orthorhombic'
loop_
_space_group_symop_operation_xyz
x,y,z
-x,-y,z
x,-y,1/2-z
-x,y,1/2-z
-x,-y,-z
x,y,-z
-x,y,1/2+z
x,-y,1/2+z
1/2+x,1/2+y,1/2+z
1/2-x,1/2-y,1/2+z
1/2+x,1/2-y,-z
1/2-x,1/2+y,-z
1/2-x,1/2-y,1/2-z
1/2+x,1/2+y,1/2-z
1/2-x,1/2+y,z
1/2+x,1/2-y,z
loop_
_atom_site_type_symbol
_atom_site_label
_atom_site_fract_x
_atom_site_fract_y
_atom_site_fract_z
Si Si1 0.214634 0.060190 0.392188
Si Si2 0.490038 0.378864 0.150466
Si Si3 0.309864 0.845729 0.605249
Si Si4 0.387301 0.895892 0.227716
Si Si5 0.460303 0.809116 0.894122
Si Si6 0.109152 0.207454 0.898884
Si Si7 0.105617 0.969294 0.602285
O O1 0.227907 0.059584 0.500000
O O2 0.118032 0.095902 0.373308
O O3 0.314106 0.075734 0.338149
O O4 0.185202 0.007300 0.361681
O O5 0.500000 0.360435 0.250000
O O6 0.522478 0.333105 0.096046
O O7 0.576031 0.420340 0.145983
O O8 0.293351 0.859887 0.500000
O O9 0.330943 0.886420 0.677509
O O10 0.415805 0.815861 0.607514
O O11 0.211673 0.816392 0.640444
O O12 0.500000 0.916738 0.250000
O O13 0.411501 0.847529 0.172637
O O14 0.429757 0.756959 0.862366
O O15 0.430567 0.816910 0.000000
O O16 0.141544 0.219091 0.000000
O O17 0.132767 0.958083 0.500000
O O18 0.000000 0.000000 0.601215
#
# Coordination Sequence:
#
# PCOD9526679 Si02
#       7
#    16  16  16  16  16  16  16
#     4  10  20  35  57  85 117 154 197 244 294 352
#     4  11  21  32  52  85 122 155 191 232 286 353
#     4   9  19  35  51  72 107 150 191 236 296 352
#     4  10  20  35  56  81 112 150 195 246 297 346
#     4   9  19  34  52  76 108 149 196 245 294 345
#     4  10  20  34  52  76 110 152 196 239 285 344
#     4   8  16  32  51  75 111 148 180 224 286 348
#
# _framework density 20.414635000000001
#
# number of rings (size 3 to 8) (size 9 to 14) (size 15 to 20)
#    0.000    2.429    0.000    3.429    0.000    6.571 
#    0.000    2.857    0.000    0.000    0.000   18.000 
#    0.000   39.429    0.000    0.000    0.000    0.000 
#
# Total GULP energy -312135.747363 kJ/mol
# GULP energy per Si atom -5573.852631 kJ/mol
# Density = 2.036817 g / cm^3
# Si number density = 20.414635 Si / 1000 Ang^3
#
#
#
# Elastic Constant Matrix: (Units=GPa)
#
#
# Indices 1 2 3 4 5 6 
#
# 1 89.4499 37.5325 30.9449 0.0000 0.0000 0.0000
# 2 37.5325 58.2026 10.5033 0.0001 0.0000 0.0000
# 3 30.9449 10.5033 94.2949 0.0002 0.0000 0.0000
# 4 0.0000 0.0001 0.0002 16.4530 0.0000 0.0000
# 5 0.0000 0.0000 0.0000 0.0000 28.1481 0.0000
# 6 0.0000 0.0000 0.0000 0.0000 0.0000 20.0291
#
#
#
# Elastic Compliance Matrix: (Units=1/GPa)
#
#
# Indices 1 2 3 4 5 6 
#
# 1 0.016971 -0.010143 -0.004440 0.000000 0.000000 0.000000
# 2 -0.010143 0.023596 0.000700 0.000000 0.000000 0.000000
# 3 -0.004440 0.000700 0.011984 0.000000 0.000000 0.000000
# 4 0.000000 0.000000 0.000000 0.060779 0.000000 0.000000
# 5 0.000000 0.000000 0.000000 0.000000 0.035526 0.000000
# 6 0.000000 0.000000 0.000000 0.000000 0.000000 0.049927
#
#
# Mechanical properties :
#
#
# Convention : Reuss Voigt Hill
#
# Bulk Modulus (GPa) = 40.34455 44.43430 42.38942
# Shear Modulus (GPa) = 21.29377 23.79048 22.54213
#
# Velocity S-wave (km/s) = 3.23315 3.41745 3.32658
# Velocity P-wave (km/s) = 5.80889 6.11433 5.96357
#
# Compressibility (1/GPa) = 0.02478650
#
# Stress axis : x y z
#
# Youngs Moduli (GPa) = 58.92331 42.38055 83.44469
#
# Poissons Ratio (x) = 0.42986 0.37047
# Poissons Ratio (y) = 0.59765 -0.05844
# Poissons Ratio (z) = 0.26160 -0.02968
#
# Static dielectric constant tensor:
#      x y z
#    x 1.737670 0.000000 0.000000 
#    y 0.000000 1.735310 0.000000 
#    z 0.000000 0.000000 1.762990 
# 
# From -- ./inp_files/20711.got.cif
#   From: 2010.05.17/outbox.cif.g08.bks.cpg/sg72_11_cif.got.tgz:20711.got - 2010.06.03 17:03:01.
