data_PCOD9526000
_publ_section_title
;
Structure prediction by ZEFSAII (Michael W. Deem and Ramdas Pophale) SiO2 
 PCOD9526000
Probable space group: I B A M
;
_chemical_formula_sum "Si O2"
_cell_formula_units_Z 116
_cell_length_a 16.919559
_cell_length_b 20.364635
_cell_length_c 19.333063
_cell_angle_alpha 90.000000
_cell_angle_beta 90.000000
_cell_angle_gamma 90.000000
_cell_volume 6661.412626
_symmetry_space_group_name_H-M "I B A M"
_symmetry_group_IT_number 72
_symmetry_cell_setting 'orthorhombic'
loop_
_space_group_symop_operation_xyz
x,y,z
-x,-y,z
x,-y,1/2-z
-x,y,1/2-z
-x,-y,-z
x,y,-z
-x,y,1/2+z
x,-y,1/2+z
1/2+x,1/2+y,1/2+z
1/2-x,1/2-y,1/2+z
1/2+x,1/2-y,-z
1/2-x,1/2+y,-z
1/2-x,1/2-y,1/2-z
1/2+x,1/2+y,1/2-z
1/2-x,1/2+y,z
1/2+x,1/2-y,z
loop_
_atom_site_type_symbol
_atom_site_label
_atom_site_fract_x
_atom_site_fract_y
_atom_site_fract_z
Si Si1 0.688482 0.979383 0.173486
Si Si2 0.611682 0.412862 0.417860
Si Si3 0.435349 0.188422 0.583568
Si Si4 0.450104 0.932246 0.417419
Si Si5 0.714870 0.890867 0.582786
Si Si6 0.455026 0.663399 0.083657
Si Si7 0.867507 0.053177 0.655146
Si Si8 0.000000 0.000000 0.750000
O O1 0.626299 0.935221 0.131590
O O2 0.777076 0.949713 0.180583
O O3 0.660867 0.000000 0.250000
O O4 0.695708 0.043980 0.125582
O O5 0.604969 0.420265 0.500000
O O6 0.693640 0.375686 0.403264
O O7 0.535700 0.372893 0.394285
O O8 0.618160 0.485856 0.387636
O O9 0.438163 0.191218 0.500000
O O10 0.495844 0.130201 0.602012
O O11 0.347478 0.164652 0.602288
O O12 0.452897 0.261616 0.608769
O O13 0.430501 0.928456 0.500000
O O14 0.500000 0.000000 0.408403
O O15 0.706319 0.903954 0.500000
O O16 0.384403 0.617957 0.111031
O O17 0.452884 0.663730 0.000000
O O18 0.937258 0.046841 0.711106
#
# Coordination Sequence:
#
# PCOD9526000 Si02
#       8
#    16  16  16  16  16  16  16   4
#     4  11  22  34  55  86 112 137 184 242 283 327
#     4   9  17  30  53  80 103 131 171 222 275 324
#     4   9  18  34  55  79 108 143 181 224 280 343
#     4  10  19  36  60  81 106 147 191 230 280 339
#     4   9  17  33  55  77 106 143 179 220 279 339
#     4  10  19  33  54  82 110 136 179 236 285 329
#     4  11  21  35  55  78 107 141 184 222 273 332
#     4  12  20  36  58  72 102 156 190 210 260 344
#
# _framework density 17.413723999999998
#
# number of rings (size 3 to 8) (size 9 to 14) (size 15 to 20)
#    0.000    2.069    3.448    0.828    0.000    3.034 
#    2.483    0.000    3.034    0.828    0.000    0.000 
#    0.000    0.000    0.000    0.000    0.000    0.000 
#
# Total GULP energy -323135.760909 kJ/mol
# GULP energy per Si atom -5571.306223 kJ/mol
# Density = 1.737409 g / cm^3
# Si number density = 17.413724 Si / 1000 Ang^3
#
#
#
# Elastic Constant Matrix: (Units=GPa)
#
#
# Indices 1 2 3 4 5 6 
#
# 1 98.8878 43.7685 39.4783 0.0000 0.0000 0.0000
# 2 43.7685 105.9700 22.3775 0.0000 0.0000 0.0000
# 3 39.4783 22.3775 36.6500 0.0000 0.0000 0.0000
# 4 0.0000 0.0000 0.0000 -0.1619 0.0000 0.0000
# 5 0.0000 0.0000 0.0000 0.0000 25.8587 0.0000
# 6 0.0000 0.0000 0.0000 0.0000 0.0000 12.7512
#
#
#
# Elastic Compliance Matrix: (Units=1/GPa)
#
#
# Indices 1 2 3 4 5 6 
#
# 1 0.019167 -0.004083 -0.018153 0.000002 0.000000 0.000000
# 2 -0.004083 0.011703 -0.002748 0.000000 0.000000 0.000000
# 3 -0.018153 -0.002748 0.048516 -0.000004 0.000000 0.000000
# 4 0.000002 0.000000 -0.000004 -6.177073 0.000000 0.000000
# 5 0.000000 0.000000 0.000000 0.000000 0.038672 0.000000
# 6 0.000000 0.000000 0.000000 0.000000 0.000000 0.078424
#
#
# Mechanical properties :
#
#
# Convention : Reuss Voigt Hill
#
# Bulk Modulus (GPa) = 33.99101 50.30627 42.14864
# Shear Modulus (GPa) = -0.84448 16.74849 7.95201
#
# Velocity S-wave (km/s) = -0.69714 3.10465 2.13926
# Velocity P-wave (km/s) = 4.34903 6.46555 5.50987
#
# Compressibility (1/GPa) = 0.02941955
#
# Stress axis : x y z
#
# Youngs Moduli (GPa) = 52.17383 85.44648 20.61156
#
# Poissons Ratio (x) = 0.34888 0.37416
# Poissons Ratio (y) = 0.21303 0.05663
# Poissons Ratio (z) = 0.94710 0.23477
#
# Static dielectric constant tensor:
#      x y z
#    x 1.619460 0.000000 0.000000 
#    y 0.000000 1.574500 0.000000 
#    z 0.000000 0.000000 1.611360 
# 
# From -- ./inp_files/31748.got.cif
#   From: 2010.05.17/outbox.cif.g08.bks.cpg/sg72_16_cif.got.tgz:31748.got - 2010.06.03 17:03:01.
