data_PCOD9526830
_publ_section_title
;
Structure prediction by ZEFSAII (Michael W. Deem and Ramdas Pophale) SiO2 
 PCOD9526830
Probable space group: I B A M
;
_chemical_formula_sum "Si O2"
_cell_formula_units_Z 104
_cell_length_a 9.103671
_cell_length_b 21.468695
_cell_length_c 29.982717
_cell_angle_alpha 90.000000
_cell_angle_beta 90.000000
_cell_angle_gamma 90.000000
_cell_volume 5859.940225
_symmetry_space_group_name_H-M "I B A M"
_symmetry_group_IT_number 72
_symmetry_cell_setting 'orthorhombic'
loop_
_space_group_symop_operation_xyz
x,y,z
-x,-y,z
x,-y,1/2-z
-x,y,1/2-z
-x,-y,-z
x,y,-z
-x,y,1/2+z
x,-y,1/2+z
1/2+x,1/2+y,1/2+z
1/2-x,1/2-y,1/2+z
1/2+x,1/2-y,-z
1/2-x,1/2+y,-z
1/2-x,1/2-y,1/2-z
1/2+x,1/2+y,1/2-z
1/2-x,1/2+y,z
1/2+x,1/2-y,z
loop_
_atom_site_type_symbol
_atom_site_label
_atom_site_fract_x
_atom_site_fract_y
_atom_site_fract_z
Si Si1 0.825191 0.986302 0.449754
Si Si2 0.860062 0.198234 0.613907
Si Si3 0.752114 0.708142 0.812346
Si Si4 0.621693 0.810007 0.551371
Si Si5 0.160820 0.616666 0.948737
Si Si6 0.343267 0.629390 0.609779
Si Si7 0.000000 0.743441 0.750000
O O1 0.786432 0.961741 0.500000
O O2 0.814482 0.938833 0.408847
O O3 0.724999 0.047376 0.442402
O O4 0.000000 0.000000 0.451846
O O5 0.788577 0.230764 0.657224
O O6 0.925567 0.254502 0.584073
O O7 0.739435 0.163264 0.584798
O O8 0.990262 0.148706 0.620578
O O9 0.743560 0.651186 0.846522
O O10 0.602301 0.717844 0.784422
O O11 0.885355 0.703392 0.778179
O O12 0.621560 0.790746 0.500000
O O13 0.512243 0.869130 0.556038
O O14 0.781696 0.828730 0.569014
O O15 0.198920 0.633269 0.000000
#
# Coordination Sequence:
#
# PCOD9526830 Si02
#       7
#    16  16  16  16  16  16   8
#     4  10  20  35  54  76 109 157 203 233 258 304
#     4  11  20  33  53  82 116 143 183 224 278 339
#     4  10  21  36  57  89 112 141 171 225 288 354
#     4  10  21  32  48  76 113 151 185 231 279 317
#     4  10  21  35  52  77 114 158 196 228 265 313
#     4  11  21  34  53  79 111 141 189 229 271 323
#     4  10  20  38  60  82 118 138 168 222 302 356
#
# _framework density 17.747622
#
# number of rings (size 3 to 8) (size 9 to 14) (size 15 to 20)
#    0.000    1.692    3.077    2.769    2.154    3.692 
#    0.000    2.308    0.000    0.000    0.000   11.308 
#    0.000    0.000    0.000    0.000    0.000    0.000 
#
# Total GULP energy -289775.851039 kJ/mol
# GULP energy per Si atom -5572.612520 kJ/mol
# Density = 1.770723 g / cm^3
# Si number density = 17.747622 Si / 1000 Ang^3
#
#
#
# Elastic Constant Matrix: (Units=GPa)
#
#
# Indices 1 2 3 4 5 6 
#
# 1 76.7410 21.0238 38.1686 0.0000 0.0000 0.0000
# 2 21.0238 56.9986 43.6937 0.0000 0.0000 0.0000
# 3 38.1686 43.6937 105.9236 0.0000 0.0000 0.0000
# 4 0.0000 0.0000 0.0000 25.0867 0.0000 0.0000
# 5 0.0000 0.0000 0.0000 0.0000 26.6152 0.0000
# 6 0.0000 0.0000 0.0000 0.0000 0.0000 19.6502
#
#
#
# Elastic Compliance Matrix: (Units=1/GPa)
#
#
# Indices 1 2 3 4 5 6 
#
# 1 0.016059 -0.002175 -0.004889 0.000000 0.000000 0.000000
# 2 -0.002175 0.025952 -0.009922 0.000000 0.000000 0.000000
# 3 -0.004889 -0.009922 0.015295 0.000000 0.000000 0.000000
# 4 0.000000 0.000000 0.000000 0.039862 0.000000 0.000000
# 5 0.000000 0.000000 0.000000 0.000000 0.037572 0.000000
# 6 0.000000 0.000000 0.000000 0.000000 0.000000 0.050890
#
#
# Mechanical properties :
#
#
# Convention : Reuss Voigt Hill
#
# Bulk Modulus (GPa) = 42.85594 49.49282 46.17438
# Shear Modulus (GPa) = 21.98960 23.38889 22.68925
#
# Velocity S-wave (km/s) = 3.52379 3.63417 3.57941
# Velocity P-wave (km/s) = 6.38404 6.74961 6.56936
#
# Compressibility (1/GPa) = 0.02333399
#
# Stress axis : x y z
#
# Youngs Moduli (GPa) = 62.27225 38.53247 65.37999
#
# Poissons Ratio (x) = 0.08381 0.31966
# Poissons Ratio (y) = 0.13545 0.64867
# Poissons Ratio (z) = 0.30447 0.38230
#
# Static dielectric constant tensor:
#      x y z
#    x 1.646950 0.000000 0.000000 
#    y 0.000000 1.618290 0.000000 
#    z 0.000000 0.000000 1.604510 
# 
# From -- ./inp_files/50900.got.cif
#   From: 2010.05.17/outbox.cif.g08.bks.cpg/sg72_26_cif.got.tgz:50900.got - 2010.06.03 17:03:01.
