data_PCOD9526246
_publ_section_title
;
Structure prediction by ZEFSAII (Michael W. Deem and Ramdas Pophale) SiO2 
 PCOD9526246
Probable space group: I B A M
;
_chemical_formula_sum "Si O2"
_cell_formula_units_Z 80
_cell_length_a 28.533514
_cell_length_b 9.023555
_cell_length_c 16.492122
_cell_angle_alpha 90.000000
_cell_angle_beta 90.000000
_cell_angle_gamma 90.000000
_cell_volume 4246.288215
_symmetry_space_group_name_H-M "I B A M"
_symmetry_group_IT_number 72
_symmetry_cell_setting 'orthorhombic'
loop_
_space_group_symop_operation_xyz
x,y,z
-x,-y,z
x,-y,1/2-z
-x,y,1/2-z
-x,-y,-z
x,y,-z
-x,y,1/2+z
x,-y,1/2+z
1/2+x,1/2+y,1/2+z
1/2-x,1/2-y,1/2+z
1/2+x,1/2-y,-z
1/2-x,1/2+y,-z
1/2-x,1/2-y,1/2-z
1/2+x,1/2+y,1/2-z
1/2-x,1/2+y,z
1/2+x,1/2-y,z
loop_
_atom_site_type_symbol
_atom_site_label
_atom_site_fract_x
_atom_site_fract_y
_atom_site_fract_z
Si Si1 0.613404 0.904969 0.591084
Si Si2 0.448571 0.823960 0.770277
Si Si3 0.289498 0.575812 0.403701
Si Si4 0.143181 0.291090 0.678928
Si Si5 0.801560 0.249044 0.656352
O O1 0.601493 0.945805 0.500000
O O2 0.633348 0.049626 0.638305
O O3 0.569880 0.830351 0.637784
O O4 0.656077 0.790913 0.596595
O O5 0.500000 0.764991 0.750000
O O6 0.407059 0.749848 0.718111
O O7 0.449324 0.000000 0.750000
O O8 0.285203 0.547223 0.500000
O O9 0.334653 0.677137 0.384236
O O10 0.244132 0.663592 0.371890
O O11 0.292619 0.424559 0.353313
O O12 0.179705 0.293875 0.754355
#
# Coordination Sequence:
#
# PCOD9526246 Si02
#       5
#    16  16  16  16  16
#     4  10  19  35  57  83 110 142 181 227 269 311
#     4   8  16  33  55  80 110 140 176 218 268 326
#     4  12  23  36  54  80 109 141 183 231 271 318
#     4  10  21  36  56  79 107 142 180 220 268 328
#     4  11  23  38  54  75 108 148 182 219 272 328
#
# _framework density 18.839983
#
# number of rings (size 3 to 8) (size 9 to 14) (size 15 to 20)
#    0.000    1.800    0.000    6.600    0.000    1.600 
#    0.000    9.000    0.000    9.600    0.000    7.000 
#    0.000    0.000    0.000    0.000    0.000    0.000 
#
# Total GULP energy -223171.262181 kJ/mol
# GULP energy per Si atom -5579.281555 kJ/mol
# Density = 1.879710 g / cm^3
# Si number density = 18.839983 Si / 1000 Ang^3
#
#
#
# Elastic Constant Matrix: (Units=GPa)
#
#
# Indices 1 2 3 4 5 6 
#
# 1 130.1135 36.8871 54.0589 0.0000 0.0000 0.0000
# 2 36.8871 62.9560 13.0902 0.0000 0.0000 0.0000
# 3 54.0589 13.0902 101.2862 0.0000 0.0000 0.0000
# 4 0.0000 0.0000 0.0000 23.2400 0.0000 0.0000
# 5 0.0000 0.0000 0.0000 0.0000 4.2006 0.0000
# 6 0.0000 0.0000 0.0000 0.0000 0.0000 18.7683
#
#
#
# Elastic Compliance Matrix: (Units=1/GPa)
#
#
# Indices 1 2 3 4 5 6 
#
# 1 0.011538 -0.005631 -0.005430 0.000000 0.000000 0.000000
# 2 -0.005631 0.019071 0.000541 0.000000 0.000000 0.000000
# 3 -0.005430 0.000541 0.012701 0.000000 0.000000 0.000000
# 4 0.000000 0.000000 0.000000 0.043029 0.000000 0.000000
# 5 0.000000 0.000000 0.000000 0.000000 0.238063 0.000000
# 6 0.000000 0.000000 0.000000 0.000000 0.000000 0.053281
#
#
# Mechanical properties :
#
#
# Convention : Reuss Voigt Hill
#
# Bulk Modulus (GPa) = 44.90554 55.82536 50.36545
# Shear Modulus (GPa) = 12.31074 21.92973 17.12024
#
# Velocity S-wave (km/s) = 2.55901 3.41545 3.01777
# Velocity P-wave (km/s) = 5.71125 6.72676 6.23970
#
# Compressibility (1/GPa) = 0.02226897
#
# Stress axis : x y z
#
# Youngs Moduli (GPa) = 86.66771 52.43514 78.73091
#
# Poissons Ratio (x) = 0.29528 0.42755
# Poissons Ratio (y) = 0.48806 -0.04258
# Poissons Ratio (z) = 0.47065 -0.02836
#
# Static dielectric constant tensor:
#      x y z
#    x 1.665500 0.000000 0.000000 
#    y 0.000000 1.643240 0.000000 
#    z 0.000000 0.000000 1.703050 
# 
# From -- ./inp_files/33777.got.cif
#   From: 2010.05.17/outbox.cif.g08.bks.cpg/sg72_17_cif.got.tgz:33777.got - 2010.06.03 17:03:01.
