data_PCOD9526925
_publ_section_title
;
Structure prediction by ZEFSAII (Michael W. Deem and Ramdas Pophale) SiO2 
 PCOD9526925
Probable space group: I B A M
;
_chemical_formula_sum "Si O2"
_cell_formula_units_Z 112
_cell_length_a 26.430128
_cell_length_b 14.588844
_cell_length_c 13.985498
_cell_angle_alpha 90.000000
_cell_angle_beta 90.000000
_cell_angle_gamma 90.000000
_cell_volume 5392.598446
_symmetry_space_group_name_H-M "I B A M"
_symmetry_group_IT_number 72
_symmetry_cell_setting 'orthorhombic'
loop_
_space_group_symop_operation_xyz
x,y,z
-x,-y,z
x,-y,1/2-z
-x,y,1/2-z
-x,-y,-z
x,y,-z
-x,y,1/2+z
x,-y,1/2+z
1/2+x,1/2+y,1/2+z
1/2-x,1/2-y,1/2+z
1/2+x,1/2-y,-z
1/2-x,1/2+y,-z
1/2-x,1/2-y,1/2-z
1/2+x,1/2+y,1/2-z
1/2-x,1/2+y,z
1/2+x,1/2-y,z
loop_
_atom_site_type_symbol
_atom_site_label
_atom_site_fract_x
_atom_site_fract_y
_atom_site_fract_z
Si Si1 0.339012 0.406354 0.885033
Si Si2 0.061364 0.603388 0.741263
Si Si3 0.764542 0.393586 0.734501
Si Si4 0.081610 0.746676 0.112933
Si Si5 0.386440 0.596539 0.111319
Si Si6 0.535949 0.264985 0.114522
Si Si7 0.210961 0.226678 0.888210
O O1 0.288155 0.399047 0.824710
O O2 0.376747 0.322682 0.866128
O O3 0.367248 0.499077 0.855326
O O4 0.328460 0.409839 0.000000
O O5 0.079762 0.500000 0.750000
O O6 0.089191 0.656211 0.826189
O O7 0.063291 0.672626 0.651705
O O8 0.000000 0.597880 0.750000
O O9 0.781051 0.500000 0.750000
O O10 0.795944 0.322393 0.668610
O O11 0.751908 0.337093 0.831962
O O12 0.023403 0.771927 0.137984
O O13 0.082961 0.729052 0.000000
O O14 0.434208 0.647742 0.155159
O O15 0.340256 0.667804 0.115079
O O16 0.399253 0.580075 0.000000
O O17 0.539400 0.263900 0.000000
O O18 0.224534 0.241273 0.000000
#
# Coordination Sequence:
#
# PCOD9526925 Si02
#       7
#    16  16  16  16  16  16  16
#     4  10  20  35  58  87 120 156 192 238 290 350
#     4   9  18  32  50  72  99 141 191 240 288 333
#     4  11  22  37  63  91 114 154 200 242 296 357
#     4   9  19  33  52  82 117 152 194 241 289 339
#     4   9  18  34  57  82 114 155 193 233 291 352
#     4   9  18  33  53  79 113 153 196 241 287 344
#     4  10  22  39  59  86 117 150 193 244 296 355
#
# _framework density 20.769207999999999
#
# number of rings (size 3 to 8) (size 9 to 14) (size 15 to 20)
#    0.000    2.429    1.429    0.429    2.000    1.714 
#    0.000    6.429    0.000    2.571    0.000    0.000 
#    0.000    0.000    0.000    0.000    0.000    0.000 
#
# Total GULP energy -312329.192113 kJ/mol
# GULP energy per Si atom -5577.307002 kJ/mol
# Density = 2.072194 g / cm^3
# Si number density = 20.769208 Si / 1000 Ang^3
#
#
#
# Elastic Constant Matrix: (Units=GPa)
#
#
# Indices 1 2 3 4 5 6 
#
# 1 16.1990 27.0184 9.0613 0.0000 0.0000 0.0000
# 2 27.0184 157.1431 35.0449 0.0000 0.0000 0.0000
# 3 9.0613 35.0449 81.2449 0.0000 0.0000 0.0000
# 4 0.0000 0.0000 0.0000 29.3952 0.0000 0.0000
# 5 0.0000 0.0000 0.0000 0.0000 9.6394 0.0000
# 6 0.0000 0.0000 0.0000 0.0000 0.0000 144.9576
#
#
#
# Elastic Compliance Matrix: (Units=1/GPa)
#
#
# Indices 1 2 3 4 5 6 
#
# 1 0.087503 -0.014238 -0.003618 0.000000 0.000000 0.000000
# 2 -0.014238 0.009358 -0.002448 0.000000 0.000000 0.000000
# 3 -0.003618 -0.002448 0.013768 0.000000 0.000000 0.000000
# 4 0.000000 0.000000 0.000000 0.034019 0.000000 0.000000
# 5 0.000000 0.000000 0.000000 0.000000 0.103741 0.000000
# 6 0.000000 0.000000 0.000000 0.000000 0.000000 0.006899
#
#
# Mechanical properties :
#
#
# Convention : Reuss Voigt Hill
#
# Bulk Modulus (GPa) = 14.28150 44.09291 29.18720
# Shear Modulus (GPa) = 15.66234 49.02925 32.34579
#
# Velocity S-wave (km/s) = 2.74909 4.86394 3.95066
# Velocity P-wave (km/s) = 4.11921 7.26773 5.90711
#
# Compressibility (1/GPa) = 0.07002066
#
# Stress axis : x y z
#
# Youngs Moduli (GPa) = 11.42812 106.86402 72.63169
#
# Poissons Ratio (x) = 1.52154 0.26276
# Poissons Ratio (y) = 0.16271 0.17783
# Poissons Ratio (z) = 0.04134 0.26165
#
# Static dielectric constant tensor:
#      x y z
#    x 1.765400 0.000000 0.000000 
#    y 0.000000 1.747240 0.000000 
#    z 0.000000 0.000000 1.788960 
# 
# From -- ./inp_files/26388.got.cif
#   From: 2010.05.17/outbox.cif.g08.bks.cpg/sg72_14_cif.got.tgz:26388.got - 2010.06.03 17:03:01.
