data_PCOD9526739
_publ_section_title
;
Structure prediction by ZEFSAII (Michael W. Deem and Ramdas Pophale) SiO2 
 PCOD9526739
Probable space group: I B A M
;
_chemical_formula_sum "Si O2"
_cell_formula_units_Z 116
_cell_length_a 30.302279
_cell_length_b 23.090887
_cell_length_c 8.677289
_cell_angle_alpha 90.000000
_cell_angle_beta 90.000000
_cell_angle_gamma 90.000000
_cell_volume 6071.555518
_symmetry_space_group_name_H-M "I B A M"
_symmetry_group_IT_number 72
_symmetry_cell_setting 'orthorhombic'
loop_
_space_group_symop_operation_xyz
x,y,z
-x,-y,z
x,-y,1/2-z
-x,y,1/2-z
-x,-y,-z
x,y,-z
-x,y,1/2+z
x,-y,1/2+z
1/2+x,1/2+y,1/2+z
1/2-x,1/2-y,1/2+z
1/2+x,1/2-y,-z
1/2-x,1/2+y,-z
1/2-x,1/2-y,1/2-z
1/2+x,1/2+y,1/2-z
1/2-x,1/2+y,z
1/2+x,1/2-y,z
loop_
_atom_site_type_symbol
_atom_site_label
_atom_site_fract_x
_atom_site_fract_y
_atom_site_fract_z
Si Si1 0.912086 0.557446 0.314825
Si Si2 0.265075 0.062360 0.315763
Si Si3 0.359063 0.271756 0.184911
Si Si4 0.000000 0.500000 0.750000
Si Si5 0.845011 0.646677 0.815455
Si Si6 0.577530 0.561702 0.683899
Si Si7 0.326219 0.608519 0.184450
Si Si8 0.954552 0.818320 0.316274
O O1 0.887364 0.500000 0.250000
O O2 0.916935 0.553982 0.500000
O O3 0.886009 0.613690 0.263380
O O4 0.960458 0.549025 0.238849
O O5 0.262986 0.059231 0.500000
O O6 0.301231 0.110612 0.273036
O O7 0.217298 0.079448 0.251185
O O8 0.277693 0.000000 0.250000
O O9 0.342925 0.212208 0.257869
O O10 0.332833 0.327413 0.246714
O O11 0.410477 0.283136 0.227413
O O12 0.355864 0.269460 0.000000
O O13 0.850075 0.644746 0.000000
O O14 0.563385 0.500000 0.750000
O O15 0.572980 0.562056 0.500000
O O16 0.629182 0.573120 0.723632
O O17 0.552201 0.616669 0.752820
O O18 0.323403 0.611804 0.000000
O O19 0.956841 0.820413 0.500000
O O20 0.000000 0.794008 0.250000
#
# Coordination Sequence:
#
# PCOD9526739 Si02
#       8
#    16  16  16   4  16  16  16  16
#     4  10  20  36  59  85 116 151 191 240 295 351
#     4  11  24  40  60  89 121 155 193 237 290 346
#     4  10  22  41  63  86 115 153 196 242 291 345
#     4   8  22  36  62  88 118 152 198 244 300 360
#     4  11  24  40  60  86 119 157 198 244 294 348
#     4  10  20  34  55  84 116 150 189 235 285 340
#     4  10  21  38  62  88 117 154 195 240 288 343
#     4  10  21  38  59  83 112 148 189 236 289 343
#
# _framework density 19.105484000000001
#
# number of rings (size 3 to 8) (size 9 to 14) (size 15 to 20)
#    0.414    1.379    0.000    3.931    0.000    8.552 
#    1.241    1.379    0.000    0.000    0.000    0.000 
#    0.000    0.000    0.000    0.000    0.000    0.000 
#
# Total GULP energy -323393.998508 kJ/mol
# GULP energy per Si atom -5575.758595 kJ/mol
# Density = 1.906200 g / cm^3
# Si number density = 19.105484 Si / 1000 Ang^3
#
#
#
# Elastic Constant Matrix: (Units=GPa)
#
#
# Indices 1 2 3 4 5 6 
#
# 1 88.7313 15.3748 77.9898 0.0000 0.0000 0.0000
# 2 15.3748 91.9839 43.4519 0.0000 0.0000 0.0000
# 3 77.9898 43.4519 512.9371 0.0000 0.0000 0.0000
# 4 0.0000 0.0000 0.0000 31.5130 0.0000 0.0000
# 5 0.0000 0.0000 0.0000 0.0000 16.0578 0.0000
# 6 0.0000 0.0000 0.0000 0.0000 0.0000 16.7976
#
#
#
# Elastic Compliance Matrix: (Units=1/GPa)
#
#
# Indices 1 2 3 4 5 6 
#
# 1 0.013157 -0.001306 -0.001890 0.000000 0.000000 0.000000
# 2 -0.001306 0.011454 -0.000772 0.000000 0.000000 0.000000
# 3 -0.001890 -0.000772 0.002302 0.000000 0.000000 0.000000
# 4 0.000000 0.000000 0.000000 0.031733 0.000000 0.000000
# 5 0.000000 0.000000 0.000000 0.000000 0.062275 0.000000
# 6 0.000000 0.000000 0.000000 0.000000 0.000000 0.059532
#
#
# Mechanical properties :
#
#
# Convention : Reuss Voigt Hill
#
# Bulk Modulus (GPa) = 52.69247 107.47615 80.08431
# Shear Modulus (GPa) = 25.67833 49.99605 37.83719
#
# Velocity S-wave (km/s) = 3.67008 5.12106 4.45504
# Velocity P-wave (km/s) = 6.75270 9.55736 8.27472
#
# Compressibility (1/GPa) = 0.01897805
#
# Stress axis : x y z
#
# Youngs Moduli (GPa) = 76.00262 87.30292 434.35376
#
# Poissons Ratio (x) = 0.11406 0.82087
# Poissons Ratio (y) = 0.09930 0.33518
# Poissons Ratio (z) = 0.14363 0.06737
#
# Static dielectric constant tensor:
#      x y z
#    x 1.667960 0.000000 0.000000 
#    y 0.000000 1.671880 0.000000 
#    z 0.000000 0.000000 1.652900 
# 
# From -- ./inp_files/8428.got.cif
#   From: 2010.05.17/outbox.cif.g08.bks.cpg/sg72_5_cif.got.tgz:8428.got - 2010.06.03 17:03:01.
