data_PCOD9526002
_publ_section_title
;
Structure prediction by ZEFSAII (Michael W. Deem and Ramdas Pophale) SiO2 
 PCOD9526002
Probable space group: I B A M
;
_chemical_formula_sum "Si O2"
_cell_formula_units_Z 96
_cell_length_a 10.838108
_cell_length_b 19.285996
_cell_length_c 24.238785
_cell_angle_alpha 90.000000
_cell_angle_beta 90.000000
_cell_angle_gamma 90.000000
_cell_volume 5066.480707
_symmetry_space_group_name_H-M "I B A M"
_symmetry_group_IT_number 72
_symmetry_cell_setting 'orthorhombic'
loop_
_space_group_symop_operation_xyz
x,y,z
-x,-y,z
x,-y,1/2-z
-x,y,1/2-z
-x,-y,-z
x,y,-z
-x,y,1/2+z
x,-y,1/2+z
1/2+x,1/2+y,1/2+z
1/2-x,1/2-y,1/2+z
1/2+x,1/2-y,-z
1/2-x,1/2+y,-z
1/2-x,1/2-y,1/2-z
1/2+x,1/2+y,1/2-z
1/2-x,1/2+y,z
1/2+x,1/2-y,z
loop_
_atom_site_type_symbol
_atom_site_label
_atom_site_fract_x
_atom_site_fract_y
_atom_site_fract_z
Si Si1 0.809755 0.577974 0.249375
Si Si2 0.123632 0.925085 0.347928
Si Si3 0.369397 0.719549 0.594101
Si Si4 0.660817 0.422999 0.640517
Si Si5 0.640224 0.691323 0.439115
Si Si6 0.377061 0.772672 0.720055
O O1 0.863906 0.500000 0.250000
O O2 0.692957 0.574729 0.290178
O O3 0.761358 0.591853 0.187629
O O4 0.881452 0.643665 0.273981
O O5 0.153325 0.862716 0.389032
O O6 0.978469 0.920381 0.336025
O O7 0.166001 0.996859 0.377065
O O8 0.337444 0.637648 0.595932
O O9 0.506716 0.727581 0.569641
O O10 0.257694 0.758710 0.565077
O O11 0.374380 0.746419 0.657469
O O12 0.638153 0.658475 0.500000
O O13 0.500000 0.744513 0.750000
O O14 0.250000 0.750000 0.750000
#
# Coordination Sequence:
#
# PCOD9526002 Si02
#       6
#    16  16  16  16  16  16
#     4  10  19  33  54  83 119 156 188 225 285 358
#     4   9  18  34  53  85 114 153 186 239 290 342
#     4  11  22  38  59  86 117 150 194 244 295 347
#     4   9  18  31  56  84 119 146 186 231 290 358
#     4  11  23  40  61  83 112 153 203 252 296 338
#     4  12  24  36  57  89 122 156 188 230 291 361
#
# _framework density 18.948065
#
# number of rings (size 3 to 8) (size 9 to 14) (size 15 to 20)
#    0.000    1.667    3.333    2.000    2.333    2.333 
#    0.000    7.500    0.000    1.000    0.000    2.333 
#    0.000    0.000    0.000    0.000    0.000    0.000 
#
# Total GULP energy -267628.541318 kJ/mol
# GULP energy per Si atom -5575.594611 kJ/mol
# Density = 1.890494 g / cm^3
# Si number density = 18.948065 Si / 1000 Ang^3
#
#
#
# Elastic Constant Matrix: (Units=GPa)
#
#
# Indices 1 2 3 4 5 6 
#
# 1 79.8592 18.3633 16.7179 0.0000 0.0000 0.0000
# 2 18.3633 74.5228 -6.7854 0.0000 0.0000 0.0000
# 3 16.7179 -6.7854 48.7315 0.0000 0.0000 0.0000
# 4 0.0000 0.0000 0.0000 8.3418 0.0000 0.0000
# 5 0.0000 0.0000 0.0000 0.0000 -7.4174 0.0000
# 6 0.0000 0.0000 0.0000 0.0000 0.0000 19.7832
#
#
#
# Elastic Compliance Matrix: (Units=1/GPa)
#
#
# Indices 1 2 3 4 5 6 
#
# 1 0.014640 -0.004117 -0.005596 0.000000 0.000000 0.000000
# 2 -0.004117 0.014749 0.003466 0.000000 0.000000 0.000000
# 3 -0.005596 0.003466 0.022923 0.000000 0.000000 0.000000
# 4 0.000000 0.000000 0.000000 0.119879 0.000000 0.000000
# 5 0.000000 0.000000 0.000000 0.000000 -0.134818 0.000000
# 6 0.000000 0.000000 0.000000 0.000000 0.000000 0.050548
#
#
# Mechanical properties :
#
#
# Convention : Reuss Voigt Hill
#
# Bulk Modulus (GPa) = 25.11402 28.85613 26.98508
# Shear Modulus (GPa) = 43.98033 15.79601 29.88817
#
# Velocity S-wave (km/s) = 4.82300 2.89043 3.97592
# Velocity P-wave (km/s) = 6.65568 5.13824 5.94557
#
# Compressibility (1/GPa) = 0.03981839
#
# Stress axis : x y z
#
# Youngs Moduli (GPa) = 68.30528 67.80219 43.62447
#
# Poissons Ratio (x) = 0.27914 0.24411
# Poissons Ratio (y) = 0.28121 -0.15120
# Poissons Ratio (z) = 0.38222 -0.23500
#
# Static dielectric constant tensor:
#      x y z
#    x 1.674860 0.000000 0.000000 
#    y 0.000000 1.732080 0.000000 
#    z 0.000000 0.000000 1.614340 
# 
# From -- ./inp_files/43366.got.cif
#   From: 2010.05.17/outbox.cif.g08.bks.cpg/sg72_22_cif.got.tgz:43366.got - 2010.06.03 17:03:01.
