data_PCOD9526467
_publ_section_title
;
Structure prediction by ZEFSAII (Michael W. Deem and Ramdas Pophale) SiO2 
 PCOD9526467
Probable space group: I B A M
;
_chemical_formula_sum "Si O2"
_cell_formula_units_Z 116
_cell_length_a 11.944209
_cell_length_b 29.860352
_cell_length_c 15.559263
_cell_angle_alpha 90.000000
_cell_angle_beta 90.000000
_cell_angle_gamma 90.000000
_cell_volume 5549.340059
_symmetry_space_group_name_H-M "I B A M"
_symmetry_group_IT_number 72
_symmetry_cell_setting 'orthorhombic'
loop_
_space_group_symop_operation_xyz
x,y,z
-x,-y,z
x,-y,1/2-z
-x,y,1/2-z
-x,-y,-z
x,y,-z
-x,y,1/2+z
x,-y,1/2+z
1/2+x,1/2+y,1/2+z
1/2-x,1/2-y,1/2+z
1/2+x,1/2-y,-z
1/2-x,1/2+y,-z
1/2-x,1/2-y,1/2-z
1/2+x,1/2+y,1/2-z
1/2-x,1/2+y,z
1/2+x,1/2-y,z
loop_
_atom_site_type_symbol
_atom_site_label
_atom_site_fract_x
_atom_site_fract_y
_atom_site_fract_z
Si Si1 0.221334 0.424226 0.602577
Si Si2 0.644314 0.816353 0.659620
Si Si3 0.187507 0.106979 0.397071
Si Si4 0.183011 0.989994 0.844345
Si Si5 0.816082 0.780254 0.902070
Si Si6 0.000000 0.000000 0.000000
Si Si7 0.102430 0.664077 0.140724
Si Si8 0.437648 0.367125 0.605077
O O1 0.225317 0.428265 0.500000
O O2 0.219810 0.473174 0.642554
O O3 0.126871 0.388058 0.624011
O O4 0.339172 0.400975 0.631256
O O5 0.733000 0.851554 0.623417
O O6 0.685853 0.765730 0.648738
O O7 0.522610 0.822161 0.616300
O O8 0.623811 0.826991 0.759017
O O9 0.184551 0.100050 0.500000
O O10 0.223250 0.061098 0.351980
O O11 0.060278 0.117759 0.368208
O O12 0.134591 0.000000 0.750000
O O13 0.096571 0.996840 0.923327
O O14 0.697920 0.806101 0.903752
O O15 0.903120 0.817288 0.866835
O O16 0.847846 0.769293 0.000000
O O17 0.436493 0.366988 0.500000
#
# Coordination Sequence:
#
# PCOD9526467 Si02
#       8
#    16  16  16  16  16   4  16  16
#     4  10  19  39  67  89 123 169 220 264 320 401
#     4  11  24  40  62  90 129 167 213 271 334 386
#     4  11  22  39  62  96 135 167 212 281 327 392
#     4  12  24  39  64  95 137 179 221 271 338 397
#     4  10  21  39  63  90 119 164 216 264 323 400
#     4  12  22  40  60  98 134 176 226 268 324 396
#     4  10  23  43  62  88 125 166 218 270 321 400
#     4   8  18  34  57  87 122 159 204 260 321 379
#
# _framework density 20.903386999999999
#
# number of rings (size 3 to 8) (size 9 to 14) (size 15 to 20)
#    0.000    1.655    1.379    3.931    3.862    2.207 
#    0.000    5.517    0.000    4.138    0.000    0.000 
#    0.000    0.000    0.000    0.000    0.000    0.000 
#
# Total GULP energy -323565.161640 kJ/mol
# GULP energy per Si atom -5578.709683 kJ/mol
# Density = 2.085581 g / cm^3
# Si number density = 20.903387 Si / 1000 Ang^3
#
#
#
# Elastic Constant Matrix: (Units=GPa)
#
#
# Indices 1 2 3 4 5 6 
#
# 1 46.9463 24.5393 -3.0206 0.0000 0.0000 0.0000
# 2 24.5393 158.2274 18.5586 0.0001 0.0001 0.0000
# 3 -3.0206 18.5586 82.3013 0.0005 0.0005 -0.0002
# 4 0.0000 0.0001 0.0005 27.7941 0.0002 -0.0001
# 5 0.0000 0.0001 0.0005 0.0002 3.2251 0.0000
# 6 0.0000 0.0000 -0.0002 -0.0001 0.0000 -13.2964
#
#
#
# Elastic Compliance Matrix: (Units=1/GPa)
#
#
# Indices 1 2 3 4 5 6 
#
# 1 0.023416 -0.003834 0.001724 0.000000 -0.000001 0.000000
# 2 -0.003834 0.007119 -0.001746 0.000000 0.000000 0.000000
# 3 0.001724 -0.001746 0.012607 0.000000 -0.000002 0.000000
# 4 0.000000 0.000000 0.000000 0.035979 -0.000002 0.000000
# 5 -0.000001 0.000000 -0.000002 -0.000002 0.310070 -0.000001
# 6 0.000000 0.000000 0.000000 0.000000 -0.000001 -0.075208
#
#
# Mechanical properties :
#
#
# Convention : Reuss Voigt Hill
#
# Bulk Modulus (GPa) = 28.22404 40.84773 34.53589
# Shear Modulus (GPa) = 14.99226 20.03774 17.51500
#
# Velocity S-wave (km/s) = 2.68100 3.09947 2.89779
# Velocity P-wave (km/s) = 4.80782 5.69145 5.26819
#
# Compressibility (1/GPa) = 0.03543079
#
# Stress axis : x y z
#
# Youngs Moduli (GPa) = 42.70625 140.46152 79.31797
#
# Poissons Ratio (x) = 0.53849 -0.13674
# Poissons Ratio (y) = 0.16372 0.13850
# Poissons Ratio (z) = -0.07362 0.24526
#
# Static dielectric constant tensor:
#      x y z
#    x 1.730020 0.000000 0.000000 
#    y 0.000000 1.760250 0.000000 
#    z 0.000000 0.000000 1.778660 
# 
# From -- ./inp_files/29721.got.cif
#   From: 2010.05.17/outbox.cif.g08.bks.cpg/sg72_15_cif.got.tgz:29721.got - 2010.06.03 17:03:01.
