data_PCOD9526146
_publ_section_title
;
Structure prediction by ZEFSAII (Michael W. Deem and Ramdas Pophale) SiO2 
 PCOD9526146
Probable space group: I B A M
;
_chemical_formula_sum "Si O2"
_cell_formula_units_Z 112
_cell_length_a 27.332970
_cell_length_b 11.275687
_cell_length_c 20.360977
_cell_angle_alpha 90.000000
_cell_angle_beta 90.000000
_cell_angle_gamma 90.000000
_cell_volume 6275.212685
_symmetry_space_group_name_H-M "I B A M"
_symmetry_group_IT_number 72
_symmetry_cell_setting 'orthorhombic'
loop_
_space_group_symop_operation_xyz
x,y,z
-x,-y,z
x,-y,1/2-z
-x,y,1/2-z
-x,-y,-z
x,y,-z
-x,y,1/2+z
x,-y,1/2+z
1/2+x,1/2+y,1/2+z
1/2-x,1/2-y,1/2+z
1/2+x,1/2-y,-z
1/2-x,1/2+y,-z
1/2-x,1/2-y,1/2-z
1/2+x,1/2+y,1/2-z
1/2-x,1/2+y,z
1/2+x,1/2-y,z
loop_
_atom_site_type_symbol
_atom_site_label
_atom_site_fract_x
_atom_site_fract_y
_atom_site_fract_z
Si Si1 0.439833 0.772588 0.820443
Si Si2 0.051754 0.067937 0.925804
Si Si3 0.049027 0.685008 0.825327
Si Si4 0.283194 0.031407 0.920482
Si Si5 0.889980 0.833544 0.424124
Si Si6 0.220804 0.201277 0.579377
Si Si7 0.370242 0.984102 0.822825
O O1 0.441249 0.662881 0.869208
O O2 0.441905 0.744435 0.742864
O O3 0.491628 0.839643 0.831821
O O4 0.392695 0.853870 0.832115
O O5 0.094446 0.970401 0.922141
O O6 0.051692 0.119536 0.000000
O O7 0.000000 0.000000 0.917975
O O8 0.069629 0.762078 0.884434
O O9 0.082593 0.569597 0.821502
O O10 0.262260 0.163825 0.904400
O O11 0.333621 0.019103 0.880536
O O12 0.251416 0.915400 0.900694
O O13 0.290140 0.028066 0.000000
O O14 0.890844 0.795150 0.500000
O O15 0.835438 0.811863 0.397809
O O16 0.220091 0.195617 0.500000
O O17 0.347194 0.000000 0.750000
#
# Coordination Sequence:
#
# PCOD9526146 Si02
#       7
#    16  16  16  16  16  16  16
#     4  10  21  34  53  82 111 149 189 228 269 331
#     4  10  20  34  52  78 114 148 182 229 282 328
#     4  10  19  35  56  79 110 149 189 228 270 330
#     4  10  20  37  61  85 109 144 189 236 288 348
#     4  10  19  34  57  80 108 146 181 225 283 333
#     4   9  19  35  59  85 107 138 186 237 285 339
#     4  10  21  37  57  80 114 147 185 233 285 329
#
# _framework density 17.848001
#
# number of rings (size 3 to 8) (size 9 to 14) (size 15 to 20)
#    0.000    2.143    2.857    0.429    0.000    4.000 
#    0.000    3.571    3.143    2.571    0.000    0.000 
#    0.000    0.000    0.000    0.000    0.000    0.000 
#
# Total GULP energy -311962.361039 kJ/mol
# GULP energy per Si atom -5570.756447 kJ/mol
# Density = 1.780738 g / cm^3
# Si number density = 17.848001 Si / 1000 Ang^3
#
#
#
# Elastic Constant Matrix: (Units=GPa)
#
#
# Indices 1 2 3 4 5 6 
#
# 1 59.0488 31.3519 23.3441 0.0000 0.0000 0.0000
# 2 31.3519 89.6631 43.4660 0.0000 0.0000 0.0000
# 3 23.3441 43.4660 67.2893 0.0000 0.0000 0.0000
# 4 0.0000 0.0000 0.0000 21.4428 0.0000 0.0000
# 5 0.0000 0.0000 0.0000 0.0000 17.7727 0.0000
# 6 0.0000 0.0000 0.0000 0.0000 0.0000 21.2066
#
#
#
# Elastic Compliance Matrix: (Units=1/GPa)
#
#
# Indices 1 2 3 4 5 6 
#
# 1 0.021436 -0.005664 -0.003778 0.000000 0.000000 0.000000
# 2 -0.005664 0.017734 -0.009490 0.000000 0.000000 0.000000
# 3 -0.003778 -0.009490 0.022302 0.000000 0.000000 0.000000
# 4 0.000000 0.000000 0.000000 0.046636 0.000000 0.000000
# 5 0.000000 0.000000 0.000000 0.000000 0.056266 0.000000
# 6 0.000000 0.000000 0.000000 0.000000 0.000000 0.047155
#
#
# Mechanical properties :
#
#
# Convention : Reuss Voigt Hill
#
# Bulk Modulus (GPa) = 42.35927 45.81390 44.08659
# Shear Modulus (GPa) = 19.43537 19.94038 19.68788
#
# Velocity S-wave (km/s) = 3.30349 3.34613 3.32488
# Velocity P-wave (km/s) = 6.19157 6.37600 6.28446
#
# Compressibility (1/GPa) = 0.02360758
#
# Stress axis : x y z
#
# Youngs Moduli (GPa) = 46.65066 56.38873 44.83847
#
# Poissons Ratio (x) = 0.31938 0.16940
# Poissons Ratio (y) = 0.26423 0.42554
# Poissons Ratio (z) = 0.17624 0.53516
#
# Static dielectric constant tensor:
#      x y z
#    x 1.608660 0.000000 0.000000 
#    y 0.000000 1.633810 0.000000 
#    z 0.000000 0.000000 1.604610 
# 
# From -- ./inp_files/40349.got.cif
#   From: 2010.05.17/outbox.cif.g08.bks.cpg/sg72_21_cif.got.tgz:40349.got - 2010.06.03 17:03:01.
