data_PCOD9526281
_publ_section_title
;
Structure prediction by ZEFSAII (Michael W. Deem and Ramdas Pophale) SiO2 
 PCOD9526281
Probable space group: I B A M
;
_chemical_formula_sum "Si O2"
_cell_formula_units_Z 112
_cell_length_a 14.074121
_cell_length_b 23.161305
_cell_length_c 15.025604
_cell_angle_alpha 90.000000
_cell_angle_beta 90.000000
_cell_angle_gamma 90.000000
_cell_volume 4897.971400
_symmetry_space_group_name_H-M "I B A M"
_symmetry_group_IT_number 72
_symmetry_cell_setting 'orthorhombic'
loop_
_space_group_symop_operation_xyz
x,y,z
-x,-y,z
x,-y,1/2-z
-x,y,1/2-z
-x,-y,-z
x,y,-z
-x,y,1/2+z
x,-y,1/2+z
1/2+x,1/2+y,1/2+z
1/2-x,1/2-y,1/2+z
1/2+x,1/2-y,-z
1/2-x,1/2+y,-z
1/2-x,1/2-y,1/2-z
1/2+x,1/2+y,1/2-z
1/2-x,1/2+y,z
1/2+x,1/2-y,z
loop_
_atom_site_type_symbol
_atom_site_label
_atom_site_fract_x
_atom_site_fract_y
_atom_site_fract_z
Si Si1 0.816435 0.854004 0.293252
Si Si2 0.885163 0.837321 0.901416
Si Si3 0.660539 0.897448 0.399875
Si Si4 0.544057 0.134835 0.652823
Si Si5 0.027890 0.063709 0.353640
Si Si6 0.605851 0.980799 0.107253
Si Si7 0.937286 0.762792 0.398294
O O1 0.824279 0.850557 0.186652
O O2 0.711268 0.855254 0.331447
O O3 0.866583 0.909502 0.343027
O O4 0.876477 0.800544 0.330633
O O5 0.962728 0.889083 0.901348
O O6 0.951530 0.780663 0.887440
O O7 0.839872 0.834389 0.000000
O O8 0.698980 0.891275 0.500000
O O9 0.548494 0.884129 0.403679
O O10 0.669664 0.964340 0.369040
O O11 0.500000 0.140573 0.750000
O O12 0.618849 0.082404 0.647055
O O13 0.579192 0.195774 0.618541
O O14 0.000000 0.063838 0.250000
O O15 0.000000 0.000000 0.387581
O O16 0.500000 0.000000 0.135795
O O17 0.608445 0.976464 0.000000
O O18 0.912099 0.777755 0.500000
#
# Coordination Sequence:
#
# PCOD9526281 Si02
#       7
#    16  16  16  16  16  16  16
#     4  10  19  35  60  90 121 154 202 254 307 363
#     4   9  18  32  52  81 121 164 201 244 297 359
#     4  10  21  38  61  88 117 152 198 257 313 354
#     4  11  21  36  60  88 118 161 206 244 297 369
#     4   8  15  30  52  78 108 149 200 247 292 354
#     4   8  16  33  56  82 112 148 195 245 296 360
#     4  10  19  35  61  90 122 163 210 253 298 361
#
# _framework density 22.866607999999999
#
# number of rings (size 3 to 8) (size 9 to 14) (size 15 to 20)
#    0.000    2.571    0.000    4.714    0.000    3.429 
#    0.000    8.571    0.000    7.714    0.000    4.000 
#    0.000    0.571    0.000    0.000    0.000    0.000 
#
# Total GULP energy -312486.522476 kJ/mol
# GULP energy per Si atom -5580.116473 kJ/mol
# Density = 2.281456 g / cm^3
# Si number density = 22.866608 Si / 1000 Ang^3
#
#
#
# Elastic Constant Matrix: (Units=GPa)
#
#
# Indices 1 2 3 4 5 6 
#
# 1 42.8484 16.9825 30.2537 0.0000 0.0000 0.0000
# 2 16.9825 108.3587 21.5696 -0.0002 0.0001 0.0000
# 3 30.2537 21.5696 146.3539 -0.0003 0.0001 0.0000
# 4 0.0000 -0.0002 -0.0003 30.3581 0.0000 -0.0001
# 5 0.0000 0.0001 0.0001 0.0000 22.7882 0.0000
# 6 0.0000 0.0000 0.0000 -0.0001 0.0000 9.2669
#
#
#
# Elastic Compliance Matrix: (Units=1/GPa)
#
#
# Indices 1 2 3 4 5 6 
#
# 1 0.028487 -0.003392 -0.005389 0.000000 0.000000 0.000000
# 2 -0.003392 0.009911 -0.000760 0.000000 0.000000 0.000000
# 3 -0.005389 -0.000760 0.008059 0.000000 0.000000 0.000000
# 4 0.000000 0.000000 0.000000 0.032940 0.000000 0.000000
# 5 0.000000 0.000000 0.000000 0.000000 0.043882 0.000000
# 6 0.000000 0.000000 0.000000 0.000000 0.000000 0.107911
#
#
# Mechanical properties :
#
#
# Convention : Reuss Voigt Hill
#
# Bulk Modulus (GPa) = 36.52757 48.35252 42.44004
# Shear Modulus (GPa) = 19.27541 27.73298 23.50420
#
# Velocity S-wave (km/s) = 2.90651 3.48633 3.20954
# Velocity P-wave (km/s) = 5.22232 6.11534 5.68639
#
# Compressibility (1/GPa) = 0.02737659
#
# Stress axis : x y z
#
# Youngs Moduli (GPa) = 35.10322 100.89381 124.08994
#
# Poissons Ratio (x) = 0.34223 0.66871
# Poissons Ratio (y) = 0.11907 0.09425
# Poissons Ratio (z) = 0.18917 0.07663
#
# Static dielectric constant tensor:
#      x y z
#    x 1.941700 0.000000 0.000000 
#    y 0.000000 1.897540 0.000000 
#    z 0.000000 0.000000 1.852250 
# 
# From -- ./inp_files/22144.got.cif
#   From: 2010.05.17/outbox.cif.g08.bks.cpg/sg72_12_cif.got.tgz:22144.got - 2010.06.03 17:03:01.
