data_PCOD9526840
_publ_section_title
;
Structure prediction by ZEFSAII (Michael W. Deem and Ramdas Pophale) SiO2 
 PCOD9526840
Probable space group: I B A M
;
_chemical_formula_sum "Si O2"
_cell_formula_units_Z 68
_cell_length_a 18.925462
_cell_length_b 21.080179
_cell_length_c 9.336153
_cell_angle_alpha 90.000000
_cell_angle_beta 90.000000
_cell_angle_gamma 90.000000
_cell_volume 3724.678094
_symmetry_space_group_name_H-M "I B A M"
_symmetry_group_IT_number 72
_symmetry_cell_setting 'orthorhombic'
loop_
_space_group_symop_operation_xyz
x,y,z
-x,-y,z
x,-y,1/2-z
-x,y,1/2-z
-x,-y,-z
x,y,-z
-x,y,1/2+z
x,-y,1/2+z
1/2+x,1/2+y,1/2+z
1/2-x,1/2-y,1/2+z
1/2+x,1/2-y,-z
1/2-x,1/2+y,-z
1/2-x,1/2-y,1/2-z
1/2+x,1/2+y,1/2-z
1/2-x,1/2+y,z
1/2+x,1/2-y,z
loop_
_atom_site_type_symbol
_atom_site_label
_atom_site_fract_x
_atom_site_fract_y
_atom_site_fract_z
Si Si1 0.169494 0.184326 0.335639
Si Si2 0.500000 0.500000 0.750000
Si Si3 0.075928 0.563514 0.326782
Si Si4 0.362392 0.559133 0.839336
Si Si5 0.160172 0.692341 0.663949
O O1 0.147183 0.177180 0.500000
O O2 0.147237 0.124301 0.242875
O O3 0.141819 0.249934 0.268674
O O4 0.254986 0.185715 0.331391
O O5 0.445837 0.542364 0.839805
O O6 0.105163 0.500000 0.250000
O O7 0.068909 0.554819 0.500000
O O8 0.123617 0.625514 0.301673
O O9 0.000000 0.573500 0.250000
O O10 0.330324 0.500000 0.750000
O O11 0.334569 0.561769 0.000000
O O12 0.140801 0.709099 0.500000
#
# Coordination Sequence:
#
# PCOD9526840 Si02
#       5
#    16   4  16  16  16
#     4  10  20  35  57  82 110 143 182 224 271 320
#     4   8  22  36  58  76 110 148 182 220 266 312
#     4  10  20  36  57  80 108 139 176 221 270 323
#     4  10  20  35  55  78 108 144 183 224 267 314
#     4   9  20  38  56  79 110 144 180 223 271 322
#
# _framework density 18.256612000000001
#
# number of rings (size 3 to 8) (size 9 to 14) (size 15 to 20)
#    0.706    1.647    0.000    3.176    0.000    3.765 
#    2.118    2.353    0.000    0.000    0.000    0.000 
#    0.000    0.000    0.000    0.000    0.000    0.000 
#
# Total GULP energy -189408.100297 kJ/mol
# GULP energy per Si atom -5570.826479 kJ/mol
# Density = 1.821506 g / cm^3
# Si number density = 18.256612 Si / 1000 Ang^3
#
#
#
# Elastic Constant Matrix: (Units=GPa)
#
#
# Indices 1 2 3 4 5 6 
#
# 1 11.2861 28.9758 25.0096 0.0000 0.0000 0.0000
# 2 28.9758 171.7043 110.6224 0.0000 0.0000 0.0000
# 3 25.0096 110.6224 171.6957 0.0000 0.0000 0.0000
# 4 0.0000 0.0000 0.0000 35.3260 0.0000 0.0000
# 5 0.0000 0.0000 0.0000 0.0000 23.5761 0.0000
# 6 0.0000 0.0000 0.0000 0.0000 0.0000 38.4522
#
#
#
# Elastic Compliance Matrix: (Units=1/GPa)
#
#
# Indices 1 2 3 4 5 6 
#
# 1 0.166781 -0.021360 -0.010532 0.000000 0.000000 0.000000
# 2 -0.021360 0.012693 -0.005066 0.000000 0.000000 0.000000
# 3 -0.010532 -0.005066 0.010623 0.000000 0.000000 0.000000
# 4 0.000000 0.000000 0.000000 0.028308 0.000000 0.000000
# 5 0.000000 0.000000 0.000000 0.000000 0.042416 0.000000
# 6 0.000000 0.000000 0.000000 0.000000 0.000000 0.026006
#
#
# Mechanical properties :
#
#
# Convention : Reuss Voigt Hill
#
# Bulk Modulus (GPa) = 8.60732 75.98907 42.29819
# Shear Modulus (GPa) = 12.51663 32.14275 22.32969
#
# Velocity S-wave (km/s) = 2.62123 4.20051 3.50108
# Velocity P-wave (km/s) = 3.72639 8.07706 6.28987
#
# Compressibility (1/GPa) = 0.11618018
#
# Stress axis : x y z
#
# Youngs Moduli (GPa) = 5.99590 78.78583 94.13853
#
# Poissons Ratio (x) = 1.68284 0.99144
# Poissons Ratio (y) = 0.12807 0.47695
# Poissons Ratio (z) = 0.06315 0.39917
#
# Static dielectric constant tensor:
#      x y z
#    x 1.627030 0.000000 0.000000 
#    y 0.000000 1.608130 0.000000 
#    z 0.000000 0.000000 1.641450 
# 
# From -- ./inp_files/4423.got.cif
#   From: 2010.05.17/outbox.cif.g08.bks.cpg/sg72_3_cif.got.tgz:4423.got - 2010.06.03 17:03:01.
