data_PCOD9526898
_publ_section_title
;
Structure prediction by ZEFSAII (Michael W. Deem and Ramdas Pophale) SiO2 
 PCOD9526898
Probable space group: I B A M
;
_chemical_formula_sum "Si O2"
_cell_formula_units_Z 116
_cell_length_a 24.699572
_cell_length_b 29.450886
_cell_length_c 9.046631
_cell_angle_alpha 90.000000
_cell_angle_beta 90.000000
_cell_angle_gamma 90.000000
_cell_volume 6580.739035
_symmetry_space_group_name_H-M "I B A M"
_symmetry_group_IT_number 72
_symmetry_cell_setting 'orthorhombic'
loop_
_space_group_symop_operation_xyz
x,y,z
-x,-y,z
x,-y,1/2-z
-x,y,1/2-z
-x,-y,-z
x,y,-z
-x,y,1/2+z
x,-y,1/2+z
1/2+x,1/2+y,1/2+z
1/2-x,1/2-y,1/2+z
1/2+x,1/2-y,-z
1/2-x,1/2+y,-z
1/2-x,1/2-y,1/2-z
1/2+x,1/2+y,1/2-z
1/2-x,1/2+y,z
1/2+x,1/2-y,z
loop_
_atom_site_type_symbol
_atom_site_label
_atom_site_fract_x
_atom_site_fract_y
_atom_site_fract_z
Si Si1 0.875460 0.951687 0.325722
Si Si2 0.304569 0.228281 0.823907
Si Si3 0.845552 0.809374 0.169854
Si Si4 0.777811 0.115518 0.172497
Si Si5 0.658874 0.866690 0.675847
Si Si6 0.446348 0.908643 0.330380
Si Si7 0.500000 0.000000 0.750000
Si Si8 0.445810 0.623204 0.170466
O O1 0.884569 0.955604 0.500000
O O2 0.818082 0.926211 0.302686
O O3 0.920838 0.919953 0.253655
O O4 0.874949 0.000000 0.250000
O O5 0.250000 0.250000 0.750000
O O6 0.347272 0.267166 0.779477
O O7 0.325580 0.181561 0.750997
O O8 0.298040 0.223623 0.000000
O O9 0.163938 0.795127 0.500000
O O10 0.798614 0.843904 0.223573
O O11 0.900262 0.838161 0.176480
O O12 0.714855 0.105312 0.195672
O O13 0.784113 0.130090 0.000000
O O14 0.649968 0.860405 0.500000
O O15 0.607497 0.892007 0.747076
O O16 0.500000 0.889097 0.250000
O O17 0.443269 0.894362 0.500000
O O18 0.459841 0.963200 0.326952
O O19 0.500000 0.638210 0.250000
O O20 0.456172 0.611916 0.000000
#
# Coordination Sequence:
#
# PCOD9526898 Si02
#       8
#    16  16  16  16  16  16   4  16
#     4  10  20  36  55  78 110 147 187 233 287 341
#     4  12  23  36  57  86 119 155 195 235 286 345
#     4  10  20  35  57  83 113 147 189 234 281 337
#     4   9  19  35  55  79 112 151 186 229 285 341
#     4  11  22  37  59  88 121 154 195 243 290 348
#     4  10  21  39  63  89 118 154 196 244 296 351
#     4   8  22  40  70  88 118 152 206 244 300 364
#     4  10  21  37  58  83 109 143 186 234 281 335
#
# _framework density 17.627199999999998
#
# number of rings (size 3 to 8) (size 9 to 14) (size 15 to 20)
#    0.414    1.379    1.379    3.517    0.000    3.034 
#    1.241    2.069    0.000    1.655    0.000    0.000 
#    0.000    0.000    0.000    0.000    0.000    0.000 
#
# Total GULP energy -323259.048094 kJ/mol
# GULP energy per Si atom -5573.431864 kJ/mol
# Density = 1.758708 g / cm^3
# Si number density = 17.627200 Si / 1000 Ang^3
#
#
#
# Elastic Constant Matrix: (Units=GPa)
#
#
# Indices 1 2 3 4 5 6 
#
# 1 113.0261 19.6886 54.8311 0.0000 0.0000 0.0000
# 2 19.6886 55.6919 34.1318 0.0000 0.0000 0.0000
# 3 54.8311 34.1318 120.0268 0.0000 0.0000 0.0000
# 4 0.0000 0.0000 0.0000 27.8003 0.0000 0.0000
# 5 0.0000 0.0000 0.0000 0.0000 27.4858 0.0000
# 6 0.0000 0.0000 0.0000 0.0000 0.0000 18.9207
#
#
#
# Elastic Compliance Matrix: (Units=1/GPa)
#
#
# Indices 1 2 3 4 5 6 
#
# 1 0.011414 -0.001017 -0.004925 0.000000 0.000000 0.000000
# 2 -0.001017 0.021836 -0.005745 0.000000 0.000000 0.000000
# 3 -0.004925 -0.005745 0.012215 0.000000 0.000000 0.000000
# 4 0.000000 0.000000 0.000000 0.035971 0.000000 0.000000
# 5 0.000000 0.000000 0.000000 0.000000 0.036382 0.000000
# 6 0.000000 0.000000 0.000000 0.000000 0.000000 0.052852
#
#
# Mechanical properties :
#
#
# Convention : Reuss Voigt Hill
#
# Bulk Modulus (GPa) = 45.26606 56.22754 50.74680
# Shear Modulus (GPa) = 24.82521 26.84758 25.83640
#
# Velocity S-wave (km/s) = 3.75687 3.90690 3.83262
# Velocity P-wave (km/s) = 6.67489 7.23320 6.95965
#
# Compressibility (1/GPa) = 0.02209161
#
# Stress axis : x y z
#
# Youngs Moduli (GPa) = 87.61304 45.79516 81.86631
#
# Poissons Ratio (x) = 0.04656 0.40319
# Poissons Ratio (y) = 0.08908 0.47033
# Poissons Ratio (z) = 0.43149 0.26310
#
# Static dielectric constant tensor:
#      x y z
#    x 1.612920 0.000000 0.000000 
#    y 0.000000 1.593820 0.000000 
#    z 0.000000 0.000000 1.602670 
# 
# From -- ./inp_files/7541.got.cif
#   From: 2010.05.17/outbox.cif.g08.bks.cpg/sg72_4_cif.got.tgz:7541.got - 2010.06.03 17:03:01.
