data_PCOD9526101
_publ_section_title
;
Structure prediction by ZEFSAII (Michael W. Deem and Ramdas Pophale) SiO2 
 PCOD9526101
Probable space group: I B A M
;
_chemical_formula_sum "Si O2"
_cell_formula_units_Z 96
_cell_length_a 26.219444
_cell_length_b 24.342732
_cell_length_c 8.308561
_cell_angle_alpha 90.000000
_cell_angle_beta 90.000000
_cell_angle_gamma 90.000000
_cell_volume 5302.963140
_symmetry_space_group_name_H-M "I B A M"
_symmetry_group_IT_number 72
_symmetry_cell_setting 'orthorhombic'
loop_
_space_group_symop_operation_xyz
x,y,z
-x,-y,z
x,-y,1/2-z
-x,y,1/2-z
-x,-y,-z
x,y,-z
-x,y,1/2+z
x,-y,1/2+z
1/2+x,1/2+y,1/2+z
1/2-x,1/2-y,1/2+z
1/2+x,1/2-y,-z
1/2-x,1/2+y,-z
1/2-x,1/2-y,1/2-z
1/2+x,1/2+y,1/2-z
1/2-x,1/2+y,z
1/2+x,1/2-y,z
loop_
_atom_site_type_symbol
_atom_site_label
_atom_site_fract_x
_atom_site_fract_y
_atom_site_fract_z
Si Si1 0.847989 0.632402 0.694051
Si Si2 0.557089 0.938191 0.807077
Si Si3 0.847285 0.867831 0.303579
Si Si4 0.556974 0.438047 0.307145
Si Si5 0.308717 0.249774 0.194942
Si Si6 0.748524 0.062517 0.806999
O O1 0.850491 0.634364 0.500000
O O2 0.900299 0.604497 0.752040
O O3 0.836120 0.694059 0.751749
O O4 0.800805 0.593999 0.741851
O O5 0.500000 0.925055 0.750000
O O6 0.569550 0.000000 0.750000
O O7 0.557293 0.938521 0.000000
O O8 0.848042 0.867563 0.500000
O O9 0.899823 0.895795 0.249402
O O10 0.836522 0.805566 0.250809
O O11 0.799404 0.905338 0.253634
O O12 0.568797 0.500000 0.250000
O O13 0.500000 0.424228 0.250000
O O14 0.557113 0.438414 0.500000
O O15 0.250000 0.250000 0.250000
O O16 0.308717 0.249683 0.000000
O O17 0.749440 0.000000 0.750000
O O18 0.746935 0.063814 0.000000
#
# Coordination Sequence:
#
# PCOD9526101 Si02
#       6
#    16  16  16  16  16  16
#     4  10  21  35  54  79 107 138 175 217 264 315
#     4  10  20  35  54  78 104 137 174 214 263 312
#     4   9  19  34  53  76 105 139 174 214 263 312
#     4  10  19  34  54  77 105 138 175 217 265 315
#     4  10  19  36  56  77 105 141 179 216 261 312
#     4  11  21  33  51  77 107 138 173 214 265 318
#
# _framework density 18.103086999999999
#
# number of rings (size 3 to 8) (size 9 to 14) (size 15 to 20)
#    0.000    2.000    1.667    3.500    0.000    2.667 
#    0.000    5.000    0.000    0.000    0.000    0.000 
#    0.000    0.000    0.000    0.000    0.000    0.000 
#
# Total GULP energy -267978.123262 kJ/mol
# GULP energy per Si atom -5582.877568 kJ/mol
# Density = 1.806188 g / cm^3
# Si number density = 18.103087 Si / 1000 Ang^3
#
#
#
# Elastic Constant Matrix: (Units=GPa)
#
#
# Indices 1 2 3 4 5 6 
#
# 1 162.8452 125.8806 16.2327 0.0000 0.0000 0.0000
# 2 125.8806 195.4104 15.1097 0.0000 0.0000 0.0000
# 3 16.2327 15.1097 17.2225 0.0000 0.0000 0.0000
# 4 0.0000 0.0000 0.0000 0.6065 0.0000 0.0000
# 5 0.0000 0.0000 0.0000 0.0000 24.0560 0.0000
# 6 0.0000 0.0000 0.0000 0.0000 0.0000 -147.2079
#
#
#
# Elastic Compliance Matrix: (Units=1/GPa)
#
#
# Indices 1 2 3 4 5 6 
#
# 1 0.012638 -0.007746 -0.005116 0.000000 0.000000 0.000000
# 2 -0.007746 0.010237 -0.001681 0.000000 0.000000 0.000000
# 3 -0.005116 -0.001681 0.064360 0.000000 0.000000 0.000000
# 4 0.000000 0.000000 0.000000 1.648717 0.000000 0.000000
# 5 0.000000 0.000000 0.000000 0.000000 0.041570 0.000000
# 6 0.000000 0.000000 0.000000 0.000000 0.000000 -0.006793
#
#
# Mechanical properties :
#
#
# Convention : Reuss Voigt Hill
#
# Bulk Modulus (GPa) = 17.19687 76.65824 46.92756
# Shear Modulus (GPa) = 2.74846 -9.95873 -3.60514
#
# Velocity S-wave (km/s) = 1.23350 -2.34799 -1.41272
# Velocity P-wave (km/s) = 3.39834 5.92339 4.82884
#
# Compressibility (1/GPa) = 0.05815011
#
# Stress axis : x y z
#
# Youngs Moduli (GPa) = 79.12356 97.68309 15.53752
#
# Poissons Ratio (x) = 0.75664 0.07950
# Poissons Ratio (y) = 0.61288 0.02611
# Poissons Ratio (z) = 0.40483 0.16417
#
# Static dielectric constant tensor:
#      x y z
#    x 1.603360 0.000000 0.000000 
#    y 0.000000 1.611660 0.000000 
#    z 0.000000 0.000000 1.626310 
# 
# From -- ./inp_files/7101.got.cif
#   From: 2010.05.17/outbox.cif.g08.bks.cpg/sg72_4_cif.got.tgz:7101.got - 2010.06.03 17:03:01.
