data_PCOD9526157
_publ_section_title
;
Structure prediction by ZEFSAII (Michael W. Deem and Ramdas Pophale) SiO2 
 PCOD9526157
Probable space group: I B A M
;
_chemical_formula_sum "Si O2"
_cell_formula_units_Z 80
_cell_length_a 16.946276
_cell_length_b 8.300276
_cell_length_c 26.066433
_cell_angle_alpha 90.000000
_cell_angle_beta 90.000000
_cell_angle_gamma 90.000000
_cell_volume 3666.472351
_symmetry_space_group_name_H-M "I B A M"
_symmetry_group_IT_number 72
_symmetry_cell_setting 'orthorhombic'
loop_
_space_group_symop_operation_xyz
x,y,z
-x,-y,z
x,-y,1/2-z
-x,y,1/2-z
-x,-y,-z
x,y,-z
-x,y,1/2+z
x,-y,1/2+z
1/2+x,1/2+y,1/2+z
1/2-x,1/2-y,1/2+z
1/2+x,1/2-y,-z
1/2-x,1/2+y,-z
1/2-x,1/2-y,1/2-z
1/2+x,1/2+y,1/2-z
1/2-x,1/2+y,z
1/2+x,1/2-y,z
loop_
_atom_site_type_symbol
_atom_site_label
_atom_site_fract_x
_atom_site_fract_y
_atom_site_fract_z
Si Si1 0.105618 0.437212 0.941809
Si Si2 0.329698 0.876802 0.643709
Si Si3 0.714102 0.347824 0.554758
Si Si4 0.680453 0.541250 0.190624
Si Si5 0.915413 0.916285 0.098628
O O1 0.098860 0.550757 0.890973
O O2 0.199906 0.421591 0.946012
O O3 0.076764 0.260251 0.925456
O O4 0.079540 0.480483 0.000000
O O5 0.283224 0.778177 0.600156
O O6 0.346013 0.727421 0.681943
O O7 0.270147 0.003571 0.670268
O O8 0.698308 0.269576 0.500000
O O9 0.645838 0.476727 0.565350
O O10 0.676682 0.500000 0.250000
O O11 0.624062 0.429860 0.155150
O O12 0.000000 0.000000 0.099374
#
# Coordination Sequence:
#
# PCOD9526157 Si02
#       5
#    16  16  16  16  16
#     4  11  20  35  60  91 128 167 206 253 316 393
#     4  11  19  36  59  90 121 157 209 271 317 379
#     4  10  19  34  57  86 120 162 207 250 310 387
#     4  11  22  38  60  87 120 161 215 272 330 378
#     4  11  23  40  61  90 130 168 213 266 326 394
#
# _framework density 21.819337000000001
#
# number of rings (size 3 to 8) (size 9 to 14) (size 15 to 20)
#    0.000    1.200    6.000    1.800    0.000    5.200 
#    0.000    4.000    0.000    6.000    0.000   11.200 
#    0.000    0.000    0.000    0.000    0.000    0.000 
#
# Total GULP energy -223058.981628 kJ/mol
# GULP energy per Si atom -5576.474541 kJ/mol
# Density = 2.176968 g / cm^3
# Si number density = 21.819337 Si / 1000 Ang^3
#
#
#
# Elastic Constant Matrix: (Units=GPa)
#
#
# Indices 1 2 3 4 5 6 
#
# 1 93.8787 18.4405 31.7786 0.0000 0.0000 0.0000
# 2 18.4405 108.3336 47.3562 0.0000 0.0000 0.0000
# 3 31.7786 47.3562 163.2168 0.0000 0.0000 0.0000
# 4 0.0000 0.0000 0.0000 24.3292 0.0000 0.0000
# 5 0.0000 0.0000 0.0000 0.0000 -20.2690 0.0000
# 6 0.0000 0.0000 0.0000 0.0000 0.0000 25.8540
#
#
#
# Elastic Compliance Matrix: (Units=1/GPa)
#
#
# Indices 1 2 3 4 5 6 
#
# 1 0.011522 -0.001123 -0.001917 0.000000 0.000000 0.000000
# 2 -0.001123 0.010681 -0.002880 0.000000 0.000000 0.000000
# 3 -0.001917 -0.002880 0.007336 0.000000 0.000000 0.000000
# 4 0.000000 0.000000 0.000000 0.041103 0.000000 0.000000
# 5 0.000000 0.000000 0.000000 0.000000 -0.049336 0.000000
# 6 0.000000 0.000000 0.000000 0.000000 0.000000 0.038679
#
#
# Mechanical properties :
#
#
# Convention : Reuss Voigt Hill
#
# Bulk Modulus (GPa) = 56.50712 62.28662 59.39687
# Shear Modulus (GPa) = 64.32981 23.83976 44.08479
#
# Velocity S-wave (km/s) = 5.43571 3.30903 4.49981
# Velocity P-wave (km/s) = 8.08393 6.57329 7.36743
#
# Compressibility (1/GPa) = 0.01769688
#
# Stress axis : x y z
#
# Youngs Moduli (GPa) = 86.79270 93.62409 136.31656
#
# Poissons Ratio (x) = 0.10514 0.26138
# Poissons Ratio (y) = 0.09747 0.39264
# Poissons Ratio (z) = 0.16642 0.26967
#
# Static dielectric constant tensor:
#      x y z
#    x 1.794290 0.000000 0.000000 
#    y 0.000000 1.899120 0.000000 
#    z 0.000000 0.000000 1.848260 
# 
# From -- ./inp_files/48955.got.cif
#   From: 2010.05.17/outbox.cif.g08.bks.cpg/sg72_25_cif.got.tgz:48955.got - 2010.06.03 17:03:01.
