data_PCOD9526457
_publ_section_title
;
Structure prediction by ZEFSAII (Michael W. Deem and Ramdas Pophale) SiO2 
 PCOD9526457
Probable space group: I B A M
;
_chemical_formula_sum "Si O2"
_cell_formula_units_Z 68
_cell_length_a 8.753507
_cell_length_b 22.962625
_cell_length_c 14.642812
_cell_angle_alpha 90.000000
_cell_angle_beta 90.000000
_cell_angle_gamma 90.000000
_cell_volume 2943.256442
_symmetry_space_group_name_H-M "I B A M"
_symmetry_group_IT_number 72
_symmetry_cell_setting 'orthorhombic'
loop_
_space_group_symop_operation_xyz
x,y,z
-x,-y,z
x,-y,1/2-z
-x,y,1/2-z
-x,-y,-z
x,y,-z
-x,y,1/2+z
x,-y,1/2+z
1/2+x,1/2+y,1/2+z
1/2-x,1/2-y,1/2+z
1/2+x,1/2-y,-z
1/2-x,1/2+y,-z
1/2-x,1/2-y,1/2-z
1/2+x,1/2+y,1/2-z
1/2-x,1/2+y,z
1/2+x,1/2-y,z
loop_
_atom_site_type_symbol
_atom_site_label
_atom_site_fract_x
_atom_site_fract_y
_atom_site_fract_z
Si Si1 0.046366 0.705939 0.610265
Si Si2 0.886672 0.176404 0.888628
Si Si3 0.000000 0.500000 0.000000
Si Si4 0.928661 0.062589 0.389072
Si Si5 0.911400 0.412839 0.841734
O O1 0.050982 0.707032 0.500000
O O2 0.214358 0.687615 0.643616
O O3 0.992818 0.769694 0.639836
O O4 0.928902 0.655935 0.638808
O O5 0.957975 0.114642 0.862778
O O6 0.882252 0.176507 0.000000
O O7 0.008452 0.550773 0.078626
O O8 0.902443 0.065377 0.500000
O O9 0.765396 0.070117 0.342847
O O10 0.000000 0.000000 0.369572
O O11 0.000000 0.426108 0.750000
#
# Coordination Sequence:
#
# PCOD9526457 Si02
#       5
#    16  16   4  16  16
#     4  10  19  38  66  97 140 183 237 294 345 416
#     4   9  19  34  66 101 136 190 238 283 357 416
#     4  12  26  48  74  94 152 176 234 288 348 426
#     4  10  21  40  70 103 146 191 238 293 355 417
#     4  12  26  44  73 106 137 184 238 286 356 424
#
# _framework density 23.103662
#
# number of rings (size 3 to 8) (size 9 to 14) (size 15 to 20)
#    0.000    1.647    2.353    1.765    3.294    3.765 
#    0.000    5.882    0.000    0.000    0.000    0.000 
#    0.000    0.000    0.000    0.000    0.000    0.000 
#
# Total GULP energy -189968.305320 kJ/mol
# GULP energy per Si atom -5587.303098 kJ/mol
# Density = 2.305108 g / cm^3
# Si number density = 23.103662 Si / 1000 Ang^3
#
#
#
# Elastic Constant Matrix: (Units=GPa)
#
#
# Indices 1 2 3 4 5 6 
#
# 1 174.6785 99.1318 40.6533 0.0000 0.0000 0.0000
# 2 99.1318 228.7053 37.7781 0.0000 0.0000 0.0000
# 3 40.6533 37.7781 82.9208 -0.0002 0.0000 0.0000
# 4 0.0000 0.0000 -0.0002 -0.7113 0.0000 0.0000
# 5 0.0000 0.0000 0.0000 0.0000 23.6424 0.0000
# 6 0.0000 0.0000 0.0000 0.0000 0.0000 27.4986
#
#
#
# Elastic Compliance Matrix: (Units=1/GPa)
#
#
# Indices 1 2 3 4 5 6 
#
# 1 0.008063 -0.003073 -0.002553 0.000001 0.000000 0.000000
# 2 -0.003073 0.005900 -0.001181 0.000000 0.000000 0.000000
# 3 -0.002553 -0.001181 0.013849 -0.000005 0.000000 0.000000
# 4 0.000001 0.000000 -0.000005 -1.405821 0.000000 0.000000
# 5 0.000000 0.000000 0.000000 0.000000 0.042297 0.000000
# 6 0.000000 0.000000 0.000000 0.000000 0.000000 0.036365
#
#
# Mechanical properties :
#
#
# Convention : Reuss Voigt Hill
#
# Bulk Modulus (GPa) = 70.43452 93.49231 81.96342
# Shear Modulus (GPa) = -3.90320 30.66869 13.38275
#
# Velocity S-wave (km/s) = -1.30119 3.64736 2.40937
# Velocity P-wave (km/s) = 5.31931 7.63491 6.57978
#
# Compressibility (1/GPa) = 0.01419758
#
# Stress axis : x y z
#
# Youngs Moduli (GPa) = 124.02303 169.50265 72.20517
#
# Poissons Ratio (x) = 0.52092 0.18433
# Poissons Ratio (y) = 0.38115 0.08528
# Poissons Ratio (z) = 0.31662 0.20020
#
# Static dielectric constant tensor:
#      x y z
#    x 1.836030 0.000000 0.000000 
#    y 0.000000 1.826910 0.000000 
#    z 0.000000 0.000000 1.891990 
# 
# From -- ./inp_files/27778.got.cif
#   From: 2010.05.17/outbox.cif.g08.bks.cpg/sg72_14_cif.got.tgz:27778.got - 2010.06.03 17:03:01.
