data_PCOD9526387
_publ_section_title
;
Structure prediction by ZEFSAII (Michael W. Deem and Ramdas Pophale) SiO2 
 PCOD9526387
Probable space group: I B A M
;
_chemical_formula_sum "Si O2"
_cell_formula_units_Z 88
_cell_length_a 17.233296
_cell_length_b 13.881170
_cell_length_c 16.998973
_cell_angle_alpha 90.000000
_cell_angle_beta 90.000000
_cell_angle_gamma 90.000000
_cell_volume 4066.465617
_symmetry_space_group_name_H-M "I B A M"
_symmetry_group_IT_number 72
_symmetry_cell_setting 'orthorhombic'
loop_
_space_group_symop_operation_xyz
x,y,z
-x,-y,z
x,-y,1/2-z
-x,y,1/2-z
-x,-y,-z
x,y,-z
-x,y,1/2+z
x,-y,1/2+z
1/2+x,1/2+y,1/2+z
1/2-x,1/2-y,1/2+z
1/2+x,1/2-y,-z
1/2-x,1/2+y,-z
1/2-x,1/2-y,1/2-z
1/2+x,1/2+y,1/2-z
1/2-x,1/2+y,z
1/2+x,1/2-y,z
loop_
_atom_site_type_symbol
_atom_site_label
_atom_site_fract_x
_atom_site_fract_y
_atom_site_fract_z
Si Si1 0.245754 0.284242 0.500000
Si Si2 0.774660 0.444571 0.329824
Si Si3 0.606955 0.571317 0.500000
Si Si4 0.765926 0.943754 0.500000
Si Si5 0.421037 0.845988 0.209402
Si Si6 0.505748 0.304717 0.910583
Si Si7 0.339722 0.734092 0.348592
O O1 0.322534 0.349725 0.500000
O O2 0.261031 0.167468 0.500000
O O3 0.195493 0.295128 0.579219
O O4 0.754240 0.500000 0.250000
O O5 0.758288 0.487439 0.416270
O O6 0.866484 0.425010 0.328802
O O7 0.723662 0.346611 0.328421
O O8 0.641921 0.465378 0.500000
O O9 0.554222 0.597844 0.574885
O O10 0.500000 0.880486 0.250000
O O11 0.447016 0.766025 0.146246
O O12 0.365987 0.798169 0.275506
O O13 0.419848 0.314697 0.877111
O O14 0.500873 0.264203 0.000000
#
# Coordination Sequence:
#
# PCOD9526387 Si02
#       7
#     8  16   8   8  16  16  16
#     4  10  19  37  60  89 128 165 212 275 316 395
#     4  11  25  40  63  92 133 167 213 270 321 387
#     4  10  21  35  68  87 128 170 219 258 331 390
#     4  10  24  40  59  99 126 169 225 254 333 390
#     4  10  22  39  66  92 122 167 217 268 329 383
#     4   9  19  36  63  89 125 162 210 264 320 394
#     4  10  20  38  63  92 123 163 216 267 325 388
#
# _framework density 21.640412999999999
#
# number of rings (size 3 to 8) (size 9 to 14) (size 15 to 20)
#    0.545    1.455    0.909    2.727    6.364    0.364 
#    0.000    7.273    0.000    1.091    0.000    0.000 
#    0.000    0.000    0.000    0.000    0.000    0.000 
#
# Total GULP energy -245462.475036 kJ/mol
# GULP energy per Si atom -5578.692614 kJ/mol
# Density = 2.159116 g / cm^3
# Si number density = 21.640413 Si / 1000 Ang^3
#
#
#
# Elastic Constant Matrix: (Units=GPa)
#
#
# Indices 1 2 3 4 5 6 
#
# 1 100.5817 10.0612 31.7375 0.0000 0.0000 0.0000
# 2 10.0612 43.7044 7.6849 0.0000 0.0000 0.0000
# 3 31.7375 7.6849 124.4314 0.0000 0.0000 0.0000
# 4 0.0000 0.0000 0.0000 13.2988 0.0000 0.0000
# 5 0.0000 0.0000 0.0000 0.0000 2547.0658 0.0000
# 6 0.0000 0.0000 0.0000 0.0000 0.0000 29.4964
#
#
#
# Elastic Compliance Matrix: (Units=1/GPa)
#
#
# Indices 1 2 3 4 5 6 
#
# 1 0.010993 -0.002060 -0.002677 0.000000 0.000000 0.000000
# 2 -0.002060 0.023518 -0.000927 0.000000 0.000000 0.000000
# 3 -0.002677 -0.000927 0.008777 0.000000 0.000000 0.000000
# 4 0.000000 0.000000 0.000000 0.075195 0.000000 0.000000
# 5 0.000000 0.000000 0.000000 0.000000 0.000393 0.000000
# 6 0.000000 0.000000 0.000000 0.000000 0.000000 0.033902
#
#
# Mechanical properties :
#
#
# Convention : Reuss Voigt Hill
#
# Bulk Modulus (GPa) = 31.28893 40.85386 36.07139
# Shear Modulus (GPa) = 28.61102 532.58781 280.59942
#
# Velocity S-wave (km/s) = 3.64003 15.70485 11.39939
# Velocity P-wave (km/s) = 5.67066 18.64875 13.78282
#
# Compressibility (1/GPa) = 0.03196019
#
# Stress axis : x y z
#
# Youngs Moduli (GPa) = 90.96859 42.52023 113.94059
#
# Poissons Ratio (x) = 0.08759 0.30497
# Poissons Ratio (y) = 0.18740 0.10563
# Poissons Ratio (z) = 0.24349 0.03942
#
# Static dielectric constant tensor:
#      x y z
#    x 1.773980 0.000000 0.000000 
#    y 0.000000 1.832800 0.000000 
#    z 0.000000 0.000000 1.838180 
# 
# From -- ./inp_files/31505.got.cif
#   From: 2010.05.17/outbox.cif.g08.bks.cpg/sg72_16_cif.got.tgz:31505.got - 2010.06.03 17:03:01.
