data_PCOD9526722
_publ_section_title
;
Structure prediction by ZEFSAII (Michael W. Deem and Ramdas Pophale) SiO2 
 PCOD9526722
Probable space group: I B A M
;
_chemical_formula_sum "Si O2"
_cell_formula_units_Z 72
_cell_length_a 8.575881
_cell_length_b 21.320028
_cell_length_c 20.524760
_cell_angle_alpha 90.000000
_cell_angle_beta 90.000000
_cell_angle_gamma 90.000000
_cell_volume 3752.706542
_symmetry_space_group_name_H-M "I B A M"
_symmetry_group_IT_number 72
_symmetry_cell_setting 'orthorhombic'
loop_
_space_group_symop_operation_xyz
x,y,z
-x,-y,z
x,-y,1/2-z
-x,y,1/2-z
-x,-y,-z
x,y,-z
-x,y,1/2+z
x,-y,1/2+z
1/2+x,1/2+y,1/2+z
1/2-x,1/2-y,1/2+z
1/2+x,1/2-y,-z
1/2-x,1/2+y,-z
1/2-x,1/2-y,1/2-z
1/2+x,1/2+y,1/2-z
1/2-x,1/2+y,z
1/2+x,1/2-y,z
loop_
_atom_site_type_symbol
_atom_site_label
_atom_site_fract_x
_atom_site_fract_y
_atom_site_fract_z
Si Si1 0.778400 0.821890 0.000000
Si Si2 0.251792 0.906332 0.252434
Si Si3 0.000000 0.000000 0.250000
Si Si4 0.500000 0.000000 0.750000
Si Si5 0.222899 0.320197 0.136640
Si Si6 0.905083 0.321151 0.500000
Si Si7 0.097050 0.178116 0.136939
O O1 0.842094 0.750418 0.000000
O O2 0.843272 0.848432 0.067619
O O3 0.591697 0.821389 0.000000
O O4 0.380338 0.952135 0.284291
O O5 0.325832 0.862439 0.197584
O O6 0.165956 0.863664 0.305229
O O7 0.122062 0.951477 0.217946
O O8 0.160047 0.347042 0.068085
O O9 0.160357 0.249281 0.144178
O O10 0.410477 0.318710 0.136644
#
# Coordination Sequence:
#
# PCOD9526722 Si02
#       7
#     8  16   4   4  16   8  16
#     4  10  20  34  54  85 124 155 184 225 291 357
#     4  11  23  40  63  84 114 150 202 241 286 342
#     4  10  20  46  54  84 108 158 196 242 280 334
#     4  10  28  38  62  80 116 158 196 246 288 334
#     4  11  21  36  61  91 122 150 186 237 293 349
#     4  10  20  34  54  85 124 155 184 225 291 357
#     4  11  21  36  61  91 122 150 186 237 293 349
#
# _framework density 19.186152
#
# number of rings (size 3 to 8) (size 9 to 14) (size 15 to 20)
#    0.000    1.333    2.222    6.667    6.222    0.000 
#    0.000    0.000    0.000    8.000    0.000    0.000 
#    0.000    0.000    0.000    0.000    0.000    0.000 
#
# Total GULP energy -200592.107882 kJ/mol
# GULP energy per Si atom -5572.002997 kJ/mol
# Density = 1.914248 g / cm^3
# Si number density = 19.186152 Si / 1000 Ang^3
#
#
#
# Elastic Constant Matrix: (Units=GPa)
#
#
# Indices 1 2 3 4 5 6 
#
# 1 120.3338 34.0201 22.8398 0.0000 0.0000 0.0000
# 2 34.0201 70.0059 37.5543 0.0000 0.0000 0.0000
# 3 22.8398 37.5543 111.9449 0.0000 0.0000 0.0000
# 4 0.0000 0.0000 0.0000 -5.8363 0.0000 0.0000
# 5 0.0000 0.0000 0.0000 0.0000 26.9214 0.0000
# 6 0.0000 0.0000 0.0000 0.0000 0.0000 19.4495
#
#
#
# Elastic Compliance Matrix: (Units=1/GPa)
#
#
# Indices 1 2 3 4 5 6 
#
# 1 0.009655 -0.004433 -0.000483 0.000000 0.000000 0.000000
# 2 -0.004433 0.019455 -0.005622 0.000000 0.000000 0.000000
# 3 -0.000483 -0.005622 0.010917 0.000000 0.000000 0.000000
# 4 0.000000 0.000000 0.000000 -0.171341 0.000000 0.000000
# 5 0.000000 0.000000 0.000000 0.000000 0.037145 0.000000
# 6 0.000000 0.000000 0.000000 0.000000 0.000000 0.051415
#
#
# Mechanical properties :
#
#
# Convention : Reuss Voigt Hill
#
# Bulk Modulus (GPa) = 52.76579 54.56811 53.66695
# Shear Modulus (GPa) = -325.51671 21.96495 -151.77588
#
# Velocity S-wave (km/s) = -13.03958 3.38721 -8.90386
# Velocity P-wave (km/s) = 14.11190 6.61821 8.81320
#
# Compressibility (1/GPa) = 0.01895167
#
# Stress axis : x y z
#
# Youngs Moduli (GPa) = 103.57189 51.40144 91.59615
#
# Poissons Ratio (x) = 0.22786 0.04422
# Poissons Ratio (y) = 0.45914 0.51496
# Poissons Ratio (z) = 0.05000 0.28898
#
# Static dielectric constant tensor:
#      x y z
#    x 1.702620 0.000000 0.000000 
#    y 0.000000 1.722190 0.000000 
#    z 0.000000 0.000000 1.694970 
# 
# From -- ./inp_files/42182.got.cif
#   From: 2010.05.17/outbox.cif.g08.bks.cpg/sg72_22_cif.got.tgz:42182.got - 2010.06.03 17:03:01.
