data_PCOD9526081
_publ_section_title
;
Structure prediction by ZEFSAII (Michael W. Deem and Ramdas Pophale) SiO2 
 PCOD9526081
Probable space group: I B A M
;
_chemical_formula_sum "Si O2"
_cell_formula_units_Z 64
_cell_length_a 7.689653
_cell_length_b 22.389664
_cell_length_c 15.074407
_cell_angle_alpha 90.000000
_cell_angle_beta 90.000000
_cell_angle_gamma 90.000000
_cell_volume 2595.341764
_symmetry_space_group_name_H-M "I B A M"
_symmetry_group_IT_number 72
_symmetry_cell_setting 'orthorhombic'
loop_
_space_group_symop_operation_xyz
x,y,z
-x,-y,z
x,-y,1/2-z
-x,y,1/2-z
-x,-y,-z
x,y,-z
-x,y,1/2+z
x,-y,1/2+z
1/2+x,1/2+y,1/2+z
1/2-x,1/2-y,1/2+z
1/2+x,1/2-y,-z
1/2-x,1/2+y,-z
1/2-x,1/2-y,1/2-z
1/2+x,1/2+y,1/2-z
1/2-x,1/2+y,z
1/2+x,1/2-y,z
loop_
_atom_site_type_symbol
_atom_site_label
_atom_site_fract_x
_atom_site_fract_y
_atom_site_fract_z
Si Si1 0.132111 0.151483 0.358277
Si Si2 0.155983 0.426359 0.500000
Si Si3 0.030762 0.266780 0.101652
Si Si4 0.337677 0.133554 0.191131
Si Si5 0.733991 0.558509 0.000000
O O1 0.973910 0.196499 0.378354
O O2 0.293496 0.195103 0.388130
O O3 0.179690 0.133436 0.258890
O O4 0.147184 0.092636 0.417497
O O5 0.190053 0.396618 0.595889
O O6 0.266702 0.487393 0.500000
O O7 0.943929 0.430704 0.500000
O O8 0.900286 0.299592 0.168179
O O9 0.973090 0.274473 0.000000
O O10 0.500000 0.106832 0.250000
#
# Coordination Sequence:
#
# PCOD9526081 Si02
#       5
#    16   8  16  16   8
#     4  11  21  35  55  85 117 142 184 222 275 332
#     4  11  20  35  53  74 117 144 182 228 282 310
#     4  11  18  34  54  77 114 149 174 227 273 330
#     4  10  19  34  52  78 110 143 183 219 275 325
#     4  11  20  33  53  80 109 148 180 231 267 327
#
# _framework density 24.659566000000002
#
# number of rings (size 3 to 8) (size 9 to 14) (size 15 to 20)
#    0.000    1.250    8.750    0.750    0.000    1.000 
#    0.000    0.000    0.000    0.000    0.000    3.500 
#    0.000   12.000    0.000    0.000    0.000    0.000 
#
# Total GULP energy -178990.465169 kJ/mol
# GULP energy per Si atom -5593.452037 kJ/mol
# Density = 2.460344 g / cm^3
# Si number density = 24.659566 Si / 1000 Ang^3
#
#
#
# Elastic Constant Matrix: (Units=GPa)
#
#
# Indices 1 2 3 4 5 6 
#
# 1 91.3122 12.2715 16.3250 0.0000 0.0000 0.0000
# 2 12.2715 153.6762 79.5623 0.0000 0.0000 0.0000
# 3 16.3250 79.5623 248.6530 0.0001 0.0000 0.0000
# 4 0.0000 0.0000 0.0001 10.2808 0.0000 0.0000
# 5 0.0000 0.0000 0.0000 0.0000 10.5808 0.0000
# 6 0.0000 0.0000 0.0000 0.0000 0.0000 35.2235
#
#
#
# Elastic Compliance Matrix: (Units=1/GPa)
#
#
# Indices 1 2 3 4 5 6 
#
# 1 0.011129 -0.000612 -0.000535 0.000000 0.000000 0.000000
# 2 -0.000612 0.007833 -0.002466 0.000000 0.000000 0.000000
# 3 -0.000535 -0.002466 0.004846 0.000000 0.000000 0.000000
# 4 0.000000 0.000000 0.000000 0.097268 0.000000 0.000000
# 5 0.000000 0.000000 0.000000 0.000000 0.094510 0.000000
# 6 0.000000 0.000000 0.000000 0.000000 0.000000 0.028390
#
#
# Mechanical properties :
#
#
# Convention : Reuss Voigt Hill
#
# Bulk Modulus (GPa) = 60.30507 78.88434 69.59470
# Shear Modulus (GPa) = 19.47572 36.91588 28.19580
#
# Velocity S-wave (km/s) = 2.81336 3.87333 3.38509
# Velocity P-wave (km/s) = 5.92127 7.21543 6.60015
#
# Compressibility (1/GPa) = 0.01658236
#
# Stress axis : x y z
#
# Youngs Moduli (GPa) = 89.85295 127.66797 206.36074
#
# Poissons Ratio (x) = 0.07810 0.11039
# Poissons Ratio (y) = 0.05497 0.50891
# Poissons Ratio (z) = 0.04807 0.31485
#
# Static dielectric constant tensor:
#      x y z
#    x 2.149020 0.000000 0.000000 
#    y 0.000000 1.909930 0.000000 
#    z 0.000000 0.000000 1.954260 
# 
# From -- ./inp_files/18702.got.cif
#   From: 2010.05.17/outbox.cif.g08.bks.cpg/sg72_10_cif.got.tgz:18702.got - 2010.06.03 17:03:01.
