data_PCOD9526306
_publ_section_title
;
Structure prediction by ZEFSAII (Michael W. Deem and Ramdas Pophale) SiO2 
 PCOD9526306
Probable space group: I B A M
;
_chemical_formula_sum "Si O2"
_cell_formula_units_Z 64
_cell_length_a 9.385191
_cell_length_b 14.464582
_cell_length_c 22.821656
_cell_angle_alpha 90.000000
_cell_angle_beta 90.000000
_cell_angle_gamma 90.000000
_cell_volume 3098.105182
_symmetry_space_group_name_H-M "I B A M"
_symmetry_group_IT_number 72
_symmetry_cell_setting 'orthorhombic'
loop_
_space_group_symop_operation_xyz
x,y,z
-x,-y,z
x,-y,1/2-z
-x,y,1/2-z
-x,-y,-z
x,y,-z
-x,y,1/2+z
x,-y,1/2+z
1/2+x,1/2+y,1/2+z
1/2-x,1/2-y,1/2+z
1/2+x,1/2-y,-z
1/2-x,1/2+y,-z
1/2-x,1/2-y,1/2-z
1/2+x,1/2+y,1/2-z
1/2-x,1/2+y,z
1/2+x,1/2-y,z
loop_
_atom_site_type_symbol
_atom_site_label
_atom_site_fract_x
_atom_site_fract_y
_atom_site_fract_z
Si Si1 0.273443 0.047835 0.371622
Si Si2 0.973515 0.292033 0.000000
Si Si3 0.713736 0.378887 0.500000
Si Si4 0.634758 0.304279 0.710245
Si Si5 0.912781 0.635986 0.375343
O O1 0.222377 0.065202 0.438731
O O2 0.186109 0.104739 0.323805
O O3 0.432070 0.091072 0.367021
O O4 0.293460 0.939336 0.359407
O O5 0.905775 0.339125 0.943293
O O6 0.142711 0.314090 0.000000
O O7 0.925490 0.185744 0.000000
O O8 0.500000 0.325294 0.750000
O O9 0.750000 0.250000 0.750000
O O10 0.595931 0.229010 0.661023
#
# Coordination Sequence:
#
# PCOD9526306 Si02
#       5
#    16   8   8  16  16
#     4  10  21  40  66  96 123 165 216 264 315 385
#     4  10  19  35  67  94 124 162 205 261 329 388
#     4  10  19  35  67  94 126 162 205 261 327 382
#     4  12  24  41  64  89 127 173 216 260 316 375
#     4  10  21  40  66  94 124 164 214 265 323 381
#
# _framework density 20.657788
#
# number of rings (size 3 to 8) (size 9 to 14) (size 15 to 20)
#    0.000    1.500    5.000    0.750    0.000    4.000 
#    0.000    2.500    0.000    1.500    0.000    0.000 
#    0.000    0.000    0.000    0.000    0.000    0.125 
#
# Total GULP energy -178785.550761 kJ/mol
# GULP energy per Si atom -5587.048461 kJ/mol
# Density = 2.061077 g / cm^3
# Si number density = 20.657788 Si / 1000 Ang^3
#
#
#
# Elastic Constant Matrix: (Units=GPa)
#
#
# Indices 1 2 3 4 5 6 
#
# 1 47.6374 21.7873 56.4507 0.0000 0.0000 0.0000
# 2 21.7873 78.0320 49.2207 0.0000 0.0000 0.0000
# 3 56.4507 49.2207 140.9923 0.0000 0.0000 0.0000
# 4 0.0000 0.0000 0.0000 17.8635 0.0000 0.0000
# 5 0.0000 0.0000 0.0000 0.0000 59.4379 0.0000
# 6 0.0000 0.0000 0.0000 0.0000 0.0000 29.4830
#
#
#
# Elastic Compliance Matrix: (Units=1/GPa)
#
#
# Indices 1 2 3 4 5 6 
#
# 1 0.040057 -0.001369 -0.015560 0.000000 0.000000 0.000000
# 2 -0.001369 0.016481 -0.005205 0.000000 0.000000 0.000000
# 3 -0.015560 -0.005205 0.015140 0.000000 0.000000 0.000000
# 4 0.000000 0.000000 0.000000 0.055980 0.000000 0.000000
# 5 0.000000 0.000000 0.000000 0.000000 0.016824 0.000000
# 6 0.000000 0.000000 0.000000 0.000000 0.000000 0.033918
#
#
# Mechanical properties :
#
#
# Convention : Reuss Voigt Hill
#
# Bulk Modulus (GPa) = 36.48533 57.95324 47.21928
# Shear Modulus (GPa) = 21.56982 30.63707 26.10345
#
# Velocity S-wave (km/s) = 3.23484 3.85525 3.55859
# Velocity P-wave (km/s) = 5.62604 6.92330 6.30811
#
# Compressibility (1/GPa) = 0.02740828
#
# Stress axis : x y z
#
# Youngs Moduli (GPa) = 24.96445 60.67611 66.05159
#
# Poissons Ratio (x) = 0.08309 1.02776
# Poissons Ratio (y) = 0.03419 0.34381
# Poissons Ratio (z) = 0.38845 0.31583
#
# Static dielectric constant tensor:
#      x y z
#    x 1.707970 0.000000 0.000000 
#    y 0.000000 1.736430 0.000000 
#    z 0.000000 0.000000 1.723450 
# 
# From -- ./inp_files/38668.got.cif
#   From: 2010.05.17/outbox.cif.g08.bks.cpg/sg72_20_cif.got.tgz:38668.got - 2010.06.03 17:03:01.
