data_PCOD9526815
_publ_section_title
;
Structure prediction by ZEFSAII (Michael W. Deem and Ramdas Pophale) SiO2 
 PCOD9526815
Probable space group: I B A M
;
_chemical_formula_sum "Si O2"
_cell_formula_units_Z 128
_cell_length_a 18.839660
_cell_length_b 21.719199
_cell_length_c 17.092351
_cell_angle_alpha 90.000000
_cell_angle_beta 90.000000
_cell_angle_gamma 90.000000
_cell_volume 6993.887916
_symmetry_space_group_name_H-M "I B A M"
_symmetry_group_IT_number 72
_symmetry_cell_setting 'orthorhombic'
loop_
_space_group_symop_operation_xyz
x,y,z
-x,-y,z
x,-y,1/2-z
-x,y,1/2-z
-x,-y,-z
x,y,-z
-x,y,1/2+z
x,-y,1/2+z
1/2+x,1/2+y,1/2+z
1/2-x,1/2-y,1/2+z
1/2+x,1/2-y,-z
1/2-x,1/2+y,-z
1/2-x,1/2-y,1/2-z
1/2+x,1/2+y,1/2-z
1/2-x,1/2+y,z
1/2+x,1/2-y,z
loop_
_atom_site_type_symbol
_atom_site_label
_atom_site_fract_x
_atom_site_fract_y
_atom_site_fract_z
Si Si1 0.366843 0.733178 0.816926
Si Si2 0.980972 0.374405 0.909947
Si Si3 0.999733 0.227690 0.413154
Si Si4 0.618618 0.959830 0.588722
Si Si5 0.205485 0.637903 0.340601
Si Si6 0.847177 0.582811 0.674805
Si Si7 0.654849 0.285446 0.636852
Si Si8 0.752399 0.328551 0.912718
O O1 0.442451 0.711342 0.847941
O O2 0.342649 0.800557 0.846817
O O3 0.362124 0.736478 0.724402
O O4 0.307565 0.687309 0.850110
O O5 0.997757 0.302158 0.908971
O O6 0.953177 0.579453 0.895238
O O7 0.921849 0.384782 0.844397
O O8 0.956463 0.386836 0.000000
O O9 0.974044 0.210964 0.500000
O O10 0.078695 0.201443 0.400925
O O11 0.613005 0.984209 0.500000
O O12 0.681321 0.910317 0.594740
O O13 0.635130 0.012458 0.652257
O O14 0.185146 0.604825 0.257832
O O15 0.285895 0.661333 0.353047
O O16 0.792572 0.609748 0.611036
O O17 0.691833 0.228071 0.593325
O O18 0.723413 0.330656 0.000000
#
# Coordination Sequence:
#
# PCOD9526815 Si02
#       8
#    16  16  16  16  16  16  16  16
#     4  11  20  37  55  80 115 151 185 242 298 348
#     4  10  20  35  52  78 116 156 196 233 275 331
#     4  11  21  34  57  86 115 152 192 232 291 357
#     4  11  24  38  55  80 115 158 198 244 290 336
#     4  11  22  38  57  80 114 153 195 243 289 349
#     4  12  21  37  56  79 113 155 204 240 287 339
#     4  11  21  37  56  80 113 153 195 236 298 354
#     4  11  20  32  55  82 111 149 196 243 289 347
#
# _framework density 18.301694000000001
#
# number of rings (size 3 to 8) (size 9 to 14) (size 15 to 20)
#    0.000    1.000    5.000    3.750    0.000    4.000 
#    0.000    1.250    0.000    0.000    0.000    0.875 
#    0.000    3.000    0.000    0.000    0.000    0.000 
#
# Total GULP energy -357142.501714 kJ/mol
# GULP energy per Si atom -5580.351589 kJ/mol
# Density = 1.826004 g / cm^3
# Si number density = 18.301694 Si / 1000 Ang^3
#
#
#
# Elastic Constant Matrix: (Units=GPa)
#
#
# Indices 1 2 3 4 5 6 
#
# 1 85.3035 20.9340 17.9169 -0.0001 0.0000 0.0000
# 2 20.9340 36.8768 15.2415 -0.0003 0.0000 0.0000
# 3 17.9169 15.2415 60.1304 -0.0005 0.0000 0.0000
# 4 -0.0001 -0.0003 -0.0005-8170.3021 0.0001 -0.0001
# 5 0.0000 0.0000 0.0000 0.0001 -2.1455 0.0000
# 6 0.0000 0.0000 0.0000 -0.0001 0.0000 26.2544
#
#
#
# Elastic Compliance Matrix: (Units=1/GPa)
#
#
# Indices 1 2 3 4 5 6 
#
# 1 0.013923 -0.006913 -0.002396 0.000000 0.000000 0.000000
# 2 -0.006913 0.033723 -0.006488 0.000000 0.000000 0.000000
# 3 -0.002396 -0.006488 0.018989 0.000000 0.000000 0.000000
# 4 0.000000 0.000000 0.000000 -0.000122 0.000000 0.000000
# 5 0.000000 0.000000 0.000000 0.000000 -0.466093 0.000000
# 6 0.000000 0.000000 0.000000 0.000000 0.000000 0.038089
#
#
# Mechanical properties :
#
#
# Convention : Reuss Voigt Hill
#
# Bulk Modulus (GPa) = 28.53867 32.27729 30.40798
# Shear Modulus (GPa) = -15.71257 -1620.69076 -818.20166
#
# Velocity S-wave (km/s) = -2.93325 -29.79033 -21.16681
# Velocity P-wave (km/s) = 2.03848 34.14104 24.09829
#
# Compressibility (1/GPa) = 0.03504017
#
# Stress axis : x y z
#
# Youngs Moduli (GPa) = 71.82525 29.65300 52.66183
#
# Poissons Ratio (x) = 0.20500 0.12619
# Poissons Ratio (y) = 0.49654 0.34168
# Poissons Ratio (z) = 0.17211 0.19239
#
# Static dielectric constant tensor:
#      x y z
#    x 1.643560 0.000000 0.000000 
#    y 0.000000 1.629330 0.000000 
#    z 0.000000 0.000000 1.533180 
# 
# From -- ./inp_files/39384.got.cif
#   From: 2010.05.17/outbox.cif.g08.bks.cpg/sg72_20_cif.got.tgz:39384.got - 2010.06.03 17:03:01.
