data_PCOD9526922
_publ_section_title
;
Structure prediction by ZEFSAII (Michael W. Deem and Ramdas Pophale) SiO2 
 PCOD9526922
Probable space group: I B A M
;
_chemical_formula_sum "Si O2"
_cell_formula_units_Z 88
_cell_length_a 31.566625
_cell_length_b 15.507491
_cell_length_c 9.489252
_cell_angle_alpha 90.000000
_cell_angle_beta 90.000000
_cell_angle_gamma 90.000000
_cell_volume 4645.170602
_symmetry_space_group_name_H-M "I B A M"
_symmetry_group_IT_number 72
_symmetry_cell_setting 'orthorhombic'
loop_
_space_group_symop_operation_xyz
x,y,z
-x,-y,z
x,-y,1/2-z
-x,y,1/2-z
-x,-y,-z
x,y,-z
-x,y,1/2+z
x,-y,1/2+z
1/2+x,1/2+y,1/2+z
1/2-x,1/2-y,1/2+z
1/2+x,1/2-y,-z
1/2-x,1/2+y,-z
1/2-x,1/2-y,1/2-z
1/2+x,1/2+y,1/2-z
1/2-x,1/2+y,z
1/2+x,1/2-y,z
loop_
_atom_site_type_symbol
_atom_site_label
_atom_site_fract_x
_atom_site_fract_y
_atom_site_fract_z
Si Si1 0.364461 0.156003 0.161193
Si Si2 0.000000 0.730898 0.250000
Si Si3 0.560287 0.079527 0.838451
Si Si4 0.352336 0.583548 0.835528
Si Si5 0.080665 0.169013 0.652429
Si Si6 0.794189 0.745752 0.832019
O O1 0.396544 0.101277 0.255885
O O2 0.389246 0.246909 0.148109
O O3 0.322527 0.174988 0.250548
O O4 0.357519 0.124890 0.000000
O O5 0.029831 0.663552 0.334842
O O6 0.033795 0.793027 0.174823
O O7 0.542511 0.000000 0.750000
O O8 0.567279 0.055234 0.000000
O O9 0.337704 0.500000 0.750000
O O10 0.398101 0.611781 0.773131
O O11 0.319931 0.663797 0.818783
O O12 0.355546 0.564650 0.000000
O O13 0.083202 0.124961 0.500000
O O14 0.750000 0.750000 0.750000
O O15 0.789593 0.728455 0.000000
#
# Coordination Sequence:
#
# PCOD9526922 Si02
#       6
#    16   8  16  16  16  16
#     4   9  18  34  54  76 105 142 182 222 269 325
#     4  10  21  34  55  80 106 140 184 230 275 324
#     4  11  22  35  52  76 108 145 186 231 278 328
#     4  10  21  37  58  83 111 143 178 218 266 319
#     4   9  18  33  54  78 105 139 177 219 267 318
#     4  10  20  35  58  87 114 143 181 223 269 323
#
# _framework density 18.944406000000001
#
# number of rings (size 3 to 8) (size 9 to 14) (size 15 to 20)
#    0.000    2.182    0.000    3.000    0.000   10.182 
#    0.000    1.364    0.000    4.364    0.000    0.000 
#    0.000    0.000    0.000    0.000    0.000    0.000 
#
# Total GULP energy -245184.092751 kJ/mol
# GULP energy per Si atom -5572.365744 kJ/mol
# Density = 1.890129 g / cm^3
# Si number density = 18.944406 Si / 1000 Ang^3
#
#
#
# Elastic Constant Matrix: (Units=GPa)
#
#
# Indices 1 2 3 4 5 6 
#
# 1 141.4407 22.5622 77.9791 0.0000 0.0000 0.0000
# 2 22.5622 46.4410 49.6137 0.0000 0.0000 0.0000
# 3 77.9791 49.6137 204.9061 0.0000 0.0000 0.0000
# 4 0.0000 0.0000 0.0000 26.8420 0.0000 0.0000
# 5 0.0000 0.0000 0.0000 0.0000 -24.5523 0.0000
# 6 0.0000 0.0000 0.0000 0.0000 0.0000 13.1394
#
#
#
# Elastic Compliance Matrix: (Units=1/GPa)
#
#
# Indices 1 2 3 4 5 6 
#
# 1 0.008979 -0.000960 -0.003185 0.000000 0.000000 0.000000
# 2 -0.000960 0.029149 -0.006692 0.000000 0.000000 0.000000
# 3 -0.003185 -0.006692 0.007713 0.000000 0.000000 0.000000
# 4 0.000000 0.000000 0.000000 0.037255 0.000000 0.000000
# 5 0.000000 0.000000 0.000000 0.000000 -0.040729 0.000000
# 6 0.000000 0.000000 0.000000 0.000000 0.000000 0.076107
#
#
# Mechanical properties :
#
#
# Convention : Reuss Voigt Hill
#
# Bulk Modulus (GPa) = 41.38005 77.01088 59.19547
# Shear Modulus (GPa) = 33.73769 19.26135 26.49952
#
# Velocity S-wave (km/s) = 4.22462 3.19208 3.74412
# Velocity P-wave (km/s) = 6.75921 7.37055 7.07149
#
# Compressibility (1/GPa) = 0.02416624
#
# Stress axis : x y z
#
# Youngs Moduli (GPa) = 111.37130 34.30684 129.65746
#
# Poissons Ratio (x) = 0.03294 0.41290
# Poissons Ratio (y) = 0.10692 0.86772
# Poissons Ratio (z) = 0.35467 0.22959
#
# Static dielectric constant tensor:
#      x y z
#    x 1.660240 0.000000 0.000000 
#    y 0.000000 1.936150 0.000000 
#    z 0.000000 0.000000 1.656550 
# 
# From -- ./inp_files/5137.got.cif
#   From: 2010.05.17/outbox.cif.g08.bks.cpg/sg72_3_cif.got.tgz:5137.got - 2010.06.03 17:03:01.
