data_PCOD9526334
_publ_section_title
;
Structure prediction by ZEFSAII (Michael W. Deem and Ramdas Pophale) SiO2 
 PCOD9526334
Probable space group: I B A M
;
_chemical_formula_sum "Si O2"
_cell_formula_units_Z 104
_cell_length_a 8.490141
_cell_length_b 23.541770
_cell_length_c 25.855640
_cell_angle_alpha 90.000000
_cell_angle_beta 90.000000
_cell_angle_gamma 90.000000
_cell_volume 5167.842955
_symmetry_space_group_name_H-M "I B A M"
_symmetry_group_IT_number 72
_symmetry_cell_setting 'orthorhombic'
loop_
_space_group_symop_operation_xyz
x,y,z
-x,-y,z
x,-y,1/2-z
-x,y,1/2-z
-x,-y,-z
x,y,-z
-x,y,1/2+z
x,-y,1/2+z
1/2+x,1/2+y,1/2+z
1/2-x,1/2-y,1/2+z
1/2+x,1/2-y,-z
1/2-x,1/2+y,-z
1/2-x,1/2-y,1/2-z
1/2+x,1/2+y,1/2-z
1/2-x,1/2+y,z
1/2+x,1/2-y,z
loop_
_atom_site_type_symbol
_atom_site_label
_atom_site_fract_x
_atom_site_fract_y
_atom_site_fract_z
Si Si1 0.934908 0.405654 0.198161
Si Si2 0.745213 0.309194 0.854175
Si Si3 0.779081 0.000000 0.250000
Si Si4 0.792167 0.159704 0.938767
Si Si5 0.777982 0.910538 0.664639
Si Si6 0.419266 0.703850 0.304276
Si Si7 0.464581 0.223641 0.059498
O O1 0.817208 0.366143 0.168134
O O2 0.834059 0.457671 0.219020
O O3 0.000000 0.375541 0.250000
O O4 0.090450 0.421419 0.166117
O O5 0.562353 0.306400 0.843601
O O6 0.818653 0.303581 0.910514
O O7 0.819516 0.256720 0.822782
O O8 0.852121 0.960153 0.297115
O O9 0.816399 0.109742 0.895279
O O10 0.630740 0.194996 0.922833
O O11 0.927474 0.208608 0.938128
O O12 0.778608 0.141835 0.000000
O O13 0.816905 0.852850 0.695578
O O14 0.500000 0.714248 0.250000
O O15 0.455624 0.208679 0.000000
#
# Coordination Sequence:
#
# PCOD9526334 Si02
#       7
#    16  16   8  16  16  16  16
#     4  10  19  36  58  79 108 152 197 240 293 357
#     4  12  21  36  55  84 118 157 187 241 297 356
#     4  10  23  40  63  82 107 160 205 248 309 358
#     4  10  20  35  58  88 123 160 197 245 297 361
#     4  11  20  38  58  83 116 155 201 247 295 360
#     4  12  24  35  53  85 121 152 194 237 297 366
#     4  10  20  35  55  85 122 159 195 232 290 359
#
# _framework density 20.12445
#
# number of rings (size 3 to 8) (size 9 to 14) (size 15 to 20)
#    0.000    1.231    3.077    6.692    0.000    0.000 
#    0.000    3.462    0.000    2.769    0.000    0.000 
#    0.000    6.154    0.000    0.000    0.000    0.000 
#
# Total GULP energy -289661.999850 kJ/mol
# GULP energy per Si atom -5570.423074 kJ/mol
# Density = 2.007865 g / cm^3
# Si number density = 20.124450 Si / 1000 Ang^3
#
#
#
# Elastic Constant Matrix: (Units=GPa)
#
#
# Indices 1 2 3 4 5 6 
#
# 1 44.2563 22.4511 14.6260 0.0000 0.0000 0.0000
# 2 22.4511 95.9899 29.6014 0.0000 0.0000 0.0000
# 3 14.6260 29.6014 113.2931 0.0000 0.0000 0.0000
# 4 0.0000 0.0000 0.0000 0.8521 0.0000 0.0000
# 5 0.0000 0.0000 0.0000 0.0000 -351.9058 0.0000
# 6 0.0000 0.0000 0.0000 0.0000 0.0000 117.5630
#
#
#
# Elastic Compliance Matrix: (Units=1/GPa)
#
#
# Indices 1 2 3 4 5 6 
#
# 1 0.026017 -0.005492 -0.001924 0.000000 0.000000 0.000000
# 2 -0.005492 0.012490 -0.002554 0.000000 0.000000 0.000000
# 3 -0.001924 -0.002554 0.009742 0.000000 0.000000 0.000000
# 4 0.000000 0.000000 0.000000 1.173537 0.000000 0.000000
# 5 0.000000 0.000000 0.000000 0.000000 -0.002842 0.000000
# 6 0.000000 0.000000 0.000000 0.000000 0.000000 0.008506
#
#
# Mechanical properties :
#
#
# Convention : Reuss Voigt Hill
#
# Bulk Modulus (GPa) = 35.32387 42.98849 39.15618
# Shear Modulus (GPa) = 3.97827 -34.24074 -15.13123
#
# Velocity S-wave (km/s) = 1.40752 -4.12934 -2.74502
# Velocity P-wave (km/s) = 4.49803 1.15219 3.07447
#
# Compressibility (1/GPa) = 0.02830947
#
# Stress axis : x y z
#
# Youngs Moduli (GPa) = 38.43567 80.06406 102.64361
#
# Poissons Ratio (x) = 0.43971 0.19747
# Poissons Ratio (y) = 0.21109 0.26219
# Poissons Ratio (z) = 0.07395 0.20452
#
# Static dielectric constant tensor:
#      x y z
#    x 1.762950 0.000000 0.000000 
#    y 0.000000 1.717410 0.000000 
#    z 0.000000 0.000000 2.005640 
# 
# From -- ./inp_files/47562.got.cif
#   From: 2010.05.17/outbox.cif.g08.bks.cpg/sg72_24_cif.got.tgz:47562.got - 2010.06.03 17:03:01.
