data_PCOD9526242
_publ_section_title
;
Structure prediction by ZEFSAII (Michael W. Deem and Ramdas Pophale) SiO2 
 PCOD9526242
Probable space group: I B A M
;
_chemical_formula_sum "Si O2"
_cell_formula_units_Z 80
_cell_length_a 7.934031
_cell_length_b 29.404457
_cell_length_c 15.241012
_cell_angle_alpha 90.000000
_cell_angle_beta 90.000000
_cell_angle_gamma 90.000000
_cell_volume 3555.665206
_symmetry_space_group_name_H-M "I B A M"
_symmetry_group_IT_number 72
_symmetry_cell_setting 'orthorhombic'
loop_
_space_group_symop_operation_xyz
x,y,z
-x,-y,z
x,-y,1/2-z
-x,y,1/2-z
-x,-y,-z
x,y,-z
-x,y,1/2+z
x,-y,1/2+z
1/2+x,1/2+y,1/2+z
1/2-x,1/2-y,1/2+z
1/2+x,1/2-y,-z
1/2-x,1/2+y,-z
1/2-x,1/2-y,1/2-z
1/2+x,1/2+y,1/2-z
1/2-x,1/2+y,z
1/2+x,1/2-y,z
loop_
_atom_site_type_symbol
_atom_site_label
_atom_site_fract_x
_atom_site_fract_y
_atom_site_fract_z
Si Si1 0.246778 0.384089 0.106302
Si Si2 0.616519 0.399175 0.107331
Si Si3 0.944993 0.449939 0.107413
Si Si4 0.730708 0.299747 0.098456
Si Si5 0.591398 0.793730 0.658359
O O1 0.423780 0.405935 0.134741
O O2 0.226744 0.332592 0.138977
O O3 0.085191 0.413204 0.134778
O O4 0.246279 0.382891 0.000000
O O5 0.759847 0.434162 0.136757
O O6 0.671562 0.348307 0.134031
O O7 0.619762 0.399896 0.000000
O O8 0.000000 0.500000 0.135736
O O9 0.943953 0.449978 0.000000
O O10 0.668911 0.256194 0.151497
O O11 0.932729 0.299379 0.093936
O O12 0.660550 0.295026 0.000000
O O13 0.500000 0.801114 0.750000
#
# Coordination Sequence:
#
# PCOD9526242 Si02
#       5
#    16  16  16  16  16
#     4  10  19  35  57  81 116 159 203 247 304 377
#     4   9  18  32  54  84 114 150 196 243 295 362
#     4   9  17  31  54  85 118 149 190 253 314 360
#     4  11  21  37  58  81 115 159 203 246 299 371
#     4  12  24  37  55  85 123 157 205 260 313 367
#
# _framework density 22.499305
#
# number of rings (size 3 to 8) (size 9 to 14) (size 15 to 20)
#    0.000    1.800    2.000    3.600    0.000    2.400 
#    0.000    4.000    0.000    0.600    0.000    0.000 
#    6.000    0.000    0.000    0.000    0.000    0.000 
#
# Total GULP energy -223683.927870 kJ/mol
# GULP energy per Si atom -5592.098197 kJ/mol
# Density = 2.244810 g / cm^3
# Si number density = 22.499305 Si / 1000 Ang^3
#
#
#
# Elastic Constant Matrix: (Units=GPa)
#
#
# Indices 1 2 3 4 5 6 
#
# 1 142.7444 33.2419 7.6692 0.0001 0.0000 0.0000
# 2 33.2419 89.6925 3.8145 0.0020 0.0000 0.0000
# 3 7.6692 3.8145 46.3615 0.0043 0.0000 0.0001
# 4 0.0001 0.0020 0.0043 -493.0451 -0.0004 0.0009
# 5 0.0000 0.0000 0.0000 -0.0004 11.6989 0.0000
# 6 0.0000 0.0000 0.0001 0.0009 0.0000 38.2232
#
#
#
# Elastic Compliance Matrix: (Units=1/GPa)
#
#
# Indices 1 2 3 4 5 6 
#
# 1 0.007717 -0.002816 -0.001045 0.000000 0.000000 0.000000
# 2 -0.002816 0.012216 -0.000539 0.000000 0.000000 0.000000
# 3 -0.001045 -0.000539 0.021787 0.000000 0.000000 0.000000
# 4 0.000000 0.000000 0.000000 -0.002028 0.000000 0.000000
# 5 0.000000 0.000000 0.000000 0.000000 0.085478 0.000000
# 6 0.000000 0.000000 0.000000 0.000000 0.000000 0.026162
#
#
# Mechanical properties :
#
#
# Convention : Reuss Voigt Hill
#
# Bulk Modulus (GPa) = 30.37674 40.91662 35.64668
# Shear Modulus (GPa) = 29.22180 -73.01974 -21.89897
#
# Velocity S-wave (km/s) = 3.60778 -5.70304 -3.12319
# Velocity P-wave (km/s) = 5.55745 5.01408 1.69473
#
# Compressibility (1/GPa) = 0.03291992
#
# Stress axis : x y z
#
# Youngs Moduli (GPa) = 129.57729 81.86169 45.89928
#
# Poissons Ratio (x) = 0.23051 0.04796
# Poissons Ratio (y) = 0.36486 0.02475
# Poissons Ratio (z) = 0.13540 0.04415
#
# Static dielectric constant tensor:
#      x y z
#    x 1.823710 0.000000 0.000000 
#    y 0.000000 1.778590 0.000000 
#    z 0.000000 0.000000 1.906820 
# 
# From -- ./inp_files/28153.got.cif
#   From: 2010.05.17/outbox.cif.g08.bks.cpg/sg72_15_cif.got.tgz:28153.got - 2010.06.03 17:03:01.
