data_PCOD9526757
_publ_section_title
;
Structure prediction by ZEFSAII (Michael W. Deem and Ramdas Pophale) SiO2 
 PCOD9526757
Probable space group: I B A M
;
_chemical_formula_sum "Si O2"
_cell_formula_units_Z 72
_cell_length_a 7.534641
_cell_length_b 23.210630
_cell_length_c 21.149762
_cell_angle_alpha 90.000000
_cell_angle_beta 90.000000
_cell_angle_gamma 90.000000
_cell_volume 3698.749995
_symmetry_space_group_name_H-M "I B A M"
_symmetry_group_IT_number 72
_symmetry_cell_setting 'orthorhombic'
loop_
_space_group_symop_operation_xyz
x,y,z
-x,-y,z
x,-y,1/2-z
-x,y,1/2-z
-x,-y,-z
x,y,-z
-x,y,1/2+z
x,-y,1/2+z
1/2+x,1/2+y,1/2+z
1/2-x,1/2-y,1/2+z
1/2+x,1/2-y,-z
1/2-x,1/2+y,-z
1/2-x,1/2-y,1/2-z
1/2+x,1/2+y,1/2-z
1/2-x,1/2+y,z
1/2+x,1/2-y,z
loop_
_atom_site_type_symbol
_atom_site_label
_atom_site_fract_x
_atom_site_fract_y
_atom_site_fract_z
Si Si1 0.000000 0.638023 0.250000
Si Si2 0.031535 0.315857 0.384144
Si Si3 0.423192 0.308683 0.573066
Si Si4 0.783356 0.901643 0.574731
Si Si5 0.809785 0.533053 0.191658
O O1 0.063556 0.673213 0.189959
O O2 0.147920 0.595483 0.278630
O O3 0.217945 0.323259 0.418928
O O4 0.963037 0.250940 0.392007
O O5 0.888678 0.361054 0.411956
O O6 0.465824 0.296763 0.500000
O O7 0.548831 0.361498 0.591829
O O8 0.789741 0.916532 0.500000
O O9 0.774577 0.955033 0.623535
O O10 0.718037 0.500000 0.250000
O O11 0.000000 0.500000 0.181806
#
# Coordination Sequence:
#
# PCOD9526757 Si02
#       5
#     8  16  16  16  16
#     4   8  19  34  54  80 106 148 193 222 276 338
#     4  11  20  35  52  77 119 157 184 227 270 326
#     4  11  21  33  52  80 116 154 186 222 270 327
#     4  10  20  34  56  86 111 147 193 226 274 340
#     4   8  16  36  60  78 106 141 183 239 292 333
#
# _framework density 19.466035999999999
#
# number of rings (size 3 to 8) (size 9 to 14) (size 15 to 20)
#    0.000    2.444    2.222    2.000    0.000    1.333 
#    0.000    0.000    0.000   24.000    0.000   29.556 
#    0.000    0.000    0.000    0.000    0.000    0.000 
#
# Total GULP energy -200673.760989 kJ/mol
# GULP energy per Si atom -5574.271139 kJ/mol
# Density = 1.942173 g / cm^3
# Si number density = 19.466036 Si / 1000 Ang^3
#
#
#
# Elastic Constant Matrix: (Units=GPa)
#
#
# Indices 1 2 3 4 5 6 
#
# 1 72.7504 8.5925 -18.7595 0.0000 0.0000 0.0000
# 2 8.5925 56.8664 38.1940 0.0000 0.0000 0.0000
# 3 -18.7595 38.1940 92.2637 0.0000 0.0000 0.0000
# 4 0.0000 0.0000 0.0000 144.4926 0.0000 0.0000
# 5 0.0000 0.0000 0.0000 0.0000 -146.5549 0.0000
# 6 0.0000 0.0000 0.0000 0.0000 0.0000 15.8748
#
#
#
# Elastic Compliance Matrix: (Units=1/GPa)
#
#
# Indices 1 2 3 4 5 6 
#
# 1 0.016021 -0.006383 0.005900 0.000000 0.000000 0.000000
# 2 -0.006383 0.026901 -0.012434 0.000000 0.000000 0.000000
# 3 0.005900 -0.012434 0.017185 0.000000 0.000000 0.000000
# 4 0.000000 0.000000 0.000000 0.006921 0.000000 0.000000
# 5 0.000000 0.000000 0.000000 0.000000 -0.006823 0.000000
# 6 0.000000 0.000000 0.000000 0.000000 0.000000 0.062993
#
#
# Mechanical properties :
#
#
# Convention : Reuss Voigt Hill
#
# Bulk Modulus (GPa) = 29.17808 30.88161 30.02985
# Shear Modulus (GPa) = 31.16115 15.68607 23.42361
#
# Velocity S-wave (km/s) = 4.00534 2.84177 3.47263
# Velocity P-wave (km/s) = 6.03424 5.16395 5.61598
#
# Compressibility (1/GPa) = 0.03427230
#
# Stress axis : x y z
#
# Youngs Moduli (GPa) = 62.41826 37.17360 58.18913
#
# Poissons Ratio (x) = 0.23730 -0.34332
# Poissons Ratio (y) = 0.39844 0.72352
# Poissons Ratio (z) = -0.36827 0.46221
#
# Static dielectric constant tensor:
#      x y z
#    x 1.692860 0.000000 0.000000 
#    y 0.000000 1.696060 0.000000 
#    z 0.000000 0.000000 1.725570 
# 
# From -- ./inp_files/35631.got.cif
#   From: 2010.05.17/outbox.cif.g08.bks.cpg/sg72_18_cif.got.tgz:35631.got - 2010.06.03 17:03:01.
