data_PCOD9526708
_publ_section_title
;
Structure prediction by ZEFSAII (Michael W. Deem and Ramdas Pophale) SiO2 
 PCOD9526708
Probable space group: I B A M
;
_chemical_formula_sum "Si O2"
_cell_formula_units_Z 64
_cell_length_a 11.527303
_cell_length_b 28.173551
_cell_length_c 8.663377
_cell_angle_alpha 90.000000
_cell_angle_beta 90.000000
_cell_angle_gamma 90.000000
_cell_volume 2813.562142
_symmetry_space_group_name_H-M "I B A M"
_symmetry_group_IT_number 72
_symmetry_cell_setting 'orthorhombic'
loop_
_space_group_symop_operation_xyz
x,y,z
-x,-y,z
x,-y,1/2-z
-x,y,1/2-z
-x,-y,-z
x,y,-z
-x,y,1/2+z
x,-y,1/2+z
1/2+x,1/2+y,1/2+z
1/2-x,1/2-y,1/2+z
1/2+x,1/2-y,-z
1/2-x,1/2+y,-z
1/2-x,1/2-y,1/2-z
1/2+x,1/2+y,1/2-z
1/2-x,1/2+y,z
1/2+x,1/2-y,z
loop_
_atom_site_type_symbol
_atom_site_label
_atom_site_fract_x
_atom_site_fract_y
_atom_site_fract_z
Si Si1 0.146511 0.818010 0.674668
Si Si2 0.125296 0.553777 0.186131
Si Si3 0.622909 0.414630 0.679477
Si Si4 0.103896 0.716716 0.825644
O O1 0.107199 0.828472 0.500000
O O2 0.113094 0.857705 0.796094
O O3 0.118110 0.764293 0.724500
O O4 0.284869 0.815648 0.673884
O O5 0.126954 0.500000 0.250000
O O6 0.253046 0.572981 0.240553
O O7 0.000000 0.573412 0.250000
O O8 0.121627 0.555652 0.000000
O O9 0.500000 0.433765 0.750000
O O10 0.629095 0.427379 0.500000
O O11 0.000000 0.688876 0.750000
O O12 0.081281 0.731672 0.000000
#
# Coordination Sequence:
#
# PCOD9526708 Si02
#       4
#    16  16  16  16
#     4  10  21  37  55  79 113 154 200 250 306 367
#     4  11  23  44  71 100 131 166 206 250 305 367
#     4  12  25  42  64  93 128 167 210 259 313 371
#     4  10  20  34  54  78 108 149 198 251 306 364
#
# _framework density 22.746963999999998
#
# number of rings (size 3 to 8) (size 9 to 14) (size 15 to 20)
#    0.000    1.250    0.000    7.500    0.000    4.500 
#    0.000    5.000    0.000    0.000    0.000    0.000 
#    0.000    0.000    0.000    0.000    0.000    0.000 
#
# Total GULP energy -178512.440484 kJ/mol
# GULP energy per Si atom -5578.513765 kJ/mol
# Density = 2.269519 g / cm^3
# Si number density = 22.746964 Si / 1000 Ang^3
#
#
#
# Elastic Constant Matrix: (Units=GPa)
#
#
# Indices 1 2 3 4 5 6 
#
# 1 221.0463 24.3238 94.1688 -0.0005 0.0002 -0.0006
# 2 24.3238 53.9058 3.2194 0.0003 -0.0001 0.0001
# 3 94.1688 3.2194 171.4413 0.0013 0.0034 -0.0067
# 4 -0.0005 0.0003 0.0013 39.9159 0.0005 -0.0053
# 5 0.0002 -0.0001 0.0034 0.0005 48.2538 0.0014
# 6 -0.0006 0.0001 -0.0067 -0.0053 0.0014 -107.4773
#
#
#
# Elastic Compliance Matrix: (Units=1/GPa)
#
#
# Indices 1 2 3 4 5 6 
#
# 1 0.006255 -0.002620 -0.003387 0.000000 0.000000 0.000000
# 2 -0.002620 0.019669 0.001070 0.000000 0.000000 0.000000
# 3 -0.003387 0.001070 0.007673 0.000000 -0.000001 0.000000
# 4 0.000000 0.000000 0.000000 0.025053 0.000000 -0.000001
# 5 0.000000 0.000000 -0.000001 0.000000 0.020724 0.000000
# 6 0.000000 0.000000 0.000000 -0.000001 0.000000 -0.009304
#
#
# Mechanical properties :
#
#
# Convention : Reuss Voigt Hill
#
# Bulk Modulus (GPa) = 42.15227 76.64638 59.39932
# Shear Modulus (GPa) = 56.91468 17.78392 37.34930
#
# Velocity S-wave (km/s) = 5.00750 2.79913 4.05649
# Velocity P-wave (km/s) = 7.21142 6.64945 6.93613
#
# Compressibility (1/GPa) = 0.02372352
#
# Stress axis : x y z
#
# Youngs Moduli (GPa) = 159.87320 50.84073 130.32817
#
# Poissons Ratio (x) = 0.13321 0.44136
# Poissons Ratio (y) = 0.41889 -0.13943
# Poissons Ratio (z) = 0.54141 -0.05439
#
# Static dielectric constant tensor:
#      x y z
#    x 2.109240 0.000000 0.000000 
#    y 0.000000 1.828630 0.000000 
#    z 0.000000 0.000000 1.806020 
# 
# From -- ./inp_files/2611.got.cif
#   From: 2010.05.17/outbox.cif.g08.bks.cpg/sg72_2_cif.got.tgz:2611.got - 2010.06.03 17:03:01.
