data_PCOD9526452
_publ_section_title
;
Structure prediction by ZEFSAII (Michael W. Deem and Ramdas Pophale) SiO2 
 PCOD9526452
Probable space group: I B A M
;
_chemical_formula_sum "Si O2"
_cell_formula_units_Z 112
_cell_length_a 14.472925
_cell_length_b 13.500557
_cell_length_c 28.141351
_cell_angle_alpha 90.000000
_cell_angle_beta 90.000000
_cell_angle_gamma 90.000000
_cell_volume 5498.610302
_symmetry_space_group_name_H-M "I B A M"
_symmetry_group_IT_number 72
_symmetry_cell_setting 'orthorhombic'
loop_
_space_group_symop_operation_xyz
x,y,z
-x,-y,z
x,-y,1/2-z
-x,y,1/2-z
-x,-y,-z
x,y,-z
-x,y,1/2+z
x,-y,1/2+z
1/2+x,1/2+y,1/2+z
1/2-x,1/2-y,1/2+z
1/2+x,1/2-y,-z
1/2-x,1/2+y,-z
1/2-x,1/2-y,1/2-z
1/2+x,1/2+y,1/2-z
1/2-x,1/2+y,z
1/2+x,1/2-y,z
loop_
_atom_site_type_symbol
_atom_site_label
_atom_site_fract_x
_atom_site_fract_y
_atom_site_fract_z
Si Si1 0.850088 0.534376 0.000000
Si Si2 0.854613 0.243861 0.266344
Si Si3 0.786865 0.517034 0.399744
Si Si4 0.378655 0.571288 0.161260
Si Si5 0.419064 0.793597 0.602138
Si Si6 0.025677 0.331997 0.500000
Si Si7 0.932272 0.407544 0.666932
Si Si8 0.083590 0.138465 0.674481
O O1 0.792790 0.531740 0.048489
O O2 0.921931 0.625132 0.000000
O O3 0.911695 0.432827 0.000000
O O4 0.750000 0.250000 0.250000
O O5 0.846162 0.161309 0.306994
O O6 0.896137 0.343460 0.288912
O O7 0.913852 0.205526 0.221306
O O8 0.684961 0.548027 0.383585
O O9 0.845892 0.618051 0.400476
O O10 0.843961 0.448922 0.362385
O O11 0.484339 0.603991 0.154445
O O12 0.372415 0.466175 0.188443
O O13 0.452254 0.774613 0.548530
O O14 0.505729 0.836582 0.632766
O O15 0.376094 0.702536 0.631398
O O16 0.000000 0.500000 0.679001
#
# Coordination Sequence:
#
# PCOD9526452 Si02
#       8
#     8  16  16  16  16   8  16  16
#     4   9  16  32  62  95 132 164 208 266 338 399
#     4  12  24  42  67  93 127 171 223 281 330 398
#     4  10  20  37  63  99 130 164 209 274 334 394
#     4  11  24  42  63  85 123 174 225 259 317 398
#     4  10  19  38  64  95 127 164 208 270 333 393
#     4   9  16  32  64  97 126 166 207 259 344 410
#     4  10  21  38  65  95 131 162 207 274 340 388
#     4  11  24  43  63  85 123 177 223 263 318 396
#
# _framework density 20.368783000000001
#
# number of rings (size 3 to 8) (size 9 to 14) (size 15 to 20)
#    0.000    1.571    2.857    2.571    0.000    1.143 
#    0.000   10.714    0.000    5.143    0.000    0.000 
#    0.000    0.000    0.000    0.000    0.000    0.000 
#
# Total GULP energy -312412.016227 kJ/mol
# GULP energy per Si atom -5578.786004 kJ/mol
# Density = 2.032242 g / cm^3
# Si number density = 20.368783 Si / 1000 Ang^3
#
#
#
# Elastic Constant Matrix: (Units=GPa)
#
#
# Indices 1 2 3 4 5 6 
#
# 1 70.5358 4.5928 33.0688 0.0000 0.0000 0.0000
# 2 4.5928 92.5171 44.2290 0.0000 0.0000 0.0000
# 3 33.0688 44.2290 117.5890 0.0000 0.0000 0.0000
# 4 0.0000 0.0000 0.0000 1.6372 0.0000 0.0000
# 5 0.0000 0.0000 0.0000 0.0000 30.8045 0.0000
# 6 0.0000 0.0000 0.0000 0.0000 0.0000 6.7862
#
#
#
# Elastic Compliance Matrix: (Units=1/GPa)
#
#
# Indices 1 2 3 4 5 6 
#
# 1 0.016549 0.001711 -0.005298 0.000000 0.000000 0.000000
# 2 0.001711 0.013355 -0.005505 0.000000 0.000000 0.000000
# 3 -0.005298 -0.005505 0.012064 0.000000 0.000000 0.000000
# 4 0.000000 0.000000 0.000000 0.610805 0.000000 0.000000
# 5 0.000000 0.000000 0.000000 0.000000 0.032463 0.000000
# 6 0.000000 0.000000 0.000000 0.000000 0.000000 0.147359
#
#
# Mechanical properties :
#
#
# Convention : Reuss Voigt Hill
#
# Bulk Modulus (GPa) = 42.03987 49.38032 45.71010
# Shear Modulus (GPa) = 5.82271 21.09566 13.45918
#
# Velocity S-wave (km/s) = 1.69259 3.22170 2.57334
# Velocity P-wave (km/s) = 4.95015 6.17535 5.59638
#
# Compressibility (1/GPa) = 0.02378694
#
# Stress axis : x y z
#
# Youngs Moduli (GPa) = 60.42492 74.87605 82.88792
#
# Poissons Ratio (x) = -0.12812 0.43911
# Poissons Ratio (y) = -0.10339 0.45626
# Poissons Ratio (z) = 0.32011 0.41216
#
# Static dielectric constant tensor:
#      x y z
#    x 1.774650 0.000000 0.000000 
#    y 0.000000 1.746670 0.000000 
#    z 0.000000 0.000000 1.838380 
# 
# From -- ./inp_files/48752.got.cif
#   From: 2010.05.17/outbox.cif.g08.bks.cpg/sg72_25_cif.got.tgz:48752.got - 2010.06.03 17:03:01.
