data_PCOD9526492
_publ_section_title
;
Structure prediction by ZEFSAII (Michael W. Deem and Ramdas Pophale) SiO2 
 PCOD9526492
Probable space group: I B A M
;
_chemical_formula_sum "Si O2"
_cell_formula_units_Z 96
_cell_length_a 9.565010
_cell_length_b 24.633620
_cell_length_c 21.736933
_cell_angle_alpha 90.000000
_cell_angle_beta 90.000000
_cell_angle_gamma 90.000000
_cell_volume 5121.674013
_symmetry_space_group_name_H-M "I B A M"
_symmetry_group_IT_number 72
_symmetry_cell_setting 'orthorhombic'
loop_
_space_group_symop_operation_xyz
x,y,z
-x,-y,z
x,-y,1/2-z
-x,y,1/2-z
-x,-y,-z
x,y,-z
-x,y,1/2+z
x,-y,1/2+z
1/2+x,1/2+y,1/2+z
1/2-x,1/2-y,1/2+z
1/2+x,1/2-y,-z
1/2-x,1/2+y,-z
1/2-x,1/2-y,1/2-z
1/2+x,1/2+y,1/2-z
1/2-x,1/2+y,z
1/2+x,1/2-y,z
loop_
_atom_site_type_symbol
_atom_site_label
_atom_site_fract_x
_atom_site_fract_y
_atom_site_fract_z
Si Si1 0.484034 0.435422 0.677782
Si Si2 0.648775 0.620752 0.068284
Si Si3 0.929527 0.786589 0.068948
Si Si4 0.345242 0.800962 0.236376
Si Si5 0.268849 0.863676 0.646044
Si Si6 0.930900 0.337771 0.395750
O O1 0.500000 0.500000 0.678096
O O2 0.500000 0.416919 0.750000
O O3 0.593904 0.411667 0.627848
O O4 0.334596 0.414687 0.651315
O O5 0.573837 0.679825 0.073896
O O6 0.814750 0.628523 0.068623
O O7 0.605512 0.599393 0.000000
O O8 0.821802 0.814836 0.115730
O O9 0.953315 0.723063 0.078901
O O10 0.873837 0.794908 0.000000
O O11 0.500000 0.780319 0.250000
O O12 0.250000 0.750000 0.250000
O O13 0.306579 0.846786 0.284930
O O14 0.354470 0.826106 0.169360
O O15 0.418671 0.866223 0.612242
#
# Coordination Sequence:
#
# PCOD9526492 Si02
#       6
#    16  16  16  16  16  16
#     4  10  22  43  68  86 106 145 196 253 308 353
#     4  10  22  37  57  86 119 156 198 242 291 352
#     4  10  20  33  51  77 114 159 195 223 266 338
#     4  10  20  30  48  78 113 152 189 227 278 336
#     4  10  21  36  54  82 114 147 193 238 282 343
#     4  11  20  32  52  81 120 156 190 229 282 343
#
# _framework density 18.743872
#
# number of rings (size 3 to 8) (size 9 to 14) (size 15 to 20)
#    0.000    1.833    1.667    2.500    2.333    3.667 
#    0.000    0.833    0.000    3.000    0.000    0.000 
#    0.000    0.000    0.000    0.000    0.000    0.000 
#
# Total GULP energy -267567.368311 kJ/mol
# GULP energy per Si atom -5574.320173 kJ/mol
# Density = 1.870121 g / cm^3
# Si number density = 18.743872 Si / 1000 Ang^3
#
#
#
# Elastic Constant Matrix: (Units=GPa)
#
#
# Indices 1 2 3 4 5 6 
#
# 1 118.7024 42.5379 33.2260 0.0000 0.0000 0.0000
# 2 42.5379 64.5678 28.4984 0.0000 0.0000 0.0000
# 3 33.2260 28.4984 111.8599 0.0000 0.0000 0.0000
# 4 0.0000 0.0000 0.0000 17.8072 0.0000 0.0000
# 5 0.0000 0.0000 0.0000 0.0000 24.9673 0.0000
# 6 0.0000 0.0000 0.0000 0.0000 0.0000 9.2664
#
#
#
# Elastic Compliance Matrix: (Units=1/GPa)
#
#
# Indices 1 2 3 4 5 6 
#
# 1 0.011290 -0.006713 -0.001643 0.000000 0.000000 0.000000
# 2 -0.006713 0.021441 -0.003469 0.000000 0.000000 0.000000
# 3 -0.001643 -0.003469 0.010312 0.000000 0.000000 0.000000
# 4 0.000000 0.000000 0.000000 0.056157 0.000000 0.000000
# 5 0.000000 0.000000 0.000000 0.000000 0.040052 0.000000
# 6 0.000000 0.000000 0.000000 0.000000 0.000000 0.107917
#
#
# Mechanical properties :
#
#
# Convention : Reuss Voigt Hill
#
# Bulk Modulus (GPa) = 51.56414 55.96164 53.76289
# Shear Modulus (GPa) = 18.03216 23.13270 20.58243
#
# Velocity S-wave (km/s) = 3.10502 3.51685 3.31734
# Velocity P-wave (km/s) = 6.35803 6.81262 6.58924
#
# Compressibility (1/GPa) = 0.01939332
#
# Stress axis : x y z
#
# Youngs Moduli (GPa) = 88.57459 46.63990 96.97850
#
# Poissons Ratio (x) = 0.31308 0.15937
# Poissons Ratio (y) = 0.59457 0.33638
# Poissons Ratio (z) = 0.14556 0.16178
#
# Static dielectric constant tensor:
#      x y z
#    x 1.677260 0.000000 0.000000 
#    y 0.000000 1.666340 0.000000 
#    z 0.000000 0.000000 1.686410 
# 
# From -- ./inp_files/36063.got.cif
#   From: 2010.05.17/outbox.cif.g08.bks.cpg/sg72_19_cif.got.tgz:36063.got - 2010.06.03 17:03:01.
