data_PCOD9526779
_publ_section_title
;
Structure prediction by ZEFSAII (Michael W. Deem and Ramdas Pophale) SiO2 
 PCOD9526779
Probable space group: I B A M
;
_chemical_formula_sum "Si O2"
_cell_formula_units_Z 116
_cell_length_a 26.670048
_cell_length_b 23.821339
_cell_length_c 9.285185
_cell_angle_alpha 90.000000
_cell_angle_beta 90.000000
_cell_angle_gamma 90.000000
_cell_volume 5899.028957
_symmetry_space_group_name_H-M "I B A M"
_symmetry_group_IT_number 72
_symmetry_cell_setting 'orthorhombic'
loop_
_space_group_symop_operation_xyz
x,y,z
-x,-y,z
x,-y,1/2-z
-x,y,1/2-z
-x,-y,-z
x,y,-z
-x,y,1/2+z
x,-y,1/2+z
1/2+x,1/2+y,1/2+z
1/2-x,1/2-y,1/2+z
1/2+x,1/2-y,-z
1/2-x,1/2+y,-z
1/2-x,1/2-y,1/2-z
1/2+x,1/2+y,1/2-z
1/2-x,1/2+y,z
1/2+x,1/2-y,z
loop_
_atom_site_type_symbol
_atom_site_label
_atom_site_fract_x
_atom_site_fract_y
_atom_site_fract_z
Si Si1 0.000000 0.000000 0.250000
Si Si2 0.816196 0.777249 0.337585
Si Si3 0.164262 0.664380 0.672498
Si Si4 0.790197 0.556619 0.669989
Si Si5 0.564213 0.296103 0.339302
Si Si6 0.547574 0.185266 0.169150
Si Si7 0.312290 0.611657 0.833487
Si Si8 0.571770 0.597101 0.338036
O O1 0.038008 0.958234 0.331617
O O2 0.796489 0.768945 0.500000
O O3 0.812475 0.721371 0.241024
O O4 0.875853 0.788722 0.348551
O O5 0.798346 0.834663 0.263702
O O6 0.172214 0.663552 0.500000
O O7 0.186210 0.610500 0.752381
O O8 0.103921 0.663939 0.699334
O O9 0.805778 0.500000 0.750000
O O10 0.802416 0.555556 0.500000
O O11 0.730204 0.565170 0.683706
O O12 0.543667 0.287291 0.500000
O O13 0.549254 0.249214 0.225182
O O14 0.554156 0.357711 0.279026
O O15 0.500000 0.158124 0.250000
O O16 0.539264 0.182099 0.000000
O O17 0.368684 0.589180 0.807228
O O18 0.311168 0.630959 0.000000
O O19 0.568475 0.621042 0.500000
#
# Coordination Sequence:
#
# PCOD9526779 Si02
#       8
#     4  16  16  16  16  16  16  16
#     4  12  26  36  56  78 106 152 204 258 302 340
#     4   9  17  32  57  89 119 150 190 239 295 350
#     4  10  21  38  60  88 124 159 193 237 289 348
#     4  11  24  41  63  88 115 152 198 244 294 350
#     4   9  18  33  54  80 111 147 189 236 287 344
#     4  10  20  34  57  88 120 154 188 226 278 340
#     4   9  20  39  61  84 113 151 195 246 300 358
#     4  10  22  40  56  75 107 147 195 247 300 349
#
# _framework density 19.664254
#
# number of rings (size 3 to 8) (size 9 to 14) (size 15 to 20)
#    0.000    2.207    0.000    2.276    1.931    7.724 
#    0.000    0.000    0.000    0.414    0.000    2.897 
#    0.000    0.000    0.000    0.000    0.000    0.000 
#
# Total GULP energy -323680.870942 kJ/mol
# GULP energy per Si atom -5580.704671 kJ/mol
# Density = 1.961950 g / cm^3
# Si number density = 19.664254 Si / 1000 Ang^3
#
#
#
# Elastic Constant Matrix: (Units=GPa)
#
#
# Indices 1 2 3 4 5 6 
#
# 1 75.5578 24.4847 36.3764 0.0000 0.0000 0.0000
# 2 24.4847 107.1707 55.2327 0.0000 0.0000 0.0000
# 3 36.3764 55.2327 106.9173 0.0000 0.0000 0.0000
# 4 0.0000 0.0000 0.0000 28.3568 0.0000 0.0000
# 5 0.0000 0.0000 0.0000 0.0000 23.5952 0.0000
# 6 0.0000 0.0000 0.0000 0.0000 0.0000 25.5312
#
#
#
# Elastic Compliance Matrix: (Units=1/GPa)
#
#
# Indices 1 2 3 4 5 6 
#
# 1 0.015931 -0.001153 -0.004825 0.000000 0.000000 0.000000
# 2 -0.001153 0.012800 -0.006220 0.000000 0.000000 0.000000
# 3 -0.004825 -0.006220 0.014208 0.000000 0.000000 0.000000
# 4 0.000000 0.000000 0.000000 0.035265 0.000000 0.000000
# 5 0.000000 0.000000 0.000000 0.000000 0.042382 0.000000
# 6 0.000000 0.000000 0.000000 0.000000 0.000000 0.039168
#
#
# Mechanical properties :
#
#
# Convention : Reuss Voigt Hill
#
# Bulk Modulus (GPa) = 53.92766 57.98146 55.95456
# Shear Modulus (GPa) = 26.27017 27.06678 26.66848
#
# Velocity S-wave (km/s) = 3.65901 3.71407 3.68664
# Velocity P-wave (km/s) = 6.73312 6.92403 6.82924
#
# Compressibility (1/GPa) = 0.01854336
#
# Stress axis : x y z
#
# Youngs Moduli (GPa) = 62.76931 78.12493 70.38452
#
# Poissons Ratio (x) = 0.09010 0.33957
# Poissons Ratio (y) = 0.07239 0.43779
# Poissons Ratio (z) = 0.30283 0.48594
#
# Static dielectric constant tensor:
#      x y z
#    x 1.763640 0.000000 0.000000 
#    y 0.000000 1.641360 0.000000 
#    z 0.000000 0.000000 1.696430 
# 
# From -- ./inp_files/8407.got.cif
#   From: 2010.05.17/outbox.cif.g08.bks.cpg/sg72_5_cif.got.tgz:8407.got - 2010.06.03 17:03:01.
