data_PCOD9526151
_publ_section_title
;
Structure prediction by ZEFSAII (Michael W. Deem and Ramdas Pophale) SiO2 
 PCOD9526151
Probable space group: I B A M
;
_chemical_formula_sum "Si O2"
_cell_formula_units_Z 80
_cell_length_a 8.513125
_cell_length_b 25.099428
_cell_length_c 15.108759
_cell_angle_alpha 90.000000
_cell_angle_beta 90.000000
_cell_angle_gamma 90.000000
_cell_volume 3228.357552
_symmetry_space_group_name_H-M "I B A M"
_symmetry_group_IT_number 72
_symmetry_cell_setting 'orthorhombic'
loop_
_space_group_symop_operation_xyz
x,y,z
-x,-y,z
x,-y,1/2-z
-x,y,1/2-z
-x,-y,-z
x,y,-z
-x,y,1/2+z
x,-y,1/2+z
1/2+x,1/2+y,1/2+z
1/2-x,1/2-y,1/2+z
1/2+x,1/2-y,-z
1/2-x,1/2+y,-z
1/2-x,1/2-y,1/2-z
1/2+x,1/2+y,1/2-z
1/2-x,1/2+y,z
1/2+x,1/2-y,z
loop_
_atom_site_type_symbol
_atom_site_label
_atom_site_fract_x
_atom_site_fract_y
_atom_site_fract_z
Si Si1 0.312722 0.415312 0.106692
Si Si2 0.649382 0.375331 0.107780
Si Si3 0.167516 0.522728 0.108117
Si Si4 0.806777 0.265535 0.101400
Si Si5 0.605706 0.821151 0.663525
O O1 0.476693 0.391256 0.138732
O O2 0.289668 0.476462 0.133078
O O3 0.166289 0.378402 0.133026
O O4 0.317323 0.414646 0.000000
O O5 0.773916 0.419758 0.139472
O O6 0.701036 0.315960 0.129288
O O7 0.649717 0.377244 0.000000
O O8 0.000000 0.500000 0.137552
O O9 0.161416 0.525659 0.000000
O O10 0.760786 0.215939 0.162356
O O11 0.983171 0.288139 0.103468
O O12 0.776470 0.249320 0.000000
O O13 0.500000 0.825830 0.750000
#
# Coordination Sequence:
#
# PCOD9526151 Si02
#       5
#    16  16  16  16  16
#     4  10  19  34  57  84 118 158 202 251 307 375
#     4   9  18  32  55  88 118 148 194 255 312 364
#     4   9  16  28  51  86 121 150 190 249 311 365
#     4  11  22  39  62  85 114 154 204 255 308 375
#     4  12  25  40  58  87 122 161 205 258 319 379
#
# _framework density 24.780403
#
# number of rings (size 3 to 8) (size 9 to 14) (size 15 to 20)
#    0.000    1.800    0.000    5.400    0.000    7.200 
#    0.000    0.000    0.000    5.400    0.000    5.600 
#    0.000    0.000    0.000    0.000    0.000    1.200 
#
# Total GULP energy -223834.947137 kJ/mol
# GULP energy per Si atom -5595.873678 kJ/mol
# Density = 2.472400 g / cm^3
# Si number density = 24.780403 Si / 1000 Ang^3
#
#
#
# Elastic Constant Matrix: (Units=GPa)
#
#
# Indices 1 2 3 4 5 6 
#
# 1 86.4766 -1.6431 3.2600 0.0000 0.0000 0.0000
# 2 -1.6431 94.7363 5.6729 0.0000 0.0000 0.0000
# 3 3.2600 5.6729 51.6253 0.0000 0.0000 0.0000
# 4 0.0000 0.0000 0.0000 10.7680 0.0000 0.0000
# 5 0.0000 0.0000 0.0000 0.0000 21.5618 0.0000
# 6 0.0000 0.0000 0.0000 0.0000 0.0000 43.7715
#
#
#
# Elastic Compliance Matrix: (Units=1/GPa)
#
#
# Indices 1 2 3 4 5 6 
#
# 1 0.011597 0.000247 -0.000759 0.000000 0.000000 0.000000
# 2 0.000247 0.010631 -0.001184 0.000000 0.000000 0.000000
# 3 -0.000759 -0.001184 0.019548 0.000000 0.000000 0.000000
# 4 0.000000 0.000000 0.000000 0.092868 0.000000 0.000000
# 5 0.000000 0.000000 0.000000 0.000000 0.046378 0.000000
# 6 0.000000 0.000000 0.000000 0.000000 0.000000 0.022846
#
#
# Mechanical properties :
#
#
# Convention : Reuss Voigt Hill
#
# Bulk Modulus (GPa) = 26.05308 27.49087 26.77197
# Shear Modulus (GPa) = 22.72149 30.25682 26.48915
#
# Velocity S-wave (km/s) = 3.03134 3.49807 3.27304
# Velocity P-wave (km/s) = 4.77373 5.23767 5.01107
#
# Compressibility (1/GPa) = 0.03838318
#
# Stress axis : x y z
#
# Youngs Moduli (GPa) = 86.22820 94.06653 51.15512
#
# Poissons Ratio (x) = -0.02320 0.03885
# Poissons Ratio (y) = -0.02127 0.06055
# Poissons Ratio (z) = 0.06548 0.11135
#
# Static dielectric constant tensor:
#      x y z
#    x 1.991240 0.000000 0.000000 
#    y 0.000000 1.883250 0.000000 
#    z 0.000000 0.000000 1.995350 
# 
# From -- ./inp_files/28154.got.cif
#   From: 2010.05.17/outbox.cif.g08.bks.cpg/sg72_15_cif.got.tgz:28154.got - 2010.06.03 17:03:01.
