data_PCOD9526774
_publ_section_title
;
Structure prediction by ZEFSAII (Michael W. Deem and Ramdas Pophale) SiO2 
 PCOD9526774
Probable space group: I B A M
;
_chemical_formula_sum "Si O2"
_cell_formula_units_Z 116
_cell_length_a 23.595193
_cell_length_b 14.735520
_cell_length_c 16.852954
_cell_angle_alpha 90.000000
_cell_angle_beta 90.000000
_cell_angle_gamma 90.000000
_cell_volume 5859.560405
_symmetry_space_group_name_H-M "I B A M"
_symmetry_group_IT_number 72
_symmetry_cell_setting 'orthorhombic'
loop_
_space_group_symop_operation_xyz
x,y,z
-x,-y,z
x,-y,1/2-z
-x,y,1/2-z
-x,-y,-z
x,y,-z
-x,y,1/2+z
x,-y,1/2+z
1/2+x,1/2+y,1/2+z
1/2-x,1/2-y,1/2+z
1/2+x,1/2-y,-z
1/2-x,1/2+y,-z
1/2-x,1/2-y,1/2-z
1/2+x,1/2+y,1/2-z
1/2-x,1/2+y,z
1/2+x,1/2-y,z
loop_
_atom_site_type_symbol
_atom_site_label
_atom_site_fract_x
_atom_site_fract_y
_atom_site_fract_z
Si Si1 0.094040 0.175980 0.596068
Si Si2 0.359208 0.815321 0.860485
Si Si3 0.831407 0.674176 0.677979
Si Si4 0.500000 0.000000 0.000000
Si Si5 0.382973 0.985382 0.414760
Si Si6 0.035053 0.203591 0.096201
Si Si7 0.891663 0.031603 0.596246
Si Si8 0.213960 0.149210 0.908855
O O1 0.099365 0.179714 0.500000
O O2 0.140999 0.238539 0.635711
O O3 0.030869 0.210855 0.616285
O O4 0.098886 0.071155 0.622281
O O5 0.336285 0.815001 0.771508
O O6 0.358815 0.915853 0.895250
O O7 0.423432 0.777177 0.865705
O O8 0.321406 0.742866 0.907535
O O9 0.867575 0.587087 0.650946
O O10 0.768193 0.658350 0.646362
O O11 0.550373 0.993566 0.932338
O O12 0.358627 0.952736 0.500000
O O13 0.059888 0.104359 0.118389
O O14 0.039766 0.213467 0.000000
O O15 0.892263 0.030249 0.500000
O O16 0.831098 0.073445 0.619810
O O17 0.229746 0.129446 0.000000
#
# Coordination Sequence:
#
# PCOD9526774 Si02
#       8
#    16  16  16   4  16  16  16  16
#     4  10  20  34  57  86 120 154 194 243 304 363
#     4  11  23  40  61  87 121 162 201 245 312 368
#     4  12  25  38  55  91 128 157 197 255 310 360
#     4   8  24  40  70  84 116 150 218 260 290 364
#     4  10  22  42  64  87 113 158 207 251 299 356
#     4   9  18  34  60  86 114 151 202 249 291 361
#     4   8  16  34  59  86 109 148 199 250 293 341
#     4  10  21  41  65  88 117 158 211 257 294 356
#
# _framework density 19.796706
#
# number of rings (size 3 to 8) (size 9 to 14) (size 15 to 20)
#    0.414    1.655    0.000    4.552    1.931    3.310 
#    0.000    7.586    0.000    3.310    0.000    0.000 
#    0.000    0.000    0.000    0.000    0.000    0.000 
#
# Total GULP energy -323280.310465 kJ/mol
# GULP energy per Si atom -5573.798456 kJ/mol
# Density = 1.975165 g / cm^3
# Si number density = 19.796706 Si / 1000 Ang^3
#
#
#
# Elastic Constant Matrix: (Units=GPa)
#
#
# Indices 1 2 3 4 5 6 
#
# 1 77.3712 -15.7943 21.9585 0.0000 0.0000 0.0000
# 2 -15.7943 32.9399 -9.3604 0.0000 0.0000 0.0000
# 3 21.9585 -9.3604 47.2925 0.0000 0.0000 0.0000
# 4 0.0000 0.0000 0.0000 -8.4298 0.0000 0.0000
# 5 0.0000 0.0000 0.0000 0.0000 -70.3119 0.0000
# 6 0.0000 0.0000 0.0000 0.0000 0.0000 8.8351
#
#
#
# Elastic Compliance Matrix: (Units=1/GPa)
#
#
# Indices 1 2 3 4 5 6 
#
# 1 0.015883 0.005849 -0.006217 0.000000 0.000000 0.000000
# 2 0.005849 0.034322 0.004077 0.000000 0.000000 0.000000
# 3 -0.006217 0.004077 0.024839 0.000000 0.000000 0.000000
# 4 0.000000 0.000000 0.000000 -0.118627 0.000000 0.000000
# 5 0.000000 0.000000 0.000000 0.000000 -0.014222 0.000000
# 6 0.000000 0.000000 0.000000 0.000000 0.000000 0.113185
#
#
# Mechanical properties :
#
#
# Convention : Reuss Voigt Hill
#
# Bulk Modulus (GPa) = 12.12679 16.80125 14.46402
# Shear Modulus (GPa) = 66.27159 -3.26132 31.50514
#
# Velocity S-wave (km/s) = 5.79213 -1.28491 3.99361
# Velocity P-wave (km/s) = 7.13236 2.51078 5.34671
#
# Compressibility (1/GPa) = 0.08246208
#
# Stress axis : x y z
#
# Youngs Moduli (GPa) = 62.95968 29.13622 40.25980
#
# Poissons Ratio (x) = -0.17042 0.25030
# Poissons Ratio (y) = -0.36826 -0.16415
# Poissons Ratio (z) = 0.39143 -0.11880
#
# Static dielectric constant tensor:
#      x y z
#    x 1.677930 0.000000 0.000000 
#    y 0.000000 1.692130 0.000000 
#    z 0.000000 0.000000 1.691060 
# 
# From -- ./inp_files/33425.got.cif
#   From: 2010.05.17/outbox.cif.g08.bks.cpg/sg72_17_cif.got.tgz:33425.got - 2010.06.03 17:03:01.
