data_PCOD9526513
_publ_section_title
;
Structure prediction by ZEFSAII (Michael W. Deem and Ramdas Pophale) SiO2 
 PCOD9526513
Probable space group: I B A M
;
_chemical_formula_sum "Si O2"
_cell_formula_units_Z 96
_cell_length_a 13.511627
_cell_length_b 33.253967
_cell_length_c 8.988014
_cell_angle_alpha 90.000000
_cell_angle_beta 90.000000
_cell_angle_gamma 90.000000
_cell_volume 4038.451293
_symmetry_space_group_name_H-M "I B A M"
_symmetry_group_IT_number 72
_symmetry_cell_setting 'orthorhombic'
loop_
_space_group_symop_operation_xyz
x,y,z
-x,-y,z
x,-y,1/2-z
-x,y,1/2-z
-x,-y,-z
x,y,-z
-x,y,1/2+z
x,-y,1/2+z
1/2+x,1/2+y,1/2+z
1/2-x,1/2-y,1/2+z
1/2+x,1/2-y,-z
1/2-x,1/2+y,-z
1/2-x,1/2-y,1/2-z
1/2+x,1/2+y,1/2-z
1/2-x,1/2+y,z
1/2+x,1/2-y,z
loop_
_atom_site_type_symbol
_atom_site_label
_atom_site_fract_x
_atom_site_fract_y
_atom_site_fract_z
Si Si1 0.128590 0.635730 0.163851
Si Si2 0.826884 0.958487 0.320155
Si Si3 0.865473 0.124357 0.668784
Si Si4 0.099306 0.557240 0.327736
Si Si5 0.629883 0.786475 0.666331
Si Si6 0.869597 0.794026 0.332098
O O1 0.247201 0.631673 0.155457
O O2 0.099990 0.604773 0.292223
O O3 0.101820 0.680459 0.211682
O O4 0.090235 0.624436 0.000000
O O5 0.833928 0.958161 0.500000
O O6 0.876106 0.918513 0.250731
O O7 0.708988 0.956307 0.277506
O O8 0.865582 0.000000 0.250000
O O9 0.905821 0.123767 0.500000
O O10 0.896529 0.162543 0.766749
O O11 0.092544 0.548227 0.500000
O O12 0.000000 0.541986 0.250000
O O13 0.592633 0.794484 0.500000
O O14 0.749630 0.790678 0.659015
O O15 0.604134 0.742093 0.721520
O O16 0.907471 0.788716 0.500000
#
# Coordination Sequence:
#
# PCOD9526513 Si02
#       6
#    16  16  16  16  16  16
#     4   9  16  26  39  53  69  88 109 134 166 204
#     4  10  20  32  44  56  69  86 110 142 181 223
#     4   9  16  26  39  53  69  88 109 134 166 204
#     4  10  20  32  44  56  69  86 110 142 181 223
#     4   9  15  22  33  50  71  92 112 132 156 190
#     4   9  15  22  33  50  71  92 112 132 156 190
#
# _framework density 23.771491000000001
#
# number of rings (size 3 to 8) (size 9 to 14) (size 15 to 20)
#    0.000    2.667    0.000    3.000    0.000   10.333 
#    0.000    1.667    0.000    0.000    0.000    0.000 
#    0.000    0.000    0.000    0.000    0.000    0.000 
#
# Total GULP energy -268278.259234 kJ/mol
# GULP energy per Si atom -5589.130401 kJ/mol
# Density = 2.371739 g / cm^3
# Si number density = 23.771491 Si / 1000 Ang^3
#
#
#
# Elastic Constant Matrix: (Units=GPa)
#
#
# Indices 1 2 3 4 5 6 
#
# 1 77.2058 -9.8837 12.5783 -0.0002 0.0023 0.0008
# 2 -9.8837 185.1028 51.8315 -0.0008 0.0011 0.0007
# 3 12.5783 51.8315 105.6837 -0.0036 0.0206 0.0107
# 4 -0.0002 -0.0008 -0.0036 20.2349 0.0008 -0.0009
# 5 0.0023 0.0011 0.0206 0.0008 13.0935 -0.0030
# 6 0.0008 0.0007 0.0107 -0.0009 -0.0030 -22.3196
#
#
#
# Elastic Compliance Matrix: (Units=1/GPa)
#
#
# Indices 1 2 3 4 5 6 
#
# 1 0.013496 0.001357 -0.002272 0.000000 0.000001 -0.000001
# 2 0.001357 0.006399 -0.003300 0.000000 0.000004 -0.000001
# 3 -0.002272 -0.003300 0.011351 0.000002 -0.000017 0.000005
# 4 0.000000 0.000000 0.000002 0.049419 -0.000003 -0.000002
# 5 0.000001 0.000004 -0.000017 -0.000003 0.076374 -0.000010
# 6 -0.000001 -0.000001 0.000005 -0.000002 -0.000010 -0.044804
#
#
# Mechanical properties :
#
#
# Convention : Reuss Voigt Hill
#
# Bulk Modulus (GPa) = 43.82782 53.00495 48.41638
# Shear Modulus (GPa) = 38.98007 23.09950 31.03979
#
# Velocity S-wave (km/s) = 4.05382 3.12064 3.61745
# Velocity P-wave (km/s) = 6.35519 5.94396 6.15301
#
# Compressibility (1/GPa) = 0.02281656
#
# Stress axis : x y z
#
# Youngs Moduli (GPa) = 74.09498 156.27898 88.09890
#
# Poissons Ratio (x) = -0.21203 0.20013
# Poissons Ratio (y) = -0.10053 0.29070
# Poissons Ratio (z) = 0.16832 0.51568
#
# Static dielectric constant tensor:
#      x y z
#    x 2.007480 0.000000 0.000000 
#    y 0.000000 1.854810 0.000000 
#    z 0.000000 0.000000 1.826010 
# 
# From -- ./inp_files/7097.got.cif
#   From: 2010.05.17/outbox.cif.g08.bks.cpg/sg72_4_cif.got.tgz:7097.got - 2010.06.03 17:03:01.
