data_PCOD9526211
_publ_section_title
;
Structure prediction by ZEFSAII (Michael W. Deem and Ramdas Pophale) SiO2 
 PCOD9526211
Probable space group: I B A M
;
_chemical_formula_sum "Si O2"
_cell_formula_units_Z 96
_cell_length_a 16.472339
_cell_length_b 24.972914
_cell_length_c 14.331666
_cell_angle_alpha 90.000000
_cell_angle_beta 90.000000
_cell_angle_gamma 90.000000
_cell_volume 5895.507163
_symmetry_space_group_name_H-M "I B A M"
_symmetry_group_IT_number 72
_symmetry_cell_setting 'orthorhombic'
loop_
_space_group_symop_operation_xyz
x,y,z
-x,-y,z
x,-y,1/2-z
-x,y,1/2-z
-x,-y,-z
x,y,-z
-x,y,1/2+z
x,-y,1/2+z
1/2+x,1/2+y,1/2+z
1/2-x,1/2-y,1/2+z
1/2+x,1/2-y,-z
1/2-x,1/2+y,-z
1/2-x,1/2-y,1/2-z
1/2+x,1/2+y,1/2-z
1/2-x,1/2+y,z
1/2+x,1/2-y,z
loop_
_atom_site_type_symbol
_atom_site_label
_atom_site_fract_x
_atom_site_fract_y
_atom_site_fract_z
Si Si1 0.350194 0.913572 0.000000
Si Si2 0.714942 0.701247 0.685157
Si Si3 0.127138 0.541909 0.000000
Si Si4 0.421447 0.057725 0.203438
Si Si5 0.195978 0.346495 0.500000
Si Si6 0.803943 0.369397 0.698261
Si Si7 0.568885 0.226545 0.824457
Si Si8 0.498958 0.166449 0.000000
O O1 0.306874 0.891620 0.906464
O O2 0.439558 0.885000 0.000000
O O3 0.351477 0.978373 0.000000
O O4 0.750000 0.750000 0.750000
O O5 0.765345 0.681860 0.592810
O O6 0.720910 0.652632 0.758912
O O7 0.627145 0.723006 0.655461
O O8 0.075658 0.551872 0.906490
O O9 0.198774 0.587583 0.000000
O O10 0.500000 0.085476 0.250000
O O11 0.340250 0.086749 0.233023
O O12 0.418342 0.000000 0.250000
O O13 0.097861 0.340727 0.500000
O O14 0.869835 0.321269 0.705423
O O15 0.500000 0.239333 0.750000
O O16 0.523367 0.201754 0.911927
#
# Coordination Sequence:
#
# PCOD9526211 Si02
#       8
#     8  16   8  16   8  16  16   8
#     4  10  22  34  52  74 114 146 193 219 255 312
#     4  10  21  36  53  73 104 136 184 226 273 318
#     4  12  24  36  50  79 108 151 194 216 260 311
#     4  11  23  32  49  71 107 144 190 228 259 307
#     4  12  23  34  56  78 108 149 177 217 268 325
#     4  10  19  35  49  75 103 146 176 224 264 312
#     4  10  20  35  54  73 100 135 177 224 269 315
#     4  10  21  32  50  75 104 141 182 214 257 317
#
# _framework density 16.283586
#
# number of rings (size 3 to 8) (size 9 to 14) (size 15 to 20)
#    0.000    1.500    3.333    3.000    4.667    3.667 
#    0.000    0.833    0.000    0.000    0.000    0.000 
#    0.000    7.333    0.000    0.000    0.000    0.000 
#
# Total GULP energy -267262.442128 kJ/mol
# GULP energy per Si atom -5567.967544 kJ/mol
# Density = 1.624652 g / cm^3
# Si number density = 16.283586 Si / 1000 Ang^3
#
#
#
# Elastic Constant Matrix: (Units=GPa)
#
#
# Indices 1 2 3 4 5 6 
#
# 1 50.7101 45.3615 28.4664 0.0000 0.0000 0.0000
# 2 45.3615 94.3854 46.5414 0.0000 0.0000 0.0000
# 3 28.4664 46.5414 134.6436 0.0001 0.0001 0.0000
# 4 0.0000 0.0000 0.0001 16.4702 0.0000 0.0000
# 5 0.0000 0.0000 0.0001 0.0000 115.5281 0.0000
# 6 0.0000 0.0000 0.0000 0.0000 0.0000 24.7301
#
#
#
# Elastic Compliance Matrix: (Units=1/GPa)
#
#
# Indices 1 2 3 4 5 6 
#
# 1 0.034994 -0.015876 -0.001911 0.000000 0.000000 0.000000
# 2 -0.015876 0.019974 -0.003548 0.000000 0.000000 0.000000
# 3 -0.001911 -0.003548 0.009057 0.000000 0.000000 0.000000
# 4 0.000000 0.000000 0.000000 0.060716 0.000000 0.000000
# 5 0.000000 0.000000 0.000000 0.000000 0.008656 0.000000
# 6 0.000000 0.000000 0.000000 0.000000 0.000000 0.040436
#
#
# Mechanical properties :
#
#
# Convention : Reuss Voigt Hill
#
# Bulk Modulus (GPa) = 46.82401 57.83086 52.32744
# Shear Modulus (GPa) = 22.35922 41.97033 32.16478
#
# Velocity S-wave (km/s) = 3.70958 5.08238 4.44924
# Velocity P-wave (km/s) = 6.86773 8.36855 7.65501
#
# Compressibility (1/GPa) = 0.02135656
#
# Stress axis : x y z
#
# Youngs Moduli (GPa) = 28.57643 50.06449 110.40753
#
# Poissons Ratio (x) = 0.79482 0.21096
# Poissons Ratio (y) = 0.45368 0.39171
# Poissons Ratio (z) = 0.05460 0.17762
#
# Static dielectric constant tensor:
#      x y z
#    x 1.582150 0.000000 0.000000 
#    y 0.000000 1.618190 0.000000 
#    z 0.000000 0.000000 1.576530 
# 
# From -- ./inp_files/22057.got.cif
#   From: 2010.05.17/outbox.cif.g08.bks.cpg/sg72_12_cif.got.tgz:22057.got - 2010.06.03 17:03:01.
