data_PCOD9526598
_publ_section_title
;
Structure prediction by ZEFSAII (Michael W. Deem and Ramdas Pophale) SiO2 
 PCOD9526598
Probable space group: I B A M
;
_chemical_formula_sum "Si O2"
_cell_formula_units_Z 96
_cell_length_a 23.783379
_cell_length_b 24.987488
_cell_length_c 8.020327
_cell_angle_alpha 90.000000
_cell_angle_beta 90.000000
_cell_angle_gamma 90.000000
_cell_volume 4766.375249
_symmetry_space_group_name_H-M "I B A M"
_symmetry_group_IT_number 72
_symmetry_cell_setting 'orthorhombic'
loop_
_space_group_symop_operation_xyz
x,y,z
-x,-y,z
x,-y,1/2-z
-x,y,1/2-z
-x,-y,-z
x,y,-z
-x,y,1/2+z
x,-y,1/2+z
1/2+x,1/2+y,1/2+z
1/2-x,1/2-y,1/2+z
1/2+x,1/2-y,-z
1/2-x,1/2+y,-z
1/2-x,1/2-y,1/2-z
1/2+x,1/2+y,1/2-z
1/2-x,1/2+y,z
1/2+x,1/2-y,z
loop_
_atom_site_type_symbol
_atom_site_label
_atom_site_fract_x
_atom_site_fract_y
_atom_site_fract_z
Si Si1 0.763441 0.164734 0.296375
Si Si2 0.874030 0.776158 0.201303
Si Si3 0.171863 0.941269 0.699861
Si Si4 0.136028 0.338847 0.699860
Si Si5 0.563375 0.616854 0.700468
Si Si6 0.934892 0.440124 0.801073
O O1 0.762547 0.167352 0.500000
O O2 0.810460 0.207819 0.241569
O O3 0.787981 0.106935 0.246439
O O4 0.699812 0.167756 0.234672
O O5 0.892258 0.718065 0.262105
O O6 0.914286 0.824748 0.256419
O O7 0.873539 0.775802 0.000000
O O8 0.170972 0.939347 0.500000
O O9 0.109191 0.926241 0.761138
O O10 0.189783 0.000000 0.750000
O O11 0.139641 0.344686 0.500000
O O12 0.103210 0.391095 0.764402
O O13 0.500000 0.606241 0.750000
O O14 0.565906 0.617261 0.500000
O O15 0.916542 0.500000 0.750000
O O16 0.000000 0.433406 0.750000
O O17 0.932995 0.438346 0.000000
#
# Coordination Sequence:
#
# PCOD9526598 Si02
#       6
#    16  16  16  16  16  16
#     4   8  16  33  52  71 101 134 161 197 245 291
#     4   9  18  33  52  73 100 133 164 198 243 291
#     4   9  18  33  51  71  98 131 165 203 247 291
#     4  10  20  33  53  79 101 126 162 201 242 290
#     4   9  19  34  50  70  98 132 167 204 246 288
#     4  10  21  37  55  74  99 130 162 200 245 290
#
# _framework density 20.141090999999999
#
# number of rings (size 3 to 8) (size 9 to 14) (size 15 to 20)
#    0.000    2.833    0.000    3.500    0.000    4.333 
#    0.000    8.333    0.000    0.000    0.000    0.000 
#    0.000    0.000    0.000    0.000    0.000    0.000 
#
# Total GULP energy -267668.428345 kJ/mol
# GULP energy per Si atom -5576.425591 kJ/mol
# Density = 2.009525 g / cm^3
# Si number density = 20.141091 Si / 1000 Ang^3
#
#
#
# Elastic Constant Matrix: (Units=GPa)
#
#
# Indices 1 2 3 4 5 6 
#
# 1 18.4578 6.9808 0.5815 0.0000 0.0000 0.0000
# 2 6.9808 128.8425 1.4171 0.0000 0.0000 0.0000
# 3 0.5815 1.4171 14.2353 0.0000 0.0000 0.0000
# 4 0.0000 0.0000 0.0000 11.7349 0.0000 0.0000
# 5 0.0000 0.0000 0.0000 0.0000 2.9857 0.0000
# 6 0.0000 0.0000 0.0000 0.0000 0.0000 16.1176
#
#
#
# Elastic Compliance Matrix: (Units=1/GPa)
#
#
# Indices 1 2 3 4 5 6 
#
# 1 0.055366 -0.002978 -0.001965 0.000000 0.000000 0.000000
# 2 -0.002978 0.007930 -0.000668 0.000000 0.000000 0.000000
# 3 -0.001965 -0.000668 0.070394 0.000000 0.000000 0.000000
# 4 0.000000 0.000000 0.000000 0.085216 0.000000 0.000000
# 5 0.000000 0.000000 0.000000 0.000000 0.334930 0.000000
# 6 0.000000 0.000000 0.000000 0.000000 0.000000 0.062044
#
#
# Mechanical properties :
#
#
# Convention : Reuss Voigt Hill
#
# Bulk Modulus (GPa) = 8.16537 19.94382 14.05460
# Shear Modulus (GPa) = 7.48586 16.33805 11.91196
#
# Velocity S-wave (km/s) = 1.92997 2.85121 2.43456
# Velocity P-wave (km/s) = 3.00487 4.55662 3.85954
#
# Compressibility (1/GPa) = 0.12246840
#
# Stress axis : x y z
#
# Youngs Moduli (GPa) = 18.06163 126.10148 14.20566
#
# Poissons Ratio (x) = 0.37555 0.02792
# Poissons Ratio (y) = 0.05379 0.00949
# Poissons Ratio (z) = 0.03549 0.08421
#
# Static dielectric constant tensor:
#      x y z
#    x 1.719110 0.000000 0.000000 
#    y 0.000000 1.713790 0.000000 
#    z 0.000000 0.000000 1.720860 
# 
# From -- ./inp_files/6983.got.cif
#   From: 2010.05.17/outbox.cif.g08.bks.cpg/sg72_4_cif.got.tgz:6983.got - 2010.06.03 17:03:01.
