data_PCOD9526865
_publ_section_title
;
Structure prediction by ZEFSAII (Michael W. Deem and Ramdas Pophale) SiO2 
 PCOD9526865
Probable space group: I B A M
;
_chemical_formula_sum "Si O2"
_cell_formula_units_Z 80
_cell_length_a 21.331548
_cell_length_b 7.340427
_cell_length_c 25.130553
_cell_angle_alpha 90.000000
_cell_angle_beta 90.000000
_cell_angle_gamma 90.000000
_cell_volume 3935.009110
_symmetry_space_group_name_H-M "I B A M"
_symmetry_group_IT_number 72
_symmetry_cell_setting 'orthorhombic'
loop_
_space_group_symop_operation_xyz
x,y,z
-x,-y,z
x,-y,1/2-z
-x,y,1/2-z
-x,-y,-z
x,y,-z
-x,y,1/2+z
x,-y,1/2+z
1/2+x,1/2+y,1/2+z
1/2-x,1/2-y,1/2+z
1/2+x,1/2-y,-z
1/2-x,1/2+y,-z
1/2-x,1/2-y,1/2-z
1/2+x,1/2+y,1/2-z
1/2-x,1/2+y,z
1/2+x,1/2-y,z
loop_
_atom_site_type_symbol
_atom_site_label
_atom_site_fract_x
_atom_site_fract_y
_atom_site_fract_z
Si Si1 0.898838 0.504097 0.343114
Si Si2 0.824447 0.357220 0.562285
Si Si3 0.201545 0.009731 0.883486
Si Si4 0.289842 0.212039 0.196573
Si Si5 0.505307 0.289701 0.186032
O O1 0.868466 0.483631 0.401265
O O2 0.762196 0.146311 0.344445
O O3 0.842295 0.556765 0.303772
O O4 0.930107 0.311738 0.328208
O O5 0.833343 0.382295 0.500000
O O6 0.752827 0.411784 0.578440
O O7 0.837307 0.147346 0.579796
O O8 0.176235 0.872637 0.837867
O O9 0.250000 0.250000 0.250000
O O10 0.451461 0.159410 0.162148
O O11 0.500000 0.500000 0.169136
O O12 0.500000 0.283891 0.250000
#
# Coordination Sequence:
#
# PCOD9526865 Si02
#       5
#    16  16  16  16  16
#     4  10  22  39  65  89 124 160 213 262 308 382
#     4  10  20  37  60  86 120 166 211 260 310 364
#     4   9  20  33  53  86 126 164 201 240 294 388
#     4  10  20  35  55  92 133 164 195 243 316 383
#     4  10  23  43  64  89 118 164 211 258 320 380
#
# _framework density 20.330321999999999
#
# number of rings (size 3 to 8) (size 9 to 14) (size 15 to 20)
#    0.000    2.200    0.000    2.400    2.800    9.600 
#    3.600    3.000    0.000    1.200    0.000    0.000 
#    0.000    0.000    0.000    0.000    0.000    0.000 
#
# Total GULP energy -222810.775460 kJ/mol
# GULP energy per Si atom -5570.269386 kJ/mol
# Density = 2.028405 g / cm^3
# Si number density = 20.330322 Si / 1000 Ang^3
#
#
#
# Elastic Constant Matrix: (Units=GPa)
#
#
# Indices 1 2 3 4 5 6 
#
# 1 70.7892 38.4543 52.4341 0.0000 0.0000 0.0000
# 2 38.4543 127.1415 60.0949 0.0000 0.0000 0.0000
# 3 52.4341 60.0949 168.6980 0.0000 0.0000 0.0000
# 4 0.0000 0.0000 0.0000 26.0859 0.0000 0.0000
# 5 0.0000 0.0000 0.0000 0.0000 -227.1772 0.0000
# 6 0.0000 0.0000 0.0000 0.0000 0.0000 31.1869
#
#
#
# Elastic Compliance Matrix: (Units=1/GPa)
#
#
# Indices 1 2 3 4 5 6 
#
# 1 0.019688 -0.003682 -0.004808 0.000000 0.000000 0.000000
# 2 -0.003682 0.010146 -0.002470 0.000000 0.000000 0.000000
# 3 -0.004808 -0.002470 0.008302 0.000000 0.000000 0.000000
# 4 0.000000 0.000000 0.000000 0.038335 0.000000 0.000000
# 5 0.000000 0.000000 0.000000 0.000000 -0.004402 0.000000
# 6 0.000000 0.000000 0.000000 0.000000 0.000000 0.032065
#
#
# Mechanical properties :
#
#
# Convention : Reuss Voigt Hill
#
# Bulk Modulus (GPa) = 61.66543 74.28835 67.97689
# Shear Modulus (GPa) = 38.03473 -19.60453 9.21510
#
# Velocity S-wave (km/s) = 4.33001 -3.10869 2.13132
# Velocity P-wave (km/s) = 7.44287 4.87183 6.29011
#
# Compressibility (1/GPa) = 0.01621654
#
# Stress axis : x y z
#
# Youngs Moduli (GPa) = 50.79307 98.55716 120.45480
#
# Poissons Ratio (x) = 0.36291 0.57909
# Poissons Ratio (y) = 0.18703 0.29751
# Poissons Ratio (z) = 0.24419 0.24343
#
# Static dielectric constant tensor:
#      x y z
#    x 1.640110 0.000000 0.000000 
#    y 0.000000 1.961540 0.000000 
#    z 0.000000 0.000000 1.723080 
# 
# From -- ./inp_files/51995.got.cif
#   From: 2010.05.17/outbox.cif.g08.bks.cpg/sg72_26_cif.got.tgz:51995.got - 2010.06.03 17:03:01.
