data_PCOD9526782
_publ_section_title
;
Structure prediction by ZEFSAII (Michael W. Deem and Ramdas Pophale) SiO2 
 PCOD9526782
Probable space group: I B A M
;
_chemical_formula_sum "Si O2"
_cell_formula_units_Z 80
_cell_length_a 33.582217
_cell_length_b 4.948083
_cell_length_c 25.054435
_cell_angle_alpha 90.000000
_cell_angle_beta 90.000000
_cell_angle_gamma 90.000000
_cell_volume 4163.235259
_symmetry_space_group_name_H-M "I B A M"
_symmetry_group_IT_number 72
_symmetry_cell_setting 'orthorhombic'
loop_
_space_group_symop_operation_xyz
x,y,z
-x,-y,z
x,-y,1/2-z
-x,y,1/2-z
-x,-y,-z
x,y,-z
-x,y,1/2+z
x,-y,1/2+z
1/2+x,1/2+y,1/2+z
1/2-x,1/2-y,1/2+z
1/2+x,1/2-y,-z
1/2-x,1/2+y,-z
1/2-x,1/2-y,1/2-z
1/2+x,1/2+y,1/2-z
1/2-x,1/2+y,z
1/2+x,1/2-y,z
loop_
_atom_site_type_symbol
_atom_site_label
_atom_site_fract_x
_atom_site_fract_y
_atom_site_fract_z
Si Si1 0.655979 0.417304 0.060910
Si Si2 0.722075 0.442568 0.644557
Si Si3 0.651238 0.267729 0.715545
Si Si4 0.611766 0.094861 0.395141
Si Si5 0.971947 0.242002 0.939099
O O1 0.696615 0.459473 0.093648
O O2 0.635350 0.707556 0.065032
O O3 0.626502 0.205030 0.089975
O O4 0.662511 0.335597 0.000000
O O5 0.758892 0.646120 0.646265
O O6 0.689867 0.425055 0.692032
O O7 0.629700 0.500000 0.750000
O O8 0.626505 0.169565 0.664107
O O9 0.660665 0.000000 0.750000
O O10 0.565946 0.167969 0.404854
O O11 0.000000 0.500000 0.943048
O O12 0.958843 0.166551 0.000000
O O13 0.000000 0.000000 0.918639
#
# Coordination Sequence:
#
# PCOD9526782 Si02
#       5
#    16  16  16  16  16
#     4  11  22  37  59  84 115 157 193 228 284 353
#     4  11  23  38  56  84 115 145 191 245 296 348
#     4  11  23  40  61  83 109 151 202 250 299 342
#     4  11  22  39  60  85 118 151 194 239 279 345
#     4  10  20  34  57  89 120 149 180 222 282 343
#
# _framework density 19.215826
#
# number of rings (size 3 to 8) (size 9 to 14) (size 15 to 20)
#    0.000    1.200    0.000    9.000    0.000    4.800 
#    0.000    0.000    0.000    3.600    0.000    0.000 
#    0.000    0.000    0.000    0.000    0.000    0.000 
#
# Total GULP energy -223193.083762 kJ/mol
# GULP energy per Si atom -5579.827094 kJ/mol
# Density = 1.917209 g / cm^3
# Si number density = 19.215826 Si / 1000 Ang^3
#
#
#
# Elastic Constant Matrix: (Units=GPa)
#
#
# Indices 1 2 3 4 5 6 
#
# 1 76.9055 -7.7229 33.0536 0.0000 0.0000 0.0000
# 2 -7.7229 74.6917 12.5135 0.0000 0.0000 0.0000
# 3 33.0536 12.5135 122.3454 0.0000 0.0000 0.0000
# 4 0.0000 0.0000 0.0000 25.2527 0.0000 0.0000
# 5 0.0000 0.0000 0.0000 0.0000 3.9820 0.0000
# 6 0.0000 0.0000 0.0000 0.0000 0.0000 17.3662
#
#
#
# Elastic Compliance Matrix: (Units=1/GPa)
#
#
# Indices 1 2 3 4 5 6 
#
# 1 0.015084 0.002281 -0.004308 0.000000 0.000000 0.000000
# 2 0.002281 0.013967 -0.002045 0.000000 0.000000 0.000000
# 3 -0.004308 -0.002045 0.009547 0.000000 0.000000 0.000000
# 4 0.000000 0.000000 0.000000 0.039600 0.000000 0.000000
# 5 0.000000 0.000000 0.000000 0.000000 0.251130 0.000000
# 6 0.000000 0.000000 0.000000 0.000000 0.000000 0.057583
#
#
# Mechanical properties :
#
#
# Convention : Reuss Voigt Hill
#
# Bulk Modulus (GPa) = 32.83691 38.84789 35.84240
# Shear Modulus (GPa) = 12.33942 25.06006 18.69974
#
# Velocity S-wave (km/s) = 2.53681 3.61520 3.12291
# Velocity P-wave (km/s) = 5.07012 6.13895 5.62996
#
# Compressibility (1/GPa) = 0.03045353
#
# Stress axis : x y z
#
# Youngs Moduli (GPa) = 66.29616 71.59809 104.74778
#
# Poissons Ratio (x) = -0.16335 0.45130
# Poissons Ratio (y) = -0.15125 0.21420
# Poissons Ratio (z) = 0.28564 0.14641
#
# Static dielectric constant tensor:
#      x y z
#    x 1.689820 0.000000 0.000000 
#    y 0.000000 1.648700 0.000000 
#    z 0.000000 0.000000 1.712840 
# 
# From -- ./inp_files/46106.got.cif
#   From: 2010.05.17/outbox.cif.g08.bks.cpg/sg72_24_cif.got.tgz:46106.got - 2010.06.03 17:03:01.
