data_PCOD9526255
_publ_section_title
;
Structure prediction by ZEFSAII (Michael W. Deem and Ramdas Pophale) SiO2 
 PCOD9526255
Probable space group: I B A M
;
_chemical_formula_sum "Si O2"
_cell_formula_units_Z 112
_cell_length_a 25.101172
_cell_length_b 14.712270
_cell_length_c 16.751310
_cell_angle_alpha 90.000000
_cell_angle_beta 90.000000
_cell_angle_gamma 90.000000
_cell_volume 6186.178708
_symmetry_space_group_name_H-M "I B A M"
_symmetry_group_IT_number 72
_symmetry_cell_setting 'orthorhombic'
loop_
_space_group_symop_operation_xyz
x,y,z
-x,-y,z
x,-y,1/2-z
-x,y,1/2-z
-x,-y,-z
x,y,-z
-x,y,1/2+z
x,-y,1/2+z
1/2+x,1/2+y,1/2+z
1/2-x,1/2-y,1/2+z
1/2+x,1/2-y,-z
1/2-x,1/2+y,-z
1/2-x,1/2-y,1/2-z
1/2+x,1/2+y,1/2-z
1/2-x,1/2+y,z
1/2+x,1/2-y,z
loop_
_atom_site_type_symbol
_atom_site_label
_atom_site_fract_x
_atom_site_fract_y
_atom_site_fract_z
Si Si1 0.615962 0.357279 0.169466
Si Si2 0.504321 0.393110 0.095668
Si Si3 0.286809 0.245276 0.403320
Si Si4 0.287601 0.039571 0.593995
Si Si5 0.606855 0.307729 0.646539
Si Si6 0.837519 0.020879 0.089006
Si Si7 0.677745 0.848232 0.903011
O O1 0.557395 0.349807 0.132217
O O2 0.661829 0.300699 0.124857
O O3 0.614922 0.328877 0.260809
O O4 0.632623 0.461604 0.154205
O O5 0.500000 0.500000 0.120401
O O6 0.452374 0.337544 0.122429
O O7 0.507340 0.392264 0.000000
O O8 0.285274 0.243810 0.500000
O O9 0.291624 0.141399 0.372647
O O10 0.231790 0.294436 0.377638
O O11 0.301510 0.047084 0.500000
O O12 0.225443 0.012528 0.597549
O O13 0.319055 0.952495 0.626421
O O14 0.645721 0.375130 0.597590
O O15 0.626634 0.207118 0.626395
O O16 0.853185 0.988546 0.000000
O O17 0.677925 0.849458 0.000000
#
# Coordination Sequence:
#
# PCOD9526255 Si02
#       7
#    16  16  16  16  16  16  16
#     4  12  24  36  53  84 120 150 182 231 290 338
#     4  11  23  39  61  82 106 149 194 228 273 339
#     4  10  19  35  58  82 112 152 196 233 271 328
#     4   9  18  33  56  83 110 149 197 237 267 314
#     4  12  24  36  53  84 120 150 182 231 290 338
#     4  11  19  34  56  81 112 152 194 229 268 330
#     4  10  19  35  58  82 112 152 196 233 271 328
#
# _framework density 18.104876000000001
#
# number of rings (size 3 to 8) (size 9 to 14) (size 15 to 20)
#    0.000    1.286    4.286    3.429    0.000    1.143 
#    0.000    0.714    0.000    0.857    0.000    6.000 
#    0.000    0.000    0.000    0.000    0.000    0.000 
#
# Total GULP energy -312698.537744 kJ/mol
# GULP energy per Si atom -5583.902460 kJ/mol
# Density = 1.806367 g / cm^3
# Si number density = 18.104876 Si / 1000 Ang^3
#
#
#
# Elastic Constant Matrix: (Units=GPa)
#
#
# Indices 1 2 3 4 5 6 
#
# 1 69.4049 23.6023 4.6452 0.0000 0.0000 0.0000
# 2 23.6023 72.1613 3.0072 0.0000 0.0000 0.0000
# 3 4.6452 3.0072 38.1328 0.0000 0.0000 0.0000
# 4 0.0000 0.0000 0.0000 12.6455 0.0000 0.0000
# 5 0.0000 0.0000 0.0000 0.0000 38.6116 0.0000
# 6 0.0000 0.0000 0.0000 0.0000 0.0000 29.6155
#
#
#
# Elastic Compliance Matrix: (Units=1/GPa)
#
#
# Indices 1 2 3 4 5 6 
#
# 1 0.016305 -0.005267 -0.001571 0.000000 0.000000 0.000000
# 2 -0.005267 0.015605 -0.000589 0.000000 0.000000 0.000000
# 3 -0.001571 -0.000589 0.026462 0.000000 0.000000 0.000000
# 4 0.000000 0.000000 0.000000 0.079080 0.000000 0.000000
# 5 0.000000 0.000000 0.000000 0.000000 0.025899 0.000000
# 6 0.000000 0.000000 0.000000 0.000000 0.000000 0.033766
#
#
# Mechanical properties :
#
#
# Convention : Reuss Voigt Hill
#
# Bulk Modulus (GPa) = 22.97927 26.91203 24.94565
# Shear Modulus (GPa) = 22.07734 26.07080 24.07407
#
# Velocity S-wave (km/s) = 3.49580 3.79883 3.65046
# Velocity P-wave (km/s) = 5.38647 5.84280 5.61927
#
# Compressibility (1/GPa) = 0.04351749
#
# Stress axis : x y z
#
# Youngs Moduli (GPa) = 61.33235 64.08100 37.79010
#
# Poissons Ratio (x) = 0.33754 0.05936
# Poissons Ratio (y) = 0.32306 0.02226
# Poissons Ratio (z) = 0.09634 0.03774
#
# Static dielectric constant tensor:
#      x y z
#    x 1.598110 0.000000 0.000000 
#    y 0.000000 1.651990 0.000000 
#    z 0.000000 0.000000 1.621860 
# 
# From -- ./inp_files/25218.got.cif
#   From: 2010.05.17/outbox.cif.g08.bks.cpg/sg72_13_cif.got.tgz:25218.got - 2010.06.03 17:03:01.
