data_PCOD9526932
_publ_section_title
;
Structure prediction by ZEFSAII (Michael W. Deem and Ramdas Pophale) SiO2 
 PCOD9526932
Probable space group: I B A M
;
_chemical_formula_sum "Si O2"
_cell_formula_units_Z 88
_cell_length_a 10.205740
_cell_length_b 17.589066
_cell_length_c 26.661622
_cell_angle_alpha 90.000000
_cell_angle_beta 90.000000
_cell_angle_gamma 90.000000
_cell_volume 4786.012686
_symmetry_space_group_name_H-M "I B A M"
_symmetry_group_IT_number 72
_symmetry_cell_setting 'orthorhombic'
loop_
_space_group_symop_operation_xyz
x,y,z
-x,-y,z
x,-y,1/2-z
-x,y,1/2-z
-x,-y,-z
x,y,-z
-x,y,1/2+z
x,-y,1/2+z
1/2+x,1/2+y,1/2+z
1/2-x,1/2-y,1/2+z
1/2+x,1/2-y,-z
1/2-x,1/2+y,-z
1/2-x,1/2-y,1/2-z
1/2+x,1/2+y,1/2-z
1/2-x,1/2+y,z
1/2+x,1/2-y,z
loop_
_atom_site_type_symbol
_atom_site_label
_atom_site_fract_x
_atom_site_fract_y
_atom_site_fract_z
Si Si1 0.496770 0.832712 0.309943
Si Si2 0.394568 0.620658 0.943858
Si Si3 0.273085 0.271806 0.640479
Si Si4 0.308101 0.659841 0.445168
Si Si5 0.308499 0.998096 0.055043
Si Si6 0.500000 0.000000 0.643340
O O1 0.500000 0.829136 0.250000
O O2 0.611070 0.775440 0.330928
O O3 0.350270 0.806591 0.328459
O O4 0.523806 0.921153 0.326577
O O5 0.338674 0.666487 0.896583
O O6 0.549519 0.623057 0.941698
O O7 0.331999 0.537705 0.942149
O O8 0.359518 0.651581 0.000000
O O9 0.209661 0.213847 0.601139
O O10 0.299346 0.697416 0.500000
O O11 0.203244 0.592356 0.443630
O O12 0.386289 0.021769 0.103939
O O13 0.361919 0.021243 0.000000
#
# Coordination Sequence:
#
# PCOD9526932 Si02
#       6
#    16  16  16  16  16   8
#     4  12  27  45  67  89 118 165 216 267 313 359
#     4  10  20  35  58  90 125 164 200 241 302 379
#     4  12  22  42  64  88 124 156 208 258 314 368
#     4  10  20  35  58  90 125 164 200 241 302 379
#     4  10  20  35  58  90 125 164 200 241 302 379
#     4  12  22  42  64  88 124 156 208 258 314 368
#
# _framework density 18.386913
#
# number of rings (size 3 to 8) (size 9 to 14) (size 15 to 20)
#    0.000    1.091    5.455    2.182    0.000    2.182 
#    0.000    0.000    0.000    0.000    0.000    7.636 
#    0.000    0.000    0.000    0.000    0.000    0.000 
#
# Total GULP energy -245020.407613 kJ/mol
# GULP energy per Si atom -5568.645628 kJ/mol
# Density = 1.834506 g / cm^3
# Si number density = 18.386913 Si / 1000 Ang^3
#
#
#
# Elastic Constant Matrix: (Units=GPa)
#
#
# Indices 1 2 3 4 5 6 
#
# 1 74.6324 23.5741 42.6735 0.0000 0.0000 0.0000
# 2 23.5741 85.0818 51.3388 0.0000 0.0000 0.0000
# 3 42.6735 51.3388 156.9848 0.0000 0.0000 0.0000
# 4 0.0000 0.0000 0.0000 122.0200 0.0000 0.0000
# 5 0.0000 0.0000 0.0000 0.0000 35.6055 0.0000
# 6 0.0000 0.0000 0.0000 0.0000 0.0000 31.5425
#
#
#
# Elastic Compliance Matrix: (Units=1/GPa)
#
#
# Indices 1 2 3 4 5 6 
#
# 1 0.016213 -0.002284 -0.003661 0.000000 0.000000 0.000000
# 2 -0.002284 0.014965 -0.004273 0.000000 0.000000 0.000000
# 3 -0.003661 -0.004273 0.008763 0.000000 0.000000 0.000000
# 4 0.000000 0.000000 0.000000 0.008195 0.000000 0.000000
# 5 0.000000 0.000000 0.000000 0.000000 0.028086 0.000000
# 6 0.000000 0.000000 0.000000 0.000000 0.000000 0.031703
#
#
# Mechanical properties :
#
#
# Convention : Reuss Voigt Hill
#
# Bulk Modulus (GPa) = 51.26621 61.31909 56.29265
# Shear Modulus (GPa) = 37.07525 51.10780 44.09152
#
# Velocity S-wave (km/s) = 4.49530 5.27789 4.90223
# Velocity P-wave (km/s) = 7.40851 8.40019 7.91989
#
# Compressibility (1/GPa) = 0.01950603
#
# Stress axis : x y z
#
# Youngs Moduli (GPa) = 61.67770 66.82467 114.12238
#
# Poissons Ratio (x) = 0.15260 0.41775
# Poissons Ratio (y) = 0.14084 0.48766
# Poissons Ratio (z) = 0.22577 0.28555
#
# Static dielectric constant tensor:
#      x y z
#    x 1.657510 0.000000 0.000000 
#    y 0.000000 1.640380 0.000000 
#    z 0.000000 0.000000 1.622270 
# 
# From -- ./inp_files/36900.got.cif
#   From: 2010.05.17/outbox.cif.g08.bks.cpg/sg72_19_cif.got.tgz:36900.got - 2010.06.03 17:03:01.
