data_PCOD9526707
_publ_section_title
;
Structure prediction by ZEFSAII (Michael W. Deem and Ramdas Pophale) SiO2 
 PCOD9526707
Probable space group: I B A M
;
_chemical_formula_sum "Si O2"
_cell_formula_units_Z 96
_cell_length_a 9.719339
_cell_length_b 31.210899
_cell_length_c 14.291592
_cell_angle_alpha 90.000000
_cell_angle_beta 90.000000
_cell_angle_gamma 90.000000
_cell_volume 4335.344542
_symmetry_space_group_name_H-M "I B A M"
_symmetry_group_IT_number 72
_symmetry_cell_setting 'orthorhombic'
loop_
_space_group_symop_operation_xyz
x,y,z
-x,-y,z
x,-y,1/2-z
-x,y,1/2-z
-x,-y,-z
x,y,-z
-x,y,1/2+z
x,-y,1/2+z
1/2+x,1/2+y,1/2+z
1/2-x,1/2-y,1/2+z
1/2+x,1/2-y,-z
1/2-x,1/2+y,-z
1/2-x,1/2-y,1/2-z
1/2+x,1/2+y,1/2-z
1/2-x,1/2+y,z
1/2+x,1/2-y,z
loop_
_atom_site_type_symbol
_atom_site_label
_atom_site_fract_x
_atom_site_fract_y
_atom_site_fract_z
Si Si1 0.461048 0.792835 0.386321
Si Si2 0.853348 0.784964 0.885722
Si Si3 0.122069 0.880983 0.614075
Si Si4 0.929436 0.042848 0.889439
Si Si5 0.885797 0.471009 0.656470
Si Si6 0.940470 0.389909 0.886251
O O1 0.464239 0.792395 0.500000
O O2 0.305609 0.782135 0.358679
O O3 0.562839 0.756101 0.352998
O O4 0.488885 0.842007 0.360579
O O5 0.904491 0.832032 0.855646
O O6 0.858611 0.784803 0.000000
O O7 0.123604 0.879966 0.500000
O O8 0.278667 0.894365 0.640777
O O9 0.007457 0.914750 0.645609
O O10 0.766559 0.038350 0.878604
O O11 0.957004 0.043642 0.000000
O O12 0.000000 0.000000 0.851710
O O13 0.865208 0.500000 0.750000
O O14 0.000000 0.500000 0.602901
O O15 0.961463 0.425412 0.657083
O O16 0.946664 0.393763 0.000000
#
# Coordination Sequence:
#
# PCOD9526707 Si02
#       6
#    16  16  16  16  16  16
#     4   8  14  23  39  66 101 140 174 207 250 297
#     4   8  13  22  37  64 105 143 171 205 251 300
#     4   8  15  28  47  73 106 142 178 218 261 304
#     4  10  20  34  54  78 102 133 174 218 264 315
#     4  11  24  38  51  71 101 133 173 218 268 321
#     4   9  17  32  53  75 102 139 181 221 260 306
#
# _framework density 22.143567999999998
#
# number of rings (size 3 to 8) (size 9 to 14) (size 15 to 20)
#    0.000    3.000    0.000    3.500    0.000    4.333 
#    0.000    5.833    0.000    0.000    0.000    0.000 
#    0.000   65.333    0.000    0.000    0.000    2.167 
#
# Total GULP energy -267808.234828 kJ/mol
# GULP energy per Si atom -5579.338226 kJ/mol
# Density = 2.209317 g / cm^3
# Si number density = 22.143568 Si / 1000 Ang^3
#
#
#
# Elastic Constant Matrix: (Units=GPa)
#
#
# Indices 1 2 3 4 5 6 
#
# 1 125.3044 135.3640 9.3399 0.0000 0.0000 0.0000
# 2 135.3640 235.3560 17.7932 -0.0002 0.0000 0.0000
# 3 9.3399 17.7932 75.9617 -0.0003 0.0002 0.0000
# 4 0.0000 -0.0002 -0.0003 47.4116 0.0003 0.0000
# 5 0.0000 0.0000 0.0002 0.0003 53.5154 0.0000
# 6 0.0000 0.0000 0.0000 0.0000 0.0000 50.3648
#
#
#
# Elastic Compliance Matrix: (Units=1/GPa)
#
#
# Indices 1 2 3 4 5 6 
#
# 1 0.021079 -0.012143 0.000252 0.000000 0.000000 0.000000
# 2 -0.012143 0.011320 -0.001159 0.000000 0.000000 0.000000
# 3 0.000252 -0.001159 0.013405 0.000000 0.000000 0.000000
# 4 0.000000 0.000000 0.000000 0.021092 0.000000 0.000000
# 5 0.000000 0.000000 0.000000 0.000000 0.018686 0.000000
# 6 0.000000 0.000000 0.000000 0.000000 0.000000 0.019855
#
#
# Mechanical properties :
#
#
# Convention : Reuss Voigt Hill
#
# Bulk Modulus (GPa) = 50.74412 84.62401 67.68407
# Shear Modulus (GPa) = 36.20440 48.53335 42.36887
#
# Velocity S-wave (km/s) = 4.04788 4.68670 4.37896
# Velocity P-wave (km/s) = 6.69424 8.22107 7.49662
#
# Compressibility (1/GPa) = 0.01970672
#
# Stress axis : x y z
#
# Youngs Moduli (GPa) = 47.43965 88.33633 74.59968
#
# Poissons Ratio (x) = 1.07265 -0.01884
# Poissons Ratio (y) = 0.57605 0.08643
# Poissons Ratio (z) = -0.01198 0.10235
#
# Static dielectric constant tensor:
#      x y z
#    x 1.763430 0.000000 0.000000 
#    y 0.000000 1.821920 0.000000 
#    z 0.000000 0.000000 1.877150 
# 
# From -- ./inp_files/35997.got.cif
#   From: 2010.05.17/outbox.cif.g08.bks.cpg/sg72_18_cif.got.tgz:35997.got - 2010.06.03 17:03:01.
