data_PCOD9526001
_publ_section_title
;
Structure prediction by ZEFSAII (Michael W. Deem and Ramdas Pophale) SiO2 
 PCOD9526001
Probable space group: I B A M
;
_chemical_formula_sum "Si O2"
_cell_formula_units_Z 112
_cell_length_a 14.483341
_cell_length_b 15.365603
_cell_length_c 23.884526
_cell_angle_alpha 90.000000
_cell_angle_beta 90.000000
_cell_angle_gamma 90.000000
_cell_volume 5315.388238
_symmetry_space_group_name_H-M "I B A M"
_symmetry_group_IT_number 72
_symmetry_cell_setting 'orthorhombic'
loop_
_space_group_symop_operation_xyz
x,y,z
-x,-y,z
x,-y,1/2-z
-x,y,1/2-z
-x,-y,-z
x,y,-z
-x,y,1/2+z
x,-y,1/2+z
1/2+x,1/2+y,1/2+z
1/2-x,1/2-y,1/2+z
1/2+x,1/2-y,-z
1/2-x,1/2+y,-z
1/2-x,1/2-y,1/2-z
1/2+x,1/2+y,1/2-z
1/2-x,1/2+y,z
1/2+x,1/2-y,z
loop_
_atom_site_type_symbol
_atom_site_label
_atom_site_fract_x
_atom_site_fract_y
_atom_site_fract_z
Si Si1 0.277179 0.091001 0.062815
Si Si2 0.357482 0.829303 0.860755
Si Si3 0.220011 0.098673 0.437224
Si Si4 0.636435 0.629784 0.661441
Si Si5 0.563785 0.363370 0.635085
Si Si6 0.719047 0.345163 0.727504
Si Si7 0.528457 0.814062 0.066742
O O1 0.202631 0.114994 0.109115
O O2 0.375789 0.134566 0.072462
O O3 0.284056 0.986267 0.063630
O O4 0.245245 0.115232 0.000000
O O5 0.275814 0.825121 0.906886
O O6 0.378299 0.734396 0.836339
O O7 0.304849 0.879594 0.810338
O O8 0.447927 0.856912 0.895086
O O9 0.196253 0.122535 0.500000
O O10 0.129051 0.076094 0.402435
O O11 0.532671 0.596986 0.654325
O O12 0.687872 0.601740 0.718013
O O13 0.629323 0.337099 0.687301
O O14 0.544017 0.281220 0.593983
O O15 0.750000 0.250000 0.750000
O O16 0.504889 0.809983 0.000000
#
# Coordination Sequence:
#
# PCOD9526001 Si02
#       7
#    16  16  16  16  16  16  16
#     4  10  22  36  52  75 108 146 181 220 272 325
#     4   9  19  33  54  80 104 135 177 222 269 317
#     4  10  20  35  52  75 108 144 178 219 269 324
#     4  10  20  35  55  78 107 140 178 224 269 320
#     4  10  20  33  54  82 107 138 180 223 268 319
#     4   9  17  33  55  80 107 136 173 222 273 321
#     4  10  19  33  54  82 110 141 180 224 269 318
#
# _framework density 21.070896999999999
#
# number of rings (size 3 to 8) (size 9 to 14) (size 15 to 20)
#    0.000    2.286    0.000    3.857    0.000    5.714 
#    0.000    8.571    0.000    3.429    0.000   16.000 
#    0.000    0.000    0.000    0.000    0.000    0.000 
#
# Total GULP energy -312130.109583 kJ/mol
# GULP energy per Si atom -5573.751957 kJ/mol
# Density = 2.102294 g / cm^3
# Si number density = 21.070897 Si / 1000 Ang^3
#
#
#
# Elastic Constant Matrix: (Units=GPa)
#
#
# Indices 1 2 3 4 5 6 
#
# 1 132.5500 19.4731 83.5530 0.0000 0.0000 0.0000
# 2 19.4731 26.1408 15.1107 0.0000 0.0000 0.0000
# 3 83.5530 15.1107 154.9558 0.0000 0.0000 0.0000
# 4 0.0000 0.0000 0.0000 9.4740 0.0000 0.0000
# 5 0.0000 0.0000 0.0000 0.0000 41.4534 0.0000
# 6 0.0000 0.0000 0.0000 0.0000 0.0000 15.0798
#
#
#
# Elastic Compliance Matrix: (Units=1/GPa)
#
#
# Indices 1 2 3 4 5 6 
#
# 1 0.012151 -0.005579 -0.006008 0.000000 0.000000 0.000000
# 2 -0.005579 0.043101 -0.001195 0.000000 0.000000 0.000000
# 3 -0.006008 -0.001195 0.009809 0.000000 0.000000 0.000000
# 4 0.000000 0.000000 0.000000 0.105552 0.000000 0.000000
# 5 0.000000 0.000000 0.000000 0.000000 0.024123 0.000000
# 6 0.000000 0.000000 0.000000 0.000000 0.000000 0.066314
#
#
# Mechanical properties :
#
#
# Convention : Reuss Voigt Hill
#
# Bulk Modulus (GPa) = 25.31758 61.10224 43.20991
# Shear Modulus (GPa) = 16.67889 26.23542 21.45716
#
# Velocity S-wave (km/s) = 2.81652 3.53243 3.19459
# Velocity P-wave (km/s) = 4.75590 6.76009 5.84454
#
# Compressibility (1/GPa) = 0.03949824
#
# Stress axis : x y z
#
# Youngs Moduli (GPa) = 82.29803 23.20133 101.94268
#
# Poissons Ratio (x) = 0.12944 0.61245
# Poissons Ratio (y) = 0.45912 0.12181
# Poissons Ratio (z) = 0.49443 0.02772
#
# Static dielectric constant tensor:
#      x y z
#    x 1.776100 0.000000 0.000000 
#    y 0.000000 1.815740 0.000000 
#    z 0.000000 0.000000 1.786320 
# 
# From -- ./inp_files/44355.got.cif
#   From: 2010.05.17/outbox.cif.g08.bks.cpg/sg72_23_cif.got.tgz:44355.got - 2010.06.03 17:03:01.
