data_PCOD9526316
_publ_section_title
;
Structure prediction by ZEFSAII (Michael W. Deem and Ramdas Pophale) SiO2 
 PCOD9526316
Probable space group: I B A M
;
_chemical_formula_sum "Si O2"
_cell_formula_units_Z 116
_cell_length_a 25.274553
_cell_length_b 13.203490
_cell_length_c 20.362313
_cell_angle_alpha 90.000000
_cell_angle_beta 90.000000
_cell_angle_gamma 90.000000
_cell_volume 6795.154463
_symmetry_space_group_name_H-M "I B A M"
_symmetry_group_IT_number 72
_symmetry_cell_setting 'orthorhombic'
loop_
_space_group_symop_operation_xyz
x,y,z
-x,-y,z
x,-y,1/2-z
-x,y,1/2-z
-x,-y,-z
x,y,-z
-x,y,1/2+z
x,-y,1/2+z
1/2+x,1/2+y,1/2+z
1/2-x,1/2-y,1/2+z
1/2+x,1/2-y,-z
1/2-x,1/2+y,-z
1/2-x,1/2-y,1/2-z
1/2+x,1/2+y,1/2-z
1/2-x,1/2+y,z
1/2+x,1/2-y,z
loop_
_atom_site_type_symbol
_atom_site_label
_atom_site_fract_x
_atom_site_fract_y
_atom_site_fract_z
Si Si1 0.194336 0.056608 0.679752
Si Si2 0.500000 0.000000 0.750000
Si Si3 0.404839 0.125523 0.314169
Si Si4 0.648428 0.781180 0.182520
Si Si5 0.192593 0.510252 0.171554
Si Si6 0.566091 0.284875 0.574048
Si Si7 0.391670 0.507307 0.925220
Si Si8 0.941896 0.225192 0.424832
O O1 0.178681 0.174355 0.689748
O O2 0.191006 0.000000 0.750000
O O3 0.253075 0.041637 0.649641
O O4 0.153205 0.006647 0.629205
O O5 0.540976 0.930781 0.707972
O O6 0.378427 0.178897 0.250053
O O7 0.415221 0.207505 0.369689
O O8 0.362371 0.045785 0.343349
O O9 0.686968 0.870757 0.157841
O O10 0.602535 0.764643 0.129043
O O11 0.195785 0.500000 0.250000
O O12 0.582802 0.255598 0.500000
O O13 0.573121 0.406165 0.579067
O O14 0.504706 0.261299 0.581975
O O15 0.425370 0.608457 0.915266
O O16 0.370036 0.510635 0.000000
O O17 0.927338 0.252611 0.500000
#
# Coordination Sequence:
#
# PCOD9526316 Si02
#       8
#    16   4  16  16  16  16  16  16
#     4  10  20  33  56  81 104 136 180 227 265 307
#     4  12  20  36  58  76 106 144 176 218 262 324
#     4  11  21  35  55  77 107 140 180 220 265 321
#     4  10  19  36  55  77 106 141 180 218 267 324
#     4   9  20  36  52  77 104 140 177 215 268 322
#     4   9  18  33  53  78 108 143 178 215 267 328
#     4   9  18  34  53  77 110 142 175 216 271 329
#     4  10  20  33  53  80 108 141 177 221 269 317
#
# _framework density 17.070988
#
# number of rings (size 3 to 8) (size 9 to 14) (size 15 to 20)
#    0.000    2.207    2.069    2.069    0.000    7.724 
#    0.000    2.414    0.000    5.793    0.000    0.000 
#    0.000    0.000    0.000    0.000    0.000    0.000 
#
# Total GULP energy -323157.273938 kJ/mol
# GULP energy per Si atom -5571.677137 kJ/mol
# Density = 1.703213 g / cm^3
# Si number density = 17.070988 Si / 1000 Ang^3
#
#
#
# Elastic Constant Matrix: (Units=GPa)
#
#
# Indices 1 2 3 4 5 6 
#
# 1 77.6412 37.2080 28.5730 0.0000 0.0000 0.0000
# 2 37.2080 93.9796 43.3956 0.0000 0.0000 0.0000
# 3 28.5730 43.3956 63.8090 0.0000 0.0000 0.0000
# 4 0.0000 0.0000 0.0000 20.6737 0.0000 0.0000
# 5 0.0000 0.0000 0.0000 0.0000 14.2996 0.0000
# 6 0.0000 0.0000 0.0000 0.0000 0.0000 24.4196
#
#
#
# Elastic Compliance Matrix: (Units=1/GPa)
#
#
# Indices 1 2 3 4 5 6 
#
# 1 0.016682 -0.004600 -0.004342 0.000000 0.000000 0.000000
# 2 -0.004600 0.016780 -0.009352 0.000000 0.000000 0.000000
# 3 -0.004342 -0.009352 0.023976 0.000000 0.000000 0.000000
# 4 0.000000 0.000000 0.000000 0.048371 0.000000 0.000000
# 5 0.000000 0.000000 0.000000 0.000000 0.069932 0.000000
# 6 0.000000 0.000000 0.000000 0.000000 0.000000 0.040951
#
#
# Mechanical properties :
#
#
# Convention : Reuss Voigt Hill
#
# Bulk Modulus (GPa) = 47.95964 50.42034 49.18999
# Shear Modulus (GPa) = 19.21380 20.29545 19.75463
#
# Velocity S-wave (km/s) = 3.35852 3.45176 3.40546
# Velocity P-wave (km/s) = 6.57227 6.74433 6.65886
#
# Compressibility (1/GPa) = 0.02085086
#
# Stress axis : x y z
#
# Youngs Moduli (GPa) = 59.94502 59.59412 41.70787
#
# Poissons Ratio (x) = 0.27412 0.18108
# Poissons Ratio (y) = 0.27574 0.39006
# Poissons Ratio (z) = 0.26027 0.55734
#
# Static dielectric constant tensor:
#      x y z
#    x 1.601790 0.000000 0.000000 
#    y 0.000000 1.579840 0.000000 
#    z 0.000000 0.000000 1.564680 
# 
# From -- ./inp_files/33986.got.cif
#   From: 2010.05.17/outbox.cif.g08.bks.cpg/sg72_17_cif.got.tgz:33986.got - 2010.06.03 17:03:01.
