data_PCOD9526538
_publ_section_title
;
Structure prediction by ZEFSAII (Michael W. Deem and Ramdas Pophale) SiO2 
 PCOD9526538
Probable space group: I B A M
;
_chemical_formula_sum "Si O2"
_cell_formula_units_Z 112
_cell_length_a 11.652427
_cell_length_b 23.322183
_cell_length_c 22.840049
_cell_angle_alpha 90.000000
_cell_angle_beta 90.000000
_cell_angle_gamma 90.000000
_cell_volume 6207.012513
_symmetry_space_group_name_H-M "I B A M"
_symmetry_group_IT_number 72
_symmetry_cell_setting 'orthorhombic'
loop_
_space_group_symop_operation_xyz
x,y,z
-x,-y,z
x,-y,1/2-z
-x,y,1/2-z
-x,-y,-z
x,y,-z
-x,y,1/2+z
x,-y,1/2+z
1/2+x,1/2+y,1/2+z
1/2-x,1/2-y,1/2+z
1/2+x,1/2-y,-z
1/2-x,1/2+y,-z
1/2-x,1/2-y,1/2-z
1/2+x,1/2+y,1/2-z
1/2-x,1/2+y,z
1/2+x,1/2-y,z
loop_
_atom_site_type_symbol
_atom_site_label
_atom_site_fract_x
_atom_site_fract_y
_atom_site_fract_z
Si Si1 0.611939 0.846722 0.618215
Si Si2 0.327832 0.268643 0.431899
Si Si3 0.135243 0.290925 0.245146
Si Si4 0.989377 0.854658 0.432369
Si Si5 0.780048 0.927658 0.570755
Si Si6 0.652193 0.848131 0.132387
Si Si7 0.703455 0.560129 0.432394
O O1 0.664772 0.798675 0.575601
O O2 0.638797 0.823389 0.683121
O O3 0.665118 0.907583 0.602160
O O4 0.476634 0.847748 0.609842
O O5 0.316741 0.284673 0.500000
O O6 0.444977 0.298967 0.408016
O O7 0.224079 0.296679 0.397014
O O8 0.250000 0.250000 0.250000
O O9 0.147937 0.335328 0.298745
O O10 0.000000 0.267364 0.250000
O O11 0.962145 0.840560 0.500000
O O12 0.084142 0.905131 0.431458
O O13 0.876042 0.882751 0.406620
O O14 0.771491 0.922657 0.500000
O O15 0.811209 0.993543 0.582301
O O16 0.714082 0.906021 0.111540
O O17 0.746151 0.563996 0.500000
#
# Coordination Sequence:
#
# PCOD9526538 Si02
#       7
#    16  16  16  16  16  16  16
#     4  11  23  35  53  82 111 143 184 231 278 336
#     4  10  20  32  52  80 113 146 175 220 284 337
#     4  10  21  40  61  80 108 150 194 237 286 334
#     4   8  16  31  52  78 107 146 186 221 268 327
#     4  10  20  33  53  82 115 147 184 228 277 335
#     4  10  21  38  56  76 107 143 188 229 275 332
#     4   9  18  35  57  79 109 150 187 226 278 333
#
# _framework density 18.044108000000001
#
# number of rings (size 3 to 8) (size 9 to 14) (size 15 to 20)
#    0.000    2.286    1.429    2.143    2.000    4.571 
#    0.000    2.143    0.000    2.571    0.000    4.000 
#    0.000    0.000    0.000    0.000    0.000    0.000 
#
# Total GULP energy -311964.430328 kJ/mol
# GULP energy per Si atom -5570.793399 kJ/mol
# Density = 1.800304 g / cm^3
# Si number density = 18.044108 Si / 1000 Ang^3
#
#
#
# Elastic Constant Matrix: (Units=GPa)
#
#
# Indices 1 2 3 4 5 6 
#
# 1 76.1858 6.3525 15.5495 0.0000 0.0000 0.0000
# 2 6.3525 41.3897 -4.5388 0.0000 0.0000 0.0000
# 3 15.5495 -4.5388 35.3553 0.0000 0.0000 0.0000
# 4 0.0000 0.0000 0.0000 18.0738 0.0000 0.0000
# 5 0.0000 0.0000 0.0000 0.0000 22.9634 0.0000
# 6 0.0000 0.0000 0.0000 0.0000 0.0000 6.1250
#
#
#
# Elastic Compliance Matrix: (Units=1/GPa)
#
#
# Indices 1 2 3 4 5 6 
#
# 1 0.014784 -0.003025 -0.006891 0.000000 0.000000 0.000000
# 2 -0.003025 0.025124 0.004556 0.000000 0.000000 0.000000
# 3 -0.006891 0.004556 0.031900 0.000000 0.000000 0.000000
# 4 0.000000 0.000000 0.000000 0.055329 0.000000 0.000000
# 5 0.000000 0.000000 0.000000 0.000000 0.043548 0.000000
# 6 0.000000 0.000000 0.000000 0.000000 0.000000 0.163266
#
#
# Mechanical properties :
#
#
# Convention : Reuss Voigt Hill
#
# Bulk Modulus (GPa) = 16.36950 20.85079 18.61015
# Shear Modulus (GPa) = 13.69741 18.47028 16.08384
#
# Velocity S-wave (km/s) = 2.75818 3.20287 2.98881
# Velocity P-wave (km/s) = 4.38578 5.02578 4.71664
#
# Compressibility (1/GPa) = 0.06108921
#
# Stress axis : x y z
#
# Youngs Moduli (GPa) = 67.63897 39.80196 31.34834
#
# Poissons Ratio (x) = 0.12039 0.21601
# Poissons Ratio (y) = 0.20459 -0.14281
# Poissons Ratio (z) = 0.46607 -0.18133
#
# Static dielectric constant tensor:
#      x y z
#    x 1.665970 0.000000 0.000000 
#    y 0.000000 1.601740 0.000000 
#    z 0.000000 0.000000 1.605400 
# 
# From -- ./inp_files/37295.got.cif
#   From: 2010.05.17/outbox.cif.g08.bks.cpg/sg72_19_cif.got.tgz:37295.got - 2010.06.03 17:03:01.
