data_PCOD9526164
_publ_section_title
;
Structure prediction by ZEFSAII (Michael W. Deem and Ramdas Pophale) SiO2 
 PCOD9526164
Probable space group: I B A M
;
_chemical_formula_sum "Si O2"
_cell_formula_units_Z 128
_cell_length_a 12.388718
_cell_length_b 22.794436
_cell_length_c 24.080379
_cell_angle_alpha 90.000000
_cell_angle_beta 90.000000
_cell_angle_gamma 90.000000
_cell_volume 6800.150684
_symmetry_space_group_name_H-M "I B A M"
_symmetry_group_IT_number 72
_symmetry_cell_setting 'orthorhombic'
loop_
_space_group_symop_operation_xyz
x,y,z
-x,-y,z
x,-y,1/2-z
-x,y,1/2-z
-x,-y,-z
x,y,-z
-x,y,1/2+z
x,-y,1/2+z
1/2+x,1/2+y,1/2+z
1/2-x,1/2-y,1/2+z
1/2+x,1/2-y,-z
1/2-x,1/2+y,-z
1/2-x,1/2-y,1/2-z
1/2+x,1/2+y,1/2-z
1/2-x,1/2+y,z
1/2+x,1/2-y,z
loop_
_atom_site_type_symbol
_atom_site_label
_atom_site_fract_x
_atom_site_fract_y
_atom_site_fract_z
Si Si1 0.480217 0.069382 0.662881
Si Si2 0.078759 0.350575 0.064235
Si Si3 0.622028 0.488977 0.316114
Si Si4 0.757111 0.379187 0.708433
Si Si5 0.238180 0.176604 0.063900
Si Si6 0.276474 0.903438 0.668682
Si Si7 0.289351 0.303808 0.112044
Si Si8 0.497644 0.720206 0.436646
O O1 0.460565 0.096720 0.602148
O O2 0.375070 0.091352 0.696955
O O3 0.596316 0.093008 0.680963
O O4 0.500000 0.000000 0.663767
O O5 0.206268 0.341140 0.074932
O O6 0.024687 0.287677 0.080364
O O7 0.057218 0.360027 0.000000
O O8 0.500000 0.500000 0.337905
O O9 0.617135 0.500000 0.250000
O O10 0.671278 0.423822 0.320169
O O11 0.711819 0.535242 0.336941
O O12 0.732850 0.374497 0.773946
O O13 0.747468 0.318757 0.674367
O O14 0.264746 0.128868 0.110090
O O15 0.279447 0.237766 0.089515
O O16 0.110025 0.186227 0.061849
O O17 0.275809 0.166998 0.000000
O O18 0.415039 0.313836 0.102212
O O19 0.455058 0.722213 0.500000
#
# Coordination Sequence:
#
# PCOD9526164 Si02
#       8
#    16  16  16  16  16  16  16  16
#     4  11  21  35  56  82 113 149 190 232 278 332
#     4   9  19  34  53  81 112 146 191 233 275 328
#     4   9  19  36  58  83 112 147 185 227 276 330
#     4  10  22  37  57  88 113 146 191 229 280 338
#     4  10  22  38  57  84 113 149 191 227 279 340
#     4  11  22  37  61  82 114 151 184 236 281 328
#     4  10  19  34  58  82 114 145 185 232 280 335
#     4   9  17  33  57  80 107 150 190 224 274 336
#
# _framework density 18.823111999999998
#
# number of rings (size 3 to 8) (size 9 to 14) (size 15 to 20)
#    0.000    2.125    1.250    3.000    1.750    2.750 
#    0.000    0.000    0.000    0.375    0.000    0.000 
#    0.000    0.000    0.000    0.000    0.000    0.000 
#
# Total GULP energy -356443.553787 kJ/mol
# GULP energy per Si atom -5569.430528 kJ/mol
# Density = 1.878027 g / cm^3
# Si number density = 18.823112 Si / 1000 Ang^3
#
#
#
# Elastic Constant Matrix: (Units=GPa)
#
#
# Indices 1 2 3 4 5 6 
#
# 1 73.2049 -1.0922 9.6592 0.0000 0.0000 0.0000
# 2 -1.0922 38.4937 47.5493 0.0000 0.0000 0.0000
# 3 9.6592 47.5493 112.8974 0.0000 0.0000 0.0000
# 4 0.0000 0.0000 0.0000 -1.9981 0.0000 0.0000
# 5 0.0000 0.0000 0.0000 0.0000 15.6664 0.0000
# 6 0.0000 0.0000 0.0000 0.0000 0.0000 13.7594
#
#
#
# Elastic Compliance Matrix: (Units=1/GPa)
#
#
# Indices 1 2 3 4 5 6 
#
# 1 0.014097 0.003939 -0.002865 0.000000 0.000000 0.000000
# 2 0.003939 0.055251 -0.023607 0.000000 0.000000 0.000000
# 3 -0.002865 -0.023607 0.019045 0.000000 0.000000 0.000000
# 4 0.000000 0.000000 0.000000 -0.500466 0.000000 0.000000
# 5 0.000000 0.000000 0.000000 0.000000 0.063831 0.000000
# 6 0.000000 0.000000 0.000000 0.000000 0.000000 0.072677
#
#
# Mechanical properties :
#
#
# Convention : Reuss Voigt Hill
#
# Bulk Modulus (GPa) = 23.08025 37.42539 30.25282
# Shear Modulus (GPa) = -23.14217 16.71752 -3.21233
#
# Velocity S-wave (km/s) = -3.51016 2.98340 -1.30778
# Velocity P-wave (km/s) = 2.03471 5.63856 3.71842
#
# Compressibility (1/GPa) = 0.04332709
#
# Stress axis : x y z
#
# Youngs Moduli (GPa) = 70.93642 18.09931 52.50605
#
# Poissons Ratio (x) = -0.07130 0.15044
# Poissons Ratio (y) = -0.27944 1.23952
# Poissons Ratio (z) = 0.20325 0.42727
#
# Static dielectric constant tensor:
#      x y z
#    x 1.732890 0.000000 0.000000 
#    y 0.000000 1.664130 0.000000 
#    z 0.000000 0.000000 1.671090 
# 
# From -- ./inp_files/43682.got.cif
#   From: 2010.05.17/outbox.cif.g08.bks.cpg/sg72_22_cif.got.tgz:43682.got - 2010.06.03 17:03:01.
