data_PCOD9526071
_publ_section_title
;
Structure prediction by ZEFSAII (Michael W. Deem and Ramdas Pophale) SiO2 
 PCOD9526071
Probable space group: I B A M
;
_chemical_formula_sum "Si O2"
_cell_formula_units_Z 80
_cell_length_a 16.365993
_cell_length_b 26.892785
_cell_length_c 10.901333
_cell_angle_alpha 90.000000
_cell_angle_beta 90.000000
_cell_angle_gamma 90.000000
_cell_volume 4797.972418
_symmetry_space_group_name_H-M "I B A M"
_symmetry_group_IT_number 72
_symmetry_cell_setting 'orthorhombic'
loop_
_space_group_symop_operation_xyz
x,y,z
-x,-y,z
x,-y,1/2-z
-x,y,1/2-z
-x,-y,-z
x,y,-z
-x,y,1/2+z
x,-y,1/2+z
1/2+x,1/2+y,1/2+z
1/2-x,1/2-y,1/2+z
1/2+x,1/2-y,-z
1/2-x,1/2+y,-z
1/2-x,1/2-y,1/2-z
1/2+x,1/2+y,1/2-z
1/2-x,1/2+y,z
1/2+x,1/2-y,z
loop_
_atom_site_type_symbol
_atom_site_label
_atom_site_fract_x
_atom_site_fract_y
_atom_site_fract_z
Si Si1 0.501690 0.827909 0.500000
Si Si2 0.832917 0.216007 0.739121
Si Si3 0.701507 0.691205 0.000000
Si Si4 0.738303 0.692705 0.500000
Si Si5 0.500000 0.772707 0.750000
Si Si6 0.134347 0.394721 0.500000
Si Si7 0.343891 0.114560 0.500000
Si Si8 0.097546 0.440412 0.753229
O O1 0.476912 0.802535 0.627003
O O2 0.461250 0.881629 0.500000
O O3 0.597199 0.837204 0.500000
O O4 0.750000 0.250000 0.750000
O O5 0.844728 0.190923 0.870999
O O6 0.811955 0.182199 0.623127
O O7 0.917059 0.244423 0.714348
O O8 0.741979 0.747560 0.000000
O O9 0.757833 0.642482 0.000000
O O10 0.817147 0.657444 0.500000
O O11 0.144071 0.421662 0.630340
O O12 0.363783 0.083518 0.376460
O O13 0.102132 0.500000 0.750000
O O14 0.000000 0.427371 0.750000
#
# Coordination Sequence:
#
# PCOD9526071 Si02
#       8
#     8  16   8   8   8   8   8  16
#     4  12  20  30  45  76  96 130 192 232 253 308
#     4  10  19  34  46  69  97 141 177 223 275 299
#     4  10  20  34  49  69 103 137 173 223 271 312
#     4  10  20  34  49  69 103 137 173 223 271 312
#     4  12  22  32  52  70 105 146 191 232 254 328
#     4  12  21  35  53  76 102 144 187 225 277 323
#     4  12  21  35  53  76 102 144 187 225 277 323
#     4  11  22  38  53  76 108 141 184 241 283 314
#
# _framework density 16.67371
#
# number of rings (size 3 to 8) (size 9 to 14) (size 15 to 20)
#    0.000    1.000    2.000    9.000    0.000    1.600 
#    0.000    0.000    0.000    0.000    0.000    0.000 
#    0.000    0.000    0.000   63.000    0.000    2.000 
#
# Total GULP energy -222687.719085 kJ/mol
# GULP energy per Si atom -5567.192977 kJ/mol
# Density = 1.663576 g / cm^3
# Si number density = 16.673710 Si / 1000 Ang^3
#
#
#
# Elastic Constant Matrix: (Units=GPa)
#
#
# Indices 1 2 3 4 5 6 
#
# 1 41.1008 19.0876 8.4666 0.0000 0.0000 0.0000
# 2 19.0876 62.6916 41.5053 0.0000 0.0000 0.0000
# 3 8.4666 41.5053 171.1251 0.0003 0.0001 0.0000
# 4 0.0000 0.0000 0.0003 26.1244 0.0000 0.0000
# 5 0.0000 0.0000 0.0001 0.0000 18.2665 0.0000
# 6 0.0000 0.0000 0.0000 0.0000 0.0000 25.1132
#
#
#
# Elastic Compliance Matrix: (Units=1/GPa)
#
#
# Indices 1 2 3 4 5 6 
#
# 1 0.028435 -0.009204 0.000826 0.000000 0.000000 0.000000
# 2 -0.009204 0.021982 -0.004876 0.000000 0.000000 0.000000
# 3 0.000826 -0.004876 0.006986 0.000000 0.000000 0.000000
# 4 0.000000 0.000000 0.000000 0.038278 0.000000 0.000000
# 5 0.000000 0.000000 0.000000 0.000000 0.054745 0.000000
# 6 0.000000 0.000000 0.000000 0.000000 0.000000 0.039820
#
#
# Mechanical properties :
#
#
# Convention : Reuss Voigt Hill
#
# Bulk Modulus (GPa) = 32.37005 45.89292 39.13149
# Shear Modulus (GPa) = 22.02140 27.62469 24.82305
#
# Velocity S-wave (km/s) = 3.63812 4.07477 3.86262
# Velocity P-wave (km/s) = 6.09130 7.05140 6.58886
#
# Compressibility (1/GPa) = 0.03089276
#
# Stress axis : x y z
#
# Youngs Moduli (GPa) = 35.16816 45.49242 143.15348
#
# Poissons Ratio (x) = 0.41871 -0.11818
# Poissons Ratio (y) = 0.32369 0.69804
# Poissons Ratio (z) = -0.02903 0.22183
#
# Static dielectric constant tensor:
#      x y z
#    x 1.529330 0.000000 0.000000 
#    y 0.000000 1.527580 0.000000 
#    z 0.000000 0.000000 1.611260 
# 
# From -- ./inp_files/13765.got.cif
#   From: 2010.05.17/outbox.cif.g08.bks.cpg/sg72_7_cif.got.tgz:13765.got - 2010.06.03 17:03:01.
