data_PCOD9526430
_publ_section_title
;
Structure prediction by ZEFSAII (Michael W. Deem and Ramdas Pophale) SiO2 
 PCOD9526430
Probable space group: I B A M
;
_chemical_formula_sum "Si O2"
_cell_formula_units_Z 116
_cell_length_a 27.601287
_cell_length_b 9.826985
_cell_length_c 24.958438
_cell_angle_alpha 90.000000
_cell_angle_beta 90.000000
_cell_angle_gamma 90.000000
_cell_volume 6769.662663
_symmetry_space_group_name_H-M "I B A M"
_symmetry_group_IT_number 72
_symmetry_cell_setting 'orthorhombic'
loop_
_space_group_symop_operation_xyz
x,y,z
-x,-y,z
x,-y,1/2-z
-x,y,1/2-z
-x,-y,-z
x,y,-z
-x,y,1/2+z
x,-y,1/2+z
1/2+x,1/2+y,1/2+z
1/2-x,1/2-y,1/2+z
1/2+x,1/2-y,-z
1/2-x,1/2+y,-z
1/2-x,1/2-y,1/2-z
1/2+x,1/2+y,1/2-z
1/2-x,1/2+y,z
1/2+x,1/2-y,z
loop_
_atom_site_type_symbol
_atom_site_label
_atom_site_fract_x
_atom_site_fract_y
_atom_site_fract_z
Si Si1 0.849212 0.670233 0.309506
Si Si2 0.500000 0.500000 0.250000
Si Si3 0.936713 0.135962 0.158299
Si Si4 0.496300 0.335694 0.440587
Si Si5 0.605042 0.642238 0.392214
Si Si6 0.740317 0.293870 0.374077
Si Si7 0.341556 0.854455 0.182696
Si Si8 0.207302 0.060045 0.062220
O O1 0.894806 0.759806 0.326800
O O2 0.801452 0.728660 0.337899
O O3 0.855263 0.512112 0.324780
O O4 0.843466 0.677497 0.245542
O O5 0.531640 0.406259 0.289985
O O6 0.969497 0.196674 0.110005
O O7 0.913362 0.994530 0.137286
O O8 0.500000 0.500000 0.443558
O O9 0.509628 0.282941 0.500000
O O10 0.440683 0.304292 0.426001
O O11 0.623644 0.753358 0.349874
O O12 0.651534 0.602094 0.427570
O O13 0.787109 0.332876 0.338848
O O14 0.719857 0.426933 0.403353
O O15 0.759319 0.182738 0.416477
O O16 0.215672 0.034039 0.000000
#
# Coordination Sequence:
#
# PCOD9526430 Si02
#       8
#    16   4  16  16  16  16  16  16
#     4  11  22  39  57  87 115 158 188 237 292 354
#     4  12  20  36  58  94 120 144 188 256 296 340
#     4  11  21  35  62  87 119 146 195 242 295 344
#     4   9  18  35  58  85 114 147 190 241 290 340
#     4  10  19  38  59  87 113 153 188 245 283 347
#     4  11  21  40  57  83 119 151 194 240 288 345
#     4  10  23  38  59  81 123 151 194 231 291 355
#     4  11  22  36  59  86 115 154 197 241 289 341
#
# _framework density 17.135269999999998
#
# number of rings (size 3 to 8) (size 9 to 14) (size 15 to 20)
#    0.000    1.517    4.828    2.069    0.000    0.552 
#    0.000    0.690    0.000    0.828    0.000    0.000 
#    0.000    0.000    0.000    0.000    0.000    0.000 
#
# Total GULP energy -323701.581838 kJ/mol
# GULP energy per Si atom -5581.061756 kJ/mol
# Density = 1.709627 g / cm^3
# Si number density = 17.135270 Si / 1000 Ang^3
#
#
#
# Elastic Constant Matrix: (Units=GPa)
#
#
# Indices 1 2 3 4 5 6 
#
# 1 114.1195 41.9140 66.6239 0.0000 0.0000 0.0000
# 2 41.9140 76.0077 47.7719 0.0000 0.0000 0.0000
# 3 66.6239 47.7719 116.1926 0.0000 0.0000 0.0000
# 4 0.0000 0.0000 0.0000 11.1675 0.0000 0.0000
# 5 0.0000 0.0000 0.0000 0.0000 12.1008 0.0000
# 6 0.0000 0.0000 0.0000 0.0000 0.0000 13.3354
#
#
#
# Elastic Compliance Matrix: (Units=1/GPa)
#
#
# Indices 1 2 3 4 5 6 
#
# 1 0.013855 -0.003570 -0.006477 0.000000 0.000000 0.000000
# 2 -0.003570 0.018661 -0.005625 0.000000 0.000000 0.000000
# 3 -0.006477 -0.005625 0.014633 0.000000 0.000000 0.000000
# 4 0.000000 0.000000 0.000000 0.089546 0.000000 0.000000
# 5 0.000000 0.000000 0.000000 0.000000 0.082639 0.000000
# 6 0.000000 0.000000 0.000000 0.000000 0.000000 0.074989
#
#
# Mechanical properties :
#
#
# Convention : Reuss Voigt Hill
#
# Bulk Modulus (GPa) = 63.27060 68.77102 66.02081
# Shear Modulus (GPa) = 15.10875 17.32139 16.21507
#
# Velocity S-wave (km/s) = 2.97262 3.18285 3.07953
# Velocity P-wave (km/s) = 6.98472 7.32999 7.15944
#
# Compressibility (1/GPa) = 0.01580513
#
# Stress axis : x y z
#
# Youngs Moduli (GPa) = 72.17645 53.58870 68.33876
#
# Poissons Ratio (x) = 0.19129 0.44261
# Poissons Ratio (y) = 0.25764 0.38444
# Poissons Ratio (z) = 0.46747 0.30146
#
# Static dielectric constant tensor:
#      x y z
#    x 1.567980 0.000000 0.000000 
#    y 0.000000 1.551010 0.000000 
#    z 0.000000 0.000000 1.577760 
# 
# From -- ./inp_files/45986.got.cif
#   From: 2010.05.17/outbox.cif.g08.bks.cpg/sg72_23_cif.got.tgz:45986.got - 2010.06.03 17:03:01.
