data_PCOD9526915
_publ_section_title
;
Structure prediction by ZEFSAII (Michael W. Deem and Ramdas Pophale) SiO2 
 PCOD9526915
Probable space group: I B A M
;
_chemical_formula_sum "Si O2"
_cell_formula_units_Z 72
_cell_length_a 27.882180
_cell_length_b 5.196048
_cell_length_c 25.898714
_cell_angle_alpha 90.000000
_cell_angle_beta 90.000000
_cell_angle_gamma 90.000000
_cell_volume 3752.131760
_symmetry_space_group_name_H-M "I B A M"
_symmetry_group_IT_number 72
_symmetry_cell_setting 'orthorhombic'
loop_
_space_group_symop_operation_xyz
x,y,z
-x,-y,z
x,-y,1/2-z
-x,y,1/2-z
-x,-y,-z
x,y,-z
-x,y,1/2+z
x,-y,1/2+z
1/2+x,1/2+y,1/2+z
1/2-x,1/2-y,1/2+z
1/2+x,1/2-y,-z
1/2-x,1/2+y,-z
1/2-x,1/2-y,1/2-z
1/2+x,1/2+y,1/2-z
1/2-x,1/2+y,z
1/2+x,1/2-y,z
loop_
_atom_site_type_symbol
_atom_site_label
_atom_site_fract_x
_atom_site_fract_y
_atom_site_fract_z
Si Si1 0.445253 0.395178 0.694405
Si Si2 0.500000 0.000000 0.855707
Si Si3 0.883837 0.105935 0.404782
Si Si4 0.219051 0.754440 0.561202
Si Si5 0.065598 0.371595 0.558158
O O1 0.500000 0.500000 0.687017
O O2 0.430749 0.500000 0.750000
O O3 0.405375 0.451415 0.651760
O O4 0.458049 0.097353 0.682100
O O5 0.474452 0.184196 0.898224
O O6 0.828741 0.185641 0.407142
O O7 0.913514 0.346253 0.428748
O O8 0.893946 0.845899 0.436294
O O9 0.206490 0.767796 0.500000
O O10 0.241699 0.475803 0.571130
O O11 0.047080 0.362623 0.500000
#
# Coordination Sequence:
#
# PCOD9526915 Si02
#       5
#    16   8  16  16  16
#     4  10  21  39  58  81 112 154 194 243 281 334
#     4  10  21  37  52  82 114 150 196 232 278 338
#     4  11  22  38  57  86 116 151 196 235 285 339
#     4  10  20  35  58  84 112 148 187 231 285 344
#     4  11  21  34  54  80 118 155 185 228 279 342
#
# _framework density 19.189091999999999
#
# number of rings (size 3 to 8) (size 9 to 14) (size 15 to 20)
#    0.000    1.556    2.222    3.667    0.000    3.556 
#    0.000    3.333    0.000    1.333    0.000    0.000 
#    0.000    0.000    0.000    0.000    0.000    0.000 
#
# Total GULP energy -200634.688095 kJ/mol
# GULP energy per Si atom -5573.185780 kJ/mol
# Density = 1.914542 g / cm^3
# Si number density = 19.189092 Si / 1000 Ang^3
#
#
#
# Elastic Constant Matrix: (Units=GPa)
#
#
# Indices 1 2 3 4 5 6 
#
# 1 57.6372 -15.2986 25.5973 0.0000 0.0000 0.0000
# 2 -15.2986 52.2952 23.6206 0.0000 0.0000 0.0000
# 3 25.5973 23.6206 141.9269 0.0000 0.0000 0.0000
# 4 0.0000 0.0000 0.0000 8.7570 0.0000 0.0000
# 5 0.0000 0.0000 0.0000 0.0000 25.3785 0.0000
# 6 0.0000 0.0000 0.0000 0.0000 0.0000 22.7472
#
#
#
# Elastic Compliance Matrix: (Units=1/GPa)
#
#
# Indices 1 2 3 4 5 6 
#
# 1 0.022168 0.008965 -0.005490 0.000000 0.000000 0.000000
# 2 0.008965 0.024302 -0.005661 0.000000 0.000000 0.000000
# 3 -0.005490 -0.005661 0.008978 0.000000 0.000000 0.000000
# 4 0.000000 0.000000 0.000000 0.114195 0.000000 0.000000
# 5 0.000000 0.000000 0.000000 0.000000 0.039403 0.000000
# 6 0.000000 0.000000 0.000000 0.000000 0.000000 0.043961
#
#
# Mechanical properties :
#
#
# Convention : Reuss Voigt Hill
#
# Bulk Modulus (GPa) = 19.57930 35.52199 27.55064
# Shear Modulus (GPa) = 18.22122 25.90587 22.06354
#
# Velocity S-wave (km/s) = 3.08484 3.67826 3.39454
# Velocity P-wave (km/s) = 4.78684 6.04907 5.45459
#
# Compressibility (1/GPa) = 0.05107436
#
# Stress axis : x y z
#
# Youngs Moduli (GPa) = 45.11094 41.14907 111.38037
#
# Poissons Ratio (x) = -0.36889 0.61148
# Poissons Ratio (y) = -0.40441 0.63056
# Poissons Ratio (z) = 0.24766 0.23296
#
# Static dielectric constant tensor:
#      x y z
#    x 1.677830 0.000000 0.000000 
#    y 0.000000 1.922970 0.000000 
#    z 0.000000 0.000000 1.664630 
# 
# From -- ./inp_files/41521.got.cif
#   From: 2010.05.17/outbox.cif.g08.bks.cpg/sg72_21_cif.got.tgz:41521.got - 2010.06.03 17:03:01.
