data_PCOD9526395
_publ_section_title
;
Structure prediction by ZEFSAII (Michael W. Deem and Ramdas Pophale) SiO2 
 PCOD9526395
Probable space group: I B A M
;
_chemical_formula_sum "Si O2"
_cell_formula_units_Z 96
_cell_length_a 26.171140
_cell_length_b 8.481105
_cell_length_c 20.479805
_cell_angle_alpha 90.000000
_cell_angle_beta 90.000000
_cell_angle_gamma 90.000000
_cell_volume 4545.701333
_symmetry_space_group_name_H-M "I B A M"
_symmetry_group_IT_number 72
_symmetry_cell_setting 'orthorhombic'
loop_
_space_group_symop_operation_xyz
x,y,z
-x,-y,z
x,-y,1/2-z
-x,y,1/2-z
-x,-y,-z
x,y,-z
-x,y,1/2+z
x,-y,1/2+z
1/2+x,1/2+y,1/2+z
1/2-x,1/2-y,1/2+z
1/2+x,1/2-y,-z
1/2-x,1/2+y,-z
1/2-x,1/2-y,1/2-z
1/2+x,1/2+y,1/2-z
1/2-x,1/2+y,z
1/2+x,1/2-y,z
loop_
_atom_site_type_symbol
_atom_site_label
_atom_site_fract_x
_atom_site_fract_y
_atom_site_fract_z
Si Si1 0.673689 0.038175 0.680054
Si Si2 0.456320 0.635492 0.071630
Si Si3 0.281413 0.398077 0.185687
Si Si4 0.600324 0.144689 0.424256
Si Si5 0.153675 0.978457 0.931264
Si Si6 0.506814 0.816085 0.176582
O O1 0.697997 0.217091 0.685941
O O2 0.635646 0.027901 0.618638
O O3 0.647348 0.000000 0.750000
O O4 0.720734 0.916409 0.675098
O O5 0.500000 0.500000 0.077644
O O6 0.399867 0.567237 0.073751
O O7 0.462474 0.749183 0.131691
O O8 0.464954 0.709028 0.000000
O O9 0.293202 0.500000 0.250000
O O10 0.308800 0.492163 0.128038
O O11 0.585038 0.100049 0.500000
O O12 0.635833 0.297183 0.432653
O O13 0.556012 0.198157 0.372462
O O14 0.178609 0.021935 0.000000
O O15 0.500000 0.746258 0.250000
O O16 0.500000 0.000000 0.183659
#
# Coordination Sequence:
#
# PCOD9526395 Si02
#       6
#    16  16  16  16  16  16
#     4  10  21  37  63  86 117 156 196 247 298 355
#     4  10  19  37  62  84 115 155 198 247 297 360
#     4  10  20  37  58  87 118 155 194 246 300 354
#     4  10  21  40  62  85 118 161 196 236 302 364
#     4   9  19  36  60  87 115 153 196 245 294 348
#     4  11  25  40  57  86 122 157 199 248 301 352
#
# _framework density 21.118852
#
# number of rings (size 3 to 8) (size 9 to 14) (size 15 to 20)
#    0.000    2.000    1.667    2.500    2.333    5.000 
#    3.000    0.000    0.000    0.000    0.000    0.000 
#    0.000    0.000    0.000    0.000    0.000    0.000 
#
# Total GULP energy -267317.010136 kJ/mol
# GULP energy per Si atom -5569.104378 kJ/mol
# Density = 2.107078 g / cm^3
# Si number density = 21.118852 Si / 1000 Ang^3
#
#
#
# Elastic Constant Matrix: (Units=GPa)
#
#
# Indices 1 2 3 4 5 6 
#
# 1 42.9253 -6.2909 65.6991 0.0000 0.0000 0.0000
# 2 -6.2909 39.3391 28.0809 0.0000 0.0000 0.0000
# 3 65.6991 28.0809 221.2969 0.0000 0.0000 0.0000
# 4 0.0000 0.0000 0.0000 26.1528 0.0000 0.0000
# 5 0.0000 0.0000 0.0000 0.0000 33.2316 0.0000
# 6 0.0000 0.0000 0.0000 0.0000 0.0000 25.1373
#
#
#
# Elastic Compliance Matrix: (Units=1/GPa)
#
#
# Indices 1 2 3 4 5 6 
#
# 1 0.057341 0.023445 -0.019998 0.000000 0.000000 0.000000
# 2 0.023445 0.037538 -0.011724 0.000000 0.000000 0.000000
# 3 -0.019998 -0.011724 0.011944 0.000000 0.000000 0.000000
# 4 0.000000 0.000000 0.000000 0.038237 0.000000 0.000000
# 5 0.000000 0.000000 0.000000 0.000000 0.030092 0.000000
# 6 0.000000 0.000000 0.000000 0.000000 0.000000 0.039782
#
#
# Mechanical properties :
#
#
# Convention : Reuss Voigt Hill
#
# Bulk Modulus (GPa) = 11.07820 53.17108 32.12464
# Shear Modulus (GPa) = 19.11494 31.30915 25.21204
#
# Velocity S-wave (km/s) = 3.01177 3.85453 3.45891
# Velocity P-wave (km/s) = 4.16550 6.71130 5.58538
#
# Compressibility (1/GPa) = 0.09026741
#
# Stress axis : x y z
#
# Youngs Moduli (GPa) = 17.43965 26.63995 83.72675
#
# Poissons Ratio (x) = -0.62457 1.67440
# Poissons Ratio (y) = -0.40887 0.98158
# Poissons Ratio (z) = 0.34876 0.31232
#
# Static dielectric constant tensor:
#      x y z
#    x 1.763650 0.000000 0.000000 
#    y 0.000000 1.774700 0.000000 
#    z 0.000000 0.000000 1.883260 
# 
# From -- ./inp_files/40705.got.cif
#   From: 2010.05.17/outbox.cif.g08.bks.cpg/sg72_21_cif.got.tgz:40705.got - 2010.06.03 17:03:01.
