data_PCOD9526386
_publ_section_title
;
Structure prediction by ZEFSAII (Michael W. Deem and Ramdas Pophale) SiO2 
 PCOD9526386
Probable space group: I B A M
;
_chemical_formula_sum "Si O2"
_cell_formula_units_Z 104
_cell_length_a 9.984636
_cell_length_b 26.277779
_cell_length_c 19.368471
_cell_angle_alpha 90.000000
_cell_angle_beta 90.000000
_cell_angle_gamma 90.000000
_cell_volume 5081.784337
_symmetry_space_group_name_H-M "I B A M"
_symmetry_group_IT_number 72
_symmetry_cell_setting 'orthorhombic'
loop_
_space_group_symop_operation_xyz
x,y,z
-x,-y,z
x,-y,1/2-z
-x,y,1/2-z
-x,-y,-z
x,y,-z
-x,y,1/2+z
x,-y,1/2+z
1/2+x,1/2+y,1/2+z
1/2-x,1/2-y,1/2+z
1/2+x,1/2-y,-z
1/2-x,1/2+y,-z
1/2-x,1/2-y,1/2-z
1/2+x,1/2+y,1/2-z
1/2-x,1/2+y,z
1/2+x,1/2-y,z
loop_
_atom_site_type_symbol
_atom_site_label
_atom_site_fract_x
_atom_site_fract_y
_atom_site_fract_z
Si Si1 0.363895 0.891196 0.288769
Si Si2 0.740550 0.887308 0.421211
Si Si3 0.500000 0.307591 0.750000
Si Si4 0.545427 0.057828 0.421083
Si Si5 0.149285 0.273844 0.083096
Si Si6 0.372926 0.224890 0.167012
Si Si7 0.596989 0.405252 0.699146
O O1 0.500000 0.907962 0.250000
O O2 0.359198 0.920996 0.361350
O O3 0.374083 0.831182 0.302306
O O4 0.234189 0.898568 0.241921
O O5 0.783526 0.888217 0.500000
O O6 0.592022 0.910276 0.416297
O O7 0.718542 0.828421 0.400338
O O8 0.846735 0.917832 0.375337
O O9 0.386113 0.267871 0.773221
O O10 0.485518 0.351320 0.809060
O O11 0.596839 0.062547 0.500000
O O12 0.500000 0.000000 0.409435
O O13 0.245527 0.233035 0.118555
O O14 0.005361 0.270262 0.119293
O O15 0.139116 0.269550 0.000000
O O16 0.500000 0.436362 0.750000
#
# Coordination Sequence:
#
# PCOD9526386 Si02
#       7
#    16  16   8  16  16  16  16
#     4  12  22  36  62  90 117 153 204 254 298 347
#     4  10  19  37  60  83 116 161 202 245 302 360
#     4  10  22  34  54  74 120 162 206 226 284 346
#     4  10  22  41  65  92 119 150 196 259 316 356
#     4  11  22  35  52  79 117 156 199 239 288 348
#     4  12  22  34  54  82 116 162 197 242 284 348
#     4  10  21  39  55  86 123 161 198 244 292 358
#
# _framework density 20.465252
#
# number of rings (size 3 to 8) (size 9 to 14) (size 15 to 20)
#    0.462    0.769    5.385    1.385    0.000    2.154 
#    0.000    0.769    0.000    1.846    0.000    3.231 
#    0.000    0.000    0.000    0.000    0.000    0.000 
#
# Total GULP energy -289819.754219 kJ/mol
# GULP energy per Si atom -5573.456812 kJ/mol
# Density = 2.041867 g / cm^3
# Si number density = 20.465252 Si / 1000 Ang^3
#
#
#
# Elastic Constant Matrix: (Units=GPa)
#
#
# Indices 1 2 3 4 5 6 
#
# 1 90.3314 -16.4886 36.6668 0.0000 0.0000 0.0000
# 2 -16.4886 33.5064 19.5133 0.0000 0.0000 0.0000
# 3 36.6668 19.5133 93.9995 0.0000 0.0000 0.0000
# 4 0.0000 0.0000 0.0000 11.7684 0.0000 0.0000
# 5 0.0000 0.0000 0.0000 0.0000 29.8307 0.0000
# 6 0.0000 0.0000 0.0000 0.0000 0.0000 -2.5210
#
#
#
# Elastic Compliance Matrix: (Units=1/GPa)
#
#
# Indices 1 2 3 4 5 6 
#
# 1 0.017759 0.014530 -0.009944 0.000000 0.000000 0.000000
# 2 0.014530 0.045838 -0.015183 0.000000 0.000000 0.000000
# 3 -0.009944 -0.015183 0.017669 0.000000 0.000000 0.000000
# 4 0.000000 0.000000 0.000000 0.084974 0.000000 0.000000
# 5 0.000000 0.000000 0.000000 0.000000 0.033523 0.000000
# 6 0.000000 0.000000 0.000000 0.000000 0.000000 -0.396668
#
#
# Mechanical properties :
#
#
# Convention : Reuss Voigt Hill
#
# Bulk Modulus (GPa) = 16.64670 33.02447 24.83558
# Shear Modulus (GPa) = -32.11523 19.69200 -6.21161
#
# Velocity S-wave (km/s) = -3.96568 3.10533 -1.74407
# Velocity P-wave (km/s) = 3.58009 5.38788 2.84712
#
# Compressibility (1/GPa) = 0.06007197
#
# Stress axis : x y z
#
# Youngs Moduli (GPa) = 56.31005 21.81615 56.59647
#
# Poissons Ratio (x) = -0.31699 0.56277
# Poissons Ratio (y) = -0.81819 0.85932
# Poissons Ratio (z) = 0.55992 0.33124
#
# Static dielectric constant tensor:
#      x y z
#    x 1.757470 0.000000 0.000000 
#    y 0.000000 1.772450 0.000000 
#    z 0.000000 0.000000 1.776240 
# 
# From -- ./inp_files/36168.got.cif
#   From: 2010.05.17/outbox.cif.g08.bks.cpg/sg72_19_cif.got.tgz:36168.got - 2010.06.03 17:03:01.
