data_PCOD9526827
_publ_section_title
;
Structure prediction by ZEFSAII (Michael W. Deem and Ramdas Pophale) SiO2 
 PCOD9526827
Probable space group: I B A M
;
_chemical_formula_sum "Si O2"
_cell_formula_units_Z 116
_cell_length_a 28.074013
_cell_length_b 25.391282
_cell_length_c 9.633102
_cell_angle_alpha 90.000000
_cell_angle_beta 90.000000
_cell_angle_gamma 90.000000
_cell_volume 6866.814007
_symmetry_space_group_name_H-M "I B A M"
_symmetry_group_IT_number 72
_symmetry_cell_setting 'orthorhombic'
loop_
_space_group_symop_operation_xyz
x,y,z
-x,-y,z
x,-y,1/2-z
-x,y,1/2-z
-x,-y,-z
x,y,-z
-x,y,1/2+z
x,-y,1/2+z
1/2+x,1/2+y,1/2+z
1/2-x,1/2-y,1/2+z
1/2+x,1/2-y,-z
1/2-x,1/2+y,-z
1/2-x,1/2-y,1/2-z
1/2+x,1/2+y,1/2-z
1/2-x,1/2+y,z
1/2+x,1/2-y,z
loop_
_atom_site_type_symbol
_atom_site_label
_atom_site_fract_x
_atom_site_fract_y
_atom_site_fract_z
Si Si1 0.543555 0.394946 0.659374
Si Si2 0.636847 0.948038 0.340288
Si Si3 0.594501 0.792185 0.840872
Si Si4 0.543495 0.875425 0.659974
Si Si5 0.776109 0.203800 0.337415
Si Si6 0.129976 0.176115 0.335509
Si Si7 0.685174 0.133604 0.344459
Si Si8 0.000000 0.000000 0.250000
O O1 0.500000 0.372372 0.750000
O O2 0.537708 0.379303 0.500000
O O3 0.594942 0.372301 0.702774
O O4 0.534239 0.458167 0.671273
O O5 0.647622 0.959608 0.500000
O O6 0.587605 0.915482 0.333786
O O7 0.675327 0.909709 0.270501
O O8 0.632809 0.000000 0.250000
O O9 0.560885 0.821667 0.732913
O O10 0.599858 0.730109 0.821405
O O11 0.646861 0.819014 0.825617
O O12 0.579244 0.802551 0.000000
O O13 0.500000 0.896552 0.750000
O O14 0.530560 0.867395 0.500000
O O15 0.784623 0.219078 0.500000
O O16 0.750000 0.250000 0.250000
O O17 0.823838 0.184766 0.259963
O O18 0.737526 0.157149 0.338547
O O19 0.143251 0.171716 0.500000
O O20 0.676122 0.112189 0.500000
#
# Coordination Sequence:
#
# PCOD9526827 Si02
#       8
#    16  16  16  16  16  16  16   4
#     4   9  19  34  57  81 108 142 184 232 280 334
#     4  10  21  36  56  79 101 132 178 226 272 324
#     4   9  17  32  51  71 104 142 173 213 265 320
#     4  10  21  35  51  74 103 137 177 217 269 324
#     4  11  21  34  55  84 115 151 185 223 269 327
#     4  10  20  35  53  83 116 144 182 229 277 329
#     4   9  18  34  54  75 104 141 180 216 264 321
#     4   8  18  36  62  80 106 144 194 228 292 336
#
# _framework density 16.892842000000002
#
# number of rings (size 3 to 8) (size 9 to 14) (size 15 to 20)
#    0.414    1.931    1.379    1.448    0.000    4.690 
#    0.000    2.759    1.517    0.000    0.000    0.000 
#    0.000    0.000    0.000    0.000    0.000    0.000 
#
# Total GULP energy -322993.193309 kJ/mol
# GULP energy per Si atom -5568.848160 kJ/mol
# Density = 1.685439 g / cm^3
# Si number density = 16.892842 Si / 1000 Ang^3
#
#
#
# Elastic Constant Matrix: (Units=GPa)
#
#
# Indices 1 2 3 4 5 6 
#
# 1 79.0991 30.2766 56.3892 0.0000 0.0000 0.0000
# 2 30.2766 70.8768 45.7419 0.0000 0.0000 0.0000
# 3 56.3892 45.7419 125.4466 0.0000 0.0000 0.0000
# 4 0.0000 0.0000 0.0000 23.1347 0.0000 0.0000
# 5 0.0000 0.0000 0.0000 0.0000 30.3130 0.0000
# 6 0.0000 0.0000 0.0000 0.0000 0.0000 17.2107
#
#
#
# Elastic Compliance Matrix: (Units=1/GPa)
#
#
# Indices 1 2 3 4 5 6 
#
# 1 0.019227 -0.003447 -0.007386 0.000000 0.000000 0.000000
# 2 -0.003447 0.019069 -0.005404 0.000000 0.000000 0.000000
# 3 -0.007386 -0.005404 0.013262 0.000000 0.000000 0.000000
# 4 0.000000 0.000000 0.000000 0.043225 0.000000 0.000000
# 5 0.000000 0.000000 0.000000 0.000000 0.032989 0.000000
# 6 0.000000 0.000000 0.000000 0.000000 0.000000 0.058103
#
#
# Mechanical properties :
#
#
# Convention : Reuss Voigt Hill
#
# Bulk Modulus (GPa) = 52.39710 60.02645 56.21177
# Shear Modulus (GPa) = 22.25092 23.66599 22.95846
#
# Velocity S-wave (km/s) = 3.63324 3.74698 3.69055
# Velocity P-wave (km/s) = 6.97748 7.37093 7.17690
#
# Compressibility (1/GPa) = 0.01908503
#
# Stress axis : x y z
#
# Youngs Moduli (GPa) = 52.01022 52.44185 75.40359
#
# Poissons Ratio (x) = 0.18074 0.55693
# Poissons Ratio (y) = 0.17926 0.40747
# Poissons Ratio (z) = 0.38414 0.28339
#
# Static dielectric constant tensor:
#      x y z
#    x 1.569050 0.000000 0.000000 
#    y 0.000000 1.566500 0.000000 
#    z 0.000000 0.000000 1.592500 
# 
# From -- ./inp_files/7537.got.cif
#   From: 2010.05.17/outbox.cif.g08.bks.cpg/sg72_4_cif.got.tgz:7537.got - 2010.06.03 17:03:01.
