data_PCOD9526159
_publ_section_title
;
Structure prediction by ZEFSAII (Michael W. Deem and Ramdas Pophale) SiO2 
 PCOD9526159
Probable space group: I B A M
;
_chemical_formula_sum "Si O2"
_cell_formula_units_Z 96
_cell_length_a 17.781704
_cell_length_b 16.743236
_cell_length_c 14.652443
_cell_angle_alpha 90.000000
_cell_angle_beta 90.000000
_cell_angle_gamma 90.000000
_cell_volume 4362.373193
_symmetry_space_group_name_H-M "I B A M"
_symmetry_group_IT_number 72
_symmetry_cell_setting 'orthorhombic'
loop_
_space_group_symop_operation_xyz
x,y,z
-x,-y,z
x,-y,1/2-z
-x,y,1/2-z
-x,-y,-z
x,y,-z
-x,y,1/2+z
x,-y,1/2+z
1/2+x,1/2+y,1/2+z
1/2-x,1/2-y,1/2+z
1/2+x,1/2-y,-z
1/2-x,1/2+y,-z
1/2-x,1/2-y,1/2-z
1/2+x,1/2+y,1/2-z
1/2-x,1/2+y,z
1/2+x,1/2-y,z
loop_
_atom_site_type_symbol
_atom_site_label
_atom_site_fract_x
_atom_site_fract_y
_atom_site_fract_z
Si Si1 0.071370 0.751555 0.608100
Si Si2 0.327052 0.834921 0.231582
Si Si3 0.043821 0.077990 0.892778
Si Si4 0.856139 0.516289 0.102745
Si Si5 0.789069 0.931657 0.175735
Si Si6 0.066832 0.642871 0.105207
O O1 0.084693 0.759646 0.500000
O O2 0.148516 0.731294 0.658993
O O3 0.028807 0.831857 0.641463
O O4 0.015320 0.677374 0.622810
O O5 0.350858 0.917547 0.180512
O O6 0.243940 0.855938 0.267794
O O7 0.377286 0.820387 0.320813
O O8 0.133693 0.074647 0.878593
O O9 0.025316 0.079143 0.000000
O O10 0.000000 0.000000 0.855238
O O11 0.780133 0.463047 0.113914
O O12 0.922609 0.452240 0.113714
O O13 0.859400 0.550540 0.000000
O O14 0.803614 0.000000 0.250000
O O15 0.086159 0.663200 0.000000
#
# Coordination Sequence:
#
# PCOD9526159 Si02
#       6
#    16  16  16  16  16  16
#     4  10  21  37  58  86 124 160 203 255 306 366
#     4  10  19  34  57  88 126 157 198 247 304 367
#     4  10  22  42  65  85 112 156 206 260 316 368
#     4   9  17  32  59  88 121 162 199 239 294 367
#     4   9  19  36  57  88 117 153 199 249 302 372
#     4   9  18  33  53  83 122 162 200 239 294 365
#
# _framework density 22.00637
#
# number of rings (size 3 to 8) (size 9 to 14) (size 15 to 20)
#    0.000    2.500    0.000    3.000    0.000    2.333 
#    6.000    7.500    3.667    0.000    0.000    0.000 
#    0.000    0.000    0.000    0.000    0.000    0.000 
#
# Total GULP energy -267644.537145 kJ/mol
# GULP energy per Si atom -5575.927857 kJ/mol
# Density = 2.195628 g / cm^3
# Si number density = 22.006370 Si / 1000 Ang^3
#
#
#
# Elastic Constant Matrix: (Units=GPa)
#
#
# Indices 1 2 3 4 5 6 
#
# 1 71.9481 58.4102 10.0108 0.0000 0.0000 0.0000
# 2 58.4102 97.5000 23.2906 0.0000 0.0000 0.0000
# 3 10.0108 23.2906 65.1814 0.0000 0.0000 0.0000
# 4 0.0000 0.0000 0.0000 -56.0575 0.0000 0.0000
# 5 0.0000 0.0000 0.0000 0.0000 31.4641 0.0000
# 6 0.0000 0.0000 0.0000 0.0000 0.0000 30.7467
#
#
#
# Elastic Compliance Matrix: (Units=1/GPa)
#
#
# Indices 1 2 3 4 5 6 
#
# 1 0.027252 -0.016756 0.001802 0.000000 0.000000 0.000000
# 2 -0.016756 0.021517 -0.005115 0.000000 0.000000 0.000000
# 3 0.001802 -0.005115 0.016893 0.000000 0.000000 0.000000
# 4 0.000000 0.000000 0.000000 -0.017839 0.000000 0.000000
# 5 0.000000 0.000000 0.000000 0.000000 0.031782 0.000000
# 6 0.000000 0.000000 0.000000 0.000000 0.000000 0.032524
#
#
# Mechanical properties :
#
#
# Convention : Reuss Voigt Hill
#
# Bulk Modulus (GPa) = 39.18104 46.45030 42.81567
# Shear Modulus (GPa) = 31.09957 10.75851 20.92904
#
# Velocity S-wave (km/s) = 3.76334 2.21347 3.08725
# Velocity P-wave (km/s) = 6.06026 5.26175 5.67507
#
# Compressibility (1/GPa) = 0.02552255
#
# Stress axis : x y z
#
# Youngs Moduli (GPa) = 36.69513 46.47582 59.19728
#
# Poissons Ratio (x) = 0.77876 -0.10667
# Poissons Ratio (y) = 0.61487 0.30278
# Poissons Ratio (z) = -0.06612 0.23772
#
# Static dielectric constant tensor:
#      x y z
#    x 1.811710 0.000000 0.000000 
#    y 0.000000 1.888670 0.000000 
#    z 0.000000 0.000000 1.798200 
# 
# From -- ./inp_files/24164.got.cif
#   From: 2010.05.17/outbox.cif.g08.bks.cpg/sg72_13_cif.got.tgz:24164.got - 2010.06.03 17:03:01.
