data_PCOD9526646
_publ_section_title
;
Structure prediction by ZEFSAII (Michael W. Deem and Ramdas Pophale) SiO2 
 PCOD9526646
Probable space group: I B A M
;
_chemical_formula_sum "Si O2"
_cell_formula_units_Z 96
_cell_length_a 21.249894
_cell_length_b 15.201271
_cell_length_c 13.854067
_cell_angle_alpha 90.000000
_cell_angle_beta 90.000000
_cell_angle_gamma 90.000000
_cell_volume 4475.215498
_symmetry_space_group_name_H-M "I B A M"
_symmetry_group_IT_number 72
_symmetry_cell_setting 'orthorhombic'
loop_
_space_group_symop_operation_xyz
x,y,z
-x,-y,z
x,-y,1/2-z
-x,y,1/2-z
-x,-y,-z
x,y,-z
-x,y,1/2+z
x,-y,1/2+z
1/2+x,1/2+y,1/2+z
1/2-x,1/2-y,1/2+z
1/2+x,1/2-y,-z
1/2-x,1/2+y,-z
1/2-x,1/2-y,1/2-z
1/2+x,1/2+y,1/2-z
1/2-x,1/2+y,z
1/2+x,1/2-y,z
loop_
_atom_site_type_symbol
_atom_site_label
_atom_site_fract_x
_atom_site_fract_y
_atom_site_fract_z
Si Si1 0.938220 0.740113 0.790072
Si Si2 0.130770 0.167770 0.500000
Si Si3 0.870846 0.412472 0.194932
Si Si4 0.575117 0.205088 0.000000
Si Si5 0.888695 0.909791 0.704069
Si Si6 0.437718 0.857150 0.500000
Si Si7 0.250957 0.144498 0.272120
Si Si8 0.275331 0.155149 0.500000
O O1 0.884428 0.672851 0.760735
O O2 0.936897 0.756840 0.902307
O O3 0.931984 0.829610 0.734518
O O4 0.000000 0.693015 0.750000
O O5 0.118955 0.104888 0.590645
O O6 0.086126 0.254424 0.500000
O O7 0.204331 0.201263 0.500000
O O8 0.891054 0.500000 0.250000
O O9 0.795511 0.405824 0.195606
O O10 0.906252 0.400230 0.094379
O O11 0.514380 0.137684 0.000000
O O12 0.649375 0.179411 0.000000
O O13 0.819392 0.889173 0.744743
O O14 0.910949 0.000000 0.750000
O O15 0.250000 0.250000 0.250000
O O16 0.269719 0.123381 0.385349
#
# Coordination Sequence:
#
# PCOD9526646 Si02
#       8
#    16   8  16   8  16   8  16   8
#     4  12  24  44  65  95 138 182 228 285 343 410
#     4  10  20  43  71  98 137 186 232 275 354 432
#     4  12  25  42  68  99 131 176 237 283 337 412
#     4  12  22  40  69  97 132 181 232 283 351 405
#     4  11  23  41  70 103 136 178 231 291 349 414
#     4  12  24  46  72  95 137 198 231 276 357 425
#     4  11  20  41  65  96 137 180 226 285 353 416
#     4  10  20  33  66  94 127 176 226 287 341 401
#
# _framework density 21.451481000000001
#
# number of rings (size 3 to 8) (size 9 to 14) (size 15 to 20)
#    0.000    0.667    6.667    1.500    0.000    2.667 
#    0.000    4.167    0.000    3.000    0.000    0.000 
#    0.000    0.000    0.000    0.000    0.000    0.000 
#
# Total GULP energy -267259.734946 kJ/mol
# GULP energy per Si atom -5567.911145 kJ/mol
# Density = 2.140266 g / cm^3
# Si number density = 21.451481 Si / 1000 Ang^3
#
#
#
# Elastic Constant Matrix: (Units=GPa)
#
#
# Indices 1 2 3 4 5 6 
#
# 1 94.7257 -7.6212 18.2266 0.0000 0.0000 0.0000
# 2 -7.6212 99.4218 27.8604 0.0000 0.0000 0.0000
# 3 18.2266 27.8604 121.8937 0.0000 0.0000 0.0000
# 4 0.0000 0.0000 0.0000 -11.2206 0.0000 0.0000
# 5 0.0000 0.0000 0.0000 0.0000 22.5167 0.0000
# 6 0.0000 0.0000 0.0000 0.0000 0.0000 49.7255
#
#
#
# Elastic Compliance Matrix: (Units=1/GPa)
#
#
# Indices 1 2 3 4 5 6 
#
# 1 0.011049 0.001400 -0.001972 0.000000 0.000000 0.000000
# 2 0.001400 0.010924 -0.002706 0.000000 0.000000 0.000000
# 3 -0.001972 -0.002706 0.009117 0.000000 0.000000 0.000000
# 4 0.000000 0.000000 0.000000 -0.089122 0.000000 0.000000
# 5 0.000000 0.000000 0.000000 0.000000 0.044412 0.000000
# 6 0.000000 0.000000 0.000000 0.000000 0.000000 0.020110
#
#
# Mechanical properties :
#
#
# Convention : Reuss Voigt Hill
#
# Bulk Modulus (GPa) = 40.76167 43.66364 42.21266
# Shear Modulus (GPa) = 235.57798 30.70935 133.14366
#
# Velocity S-wave (km/s) = 10.49082 3.78772 7.88683
# Velocity P-wave (km/s) = 12.87580 6.28712 10.13198
#
# Compressibility (1/GPa) = 0.02453285
#
# Stress axis : x y z
#
# Youngs Moduli (GPa) = 90.50725 91.54370 109.68225
#
# Poissons Ratio (x) = -0.12812 0.21629
# Poissons Ratio (y) = -0.12667 0.29680
# Poissons Ratio (z) = 0.17848 0.24772
#
# Static dielectric constant tensor:
#      x y z
#    x 1.860470 0.000000 0.000000 
#    y 0.000000 1.705330 0.000000 
#    z 0.000000 0.000000 1.760810 
# 
# From -- ./inp_files/24209.got.cif
#   From: 2010.05.17/outbox.cif.g08.bks.cpg/sg72_13_cif.got.tgz:24209.got - 2010.06.03 17:03:01.
