data_PCOD9526552
_publ_section_title
;
Structure prediction by ZEFSAII (Michael W. Deem and Ramdas Pophale) SiO2 
 PCOD9526552
Probable space group: I B A M
;
_chemical_formula_sum "Si O2"
_cell_formula_units_Z 96
_cell_length_a 25.555094
_cell_length_b 25.530373
_cell_length_c 8.784728
_cell_angle_alpha 90.000000
_cell_angle_beta 90.000000
_cell_angle_gamma 90.000000
_cell_volume 5731.429593
_symmetry_space_group_name_H-M "I B A M"
_symmetry_group_IT_number 72
_symmetry_cell_setting 'orthorhombic'
loop_
_space_group_symop_operation_xyz
x,y,z
-x,-y,z
x,-y,1/2-z
-x,y,1/2-z
-x,-y,-z
x,y,-z
-x,y,1/2+z
x,-y,1/2+z
1/2+x,1/2+y,1/2+z
1/2-x,1/2-y,1/2+z
1/2+x,1/2-y,-z
1/2-x,1/2+y,-z
1/2-x,1/2-y,1/2-z
1/2+x,1/2+y,1/2-z
1/2-x,1/2+y,z
1/2+x,1/2-y,z
loop_
_atom_site_type_symbol
_atom_site_label
_atom_site_fract_x
_atom_site_fract_y
_atom_site_fract_z
Si Si1 0.138208 0.448167 0.179431
Si Si2 0.332064 0.242408 0.682672
Si Si3 0.052482 0.612782 0.827904
Si Si4 0.246541 0.054859 0.181179
Si Si5 0.259578 0.333556 0.182590
Si Si6 0.053731 0.738026 0.827669
O O1 0.111946 0.500000 0.250000
O O2 0.100823 0.400838 0.220950
O O3 0.192863 0.443585 0.266540
O O4 0.147331 0.452745 0.000000
O O5 0.330513 0.246608 0.500000
O O6 0.299733 0.289883 0.757694
O O7 0.298442 0.189744 0.723400
O O8 0.391687 0.245301 0.739279
O O9 0.047684 0.675205 0.837437
O O10 0.000000 0.591695 0.750000
O O11 0.060060 0.592687 0.000000
O O12 0.226691 0.110221 0.245860
O O13 0.225141 0.000000 0.250000
O O14 0.242312 0.053232 0.000000
O O15 0.261353 0.337742 0.000000
O O16 0.000000 0.757902 0.750000
O O17 0.058364 0.758551 0.000000
#
# Coordination Sequence:
#
# PCOD9526552 Si02
#       6
#    16  16  16  16  16  16
#     4  11  21  33  47  63  84 113 151 194 240 286
#     4  10  20  33  51  75 103 134 168 206 249 298
#     4  10  20  33  47  64  85 113 151 194 240 286
#     4  11  21  34  51  71  96 126 161 199 242 291
#     4  10  20  34  52  75 103 134 168 206 250 298
#     4  10  20  33  50  70  95 126 160 199 242 291
#
# _framework density 16.749746999999999
#
# number of rings (size 3 to 8) (size 9 to 14) (size 15 to 20)
#    0.000    1.667    0.000    7.000    0.000    7.000 
#    0.000    1.667    0.000    0.000    0.000    0.000 
#    0.000    0.667    0.000    6.667    0.000    4.000 
#
# Total GULP energy -267710.241569 kJ/mol
# GULP energy per Si atom -5577.296699 kJ/mol
# Density = 1.671162 g / cm^3
# Si number density = 16.749747 Si / 1000 Ang^3
#
#
#
# Elastic Constant Matrix: (Units=GPa)
#
#
# Indices 1 2 3 4 5 6 
#
# 1 64.2086 11.6982 27.8037 0.0000 0.0000 0.0000
# 2 11.6982 78.3384 40.7966 0.0000 0.0000 0.0000
# 3 27.8037 40.7966 122.3482 0.0000 0.0000 0.0000
# 4 0.0000 0.0000 0.0000 27.0215 0.0000 0.0000
# 5 0.0000 0.0000 0.0000 0.0000 21.6704 0.0000
# 6 0.0000 0.0000 0.0000 0.0000 0.0000 9.6081
#
#
#
# Elastic Compliance Matrix: (Units=1/GPa)
#
#
# Indices 1 2 3 4 5 6 
#
# 1 0.017301 -0.000649 -0.003715 0.000000 0.000000 0.000000
# 2 -0.000649 0.015472 -0.005012 0.000000 0.000000 0.000000
# 3 -0.003715 -0.005012 0.010689 0.000000 0.000000 0.000000
# 4 0.000000 0.000000 0.000000 0.037008 0.000000 0.000000
# 5 0.000000 0.000000 0.000000 0.000000 0.046146 0.000000
# 6 0.000000 0.000000 0.000000 0.000000 0.000000 0.104079
#
#
# Mechanical properties :
#
#
# Convention : Reuss Voigt Hill
#
# Bulk Modulus (GPa) = 40.46855 47.27690 43.87272
# Shear Modulus (GPa) = 19.40367 23.96643 21.68505
#
# Velocity S-wave (km/s) = 3.40729 3.78677 3.60203
# Velocity P-wave (km/s) = 6.30021 6.88521 6.59920
#
# Compressibility (1/GPa) = 0.02471055
#
# Stress axis : x y z
#
# Youngs Moduli (GPa) = 57.79916 64.63315 93.55555
#
# Poissons Ratio (x) = 0.04193 0.34760
# Poissons Ratio (y) = 0.03749 0.46887
# Poissons Ratio (z) = 0.21475 0.32392
#
# Static dielectric constant tensor:
#      x y z
#    x 1.559090 0.000000 0.000000 
#    y 0.000000 1.631720 0.000000 
#    z 0.000000 0.000000 1.576560 
# 
# From -- ./inp_files/6952.got.cif
#   From: 2010.05.17/outbox.cif.g08.bks.cpg/sg72_4_cif.got.tgz:6952.got - 2010.06.03 17:03:01.
