data_PCOD9526863
_publ_section_title
;
Structure prediction by ZEFSAII (Michael W. Deem and Ramdas Pophale) SiO2 
 PCOD9526863
Probable space group: I B A M
;
_chemical_formula_sum "Si O2"
_cell_formula_units_Z 112
_cell_length_a 14.281631
_cell_length_b 24.229063
_cell_length_c 14.751365
_cell_angle_alpha 90.000000
_cell_angle_beta 90.000000
_cell_angle_gamma 90.000000
_cell_volume 5104.422756
_symmetry_space_group_name_H-M "I B A M"
_symmetry_group_IT_number 72
_symmetry_cell_setting 'orthorhombic'
loop_
_space_group_symop_operation_xyz
x,y,z
-x,-y,z
x,-y,1/2-z
-x,y,1/2-z
-x,-y,-z
x,y,-z
-x,y,1/2+z
x,-y,1/2+z
1/2+x,1/2+y,1/2+z
1/2-x,1/2-y,1/2+z
1/2+x,1/2-y,-z
1/2-x,1/2+y,-z
1/2-x,1/2-y,1/2-z
1/2+x,1/2+y,1/2-z
1/2-x,1/2+y,z
1/2+x,1/2-y,z
loop_
_atom_site_type_symbol
_atom_site_label
_atom_site_fract_x
_atom_site_fract_y
_atom_site_fract_z
Si Si1 0.219484 0.121959 0.395705
Si Si2 0.589039 0.540443 0.610640
Si Si3 0.722651 0.945473 0.777891
Si Si4 0.816152 0.658224 0.396902
Si Si5 0.489629 0.648855 0.396869
Si Si6 0.207552 0.260835 0.104188
Si Si7 0.494181 0.772146 0.648587
O O1 0.255115 0.114535 0.500000
O O2 0.254876 0.082502 0.318196
O O3 0.108124 0.117020 0.400776
O O4 0.242266 0.184127 0.363681
O O5 0.500000 0.500000 0.631730
O O6 0.601482 0.537608 0.500000
O O7 0.685333 0.532778 0.665786
O O8 0.561858 0.603582 0.637290
O O9 0.678589 0.897254 0.838988
O O10 0.665645 0.000000 0.750000
O O11 0.789441 0.643186 0.500000
O O12 0.740834 0.702409 0.356140
O O13 0.912811 0.692959 0.397808
O O14 0.517621 0.663749 0.500000
O O15 0.472713 0.706801 0.349155
O O16 0.098003 0.272895 0.108750
O O17 0.237780 0.255800 0.000000
O O18 0.500000 0.794014 0.750000
#
# Coordination Sequence:
#
# PCOD9526863 Si02
#       7
#    16  16  16  16  16  16  16
#     4  10  22  39  60  85 125 169 211 267 325 388
#     4  10  22  40  61  89 130 175 221 271 327 396
#     4  12  26  40  62  92 125 171 227 276 324 395
#     4  11  24  44  68  97 138 177 218 274 338 405
#     4  10  20  35  55  85 125 170 212 255 317 390
#     4  10  21  40  64  92 127 170 216 267 332 404
#     4  12  24  35  62  98 131 170 211 270 334 399
#
# _framework density 21.941756999999999
#
# number of rings (size 3 to 8) (size 9 to 14) (size 15 to 20)
#    0.000    1.286    1.429    4.286    4.000    7.143 
#    0.000    0.000    0.000    4.286    0.000    6.000 
#    0.000    0.000    0.000    0.000    0.000    0.000 
#
# Total GULP energy -312666.291210 kJ/mol
# GULP energy per Si atom -5583.326629 kJ/mol
# Density = 2.189182 g / cm^3
# Si number density = 21.941757 Si / 1000 Ang^3
#
#
#
# Elastic Constant Matrix: (Units=GPa)
#
#
# Indices 1 2 3 4 5 6 
#
# 1 65.1928 26.7962 1.8370 0.0059 0.0000 0.0000
# 2 26.7962 140.0725 42.7760 0.1595 -0.0001 0.0000
# 3 1.8370 42.7760 101.1671 0.2850 0.0000 0.0000
# 4 0.0059 0.1595 0.2850********** 0.0904 -0.0180
# 5 0.0000 -0.0001 0.0000 0.0904 53.2062 0.0000
# 6 0.0000 0.0000 0.0000 -0.0180 0.0000 26.6873
#
#
#
# Elastic Compliance Matrix: (Units=1/GPa)
#
#
# Indices 1 2 3 4 5 6 
#
# 1 0.016776 -0.003578 0.001208 0.000000 0.000000 0.000000
# 2 -0.003578 0.008961 -0.003724 0.000000 0.000000 0.000000
# 3 0.001208 -0.003724 0.011437 0.000000 0.000000 0.000000
# 4 0.000000 0.000000 0.000000 -0.000055 0.000000 0.000000
# 5 0.000000 0.000000 0.000000 0.000000 0.018795 0.000000
# 6 0.000000 0.000000 0.000000 0.000000 0.000000 0.037471
#
#
# Mechanical properties :
#
#
# Convention : Reuss Voigt Hill
#
# Bulk Modulus (GPa) = 40.02184 49.91675 44.96930
# Shear Modulus (GPa) = 43.89767 -3602.49723 -1779.29978
#
# Velocity S-wave (km/s) = 4.47771 -40.56365 -28.50754
# Velocity P-wave (km/s) = 6.70916 46.59486 32.60420
#
# Compressibility (1/GPa) = 0.02498635
#
# Stress axis : x y z
#
# Youngs Moduli (GPa) = 59.60952 111.59562 87.43353
#
# Poissons Ratio (x) = 0.39932 -0.10565
# Poissons Ratio (y) = 0.21330 0.32560
# Poissons Ratio (z) = -0.07203 0.41557
#
# Static dielectric constant tensor:
#      x y z
#    x 1.823390 0.000000 0.000000 
#    y 0.000000 1.835700 0.000000 
#    z 0.000000 0.000000 1.828930 
# 
# From -- ./inp_files/22154.got.cif
#   From: 2010.05.17/outbox.cif.g08.bks.cpg/sg72_12_cif.got.tgz:22154.got - 2010.06.03 17:03:01.
