data_PCOD9526382
_publ_section_title
;
Structure prediction by ZEFSAII (Michael W. Deem and Ramdas Pophale) SiO2 
 PCOD9526382
Probable space group: I B A M
;
_chemical_formula_sum "Si O2"
_cell_formula_units_Z 112
_cell_length_a 11.082322
_cell_length_b 31.034661
_cell_length_c 17.472252
_cell_angle_alpha 90.000000
_cell_angle_beta 90.000000
_cell_angle_gamma 90.000000
_cell_volume 6009.338322
_symmetry_space_group_name_H-M "I B A M"
_symmetry_group_IT_number 72
_symmetry_cell_setting 'orthorhombic'
loop_
_space_group_symop_operation_xyz
x,y,z
-x,-y,z
x,-y,1/2-z
-x,y,1/2-z
-x,-y,-z
x,y,-z
-x,y,1/2+z
x,-y,1/2+z
1/2+x,1/2+y,1/2+z
1/2-x,1/2-y,1/2+z
1/2+x,1/2-y,-z
1/2-x,1/2+y,-z
1/2-x,1/2-y,1/2-z
1/2+x,1/2+y,1/2-z
1/2-x,1/2+y,z
1/2+x,1/2-y,z
loop_
_atom_site_type_symbol
_atom_site_label
_atom_site_fract_x
_atom_site_fract_y
_atom_site_fract_z
Si Si1 0.093171 0.039490 0.413504
Si Si2 0.964746 0.436249 0.910636
Si Si3 0.467166 0.380273 0.661351
Si Si4 0.778841 0.634284 0.410625
Si Si5 0.668688 0.014132 0.836712
Si Si6 0.253379 0.236216 0.090095
Si Si7 0.006992 0.779843 0.158399
O O1 0.142271 0.042430 0.500000
O O2 0.197694 0.028573 0.354497
O O3 0.031314 0.083991 0.389830
O O4 0.000000 0.000000 0.411632
O O5 0.902434 0.390687 0.895788
O O6 0.868992 0.473852 0.890259
O O7 0.078627 0.447448 0.858977
O O8 0.996787 0.439236 0.000000
O O9 0.500000 0.387192 0.750000
O O10 0.324883 0.383317 0.644595
O O11 0.502133 0.331092 0.640444
O O12 0.745875 0.625371 0.500000
O O13 0.784725 0.685463 0.401591
O O14 0.651842 0.000000 0.750000
O O15 0.116879 0.240767 0.123760
O O16 0.365563 0.261280 0.128420
O O17 0.249449 0.246741 0.000000
O O18 0.000000 0.775099 0.250000
#
# Coordination Sequence:
#
# PCOD9526382 Si02
#       7
#    16  16  16  16  16  16  16
#     4  11  24  39  58  84 114 152 196 240 293 352
#     4  10  19  37  59  77 109 154 195 237 291 349
#     4  10  22  37  59  87 119 153 194 244 297 355
#     4   9  19  36  60  84 114 155 198 238 291 357
#     4  11  23  36  54  82 115 148 190 243 292 343
#     4  10  20  37  62  91 120 159 206 249 297 365
#     4  10  21  40  61  89 125 162 200 250 313 364
#
# _framework density 18.63766
#
# number of rings (size 3 to 8) (size 9 to 14) (size 15 to 20)
#    0.000    1.857    0.000    4.714    4.000    4.000 
#    2.571    1.429    0.000    0.000    0.000    0.000 
#    0.000    0.000    0.000    0.000    0.000    0.000 
#
# Total GULP energy -312596.663796 kJ/mol
# GULP energy per Si atom -5582.083282 kJ/mol
# Density = 1.859524 g / cm^3
# Si number density = 18.637660 Si / 1000 Ang^3
#
#
#
# Elastic Constant Matrix: (Units=GPa)
#
#
# Indices 1 2 3 4 5 6 
#
# 1 104.5977 43.1684 57.7168 0.0000 0.0000 0.0000
# 2 43.1684 37.1878 33.3188 0.0000 0.0000 0.0000
# 3 57.7168 33.3188 103.0831 0.0002 0.0000 0.0000
# 4 0.0000 0.0000 0.0002 -12.7964 0.0001 0.0000
# 5 0.0000 0.0000 0.0000 0.0001 42.9329 0.0000
# 6 0.0000 0.0000 0.0000 0.0000 0.0000 32.1394
#
#
#
# Elastic Compliance Matrix: (Units=1/GPa)
#
#
# Indices 1 2 3 4 5 6 
#
# 1 0.020187 -0.018731 -0.005249 0.000000 0.000000 0.000000
# 2 -0.018731 0.055233 -0.007365 0.000000 0.000000 0.000000
# 3 -0.005249 -0.007365 0.015020 0.000000 0.000000 0.000000
# 4 0.000000 0.000000 0.000000 -0.078147 0.000000 0.000000
# 5 0.000000 0.000000 0.000000 0.000000 0.023292 0.000000
# 6 0.000000 0.000000 0.000000 0.000000 0.000000 0.031114
#
#
# Mechanical properties :
#
#
# Convention : Reuss Voigt Hill
#
# Bulk Modulus (GPa) = 36.03490 57.03074 46.53282
# Shear Modulus (GPa) = 36.06488 19.83280 27.94884
#
# Velocity S-wave (km/s) = 4.40370 3.26563 3.87665
# Velocity P-wave (km/s) = 6.72556 6.69965 6.71262
#
# Compressibility (1/GPa) = 0.02775087
#
# Stress axis : x y z
#
# Youngs Moduli (GPa) = 49.53659 18.10523 66.57760
#
# Poissons Ratio (x) = 0.33913 0.34943
# Poissons Ratio (y) = 0.92788 0.49033
# Poissons Ratio (z) = 0.25999 0.13334
#
# Static dielectric constant tensor:
#      x y z
#    x 1.636990 0.000000 0.000000 
#    y 0.000000 1.646040 0.000000 
#    z 0.000000 0.000000 1.638240 
# 
# From -- ./inp_files/20725.got.cif
#   From: 2010.05.17/outbox.cif.g08.bks.cpg/sg72_11_cif.got.tgz:20725.got - 2010.06.03 17:03:01.
