data_PCOD9526510
_publ_section_title
;
Structure prediction by ZEFSAII (Michael W. Deem and Ramdas Pophale) SiO2 
 PCOD9526510
Probable space group: I B A M
;
_chemical_formula_sum "Si O2"
_cell_formula_units_Z 92
_cell_length_a 20.948854
_cell_length_b 27.675136
_cell_length_c 9.584163
_cell_angle_alpha 90.000000
_cell_angle_beta 90.000000
_cell_angle_gamma 90.000000
_cell_volume 5556.537185
_symmetry_space_group_name_H-M "I B A M"
_symmetry_group_IT_number 72
_symmetry_cell_setting 'orthorhombic'
loop_
_space_group_symop_operation_xyz
x,y,z
-x,-y,z
x,-y,1/2-z
-x,y,1/2-z
-x,-y,-z
x,y,-z
-x,y,1/2+z
x,-y,1/2+z
1/2+x,1/2+y,1/2+z
1/2-x,1/2-y,1/2+z
1/2+x,1/2-y,-z
1/2-x,1/2+y,-z
1/2-x,1/2-y,1/2-z
1/2+x,1/2+y,1/2-z
1/2-x,1/2+y,z
1/2+x,1/2-y,z
loop_
_atom_site_type_symbol
_atom_site_label
_atom_site_fract_x
_atom_site_fract_y
_atom_site_fract_z
Si Si1 0.599047 0.000000 0.250000
Si Si2 0.832724 0.049388 0.833988
Si Si3 0.565232 0.367401 0.334052
Si Si4 0.310048 0.911589 0.165781
Si Si5 0.294460 0.181583 0.835384
Si Si6 0.169576 0.789308 0.836355
Si Si7 0.500000 0.000000 0.500000
O O1 0.643689 0.954826 0.290173
O O2 0.553721 0.011283 0.379313
O O3 0.887347 0.088262 0.799084
O O4 0.763091 0.072311 0.805975
O O5 0.840168 0.000000 0.750000
O O6 0.835835 0.039922 0.000000
O O7 0.500000 0.369575 0.250000
O O8 0.552701 0.369412 0.500000
O O9 0.605414 0.318587 0.305816
O O10 0.323689 0.863595 0.254187
O O11 0.316077 0.902537 0.000000
O O12 0.226308 0.192206 0.762381
O O13 0.333731 0.231556 0.820557
O O14 0.286967 0.171721 0.000000
O O15 0.186255 0.799440 0.000000
#
# Coordination Sequence:
#
# PCOD9526510 Si02
#       7
#     8  16  16  16  16  16   4
#     4  11  22  40  64  86 113 158 190 230 285 348
#     4  10  21  36  55  83 116 146 188 243 284 333
#     4  10  21  38  58  77 111 158 194 233 290 345
#     4  11  21  36  59  88 118 154 188 236 294 338
#     4  10  20  31  57  89 115 142 188 243 291 339
#     4   9  18  37  56  79 114 151 186 239 294 341
#     4  10  24  42  60  86 120 146 194 234 272 358
#
# _framework density 16.557075000000001
#
# number of rings (size 3 to 8) (size 9 to 14) (size 15 to 20)
#    0.000    1.913    3.478    0.522    1.217    3.130 
#    0.000    1.739    3.826    0.000    0.000    0.000 
#    0.000    0.000    0.000    0.000    0.000    0.000 
#
# Total GULP energy -256093.354232 kJ/mol
# GULP energy per Si atom -5567.246831 kJ/mol
# Density = 1.651939 g / cm^3
# Si number density = 16.557075 Si / 1000 Ang^3
#
#
#
# Elastic Constant Matrix: (Units=GPa)
#
#
# Indices 1 2 3 4 5 6 
#
# 1 96.2387 50.0703 50.3246 0.0000 0.0000 0.0000
# 2 50.0703 115.9719 61.9968 0.0000 0.0000 0.0000
# 3 50.3246 61.9968 94.2453 0.0000 0.0000 0.0000
# 4 0.0000 0.0000 0.0000 19.8954 0.0000 0.0000
# 5 0.0000 0.0000 0.0000 0.0000 26.2691 0.0000
# 6 0.0000 0.0000 0.0000 0.0000 0.0000 6.0019
#
#
#
# Elastic Compliance Matrix: (Units=1/GPa)
#
#
# Indices 1 2 3 4 5 6 
#
# 1 0.015258 -0.003443 -0.005883 0.000000 0.000000 0.000000
# 2 -0.003443 0.014077 -0.007422 0.000000 0.000000 0.000000
# 3 -0.005883 -0.007422 0.018634 0.000000 0.000000 0.000000
# 4 0.000000 0.000000 0.000000 0.050263 0.000000 0.000000
# 5 0.000000 0.000000 0.000000 0.000000 0.038068 0.000000
# 6 0.000000 0.000000 0.000000 0.000000 0.000000 0.166613
#
#
# Mechanical properties :
#
#
# Convention : Reuss Voigt Hill
#
# Bulk Modulus (GPa) = 69.08688 70.13770 69.61229
# Shear Modulus (GPa) = 14.65282 20.03757 17.34519
#
# Velocity S-wave (km/s) = 2.97810 3.48258 3.24018
# Velocity P-wave (km/s) = 7.32411 7.65665 7.49222
#
# Compressibility (1/GPa) = 0.01447453
#
# Stress axis : x y z
#
# Youngs Moduli (GPa) = 65.53858 71.03951 53.66568
#
# Poissons Ratio (x) = 0.24458 0.31570
# Poissons Ratio (y) = 0.22564 0.39828
# Poissons Ratio (z) = 0.38554 0.52722
#
# Static dielectric constant tensor:
#      x y z
#    x 1.528820 0.000000 0.000000 
#    y 0.000000 1.561650 0.000000 
#    z 0.000000 0.000000 1.547990 
# 
# From -- ./inp_files/6103.got.cif
#   From: 2010.05.17/outbox.cif.g08.bks.cpg/sg72_4_cif.got.tgz:6103.got - 2010.06.03 17:03:01.
