data_PCOD9526652
_publ_section_title
;
Structure prediction by ZEFSAII (Michael W. Deem and Ramdas Pophale) SiO2 
 PCOD9526652
Probable space group: I B A M
;
_chemical_formula_sum "Si O2"
_cell_formula_units_Z 116
_cell_length_a 25.211956
_cell_length_b 25.053631
_cell_length_c 8.731088
_cell_angle_alpha 90.000000
_cell_angle_beta 90.000000
_cell_angle_gamma 90.000000
_cell_volume 5515.000837
_symmetry_space_group_name_H-M "I B A M"
_symmetry_group_IT_number 72
_symmetry_cell_setting 'orthorhombic'
loop_
_space_group_symop_operation_xyz
x,y,z
-x,-y,z
x,-y,1/2-z
-x,y,1/2-z
-x,-y,-z
x,y,-z
-x,y,1/2+z
x,-y,1/2+z
1/2+x,1/2+y,1/2+z
1/2-x,1/2-y,1/2+z
1/2+x,1/2-y,-z
1/2-x,1/2+y,-z
1/2-x,1/2-y,1/2-z
1/2+x,1/2+y,1/2-z
1/2-x,1/2+y,z
1/2+x,1/2-y,z
loop_
_atom_site_type_symbol
_atom_site_label
_atom_site_fract_x
_atom_site_fract_y
_atom_site_fract_z
Si Si1 0.443113 0.799233 0.815908
Si Si2 0.551887 0.635003 0.828077
Si Si3 0.365316 0.441806 0.813509
Si Si4 0.780056 0.859384 0.817285
Si Si5 0.200968 0.442856 0.815089
Si Si6 0.914604 0.415175 0.326386
Si Si7 0.500000 0.000000 0.750000
Si Si8 0.644128 0.276393 0.676042
O O1 0.500000 0.779866 0.750000
O O2 0.435888 0.860222 0.757223
O O3 0.389420 0.768870 0.763702
O O4 0.447238 0.796174 0.000000
O O5 0.500000 0.656079 0.750000
O O6 0.577033 0.580621 0.766059
O O7 0.599853 0.676691 0.827412
O O8 0.535864 0.624139 0.000000
O O9 0.357018 0.500000 0.750000
O O10 0.323893 0.402862 0.732539
O O11 0.359995 0.438564 0.000000
O O12 0.728970 0.888369 0.743127
O O13 0.803678 0.803424 0.751588
O O14 0.774605 0.855526 0.000000
O O15 0.221755 0.500000 0.750000
O O16 0.139908 0.437611 0.759414
O O17 0.205556 0.445666 0.000000
O O18 0.900150 0.400585 0.500000
O O19 0.959798 0.459677 0.331518
O O20 0.655547 0.260811 0.500000
#
# Coordination Sequence:
#
# PCOD9526652 Si02
#       8
#    16  16  16  16  16  16   4  16
#     4  11  22  39  61  93 129 167 212 262 313 377
#     4   9  19  32  48  70 101 137 183 234 293 356
#     4  10  20  34  50  73 104 144 190 243 301 368
#     4  11  22  38  60  87 115 154 201 256 315 374
#     4  11  22  40  62  91 127 167 211 262 315 378
#     4  10  23  39  63  96 133 172 212 256 312 373
#     4  12  18  44  68  98 136 180 214 260 310 368
#     4  10  21  39  60  86 116 156 203 257 314 371
#
# _framework density 21.033542000000001
#
# number of rings (size 3 to 8) (size 9 to 14) (size 15 to 20)
#    0.000    1.655    1.379    4.759    0.000    4.690 
#    0.000    4.828    0.000    0.000    0.000    0.000 
#    0.000    0.000    0.000    0.000    0.000    0.000 
#
# Total GULP energy -323211.324083 kJ/mol
# GULP energy per Si atom -5572.609036 kJ/mol
# Density = 2.098567 g / cm^3
# Si number density = 21.033542 Si / 1000 Ang^3
#
#
#
# Elastic Constant Matrix: (Units=GPa)
#
#
# Indices 1 2 3 4 5 6 
#
# 1 98.3694 36.2628 30.4564 0.0000 0.0000 0.0000
# 2 36.2628 97.8662 23.8331 0.0000 0.0000 0.0000
# 3 30.4564 23.8331 91.7354 0.0000 0.0000 0.0000
# 4 0.0000 0.0000 0.0000 11.2835 0.0000 0.0000
# 5 0.0000 0.0000 0.0000 0.0000 13.5490 0.0000
# 6 0.0000 0.0000 0.0000 0.0000 0.0000 34.0596
#
#
#
# Elastic Compliance Matrix: (Units=1/GPa)
#
#
# Indices 1 2 3 4 5 6 
#
# 1 0.012580 -0.003890 -0.003166 0.000000 0.000000 0.000000
# 2 -0.003890 0.012111 -0.001855 0.000000 0.000000 0.000000
# 3 -0.003166 -0.001855 0.012434 0.000000 0.000000 0.000000
# 4 0.000000 0.000000 0.000000 0.088625 0.000000 0.000000
# 5 0.000000 0.000000 0.000000 0.000000 0.073806 0.000000
# 6 0.000000 0.000000 0.000000 0.000000 0.000000 0.029360
#
#
# Mechanical properties :
#
#
# Convention : Reuss Voigt Hill
#
# Bulk Modulus (GPa) = 51.80569 52.11951 51.96260
# Shear Modulus (GPa) = 19.74930 24.93966 22.34448
#
# Velocity S-wave (km/s) = 3.06754 3.44715 3.26287
# Velocity P-wave (km/s) = 6.10163 6.37784 6.24126
#
# Compressibility (1/GPa) = 0.01930290
#
# Stress axis : x y z
#
# Youngs Moduli (GPa) = 79.49060 82.56761 80.42519
#
# Poissons Ratio (x) = 0.32122 0.25462
# Poissons Ratio (y) = 0.30925 0.14918
# Poissons Ratio (z) = 0.25166 0.15316
#
# Static dielectric constant tensor:
#      x y z
#    x 1.865130 0.000000 0.000000 
#    y 0.000000 1.833880 0.000000 
#    z 0.000000 0.000000 1.721150 
# 
# From -- ./inp_files/7348.got.cif
#   From: 2010.05.17/outbox.cif.g08.bks.cpg/sg72_4_cif.got.tgz:7348.got - 2010.06.03 17:03:01.
