data_PCOD9526743
_publ_section_title
;
Structure prediction by ZEFSAII (Michael W. Deem and Ramdas Pophale) SiO2 
 PCOD9526743
Probable space group: I B A M
;
_chemical_formula_sum "Si O2"
_cell_formula_units_Z 72
_cell_length_a 8.896545
_cell_length_b 31.411908
_cell_length_c 13.617038
_cell_angle_alpha 90.000000
_cell_angle_beta 90.000000
_cell_angle_gamma 90.000000
_cell_volume 3805.382758
_symmetry_space_group_name_H-M "I B A M"
_symmetry_group_IT_number 72
_symmetry_cell_setting 'orthorhombic'
loop_
_space_group_symop_operation_xyz
x,y,z
-x,-y,z
x,-y,1/2-z
-x,y,1/2-z
-x,-y,-z
x,y,-z
-x,y,1/2+z
x,-y,1/2+z
1/2+x,1/2+y,1/2+z
1/2-x,1/2-y,1/2+z
1/2+x,1/2-y,-z
1/2-x,1/2+y,-z
1/2-x,1/2-y,1/2-z
1/2+x,1/2+y,1/2-z
1/2-x,1/2+y,z
1/2+x,1/2-y,z
loop_
_atom_site_type_symbol
_atom_site_label
_atom_site_fract_x
_atom_site_fract_y
_atom_site_fract_z
Si Si1 0.749222 0.545489 0.383196
Si Si2 0.333572 0.291860 0.289726
Si Si3 0.511726 0.188794 0.000000
Si Si4 0.778168 0.760312 0.000000
Si Si5 0.123145 0.633366 0.174592
Si Si6 0.000000 0.000000 0.250000
Si Si7 0.000000 0.500000 0.250000
O O1 0.743025 0.534716 0.500000
O O2 0.778099 0.596028 0.372368
O O3 0.605029 0.528582 0.321931
O O4 0.890041 0.525084 0.324610
O O5 0.500000 0.295605 0.250000
O O6 0.250000 0.250000 0.250000
O O7 0.340779 0.283855 0.405262
O O8 0.231832 0.333045 0.271697
O O9 0.673847 0.210979 0.000000
O O10 0.468289 0.160417 0.906650
O O11 0.398882 0.229406 0.000000
O O12 0.000000 0.615783 0.250000
#
# Coordination Sequence:
#
# PCOD9526743 Si02
#       7
#    16  16   8   8  16   4   4
#     4  11  22  43  68  97 129 161 205 258 319 389
#     4  11  22  37  57  82 117 163 207 257 299 357
#     4  10  20  36  56  82 116 163 199 259 303 352
#     4  10  20  34  56  78 110 152 209 241 299 353
#     4  11  22  37  60  88 123 159 201 259 315 364
#     4  10  26  42  72  92 126 170 202 254 328 404
#     4  10  22  42  72 100 122 162 202 250 324 384
#
# _framework density 18.920566000000001
#
# number of rings (size 3 to 8) (size 9 to 14) (size 15 to 20)
#    0.000    1.333    2.222    5.333    1.556    0.000 
#    0.000    0.000    2.444    0.000    0.000    0.000 
#    0.000    0.000    0.000    0.000    0.000    0.000 
#
# Total GULP energy -200869.883944 kJ/mol
# GULP energy per Si atom -5579.718998 kJ/mol
# Density = 1.887750 g / cm^3
# Si number density = 18.920566 Si / 1000 Ang^3
#
#
#
# Elastic Constant Matrix: (Units=GPa)
#
#
# Indices 1 2 3 4 5 6 
#
# 1 92.1345 42.4290 62.7085 0.0000 0.0000 0.0000
# 2 42.4290 96.2884 32.6235 -0.0002 0.0000 0.0000
# 3 62.7085 32.6235 129.2998 -0.0009 0.0001 0.0000
# 4 0.0000 -0.0002 -0.0009 12.2278 0.0001 0.0000
# 5 0.0000 0.0000 0.0001 0.0001 22.6750 0.0000
# 6 0.0000 0.0000 0.0000 0.0000 0.0000 31.6422
#
#
#
# Elastic Compliance Matrix: (Units=1/GPa)
#
#
# Indices 1 2 3 4 5 6 
#
# 1 0.018628 -0.005629 -0.007614 -0.000001 0.000000 0.000000
# 2 -0.005629 0.013057 -0.000565 0.000000 0.000000 0.000000
# 3 -0.007614 -0.000565 0.011569 0.000001 0.000000 0.000000
# 4 -0.000001 0.000000 0.000001 0.081781 0.000000 0.000000
# 5 0.000000 0.000000 0.000000 0.000000 0.044101 0.000000
# 6 0.000000 0.000000 0.000000 0.000000 0.000000 0.031603
#
#
# Mechanical properties :
#
#
# Convention : Reuss Voigt Hill
#
# Bulk Modulus (GPa) = 63.94089 65.91609 64.92849
# Shear Modulus (GPa) = 21.40704 25.30644 23.35674
#
# Velocity S-wave (km/s) = 3.36730 3.66117 3.51730
# Velocity P-wave (km/s) = 6.99900 7.26541 7.13345
#
# Compressibility (1/GPa) = 0.01563944
#
# Stress axis : x y z
#
# Youngs Moduli (GPa) = 53.68233 76.58734 86.43643
#
# Poissons Ratio (x) = 0.43108 0.65814
# Poissons Ratio (y) = 0.30216 0.04880
# Poissons Ratio (z) = 0.40875 0.04324
#
# Static dielectric constant tensor:
#      x y z
#    x 1.629850 0.000000 0.000000 
#    y 0.000000 1.662470 0.000000 
#    z 0.000000 0.000000 1.672920 
# 
# From -- ./inp_files/18959.got.cif
#   From: 2010.05.17/outbox.cif.g08.bks.cpg/sg72_10_cif.got.tgz:18959.got - 2010.06.03 17:03:01.
