data_PCOD9526662
_publ_section_title
;
Structure prediction by ZEFSAII (Michael W. Deem and Ramdas Pophale) SiO2 
 PCOD9526662
Probable space group: I B A M
;
_chemical_formula_sum "Si O2"
_cell_formula_units_Z 116
_cell_length_a 22.374317
_cell_length_b 31.990419
_cell_length_c 8.869839
_cell_angle_alpha 90.000000
_cell_angle_beta 90.000000
_cell_angle_gamma 90.000000
_cell_volume 6348.709452
_symmetry_space_group_name_H-M "I B A M"
_symmetry_group_IT_number 72
_symmetry_cell_setting 'orthorhombic'
loop_
_space_group_symop_operation_xyz
x,y,z
-x,-y,z
x,-y,1/2-z
-x,y,1/2-z
-x,-y,-z
x,y,-z
-x,y,1/2+z
x,-y,1/2+z
1/2+x,1/2+y,1/2+z
1/2-x,1/2-y,1/2+z
1/2+x,1/2-y,-z
1/2-x,1/2+y,-z
1/2-x,1/2-y,1/2-z
1/2+x,1/2+y,1/2-z
1/2-x,1/2+y,z
1/2+x,1/2-y,z
loop_
_atom_site_type_symbol
_atom_site_label
_atom_site_fract_x
_atom_site_fract_y
_atom_site_fract_z
Si Si1 0.565385 0.455508 0.180147
Si Si2 0.772723 0.543577 0.819081
Si Si3 0.500000 0.000000 0.750000
Si Si4 0.437618 0.840182 0.819126
Si Si5 0.097109 0.568249 0.326249
Si Si6 0.668306 0.212811 0.679109
Si Si7 0.704616 0.305576 0.680157
Si Si8 0.163348 0.103389 0.319589
O O1 0.585289 0.500000 0.250000
O O2 0.500000 0.447153 0.250000
O O3 0.611642 0.420252 0.230825
O O4 0.561511 0.458842 0.000000
O O5 0.751608 0.500000 0.750000
O O6 0.839720 0.553233 0.759264
O O7 0.726367 0.580503 0.785858
O O8 0.775064 0.538649 0.000000
O O9 0.453365 0.967516 0.824704
O O10 0.500000 0.825603 0.750000
O O11 0.425759 0.887838 0.761621
O O12 0.383403 0.811442 0.765600
O O13 0.441897 0.840283 0.000000
O O14 0.110988 0.577640 0.500000
O O15 0.661470 0.207147 0.500000
O O16 0.669873 0.262539 0.712177
O O17 0.732715 0.196108 0.732842
O O18 0.717422 0.306293 0.500000
O O19 0.669479 0.347773 0.716980
O O20 0.152930 0.099115 0.500000
#
# Coordination Sequence:
#
# PCOD9526662 Si02
#       8
#    16  16   4  16  16  16  16  16
#     4  11  22  38  60  85 115 150 190 229 273 333
#     4  10  20  34  51  75 108 146 185 226 273 323
#     4  12  18  36  56  74 108 148 200 240 278 324
#     4  11  22  38  57  80 109 145 188 234 286 337
#     4  10  21  35  53  76 107 149 193 235 283 330
#     4  10  20  36  59  87 113 143 187 232 280 341
#     4   9  19  37  61  85 113 148 183 227 282 337
#     4  10  20  36  58  83 114 149 185 230 286 336
#
# _framework density 18.271431
#
# number of rings (size 3 to 8) (size 9 to 14) (size 15 to 20)
#    0.000    1.793    1.379    3.931    0.000    4.966 
#    0.000    3.448    0.000    0.000    0.000    0.000 
#    0.000    0.000    0.000    0.000    0.000    0.000 
#
# Total GULP energy -323666.659291 kJ/mol
# GULP energy per Si atom -5580.459643 kJ/mol
# Density = 1.822984 g / cm^3
# Si number density = 18.271431 Si / 1000 Ang^3
#
#
#
# Elastic Constant Matrix: (Units=GPa)
#
#
# Indices 1 2 3 4 5 6 
#
# 1 83.4438 63.7508 42.4257 0.0000 0.0000 0.0000
# 2 63.7508 124.4647 51.4914 0.0000 0.0000 0.0000
# 3 42.4257 51.4914 64.0479 0.0000 0.0000 0.0000
# 4 0.0000 0.0000 0.0000 14.2699 0.0000 0.0000
# 5 0.0000 0.0000 0.0000 0.0000 29.3239 0.0000
# 6 0.0000 0.0000 0.0000 0.0000 0.0000 19.1575
#
#
#
# Elastic Compliance Matrix: (Units=1/GPa)
#
#
# Indices 1 2 3 4 5 6 
#
# 1 0.022340 -0.007972 -0.008389 0.000000 0.000000 0.000000
# 2 -0.007972 0.014883 -0.006685 0.000000 0.000000 0.000000
# 3 -0.008389 -0.006685 0.026544 0.000000 0.000000 0.000000
# 4 0.000000 0.000000 0.000000 0.070078 0.000000 0.000000
# 5 0.000000 0.000000 0.000000 0.000000 0.034102 0.000000
# 6 0.000000 0.000000 0.000000 0.000000 0.000000 0.052199
#
#
# Mechanical properties :
#
#
# Convention : Reuss Voigt Hill
#
# Bulk Modulus (GPa) = 56.57330 65.25468 60.91399
# Shear Modulus (GPa) = 18.37363 20.16949 19.27156
#
# Velocity S-wave (km/s) = 3.17455 3.32608 3.25120
# Velocity P-wave (km/s) = 6.66835 7.10929 6.89235
#
# Compressibility (1/GPa) = 0.01767618
#
# Stress axis : x y z
#
# Youngs Moduli (GPa) = 44.76293 67.19051 37.67274
#
# Poissons Ratio (x) = 0.53564 0.31604
# Poissons Ratio (y) = 0.35685 0.25183
# Poissons Ratio (z) = 0.37552 0.44914
#
# Static dielectric constant tensor:
#      x y z
#    x 1.619030 0.000000 0.000000 
#    y 0.000000 1.628990 0.000000 
#    z 0.000000 0.000000 1.626750 
# 
# From -- ./inp_files/7512.got.cif
#   From: 2010.05.17/outbox.cif.g08.bks.cpg/sg72_4_cif.got.tgz:7512.got - 2010.06.03 17:03:01.
