data_PCOD9526559
_publ_section_title
;
Structure prediction by ZEFSAII (Michael W. Deem and Ramdas Pophale) SiO2 
 PCOD9526559
Probable space group: I B A M
;
_chemical_formula_sum "Si O2"
_cell_formula_units_Z 112
_cell_length_a 12.068830
_cell_length_b 29.190899
_cell_length_c 14.446307
_cell_angle_alpha 90.000000
_cell_angle_beta 90.000000
_cell_angle_gamma 90.000000
_cell_volume 5089.433921
_symmetry_space_group_name_H-M "I B A M"
_symmetry_group_IT_number 72
_symmetry_cell_setting 'orthorhombic'
loop_
_space_group_symop_operation_xyz
x,y,z
-x,-y,z
x,-y,1/2-z
-x,y,1/2-z
-x,-y,-z
x,y,-z
-x,y,1/2+z
x,-y,1/2+z
1/2+x,1/2+y,1/2+z
1/2-x,1/2-y,1/2+z
1/2+x,1/2-y,-z
1/2-x,1/2+y,-z
1/2-x,1/2-y,1/2-z
1/2+x,1/2+y,1/2-z
1/2-x,1/2+y,z
1/2+x,1/2-y,z
loop_
_atom_site_type_symbol
_atom_site_label
_atom_site_fract_x
_atom_site_fract_y
_atom_site_fract_z
Si Si1 0.790104 0.683146 0.613761
Si Si2 0.762410 0.475211 0.835924
Si Si3 0.159488 0.432217 0.168338
Si Si4 0.744460 0.213747 0.887586
Si Si5 0.627910 0.374631 0.387816
Si Si6 0.033600 0.654852 0.388599
Si Si7 0.118342 0.892339 0.608030
O O1 0.790635 0.682354 0.500000
O O2 0.762408 0.734557 0.644100
O O3 0.699109 0.646759 0.647240
O O4 0.912141 0.668152 0.644703
O O5 0.698302 0.500000 0.750000
O O6 0.824276 0.518314 0.881758
O O7 0.850309 0.445685 0.776397
O O8 0.680754 0.440928 0.885646
O O9 0.275872 0.405909 0.154139
O O10 0.069000 0.396601 0.135814
O O11 0.842872 0.178131 0.865570
O O12 0.630104 0.189748 0.857201
O O13 0.740254 0.215920 0.000000
O O14 0.637130 0.379391 0.500000
O O15 0.506636 0.389986 0.356324
O O16 0.032403 0.657681 0.500000
O O17 0.106590 0.881120 0.500000
#
# Coordination Sequence:
#
# PCOD9526559 Si02
#       7
#    16  16  16  16  16  16  16
#     4   9  18  29  47  76 109 139 169 208 258 302
#     4   8  20  37  54  75  97 138 170 211 259 311
#     4   8  17  34  52  73  97 130 181 209 250 302
#     4   8  15  27  46  75 106 135 169 205 247 300
#     4   9  17  29  50  79 108 136 167 209 255 296
#     4   9  16  29  52  77 102 137 175 215 252 295
#     4  10  20  33  49  77 110 133 163 212 258 302
#
# _framework density 22.006375999999999
#
# number of rings (size 3 to 8) (size 9 to 14) (size 15 to 20)
#    0.857    2.286    0.000    1.286    2.000    2.286 
#    2.571    2.857    3.143    6.000    7.429    0.000 
#    0.000    0.000    0.000    0.000    0.000    0.000 
#
# Total GULP energy -312211.855797 kJ/mol
# GULP energy per Si atom -5575.211711 kJ/mol
# Density = 2.195629 g / cm^3
# Si number density = 22.006376 Si / 1000 Ang^3
#
#
#
# Elastic Constant Matrix: (Units=GPa)
#
#
# Indices 1 2 3 4 5 6 
#
# 1 98.6442 57.9940 24.6297 -0.0004 0.0001 0.0000
# 2 57.9940 162.6937 22.4097 -0.0001 0.0001 0.0000
# 3 24.6297 22.4097 52.0812 0.0005 0.0001 -0.0001
# 4 -0.0004 -0.0001 0.0005 3.7020 0.0001 0.0000
# 5 0.0001 0.0001 0.0001 0.0001 4.9485 0.0000
# 6 0.0000 0.0000 -0.0001 0.0000 0.0000 10.5569
#
#
#
# Elastic Compliance Matrix: (Units=1/GPa)
#
#
# Indices 1 2 3 4 5 6 
#
# 1 0.013828 -0.004282 -0.004697 0.000002 0.000000 0.000000
# 2 -0.004282 0.007860 -0.001357 0.000000 0.000000 0.000000
# 3 -0.004697 -0.001357 0.022006 -0.000004 0.000000 0.000000
# 4 0.000002 0.000000 -0.000004 0.270127 -0.000005 0.000001
# 5 0.000000 0.000000 0.000000 -0.000005 0.202082 0.000000
# 6 0.000000 0.000000 0.000000 0.000001 0.000000 0.094725
#
#
# Mechanical properties :
#
#
# Convention : Reuss Voigt Hill
#
# Bulk Modulus (GPa) = 43.43711 58.16510 50.80111
# Shear Modulus (GPa) = 7.82505 17.73384 12.77944
#
# Velocity S-wave (km/s) = 1.88773 2.84183 2.41242
# Velocity P-wave (km/s) = 4.95304 6.10380 5.55828
#
# Compressibility (1/GPa) = 0.02302179
#
# Stress axis : x y z
#
# Youngs Moduli (GPa) = 72.31907 127.22934 45.44269
#
# Poissons Ratio (x) = 0.54481 0.21343
# Poissons Ratio (y) = 0.30968 0.06166
# Poissons Ratio (z) = 0.33966 0.17264
#
# Static dielectric constant tensor:
#      x y z
#    x 1.771280 0.000000 0.000000 
#    y 0.000000 1.800480 0.000000 
#    z 0.000000 0.000000 1.895880 
# 
# From -- ./inp_files/37440.got.cif
#   From: 2010.05.17/outbox.cif.g08.bks.cpg/sg72_19_cif.got.tgz:37440.got - 2010.06.03 17:03:01.
