data_PCOD9526346
_publ_section_title
;
Structure prediction by ZEFSAII (Michael W. Deem and Ramdas Pophale) SiO2 
 PCOD9526346
Probable space group: I B A M
;
_chemical_formula_sum "Si O2"
_cell_formula_units_Z 96
_cell_length_a 28.923450
_cell_length_b 20.414407
_cell_length_c 8.866720
_cell_angle_alpha 90.000000
_cell_angle_beta 90.000000
_cell_angle_gamma 90.000000
_cell_volume 5235.399868
_symmetry_space_group_name_H-M "I B A M"
_symmetry_group_IT_number 72
_symmetry_cell_setting 'orthorhombic'
loop_
_space_group_symop_operation_xyz
x,y,z
-x,-y,z
x,-y,1/2-z
-x,y,1/2-z
-x,-y,-z
x,y,-z
-x,y,1/2+z
x,-y,1/2+z
1/2+x,1/2+y,1/2+z
1/2-x,1/2-y,1/2+z
1/2+x,1/2-y,-z
1/2-x,1/2+y,-z
1/2-x,1/2-y,1/2-z
1/2+x,1/2+y,1/2-z
1/2-x,1/2+y,z
1/2+x,1/2-y,z
loop_
_atom_site_type_symbol
_atom_site_label
_atom_site_fract_x
_atom_site_fract_y
_atom_site_fract_z
Si Si1 0.090436 0.313992 0.172758
Si Si2 0.629377 0.572719 0.181270
Si Si3 0.948516 0.168060 0.318878
Si Si4 0.949677 0.437127 0.824098
Si Si5 0.286314 0.652292 0.179762
Si Si6 0.199682 0.695636 0.326017
O O1 0.071849 0.241240 0.207168
O O2 0.072415 0.368044 0.285973
O O3 0.145647 0.318392 0.178086
O O4 0.075472 0.329198 0.000000
O O5 0.626100 0.500000 0.250000
O O6 0.587206 0.616892 0.244890
O O7 0.677423 0.605790 0.236806
O O8 0.627841 0.570709 0.000000
O O9 0.949960 0.157978 0.500000
O O10 0.000000 0.162862 0.250000
O O11 0.924942 0.500000 0.750000
O O12 0.000000 0.433911 0.750000
O O13 0.953318 0.448121 0.000000
O O14 0.232747 0.648813 0.229252
O O15 0.297259 0.728039 0.221021
O O16 0.291815 0.644373 0.000000
O O17 0.215789 0.691960 0.500000
#
# Coordination Sequence:
#
# PCOD9526346 Si02
#       6
#    16  16  16  16  16  16
#     4  10  20  37  60  88 123 157 194 243 295 349
#     4  12  25  42  64  88 119 161 205 254 309 368
#     4  11  23  41  62  90 123 158 202 254 306 361
#     4  11  22  37  57  81 112 152 197 239 290 350
#     4  10  19  36  59  88 119 152 193 240 289 347
#     4   9  18  34  58  88 120 154 189 236 288 344
#
# _framework density 18.336708000000002
#
# number of rings (size 3 to 8) (size 9 to 14) (size 15 to 20)
#    0.000    1.500    1.667    5.000    0.000    4.333 
#    0.000    2.500    0.000    4.000    0.000    0.000 
#    0.000    0.000    0.000    0.000    0.000    0.000 
#
# Total GULP energy -267915.053386 kJ/mol
# GULP energy per Si atom -5581.563612 kJ/mol
# Density = 1.829497 g / cm^3
# Si number density = 18.336708 Si / 1000 Ang^3
#
#
#
# Elastic Constant Matrix: (Units=GPa)
#
#
# Indices 1 2 3 4 5 6 
#
# 1 95.8600 54.9229 58.3499 0.0000 0.0000 0.0000
# 2 54.9229 113.4449 82.2105 0.0000 0.0000 0.0000
# 3 58.3499 82.2105 142.3049 0.0000 0.0000 0.0000
# 4 0.0000 0.0000 0.0000 -6.8953 0.0000 0.0000
# 5 0.0000 0.0000 0.0000 0.0000 30.1167 0.0000
# 6 0.0000 0.0000 0.0000 0.0000 0.0000 16.7850
#
#
#
# Elastic Compliance Matrix: (Units=1/GPa)
#
#
# Indices 1 2 3 4 5 6 
#
# 1 0.015358 -0.004940 -0.003444 0.000000 0.000000 0.000000
# 2 -0.004940 0.016752 -0.007652 0.000000 0.000000 0.000000
# 3 -0.003444 -0.007652 0.012860 0.000000 0.000000 0.000000
# 4 0.000000 0.000000 0.000000 -0.145026 0.000000 0.000000
# 5 0.000000 0.000000 0.000000 0.000000 0.033204 0.000000
# 6 0.000000 0.000000 0.000000 0.000000 0.000000 0.059577
#
#
# Mechanical properties :
#
#
# Convention : Reuss Voigt Hill
#
# Bulk Modulus (GPa) = 77.52779 82.50849 80.01814
# Shear Modulus (GPa) = 171.84859 18.40972 95.12915
#
# Velocity S-wave (km/s) = 9.69133 3.17200 7.21053
# Velocity P-wave (km/s) = 12.94608 7.64915 10.63274
#
# Compressibility (1/GPa) = 0.01289860
#
# Stress axis : x y z
#
# Youngs Moduli (GPa) = 65.11094 59.69528 77.76224
#
# Poissons Ratio (x) = 0.29490 0.26777
# Poissons Ratio (y) = 0.32166 0.59503
# Poissons Ratio (z) = 0.22421 0.45679
#
# Static dielectric constant tensor:
#      x y z
#    x 1.654050 0.000000 0.000000 
#    y 0.000000 1.641870 0.000000 
#    z 0.000000 0.000000 1.638690 
# 
# From -- ./inp_files/8065.got.cif
#   From: 2010.05.17/outbox.cif.g08.bks.cpg/sg72_5_cif.got.tgz:8065.got - 2010.06.03 17:03:01.
