data_PCOD9526836
_publ_section_title
;
Structure prediction by ZEFSAII (Michael W. Deem and Ramdas Pophale) SiO2 
 PCOD9526836
Probable space group: I B A M
;
_chemical_formula_sum "Si O2"
_cell_formula_units_Z 116
_cell_length_a 15.689933
_cell_length_b 21.427845
_cell_length_c 18.157429
_cell_angle_alpha 90.000000
_cell_angle_beta 90.000000
_cell_angle_gamma 90.000000
_cell_volume 6104.554001
_symmetry_space_group_name_H-M "I B A M"
_symmetry_group_IT_number 72
_symmetry_cell_setting 'orthorhombic'
loop_
_space_group_symop_operation_xyz
x,y,z
-x,-y,z
x,-y,1/2-z
-x,y,1/2-z
-x,-y,-z
x,y,-z
-x,y,1/2+z
x,-y,1/2+z
1/2+x,1/2+y,1/2+z
1/2-x,1/2-y,1/2+z
1/2+x,1/2-y,-z
1/2-x,1/2+y,-z
1/2-x,1/2-y,1/2-z
1/2+x,1/2+y,1/2-z
1/2-x,1/2+y,z
1/2+x,1/2-y,z
loop_
_atom_site_type_symbol
_atom_site_label
_atom_site_fract_x
_atom_site_fract_y
_atom_site_fract_z
Si Si1 0.969564 0.163739 0.581835
Si Si2 0.706223 0.903713 0.087597
Si Si3 0.000000 0.000000 0.750000
Si Si4 0.598668 0.071107 0.727165
Si Si5 0.737293 0.844670 0.696448
Si Si6 0.138011 0.100951 0.414824
Si Si7 0.884558 0.961119 0.877910
Si Si8 0.194044 0.792907 0.653447
O O1 0.973252 0.190750 0.500000
O O2 0.926520 0.095175 0.577877
O O3 0.904102 0.201606 0.630633
O O4 0.064690 0.149971 0.607924
O O5 0.626051 0.916638 0.141609
O O6 0.783888 0.946674 0.118999
O O7 0.744707 0.833887 0.100240
O O8 0.693379 0.914648 0.000000
O O9 0.935132 0.960539 0.800513
O O10 0.500000 0.079179 0.750000
O O11 0.654785 0.120501 0.772536
O O12 0.621638 0.000000 0.750000
O O13 0.785485 0.889880 0.640900
O O14 0.793141 0.825791 0.767557
O O15 0.718856 0.778958 0.657507
O O16 0.160086 0.111981 0.500000
O O17 0.103308 0.030601 0.407979
#
# Coordination Sequence:
#
# PCOD9526836 Si02
#       8
#    16  16   4  16  16  16  16  16
#     4  10  20  35  54  80 118 159 190 229 285 355
#     4  10  21  38  65  89 119 166 208 250 308 375
#     4  12  24  28  50  92 126 164 186 236 282 360
#     4  10  22  42  66  91 120 155 207 268 321 368
#     4  10  22  39  58  84 113 149 198 252 307 353
#     4  11  22  34  53  84 120 152 188 238 296 355
#     4  11  21  32  53  86 125 156 196 233 290 358
#     4   9  20  38  57  81 111 154 199 243 288 362
#
# _framework density 19.002206000000001
#
# number of rings (size 3 to 8) (size 9 to 14) (size 15 to 20)
#    0.000    1.793    1.379    3.310    6.759    2.759 
#    7.448    2.069    0.000    0.000    0.000    0.000 
#    0.000    0.000    0.000    0.000    0.000    0.000 
#
# Total GULP energy -323407.636510 kJ/mol
# GULP energy per Si atom -5575.993733 kJ/mol
# Density = 1.895896 g / cm^3
# Si number density = 19.002206 Si / 1000 Ang^3
#
#
#
# Elastic Constant Matrix: (Units=GPa)
#
#
# Indices 1 2 3 4 5 6 
#
# 1 85.7475 7.7413 53.1040 0.0000 0.0000 0.0000
# 2 7.7413 48.1486 20.6362 0.0000 0.0000 0.0000
# 3 53.1040 20.6362 95.5645 0.0000 0.0000 0.0000
# 4 0.0000 0.0000 0.0000 14.8641 0.0000 0.0000
# 5 0.0000 0.0000 0.0000 0.0000 -5.9989 0.0000
# 6 0.0000 0.0000 0.0000 0.0000 0.0000 16.7587
#
#
#
# Elastic Compliance Matrix: (Units=1/GPa)
#
#
# Indices 1 2 3 4 5 6 
#
# 1 0.017883 0.001525 -0.010266 0.000000 0.000000 0.000000
# 2 0.001525 0.023017 -0.005818 0.000000 0.000000 0.000000
# 3 -0.010266 -0.005818 0.017425 0.000000 0.000000 0.000000
# 4 0.000000 0.000000 0.000000 0.067276 0.000000 0.000000
# 5 0.000000 0.000000 0.000000 0.000000 -0.166699 0.000000
# 6 0.000000 0.000000 0.000000 0.000000 0.000000 0.059670
#
#
# Mechanical properties :
#
#
# Convention : Reuss Voigt Hill
#
# Bulk Modulus (GPa) = 34.23862 43.60262 38.92062
# Shear Modulus (GPa) = 87.06653 14.99006 51.02830
#
# Velocity S-wave (km/s) = 6.77633 2.81171 5.18769
# Velocity P-wave (km/s) = 8.90406 5.79110 7.51063
#
# Compressibility (1/GPa) = 0.02920678
#
# Stress axis : x y z
#
# Youngs Moduli (GPa) = 55.92053 43.44559 57.38776
#
# Poissons Ratio (x) = -0.06625 0.58917
# Poissons Ratio (y) = -0.08528 0.33387
# Poissons Ratio (z) = 0.57410 0.25276
#
# Static dielectric constant tensor:
#      x y z
#    x 1.675400 0.000000 0.000000 
#    y 0.000000 1.659260 0.000000 
#    z 0.000000 0.000000 1.699800 
# 
# From -- ./inp_files/30885.got.cif
#   From: 2010.05.17/outbox.cif.g08.bks.cpg/sg72_16_cif.got.tgz:30885.got - 2010.06.03 17:03:01.
