data_PCOD9526880
_publ_section_title
;
Structure prediction by ZEFSAII (Michael W. Deem and Ramdas Pophale) SiO2 
 PCOD9526880
Probable space group: I B A M
;
_chemical_formula_sum "Si O2"
_cell_formula_units_Z 116
_cell_length_a 31.898603
_cell_length_b 22.438364
_cell_length_c 8.965153
_cell_angle_alpha 90.000000
_cell_angle_beta 90.000000
_cell_angle_gamma 90.000000
_cell_volume 6416.830361
_symmetry_space_group_name_H-M "I B A M"
_symmetry_group_IT_number 72
_symmetry_cell_setting 'orthorhombic'
loop_
_space_group_symop_operation_xyz
x,y,z
-x,-y,z
x,-y,1/2-z
-x,y,1/2-z
-x,-y,-z
x,y,-z
-x,y,1/2+z
x,-y,1/2+z
1/2+x,1/2+y,1/2+z
1/2-x,1/2-y,1/2+z
1/2+x,1/2-y,-z
1/2-x,1/2+y,-z
1/2-x,1/2-y,1/2-z
1/2+x,1/2+y,1/2-z
1/2-x,1/2+y,z
1/2+x,1/2-y,z
loop_
_atom_site_type_symbol
_atom_site_label
_atom_site_fract_x
_atom_site_fract_y
_atom_site_fract_z
Si Si1 0.655955 0.561448 0.178080
Si Si2 0.305493 0.200901 0.679125
Si Si3 0.500000 0.500000 0.750000
Si Si4 0.930295 0.093552 0.329611
Si Si5 0.456164 0.726281 0.178311
Si Si6 0.397128 0.163429 0.320409
Si Si7 0.955266 0.435209 0.179256
Si Si8 0.212644 0.172612 0.320436
O O1 0.670715 0.500000 0.250000
O O2 0.608293 0.572306 0.230070
O O3 0.684846 0.616655 0.226907
O O4 0.657206 0.557045 0.000000
O O5 0.305881 0.207933 0.500000
O O6 0.348275 0.167930 0.720026
O O7 0.261904 0.168713 0.720418
O O8 0.304127 0.266220 0.751069
O O9 0.468008 0.545808 0.829222
O O10 0.915241 0.100014 0.500000
O O11 0.945410 0.158582 0.275472
O O12 0.500000 0.745006 0.250000
O O13 0.419856 0.773552 0.213752
O O14 0.461209 0.725457 0.000000
O O15 0.400855 0.153775 0.500000
O O16 0.420979 0.111980 0.232447
O O17 0.946095 0.500000 0.250000
O O18 0.000000 0.416683 0.250000
O O19 0.958274 0.438839 0.000000
O O20 0.210168 0.176752 0.500000
#
# Coordination Sequence:
#
# PCOD9526880 Si02
#       8
#    16  16   4  16  16  16  16  16
#     4  11  23  37  55  79 108 141 182 228 276 326
#     4   9  18  35  60  84 111 145 180 224 276 331
#     4  12  22  36  60  78 110 148 196 240 274 324
#     4  11  23  38  56  79 109 147 194 235 279 326
#     4  10  21  35  51  76 109 146 185 227 273 322
#     4  10  20  35  56  83 115 148 184 227 279 330
#     4  11  22  38  60  84 113 148 187 226 270 328
#     4   9  19  36  57  83 111 142 182 228 277 330
#
# _framework density 18.077462000000001
#
# number of rings (size 3 to 8) (size 9 to 14) (size 15 to 20)
#    0.000    1.793    1.379    3.517    0.000    5.517 
#    0.000    0.690    0.000    1.655    0.000    0.000 
#    0.000    0.000    0.000    0.000    0.000    0.000 
#
# Total GULP energy -323769.607903 kJ/mol
# GULP energy per Si atom -5582.234619 kJ/mol
# Density = 1.803632 g / cm^3
# Si number density = 18.077462 Si / 1000 Ang^3
#
#
#
# Elastic Constant Matrix: (Units=GPa)
#
#
# Indices 1 2 3 4 5 6 
#
# 1 133.1564 79.4585 44.8597 0.0000 0.0000 0.0000
# 2 79.4585 91.0819 37.6817 0.0000 0.0000 0.0000
# 3 44.8597 37.6817 52.7268 0.0000 0.0000 0.0000
# 4 0.0000 0.0000 0.0000 28.2089 0.0000 0.0000
# 5 0.0000 0.0000 0.0000 0.0000 17.7394 0.0000
# 6 0.0000 0.0000 0.0000 0.0000 0.0000 23.7937
#
#
#
# Elastic Compliance Matrix: (Units=1/GPa)
#
#
# Indices 1 2 3 4 5 6 
#
# 1 0.016675 -0.012321 -0.005382 0.000000 0.000000 0.000000
# 2 -0.012321 0.024691 -0.007163 0.000000 0.000000 0.000000
# 3 -0.005382 -0.007163 0.028664 0.000000 0.000000 0.000000
# 4 0.000000 0.000000 0.000000 0.035450 0.000000 0.000000
# 5 0.000000 0.000000 0.000000 0.000000 0.056372 0.000000
# 6 0.000000 0.000000 0.000000 0.000000 0.000000 0.042028
#
#
# Mechanical properties :
#
#
# Convention : Reuss Voigt Hill
#
# Bulk Modulus (GPa) = 49.26556 66.77385 58.01970
# Shear Modulus (GPa) = 19.20284 21.61275 20.40779
#
# Velocity S-wave (km/s) = 3.26276 3.46144 3.36357
# Velocity P-wave (km/s) = 6.44250 7.27965 6.87383
#
# Compressibility (1/GPa) = 0.02029816
#
# Stress axis : x y z
#
# Youngs Moduli (GPa) = 59.96910 40.50061 34.88670
#
# Poissons Ratio (x) = 0.49899 0.18777
# Poissons Ratio (y) = 0.73885 0.24991
# Poissons Ratio (z) = 0.32277 0.29012
#
# Static dielectric constant tensor:
#      x y z
#    x 1.614670 0.000000 0.000000 
#    y 0.000000 1.613060 0.000000 
#    z 0.000000 0.000000 1.614010 
# 
# From -- ./inp_files/9366.got.cif
#   From: 2010.05.17/outbox.cif.g08.bks.cpg/sg72_5_cif.got.tgz:9366.got - 2010.06.03 17:03:01.
