data_PCOD9526067
_publ_section_title
;
Structure prediction by ZEFSAII (Michael W. Deem and Ramdas Pophale) SiO2 
 PCOD9526067
Probable space group: I B A M
;
_chemical_formula_sum "Si O2"
_cell_formula_units_Z 96
_cell_length_a 22.504124
_cell_length_b 12.714335
_cell_length_c 14.883648
_cell_angle_alpha 90.000000
_cell_angle_beta 90.000000
_cell_angle_gamma 90.000000
_cell_volume 4258.583359
_symmetry_space_group_name_H-M "I B A M"
_symmetry_group_IT_number 72
_symmetry_cell_setting 'orthorhombic'
loop_
_space_group_symop_operation_xyz
x,y,z
-x,-y,z
x,-y,1/2-z
-x,y,1/2-z
-x,-y,-z
x,y,-z
-x,y,1/2+z
x,-y,1/2+z
1/2+x,1/2+y,1/2+z
1/2-x,1/2-y,1/2+z
1/2+x,1/2-y,-z
1/2-x,1/2+y,-z
1/2-x,1/2-y,1/2-z
1/2+x,1/2+y,1/2-z
1/2-x,1/2+y,z
1/2+x,1/2-y,z
loop_
_atom_site_type_symbol
_atom_site_label
_atom_site_fract_x
_atom_site_fract_y
_atom_site_fract_z
Si Si1 0.284649 0.969506 0.144617
Si Si2 0.047321 0.087402 0.608082
Si Si3 0.343773 0.545350 0.896754
Si Si4 0.895542 0.585365 0.331177
Si Si5 0.137162 0.723008 0.670754
Si Si6 0.004863 0.314098 0.854505
O O1 0.308716 0.850411 0.137383
O O2 0.277896 0.000000 0.250000
O O3 0.222129 0.998643 0.103371
O O4 0.340036 0.040990 0.113891
O O5 0.048788 0.093567 0.500000
O O6 0.022243 0.198253 0.638113
O O7 0.110942 0.043655 0.638001
O O8 0.000000 0.000000 0.635681
O O9 0.349867 0.654776 0.843546
O O10 0.361041 0.570758 0.000000
O O11 0.905534 0.500000 0.250000
O O12 0.873974 0.687936 0.274417
O O13 0.953901 0.607762 0.389831
O O14 0.074338 0.691870 0.621950
O O15 0.000000 0.343292 0.750000
#
# Coordination Sequence:
#
# PCOD9526067 Si02
#       6
#    16  16  16  16  16  16
#     4   9  21  38  58  81 114 150 186 233 282 337
#     4  10  21  38  55  78 114 151 184 231 288 331
#     4  11  23  38  57  80 113 153 191 236 283 335
#     4   8  18  36  58  86 117 143 179 234 288 333
#     4   9  19  35  55  81 108 148 184 223 288 338
#     4  10  19  33  60  91 112 144 188 234 276 339
#
# _framework density 22.542708000000001
#
# number of rings (size 3 to 8) (size 9 to 14) (size 15 to 20)
#    0.000    2.833    1.667    0.000    0.000   16.000 
#    0.000    2.500    0.000    1.000    0.000   16.333 
#    0.000    0.000    0.000    0.000    0.000    0.000 
#
# Total GULP energy -267664.364779 kJ/mol
# GULP energy per Si atom -5576.340933 kJ/mol
# Density = 2.249140 g / cm^3
# Si number density = 22.542708 Si / 1000 Ang^3
#
#
#
# Elastic Constant Matrix: (Units=GPa)
#
#
# Indices 1 2 3 4 5 6 
#
# 1 156.2194 39.7059 -2.3087 0.0000 0.0000 0.0000
# 2 39.7059 53.5139 8.3240 0.0000 0.0000 0.0000
# 3 -2.3087 8.3240 44.1956 0.0000 0.0000 0.0000
# 4 0.0000 0.0000 0.0000 136.1227 0.0000 0.0000
# 5 0.0000 0.0000 0.0000 0.0000 13.0305 0.0000
# 6 0.0000 0.0000 0.0000 0.0000 0.0000-4142.1865
#
#
#
# Elastic Compliance Matrix: (Units=1/GPa)
#
#
# Indices 1 2 3 4 5 6 
#
# 1 0.007995 -0.006178 0.001581 0.000000 0.000000 0.000000
# 2 -0.006178 0.024025 -0.004848 0.000000 0.000000 0.000000
# 3 0.001581 -0.004848 0.023622 0.000000 0.000000 0.000000
# 4 0.000000 0.000000 0.000000 0.007346 0.000000 0.000000
# 5 0.000000 0.000000 0.000000 0.000000 0.076743 0.000000
# 6 0.000000 0.000000 0.000000 0.000000 0.000000 -0.000241
#
#
# Mechanical properties :
#
#
# Convention : Reuss Voigt Hill
#
# Bulk Modulus (GPa) = 27.20859 38.37459 32.79159
# Shear Modulus (GPa) = 29.30327 -784.72615 -377.71144
#
# Velocity S-wave (km/s) = 3.60932 -18.67785 -12.95830
# Velocity P-wave (km/s) = 5.42823 21.16812 14.46762
#
# Compressibility (1/GPa) = 0.03675309
#
# Stress axis : x y z
#
# Youngs Moduli (GPa) = 125.08055 41.62395 42.33288
#
# Poissons Ratio (x) = 0.25715 -0.06694
# Poissons Ratio (y) = 0.77274 0.20521
# Poissons Ratio (z) = -0.19778 0.20178
#
# Static dielectric constant tensor:
#      x y z
#    x 1.926980 0.000000 0.000000 
#    y 0.000000 1.855700 0.000000 
#    z 0.000000 0.000000 1.886520 
# 
# From -- ./inp_files/40288.got.cif
#   From: 2010.05.17/outbox.cif.g08.bks.cpg/sg72_21_cif.got.tgz:40288.got - 2010.06.03 17:03:01.
