data_PCOD9526402
_publ_section_title
;
Structure prediction by ZEFSAII (Michael W. Deem and Ramdas Pophale) SiO2 
 PCOD9526402
Probable space group: I B A M
;
_chemical_formula_sum "Si O2"
_cell_formula_units_Z 96
_cell_length_a 25.205713
_cell_length_b 9.888475
_cell_length_c 17.952721
_cell_angle_alpha 90.000000
_cell_angle_beta 90.000000
_cell_angle_gamma 90.000000
_cell_volume 4474.645027
_symmetry_space_group_name_H-M "I B A M"
_symmetry_group_IT_number 72
_symmetry_cell_setting 'orthorhombic'
loop_
_space_group_symop_operation_xyz
x,y,z
-x,-y,z
x,-y,1/2-z
-x,y,1/2-z
-x,-y,-z
x,y,-z
-x,y,1/2+z
x,-y,1/2+z
1/2+x,1/2+y,1/2+z
1/2-x,1/2-y,1/2+z
1/2+x,1/2-y,-z
1/2-x,1/2+y,-z
1/2-x,1/2-y,1/2-z
1/2+x,1/2+y,1/2-z
1/2-x,1/2+y,z
1/2+x,1/2-y,z
loop_
_atom_site_type_symbol
_atom_site_label
_atom_site_fract_x
_atom_site_fract_y
_atom_site_fract_z
Si Si1 0.583998 0.232081 0.911132
Si Si2 0.535984 0.224698 0.588965
Si Si3 0.240488 0.695676 0.911082
Si Si4 0.205638 0.962413 0.834126
Si Si5 0.416768 0.521686 0.665649
Si Si6 0.867328 0.463715 0.909500
O O1 0.524056 0.178106 0.897632
O O2 0.586309 0.377155 0.873703
O O3 0.625017 0.118091 0.883926
O O4 0.590566 0.249084 0.000000
O O5 0.541985 0.238541 0.500000
O O6 0.546539 0.370450 0.624763
O O7 0.581790 0.123178 0.615334
O O8 0.237823 0.838252 0.869311
O O9 0.286480 0.595778 0.884273
O O10 0.186835 0.612410 0.890973
O O11 0.242334 0.717790 0.000000
O O12 0.221603 0.000000 0.750000
O O13 0.143679 0.923239 0.833587
O O14 0.434160 0.500000 0.750000
O O15 0.868957 0.468654 0.000000
#
# Coordination Sequence:
#
# PCOD9526402 Si02
#       6
#    16  16  16  16  16  16
#     4  10  21  36  61  92 119 157 204 253 305 361
#     4  10  19  37  62  87 120 160 202 251 307 361
#     4  11  23  41  67  97 124 160 209 264 311 364
#     4  11  25  44  64  89 127 168 206 252 319 383
#     4  11  24  40  59  85 123 165 204 247 303 362
#     4   9  19  37  60  90 123 153 194 250 308 361
#
# _framework density 21.454215000000001
#
# number of rings (size 3 to 8) (size 9 to 14) (size 15 to 20)
#    0.000    1.667    1.667    2.500    2.333    6.667 
#    0.000    0.833    0.000    2.000    0.000    0.000 
#    0.000    0.000    0.000    0.000    0.000    0.000 
#
# Total GULP energy -268380.180845 kJ/mol
# GULP energy per Si atom -5591.253768 kJ/mol
# Density = 2.140538 g / cm^3
# Si number density = 21.454215 Si / 1000 Ang^3
#
#
#
# Elastic Constant Matrix: (Units=GPa)
#
#
# Indices 1 2 3 4 5 6 
#
# 1 48.1351 12.0310 31.7974 0.0000 0.0000 0.0000
# 2 12.0310 115.9666 34.0421 0.0000 0.0000 0.0000
# 3 31.7974 34.0421 49.2107 0.0000 0.0000 0.0000
# 4 0.0000 0.0000 0.0000 -0.8957 0.0000 0.0000
# 5 0.0000 0.0000 0.0000 0.0000 31.2714 0.0000
# 6 0.0000 0.0000 0.0000 0.0000 0.0000 39.0866
#
#
#
# Elastic Compliance Matrix: (Units=1/GPa)
#
#
# Indices 1 2 3 4 5 6 
#
# 1 0.037715 0.004067 -0.027182 0.000000 0.000000 0.000000
# 2 0.004067 0.011259 -0.010416 0.000000 0.000000 0.000000
# 3 -0.027182 -0.010416 0.045090 0.000000 0.000000 0.000000
# 4 0.000000 0.000000 0.000000 -1.116413 0.000000 0.000000
# 5 0.000000 0.000000 0.000000 0.000000 0.031978 0.000000
# 6 0.000000 0.000000 0.000000 0.000000 0.000000 0.025584
#
#
# Mechanical properties :
#
#
# Convention : Reuss Voigt Hill
#
# Bulk Modulus (GPa) = 37.03710 41.00593 39.02152
# Shear Modulus (GPa) = -5.62605 22.92193 8.64794
#
# Velocity S-wave (km/s) = -1.62112 3.27220 2.00988
# Velocity P-wave (km/s) = 3.71440 5.78197 4.85942
#
# Compressibility (1/GPa) = 0.02699995
#
# Stress axis : x y z
#
# Youngs Moduli (GPa) = 26.51482 88.81821 22.17779
#
# Poissons Ratio (x) = -0.36120 0.60285
# Poissons Ratio (y) = -0.10783 0.23101
# Poissons Ratio (z) = 0.72074 0.92515
#
# Static dielectric constant tensor:
#      x y z
#    x 1.825960 0.000000 0.000000 
#    y 0.000000 1.760780 0.000000 
#    z 0.000000 0.000000 1.743100 
# 
# From -- ./inp_files/40704.got.cif
#   From: 2010.05.17/outbox.cif.g08.bks.cpg/sg72_21_cif.got.tgz:40704.got - 2010.06.03 17:03:01.
