data_PCOD9526477
_publ_section_title
;
Structure prediction by ZEFSAII (Michael W. Deem and Ramdas Pophale) SiO2 
 PCOD9526477
Probable space group: I B A M
;
_chemical_formula_sum "Si O2"
_cell_formula_units_Z 116
_cell_length_a 8.727771
_cell_length_b 29.125925
_cell_length_c 23.171616
_cell_angle_alpha 90.000000
_cell_angle_beta 90.000000
_cell_angle_gamma 90.000000
_cell_volume 5890.326825
_symmetry_space_group_name_H-M "I B A M"
_symmetry_group_IT_number 72
_symmetry_cell_setting 'orthorhombic'
loop_
_space_group_symop_operation_xyz
x,y,z
-x,-y,z
x,-y,1/2-z
-x,y,1/2-z
-x,-y,-z
x,y,-z
-x,y,1/2+z
x,-y,1/2+z
1/2+x,1/2+y,1/2+z
1/2-x,1/2-y,1/2+z
1/2+x,1/2-y,-z
1/2-x,1/2+y,-z
1/2-x,1/2-y,1/2-z
1/2+x,1/2+y,1/2-z
1/2-x,1/2+y,z
1/2+x,1/2-y,z
loop_
_atom_site_type_symbol
_atom_site_label
_atom_site_fract_x
_atom_site_fract_y
_atom_site_fract_z
Si Si1 0.629094 0.625393 0.568509
Si Si2 0.638052 0.717341 0.714519
Si Si3 0.507857 0.553573 0.656548
Si Si4 0.585275 0.285377 0.434168
Si Si5 0.000000 0.500000 0.750000
Si Si6 0.139535 0.641544 0.835259
Si Si7 0.587758 0.209902 0.877670
Si Si8 0.755549 0.570205 0.756595
O O1 0.647353 0.618581 0.500000
O O2 0.535802 0.585550 0.601384
O O3 0.540466 0.674403 0.576267
O O4 0.786912 0.623785 0.604964
O O5 0.500000 0.694208 0.750000
O O6 0.750000 0.750000 0.750000
O O7 0.744964 0.682161 0.682113
O O8 0.558671 0.752167 0.671199
O O9 0.500000 0.500000 0.640355
O O10 0.645874 0.553382 0.703862
O O11 0.363941 0.575632 0.691290
O O12 0.637620 0.291014 0.500000
O O13 0.512423 0.234411 0.427494
O O14 0.734741 0.291261 0.394440
O O15 0.118806 0.465716 0.780161
O O16 0.154435 0.609524 0.778985
O O17 0.976438 0.662728 0.852039
#
# Coordination Sequence:
#
# PCOD9526477 Si02
#       8
#    16  16  16  16   4  16  16  16
#     4  10  23  40  62  91 118 155 207 257 305 357
#     4  12  23  36  54  81 120 155 200 247 294 359
#     4  10  19  41  65  89 121 152 191 240 306 381
#     4  11  22  38  60  84 116 160 214 263 294 342
#     4  12  20  38  60  92 130 146 196 240 292 388
#     4  11  24  39  59  87 124 165 200 250 309 362
#     4  12  22  40  56  85 118 167 210 243 306 352
#     4  10  22  36  61  94 121 157 190 236 307 366
#
# _framework density 19.693304999999999
#
# number of rings (size 3 to 8) (size 9 to 14) (size 15 to 20)
#    0.000    1.103    5.517    0.828    3.862    4.690 
#    0.000    0.000    0.000    0.000    0.000    2.414 
#    0.000    0.000    0.000    0.000    0.000    0.000 
#
# Total GULP energy -323144.623122 kJ/mol
# GULP energy per Si atom -5571.459019 kJ/mol
# Density = 1.964848 g / cm^3
# Si number density = 19.693305 Si / 1000 Ang^3
#
#
#
# Elastic Constant Matrix: (Units=GPa)
#
#
# Indices 1 2 3 4 5 6 
#
# 1 76.1246 5.1832 17.3650 0.0000 0.0000 0.0000
# 2 5.1832 66.9293 27.2910 0.0000 0.0000 0.0000
# 3 17.3650 27.2910 88.9551 0.0000 0.0000 0.0000
# 4 0.0000 0.0000 0.0000 14.7314 0.0000 0.0000
# 5 0.0000 0.0000 0.0000 0.0000 22.9592 0.0000
# 6 0.0000 0.0000 0.0000 0.0000 0.0000 29.6238
#
#
#
# Elastic Compliance Matrix: (Units=1/GPa)
#
#
# Indices 1 2 3 4 5 6 
#
# 1 0.013749 0.000034 -0.002694 0.000000 0.000000 0.000000
# 2 0.000034 0.017078 -0.005246 0.000000 0.000000 0.000000
# 3 -0.002694 -0.005246 0.013377 0.000000 0.000000 0.000000
# 4 0.000000 0.000000 0.000000 0.067882 0.000000 0.000000
# 5 0.000000 0.000000 0.000000 0.000000 0.043555 0.000000
# 6 0.000000 0.000000 0.000000 0.000000 0.000000 0.033757
#
#
# Mechanical properties :
#
#
# Convention : Reuss Voigt Hill
#
# Bulk Modulus (GPa) = 35.22293 36.85414 36.03854
# Shear Modulus (GPa) = 23.29118 25.60756 24.44937
#
# Velocity S-wave (km/s) = 3.44276 3.60990 3.52732
# Velocity P-wave (km/s) = 5.80759 6.01081 5.91007
#
# Compressibility (1/GPa) = 0.02839059
#
# Stress axis : x y z
#
# Youngs Moduli (GPa) = 72.73438 58.55628 74.75519
#
# Poissons Ratio (x) = -0.00198 0.20141
# Poissons Ratio (y) = -0.00246 0.39216
# Poissons Ratio (z) = 0.19597 0.30718
#
# Static dielectric constant tensor:
#      x y z
#    x 1.683360 0.000000 0.000000 
#    y 0.000000 1.781060 0.000000 
#    z 0.000000 0.000000 1.507700 
# 
# From -- ./inp_files/42698.got.cif
#   From: 2010.05.17/outbox.cif.g08.bks.cpg/sg72_22_cif.got.tgz:42698.got - 2010.06.03 17:03:01.
