data_PCOD9526482
_publ_section_title
;
Structure prediction by ZEFSAII (Michael W. Deem and Ramdas Pophale) SiO2 
 PCOD9526482
Probable space group: I B A M
;
_chemical_formula_sum "Si O2"
_cell_formula_units_Z 60
_cell_length_a 17.328873
_cell_length_b 8.954085
_cell_length_c 17.709616
_cell_angle_alpha 90.000000
_cell_angle_beta 90.000000
_cell_angle_gamma 90.000000
_cell_volume 2747.898431
_symmetry_space_group_name_H-M "I B A M"
_symmetry_group_IT_number 72
_symmetry_cell_setting 'orthorhombic'
loop_
_space_group_symop_operation_xyz
x,y,z
-x,-y,z
x,-y,1/2-z
-x,y,1/2-z
-x,-y,-z
x,y,-z
-x,y,1/2+z
x,-y,1/2+z
1/2+x,1/2+y,1/2+z
1/2-x,1/2-y,1/2+z
1/2+x,1/2-y,-z
1/2-x,1/2+y,-z
1/2-x,1/2-y,1/2-z
1/2+x,1/2+y,1/2-z
1/2-x,1/2+y,z
1/2+x,1/2-y,z
loop_
_atom_site_type_symbol
_atom_site_label
_atom_site_fract_x
_atom_site_fract_y
_atom_site_fract_z
Si Si1 0.276420 0.859329 0.585012
Si Si2 0.354899 0.832198 0.879164
Si Si3 0.000000 0.500000 0.627127
Si Si4 0.000000 0.000000 0.750000
Si Si5 0.107569 0.259003 0.705313
O O1 0.305200 0.830297 0.500000
O O2 0.187107 0.812948 0.588280
O O3 0.320937 0.762971 0.648286
O O4 0.297070 0.029509 0.605288
O O5 0.367329 0.797550 0.790494
O O6 0.436853 0.891403 0.911199
O O7 0.052622 0.390647 0.676146
O O8 0.942972 0.890852 0.704541
#
# Coordination Sequence:
#
# PCOD9526482 Si02
#       5
#    16  16   8   4  16
#     4  11  25  42  63  96 136 176 218 274 340 402
#     4  11  22  42  68  96 131 178 223 279 325 397
#     4  10  19  42  67  94 133 166 225 280 331 388
#     4  12  24  38  74 104 124 168 232 290 336 374
#     4  11  23  41  69 100 128 172 227 285 331 401
#
# _framework density 21.834866999999999
#
# number of rings (size 3 to 8) (size 9 to 14) (size 15 to 20)
#    0.000    1.067    2.667    5.600    3.733    0.000 
#    0.000   17.333    0.000    0.000    0.000    0.000 
#    0.000    0.000    0.000    0.000    0.000    0.000 
#
# Total GULP energy -167477.567256 kJ/mol
# GULP energy per Si atom -5582.585575 kJ/mol
# Density = 2.178517 g / cm^3
# Si number density = 21.834867 Si / 1000 Ang^3
#
#
#
# Elastic Constant Matrix: (Units=GPa)
#
#
# Indices 1 2 3 4 5 6 
#
# 1 106.3486 29.6562 33.1478 0.0000 0.0000 0.0000
# 2 29.6562 58.8913 15.0361 0.0000 0.0000 0.0000
# 3 33.1478 15.0361 124.3344 0.0000 0.0000 0.0000
# 4 0.0000 0.0000 0.0000 -28.3390 0.0000 0.0000
# 5 0.0000 0.0000 0.0000 0.0000 -39.3846 0.0000
# 6 0.0000 0.0000 0.0000 0.0000 0.0000 69.2255
#
#
#
# Elastic Compliance Matrix: (Units=1/GPa)
#
#
# Indices 1 2 3 4 5 6 
#
# 1 0.011630 -0.005226 -0.002469 0.000000 0.000000 0.000000
# 2 -0.005226 0.019870 -0.001010 0.000000 0.000000 0.000000
# 3 -0.002469 -0.001010 0.008823 0.000000 0.000000 0.000000
# 4 0.000000 0.000000 0.000000 -0.035287 0.000000 0.000000
# 5 0.000000 0.000000 0.000000 0.000000 -0.025391 0.000000
# 6 0.000000 0.000000 0.000000 0.000000 0.000000 0.014446
#
#
# Mechanical properties :
#
#
# Convention : Reuss Voigt Hill
#
# Bulk Modulus (GPa) = 43.64112 49.47271 46.55692
# Shear Modulus (GPa) = 261.26678 14.41598 137.84138
#
# Velocity S-wave (km/s) = 10.95059 2.57228 7.95400
# Velocity P-wave (km/s) = 13.41334 5.61507 10.28218
#
# Compressibility (1/GPa) = 0.02291417
#
# Stress axis : x y z
#
# Youngs Moduli (GPa) = 85.98576 50.32709 113.33975
#
# Poissons Ratio (x) = 0.26302 0.27978
# Poissons Ratio (y) = 0.44938 0.11443
# Poissons Ratio (z) = 0.21226 0.05081
#
# Static dielectric constant tensor:
#      x y z
#    x 1.871660 0.000000 0.000000 
#    y 0.000000 1.825920 0.000000 
#    z 0.000000 0.000000 1.799270 
# 
# From -- ./inp_files/27537.got.cif
#   From: 2010.05.17/outbox.cif.g08.bks.cpg/sg72_14_cif.got.tgz:27537.got - 2010.06.03 17:03:01.
