data_PCOD9526301
_publ_section_title
;
Structure prediction by ZEFSAII (Michael W. Deem and Ramdas Pophale) SiO2 
 PCOD9526301
Probable space group: I B A M
;
_chemical_formula_sum "Si O2"
_cell_formula_units_Z 112
_cell_length_a 15.895123
_cell_length_b 23.624818
_cell_length_c 13.607819
_cell_angle_alpha 90.000000
_cell_angle_beta 90.000000
_cell_angle_gamma 90.000000
_cell_volume 5109.999862
_symmetry_space_group_name_H-M "I B A M"
_symmetry_group_IT_number 72
_symmetry_cell_setting 'orthorhombic'
loop_
_space_group_symop_operation_xyz
x,y,z
-x,-y,z
x,-y,1/2-z
-x,y,1/2-z
-x,-y,-z
x,y,-z
-x,y,1/2+z
x,-y,1/2+z
1/2+x,1/2+y,1/2+z
1/2-x,1/2-y,1/2+z
1/2+x,1/2-y,-z
1/2-x,1/2+y,-z
1/2-x,1/2-y,1/2-z
1/2+x,1/2+y,1/2-z
1/2-x,1/2+y,z
1/2+x,1/2-y,z
loop_
_atom_site_type_symbol
_atom_site_label
_atom_site_fract_x
_atom_site_fract_y
_atom_site_fract_z
Si Si1 0.294729 0.435914 0.283436
Si Si2 0.360611 0.363631 0.884195
Si Si3 0.804626 0.737999 0.617254
Si Si4 0.390764 0.255688 0.618130
Si Si5 0.869335 0.381448 0.186580
Si Si6 0.050587 0.631936 0.387264
Si Si7 0.448915 0.621728 0.882198
O O1 0.293525 0.500000 0.250000
O O2 0.297558 0.394987 0.188096
O O3 0.210770 0.418888 0.341911
O O4 0.379448 0.420909 0.342129
O O5 0.355329 0.296103 0.868675
O O6 0.453247 0.387617 0.860070
O O7 0.342957 0.372873 0.000000
O O8 0.806721 0.725500 0.500000
O O9 0.707413 0.748912 0.645398
O O10 0.840977 0.683561 0.671254
O O11 0.391708 0.259825 0.500000
O O12 0.443652 0.199277 0.637789
O O13 0.425898 0.315196 0.654917
O O14 0.894726 0.394400 0.299639
O O15 0.954862 0.388190 0.125186
O O16 0.079432 0.624335 0.500000
O O17 0.442896 0.621777 0.000000
#
# Coordination Sequence:
#
# PCOD9526301 Si02
#       7
#    16  16  16  16  16  16  16
#     4  12  27  44  64  90 123 168 226 278 315 373
#     4  10  23  41  63  92 130 170 211 266 329 389
#     4  10  19  35  63  99 136 168 206 259 321 393
#     4   9  17  32  57  91 130 164 195 245 310 379
#     4  11  23  39  65  91 124 171 210 259 326 388
#     4  10  22  39  61  94 130 161 202 258 322 392
#     4  10  21  39  62  90 124 167 214 260 313 377
#
# _framework density 21.917808999999998
#
# number of rings (size 3 to 8) (size 9 to 14) (size 15 to 20)
#    0.000    1.714    1.429    2.571    2.000    7.429 
#    0.000    2.857    0.000    0.857    0.000    0.000 
#    0.000    0.000    0.000    0.000    0.000    0.000 
#
# Total GULP energy -313139.560946 kJ/mol
# GULP energy per Si atom -5591.777874 kJ/mol
# Density = 2.186792 g / cm^3
# Si number density = 21.917809 Si / 1000 Ang^3
#
#
#
# Elastic Constant Matrix: (Units=GPa)
#
#
# Indices 1 2 3 4 5 6 
#
# 1 113.2455 12.4857 14.3389 0.0000 0.0000 0.0000
# 2 12.4857 20.9302 -11.2187 0.0000 0.0000 0.0000
# 3 14.3389 -11.2187 75.7712 0.0000 0.0000 0.0000
# 4 0.0000 0.0000 0.0000 13.9534 0.0000 0.0000
# 5 0.0000 0.0000 0.0000 0.0000 25.1414 0.0000
# 6 0.0000 0.0000 0.0000 0.0000 0.0000 4.1339
#
#
#
# Elastic Compliance Matrix: (Units=1/GPa)
#
#
# Indices 1 2 3 4 5 6 
#
# 1 0.010055 -0.007623 -0.003031 0.000000 0.000000 0.000000
# 2 -0.007623 0.057676 0.009982 0.000000 0.000000 0.000000
# 3 -0.003031 0.009982 0.015249 0.000000 0.000000 0.000000
# 4 0.000000 0.000000 0.000000 0.071667 0.000000 0.000000
# 5 0.000000 0.000000 0.000000 0.000000 0.039775 0.000000
# 6 0.000000 0.000000 0.000000 0.000000 0.000000 0.241900
#
#
# Mechanical properties :
#
#
# Convention : Reuss Voigt Hill
#
# Bulk Modulus (GPa) = 12.24964 26.79542 19.52253
# Shear Modulus (GPa) = 10.75552 21.60182 16.17867
#
# Velocity S-wave (km/s) = 2.21762 3.14281 2.71984
# Velocity P-wave (km/s) = 3.48686 5.04198 4.33473
#
# Compressibility (1/GPa) = 0.08163502
#
# Stress axis : x y z
#
# Youngs Moduli (GPa) = 99.45664 17.33836 65.57721
#
# Poissons Ratio (x) = 0.13217 0.19879
# Poissons Ratio (y) = 0.75814 -0.65459
# Poissons Ratio (z) = 0.30149 -0.17307
#
# Static dielectric constant tensor:
#      x y z
#    x 1.798760 0.000000 0.000000 
#    y 0.000000 1.738530 0.000000 
#    z 0.000000 0.000000 1.855500 
# 
# From -- ./inp_files/22167.got.cif
#   From: 2010.05.17/outbox.cif.g08.bks.cpg/sg72_12_cif.got.tgz:22167.got - 2010.06.03 17:03:01.
