data_PCOD9526118
_publ_section_title
;
Structure prediction by ZEFSAII (Michael W. Deem and Ramdas Pophale) SiO2 
 PCOD9526118
Probable space group: I B A M
;
_chemical_formula_sum "Si O2"
_cell_formula_units_Z 48
_cell_length_a 5.195656
_cell_length_b 24.134011
_cell_length_c 14.358231
_cell_angle_alpha 90.000000
_cell_angle_beta 90.000000
_cell_angle_gamma 90.000000
_cell_volume 1800.407575
_symmetry_space_group_name_H-M "I B A M"
_symmetry_group_IT_number 72
_symmetry_cell_setting 'orthorhombic'
loop_
_space_group_symop_operation_xyz
x,y,z
-x,-y,z
x,-y,1/2-z
-x,y,1/2-z
-x,-y,-z
x,y,-z
-x,y,1/2+z
x,-y,1/2+z
1/2+x,1/2+y,1/2+z
1/2-x,1/2-y,1/2+z
1/2+x,1/2-y,-z
1/2-x,1/2+y,-z
1/2-x,1/2-y,1/2-z
1/2+x,1/2+y,1/2-z
1/2-x,1/2+y,z
1/2+x,1/2-y,z
loop_
_atom_site_type_symbol
_atom_site_label
_atom_site_fract_x
_atom_site_fract_y
_atom_site_fract_z
Si Si1 0.464552 0.718138 0.612554
Si Si2 0.322670 0.598787 0.149326
Si Si3 0.331474 0.056280 0.642594
O O1 0.469838 0.714058 0.500000
O O2 0.180273 0.736956 0.640695
O O3 0.557813 0.659372 0.650494
O O4 0.544855 0.561411 0.102693
O O5 0.247764 0.572460 0.250466
O O6 0.038612 0.600246 0.105122
O O7 0.500000 0.000000 0.632510
#
# Coordination Sequence:
#
# PCOD9526118 Si02
#       3
#    16  16  16
#     4  10  21  38  58  79 108 147 186 225 269 316
#     4  10  19  34  55  81 107 143 183 217 266 326
#     4  10  20  34  54  80 111 144 176 219 275 327
#
# _framework density 26.660630999999999
#
# number of rings (size 3 to 8) (size 9 to 14) (size 15 to 20)
#    0.000    2.000    0.000    5.000    0.000    5.333 
#    0.000   20.000    0.000    9.000    0.000    0.000 
#    0.000    2.667    0.000    0.000    0.000    0.000 
#
# Total GULP energy -133910.394118 kJ/mol
# GULP energy per Si atom -5579.599755 kJ/mol
# Density = 2.659995 g / cm^3
# Si number density = 26.660631 Si / 1000 Ang^3
#
#
#
# Elastic Constant Matrix: (Units=GPa)
#
#
# Indices 1 2 3 4 5 6 
#
# 1 252.2101 28.4532 1.5355 0.0000 0.0000 0.0000
# 2 28.4532 130.9909 -17.6096 0.0000 0.0000 0.0000
# 3 1.5355 -17.6096 113.7305 0.0000 0.0000 0.0000
# 4 0.0000 0.0000 0.0000 80.3469 0.0000 0.0000
# 5 0.0000 0.0000 0.0000 0.0000 -14.9543 0.0000
# 6 0.0000 0.0000 0.0000 0.0000 0.0000 58.5024
#
#
#
# Elastic Compliance Matrix: (Units=1/GPa)
#
#
# Indices 1 2 3 4 5 6 
#
# 1 0.004069 -0.000910 -0.000196 0.000000 0.000000 0.000000
# 2 -0.000910 0.008000 0.001251 0.000000 0.000000 0.000000
# 3 -0.000196 0.001251 0.008989 0.000000 0.000000 0.000000
# 4 0.000000 0.000000 0.000000 0.012446 0.000000 0.000000
# 5 0.000000 0.000000 0.000000 0.000000 -0.066870 0.000000
# 6 0.000000 0.000000 0.000000 0.000000 0.000000 0.017093
#
#
# Mechanical properties :
#
#
# Convention : Reuss Voigt Hill
#
# Bulk Modulus (GPa) = 46.84314 57.96549 52.40431
# Shear Modulus (GPa) = -529.25822 57.08250 -236.08786
#
# Velocity S-wave (km/s) = -14.10488 4.63220 -9.42047
# Velocity P-wave (km/s) = 15.73707 7.09922 9.93118
#
# Compressibility (1/GPa) = 0.02134784
#
# Stress axis : x y z
#
# Youngs Moduli (GPa) = 245.77162 125.00017 111.24632
#
# Poissons Ratio (x) = 0.11377 0.02179
# Poissons Ratio (y) = 0.22369 -0.13917
# Poissons Ratio (z) = 0.04814 -0.15637
#
# Static dielectric constant tensor:
#      x y z
#    x 2.296810 0.000000 0.000000 
#    y 0.000000 2.127490 0.000000 
#    z 0.000000 0.000000 2.945660 
# 
# From -- ./inp_files/26811.got.cif
#   From: 2010.05.17/outbox.cif.g08.bks.cpg/sg72_14_cif.got.tgz:26811.got - 2010.06.03 17:03:01.
