data_PCOD9526155
_publ_section_title
;
Structure prediction by ZEFSAII (Michael W. Deem and Ramdas Pophale) SiO2 
 PCOD9526155
Probable space group: I B A M
;
_chemical_formula_sum "Si O2"
_cell_formula_units_Z 116
_cell_length_a 11.876865
_cell_length_b 25.998425
_cell_length_c 20.774062
_cell_angle_alpha 90.000000
_cell_angle_beta 90.000000
_cell_angle_gamma 90.000000
_cell_volume 6414.610376
_symmetry_space_group_name_H-M "I B A M"
_symmetry_group_IT_number 72
_symmetry_cell_setting 'orthorhombic'
loop_
_space_group_symop_operation_xyz
x,y,z
-x,-y,z
x,-y,1/2-z
-x,y,1/2-z
-x,-y,-z
x,y,-z
-x,y,1/2+z
x,-y,1/2+z
1/2+x,1/2+y,1/2+z
1/2-x,1/2-y,1/2+z
1/2+x,1/2-y,-z
1/2-x,1/2+y,-z
1/2-x,1/2-y,1/2-z
1/2+x,1/2+y,1/2-z
1/2-x,1/2+y,z
1/2+x,1/2-y,z
loop_
_atom_site_type_symbol
_atom_site_label
_atom_site_fract_x
_atom_site_fract_y
_atom_site_fract_z
Si Si1 0.436830 0.361089 0.425481
Si Si2 0.321375 0.313464 0.924260
Si Si3 0.706016 0.199203 0.577528
Si Si4 0.500000 0.000000 0.750000
Si Si5 0.306539 0.085009 0.422434
Si Si6 0.569555 0.896767 0.922959
Si Si7 0.297120 0.983632 0.651935
Si Si8 0.940062 0.946308 0.183891
O O1 0.429611 0.379610 0.500000
O O2 0.546414 0.325216 0.421016
O O3 0.324753 0.328616 0.411344
O O4 0.449760 0.406398 0.374279
O O5 0.296836 0.257157 0.896219
O O6 0.256015 0.363429 0.898570
O O7 0.288697 0.311596 0.000000
O O8 0.691814 0.203529 0.500000
O O9 0.609234 0.159748 0.599953
O O10 0.599327 0.998945 0.695292
O O11 0.292789 0.080742 0.500000
O O12 0.439635 0.091274 0.408541
O O13 0.261381 0.033464 0.389239
O O14 0.652456 0.939014 0.893504
O O15 0.581307 0.898281 0.000000
O O16 0.192119 0.959842 0.690612
O O17 0.000000 0.928103 0.250000
O O18 0.000000 0.000000 0.167540
#
# Coordination Sequence:
#
# PCOD9526155 Si02
#       8
#    16  16  16   4  16  16  16  16
#     4  10  20  36  59  88 115 150 198 241 285 341
#     4   9  19  32  52  86 122 152 185 231 283 337
#     4   9  18  32  54  85 117 150 188 231 282 341
#     4  12  24  36  52  80 108 148 192 240 280 330
#     4  10  20  34  56  88 121 149 179 230 293 341
#     4  10  19  34  57  86 117 148 181 232 293 342
#     4  12  22  38  57  81 113 146 193 235 282 347
#     4  11  24  41  59  82 114 160 195 237 294 349
#
# _framework density 18.083717
#
# number of rings (size 3 to 8) (size 9 to 14) (size 15 to 20)
#    0.000    1.793    2.759    2.069    1.931    1.931 
#    0.000    0.000    0.000    0.828    3.586    0.000 
#    0.000    0.000    0.000    0.000    0.000    0.000 
#
# Total GULP energy -322905.077341 kJ/mol
# GULP energy per Si atom -5567.328920 kJ/mol
# Density = 1.804256 g / cm^3
# Si number density = 18.083717 Si / 1000 Ang^3
#
#
#
# Elastic Constant Matrix: (Units=GPa)
#
#
# Indices 1 2 3 4 5 6 
#
# 1 79.3931 5.0162 31.2768 0.0000 0.0000 0.0000
# 2 5.0162 95.1926 39.9410 0.0000 0.0000 0.0000
# 3 31.2768 39.9410 58.4881 0.0000 -0.0001 0.0000
# 4 0.0000 0.0000 0.0000 3.4656 0.0000 0.0000
# 5 0.0000 0.0000 -0.0001 0.0000 110.7438 0.0000
# 6 0.0000 0.0000 0.0000 0.0000 0.0000 8.0900
#
#
#
# Elastic Compliance Matrix: (Units=1/GPa)
#
#
# Indices 1 2 3 4 5 6 
#
# 1 0.017026 0.004097 -0.011902 0.000000 0.000000 0.000000
# 2 0.004097 0.015710 -0.012919 0.000000 0.000000 0.000000
# 3 -0.011902 -0.012919 0.032284 0.000000 0.000000 0.000000
# 4 0.000000 0.000000 0.000000 0.288547 0.000000 0.000000
# 5 0.000000 0.000000 0.000000 0.000000 0.009030 0.000000
# 6 0.000000 0.000000 0.000000 0.000000 0.000000 0.123610
#
#
# Mechanical properties :
#
#
# Convention : Reuss Voigt Hill
#
# Bulk Modulus (GPa) = 42.42457 42.83799 42.63128
# Shear Modulus (GPa) = 9.33687 34.91587 22.12637
#
# Velocity S-wave (km/s) = 2.27472 4.39884 3.50173
# Velocity P-wave (km/s) = 5.51454 7.03846 6.32258
#
# Compressibility (1/GPa) = 0.02357125
#
# Stress axis : x y z
#
# Youngs Moduli (GPa) = 58.73527 63.65552 30.97484
#
# Poissons Ratio (x) = -0.26078 0.36867
# Poissons Ratio (y) = -0.24062 0.40015
# Poissons Ratio (z) = 0.69907 0.82234
#
# Static dielectric constant tensor:
#      x y z
#    x 1.628420 0.000000 0.000000 
#    y 0.000000 1.637020 0.000000 
#    z 0.000000 0.000000 1.616330 
# 
# From -- ./inp_files/29695.got.cif
#   From: 2010.05.17/outbox.cif.g08.bks.cpg/sg72_15_cif.got.tgz:29695.got - 2010.06.03 17:03:01.
