data_PCOD9526318
_publ_section_title
;
Structure prediction by ZEFSAII (Michael W. Deem and Ramdas Pophale) SiO2 
 PCOD9526318
Probable space group: I B A M
;
_chemical_formula_sum "Si O2"
_cell_formula_units_Z 100
_cell_length_a 15.075407
_cell_length_b 25.320129
_cell_length_c 14.128967
_cell_angle_alpha 90.000000
_cell_angle_beta 90.000000
_cell_angle_gamma 90.000000
_cell_volume 5393.185654
_symmetry_space_group_name_H-M "I B A M"
_symmetry_group_IT_number 72
_symmetry_cell_setting 'orthorhombic'
loop_
_space_group_symop_operation_xyz
x,y,z
-x,-y,z
x,-y,1/2-z
-x,y,1/2-z
-x,-y,-z
x,y,-z
-x,y,1/2+z
x,-y,1/2+z
1/2+x,1/2+y,1/2+z
1/2-x,1/2-y,1/2+z
1/2+x,1/2-y,-z
1/2-x,1/2+y,-z
1/2-x,1/2-y,1/2-z
1/2+x,1/2+y,1/2-z
1/2-x,1/2+y,z
1/2+x,1/2-y,z
loop_
_atom_site_type_symbol
_atom_site_label
_atom_site_fract_x
_atom_site_fract_y
_atom_site_fract_z
Si Si1 0.681197 0.478751 0.102676
Si Si2 0.500000 0.500000 0.500000
Si Si3 0.359148 0.765510 0.391798
Si Si4 0.767774 0.082797 0.210127
Si Si5 0.905910 0.828747 0.728095
Si Si6 0.150431 0.249168 0.108995
Si Si7 0.899308 0.652402 0.232898
O O1 0.704552 0.438476 0.185961
O O2 0.718269 0.535141 0.137462
O O3 0.720001 0.463236 0.000000
O O4 0.576536 0.486045 0.081158
O O5 0.382010 0.775350 0.500000
O O6 0.417984 0.719356 0.345647
O O7 0.257355 0.745614 0.385957
O O8 0.367414 0.816913 0.327191
O O9 0.834973 0.130478 0.188997
O O10 0.669104 0.106055 0.210555
O O11 0.872052 0.799927 0.823160
O O12 0.000000 0.854708 0.750000
O O13 0.107192 0.301928 0.152588
O O14 0.125471 0.240840 0.000000
O O15 0.000000 0.635529 0.250000
#
# Coordination Sequence:
#
# PCOD9526318 Si02
#       7
#    16   4  16  16  16  16  16
#     4   9  23  41  62  85 118 142 187 233 291 360
#     4   8  20  46  64  92 104 160 184 218 304 384
#     4  10  19  36  55  80 119 159 193 239 281 331
#     4  11  22  40  60  86 117 149 187 247 295 333
#     4  11  22  32  54  85 116 150 189 232 289 346
#     4  10  19  36  55  80 119 159 193 239 281 331
#     4  11  22  38  61  84 114 159 207 234 282 345
#
# _framework density 18.541917000000002
#
# number of rings (size 3 to 8) (size 9 to 14) (size 15 to 20)
#    0.480    1.280    3.200    2.880    2.240    5.760 
#    0.000    1.600    0.000    0.960    0.000    0.000 
#    0.000    0.000    0.000    0.000    0.000    0.000 
#
# Total GULP energy -278456.624010 kJ/mol
# GULP energy per Si atom -5569.132480 kJ/mol
# Density = 1.849971 g / cm^3
# Si number density = 18.541917 Si / 1000 Ang^3
#
#
#
# Elastic Constant Matrix: (Units=GPa)
#
#
# Indices 1 2 3 4 5 6 
#
# 1 81.8709 -2.6048 -32.3032 0.0001 0.0000 0.0000
# 2 -2.6048 35.5165 -17.4595 0.0001 0.0000 0.0000
# 3 -32.3032 -17.4595 65.4471 0.0001 0.0000 0.0000
# 4 0.0001 0.0001 0.0001 3.4275 0.0000 0.0000
# 5 0.0000 0.0000 0.0000 0.0000 -4.0389 0.0000
# 6 0.0000 0.0000 0.0000 0.0000 0.0000 8.7048
#
#
#
# Elastic Compliance Matrix: (Units=1/GPa)
#
#
# Indices 1 2 3 4 5 6 
#
# 1 0.016169 0.005880 0.009549 -0.000001 0.000000 0.000000
# 2 0.005880 0.034544 0.012118 -0.000002 0.000000 0.000000
# 3 0.009549 0.012118 0.023226 -0.000001 0.000000 0.000000
# 4 -0.000001 -0.000002 -0.000001 0.291754 0.000001 0.000000
# 5 0.000000 0.000000 0.000000 0.000001 -0.247590 0.000000
# 6 0.000000 0.000000 0.000000 0.000000 0.000000 0.114880
#
#
# Mechanical properties :
#
#
# Convention : Reuss Voigt Hill
#
# Bulk Modulus (GPa) = 7.74990 8.67775 8.21382
# Shear Modulus (GPa) = 22.63480 17.29881 19.96680
#
# Velocity S-wave (km/s) = 3.49769 3.05775 3.28509
# Velocity P-wave (km/s) = 4.52775 4.14206 4.33919
#
# Compressibility (1/GPa) = 0.12903395
#
# Stress axis : x y z
#
# Youngs Moduli (GPa) = 61.84564 28.94849 43.05597
#
# Poissons Ratio (x) = -0.17022 -0.41116
# Poissons Ratio (y) = -0.36367 -0.52174
# Poissons Ratio (z) = -0.59059 -0.35079
#
# Static dielectric constant tensor:
#      x y z
#    x 1.664070 0.000000 0.000000 
#    y 0.000000 1.613260 0.000000 
#    z 0.000000 0.000000 1.642780 
# 
# From -- ./inp_files/22041.got.cif
#   From: 2010.05.17/outbox.cif.g08.bks.cpg/sg72_12_cif.got.tgz:22041.got - 2010.06.03 17:03:01.
