data_PCOD9526265
_publ_section_title
;
Structure prediction by ZEFSAII (Michael W. Deem and Ramdas Pophale) SiO2 
 PCOD9526265
Probable space group: I B A M
;
_chemical_formula_sum "Si O2"
_cell_formula_units_Z 92
_cell_length_a 27.818722
_cell_length_b 20.456649
_cell_length_c 9.340783
_cell_angle_alpha 90.000000
_cell_angle_beta 90.000000
_cell_angle_gamma 90.000000
_cell_volume 5315.632535
_symmetry_space_group_name_H-M "I B A M"
_symmetry_group_IT_number 72
_symmetry_cell_setting 'orthorhombic'
loop_
_space_group_symop_operation_xyz
x,y,z
-x,-y,z
x,-y,1/2-z
-x,y,1/2-z
-x,-y,-z
x,y,-z
-x,y,1/2+z
x,-y,1/2+z
1/2+x,1/2+y,1/2+z
1/2-x,1/2-y,1/2+z
1/2+x,1/2-y,-z
1/2-x,1/2+y,-z
1/2-x,1/2-y,1/2-z
1/2+x,1/2+y,1/2-z
1/2-x,1/2+y,z
1/2+x,1/2-y,z
loop_
_atom_site_type_symbol
_atom_site_label
_atom_site_fract_x
_atom_site_fract_y
_atom_site_fract_z
Si Si1 0.500000 0.100112 0.250000
Si Si2 0.809802 0.692881 0.332958
Si Si3 0.860739 0.068765 0.670204
Si Si4 0.218138 0.154370 0.668008
Si Si5 0.080450 0.295873 0.668763
Si Si6 0.500000 0.000000 0.000000
Si Si7 0.951144 0.164759 0.669545
O O1 0.457088 0.146698 0.197123
O O2 0.515423 0.053210 0.122810
O O3 0.801262 0.676164 0.500000
O O4 0.800920 0.770925 0.318713
O O5 0.771587 0.656419 0.233586
O O6 0.865384 0.681553 0.297247
O O7 0.852916 0.060178 0.500000
O O8 0.816726 0.107973 0.741941
O O9 0.908756 0.112238 0.689083
O O10 0.866022 0.000000 0.750000
O O11 0.217946 0.137219 0.500000
O O12 0.079692 0.277909 0.500000
O O13 0.066021 0.233183 0.762065
O O14 0.959984 0.172835 0.500000
O O15 0.000000 0.145139 0.750000
#
# Coordination Sequence:
#
# PCOD9526265 Si02
#       7
#     8  16  16  16  16   4  16
#     4  11  22  40  62  88 115 162 194 236 293 352
#     4   9  19  34  57  87 122 152 193 250 302 348
#     4  11  24  41  62  85 118 166 207 248 306 370
#     4  10  19  35  58  87 118 157 196 246 299 356
#     4  11  21  36  61  93 120 157 201 250 303 346
#     4  10  24  42  60  82 124 154 198 234 280 374
#     4  11  24  38  58  90 125 155 201 255 300 358
#
# _framework density 17.307442999999999
#
# number of rings (size 3 to 8) (size 9 to 14) (size 15 to 20)
#    0.000    1.565    3.478    1.565    1.217    3.826 
#    0.000    1.739    3.826    0.000    0.000    0.000 
#    0.000    0.000    0.000    0.000    0.000    0.000 
#
# Total GULP energy -256268.026741 kJ/mol
# GULP energy per Si atom -5571.044060 kJ/mol
# Density = 1.726805 g / cm^3
# Si number density = 17.307443 Si / 1000 Ang^3
#
#
#
# Elastic Constant Matrix: (Units=GPa)
#
#
# Indices 1 2 3 4 5 6 
#
# 1 124.4689 36.7402 63.1128 0.0000 0.0000 0.0000
# 2 36.7402 70.6819 54.7623 0.0000 0.0000 0.0000
# 3 63.1128 54.7623 137.9602 0.0000 0.0000 0.0000
# 4 0.0000 0.0000 0.0000 29.4981 0.0000 0.0000
# 5 0.0000 0.0000 0.0000 0.0000 27.4216 0.0000
# 6 0.0000 0.0000 0.0000 0.0000 0.0000 2.6155
#
#
#
# Elastic Compliance Matrix: (Units=1/GPa)
#
#
# Indices 1 2 3 4 5 6 
#
# 1 0.010775 -0.002573 -0.003908 0.000000 0.000000 0.000000
# 2 -0.002573 0.021046 -0.007177 0.000000 0.000000 0.000000
# 3 -0.003908 -0.007177 0.011885 0.000000 0.000000 0.000000
# 4 0.000000 0.000000 0.000000 0.033900 0.000000 0.000000
# 5 0.000000 0.000000 0.000000 0.000000 0.036468 0.000000
# 6 0.000000 0.000000 0.000000 0.000000 0.000000 0.382340
#
#
# Mechanical properties :
#
#
# Convention : Reuss Voigt Hill
#
# Bulk Modulus (GPa) = 61.01216 71.37130 66.19173
# Shear Modulus (GPa) = 9.44834 23.80675 16.62755
#
# Velocity S-wave (km/s) = 2.33901 3.71283 3.10291
# Velocity P-wave (km/s) = 6.52864 7.72703 7.15298
#
# Compressibility (1/GPa) = 0.01639018
#
# Stress axis : x y z
#
# Youngs Moduli (GPa) = 92.80548 47.51542 84.13934
#
# Poissons Ratio (x) = 0.12226 0.32881
# Poissons Ratio (y) = 0.23880 0.60386
# Poissons Ratio (z) = 0.36268 0.34101
#
# Static dielectric constant tensor:
#      x y z
#    x 1.522030 0.000000 0.000000 
#    y 0.000000 1.562960 0.000000 
#    z 0.000000 0.000000 1.580110 
# 
# From -- ./inp_files/8103.got.cif
#   From: 2010.05.17/outbox.cif.g08.bks.cpg/sg72_5_cif.got.tgz:8103.got - 2010.06.03 17:03:01.
