data_PCOD9526906
_publ_section_title
;
Structure prediction by ZEFSAII (Michael W. Deem and Ramdas Pophale) SiO2 
 PCOD9526906
Probable space group: I B A M
;
_chemical_formula_sum "Si O2"
_cell_formula_units_Z 72
_cell_length_a 9.613200
_cell_length_b 15.392509
_cell_length_c 24.364667
_cell_angle_alpha 90.000000
_cell_angle_beta 90.000000
_cell_angle_gamma 90.000000
_cell_volume 3605.270659
_symmetry_space_group_name_H-M "I B A M"
_symmetry_group_IT_number 72
_symmetry_cell_setting 'orthorhombic'
loop_
_space_group_symop_operation_xyz
x,y,z
-x,-y,z
x,-y,1/2-z
-x,y,1/2-z
-x,-y,-z
x,y,-z
-x,y,1/2+z
x,-y,1/2+z
1/2+x,1/2+y,1/2+z
1/2-x,1/2-y,1/2+z
1/2+x,1/2-y,-z
1/2-x,1/2+y,-z
1/2-x,1/2-y,1/2-z
1/2+x,1/2+y,1/2-z
1/2-x,1/2+y,z
1/2+x,1/2-y,z
loop_
_atom_site_type_symbol
_atom_site_label
_atom_site_fract_x
_atom_site_fract_y
_atom_site_fract_z
Si Si1 0.195813 0.139872 0.561659
Si Si2 0.634977 0.787334 0.848076
Si Si3 0.480792 0.898089 0.558925
Si Si4 0.919874 0.156339 0.695260
Si Si5 0.500000 0.500000 0.113869
O O1 0.145306 0.162442 0.500000
O O2 0.170135 0.210984 0.608414
O O3 0.361947 0.135777 0.559620
O O4 0.119482 0.049702 0.578850
O O5 0.598516 0.866345 0.887884
O O6 0.758284 0.815834 0.807374
O O7 0.502324 0.745182 0.818970
O O8 0.414282 0.873564 0.500000
O O9 0.500000 0.000000 0.560077
O O10 0.000000 0.125456 0.750000
O O11 0.939100 0.078414 0.651202
#
# Coordination Sequence:
#
# PCOD9526906 Si02
#       5
#    16  16  16  16   8
#     4  10  20  36  58  92 125 160 201 243 309 386
#     4  11  21  39  60  87 120 160 202 257 308 371
#     4  10  20  35  57  86 123 160 197 245 307 378
#     4  11  23  40  62  85 116 160 211 261 315 362
#     4  10  22  38  62  88 122 160 204 260 314 376
#
# _framework density 19.970762000000001
#
# number of rings (size 3 to 8) (size 9 to 14) (size 15 to 20)
#    0.000    1.556    2.222    3.333    0.000    0.000 
#    0.000    2.222    0.000    0.000    0.000    0.000 
#    0.000    0.000    0.000    0.000    0.000    0.000 
#
# Total GULP energy -200602.508360 kJ/mol
# GULP energy per Si atom -5572.291899 kJ/mol
# Density = 1.992531 g / cm^3
# Si number density = 19.970762 Si / 1000 Ang^3
#
#
#
# Elastic Constant Matrix: (Units=GPa)
#
#
# Indices 1 2 3 4 5 6 
#
# 1 66.5295 6.4639 16.7407 0.0000 0.0000 0.0000
# 2 6.4639 61.4530 10.4458 0.0000 0.0000 0.0000
# 3 16.7407 10.4458 70.9021 0.0000 0.0000 0.0000
# 4 0.0000 0.0000 0.0000 27.7718 0.0000 0.0000
# 5 0.0000 0.0000 0.0000 0.0000 28.9056 0.0000
# 6 0.0000 0.0000 0.0000 0.0000 0.0000 22.9788
#
#
#
# Elastic Compliance Matrix: (Units=1/GPa)
#
#
# Indices 1 2 3 4 5 6 
#
# 1 0.016049 -0.001071 -0.003632 0.000000 0.000000 0.000000
# 2 -0.001071 0.016762 -0.002217 0.000000 0.000000 0.000000
# 3 -0.003632 -0.002217 0.015288 0.000000 0.000000 0.000000
# 4 0.000000 0.000000 0.000000 0.036008 0.000000 0.000000
# 5 0.000000 0.000000 0.000000 0.000000 0.034595 0.000000
# 6 0.000000 0.000000 0.000000 0.000000 0.000000 0.043518
#
#
# Mechanical properties :
#
#
# Convention : Reuss Voigt Hill
#
# Bulk Modulus (GPa) = 29.18790 29.57616 29.38203
# Shear Modulus (GPa) = 26.66974 26.94686 26.80830
#
# Velocity S-wave (km/s) = 3.65833 3.67729 3.66782
# Velocity P-wave (km/s) = 5.70014 5.73339 5.71679
#
# Compressibility (1/GPa) = 0.03426078
#
# Stress axis : x y z
#
# Youngs Moduli (GPa) = 62.31018 59.65864 65.41092
#
# Poissons Ratio (x) = 0.06388 0.23754
# Poissons Ratio (y) = 0.06672 0.14500
# Poissons Ratio (z) = 0.22628 0.13224
#
# Static dielectric constant tensor:
#      x y z
#    x 1.659440 0.000000 0.000000 
#    y 0.000000 1.711490 0.000000 
#    z 0.000000 0.000000 1.773720 
# 
# From -- ./inp_files/47019.got.cif
#   From: 2010.05.17/outbox.cif.g08.bks.cpg/sg72_24_cif.got.tgz:47019.got - 2010.06.03 17:03:01.
