data_PCOD9526328
_publ_section_title
;
Structure prediction by ZEFSAII (Michael W. Deem and Ramdas Pophale) SiO2 
 PCOD9526328
Probable space group: I B A M
;
_chemical_formula_sum "Si O2"
_cell_formula_units_Z 68
_cell_length_a 19.596062
_cell_length_b 13.715701
_cell_length_c 12.301100
_cell_angle_alpha 90.000000
_cell_angle_beta 90.000000
_cell_angle_gamma 90.000000
_cell_volume 3306.212495
_symmetry_space_group_name_H-M "I B A M"
_symmetry_group_IT_number 72
_symmetry_cell_setting 'orthorhombic'
loop_
_space_group_symop_operation_xyz
x,y,z
-x,-y,z
x,-y,1/2-z
-x,y,1/2-z
-x,-y,-z
x,y,-z
-x,y,1/2+z
x,-y,1/2+z
1/2+x,1/2+y,1/2+z
1/2-x,1/2-y,1/2+z
1/2+x,1/2-y,-z
1/2-x,1/2+y,-z
1/2-x,1/2-y,1/2-z
1/2+x,1/2+y,1/2-z
1/2-x,1/2+y,z
1/2+x,1/2-y,z
loop_
_atom_site_type_symbol
_atom_site_label
_atom_site_fract_x
_atom_site_fract_y
_atom_site_fract_z
Si Si1 0.410291 0.845901 0.622767
Si Si2 0.831609 0.218713 0.379018
Si Si3 0.278983 0.883944 0.752927
Si Si4 0.500000 0.000000 0.750000
Si Si5 0.989114 0.162960 0.627341
O O1 0.402861 0.876017 0.500000
O O2 0.335838 0.839194 0.672949
O O3 0.453821 0.747139 0.628027
O O4 0.451994 0.929544 0.682210
O O5 0.813962 0.184034 0.500000
O O6 0.793879 0.151556 0.290667
O O7 0.801762 0.327811 0.362098
O O8 0.913275 0.210361 0.368561
O O9 0.283457 0.000000 0.750000
O O10 0.993283 0.119671 0.500000
O O11 0.000000 0.114371 0.750000
#
# Coordination Sequence:
#
# PCOD9526328 Si02
#       5
#    16  16  16   4  16
#     4  11  21  32  52  81 118 156 195 241 301 369
#     4  10  22  39  59  85 122 163 205 252 309 369
#     4  11  22  39  58  87 123 156 205 252 311 372
#     4  12  18  32  44  78 116 148 194 228 302 352
#     4  10  19  36  57  84 118 159 202 248 302 366
#
# _framework density 20.567340000000002
#
# number of rings (size 3 to 8) (size 9 to 14) (size 15 to 20)
#    0.000    1.412    4.706    1.059    0.000    1.882 
#    0.000    0.000    0.000    0.706    0.000    3.294 
#    0.000    0.000    0.000    0.000    0.000    0.000 
#
# Total GULP energy -189345.624888 kJ/mol
# GULP energy per Si atom -5568.988967 kJ/mol
# Density = 2.052053 g / cm^3
# Si number density = 20.567340 Si / 1000 Ang^3
#
#
#
# Elastic Constant Matrix: (Units=GPa)
#
#
# Indices 1 2 3 4 5 6 
#
# 1 82.3475 28.2017 20.0610 0.0000 0.0000 0.0000
# 2 28.2017 76.9666 6.9175 0.0000 0.0000 0.0000
# 3 20.0610 6.9175 136.1634 0.0000 0.0000 0.0000
# 4 0.0000 0.0000 0.0000 1.3845 0.0000 0.0000
# 5 0.0000 0.0000 0.0000 0.0000 32.9792 0.0000
# 6 0.0000 0.0000 0.0000 0.0000 0.0000 20.0920
#
#
#
# Elastic Compliance Matrix: (Units=1/GPa)
#
#
# Indices 1 2 3 4 5 6 
#
# 1 0.014337 -0.005087 -0.001854 0.000000 0.000000 0.000000
# 2 -0.005087 0.014857 -0.000005 0.000000 0.000000 0.000000
# 3 -0.001854 -0.000005 0.007618 0.000000 0.000000 0.000000
# 4 0.000000 0.000000 0.000000 0.722300 0.000000 0.000000
# 5 0.000000 0.000000 0.000000 0.000000 0.030322 0.000000
# 6 0.000000 0.000000 0.000000 0.000000 0.000000 0.049771
#
#
# Mechanical properties :
#
#
# Convention : Reuss Voigt Hill
#
# Bulk Modulus (GPa) = 43.63036 45.09309 44.36172
# Shear Modulus (GPa) = 5.80897 26.91096 16.35997
#
# Velocity S-wave (km/s) = 1.68241 3.62115 2.82340
# Velocity P-wave (km/s) = 5.00335 6.28139 5.67844
#
# Compressibility (1/GPa) = 0.02291982
#
# Stress axis : x y z
#
# Youngs Moduli (GPa) = 69.74776 67.30834 131.27623
#
# Poissons Ratio (x) = 0.34238 0.24337
# Poissons Ratio (y) = 0.35479 0.00070
# Poissons Ratio (z) = 0.12931 0.00036
#
# Static dielectric constant tensor:
#      x y z
#    x 1.704340 0.000000 0.000000 
#    y 0.000000 1.701630 0.000000 
#    z 0.000000 0.000000 1.834670 
# 
# From -- ./inp_files/12562.got.cif
#   From: 2010.05.17/outbox.cif.g08.bks.cpg/sg72_7_cif.got.tgz:12562.got - 2010.06.03 17:03:01.
