data_PCOD9526397
_publ_section_title
;
Structure prediction by ZEFSAII (Michael W. Deem and Ramdas Pophale) SiO2 
 PCOD9526397
Probable space group: I B A M
;
_chemical_formula_sum "Si O2"
_cell_formula_units_Z 128
_cell_length_a 12.494961
_cell_length_b 23.886772
_cell_length_c 23.546361
_cell_angle_alpha 90.000000
_cell_angle_beta 90.000000
_cell_angle_gamma 90.000000
_cell_volume 7027.747790
_symmetry_space_group_name_H-M "I B A M"
_symmetry_group_IT_number 72
_symmetry_cell_setting 'orthorhombic'
loop_
_space_group_symop_operation_xyz
x,y,z
-x,-y,z
x,-y,1/2-z
-x,y,1/2-z
-x,-y,-z
x,y,-z
-x,y,1/2+z
x,-y,1/2+z
1/2+x,1/2+y,1/2+z
1/2-x,1/2-y,1/2+z
1/2+x,1/2-y,-z
1/2-x,1/2+y,-z
1/2-x,1/2-y,1/2-z
1/2+x,1/2+y,1/2-z
1/2-x,1/2+y,z
1/2+x,1/2-y,z
loop_
_atom_site_type_symbol
_atom_site_label
_atom_site_fract_x
_atom_site_fract_y
_atom_site_fract_z
Si Si1 0.425504 0.834841 0.804747
Si Si2 0.112044 0.968889 0.566747
Si Si3 0.647783 0.356406 0.866073
Si Si4 0.657288 0.996315 0.564116
Si Si5 0.967341 0.224939 0.853166
Si Si6 0.488323 0.091399 0.096887
Si Si7 0.298951 0.312020 0.240198
Si Si8 0.846560 0.693660 0.564749
O O1 0.500000 0.835780 0.750000
O O2 0.452250 0.774136 0.832069
O O3 0.468580 0.882991 0.845228
O O4 0.301135 0.842113 0.790200
O O5 0.113241 0.949279 0.500000
O O6 0.130194 0.919045 0.611447
O O7 0.216529 0.008412 0.573296
O O8 0.000000 0.000000 0.575884
O O9 0.539992 0.322763 0.879648
O O10 0.671868 0.343260 0.799218
O O11 0.745483 0.331047 0.901894
O O12 0.641753 0.018650 0.500000
O O13 0.602503 0.043666 0.603014
O O14 0.588547 0.940171 0.568853
O O15 0.899147 0.199008 0.801221
O O16 0.890331 0.254752 0.898332
O O17 0.435153 0.144099 0.065538
O O18 0.250000 0.250000 0.250000
O O19 0.821623 0.708427 0.500000
#
# Coordination Sequence:
#
# PCOD9526397 Si02
#       8
#    16  16  16  16  16  16  16  16
#     4  11  20  34  55  85 119 151 189 243 299 361
#     4  10  23  42  64  88 120 165 214 257 309 377
#     4  12  22  37  64  87 120 162 209 254 304 368
#     4  10  19  37  62  85 112 152 199 249 301 365
#     4  11  22  37  58  89 120 163 204 242 300 376
#     4  10  20  33  58  87 117 148 197 249 306 359
#     4  12  20  37  61  85 116 159 207 246 294 370
#     4  11  21  35  57  91 126 157 196 250 312 374
#
# _framework density 18.213517
#
# number of rings (size 3 to 8) (size 9 to 14) (size 15 to 20)
#    0.000    1.125    5.000    3.000    0.000    2.000 
#    0.000    1.250    0.000    9.000    0.000    0.000 
#    0.000    0.000    0.000    0.000    0.000    0.000 
#
# Total GULP energy -356997.343042 kJ/mol
# GULP energy per Si atom -5578.083485 kJ/mol
# Density = 1.817206 g / cm^3
# Si number density = 18.213517 Si / 1000 Ang^3
#
#
#
# Elastic Constant Matrix: (Units=GPa)
#
#
# Indices 1 2 3 4 5 6 
#
# 1 119.8361 35.7436 26.6151 0.0000 0.0000 0.0000
# 2 35.7436 33.7299 29.9385 0.0000 0.0000 0.0000
# 3 26.6151 29.9385 80.3162 0.0000 0.0000 0.0000
# 4 0.0000 0.0000 0.0000 36.4748 0.0000 0.0000
# 5 0.0000 0.0000 0.0000 0.0000 22.8914 0.0000
# 6 0.0000 0.0000 0.0000 0.0000 0.0000 25.2204
#
#
#
# Elastic Compliance Matrix: (Units=1/GPa)
#
#
# Indices 1 2 3 4 5 6 
#
# 1 0.012274 -0.014043 0.001167 0.000000 0.000000 0.000000
# 2 -0.014043 0.060373 -0.017851 0.000000 0.000000 0.000000
# 3 0.001167 -0.017851 0.018718 0.000000 0.000000 0.000000
# 4 0.000000 0.000000 0.000000 0.027416 0.000000 0.000000
# 5 0.000000 0.000000 0.000000 0.000000 0.043685 0.000000
# 6 0.000000 0.000000 0.000000 0.000000 0.000000 0.039650
#
#
# Mechanical properties :
#
#
# Convention : Reuss Voigt Hill
#
# Bulk Modulus (GPa) = 33.43153 46.49740 39.96446
# Shear Modulus (GPa) = 18.27884 26.35632 22.31758
#
# Velocity S-wave (km/s) = 3.17138 3.80817 3.50427
# Velocity P-wave (km/s) = 5.63963 6.70229 6.19379
#
# Compressibility (1/GPa) = 0.02991188
#
# Stress axis : x y z
#
# Youngs Moduli (GPa) = 81.47265 16.56368 53.42415
#
# Poissons Ratio (x) = 0.23260 -0.06236
# Poissons Ratio (y) = 1.14411 0.95368
# Poissons Ratio (z) = -0.09510 0.29568
#
# Static dielectric constant tensor:
#      x y z
#    x 1.592250 0.000000 0.000000 
#    y 0.000000 1.638070 0.000000 
#    z 0.000000 0.000000 1.607330 
# 
# From -- ./inp_files/43706.got.cif
#   From: 2010.05.17/outbox.cif.g08.bks.cpg/sg72_22_cif.got.tgz:43706.got - 2010.06.03 17:03:01.
