data_PCOD9526413
_publ_section_title
;
Structure prediction by ZEFSAII (Michael W. Deem and Ramdas Pophale) SiO2 
 PCOD9526413
Probable space group: I B A M
;
_chemical_formula_sum "Si O2"
_cell_formula_units_Z 80
_cell_length_a 14.511543
_cell_length_b 14.166730
_cell_length_c 15.192914
_cell_angle_alpha 90.000000
_cell_angle_beta 90.000000
_cell_angle_gamma 90.000000
_cell_volume 3123.376148
_symmetry_space_group_name_H-M "I B A M"
_symmetry_group_IT_number 72
_symmetry_cell_setting 'orthorhombic'
loop_
_space_group_symop_operation_xyz
x,y,z
-x,-y,z
x,-y,1/2-z
-x,y,1/2-z
-x,-y,-z
x,y,-z
-x,y,1/2+z
x,-y,1/2+z
1/2+x,1/2+y,1/2+z
1/2-x,1/2-y,1/2+z
1/2+x,1/2-y,-z
1/2-x,1/2+y,-z
1/2-x,1/2-y,1/2-z
1/2+x,1/2+y,1/2-z
1/2-x,1/2+y,z
1/2+x,1/2-y,z
loop_
_atom_site_type_symbol
_atom_site_label
_atom_site_fract_x
_atom_site_fract_y
_atom_site_fract_z
Si Si1 0.286363 0.994611 0.852621
Si Si2 0.436960 0.699186 0.391584
Si Si3 0.884460 0.106191 0.606321
Si Si4 0.459069 0.094544 0.899011
Si Si5 0.771310 0.712092 0.895862
O O1 0.314993 0.891047 0.884182
O O2 0.303060 0.000000 0.750000
O O3 0.179401 0.018077 0.869735
O O4 0.349453 0.073638 0.898305
O O5 0.433667 0.697738 0.500000
O O6 0.510074 0.619821 0.364228
O O7 0.475891 0.801674 0.363348
O O8 0.332093 0.699076 0.359562
O O9 0.887540 0.106860 0.500000
O O10 0.828663 0.199329 0.638749
O O11 0.500000 0.000000 0.856391
O O12 0.491722 0.097346 0.000000
O O13 0.763673 0.728703 0.000000
#
# Coordination Sequence:
#
# PCOD9526413 Si02
#       5
#    16  16  16  16  16
#     4  12  25  38  58  87 130 167 199 238 307 379
#     4   9  18  34  61  91 113 148 203 260 308 350
#     4  10  20  39  64  89 120 158 206 261 307 354
#     4  10  19  37  64  92 117 149 206 265 307 351
#     4  10  20  38  63  88 116 154 206 258 306 357
#
# _framework density 25.613308
#
# number of rings (size 3 to 8) (size 9 to 14) (size 15 to 20)
#    0.000    1.800    2.000    3.000    0.000    5.200 
#    0.000    5.000    0.000    0.000    0.000    0.000 
#    0.000    0.000    0.000    0.000    0.000    0.000 
#
# Total GULP energy -223721.277168 kJ/mol
# GULP energy per Si atom -5593.031929 kJ/mol
# Density = 2.555501 g / cm^3
# Si number density = 25.613308 Si / 1000 Ang^3
#
#
#
# Elastic Constant Matrix: (Units=GPa)
#
#
# Indices 1 2 3 4 5 6 
#
# 1 83.0892 -12.3453 9.6084 0.0000 0.0000 0.0000
# 2 -12.3453 66.8244 -8.3811 0.0000 0.0000 0.0000
# 3 9.6084 -8.3811 67.7651 0.0000 0.0000 0.0000
# 4 0.0000 0.0000 0.0000 8.9651 0.0000 0.0000
# 5 0.0000 0.0000 0.0000 0.0000 -5.0546 0.0000
# 6 0.0000 0.0000 0.0000 0.0000 0.0000 44.4570
#
#
#
# Elastic Compliance Matrix: (Units=1/GPa)
#
#
# Indices 1 2 3 4 5 6 
#
# 1 0.012526 0.002124 -0.001513 0.000000 0.000000 0.000000
# 2 0.002124 0.015561 0.001623 0.000000 0.000000 0.000000
# 3 -0.001513 0.001623 0.015172 0.000000 0.000000 0.000000
# 4 0.000000 0.000000 0.000000 0.111543 0.000000 0.000000
# 5 0.000000 0.000000 0.000000 0.000000 -0.197839 0.000000
# 6 0.000000 0.000000 0.000000 0.000000 0.000000 0.022494
#
#
# Mechanical properties :
#
#
# Convention : Reuss Voigt Hill
#
# Bulk Modulus (GPa) = 20.95238 21.71584 21.33411
# Shear Modulus (GPa) = -549.28758 24.92662 -262.18048
#
# Velocity S-wave (km/s) = -14.66013 3.12298 -10.12834
# Velocity P-wave (km/s) = 16.68416 4.63689 11.33271
#
# Compressibility (1/GPa) = 0.04772727
#
# Stress axis : x y z
#
# Youngs Moduli (GPa) = 79.83473 64.26473 65.91002
#
# Poissons Ratio (x) = -0.13651 0.09974
# Poissons Ratio (y) = -0.16959 -0.10699
# Poissons Ratio (z) = 0.12081 -0.10432
#
# Static dielectric constant tensor:
#      x y z
#    x 2.111700 0.000000 0.000000 
#    y 0.000000 1.981790 0.000000 
#    z 0.000000 0.000000 1.966230 
# 
# From -- ./inp_files/30479.got.cif
#   From: 2010.05.17/outbox.cif.g08.bks.cpg/sg72_16_cif.got.tgz:30479.got - 2010.06.03 17:03:01.
