data_PCOD9526317
_publ_section_title
;
Structure prediction by ZEFSAII (Michael W. Deem and Ramdas Pophale) SiO2 
 PCOD9526317
Probable space group: I B A M
;
_chemical_formula_sum "Si O2"
_cell_formula_units_Z 88
_cell_length_a 9.004683
_cell_length_b 16.334519
_cell_length_c 27.206762
_cell_angle_alpha 90.000000
_cell_angle_beta 90.000000
_cell_angle_gamma 90.000000
_cell_volume 4001.765506
_symmetry_space_group_name_H-M "I B A M"
_symmetry_group_IT_number 72
_symmetry_cell_setting 'orthorhombic'
loop_
_space_group_symop_operation_xyz
x,y,z
-x,-y,z
x,-y,1/2-z
-x,y,1/2-z
-x,-y,-z
x,y,-z
-x,y,1/2+z
x,-y,1/2+z
1/2+x,1/2+y,1/2+z
1/2-x,1/2-y,1/2+z
1/2+x,1/2-y,-z
1/2-x,1/2+y,-z
1/2-x,1/2-y,1/2-z
1/2+x,1/2+y,1/2-z
1/2-x,1/2+y,z
1/2+x,1/2-y,z
loop_
_atom_site_type_symbol
_atom_site_label
_atom_site_fract_x
_atom_site_fract_y
_atom_site_fract_z
Si Si1 0.890366 0.766378 0.942859
Si Si2 0.905291 0.631867 0.441772
Si Si3 0.251280 0.032841 0.142821
Si Si4 0.655620 0.320423 0.274509
Si Si5 0.052620 0.876124 0.130629
Si Si6 0.220088 0.500000 0.250000
O O1 0.940932 0.675925 0.926334
O O2 0.995902 0.832949 0.917791
O O3 0.723133 0.798160 0.937561
O O4 0.924363 0.765615 0.000000
O O5 0.908423 0.605599 0.500000
O O6 0.851733 0.566158 0.401614
O O7 0.337337 0.023909 0.194926
O O8 0.105247 0.090643 0.152982
O O9 0.167157 0.950422 0.125619
O O10 0.500000 0.309434 0.250000
O O11 0.750000 0.250000 0.250000
O O12 0.631621 0.312791 0.332729
O O13 0.701452 0.414561 0.264718
#
# Coordination Sequence:
#
# PCOD9526317 Si02
#       6
#    16  16  16  16  16   8
#     4   9  18  31  49  75 107 138 173 222 275 326
#     4   9  18  32  51  78 109 141 180 228 280 332
#     4   9  17  30  52  76 101 140 182 228 275 325
#     4  11  22  35  56  84 107 146 190 234 281 344
#     4   9  18  30  51  76 104 134 179 227 275 322
#     4  10  19  36  55  78 115 146 191 238 279 340
#
# _framework density 21.990293999999999
#
# number of rings (size 3 to 8) (size 9 to 14) (size 15 to 20)
#    0.000    2.545    1.818    0.273    2.545    0.727 
#    0.000    4.091    0.000    1.091    0.000    5.091 
#    0.000    0.000    0.000    0.000    0.000    0.000 
#
# Total GULP energy -244991.085616 kJ/mol
# GULP energy per Si atom -5567.979219 kJ/mol
# Density = 2.194024 g / cm^3
# Si number density = 21.990294 Si / 1000 Ang^3
#
#
#
# Elastic Constant Matrix: (Units=GPa)
#
#
# Indices 1 2 3 4 5 6 
#
# 1 40.9180 34.2137 24.2674 0.0000 0.0000 0.0000
# 2 34.2137 63.5425 26.1387 0.0000 0.0000 0.0000
# 3 24.2674 26.1387 78.0465 0.0000 0.0000 0.0000
# 4 0.0000 0.0000 0.0000 26.1707 0.0000 0.0000
# 5 0.0000 0.0000 0.0000 0.0000 0.4395 0.0000
# 6 0.0000 0.0000 0.0000 0.0000 0.0000 12.9554
#
#
#
# Elastic Compliance Matrix: (Units=1/GPa)
#
#
# Indices 1 2 3 4 5 6 
#
# 1 0.047728 -0.022725 -0.007230 0.000000 0.000000 0.000000
# 2 -0.022725 0.029072 -0.002671 0.000000 0.000000 0.000000
# 3 -0.007230 -0.002671 0.015955 0.000000 0.000000 0.000000
# 4 0.000000 0.000000 0.000000 0.038211 0.000000 0.000000
# 5 0.000000 0.000000 0.000000 0.000000 2.275188 0.000000
# 6 0.000000 0.000000 0.000000 0.000000 0.000000 0.077188
#
#
# Mechanical properties :
#
#
# Convention : Reuss Voigt Hill
#
# Bulk Modulus (GPa) = 36.35643 39.08296 37.71970
# Shear Modulus (GPa) = 1.95484 14.43894 8.19689
#
# Velocity S-wave (km/s) = 0.94387 2.56521 1.93277
# Velocity P-wave (km/s) = 4.21387 5.15608 4.70860
#
# Compressibility (1/GPa) = 0.02750545
#
# Stress axis : x y z
#
# Youngs Moduli (GPa) = 20.95201 34.39742 62.67537
#
# Poissons Ratio (x) = 0.78167 0.45312
# Poissons Ratio (y) = 0.47613 0.16738
# Poissons Ratio (z) = 0.15147 0.09186
#
# Static dielectric constant tensor:
#      x y z
#    x 1.840190 0.000000 0.000000 
#    y 0.000000 1.806990 0.000000 
#    z 0.000000 0.000000 1.769620 
# 
# From -- ./inp_files/48035.got.cif
#   From: 2010.05.17/outbox.cif.g08.bks.cpg/sg72_25_cif.got.tgz:48035.got - 2010.06.03 17:03:01.
