data_PCOD9526057
_publ_section_title
;
Structure prediction by ZEFSAII (Michael W. Deem and Ramdas Pophale) SiO2 
 PCOD9526057
Probable space group: I B A M
;
_chemical_formula_sum "Si O2"
_cell_formula_units_Z 96
_cell_length_a 20.377817
_cell_length_b 29.028778
_cell_length_c 8.839075
_cell_angle_alpha 90.000000
_cell_angle_beta 90.000000
_cell_angle_gamma 90.000000
_cell_volume 5228.694055
_symmetry_space_group_name_H-M "I B A M"
_symmetry_group_IT_number 72
_symmetry_cell_setting 'orthorhombic'
loop_
_space_group_symop_operation_xyz
x,y,z
-x,-y,z
x,-y,1/2-z
-x,y,1/2-z
-x,-y,-z
x,y,-z
-x,y,1/2+z
x,-y,1/2+z
1/2+x,1/2+y,1/2+z
1/2-x,1/2-y,1/2+z
1/2+x,1/2-y,-z
1/2-x,1/2+y,-z
1/2-x,1/2-y,1/2-z
1/2+x,1/2+y,1/2-z
1/2-x,1/2+y,z
1/2+x,1/2-y,z
loop_
_atom_site_type_symbol
_atom_site_label
_atom_site_fract_x
_atom_site_fract_y
_atom_site_fract_z
Si Si1 0.190781 0.094391 0.677008
Si Si2 0.151233 0.278178 0.673417
Si Si3 0.666886 0.948941 0.681868
Si Si4 0.696714 0.690322 0.328672
Si Si5 0.927090 0.370461 0.817307
Si Si6 0.935013 0.050721 0.678571
O O1 0.178023 0.085913 0.500000
O O2 0.259947 0.070261 0.715879
O O3 0.193903 0.148355 0.712944
O O4 0.131655 0.075192 0.775660
O O5 0.132940 0.266559 0.500000
O O6 0.227319 0.293896 0.670944
O O7 0.151683 0.232961 0.776970
O O8 0.107957 0.321815 0.723303
O O9 0.659380 0.950392 0.500000
O O10 0.615695 0.912597 0.751838
O O11 0.658917 0.000000 0.750000
O O12 0.680370 0.675647 0.500000
O O13 0.000000 0.371908 0.750000
O O14 0.928309 0.373413 0.000000
O O15 0.942592 0.047586 0.500000
O O16 0.000000 0.073466 0.750000
O O17 0.930964 0.000000 0.750000
#
# Coordination Sequence:
#
# PCOD9526057 Si02
#       6
#    16  16  16  16  16  16
#     4  11  22  37  59  89 122 157 197 245 297 353
#     4   9  19  36  57  84 116 151 189 237 290 348
#     4  11  24  40  61  88 119 156 201 253 305 357
#     4  10  19  33  58  88 117 149 190 239 290 346
#     4  11  23  41  63  87 120 158 201 249 303 363
#     4  11  22  38  59  83 115 154 197 239 289 350
#
# _framework density 18.360226000000001
#
# number of rings (size 3 to 8) (size 9 to 14) (size 15 to 20)
#    0.000    1.500    1.667    4.500    0.000    5.667 
#    0.000    2.500    0.000    2.000    0.000    0.000 
#    0.000    0.000    0.000    0.000    0.000    0.000 
#
# Total GULP energy -268034.684719 kJ/mol
# GULP energy per Si atom -5584.055932 kJ/mol
# Density = 1.831844 g / cm^3
# Si number density = 18.360226 Si / 1000 Ang^3
#
#
#
# Elastic Constant Matrix: (Units=GPa)
#
#
# Indices 1 2 3 4 5 6 
#
# 1 114.5273 51.2197 55.8377 0.0000 0.0000 0.0000
# 2 51.2197 87.6181 30.3951 0.0000 0.0000 0.0000
# 3 55.8377 30.3951 92.2032 0.0000 0.0000 0.0000
# 4 0.0000 0.0000 0.0000 30.5301 0.0000 0.0000
# 5 0.0000 0.0000 0.0000 0.0000 29.0797 0.0000
# 6 0.0000 0.0000 0.0000 0.0000 0.0000 8.3357
#
#
#
# Elastic Compliance Matrix: (Units=1/GPa)
#
#
# Indices 1 2 3 4 5 6 
#
# 1 0.014962 -0.006327 -0.006975 0.000000 0.000000 0.000000
# 2 -0.006327 0.015562 -0.001299 0.000000 0.000000 0.000000
# 3 -0.006975 -0.001299 0.015498 0.000000 0.000000 0.000000
# 4 0.000000 0.000000 0.000000 0.032755 0.000000 0.000000
# 5 0.000000 0.000000 0.000000 0.000000 0.034388 0.000000
# 6 0.000000 0.000000 0.000000 0.000000 0.000000 0.119967
#
#
# Mechanical properties :
#
#
# Convention : Reuss Voigt Hill
#
# Bulk Modulus (GPa) = 59.45058 63.25041 61.35049
# Shear Modulus (GPa) = 18.66097 24.04883 21.35490
#
# Velocity S-wave (km/s) = 3.19153 3.62309 3.41414
# Velocity P-wave (km/s) = 6.78465 7.21296 7.00208
#
# Compressibility (1/GPa) = 0.01682070
#
# Stress axis : x y z
#
# Youngs Moduli (GPa) = 66.83739 64.25867 64.52503
#
# Poissons Ratio (x) = 0.40654 0.45007
# Poissons Ratio (y) = 0.42285 0.08380
# Poissons Ratio (z) = 0.46620 0.08346
#
# Static dielectric constant tensor:
#      x y z
#    x 1.623840 0.000000 0.000000 
#    y 0.000000 1.647200 0.000000 
#    z 0.000000 0.000000 1.623420 
# 
# From -- ./inp_files/7102.got.cif
#   From: 2010.05.17/outbox.cif.g08.bks.cpg/sg72_4_cif.got.tgz:7102.got - 2010.06.03 17:03:01.
