data_PCOD9526852
_publ_section_title
;
Structure prediction by ZEFSAII (Michael W. Deem and Ramdas Pophale) SiO2 
 PCOD9526852
Probable space group: I B A M
;
_chemical_formula_sum "Si O2"
_cell_formula_units_Z 120
_cell_length_a 23.025834
_cell_length_b 25.781345
_cell_length_c 9.561067
_cell_angle_alpha 90.000000
_cell_angle_beta 90.000000
_cell_angle_gamma 90.000000
_cell_volume 5675.802846
_symmetry_space_group_name_H-M "I B A M"
_symmetry_group_IT_number 72
_symmetry_cell_setting 'orthorhombic'
loop_
_space_group_symop_operation_xyz
x,y,z
-x,-y,z
x,-y,1/2-z
-x,y,1/2-z
-x,-y,-z
x,y,-z
-x,y,1/2+z
x,-y,1/2+z
1/2+x,1/2+y,1/2+z
1/2-x,1/2-y,1/2+z
1/2+x,1/2-y,-z
1/2-x,1/2+y,-z
1/2-x,1/2-y,1/2-z
1/2+x,1/2+y,1/2-z
1/2-x,1/2+y,z
1/2+x,1/2-y,z
loop_
_atom_site_type_symbol
_atom_site_label
_atom_site_fract_x
_atom_site_fract_y
_atom_site_fract_z
Si Si1 0.000000 0.385915 0.250000
Si Si2 0.385249 0.947650 0.836683
Si Si3 0.081180 0.698857 0.849631
Si Si4 0.672514 0.545699 0.663643
Si Si5 0.598572 0.687904 0.843063
Si Si6 0.320735 0.843475 0.834466
Si Si7 0.708686 0.335442 0.161090
Si Si8 0.556599 0.426599 0.335386
O O1 0.051352 0.421536 0.189483
O O2 0.031854 0.344636 0.350036
O O3 0.337748 0.903457 0.801216
O O4 0.379529 0.000000 0.750000
O O5 0.380021 0.959521 0.000000
O O6 0.063191 0.758654 0.836245
O O7 0.123625 0.687012 0.722363
O O8 0.112757 0.694186 0.000000
O O9 0.703993 0.500000 0.750000
O O10 0.663242 0.531947 0.500000
O O11 0.702595 0.601743 0.665345
O O12 0.613058 0.554304 0.751193
O O13 0.650438 0.686540 0.731706
O O14 0.561239 0.636032 0.829504
O O15 0.624967 0.685119 0.000000
O O16 0.264900 0.823482 0.752503
O O17 0.313574 0.838899 0.000000
O O18 0.713816 0.319136 0.000000
O O19 0.500000 0.442693 0.250000
O O20 0.555982 0.441651 0.500000
#
# Coordination Sequence:
#
# PCOD9526852 Si02
#       8
#     8  16  16  16  16  16  16  16
#     4  10  21  36  60  86 118 152 191 240 286 336
#     4  10  22  38  57  84 115 151 192 234 284 339
#     4  10  21  38  59  84 114 150 193 235 280 336
#     4  10  21  37  57  82 110 142 183 227 278 334
#     4   9  20  37  57  83 113 149 189 231 281 335
#     4  10  22  39  58  83 114 147 187 236 285 335
#     4  10  21  38  60  84 112 147 186 231 283 340
#     4  10  20  35  55  80 112 146 184 228 275 328
#
# _framework density 21.142384
#
# number of rings (size 3 to 8) (size 9 to 14) (size 15 to 20)
#    0.000    2.133    0.000    2.200    0.933    8.267 
#    0.000    4.000    0.000    0.000    0.000    0.000 
#    0.000    0.000    0.000    0.000    0.000    0.000 
#
# Total GULP energy -334865.119761 kJ/mol
# GULP energy per Si atom -5581.085329 kJ/mol
# Density = 2.109426 g / cm^3
# Si number density = 21.142384 Si / 1000 Ang^3
#
#
#
# Elastic Constant Matrix: (Units=GPa)
#
#
# Indices 1 2 3 4 5 6 
#
# 1 46.7952 -21.5473 32.4300 0.0000 0.0000 0.0000
# 2 -21.5473 91.8439 26.4995 0.0000 0.0000 0.0000
# 3 32.4300 26.4995 126.5886 0.0000 0.0000 0.0000
# 4 0.0000 0.0000 0.0000 22.5444 0.0000 0.0000
# 5 0.0000 0.0000 0.0000 0.0000 27.5869 0.0000
# 6 0.0000 0.0000 0.0000 0.0000 0.0000 -13.6396
#
#
#
# Elastic Compliance Matrix: (Units=1/GPa)
#
#
# Indices 1 2 3 4 5 6 
#
# 1 0.034267 0.011252 -0.011134 0.000000 0.000000 0.000000
# 2 0.011252 0.015282 -0.006082 0.000000 0.000000 0.000000
# 3 -0.011134 -0.006082 0.012025 0.000000 0.000000 0.000000
# 4 0.000000 0.000000 0.000000 0.044357 0.000000 0.000000
# 5 0.000000 0.000000 0.000000 0.000000 0.036249 0.000000
# 6 0.000000 0.000000 0.000000 0.000000 0.000000 -0.073316
#
#
# Mechanical properties :
#
#
# Convention : Reuss Voigt Hill
#
# Bulk Modulus (GPa) = 20.14249 37.77691 28.95970
# Shear Modulus (GPa) = 51.36581 22.48804 36.92693
#
# Velocity S-wave (km/s) = 4.93436 3.26490 4.18375
# Velocity P-wave (km/s) = 6.48164 5.66740 6.08815
#
# Compressibility (1/GPa) = 0.04964630
#
# Stress axis : x y z
#
# Youngs Moduli (GPa) = 29.18290 65.43436 83.15975
#
# Poissons Ratio (x) = -0.73624 0.92590
# Poissons Ratio (y) = -0.32836 0.50575
# Poissons Ratio (z) = 0.32492 0.39795
#
# Static dielectric constant tensor:
#      x y z
#    x 1.742170 0.000000 0.000000 
#    y 0.000000 1.793700 0.000000 
#    z 0.000000 0.000000 1.801060 
# 
# From -- ./inp_files/8599.got.cif
#   From: 2010.05.17/outbox.cif.g08.bks.cpg/sg72_5_cif.got.tgz:8599.got - 2010.06.03 17:03:01.
