data_PCOD9526813
_publ_section_title
;
Structure prediction by ZEFSAII (Michael W. Deem and Ramdas Pophale) SiO2 
 PCOD9526813
Probable space group: I B A M
;
_chemical_formula_sum "Si O2"
_cell_formula_units_Z 116
_cell_length_a 32.567696
_cell_length_b 23.045689
_cell_length_c 8.068962
_cell_angle_alpha 90.000000
_cell_angle_beta 90.000000
_cell_angle_gamma 90.000000
_cell_volume 6056.119032
_symmetry_space_group_name_H-M "I B A M"
_symmetry_group_IT_number 72
_symmetry_cell_setting 'orthorhombic'
loop_
_space_group_symop_operation_xyz
x,y,z
-x,-y,z
x,-y,1/2-z
-x,y,1/2-z
-x,-y,-z
x,y,-z
-x,y,1/2+z
x,-y,1/2+z
1/2+x,1/2+y,1/2+z
1/2-x,1/2-y,1/2+z
1/2+x,1/2-y,-z
1/2-x,1/2+y,-z
1/2-x,1/2-y,1/2-z
1/2+x,1/2+y,1/2-z
1/2-x,1/2+y,z
1/2+x,1/2-y,z
loop_
_atom_site_type_symbol
_atom_site_label
_atom_site_fract_x
_atom_site_fract_y
_atom_site_fract_z
Si Si1 0.660400 0.564989 0.200243
Si Si2 0.307196 0.203501 0.700101
Si Si3 0.500000 0.500000 0.750000
Si Si4 0.930325 0.098772 0.198832
Si Si5 0.453775 0.727167 0.301331
Si Si6 0.395764 0.168157 0.300882
Si Si7 0.953483 0.434029 0.302218
Si Si8 0.217569 0.169308 0.299724
O O1 0.671566 0.500000 0.250000
O O2 0.614399 0.579717 0.262323
O O3 0.692399 0.613585 0.259448
O O4 0.659497 0.567592 0.000000
O O5 0.307246 0.200553 0.500000
O O6 0.349346 0.175426 0.762538
O O7 0.264754 0.174136 0.759130
O O8 0.304511 0.271033 0.748744
O O9 0.464493 0.550301 0.729759
O O10 0.943464 0.162229 0.262029
O O11 0.927007 0.103771 0.000000
O O12 0.500000 0.742599 0.250000
O O13 0.451641 0.726792 0.500000
O O14 0.421623 0.774141 0.236865
O O15 0.393293 0.162299 0.500000
O O16 0.421110 0.112868 0.235764
O O17 0.944728 0.500000 0.250000
O O18 0.952509 0.432092 0.500000
O O19 0.000000 0.419457 0.250000
O O20 0.218298 0.167626 0.500000
#
# Coordination Sequence:
#
# PCOD9526813 Si02
#       8
#    16  16   4  16  16  16  16  16
#     4  10  20  35  52  74 102 135 174 216 263 311
#     4   9  18  34  56  80 104 134 171 212 262 317
#     4  12  18  36  52  66 100 140 184 220 258 304
#     4  10  21  34  50  72 101 139 181 222 263 308
#     4  11  22  36  53  77 108 142 181 223 267 312
#     4  10  21  36  54  80 110 139 173 216 265 316
#     4  10  20  35  55  77 104 137 174 211 251 307
#     4   9  18  34  56  78 104 135 170 216 266 314
#
# _framework density 19.154181000000001
#
# number of rings (size 3 to 8) (size 9 to 14) (size 15 to 20)
#    0.000    2.069    1.379    2.690    0.000    4.414 
#    0.000    2.069    0.000    0.000    0.000    0.000 
#    0.000    0.000    0.000    0.000    0.000    0.000 
#
# Total GULP energy -323318.814444 kJ/mol
# GULP energy per Si atom -5574.462318 kJ/mol
# Density = 1.911058 g / cm^3
# Si number density = 19.154181 Si / 1000 Ang^3
#
#
#
# Elastic Constant Matrix: (Units=GPa)
#
#
# Indices 1 2 3 4 5 6 
#
# 1 184.6623 127.3536 7.2685 0.0000 0.0000 0.0000
# 2 127.3536 140.4143 0.9584 0.0000 0.0000 0.0000
# 3 7.2685 0.9584 15.2305 0.0000 0.0000 0.0000
# 4 0.0000 0.0000 0.0000 -3.0910 0.0000 0.0000
# 5 0.0000 0.0000 0.0000 0.0000 14.4188 0.0000
# 6 0.0000 0.0000 0.0000 0.0000 0.0000 24.2725
#
#
#
# Elastic Compliance Matrix: (Units=1/GPa)
#
#
# Indices 1 2 3 4 5 6 
#
# 1 0.015046 -0.013603 -0.006324 0.000000 0.000000 0.000000
# 2 -0.013603 0.019424 0.005270 0.000000 0.000000 0.000000
# 3 -0.006324 0.005270 0.068344 0.000000 0.000000 0.000000
# 4 0.000000 0.000000 0.000000 -0.323517 0.000000 0.000000
# 5 0.000000 0.000000 0.000000 0.000000 0.069354 0.000000
# 6 0.000000 0.000000 0.000000 0.000000 0.000000 0.041199
#
#
# Mechanical properties :
#
#
# Convention : Reuss Voigt Hill
#
# Bulk Modulus (GPa) = 13.60584 67.94089 40.77337
# Shear Modulus (GPa) = -88.75185 20.76851 -33.99167
#
# Velocity S-wave (km/s) = -6.81440 3.29641 -4.21721
# Velocity P-wave (km/s) = 7.40243 7.07361 1.54273
#
# Compressibility (1/GPa) = 0.07349783
#
# Stress axis : x y z
#
# Youngs Moduli (GPa) = 66.46460 51.48403 14.63184
#
# Poissons Ratio (x) = 0.70034 0.09254
# Poissons Ratio (y) = 0.90412 -0.07710
# Poissons Ratio (z) = 0.42034 -0.27130
#
# Static dielectric constant tensor:
#      x y z
#    x 1.671480 0.000000 0.000000 
#    y 0.000000 1.649050 0.000000 
#    z 0.000000 0.000000 1.698700 
# 
# From -- ./inp_files/7508.got.cif
#   From: 2010.05.17/outbox.cif.g08.bks.cpg/sg72_4_cif.got.tgz:7508.got - 2010.06.03 17:03:01.
