data_PCOD9526889
_publ_section_title
;
Structure prediction by ZEFSAII (Michael W. Deem and Ramdas Pophale) SiO2 
 PCOD9526889
Probable space group: I B A M
;
_chemical_formula_sum "Si O2"
_cell_formula_units_Z 96
_cell_length_a 23.673451
_cell_length_b 13.660166
_cell_length_c 14.318733
_cell_angle_alpha 90.000000
_cell_angle_beta 90.000000
_cell_angle_gamma 90.000000
_cell_volume 4630.438706
_symmetry_space_group_name_H-M "I B A M"
_symmetry_group_IT_number 72
_symmetry_cell_setting 'orthorhombic'
loop_
_space_group_symop_operation_xyz
x,y,z
-x,-y,z
x,-y,1/2-z
-x,y,1/2-z
-x,-y,-z
x,y,-z
-x,y,1/2+z
x,-y,1/2+z
1/2+x,1/2+y,1/2+z
1/2-x,1/2-y,1/2+z
1/2+x,1/2-y,-z
1/2-x,1/2+y,-z
1/2-x,1/2-y,1/2-z
1/2+x,1/2+y,1/2-z
1/2-x,1/2+y,z
1/2+x,1/2-y,z
loop_
_atom_site_type_symbol
_atom_site_label
_atom_site_fract_x
_atom_site_fract_y
_atom_site_fract_z
Si Si1 0.076608 0.269253 0.890109
Si Si2 0.137622 0.658922 0.784135
Si Si3 0.241202 0.866027 0.259302
Si Si4 0.363673 0.574457 0.890100
Si Si5 0.841069 0.863587 0.389773
Si Si6 0.530260 0.895831 0.108269
O O1 0.122208 0.320682 0.823450
O O2 0.086916 0.153558 0.875472
O O3 0.015037 0.311716 0.865952
O O4 0.085614 0.290665 0.000000
O O5 0.197024 0.603331 0.792546
O O6 0.140297 0.764656 0.837573
O O7 0.085436 0.604283 0.829630
O O8 0.250000 0.750000 0.250000
O O9 0.190113 0.892783 0.328348
O O10 0.218830 0.894469 0.156823
O O11 0.378154 0.460907 0.871096
O O12 0.348126 0.579425 0.000000
O O13 0.837642 0.846232 0.500000
O O14 0.500000 0.000000 0.116030
O O15 0.546023 0.880016 0.000000
#
# Coordination Sequence:
#
# PCOD9526889 Si02
#       6
#    16  16  16  16  16  16
#     4  10  21  38  62  88 120 163 205 252 311 363
#     4  11  22  39  63  92 120 167 208 258 307 371
#     4  10  20  35  56  89 120 161 203 253 305 369
#     4  10  20  38  60  87 127 165 201 251 310 374
#     4  10  21  37  60  90 129 167 202 255 314 376
#     4  10  23  45  66  90 125 163 210 263 311 365
#
# _framework density 20.732377
#
# number of rings (size 3 to 8) (size 9 to 14) (size 15 to 20)
#    0.000    1.833    3.333    1.500    0.000    5.333 
#    6.000    0.833    0.000    6.000    0.000    0.000 
#    0.000    0.000    0.000    0.000    0.000    0.000 
#
# Total GULP energy -267743.930994 kJ/mol
# GULP energy per Si atom -5577.998562 kJ/mol
# Density = 2.068519 g / cm^3
# Si number density = 20.732377 Si / 1000 Ang^3
#
#
#
# Elastic Constant Matrix: (Units=GPa)
#
#
# Indices 1 2 3 4 5 6 
#
# 1 67.3854 4.0630 25.1933 0.0000 0.0000 0.0000
# 2 4.0630 67.5711 13.8669 0.0000 0.0000 0.0000
# 3 25.1933 13.8669 81.8290 0.0000 0.0000 0.0000
# 4 0.0000 0.0000 0.0000 21.3614 0.0000 0.0000
# 5 0.0000 0.0000 0.0000 0.0000 23.2330 0.0000
# 6 0.0000 0.0000 0.0000 0.0000 0.0000 24.1104
#
#
#
# Elastic Compliance Matrix: (Units=1/GPa)
#
#
# Indices 1 2 3 4 5 6 
#
# 1 0.016771 0.000053 -0.005172 0.000000 0.000000 0.000000
# 2 0.000053 0.015333 -0.002615 0.000000 0.000000 0.000000
# 3 -0.005172 -0.002615 0.014256 0.000000 0.000000 0.000000
# 4 0.000000 0.000000 0.000000 0.046813 0.000000 0.000000
# 5 0.000000 0.000000 0.000000 0.000000 0.043042 0.000000
# 6 0.000000 0.000000 0.000000 0.000000 0.000000 0.041476
#
#
# Mechanical properties :
#
#
# Convention : Reuss Voigt Hill
#
# Bulk Modulus (GPa) = 32.37127 33.67020 33.02074
# Shear Modulus (GPa) = 24.57537 25.31844 24.94691
#
# Velocity S-wave (km/s) = 3.44664 3.49836 3.47260
# Velocity P-wave (km/s) = 5.61132 5.70909 5.66042
#
# Compressibility (1/GPa) = 0.03089159
#
# Stress axis : x y z
#
# Youngs Moduli (GPa) = 59.62833 65.22049 70.14538
#
# Poissons Ratio (x) = -0.00346 0.36281
# Poissons Ratio (y) = -0.00316 0.18340
# Poissons Ratio (z) = 0.30841 0.17053
#
# Static dielectric constant tensor:
#      x y z
#    x 1.757100 0.000000 0.000000 
#    y 0.000000 1.812360 0.000000 
#    z 0.000000 0.000000 1.753340 
# 
# From -- ./inp_files/24135.got.cif
#   From: 2010.05.17/outbox.cif.g08.bks.cpg/sg72_13_cif.got.tgz:24135.got - 2010.06.03 17:03:01.
