data_PCOD9526065
_publ_section_title
;
Structure prediction by ZEFSAII (Michael W. Deem and Ramdas Pophale) SiO2 
 PCOD9526065
Probable space group: I B A M
;
_chemical_formula_sum "Si O2"
_cell_formula_units_Z 64
_cell_length_a 20.403035
_cell_length_b 10.314319
_cell_length_c 13.582302
_cell_angle_alpha 90.000000
_cell_angle_beta 90.000000
_cell_angle_gamma 90.000000
_cell_volume 2858.305970
_symmetry_space_group_name_H-M "I B A M"
_symmetry_group_IT_number 72
_symmetry_cell_setting 'orthorhombic'
loop_
_space_group_symop_operation_xyz
x,y,z
-x,-y,z
x,-y,1/2-z
-x,y,1/2-z
-x,-y,-z
x,y,-z
-x,y,1/2+z
x,-y,1/2+z
1/2+x,1/2+y,1/2+z
1/2-x,1/2-y,1/2+z
1/2+x,1/2-y,-z
1/2-x,1/2+y,-z
1/2-x,1/2-y,1/2-z
1/2+x,1/2+y,1/2-z
1/2-x,1/2+y,z
1/2+x,1/2-y,z
loop_
_atom_site_type_symbol
_atom_site_label
_atom_site_fract_x
_atom_site_fract_y
_atom_site_fract_z
Si Si1 0.000000 0.325120 0.250000
Si Si2 0.114103 0.629352 0.886474
Si Si3 0.171858 0.088658 0.612459
Si Si4 0.278675 0.000000 0.250000
Si Si5 0.056750 0.106840 0.115433
O O1 0.951115 0.396096 0.175559
O O2 0.955284 0.230347 0.317319
O O3 0.126706 0.784197 0.885239
O O4 0.175141 0.567126 0.830130
O O5 0.109445 0.587743 0.000000
O O6 0.196732 0.076923 0.500000
O O7 0.230637 0.094249 0.689232
O O8 0.125572 0.964969 0.633000
O O9 0.052561 0.141879 0.000000
O O10 0.000000 0.000000 0.133709
#
# Coordination Sequence:
#
# PCOD9526065 Si02
#       5
#     8  16  16   8  16
#     4  12  21  37  64  94 122 169 202 249 306 368
#     4  11  25  43  64  91 122 156 205 260 305 366
#     4  10  21  38  63  94 125 157 201 256 307 360
#     4  12  24  43  61  86 122 176 206 242 300 372
#     4  10  19  33  59  97 132 157 194 255 312 356
#
# _framework density 22.390885000000001
#
# number of rings (size 3 to 8) (size 9 to 14) (size 15 to 20)
#    0.000    1.250    2.500    4.125    0.000    0.500 
#    0.000    8.750    0.000    0.000    0.000    0.000 
#    0.000    0.000    0.000    0.000    0.000    0.000 
#
# Total GULP energy -179168.930463 kJ/mol
# GULP energy per Si atom -5599.029077 kJ/mol
# Density = 2.233992 g / cm^3
# Si number density = 22.390885 Si / 1000 Ang^3
#
#
#
# Elastic Constant Matrix: (Units=GPa)
#
#
# Indices 1 2 3 4 5 6 
#
# 1 116.2750 21.5419 88.5462 0.0000 0.0000 0.0000
# 2 21.5419 27.9552 27.2693 0.0000 0.0000 0.0000
# 3 88.5462 27.2693 195.4521 0.0000 0.0000 0.0000
# 4 0.0000 0.0000 0.0000 22.6222 0.0000 0.0000
# 5 0.0000 0.0000 0.0000 0.0000 35.1218 0.0000
# 6 0.0000 0.0000 0.0000 0.0000 0.0000 26.0441
#
#
#
# Elastic Compliance Matrix: (Units=1/GPa)
#
#
# Indices 1 2 3 4 5 6 
#
# 1 0.013762 -0.005236 -0.005504 0.000000 0.000000 0.000000
# 2 -0.005236 0.043399 -0.003683 0.000000 0.000000 0.000000
# 3 -0.005504 -0.003683 0.008124 0.000000 0.000000 0.000000
# 4 0.000000 0.000000 0.000000 0.044204 0.000000 0.000000
# 5 0.000000 0.000000 0.000000 0.000000 0.028472 0.000000
# 6 0.000000 0.000000 0.000000 0.000000 0.000000 0.038396
#
#
# Mechanical properties :
#
#
# Convention : Reuss Voigt Hill
#
# Bulk Modulus (GPa) = 27.44329 68.26636 47.85482
# Shear Modulus (GPa) = 23.00446 30.24594 26.62520
#
# Velocity S-wave (km/s) = 3.20879 3.67933 3.45209
# Velocity P-wave (km/s) = 5.10015 6.97170 6.10803
#
# Compressibility (1/GPa) = 0.03643879
#
# Stress axis : x y z
#
# Youngs Moduli (GPa) = 72.66514 23.04212 123.09631
#
# Poissons Ratio (x) = 0.12064 0.67753
# Poissons Ratio (y) = 0.38045 0.45337
# Poissons Ratio (z) = 0.39995 0.08487
#
# Static dielectric constant tensor:
#      x y z
#    x 1.793060 0.000000 0.000000 
#    y 0.000000 1.850840 0.000000 
#    z 0.000000 0.000000 1.828480 
# 
# From -- ./inp_files/22829.got.cif
#   From: 2010.05.17/outbox.cif.g08.bks.cpg/sg72_12_cif.got.tgz:22829.got - 2010.06.03 17:03:01.
