data_PCOD9526725
_publ_section_title
;
Structure prediction by ZEFSAII (Michael W. Deem and Ramdas Pophale) SiO2 
 PCOD9526725
Probable space group: I B A M
;
_chemical_formula_sum "Si O2"
_cell_formula_units_Z 128
_cell_length_a 21.333182
_cell_length_b 18.384247
_cell_length_c 15.030662
_cell_angle_alpha 90.000000
_cell_angle_beta 90.000000
_cell_angle_gamma 90.000000
_cell_volume 5894.942775
_symmetry_space_group_name_H-M "I B A M"
_symmetry_group_IT_number 72
_symmetry_cell_setting 'orthorhombic'
loop_
_space_group_symop_operation_xyz
x,y,z
-x,-y,z
x,-y,1/2-z
-x,y,1/2-z
-x,-y,-z
x,y,-z
-x,y,1/2+z
x,-y,1/2+z
1/2+x,1/2+y,1/2+z
1/2-x,1/2-y,1/2+z
1/2+x,1/2-y,-z
1/2-x,1/2+y,-z
1/2-x,1/2-y,1/2-z
1/2+x,1/2+y,1/2-z
1/2-x,1/2+y,z
1/2+x,1/2-y,z
loop_
_atom_site_type_symbol
_atom_site_label
_atom_site_fract_x
_atom_site_fract_y
_atom_site_fract_z
Si Si1 0.141119 0.342340 0.153121
Si Si2 0.510065 0.780979 0.350905
Si Si3 0.779973 0.059886 0.390863
Si Si4 0.495922 0.381592 0.392156
Si Si5 0.377587 0.836606 0.366365
Si Si6 0.645430 0.992861 0.150685
Si Si7 0.596015 0.513170 0.107815
Si Si8 0.762201 0.779527 0.103020
O O1 0.075568 0.312217 0.113575
O O2 0.130320 0.342291 0.259558
O O3 0.147310 0.424512 0.116604
O O4 0.202313 0.290675 0.142125
O O5 0.500000 0.807896 0.250000
O O6 0.519028 0.694879 0.351162
O O7 0.442366 0.798210 0.393582
O O8 0.773225 0.059224 0.500000
O O9 0.791214 0.143730 0.363712
O O10 0.717053 0.033020 0.346337
O O11 0.834820 0.005790 0.364371
O O12 0.494378 0.374379 0.500000
O O13 0.563433 0.412745 0.363227
O O14 0.447302 0.444747 0.367568
O O15 0.313333 0.794084 0.392739
O O16 0.382934 0.921439 0.396516
O O17 0.617616 0.000000 0.250000
O O18 0.595295 0.514854 0.000000
O O19 0.778308 0.774428 0.000000
#
# Coordination Sequence:
#
# PCOD9526725 Si02
#       8
#    16  16  16  16  16  16  16  16
#     4  10  20  35  56  79 104 136 176 219 258 306
#     4  10  21  35  52  76 105 137 173 215 262 308
#     4   9  17  31  50  72 101 133 166 207 255 308
#     4   9  17  31  50  71  98 132 170 207 247 303
#     4   9  20  38  55  75 107 141 172 213 264 310
#     4   9  19  35  53  73  97 130 172 213 256 304
#     4   8  15  29  49  71  97 132 167 201 247 303
#     4  10  20  34  55  81 107 138 173 211 260 313
#
# _framework density 21.713526999999999
#
# number of rings (size 3 to 8) (size 9 to 14) (size 15 to 20)
#    0.000    2.750    0.000    1.875    0.000    4.000 
#    0.000    8.750    0.000    0.000    0.000    5.250 
#    0.000    0.000    0.000    0.000    0.000    0.000 
#
# Total GULP energy -356451.198311 kJ/mol
# GULP energy per Si atom -5569.549974 kJ/mol
# Density = 2.166411 g / cm^3
# Si number density = 21.713527 Si / 1000 Ang^3
#
#
#
# Elastic Constant Matrix: (Units=GPa)
#
#
# Indices 1 2 3 4 5 6 
#
# 1 54.8764 26.5120 -7.3686 0.0000 0.0000 0.0000
# 2 26.5120 122.2930 -3.2858 0.0000 0.0000 0.0000
# 3 -7.3686 -3.2858 44.4506 0.0000 0.0000 0.0000
# 4 0.0000 0.0000 0.0000 -95.7126 0.0000 0.0000
# 5 0.0000 0.0000 0.0000 0.0000 -3.6268 0.0000
# 6 0.0000 0.0000 0.0000 0.0000 0.0000 26.9594
#
#
#
# Elastic Compliance Matrix: (Units=1/GPa)
#
#
# Indices 1 2 3 4 5 6 
#
# 1 0.020777 -0.004421 0.003117 0.000000 0.000000 0.000000
# 2 -0.004421 0.009134 -0.000058 0.000000 0.000000 0.000000
# 3 0.003117 -0.000058 0.023009 0.000000 0.000000 0.000000
# 4 0.000000 0.000000 0.000000 -0.010448 0.000000 0.000000
# 5 0.000000 0.000000 0.000000 0.000000 -0.275728 0.000000
# 6 0.000000 0.000000 0.000000 0.000000 0.000000 0.037093
#
#
# Mechanical properties :
#
#
# Convention : Reuss Voigt Hill
#
# Bulk Modulus (GPa) = 19.92074 28.14837 24.03455
# Shear Modulus (GPa) = -28.29512 -0.75850 -14.52681
#
# Velocity S-wave (km/s) = -3.61378 -0.59168 -2.58935
# Velocity P-wave (km/s) = 2.86675 3.53905 1.46742
#
# Compressibility (1/GPa) = 0.05019895
#
# Stress axis : x y z
#
# Youngs Moduli (GPa) = 48.13014 109.48276 43.46045
#
# Poissons Ratio (x) = 0.48397 -0.13549
# Poissons Ratio (y) = 0.21276 0.00250
# Poissons Ratio (z) = -0.15004 0.00631
#
# Static dielectric constant tensor:
#      x y z
#    x 1.804570 0.000000 0.000000 
#    y 0.000000 1.812870 0.000000 
#    z 0.000000 0.000000 1.879670 
# 
# From -- ./inp_files/39945.got.cif
#   From: 2010.05.17/outbox.cif.g08.bks.cpg/sg72_20_cif.got.tgz:39945.got - 2010.06.03 17:03:01.
