data_PCOD9526247
_publ_section_title
;
Structure prediction by ZEFSAII (Michael W. Deem and Ramdas Pophale) SiO2 
 PCOD9526247
Probable space group: I B A M
;
_chemical_formula_sum "Si O2"
_cell_formula_units_Z 96
_cell_length_a 30.276478
_cell_length_b 9.709234
_cell_length_c 18.279189
_cell_angle_alpha 90.000000
_cell_angle_beta 90.000000
_cell_angle_gamma 90.000000
_cell_volume 5373.376165
_symmetry_space_group_name_H-M "I B A M"
_symmetry_group_IT_number 72
_symmetry_cell_setting 'orthorhombic'
loop_
_space_group_symop_operation_xyz
x,y,z
-x,-y,z
x,-y,1/2-z
-x,y,1/2-z
-x,-y,-z
x,y,-z
-x,y,1/2+z
x,-y,1/2+z
1/2+x,1/2+y,1/2+z
1/2-x,1/2-y,1/2+z
1/2+x,1/2-y,-z
1/2-x,1/2+y,-z
1/2-x,1/2-y,1/2-z
1/2+x,1/2+y,1/2-z
1/2-x,1/2+y,z
1/2+x,1/2-y,z
loop_
_atom_site_type_symbol
_atom_site_label
_atom_site_fract_x
_atom_site_fract_y
_atom_site_fract_z
Si Si1 0.948826 0.667020 0.834655
Si Si2 0.776739 0.073478 0.673858
Si Si3 0.047598 0.645607 0.159486
Si Si4 0.620556 0.588667 0.323102
Si Si5 0.721611 0.704639 0.913978
Si Si6 0.879894 0.175650 0.083911
O O1 0.941518 0.511565 0.863718
O O2 0.952131 0.650281 0.747136
O O3 0.911433 0.783738 0.842231
O O4 0.998592 0.697325 0.862719
O O5 0.827431 0.124027 0.686741
O O6 0.748296 0.197853 0.641262
O O7 0.762496 0.000000 0.750000
O O8 0.774257 0.952646 0.613237
O O9 0.085419 0.742421 0.131095
O O10 0.607365 0.500000 0.250000
O O11 0.619815 0.480827 0.389144
O O12 0.669413 0.734472 0.907072
O O13 0.734174 0.719362 0.000000
O O14 0.892296 0.185129 0.000000
#
# Coordination Sequence:
#
# PCOD9526247 Si02
#       6
#    16  16  16  16  16  16
#     4   9  18  34  57  80 108 140 187 230 273 321
#     4  10  21  36  56  83 114 142 191 243 285 330
#     4   9  18  35  55  81 108 142 184 230 269 330
#     4  10  19  35  57  83 111 145 186 233 282 333
#     4  10  21  38  57  78 111 154 188 226 288 352
#     4  10  21  37  54  79 114 146 180 230 286 336
#
# _framework density 17.865862
#
# number of rings (size 3 to 8) (size 9 to 14) (size 15 to 20)
#    0.000    2.333    1.667    2.000    0.000    2.667 
#    3.000    4.167    0.000    0.000    0.000    0.000 
#    0.000    0.000    0.000    0.000    0.000    0.000 
#
# Total GULP energy -267263.121022 kJ/mol
# GULP energy per Si atom -5567.981688 kJ/mol
# Density = 1.782520 g / cm^3
# Si number density = 17.865862 Si / 1000 Ang^3
#
#
#
# Elastic Constant Matrix: (Units=GPa)
#
#
# Indices 1 2 3 4 5 6 
#
# 1 69.5510 59.6632 25.3259 0.0000 0.0000 0.0000
# 2 59.6632 79.6809 14.2546 0.0000 0.0000 0.0000
# 3 25.3259 14.2546 36.7497 0.0000 0.0000 0.0000
# 4 0.0000 0.0000 0.0000 15.6015 0.0000 0.0000
# 5 0.0000 0.0000 0.0000 0.0000 11.0460 0.0000
# 6 0.0000 0.0000 0.0000 0.0000 0.0000 27.7984
#
#
#
# Elastic Compliance Matrix: (Units=1/GPa)
#
#
# Indices 1 2 3 4 5 6 
#
# 1 0.053766 -0.036138 -0.023035 0.000000 0.000000 0.000000
# 2 -0.036138 0.037775 0.010252 0.000000 0.000000 0.000000
# 3 -0.023035 0.010252 0.039109 0.000000 0.000000 0.000000
# 4 0.000000 0.000000 0.000000 0.064096 0.000000 0.000000
# 5 0.000000 0.000000 0.000000 0.000000 0.090530 0.000000
# 6 0.000000 0.000000 0.000000 0.000000 0.000000 0.035973
#
#
# Mechanical properties :
#
#
# Convention : Reuss Voigt Hill
#
# Bulk Modulus (GPa) = 30.48055 42.71878 36.59967
# Shear Modulus (GPa) = 11.62709 16.67171 14.14940
#
# Velocity S-wave (km/s) = 2.55384 3.05808 2.81727
# Velocity P-wave (km/s) = 5.07878 6.03588 5.57790
#
# Compressibility (1/GPa) = 0.03280780
#
# Stress axis : x y z
#
# Youngs Moduli (GPa) = 18.59898 26.47229 25.56938
#
# Poissons Ratio (x) = 0.95666 0.58900
# Poissons Ratio (y) = 0.67213 -0.26213
# Poissons Ratio (z) = 0.42844 -0.27139
#
# Static dielectric constant tensor:
#      x y z
#    x 1.622050 0.000000 0.000000 
#    y 0.000000 1.604520 0.000000 
#    z 0.000000 0.000000 1.617020 
# 
# From -- ./inp_files/40709.got.cif
#   From: 2010.05.17/outbox.cif.g08.bks.cpg/sg72_21_cif.got.tgz:40709.got - 2010.06.03 17:03:01.
