data_PCOD9526960
_publ_section_title
;
Structure prediction by ZEFSAII (Michael W. Deem and Ramdas Pophale) SiO2 
 PCOD9526960
Probable space group: I B A M
;
_chemical_formula_sum "Si O2"
_cell_formula_units_Z 100
_cell_length_a 12.513777
_cell_length_b 15.006813
_cell_length_c 26.975592
_cell_angle_alpha 90.000000
_cell_angle_beta 90.000000
_cell_angle_gamma 90.000000
_cell_volume 5065.797982
_symmetry_space_group_name_H-M "I B A M"
_symmetry_group_IT_number 72
_symmetry_cell_setting 'orthorhombic'
loop_
_space_group_symop_operation_xyz
x,y,z
-x,-y,z
x,-y,1/2-z
-x,y,1/2-z
-x,-y,-z
x,y,-z
-x,y,1/2+z
x,-y,1/2+z
1/2+x,1/2+y,1/2+z
1/2-x,1/2-y,1/2+z
1/2+x,1/2-y,-z
1/2-x,1/2+y,-z
1/2-x,1/2-y,1/2-z
1/2+x,1/2+y,1/2-z
1/2-x,1/2+y,z
1/2+x,1/2-y,z
loop_
_atom_site_type_symbol
_atom_site_label
_atom_site_fract_x
_atom_site_fract_y
_atom_site_fract_z
Si Si1 0.117104 0.896259 0.761658
Si Si2 0.381703 0.957651 0.595514
Si Si3 0.978136 0.277458 0.055539
Si Si4 0.632501 0.693553 0.860813
Si Si5 0.000000 0.500000 0.750000
Si Si6 0.323714 0.121455 0.805568
Si Si7 0.291674 0.865941 0.054741
O O1 0.131190 0.882826 0.820094
O O2 0.219498 0.865873 0.729079
O O3 0.000000 0.854864 0.750000
O O4 0.111705 0.000000 0.750000
O O5 0.404511 0.863985 0.568184
O O6 0.312935 0.937505 0.644569
O O7 0.500000 0.000000 0.607718
O O8 0.320858 0.030934 0.563649
O O9 0.964739 0.209861 0.101232
O O10 0.097037 0.314261 0.055224
O O11 0.955327 0.244882 0.000000
O O12 0.644135 0.782208 0.827194
O O13 0.725253 0.673744 0.900065
O O14 0.081166 0.431951 0.722141
O O15 0.243749 0.856015 0.000000
#
# Coordination Sequence:
#
# PCOD9526960 Si02
#       7
#    16  16  16  16   4  16  16
#     4  11  25  43  59  82 121 170 210 248 302 375
#     4   9  17  34  59  91 122 157 199 254 318 366
#     4   9  19  35  57  90 126 158 200 256 312 366
#     4  11  24  37  62  89 123 160 208 258 309 370
#     4  12  24  40  70  92 124 148 204 266 336 368
#     4  11  23  39  62  94 122 157 202 267 313 377
#     4  10  20  35  60  90 124 162 202 249 310 372
#
# _framework density 19.740227000000001
#
# number of rings (size 3 to 8) (size 9 to 14) (size 15 to 20)
#    0.000    1.760    1.600    2.400    3.360    1.920 
#    0.000    0.000    0.000    0.000    0.000    5.600 
#    0.000    0.000    0.000    0.000    0.000    0.000 
#
# Total GULP energy -278549.972312 kJ/mol
# GULP energy per Si atom -5570.999446 kJ/mol
# Density = 1.969530 g / cm^3
# Si number density = 19.740227 Si / 1000 Ang^3
#
#
#
# Elastic Constant Matrix: (Units=GPa)
#
#
# Indices 1 2 3 4 5 6 
#
# 1 71.7827 12.7467 58.0338 0.0000 0.0000 0.0000
# 2 12.7467 62.4757 43.9365 0.0000 0.0000 0.0000
# 3 58.0338 43.9365 175.2138 0.0000 0.0000 0.0000
# 4 0.0000 0.0000 0.0000 6.0351 0.0000 0.0000
# 5 0.0000 0.0000 0.0000 0.0000 26.6716 0.0000
# 6 0.0000 0.0000 0.0000 0.0000 0.0000 14.6363
#
#
#
# Elastic Compliance Matrix: (Units=1/GPa)
#
#
# Indices 1 2 3 4 5 6 
#
# 1 0.019049 0.000668 -0.006477 0.000000 0.000000 0.000000
# 2 0.000668 0.019457 -0.005100 0.000000 0.000000 0.000000
# 3 -0.006477 -0.005100 0.009132 0.000000 0.000000 0.000000
# 4 0.000000 0.000000 0.000000 0.165698 0.000000 0.000000
# 5 0.000000 0.000000 0.000000 0.000000 0.037493 0.000000
# 6 0.000000 0.000000 0.000000 0.000000 0.000000 0.068323
#
#
# Mechanical properties :
#
#
# Convention : Reuss Voigt Hill
#
# Bulk Modulus (GPa) = 38.73068 59.87848 49.30458
# Shear Modulus (GPa) = 14.30308 22.45227 18.37767
#
# Velocity S-wave (km/s) = 2.69470 3.37617 3.05450
# Velocity P-wave (km/s) = 5.41707 6.75257 6.12135
#
# Compressibility (1/GPa) = 0.02581932
#
# Stress axis : x y z
#
# Youngs Moduli (GPa) = 52.49748 51.39611 109.51087
#
# Poissons Ratio (x) = -0.03436 0.70928
# Poissons Ratio (y) = -0.03509 0.55855
# Poissons Ratio (z) = 0.34002 0.26214
#
# Static dielectric constant tensor:
#      x y z
#    x 1.734540 0.000000 0.000000 
#    y 0.000000 1.713480 0.000000 
#    z 0.000000 0.000000 1.707760 
# 
# From -- ./inp_files/51418.got.cif
#   From: 2010.05.17/outbox.cif.g08.bks.cpg/sg72_26_cif.got.tgz:51418.got - 2010.06.03 17:03:01.
