data_PCOD9526252
_publ_section_title
;
Structure prediction by ZEFSAII (Michael W. Deem and Ramdas Pophale) SiO2 
 PCOD9526252
Probable space group: I B A M
;
_chemical_formula_sum "Si O2"
_cell_formula_units_Z 112
_cell_length_a 31.349983
_cell_length_b 11.593982
_cell_length_c 16.018084
_cell_angle_alpha 90.000000
_cell_angle_beta 90.000000
_cell_angle_gamma 90.000000
_cell_volume 5822.111230
_symmetry_space_group_name_H-M "I B A M"
_symmetry_group_IT_number 72
_symmetry_cell_setting 'orthorhombic'
loop_
_space_group_symop_operation_xyz
x,y,z
-x,-y,z
x,-y,1/2-z
-x,y,1/2-z
-x,-y,-z
x,y,-z
-x,y,1/2+z
x,-y,1/2+z
1/2+x,1/2+y,1/2+z
1/2-x,1/2-y,1/2+z
1/2+x,1/2-y,-z
1/2-x,1/2+y,-z
1/2-x,1/2-y,1/2-z
1/2+x,1/2+y,1/2-z
1/2-x,1/2+y,z
1/2+x,1/2-y,z
loop_
_atom_site_type_symbol
_atom_site_label
_atom_site_fract_x
_atom_site_fract_y
_atom_site_fract_z
Si Si1 0.837545 0.153262 0.905442
Si Si2 0.273208 0.529416 0.846048
Si Si3 0.680314 0.917615 0.099809
Si Si4 0.343704 0.315839 0.403766
Si Si5 0.097426 0.126651 0.254382
Si Si6 0.049691 0.634919 0.271080
Si Si7 0.389450 0.920178 0.093911
O O1 0.797943 0.066920 0.898636
O O2 0.821580 0.281698 0.887263
O O3 0.871231 0.122537 0.833937
O O4 0.855072 0.150737 0.000000
O O5 0.281965 0.500000 0.750000
O O6 0.223119 0.533114 0.860997
O O7 0.296562 0.647322 0.874780
O O8 0.636349 0.973059 0.132932
O O9 0.682065 0.939336 0.000000
O O10 0.351034 0.356436 0.500000
O O11 0.375190 0.363327 0.331702
O O12 0.353905 0.180560 0.404924
O O13 0.071397 0.247175 0.263723
O O14 0.075046 0.000000 0.250000
O O15 0.060536 0.500000 0.250000
O O16 0.068420 0.631421 0.364582
O O17 0.000000 0.645367 0.250000
O O18 0.400629 0.952506 0.000000
#
# Coordination Sequence:
#
# PCOD9526252 Si02
#       7
#    16  16  16  16  16  16  16
#     4  11  22  38  57  80 118 161 203 256 306 357
#     4  12  23  36  53  81 117 158 212 255 297 353
#     4  10  23  37  54  82 116 160 207 259 306 352
#     4  10  19  35  58  79 113 158 200 248 297 359
#     4  11  21  38  62  91 121 154 205 246 311 379
#     4  10  22  41  65  91 120 155 197 252 312 378
#     4   9  20  39  62  86 116 157 202 247 304 367
#
# _framework density 19.237006999999998
#
# number of rings (size 3 to 8) (size 9 to 14) (size 15 to 20)
#    0.000    1.571    2.857    2.143    2.000    3.714 
#    0.000    2.143    0.000    0.000    0.000    5.000 
#    0.000    0.000    0.000    0.000    0.000    0.000 
#
# Total GULP energy -311782.332368 kJ/mol
# GULP energy per Si atom -5567.541649 kJ/mol
# Density = 1.919322 g / cm^3
# Si number density = 19.237007 Si / 1000 Ang^3
#
#
#
# Elastic Constant Matrix: (Units=GPa)
#
#
# Indices 1 2 3 4 5 6 
#
# 1 95.8113 29.8859 37.8191 0.0000 0.0000 0.0000
# 2 29.8859 96.8023 24.8685 0.0000 0.0000 0.0000
# 3 37.8191 24.8685 82.4791 0.0000 0.0000 0.0000
# 4 0.0000 0.0000 0.0000 20.5272 0.0000 0.0000
# 5 0.0000 0.0000 0.0000 0.0000 16.5491 0.0000
# 6 0.0000 0.0000 0.0000 0.0000 0.0000 28.1614
#
#
#
# Elastic Compliance Matrix: (Units=1/GPa)
#
#
# Indices 1 2 3 4 5 6 
#
# 1 0.013397 -0.002773 -0.005307 0.000000 0.000000 0.000000
# 2 -0.002773 0.011772 -0.002278 0.000000 0.000000 0.000000
# 3 -0.005307 -0.002278 0.015244 0.000000 0.000000 0.000000
# 4 0.000000 0.000000 0.000000 0.048716 0.000000 0.000000
# 5 0.000000 0.000000 0.000000 0.000000 0.060426 0.000000
# 6 0.000000 0.000000 0.000000 0.000000 0.000000 0.035510
#
#
# Mechanical properties :
#
#
# Convention : Reuss Voigt Hill
#
# Bulk Modulus (GPa) = 50.76677 51.13775 50.95226
# Shear Modulus (GPa) = 23.54653 25.21547 24.38100
#
# Velocity S-wave (km/s) = 3.50240 3.62440 3.56392
# Velocity P-wave (km/s) = 6.54241 6.64498 6.59389
#
# Compressibility (1/GPa) = 0.01969793
#
# Stress axis : x y z
#
# Youngs Moduli (GPa) = 74.64478 84.95066 65.59766
#
# Poissons Ratio (x) = 0.23554 0.34812
# Poissons Ratio (y) = 0.20697 0.14943
# Poissons Ratio (z) = 0.39613 0.19351
#
# Static dielectric constant tensor:
#      x y z
#    x 1.636690 0.000000 0.000000 
#    y 0.000000 1.730500 0.000000 
#    z 0.000000 0.000000 1.705960 
# 
# From -- ./inp_files/26337.got.cif
#   From: 2010.05.17/outbox.cif.g08.bks.cpg/sg72_14_cif.got.tgz:26337.got - 2010.06.03 17:03:01.
