data_PCOD9526177
_publ_section_title
;
Structure prediction by ZEFSAII (Michael W. Deem and Ramdas Pophale) SiO2 
 PCOD9526177
Probable space group: I B A M
;
_chemical_formula_sum "Si O2"
_cell_formula_units_Z 112
_cell_length_a 11.938870
_cell_length_b 22.048337
_cell_length_c 22.605869
_cell_angle_alpha 90.000000
_cell_angle_beta 90.000000
_cell_angle_gamma 90.000000
_cell_volume 5950.593289
_symmetry_space_group_name_H-M "I B A M"
_symmetry_group_IT_number 72
_symmetry_cell_setting 'orthorhombic'
loop_
_space_group_symop_operation_xyz
x,y,z
-x,-y,z
x,-y,1/2-z
-x,y,1/2-z
-x,-y,-z
x,y,-z
-x,y,1/2+z
x,-y,1/2+z
1/2+x,1/2+y,1/2+z
1/2-x,1/2-y,1/2+z
1/2+x,1/2-y,-z
1/2-x,1/2+y,-z
1/2-x,1/2-y,1/2-z
1/2+x,1/2+y,1/2-z
1/2-x,1/2+y,z
1/2+x,1/2-y,z
loop_
_atom_site_type_symbol
_atom_site_label
_atom_site_fract_x
_atom_site_fract_y
_atom_site_fract_z
Si Si1 0.480783 0.433494 0.931698
Si Si2 0.127296 0.283261 0.244760
Si Si3 0.375909 0.851837 0.118981
Si Si4 0.630061 0.981223 0.430475
Si Si5 0.736302 0.599780 0.567326
Si Si6 0.151328 0.816846 0.069475
Si Si7 0.113399 0.309469 0.625301
O O1 0.500000 0.500000 0.904011
O O2 0.603722 0.405068 0.931944
O O3 0.398294 0.381468 0.908831
O O4 0.442903 0.444773 0.000000
O O5 0.250000 0.250000 0.250000
O O6 0.132062 0.322074 0.184380
O O7 0.120304 0.321222 0.304975
O O8 0.000000 0.251760 0.250000
O O9 0.353553 0.923001 0.110733
O O10 0.284300 0.819117 0.078522
O O11 0.503021 0.840536 0.099189
O O12 0.657232 0.966620 0.500000
O O13 0.500000 0.000000 0.428637
O O14 0.706816 0.037585 0.410554
O O15 0.775875 0.604151 0.500000
O O16 0.777981 0.659465 0.598935
O O17 0.107838 0.761084 0.108523
O O18 0.122603 0.809232 0.000000
#
# Coordination Sequence:
#
# PCOD9526177 Si02
#       7
#    16  16  16  16  16  16  16
#     4   9  19  36  55  81 117 159 202 238 289 362
#     4  10  22  42  64  84 114 160 205 251 306 356
#     4  11  22  39  61  84 117 152 205 248 293 363
#     4  10  19  34  58  89 122 159 195 242 309 367
#     4  10  20  35  58  84 121 159 192 243 306 366
#     4  11  23  34  56  88 120 156 194 243 302 364
#     4  11  23  38  57  87 118 153 199 251 304 363
#
# _framework density 18.821653000000001
#
# number of rings (size 3 to 8) (size 9 to 14) (size 15 to 20)
#    0.000    1.714    2.857    1.714    2.000    4.000 
#    0.000    0.714    0.000    0.000    0.000    1.000 
#    0.000    0.000    0.000    0.000    0.000    0.000 
#
# Total GULP energy -311817.434683 kJ/mol
# GULP energy per Si atom -5568.168476 kJ/mol
# Density = 1.877881 g / cm^3
# Si number density = 18.821653 Si / 1000 Ang^3
#
#
#
# Elastic Constant Matrix: (Units=GPa)
#
#
# Indices 1 2 3 4 5 6 
#
# 1 84.8787 10.5314 7.3677 0.0000 0.0000 0.0000
# 2 10.5314 74.4627 22.2372 0.0000 0.0000 0.0000
# 3 7.3677 22.2372 40.4929 0.0000 0.0000 0.0000
# 4 0.0000 0.0000 0.0000 13.6923 0.0000 0.0000
# 5 0.0000 0.0000 0.0000 0.0000 18.9101 0.0000
# 6 0.0000 0.0000 0.0000 0.0000 0.0000 32.1352
#
#
#
# Elastic Compliance Matrix: (Units=1/GPa)
#
#
# Indices 1 2 3 4 5 6 
#
# 1 0.012068 -0.001257 -0.001505 0.000000 0.000000 0.000000
# 2 -0.001257 0.016195 -0.008665 0.000000 0.000000 0.000000
# 3 -0.001505 -0.008665 0.029728 0.000000 0.000000 0.000000
# 4 0.000000 0.000000 0.000000 0.073034 0.000000 0.000000
# 5 0.000000 0.000000 0.000000 0.000000 0.052882 0.000000
# 6 0.000000 0.000000 0.000000 0.000000 0.000000 0.031119
#
#
# Mechanical properties :
#
#
# Convention : Reuss Voigt Hill
#
# Bulk Modulus (GPa) = 28.46076 31.12299 29.79188
# Shear Modulus (GPa) = 20.03264 23.59405 21.81335
#
# Velocity S-wave (km/s) = 3.26596 3.54440 3.40803
# Velocity P-wave (km/s) = 5.41997 5.77252 5.59903
#
# Compressibility (1/GPa) = 0.03513609
#
# Stress axis : x y z
#
# Youngs Moduli (GPa) = 82.86252 61.74736 33.63824
#
# Poissons Ratio (x) = 0.07763 0.05064
# Poissons Ratio (y) = 0.10418 0.29147
# Poissons Ratio (z) = 0.12474 0.53504
#
# Static dielectric constant tensor:
#      x y z
#    x 1.700230 0.000000 0.000000 
#    y 0.000000 1.680080 0.000000 
#    z 0.000000 0.000000 1.636850 
# 
# From -- ./inp_files/43532.got.cif
#   From: 2010.05.17/outbox.cif.g08.bks.cpg/sg72_22_cif.got.tgz:43532.got - 2010.06.03 17:03:01.
