data_PCOD9526796
_publ_section_title
;
Structure prediction by ZEFSAII (Michael W. Deem and Ramdas Pophale) SiO2 
 PCOD9526796
Probable space group: I B A M
;
_chemical_formula_sum "Si O2"
_cell_formula_units_Z 68
_cell_length_a 27.891408
_cell_length_b 5.360969
_cell_length_c 23.340025
_cell_angle_alpha 90.000000
_cell_angle_beta 90.000000
_cell_angle_gamma 90.000000
_cell_volume 3489.916623
_symmetry_space_group_name_H-M "I B A M"
_symmetry_group_IT_number 72
_symmetry_cell_setting 'orthorhombic'
loop_
_space_group_symop_operation_xyz
x,y,z
-x,-y,z
x,-y,1/2-z
-x,y,1/2-z
-x,-y,-z
x,y,-z
-x,y,1/2+z
x,-y,1/2+z
1/2+x,1/2+y,1/2+z
1/2-x,1/2-y,1/2+z
1/2+x,1/2-y,-z
1/2-x,1/2+y,-z
1/2-x,1/2-y,1/2-z
1/2+x,1/2+y,1/2-z
1/2-x,1/2+y,z
1/2+x,1/2-y,z
loop_
_atom_site_type_symbol
_atom_site_label
_atom_site_fract_x
_atom_site_fract_y
_atom_site_fract_z
Si Si1 0.218260 0.811004 0.065912
Si Si2 0.083725 0.325719 0.825821
Si Si3 0.873828 0.172319 0.144782
Si Si4 0.500000 0.000000 0.250000
Si Si5 0.944765 0.923002 0.934957
O O1 0.249117 0.558142 0.071850
O O2 0.177008 0.817006 0.113559
O O3 0.199128 0.813795 0.000000
O O4 0.112941 0.580903 0.820394
O O5 0.036006 0.334736 0.787875
O O6 0.065793 0.301951 0.891642
O O7 0.116125 0.079327 0.819032
O O8 0.912337 0.137902 0.093211
O O9 0.931178 0.869469 0.000000
O O10 0.000000 0.000000 0.932645
#
# Coordination Sequence:
#
# PCOD9526796 Si02
#       5
#    16  16  16   4  16
#     4  10  20  34  58  90 125 164 199 245 303 362
#     4  10  24  36  61  83 118 160 202 249 313 333
#     4  10  21  39  54  90 117 162 199 242 298 366
#     4  12  24  46  62  90 120 158 216 276 284 378
#     4   9  19  35  54  83 121 157 193 232 291 373
#
# _framework density 19.484705000000002
#
# number of rings (size 3 to 8) (size 9 to 14) (size 15 to 20)
#    1.412    0.706    0.000    3.529    0.000    3.765 
#    0.000    2.941    0.000    0.000    0.000   16.471 
#    0.000    0.000    0.000    0.000    0.000    0.000 
#
# Total GULP energy -189437.030186 kJ/mol
# GULP energy per Si atom -5571.677358 kJ/mol
# Density = 1.944036 g / cm^3
# Si number density = 19.484705 Si / 1000 Ang^3
#
#
#
# Elastic Constant Matrix: (Units=GPa)
#
#
# Indices 1 2 3 4 5 6 
#
# 1 85.5663 54.3798 22.6402 0.0000 0.0000 0.0000
# 2 54.3798 156.6993 42.3132 0.0000 0.0000 0.0000
# 3 22.6402 42.3132 58.5461 0.0000 0.0000 0.0000
# 4 0.0000 0.0000 0.0000 115.6238 0.0000 0.0000
# 5 0.0000 0.0000 0.0000 0.0000 59.8013 0.0000
# 6 0.0000 0.0000 0.0000 0.0000 0.0000 33.3713
#
#
#
# Elastic Compliance Matrix: (Units=1/GPa)
#
#
# Indices 1 2 3 4 5 6 
#
# 1 0.015302 -0.004613 -0.002584 0.000000 0.000000 0.000000
# 2 -0.004613 0.009319 -0.004952 0.000000 0.000000 0.000000
# 3 -0.002584 -0.004952 0.021659 0.000000 0.000000 0.000000
# 4 0.000000 0.000000 0.000000 0.008649 0.000000 0.000000
# 5 0.000000 0.000000 0.000000 0.000000 0.016722 0.000000
# 6 0.000000 0.000000 0.000000 0.000000 0.000000 0.029966
#
#
# Mechanical properties :
#
#
# Convention : Reuss Voigt Hill
#
# Bulk Modulus (GPa) = 45.48806 59.94202 52.71504
# Shear Modulus (GPa) = 37.52609 53.85782 45.69196
#
# Velocity S-wave (km/s) = 4.39330 5.26318 4.84779
# Velocity P-wave (km/s) = 7.00935 8.23196 7.64513
#
# Compressibility (1/GPa) = 0.02198379
#
# Stress axis : x y z
#
# Youngs Moduli (GPa) = 65.35138 107.30198 46.17122
#
# Poissons Ratio (x) = 0.49494 0.11929
# Poissons Ratio (y) = 0.30144 0.22863
# Poissons Ratio (z) = 0.16885 0.53134
#
# Static dielectric constant tensor:
#      x y z
#    x 1.651240 0.000000 0.000000 
#    y 0.000000 1.712450 0.000000 
#    z 0.000000 0.000000 1.703750 
# 
# From -- ./inp_files/40991.got.cif
#   From: 2010.05.17/outbox.cif.g08.bks.cpg/sg72_21_cif.got.tgz:40991.got - 2010.06.03 17:03:01.
