data_PCOD9526087
_publ_section_title
;
Structure prediction by ZEFSAII (Michael W. Deem and Ramdas Pophale) SiO2 
 PCOD9526087
Probable space group: I B A M
;
_chemical_formula_sum "Si O2"
_cell_formula_units_Z 80
_cell_length_a 27.928784
_cell_length_b 18.441783
_cell_length_c 8.559131
_cell_angle_alpha 90.000000
_cell_angle_beta 90.000000
_cell_angle_gamma 90.000000
_cell_volume 4408.436689
_symmetry_space_group_name_H-M "I B A M"
_symmetry_group_IT_number 72
_symmetry_cell_setting 'orthorhombic'
loop_
_space_group_symop_operation_xyz
x,y,z
-x,-y,z
x,-y,1/2-z
-x,y,1/2-z
-x,-y,-z
x,y,-z
-x,y,1/2+z
x,-y,1/2+z
1/2+x,1/2+y,1/2+z
1/2-x,1/2-y,1/2+z
1/2+x,1/2-y,-z
1/2-x,1/2+y,-z
1/2-x,1/2-y,1/2-z
1/2+x,1/2+y,1/2-z
1/2-x,1/2+y,z
1/2+x,1/2-y,z
loop_
_atom_site_type_symbol
_atom_site_label
_atom_site_fract_x
_atom_site_fract_y
_atom_site_fract_z
Si Si1 0.787857 0.922354 0.312085
Si Si2 0.050142 0.270769 0.687006
Si Si3 0.185157 0.375761 0.311974
Si Si4 0.916592 0.423390 0.314229
Si Si5 0.347418 0.716641 0.689414
O O1 0.787013 0.923048 0.500000
O O2 0.734362 0.907985 0.250089
O O3 0.821143 0.855786 0.256730
O O4 0.804576 0.000000 0.250000
O O5 0.049655 0.271001 0.500000
O O6 0.057058 0.353317 0.744672
O O7 0.097639 0.227694 0.740747
O O8 0.000000 0.241871 0.750000
O O9 0.182699 0.381896 0.500000
O O10 0.138664 0.413979 0.239627
O O11 0.180577 0.290490 0.268233
O O12 0.934719 0.500000 0.250000
O O13 0.919696 0.422126 0.500000
O O14 0.347941 0.714490 0.500000
#
# Coordination Sequence:
#
# PCOD9526087 Si02
#       5
#    16  16  16  16  16
#     4  11  21  34  51  76 106 139 172 210 254 303
#     4  10  20  37  57  79 101 129 168 214 262 311
#     4  10  19  34  53  76 104 139 176 213 251 299
#     4  11  21  34  51  75 106 142 176 212 251 297
#     4   8  18  35  55  75 102 134 170 212 255 300
#
# _framework density 18.147023000000001
#
# number of rings (size 3 to 8) (size 9 to 14) (size 15 to 20)
#    0.000    2.000    0.000    6.000    0.000    0.400 
#    0.000   13.000    0.000    0.600    0.000    4.200 
#    0.000    0.000    0.000    0.000    0.000    0.000 
#
# Total GULP energy -223427.414455 kJ/mol
# GULP energy per Si atom -5585.685361 kJ/mol
# Density = 1.810572 g / cm^3
# Si number density = 18.147023 Si / 1000 Ang^3
#
#
#
# Elastic Constant Matrix: (Units=GPa)
#
#
# Indices 1 2 3 4 5 6 
#
# 1 69.6371 20.0570 11.0670 0.0000 0.0000 0.0000
# 2 20.0570 73.5426 7.0706 0.0000 0.0000 0.0000
# 3 11.0670 7.0706 69.5813 0.0000 0.0000 0.0000
# 4 0.0000 0.0000 0.0000 22.8657 0.0000 0.0000
# 5 0.0000 0.0000 0.0000 0.0000 20.9521 0.0000
# 6 0.0000 0.0000 0.0000 0.0000 0.0000 3.1914
#
#
#
# Elastic Compliance Matrix: (Units=1/GPa)
#
#
# Indices 1 2 3 4 5 6 
#
# 1 0.015884 -0.004130 -0.002107 0.000000 0.000000 0.000000
# 2 -0.004130 0.014805 -0.000848 0.000000 0.000000 0.000000
# 3 -0.002107 -0.000848 0.014793 0.000000 0.000000 0.000000
# 4 0.000000 0.000000 0.000000 0.043734 0.000000 0.000000
# 5 0.000000 0.000000 0.000000 0.000000 0.047728 0.000000
# 6 0.000000 0.000000 0.000000 0.000000 0.000000 0.313342
#
#
# Mechanical properties :
#
#
# Convention : Reuss Voigt Hill
#
# Bulk Modulus (GPa) = 31.93401 32.12782 32.03092
# Shear Modulus (GPa) = 10.52871 21.03960 15.78415
#
# Velocity S-wave (km/s) = 2.41133 3.40869 2.95242
# Velocity P-wave (km/s) = 5.03867 5.76496 5.41401
#
# Compressibility (1/GPa) = 0.03131457
#
# Stress axis : x y z
#
# Youngs Moduli (GPa) = 62.95492 67.54341 67.60001
#
# Poissons Ratio (x) = 0.27892 0.14242
# Poissons Ratio (y) = 0.25998 0.05730
# Poissons Ratio (z) = 0.13263 0.05725
#
# Static dielectric constant tensor:
#      x y z
#    x 1.628050 0.000000 0.000000 
#    y 0.000000 1.622430 0.000000 
#    z 0.000000 0.000000 1.609570 
# 
# From -- ./inp_files/4759.got.cif
#   From: 2010.05.17/outbox.cif.g08.bks.cpg/sg72_3_cif.got.tgz:4759.got - 2010.06.03 17:03:01.
