data_PCOD9526096
_publ_section_title
;
Structure prediction by ZEFSAII (Michael W. Deem and Ramdas Pophale) SiO2 
 PCOD9526096
Probable space group: I B A M
;
_chemical_formula_sum "Si O2"
_cell_formula_units_Z 96
_cell_length_a 21.307653
_cell_length_b 31.288365
_cell_length_c 8.825846
_cell_angle_alpha 90.000000
_cell_angle_beta 90.000000
_cell_angle_gamma 90.000000
_cell_volume 5884.029348
_symmetry_space_group_name_H-M "I B A M"
_symmetry_group_IT_number 72
_symmetry_cell_setting 'orthorhombic'
loop_
_space_group_symop_operation_xyz
x,y,z
-x,-y,z
x,-y,1/2-z
-x,y,1/2-z
-x,-y,-z
x,y,-z
-x,y,1/2+z
x,-y,1/2+z
1/2+x,1/2+y,1/2+z
1/2-x,1/2-y,1/2+z
1/2+x,1/2-y,-z
1/2-x,1/2+y,-z
1/2-x,1/2-y,1/2-z
1/2+x,1/2+y,1/2-z
1/2-x,1/2+y,z
1/2+x,1/2-y,z
loop_
_atom_site_type_symbol
_atom_site_label
_atom_site_fract_x
_atom_site_fract_y
_atom_site_fract_z
Si Si1 0.436285 0.065766 0.322117
Si Si2 0.700935 0.715568 0.817719
Si Si3 0.064852 0.249542 0.681910
Si Si4 0.295798 0.955677 0.182543
Si Si5 0.760227 0.366907 0.176589
Si Si6 0.592635 0.153365 0.676089
O O1 0.500000 0.048647 0.250000
O O2 0.439190 0.059064 0.500000
O O3 0.369177 0.048217 0.266303
O O4 0.432611 0.116019 0.281907
O O5 0.750000 0.750000 0.750000
O O6 0.629782 0.727227 0.771072
O O7 0.719105 0.668580 0.760209
O O8 0.704835 0.717956 0.000000
O O9 0.061537 0.247396 0.500000
O O10 0.071681 0.299635 0.722931
O O11 0.000000 0.232606 0.750000
O O12 0.261964 0.913362 0.245462
O O13 0.270898 0.000000 0.250000
O O14 0.294154 0.955850 0.000000
O O15 0.831882 0.349499 0.182264
O O16 0.742876 0.370645 0.000000
O O17 0.574332 0.145362 0.500000
#
# Coordination Sequence:
#
# PCOD9526096 Si02
#       6
#    16  16  16  16  16  16
#     4  10  20  31  44  64  89 122 165 208 255 304
#     4  11  21  35  53  76 105 138 177 217 258 309
#     4  10  21  34  47  70 102 136 174 215 256 301
#     4  10  21  36  52  72  95 125 162 207 260 309
#     4  10  19  34  54  76 100 129 167 213 259 306
#     4   9  17  31  47  66  94 127 166 211 255 298
#
# _framework density 16.315349999999999
#
# number of rings (size 3 to 8) (size 9 to 14) (size 15 to 20)
#    0.000    2.000    1.667    2.500    0.000    6.333 
#    0.000    1.667    0.000    0.000    0.000    0.000 
#    0.000    0.667    0.000    7.000    0.000    3.833 
#
# Total GULP energy -267922.776190 kJ/mol
# GULP energy per Si atom -5581.724504 kJ/mol
# Density = 1.627822 g / cm^3
# Si number density = 16.315350 Si / 1000 Ang^3
#
#
#
# Elastic Constant Matrix: (Units=GPa)
#
#
# Indices 1 2 3 4 5 6 
#
# 1 85.5954 53.2435 29.1786 0.0000 0.0000 0.0000
# 2 53.2435 118.3583 36.3340 0.0000 0.0000 0.0000
# 3 29.1786 36.3340 44.8362 0.0000 0.0000 0.0000
# 4 0.0000 0.0000 0.0000 21.7743 0.0000 0.0000
# 5 0.0000 0.0000 0.0000 0.0000 22.4940 0.0000
# 6 0.0000 0.0000 0.0000 0.0000 0.0000 -1.2972
#
#
#
# Elastic Compliance Matrix: (Units=1/GPa)
#
#
# Indices 1 2 3 4 5 6 
#
# 1 0.017620 -0.005865 -0.006714 0.000000 0.000000 0.000000
# 2 -0.005865 0.013199 -0.006879 0.000000 0.000000 0.000000
# 3 -0.006714 -0.006879 0.032247 0.000000 0.000000 0.000000
# 4 0.000000 0.000000 0.000000 0.045926 0.000000 0.000000
# 5 0.000000 0.000000 0.000000 0.000000 0.044456 0.000000
# 6 0.000000 0.000000 0.000000 0.000000 0.000000 -0.770907
#
#
# Mechanical properties :
#
#
# Convention : Reuss Voigt Hill
#
# Bulk Modulus (GPa) = 41.40785 54.03358 47.72071
# Shear Modulus (GPa) = -8.76437 17.26314 4.24939
#
# Velocity S-wave (km/s) = -2.32024 3.25636 1.61561
# Velocity P-wave (km/s) = 4.27279 6.87958 5.72649
#
# Compressibility (1/GPa) = 0.02415001
#
# Stress axis : x y z
#
# Youngs Moduli (GPa) = 56.75383 75.76173 31.01039
#
# Poissons Ratio (x) = 0.44437 0.20819
# Poissons Ratio (y) = 0.33288 0.21333
# Poissons Ratio (z) = 0.38102 0.52118
#
# Static dielectric constant tensor:
#      x y z
#    x 1.554000 0.000000 0.000000 
#    y 0.000000 1.546970 0.000000 
#    z 0.000000 0.000000 1.552610 
# 
# From -- ./inp_files/6019.got.cif
#   From: 2010.05.17/outbox.cif.g08.bks.cpg/sg72_4_cif.got.tgz:6019.got - 2010.06.03 17:03:01.
