data_PCOD9526521
_publ_section_title
;
Structure prediction by ZEFSAII (Michael W. Deem and Ramdas Pophale) SiO2 
 PCOD9526521
Probable space group: I B A M
;
_chemical_formula_sum "Si O2"
_cell_formula_units_Z 68
_cell_length_a 20.826091
_cell_length_b 20.947696
_cell_length_c 8.846561
_cell_angle_alpha 90.000000
_cell_angle_beta 90.000000
_cell_angle_gamma 90.000000
_cell_volume 3859.388521
_symmetry_space_group_name_H-M "I B A M"
_symmetry_group_IT_number 72
_symmetry_cell_setting 'orthorhombic'
loop_
_space_group_symop_operation_xyz
x,y,z
-x,-y,z
x,-y,1/2-z
-x,y,1/2-z
-x,-y,-z
x,y,-z
-x,y,1/2+z
x,-y,1/2+z
1/2+x,1/2+y,1/2+z
1/2-x,1/2-y,1/2+z
1/2+x,1/2-y,-z
1/2-x,1/2+y,-z
1/2-x,1/2-y,1/2-z
1/2+x,1/2+y,1/2-z
1/2-x,1/2+y,z
1/2+x,1/2-y,z
loop_
_atom_site_type_symbol
_atom_site_label
_atom_site_fract_x
_atom_site_fract_y
_atom_site_fract_z
Si Si1 0.303374 0.202217 0.181742
Si Si2 0.603390 0.602746 0.672469
Si Si3 0.567486 0.743178 0.317533
Si Si4 0.000000 0.000000 0.250000
Si Si5 0.242631 0.065664 0.818749
O O1 0.250000 0.250000 0.250000
O O2 0.371495 0.218661 0.255729
O O3 0.282045 0.129660 0.214590
O O4 0.305567 0.210275 0.000000
O O5 0.620460 0.618744 0.500000
O O6 0.578281 0.669486 0.737247
O O7 0.548984 0.548812 0.670695
O O8 0.669761 0.577656 0.741941
O O9 0.500000 0.765638 0.250000
O O10 0.564947 0.745257 0.500000
O O11 0.267772 0.000000 0.750000
O O12 0.240606 0.057826 0.000000
#
# Coordination Sequence:
#
# PCOD9526521 Si02
#       5
#    16  16  16   4  16
#     4  11  22  38  60  87 117 156 201 250 297 351
#     4  10  20  32  48  75 112 152 191 230 272 332
#     4  11  22  39  58  84 117 152 197 246 295 351
#     4  12  18  32  48  74 116 160 190 224 274 332
#     4  10  21  38  56  81 115 150 195 242 290 346
#
# _framework density 17.619371999999998
#
# number of rings (size 3 to 8) (size 9 to 14) (size 15 to 20)
#    0.000    1.412    4.706    1.765    0.000    1.882 
#    0.000    0.000    0.000    0.706    0.000    4.941 
#    0.000    0.000    0.000    0.000    0.000    0.000 
#
# Total GULP energy -189610.256077 kJ/mol
# GULP energy per Si atom -5576.772238 kJ/mol
# Density = 1.757927 g / cm^3
# Si number density = 17.619372 Si / 1000 Ang^3
#
#
#
# Elastic Constant Matrix: (Units=GPa)
#
#
# Indices 1 2 3 4 5 6 
#
# 1 143.8008 76.9942 50.9348 0.0000 0.0000 0.0000
# 2 76.9942 133.4044 50.0810 0.0000 0.0000 0.0000
# 3 50.9348 50.0810 59.7538 0.0000 0.0000 0.0000
# 4 0.0000 0.0000 0.0000 18.8721 0.0000 0.0000
# 5 0.0000 0.0000 0.0000 0.0000 23.7853 0.0000
# 6 0.0000 0.0000 0.0000 0.0000 0.0000 26.0860
#
#
#
# Elastic Compliance Matrix: (Units=1/GPa)
#
#
# Indices 1 2 3 4 5 6 
#
# 1 0.011427 -0.004287 -0.006147 0.000000 0.000000 0.000000
# 2 -0.004287 0.012546 -0.006860 0.000000 0.000000 0.000000
# 3 -0.006147 -0.006860 0.027725 0.000000 0.000000 0.000000
# 4 0.000000 0.000000 0.000000 0.052988 0.000000 0.000000
# 5 0.000000 0.000000 0.000000 0.000000 0.042043 0.000000
# 6 0.000000 0.000000 0.000000 0.000000 0.000000 0.038335
#
#
# Mechanical properties :
#
#
# Convention : Reuss Voigt Hill
#
# Bulk Modulus (GPa) = 58.45168 76.99767 67.72467
# Shear Modulus (GPa) = 22.18711 24.34530 23.26620
#
# Velocity S-wave (km/s) = 3.55243 3.72120 3.63780
# Velocity P-wave (km/s) = 7.07623 7.89041 7.49439
#
# Compressibility (1/GPa) = 0.01710815
#
# Stress axis : x y z
#
# Youngs Moduli (GPa) = 87.51239 79.70734 36.06843
#
# Poissons Ratio (x) = 0.34174 0.22172
# Poissons Ratio (y) = 0.37520 0.24744
# Poissons Ratio (z) = 0.53795 0.54682
#
# Static dielectric constant tensor:
#      x y z
#    x 1.600770 0.000000 0.000000 
#    y 0.000000 1.599830 0.000000 
#    z 0.000000 0.000000 1.629120 
# 
# From -- ./inp_files/4394.got.cif
#   From: 2010.05.17/outbox.cif.g08.bks.cpg/sg72_3_cif.got.tgz:4394.got - 2010.06.03 17:03:01.
