data_PCOD9526421
_publ_section_title
;
Structure prediction by ZEFSAII (Michael W. Deem and Ramdas Pophale) SiO2 
 PCOD9526421
Probable space group: I B A M
;
_chemical_formula_sum "Si O2"
_cell_formula_units_Z 80
_cell_length_a 14.688282
_cell_length_b 11.556802
_cell_length_c 20.964303
_cell_angle_alpha 90.000000
_cell_angle_beta 90.000000
_cell_angle_gamma 90.000000
_cell_volume 3558.681352
_symmetry_space_group_name_H-M "I B A M"
_symmetry_group_IT_number 72
_symmetry_cell_setting 'orthorhombic'
loop_
_space_group_symop_operation_xyz
x,y,z
-x,-y,z
x,-y,1/2-z
-x,y,1/2-z
-x,-y,-z
x,y,-z
-x,y,1/2+z
x,-y,1/2+z
1/2+x,1/2+y,1/2+z
1/2-x,1/2-y,1/2+z
1/2+x,1/2-y,-z
1/2-x,1/2+y,-z
1/2-x,1/2-y,1/2-z
1/2+x,1/2+y,1/2-z
1/2-x,1/2+y,z
1/2+x,1/2-y,z
loop_
_atom_site_type_symbol
_atom_site_label
_atom_site_fract_x
_atom_site_fract_y
_atom_site_fract_z
Si Si1 0.000000 0.855485 0.250000
Si Si2 0.426113 0.823685 0.425611
Si Si3 0.762219 0.876628 0.135403
Si Si4 0.691042 0.000000 0.750000
Si Si5 0.588300 0.435305 0.621630
Si Si6 0.603289 0.180729 0.842951
O O1 0.934644 0.917081 0.302548
O O2 0.938659 0.774577 0.205716
O O3 0.434934 0.845505 0.500000
O O4 0.335579 0.882264 0.397840
O O5 0.406598 0.688500 0.410533
O O6 0.521246 0.850802 0.390411
O O7 0.746208 0.904535 0.210086
O O8 0.812859 0.753229 0.126553
O O9 0.827096 0.980509 0.112807
O O10 0.634216 0.928015 0.698392
O O11 0.500000 0.500000 0.595082
#
# Coordination Sequence:
#
# PCOD9526421 Si02
#       6
#     8  16  16   8  16  16
#     4  10  19  37  68 102 138 171 208 275 340 430
#     4  11  27  47  67  96 136 184 242 287 326 396
#     4  12  24  42  69 107 138 174 226 282 347 412
#     4  12  24  41  71 106 144 176 217 278 353 438
#     4  11  21  41  73 101 132 178 223 271 351 407
#     4  11  24  44  67 100 141 182 219 278 352 406
#
# _framework density 22.480236000000001
#
# number of rings (size 3 to 8) (size 9 to 14) (size 15 to 20)
#    0.000    0.800    4.000    5.700    0.000    5.600 
#    0.000    2.000    0.000    0.000    0.000    0.000 
#    0.000    0.000    0.000    0.000    0.000    0.000 
#
# Total GULP energy -223746.334361 kJ/mol
# GULP energy per Si atom -5593.658359 kJ/mol
# Density = 2.242907 g / cm^3
# Si number density = 22.480236 Si / 1000 Ang^3
#
#
#
# Elastic Constant Matrix: (Units=GPa)
#
#
# Indices 1 2 3 4 5 6 
#
# 1 163.5126 48.0407 60.1908 0.0000 0.0000 0.0000
# 2 48.0407 84.2399 14.9226 0.0000 0.0000 0.0000
# 3 60.1908 14.9226 73.4009 0.0000 0.0000 0.0000
# 4 0.0000 0.0000 0.0000 -3.7942 0.0000 0.0000
# 5 0.0000 0.0000 0.0000 0.0000 -21.1176 0.0000
# 6 0.0000 0.0000 0.0000 0.0000 0.0000 51.4957
#
#
#
# Elastic Compliance Matrix: (Units=1/GPa)
#
#
# Indices 1 2 3 4 5 6 
#
# 1 0.010166 -0.004482 -0.007425 0.000000 0.000000 0.000000
# 2 -0.004482 0.014291 0.000770 0.000000 0.000000 0.000000
# 3 -0.007425 0.000770 0.019556 0.000000 0.000000 0.000000
# 4 0.000000 0.000000 0.000000 -0.263558 0.000000 0.000000
# 5 0.000000 0.000000 0.000000 0.000000 -0.047354 0.000000
# 6 0.000000 0.000000 0.000000 0.000000 0.000000 0.019419
#
#
# Mechanical properties :
#
#
# Convention : Reuss Voigt Hill
#
# Bulk Modulus (GPa) = 46.00168 63.05129 54.52649
# Shear Modulus (GPa) = -22.93997 18.51672 -2.21163
#
# Velocity S-wave (km/s) = -3.19791 2.87311 -0.99295
# Velocity P-wave (km/s) = 2.62146 6.25417 4.79514
#
# Compressibility (1/GPa) = 0.02173833
#
# Stress axis : x y z
#
# Youngs Moduli (GPa) = 98.36862 69.97651 51.13526
#
# Poissons Ratio (x) = 0.31364 0.37968
# Poissons Ratio (y) = 0.44090 -0.03938
# Poissons Ratio (z) = 0.73039 -0.05389
#
# Static dielectric constant tensor:
#      x y z
#    x 1.872950 0.000000 0.000000 
#    y 0.000000 1.953520 0.000000 
#    z 0.000000 0.000000 1.804460 
# 
# From -- ./inp_files/44109.got.cif
#   From: 2010.05.17/outbox.cif.g08.bks.cpg/sg72_23_cif.got.tgz:44109.got - 2010.06.03 17:03:01.
