data_PCOD9526904
_publ_section_title
;
Structure prediction by ZEFSAII (Michael W. Deem and Ramdas Pophale) SiO2 
 PCOD9526904
Probable space group: I B A M
;
_chemical_formula_sum "Si O2"
_cell_formula_units_Z 88
_cell_length_a 18.411647
_cell_length_b 23.231479
_cell_length_c 9.351546
_cell_angle_alpha 90.000000
_cell_angle_beta 90.000000
_cell_angle_gamma 90.000000
_cell_volume 3999.934813
_symmetry_space_group_name_H-M "I B A M"
_symmetry_group_IT_number 72
_symmetry_cell_setting 'orthorhombic'
loop_
_space_group_symop_operation_xyz
x,y,z
-x,-y,z
x,-y,1/2-z
-x,y,1/2-z
-x,-y,-z
x,y,-z
-x,y,1/2+z
x,-y,1/2+z
1/2+x,1/2+y,1/2+z
1/2-x,1/2-y,1/2+z
1/2+x,1/2-y,-z
1/2-x,1/2+y,-z
1/2-x,1/2-y,1/2-z
1/2+x,1/2+y,1/2-z
1/2-x,1/2+y,z
1/2+x,1/2-y,z
loop_
_atom_site_type_symbol
_atom_site_label
_atom_site_fract_x
_atom_site_fract_y
_atom_site_fract_z
Si Si1 0.283540 0.102564 0.664978
Si Si2 0.933299 0.915484 0.154027
Si Si3 0.823392 0.185989 0.328116
Si Si4 0.428444 0.902108 0.335400
Si Si5 0.073107 0.262890 0.334978
Si Si6 0.817776 0.000000 0.250000
O O1 0.297123 0.118934 0.500000
O O2 0.243979 0.154222 0.751938
O O3 0.356363 0.084125 0.746771
O O4 0.230705 0.047358 0.671579
O O5 0.889905 0.858544 0.196632
O O6 0.000000 0.931450 0.250000
O O7 0.872065 0.964038 0.151545
O O8 0.965362 0.904780 0.000000
O O9 0.812216 0.192773 0.500000
O O10 0.854971 0.241859 0.248752
O O11 0.500000 0.921370 0.250000
O O12 0.426603 0.922496 0.500000
O O13 0.429377 0.832186 0.339262
O O14 0.073200 0.242127 0.500000
O O15 0.000000 0.244672 0.250000
#
# Coordination Sequence:
#
# PCOD9526904 Si02
#       6
#    16  16  16  16  16   8
#     4  11  23  40  63  87 114 150 192 240 293 348
#     4  10  21  35  53  80 114 152 193 234 275 323
#     4  10  21  36  55  83 121 160 197 239 283 332
#     4  10  22  41  64  89 117 148 186 235 291 352
#     4  10  20  35  57  85 118 157 197 237 284 339
#     4  10  23  40  59  82 112 148 192 238 289 342
#
# _framework density 22.000357999999999
#
# number of rings (size 3 to 8) (size 9 to 14) (size 15 to 20)
#    0.000    1.818    0.000    3.545    0.000   11.636 
#    0.000    0.455    0.000    2.182    0.000    0.000 
#    0.000    0.000    0.000    0.000    0.000    0.000 
#
# Total GULP energy -245823.323639 kJ/mol
# GULP energy per Si atom -5586.893719 kJ/mol
# Density = 2.195028 g / cm^3
# Si number density = 22.000358 Si / 1000 Ang^3
#
#
#
# Elastic Constant Matrix: (Units=GPa)
#
#
# Indices 1 2 3 4 5 6 
#
# 1 134.7707 10.2824 79.5625 0.0000 0.0000 0.0000
# 2 10.2824 36.4105 12.8690 0.0000 0.0000 0.0000
# 3 79.5625 12.8690 137.8024 0.0000 0.0000 0.0000
# 4 0.0000 0.0000 0.0000 31.0130 0.0000 0.0000
# 5 0.0000 0.0000 0.0000 0.0000 26.5132 0.0000
# 6 0.0000 0.0000 0.0000 0.0000 0.0000 23.2096
#
#
#
# Elastic Compliance Matrix: (Units=1/GPa)
#
#
# Indices 1 2 3 4 5 6 
#
# 1 0.011286 -0.000914 -0.006431 0.000000 0.000000 0.000000
# 2 -0.000914 0.028476 -0.002131 0.000000 0.000000 0.000000
# 3 -0.006431 -0.002131 0.011169 0.000000 0.000000 0.000000
# 4 0.000000 0.000000 0.000000 0.032244 0.000000 0.000000
# 5 0.000000 0.000000 0.000000 0.000000 0.037717 0.000000
# 6 0.000000 0.000000 0.000000 0.000000 0.000000 0.043086
#
#
# Mechanical properties :
#
#
# Convention : Reuss Voigt Hill
#
# Bulk Modulus (GPa) = 31.27161 57.15683 44.21422
# Shear Modulus (GPa) = 25.82763 29.89848 27.86306
#
# Velocity S-wave (km/s) = 3.43003 3.69046 3.56263
# Velocity P-wave (km/s) = 5.47100 6.64798 6.08800
#
# Compressibility (1/GPa) = 0.03197789
#
# Stress axis : x y z
#
# Youngs Moduli (GPa) = 88.60286 35.11717 89.53478
#
# Poissons Ratio (x) = 0.03211 0.57579
# Poissons Ratio (y) = 0.08101 0.19084
# Poissons Ratio (z) = 0.56980 0.07485
#
# Static dielectric constant tensor:
#      x y z
#    x 1.766720 0.000000 0.000000 
#    y 0.000000 1.858150 0.000000 
#    z 0.000000 0.000000 1.793570 
# 
# From -- ./inp_files/5135.got.cif
#   From: 2010.05.17/outbox.cif.g08.bks.cpg/sg72_3_cif.got.tgz:5135.got - 2010.06.03 17:03:01.
