data_PCOD9526357
_publ_section_title
;
Structure prediction by ZEFSAII (Michael W. Deem and Ramdas Pophale) SiO2 
 PCOD9526357
Probable space group: I B A M
;
_chemical_formula_sum "Si O2"
_cell_formula_units_Z 80
_cell_length_a 11.099140
_cell_length_b 16.509567
_cell_length_c 22.334159
_cell_angle_alpha 90.000000
_cell_angle_beta 90.000000
_cell_angle_gamma 90.000000
_cell_volume 4092.555862
_symmetry_space_group_name_H-M "I B A M"
_symmetry_group_IT_number 72
_symmetry_cell_setting 'orthorhombic'
loop_
_space_group_symop_operation_xyz
x,y,z
-x,-y,z
x,-y,1/2-z
-x,y,1/2-z
-x,-y,-z
x,y,-z
-x,y,1/2+z
x,-y,1/2+z
1/2+x,1/2+y,1/2+z
1/2-x,1/2-y,1/2+z
1/2+x,1/2-y,-z
1/2-x,1/2+y,-z
1/2-x,1/2-y,1/2-z
1/2+x,1/2+y,1/2-z
1/2-x,1/2+y,z
1/2+x,1/2-y,z
loop_
_atom_site_type_symbol
_atom_site_label
_atom_site_fract_x
_atom_site_fract_y
_atom_site_fract_z
Si Si1 0.220695 0.431068 0.934555
Si Si2 0.000000 0.000000 0.340430
Si Si3 0.703457 0.500000 0.750000
Si Si4 0.009359 0.679802 0.930714
Si Si5 0.381439 0.945966 0.660191
Si Si6 0.505871 0.629712 0.067481
O O1 0.189599 0.495918 0.885136
O O2 0.353905 0.395821 0.931760
O O3 0.122993 0.359783 0.929435
O O4 0.202735 0.469156 0.000000
O O5 0.891350 0.967331 0.299145
O O6 0.049678 0.928595 0.382762
O O7 0.793850 0.437144 0.782630
O O8 0.082214 0.632498 0.878846
O O9 0.999027 0.775354 0.919965
O O10 0.055333 0.668867 0.000000
O O11 0.500000 0.000000 0.675965
O O12 0.459069 0.613899 0.000000
#
# Coordination Sequence:
#
# PCOD9526357 Si02
#       6
#    16   8   8  16  16  16
#     4   9  17  33  56  84 116 146 186 245 304 356
#     4  11  23  40  58  76 119 159 200 242 290 347
#     4  11  23  38  58  78 111 161 208 240 270 349
#     4   9  19  34  59  93 120 146 187 250 314 361
#     4  10  19  36  61  82 113 150 198 244 291 345
#     4  10  20  37  60  88 119 151 195 247 309 370
#
# _framework density 19.547688000000001
#
# number of rings (size 3 to 8) (size 9 to 14) (size 15 to 20)
#    0.000    2.200    2.000    1.200    0.000    4.000 
#    0.000    3.000   17.600    0.000    0.000    0.000 
#    0.000    0.000    0.000    0.000    0.000    0.000 
#
# Total GULP energy -222966.806216 kJ/mol
# GULP energy per Si atom -5574.170155 kJ/mol
# Density = 1.950320 g / cm^3
# Si number density = 19.547688 Si / 1000 Ang^3
#
#
#
# Elastic Constant Matrix: (Units=GPa)
#
#
# Indices 1 2 3 4 5 6 
#
# 1 71.8427 14.7938 40.1926 0.0000 0.0000 0.0000
# 2 14.7938 90.9470 50.9191 0.0000 0.0000 0.0000
# 3 40.1926 50.9191 109.1388 0.0000 0.0000 0.0000
# 4 0.0000 0.0000 0.0000 15.5537 0.0000 0.0000
# 5 0.0000 0.0000 0.0000 0.0000 -0.0979 0.0000
# 6 0.0000 0.0000 0.0000 0.0000 0.0000 12.2940
#
#
#
# Elastic Compliance Matrix: (Units=1/GPa)
#
#
# Indices 1 2 3 4 5 6 
#
# 1 0.017603 0.001037 -0.006967 0.000000 0.000000 0.000000
# 2 0.001037 0.014944 -0.007354 0.000000 0.000000 0.000000
# 3 -0.006967 -0.007354 0.015159 0.000000 0.000000 0.000000
# 4 0.000000 0.000000 0.000000 0.064293 -0.000001 0.000000
# 5 0.000000 0.000000 0.000000 -0.000001-10.210122 0.000000
# 6 0.000000 0.000000 0.000000 0.000000 0.000000 0.081341
#
#
# Mechanical properties :
#
#
# Convention : Reuss Voigt Hill
#
# Bulk Modulus (GPa) = 47.30527 53.74883 50.52705
# Shear Modulus (GPa) = -0.50084 16.61814 8.05865
#
# Velocity S-wave (km/s) = -0.50673 2.91887 2.03261
# Velocity P-wave (km/s) = 4.88980 6.23824 5.60472
#
# Compressibility (1/GPa) = 0.02113930
#
# Stress axis : x y z
#
# Youngs Moduli (GPa) = 56.80772 66.91582 65.96598
#
# Poissons Ratio (x) = -0.06939 0.45956
# Poissons Ratio (y) = -0.05891 0.48512
# Poissons Ratio (z) = 0.39576 0.49211
#
# Static dielectric constant tensor:
#      x y z
#    x 1.724380 0.000000 0.000000 
#    y 0.000000 1.631410 0.000000 
#    z 0.000000 0.000000 1.763900 
# 
# From -- ./inp_files/43142.got.cif
#   From: 2010.05.17/outbox.cif.g08.bks.cpg/sg72_22_cif.got.tgz:43142.got - 2010.06.03 17:03:01.
