data_PCOD9526082
_publ_section_title
;
Structure prediction by ZEFSAII (Michael W. Deem and Ramdas Pophale) SiO2 
 PCOD9526082
Probable space group: I B A M
;
_chemical_formula_sum "Si O2"
_cell_formula_units_Z 88
_cell_length_a 21.271399
_cell_length_b 21.539889
_cell_length_c 8.970931
_cell_angle_alpha 90.000000
_cell_angle_beta 90.000000
_cell_angle_gamma 90.000000
_cell_volume 4110.333222
_symmetry_space_group_name_H-M "I B A M"
_symmetry_group_IT_number 72
_symmetry_cell_setting 'orthorhombic'
loop_
_space_group_symop_operation_xyz
x,y,z
-x,-y,z
x,-y,1/2-z
-x,y,1/2-z
-x,-y,-z
x,y,-z
-x,y,1/2+z
x,-y,1/2+z
1/2+x,1/2+y,1/2+z
1/2-x,1/2-y,1/2+z
1/2+x,1/2-y,-z
1/2-x,1/2+y,-z
1/2-x,1/2-y,1/2-z
1/2+x,1/2+y,1/2-z
1/2-x,1/2+y,z
1/2+x,1/2-y,z
loop_
_atom_site_type_symbol
_atom_site_label
_atom_site_fract_x
_atom_site_fract_y
_atom_site_fract_z
Si Si1 0.903314 0.561389 0.165373
Si Si2 0.888659 0.249343 0.170668
Si Si3 0.310840 0.437426 0.320573
Si Si4 0.932500 0.884990 0.680530
Si Si5 0.198382 0.353787 0.679612
Si Si6 0.000000 0.660015 0.750000
O O1 0.924588 0.500000 0.250000
O O2 0.848098 0.593824 0.257872
O O3 0.958038 0.612571 0.155905
O O4 0.881580 0.545038 0.000000
O O5 0.911866 0.184311 0.235042
O O6 0.830219 0.288373 0.237524
O O7 0.948579 0.295660 0.173776
O O8 0.871717 0.235563 0.000000
O O9 0.282068 0.500000 0.250000
O O10 0.314895 0.442485 0.500000
O O11 0.378068 0.428427 0.243946
O O12 0.267823 0.377388 0.282712
O O13 0.935632 0.886910 0.500000
O O14 0.000000 0.899648 0.750000
O O15 0.193517 0.352413 0.500000
#
# Coordination Sequence:
#
# PCOD9526082 Si02
#       6
#    16  16  16  16  16   8
#     4  11  22  33  51  79 115 159 207 255 301 355
#     4   9  18  35  59  87 122 160 198 244 300 357
#     4  11  24  43  66  92 123 161 206 255 311 368
#     4  11  23  41  66  95 127 162 202 250 307 367
#     4   9  20  39  62  88 122 161 201 248 300 360
#     4  10  19  34  52  78 115 156 204 248 300 352
#
# _framework density 21.409455999999999
#
# number of rings (size 3 to 8) (size 9 to 14) (size 15 to 20)
#    0.000    1.818    0.909    3.000    0.000    6.909 
#    0.000    2.727    0.000    0.000    0.000    0.000 
#    0.000    0.000    0.000    0.000    0.000    0.000 
#
# Total GULP energy -245496.173660 kJ/mol
# GULP energy per Si atom -5579.458492 kJ/mol
# Density = 2.136073 g / cm^3
# Si number density = 21.409456 Si / 1000 Ang^3
#
#
#
# Elastic Constant Matrix: (Units=GPa)
#
#
# Indices 1 2 3 4 5 6 
#
# 1 108.8551 4.1477 16.4902 0.0000 0.0000 0.0000
# 2 4.1477 41.8431 -1.5165 0.0000 0.0000 0.0000
# 3 16.4902 -1.5165 41.4358 0.0000 0.0000 0.0000
# 4 0.0000 0.0000 0.0000 19.1273 0.0000 0.0000
# 5 0.0000 0.0000 0.0000 0.0000 9.4212 0.0000
# 6 0.0000 0.0000 0.0000 0.0000 0.0000 25.7515
#
#
#
# Elastic Compliance Matrix: (Units=1/GPa)
#
#
# Indices 1 2 3 4 5 6 
#
# 1 0.009828 -0.001117 -0.003952 0.000000 0.000000 0.000000
# 2 -0.001117 0.024058 0.001325 0.000000 0.000000 0.000000
# 3 -0.003952 0.001325 0.025755 0.000000 0.000000 0.000000
# 4 0.000000 0.000000 0.000000 0.052281 0.000000 0.000000
# 5 0.000000 0.000000 0.000000 0.000000 0.106143 0.000000
# 6 0.000000 0.000000 0.000000 0.000000 0.000000 0.038833
#
#
# Mechanical properties :
#
#
# Convention : Reuss Voigt Hill
#
# Bulk Modulus (GPa) = 19.17478 25.59741 22.38610
# Shear Modulus (GPa) = 17.74497 22.39419 20.06958
#
# Velocity S-wave (km/s) = 2.88208 3.23769 3.06505
# Velocity P-wave (km/s) = 4.47782 5.09499 4.79634
#
# Compressibility (1/GPa) = 0.05215182
#
# Stress axis : x y z
#
# Youngs Moduli (GPa) = 101.75229 41.56696 38.82738
#
# Poissons Ratio (x) = 0.04645 0.15345
# Poissons Ratio (y) = 0.11370 -0.05145
# Poissons Ratio (z) = 0.40213 -0.05508
#
# Static dielectric constant tensor:
#      x y z
#    x 1.783970 0.000000 0.000000 
#    y 0.000000 1.788120 0.000000 
#    z 0.000000 0.000000 1.726720 
# 
# From -- ./inp_files/5796.got.cif
#   From: 2010.05.17/outbox.cif.g08.bks.cpg/sg72_3_cif.got.tgz:5796.got - 2010.06.03 17:03:01.
