data_PCOD9526034
_publ_section_title
;
Structure prediction by ZEFSAII (Michael W. Deem and Ramdas Pophale) SiO2 
 PCOD9526034
Probable space group: I B A M
;
_chemical_formula_sum "Si O2"
_cell_formula_units_Z 116
_cell_length_a 27.121788
_cell_length_b 24.500634
_cell_length_c 8.598497
_cell_angle_alpha 90.000000
_cell_angle_beta 90.000000
_cell_angle_gamma 90.000000
_cell_volume 5713.709865
_symmetry_space_group_name_H-M "I B A M"
_symmetry_group_IT_number 72
_symmetry_cell_setting 'orthorhombic'
loop_
_space_group_symop_operation_xyz
x,y,z
-x,-y,z
x,-y,1/2-z
-x,y,1/2-z
-x,-y,-z
x,y,-z
-x,y,1/2+z
x,-y,1/2+z
1/2+x,1/2+y,1/2+z
1/2-x,1/2-y,1/2+z
1/2+x,1/2-y,-z
1/2-x,1/2+y,-z
1/2-x,1/2-y,1/2-z
1/2+x,1/2+y,1/2-z
1/2-x,1/2+y,z
1/2+x,1/2-y,z
loop_
_atom_site_type_symbol
_atom_site_label
_atom_site_fract_x
_atom_site_fract_y
_atom_site_fract_z
Si Si1 0.564865 0.702085 0.323623
Si Si2 0.162666 0.666013 0.811490
Si Si3 0.817206 0.782189 0.174781
Si Si4 0.811984 0.101947 0.182327
Si Si5 0.500000 0.500000 0.250000
Si Si6 0.449738 0.180441 0.815527
Si Si7 0.782887 0.442856 0.183067
Si Si8 0.071848 0.087098 0.315809
O O1 0.545325 0.698801 0.500000
O O2 0.623998 0.707852 0.335870
O O3 0.549509 0.756577 0.236689
O O4 0.555198 0.648209 0.224482
O O5 0.186835 0.721971 0.747550
O O6 0.104880 0.661546 0.763883
O O7 0.190126 0.611595 0.756820
O O8 0.164138 0.669422 0.000000
O O9 0.801056 0.834904 0.272411
O O10 0.796133 0.784040 0.000000
O O11 0.774543 0.065157 0.277843
O O12 0.869272 0.087041 0.211979
O O13 0.803108 0.094547 0.000000
O O14 0.458470 0.454270 0.293593
O O15 0.500000 0.154304 0.750000
O O16 0.451436 0.176407 0.000000
O O17 0.800940 0.500000 0.250000
O O18 0.789912 0.443892 0.000000
O O19 0.062562 0.074096 0.500000
#
# Coordination Sequence:
#
# PCOD9526034 Si02
#       8
#    16  16  16  16   4  16  16  16
#     4   9  18  33  54  80 111 147 186 232 283 340
#     4   9  20  38  59  85 121 157 191 236 287 346
#     4   9  17  32  57  89 119 150 189 236 292 347
#     4  10  21  39  62  87 115 152 195 244 298 352
#     4  12  26  40  56  78 106 152 204 250 294 332
#     4  10  19  33  56  86 118 151 185 225 276 337
#     4  11  24  42  63  88 115 151 196 240 292 347
#     4  10  23  41  57  77 107 146 194 245 295 341
#
# _framework density 20.302046000000001
#
# number of rings (size 3 to 8) (size 9 to 14) (size 15 to 20)
#    0.000    2.207    0.000    2.276    1.931    7.172 
#    0.000    0.000    0.000    0.414    0.000    2.897 
#    0.000    0.000    0.000    0.000    0.000    0.000 
#
# Total GULP energy -323406.211368 kJ/mol
# GULP energy per Si atom -5575.969162 kJ/mol
# Density = 2.025584 g / cm^3
# Si number density = 20.302046 Si / 1000 Ang^3
#
#
#
# Elastic Constant Matrix: (Units=GPa)
#
#
# Indices 1 2 3 4 5 6 
#
# 1 70.9723 28.6968 5.7969 0.0000 0.0000 0.0000
# 2 28.6968 108.5354 15.7057 0.0000 0.0000 0.0000
# 3 5.7969 15.7057 30.0443 0.0000 0.0000 0.0000
# 4 0.0000 0.0000 0.0000 19.0508 0.0000 0.0000
# 5 0.0000 0.0000 0.0000 0.0000 18.6165 0.0000
# 6 0.0000 0.0000 0.0000 0.0000 0.0000 50.6435
#
#
#
# Elastic Compliance Matrix: (Units=1/GPa)
#
#
# Indices 1 2 3 4 5 6 
#
# 1 0.015801 -0.004042 -0.000936 0.000000 0.000000 0.000000
# 2 -0.004042 0.011002 -0.004971 0.000000 0.000000 0.000000
# 3 -0.000936 -0.004971 0.036063 0.000000 0.000000 0.000000
# 4 0.000000 0.000000 0.000000 0.052491 0.000000 0.000000
# 5 0.000000 0.000000 0.000000 0.000000 0.053716 0.000000
# 6 0.000000 0.000000 0.000000 0.000000 0.000000 0.019746
#
#
# Mechanical properties :
#
#
# Convention : Reuss Voigt Hill
#
# Bulk Modulus (GPa) = 23.27326 34.43898 28.85612
# Shear Modulus (GPa) = 22.41754 28.28568 25.35161
#
# Velocity S-wave (km/s) = 3.32656 3.73667 3.53756
# Velocity P-wave (km/s) = 5.12280 5.96800 5.56148
#
# Compressibility (1/GPa) = 0.04296778
#
# Stress axis : x y z
#
# Youngs Moduli (GPa) = 63.28745 90.89462 27.72895
#
# Poissons Ratio (x) = 0.36743 0.02594
# Poissons Ratio (y) = 0.25583 0.13785
# Poissons Ratio (z) = 0.05921 0.45186
#
# Static dielectric constant tensor:
#      x y z
#    x 1.798220 0.000000 0.000000 
#    y 0.000000 1.692360 0.000000 
#    z 0.000000 0.000000 1.732210 
# 
# From -- ./inp_files/7502.got.cif
#   From: 2010.05.17/outbox.cif.g08.bks.cpg/sg72_4_cif.got.tgz:7502.got - 2010.06.03 17:03:01.
