data_PCOD9526319
_publ_section_title
;
Structure prediction by ZEFSAII (Michael W. Deem and Ramdas Pophale) SiO2 
 PCOD9526319
Probable space group: I B A M
;
_chemical_formula_sum "Si O2"
_cell_formula_units_Z 112
_cell_length_a 12.143721
_cell_length_b 31.810894
_cell_length_c 13.978989
_cell_angle_alpha 90.000000
_cell_angle_beta 90.000000
_cell_angle_gamma 90.000000
_cell_volume 5400.120097
_symmetry_space_group_name_H-M "I B A M"
_symmetry_group_IT_number 72
_symmetry_cell_setting 'orthorhombic'
loop_
_space_group_symop_operation_xyz
x,y,z
-x,-y,z
x,-y,1/2-z
-x,y,1/2-z
-x,-y,-z
x,y,-z
-x,y,1/2+z
x,-y,1/2+z
1/2+x,1/2+y,1/2+z
1/2-x,1/2-y,1/2+z
1/2+x,1/2-y,-z
1/2-x,1/2+y,-z
1/2-x,1/2-y,1/2-z
1/2+x,1/2+y,1/2-z
1/2-x,1/2+y,z
1/2+x,1/2-y,z
loop_
_atom_site_type_symbol
_atom_site_label
_atom_site_fract_x
_atom_site_fract_y
_atom_site_fract_z
Si Si1 0.331886 0.450996 0.228405
Si Si2 0.936939 0.269951 0.651545
Si Si3 0.404734 0.678383 0.104675
Si Si4 0.228309 0.328690 0.231933
Si Si5 0.554555 0.144943 0.394161
Si Si6 0.531556 0.412711 0.889669
Si Si7 0.831578 0.403293 0.612085
O O1 0.340920 0.500000 0.250000
O O2 0.427409 0.436565 0.154756
O O3 0.363260 0.425399 0.324760
O O4 0.215750 0.439383 0.180420
O O5 0.948934 0.225612 0.601189
O O6 0.815755 0.286324 0.681685
O O7 0.000000 0.264684 0.750000
O O8 0.990820 0.310368 0.602007
O O9 0.329510 0.678591 0.198664
O O10 0.482267 0.637824 0.116191
O O11 0.349098 0.671564 0.000000
O O12 0.137427 0.348518 0.306052
O O13 0.238167 0.362901 0.148582
O O14 0.602947 0.136934 0.500000
O O15 0.459340 0.110291 0.376644
O O16 0.547005 0.424107 0.000000
O O17 0.812532 0.411701 0.500000
#
# Coordination Sequence:
#
# PCOD9526319 Si02
#       7
#    16  16  16  16  16  16  16
#     4  11  23  40  62  86 114 148 189 244 293 359
#     4   9  19  31  50  77 114 160 201 245 290 340
#     4  11  21  33  53  81 118 154 196 247 291 348
#     4  10  19  36  55  83 115 156 201 242 293 349
#     4   9  18  35  59  84 117 156 200 245 292 353
#     4  10  22  38  57  85 117 154 190 230 289 353
#     4  10  20  36  60  87 112 145 190 240 289 348
#
# _framework density 20.740281
#
# number of rings (size 3 to 8) (size 9 to 14) (size 15 to 20)
#    0.000    2.000    1.429    3.857    2.000    2.286 
#    0.000    0.000    0.000    9.429    0.000    5.000 
#    0.000    0.000    0.000    0.000    0.000    0.000 
#
# Total GULP energy -312249.200994 kJ/mol
# GULP energy per Si atom -5575.878589 kJ/mol
# Density = 2.069307 g / cm^3
# Si number density = 20.740281 Si / 1000 Ang^3
#
#
#
# Elastic Constant Matrix: (Units=GPa)
#
#
# Indices 1 2 3 4 5 6 
#
# 1 39.2960 23.8998 14.9388 0.0001 -0.0001 0.0000
# 2 23.8998 120.7783 28.0882 0.0003 -0.0001 0.0000
# 3 14.9388 28.0882 121.5577 0.0013 0.0001 0.0002
# 4 0.0001 0.0003 0.0013 -29.1619 -0.0001 0.0001
# 5 -0.0001 -0.0001 0.0001 -0.0001 16.2900 -0.0002
# 6 0.0000 0.0000 0.0002 0.0001 -0.0002 18.3166
#
#
#
# Elastic Compliance Matrix: (Units=1/GPa)
#
#
# Indices 1 2 3 4 5 6 
#
# 1 0.029584 -0.005293 -0.002413 0.000000 0.000000 0.000000
# 2 -0.005293 0.009697 -0.001590 0.000000 0.000000 0.000000
# 3 -0.002413 -0.001590 0.008890 0.000000 0.000000 0.000000
# 4 0.000000 0.000000 0.000000 -0.034291 0.000000 0.000000
# 5 0.000000 0.000000 0.000000 0.000000 0.061387 0.000001
# 6 0.000000 0.000000 0.000000 0.000000 0.000001 0.054595
#
#
# Mechanical properties :
#
#
# Convention : Reuss Voigt Hill
#
# Bulk Modulus (GPa) = 33.80681 46.16506 39.98593
# Shear Modulus (GPa) = 31.58265 15.40263 23.49264
#
# Velocity S-wave (km/s) = 3.90650 2.72811 3.36922
# Velocity P-wave (km/s) = 6.05666 5.67718 5.86999
#
# Compressibility (1/GPa) = 0.02957984
#
# Stress axis : x y z
#
# Youngs Moduli (GPa) = 33.80162 103.12637 112.47981
#
# Poissons Ratio (x) = 0.54586 0.27138
# Poissons Ratio (y) = 0.17892 0.17886
# Poissons Ratio (z) = 0.08155 0.16399
#
# Static dielectric constant tensor:
#      x y z
#    x 1.800950 0.000000 0.000000 
#    y 0.000000 1.748020 0.000000 
#    z 0.000000 0.000000 1.824330 
# 
# From -- ./inp_files/20706.got.cif
#   From: 2010.05.17/outbox.cif.g08.bks.cpg/sg72_11_cif.got.tgz:20706.got - 2010.06.03 17:03:01.
