data_PCOD9526404
_publ_section_title
;
Structure prediction by ZEFSAII (Michael W. Deem and Ramdas Pophale) SiO2 
 PCOD9526404
Probable space group: I B A M
;
_chemical_formula_sum "Si O2"
_cell_formula_units_Z 116
_cell_length_a 19.123782
_cell_length_b 17.093044
_cell_length_c 18.384998
_cell_angle_alpha 90.000000
_cell_angle_beta 90.000000
_cell_angle_gamma 90.000000
_cell_volume 6009.755199
_symmetry_space_group_name_H-M "I B A M"
_symmetry_group_IT_number 72
_symmetry_cell_setting 'orthorhombic'
loop_
_space_group_symop_operation_xyz
x,y,z
-x,-y,z
x,-y,1/2-z
-x,y,1/2-z
-x,-y,-z
x,y,-z
-x,y,1/2+z
x,-y,1/2+z
1/2+x,1/2+y,1/2+z
1/2-x,1/2-y,1/2+z
1/2+x,1/2-y,-z
1/2-x,1/2+y,-z
1/2-x,1/2-y,1/2-z
1/2+x,1/2+y,1/2-z
1/2-x,1/2+y,z
1/2+x,1/2-y,z
loop_
_atom_site_type_symbol
_atom_site_label
_atom_site_fract_x
_atom_site_fract_y
_atom_site_fract_z
Si Si1 0.171254 0.729993 0.770114
Si Si2 0.500000 0.500000 0.500000
Si Si3 0.222930 0.494014 0.582945
Si Si4 0.619692 0.072952 0.198355
Si Si5 0.007259 0.406071 0.081154
Si Si6 0.883432 0.009741 0.872569
Si Si7 0.917179 0.124174 0.257503
Si Si8 0.853912 0.330983 0.081649
O O1 0.250000 0.750000 0.750000
O O2 0.151726 0.642494 0.745650
O O3 0.120526 0.793265 0.734452
O O4 0.160847 0.731365 0.856697
O O5 0.439963 0.514500 0.436215
O O6 0.205475 0.518218 0.500000
O O7 0.177093 0.540166 0.641852
O O8 0.304571 0.504519 0.598096
O O9 0.199852 0.403268 0.588742
O O10 0.557660 0.107970 0.148964
O O11 0.597875 0.000000 0.250000
O O12 0.931426 0.367574 0.091174
O O13 0.000000 0.500000 0.079422
O O14 0.033089 0.382310 0.000000
O O15 0.899677 0.932501 0.824598
O O16 0.890447 0.080790 0.815390
O O17 0.000000 0.133044 0.250000
O O18 0.849236 0.299421 0.000000
#
# Coordination Sequence:
#
# PCOD9526404 Si02
#       8
#    16   4  16  16  16  16  16  16
#     4  12  26  44  63  96 133 167 216 270 322 385
#     4  12  20  42  68 108 124 160 230 272 312 402
#     4  11  21  37  65  97 126 169 212 265 321 385
#     4  12  24  39  66  97 129 169 225 263 320 386
#     4  10  19  37  62  91 129 169 212 267 304 377
#     4  11  22  43  71  96 125 163 215 267 328 385
#     4  11  24  43  67  90 129 168 207 262 329 383
#     4  10  22  41  63  92 131 174 213 256 330 382
#
# _framework density 19.301950999999999
#
# number of rings (size 3 to 8) (size 9 to 14) (size 15 to 20)
#    0.000    0.966    4.828    2.483    3.862    1.379 
#    1.241    1.379    3.034    0.000    0.000    0.000 
#    0.000    0.000    0.000    0.000    0.000    0.000 
#
# Total GULP energy -323664.076532 kJ/mol
# GULP energy per Si atom -5580.415113 kJ/mol
# Density = 1.925802 g / cm^3
# Si number density = 19.301951 Si / 1000 Ang^3
#
#
#
# Elastic Constant Matrix: (Units=GPa)
#
#
# Indices 1 2 3 4 5 6 
#
# 1 85.0900 -1.6992 23.0423 0.0000 0.0000 0.0000
# 2 -1.6992 58.7305 15.9017 0.0000 0.0000 0.0000
# 3 23.0423 15.9017 115.9218 0.0000 0.0000 0.0000
# 4 0.0000 0.0000 0.0000 -9.9935 0.0000 0.0000
# 5 0.0000 0.0000 0.0000 0.0000 30.9951 0.0000
# 6 0.0000 0.0000 0.0000 0.0000 0.0000 17.7327
#
#
#
# Elastic Compliance Matrix: (Units=1/GPa)
#
#
# Indices 1 2 3 4 5 6 
#
# 1 0.012486 0.001073 -0.002629 0.000000 0.000000 0.000000
# 2 0.001073 0.017776 -0.002652 0.000000 0.000000 0.000000
# 3 -0.002629 -0.002652 0.009513 0.000000 0.000000 0.000000
# 4 0.000000 0.000000 0.000000 -0.100065 0.000000 0.000000
# 5 0.000000 0.000000 0.000000 0.000000 0.032263 0.000000
# 6 0.000000 0.000000 0.000000 0.000000 0.000000 0.056393
#
#
# Mechanical properties :
#
#
# Convention : Reuss Voigt Hill
#
# Bulk Modulus (GPa) = 31.88874 37.13686 34.51280
# Shear Modulus (GPa) = 105.85585 22.58003 64.21794
#
# Velocity S-wave (km/s) = 7.41358 3.42399 5.77429
# Velocity P-wave (km/s) = 9.47831 5.90875 7.89784
#
# Compressibility (1/GPa) = 0.03135904
#
# Stress axis : x y z
#
# Youngs Moduli (GPa) = 80.09210 56.25580 105.12107
#
# Poissons Ratio (x) = -0.06037 0.27637
# Poissons Ratio (y) = -0.08594 0.27875
# Poissons Ratio (z) = 0.21056 0.14917
#
# Static dielectric constant tensor:
#      x y z
#    x 1.646180 0.000000 0.000000 
#    y 0.000000 1.624500 0.000000 
#    z 0.000000 0.000000 1.698570 
# 
# From -- ./inp_files/31764.got.cif
#   From: 2010.05.17/outbox.cif.g08.bks.cpg/sg72_16_cif.got.tgz:31764.got - 2010.06.03 17:03:01.
