data_PCOD9526714
_publ_section_title
;
Structure prediction by ZEFSAII (Michael W. Deem and Ramdas Pophale) SiO2 
 PCOD9526714
Probable space group: I B A M
;
_chemical_formula_sum "Si O2"
_cell_formula_units_Z 96
_cell_length_a 19.991056
_cell_length_b 9.212739
_cell_length_c 26.832575
_cell_angle_alpha 90.000000
_cell_angle_beta 90.000000
_cell_angle_gamma 90.000000
_cell_volume 4941.819233
_symmetry_space_group_name_H-M "I B A M"
_symmetry_group_IT_number 72
_symmetry_cell_setting 'orthorhombic'
loop_
_space_group_symop_operation_xyz
x,y,z
-x,-y,z
x,-y,1/2-z
-x,y,1/2-z
-x,-y,-z
x,y,-z
-x,y,1/2+z
x,-y,1/2+z
1/2+x,1/2+y,1/2+z
1/2-x,1/2-y,1/2+z
1/2+x,1/2-y,-z
1/2-x,1/2+y,-z
1/2-x,1/2-y,1/2-z
1/2+x,1/2+y,1/2-z
1/2-x,1/2+y,z
1/2+x,1/2-y,z
loop_
_atom_site_type_symbol
_atom_site_label
_atom_site_fract_x
_atom_site_fract_y
_atom_site_fract_z
Si Si1 0.167759 0.824148 0.559511
Si Si2 0.758255 0.911131 0.386057
Si Si3 0.474566 0.835579 0.302752
Si Si4 0.434859 0.100951 0.055331
Si Si5 0.482630 0.666614 0.098543
Si Si6 0.160603 0.364057 0.648839
O O1 0.167776 0.828445 0.500000
O O2 0.210364 0.687489 0.579395
O O3 0.092489 0.811005 0.579907
O O4 0.200755 0.970722 0.581893
O O5 0.805471 0.791620 0.360434
O O6 0.715084 0.008395 0.347417
O O7 0.500000 0.777073 0.250000
O O8 0.503543 0.746118 0.349082
O O9 0.394606 0.846062 0.308546
O O10 0.500000 0.000000 0.307180
O O11 0.465837 0.261167 0.059768
O O12 0.380732 0.091641 0.098698
O O13 0.500000 0.000000 0.064057
O O14 0.408427 0.070229 0.000000
O O15 0.500000 0.500000 0.104054
#
# Coordination Sequence:
#
# PCOD9526714 Si02
#       6
#    16  16  16  16  16  16
#     4  11  21  34  52  77 112 154 196 227 265 324
#     4  10  22  35  53  78 115 155 186 222 267 323
#     4  10  21  40  67  87 105 138 185 236 287 343
#     4  10  20  34  54  80 114 156 200 243 280 321
#     4  11  22  35  55  84 115 144 180 241 301 334
#     4  10  20  37  57  83 113 147 187 227 274 333
#
# _framework density 19.426044000000001
#
# number of rings (size 3 to 8) (size 9 to 14) (size 15 to 20)
#    0.000    1.667    0.000    7.000    0.000    8.333 
#    0.000    0.000    0.000   18.000    0.000    0.000 
#    0.000    0.000    0.000    0.000    0.000    0.000 
#
# Total GULP energy -268147.035957 kJ/mol
# GULP energy per Si atom -5586.396582 kJ/mol
# Density = 1.938183 g / cm^3
# Si number density = 19.426044 Si / 1000 Ang^3
#
#
#
# Elastic Constant Matrix: (Units=GPa)
#
#
# Indices 1 2 3 4 5 6 
#
# 1 82.7334 20.2795 20.1113 0.0000 0.0000 0.0000
# 2 20.2795 105.5689 8.8331 0.0000 0.0000 0.0000
# 3 20.1113 8.8331 72.9995 0.0000 0.0000 0.0000
# 4 0.0000 0.0000 0.0000 6.0455 0.0000 0.0000
# 5 0.0000 0.0000 0.0000 0.0000 -13.4660 0.0000
# 6 0.0000 0.0000 0.0000 0.0000 0.0000 35.3207
#
#
#
# Elastic Compliance Matrix: (Units=1/GPa)
#
#
# Indices 1 2 3 4 5 6 
#
# 1 0.013487 -0.002303 -0.003437 0.000000 0.000000 0.000000
# 2 -0.002303 0.009963 -0.000571 0.000000 0.000000 0.000000
# 3 -0.003437 -0.000571 0.014715 0.000000 0.000000 0.000000
# 4 0.000000 0.000000 0.000000 0.165414 0.000000 0.000000
# 5 0.000000 0.000000 0.000000 0.000000 -0.074261 0.000000
# 6 0.000000 0.000000 0.000000 0.000000 0.000000 0.028312
#
#
# Mechanical properties :
#
#
# Convention : Reuss Voigt Hill
#
# Bulk Modulus (GPa) = 39.15109 39.97219 39.56164
# Shear Modulus (GPa) = 27.96959 19.71855 23.84407
#
# Velocity S-wave (km/s) = 3.79858 3.18945 3.50727
# Velocity P-wave (km/s) = 6.27986 5.84677 6.06718
#
# Compressibility (1/GPa) = 0.02554207
#
# Stress axis : x y z
#
# Youngs Moduli (GPa) = 74.14510 100.37429 67.95930
#
# Poissons Ratio (x) = 0.23119 0.23357
# Poissons Ratio (y) = 0.17077 0.03880
# Poissons Ratio (z) = 0.25484 0.05731
#
# Static dielectric constant tensor:
#      x y z
#    x 1.711820 0.000000 0.000000 
#    y 0.000000 1.696770 0.000000 
#    z 0.000000 0.000000 1.670590 
# 
# From -- ./inp_files/49373.got.cif
#   From: 2010.05.17/outbox.cif.g08.bks.cpg/sg72_25_cif.got.tgz:49373.got - 2010.06.03 17:03:01.
