data_PCOD9526031
_publ_section_title
;
Structure prediction by ZEFSAII (Michael W. Deem and Ramdas Pophale) SiO2 
 PCOD9526031
Probable space group: I B A M
;
_chemical_formula_sum "Si O2"
_cell_formula_units_Z 112
_cell_length_a 14.733283
_cell_length_b 29.197228
_cell_length_c 14.337595
_cell_angle_alpha 90.000000
_cell_angle_beta 90.000000
_cell_angle_gamma 90.000000
_cell_volume 6167.617908
_symmetry_space_group_name_H-M "I B A M"
_symmetry_group_IT_number 72
_symmetry_cell_setting 'orthorhombic'
loop_
_space_group_symop_operation_xyz
x,y,z
-x,-y,z
x,-y,1/2-z
-x,y,1/2-z
-x,-y,-z
x,y,-z
-x,y,1/2+z
x,-y,1/2+z
1/2+x,1/2+y,1/2+z
1/2-x,1/2-y,1/2+z
1/2+x,1/2-y,-z
1/2-x,1/2+y,-z
1/2-x,1/2-y,1/2-z
1/2+x,1/2+y,1/2-z
1/2-x,1/2+y,z
1/2+x,1/2-y,z
loop_
_atom_site_type_symbol
_atom_site_label
_atom_site_fract_x
_atom_site_fract_y
_atom_site_fract_z
Si Si1 0.134040 0.319857 0.389473
Si Si2 0.602726 0.108676 0.235738
Si Si3 0.827136 0.212906 0.387179
Si Si4 0.430919 0.802411 0.888416
Si Si5 0.127328 0.110875 0.105788
Si Si6 0.967268 0.950622 0.642647
Si Si7 0.780543 0.946442 0.727755
O O1 0.140178 0.328496 0.500000
O O2 0.131591 0.367006 0.332549
O O3 0.221643 0.290895 0.361023
O O4 0.038129 0.295732 0.371361
O O5 0.500000 0.090062 0.250000
O O6 0.596071 0.151010 0.163498
O O7 0.682044 0.074343 0.205874
O O8 0.832351 0.215391 0.500000
O O9 0.876154 0.258439 0.353070
O O10 0.870306 0.163738 0.362322
O O11 0.417967 0.807587 0.000000
O O12 0.181339 0.080342 0.180889
O O13 0.026063 0.090407 0.101683
O O14 0.165502 0.108484 0.000000
O O15 0.859416 0.942979 0.648670
O O16 0.000000 0.951912 0.750000
O O17 0.000000 0.000000 0.604170
O O18 0.773666 0.000000 0.750000
#
# Coordination Sequence:
#
# PCOD9526031 Si02
#       7
#    16  16  16  16  16  16  16
#     4   9  17  33  55  75 103 139 176 225 270 313
#     4  10  21  36  56  81 103 142 194 224 267 329
#     4   9  17  32  54  80 105 136 178 220 266 315
#     4   9  19  36  53  74 112 146 173 222 276 322
#     4  10  19  33  56  84 105 135 183 223 257 323
#     4   9  16  33  51  72 105 139 166 201 270 329
#     4  11  20  37  55  75 111 143 174 225 279 319
#
# _framework density 18.15936
#
# number of rings (size 3 to 8) (size 9 to 14) (size 15 to 20)
#    0.000    2.429    4.286    0.000    0.000    1.143 
#    2.571    6.429    0.000    0.000    0.000    5.000 
#    0.000    0.000    0.000    0.000    0.000    0.000 
#
# Total GULP energy -311935.359944 kJ/mol
# GULP energy per Si atom -5570.274285 kJ/mol
# Density = 1.811803 g / cm^3
# Si number density = 18.159360 Si / 1000 Ang^3
#
#
#
# Elastic Constant Matrix: (Units=GPa)
#
#
# Indices 1 2 3 4 5 6 
#
# 1 166.9854 77.0721 19.1821 0.0000 0.0000 0.0000
# 2 77.0721 88.2643 17.6882 0.0001 0.0000 0.0000
# 3 19.1821 17.6882 42.8922 -0.0003 0.0002 0.0000
# 4 0.0000 0.0001 -0.0003 17.7868 0.0001 0.0000
# 5 0.0000 0.0000 0.0002 0.0001 13.2115 0.0000
# 6 0.0000 0.0000 0.0000 0.0000 0.0000 34.6759
#
#
#
# Elastic Compliance Matrix: (Units=1/GPa)
#
#
# Indices 1 2 3 4 5 6 
#
# 1 0.010067 -0.008599 -0.000956 0.000000 0.000000 0.000000
# 2 -0.008599 0.019695 -0.004276 0.000000 0.000000 0.000000
# 3 -0.000956 -0.004276 0.025505 0.000000 0.000000 0.000000
# 4 0.000000 0.000000 0.000000 0.056221 0.000000 0.000000
# 5 0.000000 0.000000 0.000000 0.000000 0.075692 0.000000
# 6 0.000000 0.000000 0.000000 0.000000 0.000000 0.028838
#
#
# Mechanical properties :
#
#
# Convention : Reuss Voigt Hill
#
# Bulk Modulus (GPa) = 36.22570 58.44743 47.33657
# Shear Modulus (GPa) = 19.77188 25.41481 22.59335
#
# Velocity S-wave (km/s) = 3.30327 3.74511 3.53111
# Velocity P-wave (km/s) = 5.87715 7.13840 6.53826
#
# Compressibility (1/GPa) = 0.02760471
#
# Stress axis : x y z
#
# Youngs Moduli (GPa) = 99.33148 50.77347 39.20740
#
# Poissons Ratio (x) = 0.43661 0.03749
# Poissons Ratio (y) = 0.85416 0.16767
# Poissons Ratio (z) = 0.09497 0.21713
#
# Static dielectric constant tensor:
#      x y z
#    x 1.664560 0.000000 0.000000 
#    y 0.000000 1.604230 0.000000 
#    z 0.000000 0.000000 1.663560 
# 
# From -- ./inp_files/22441.got.cif
#   From: 2010.05.17/outbox.cif.g08.bks.cpg/sg72_12_cif.got.tgz:22441.got - 2010.06.03 17:03:01.
