data_PCOD9526803
_publ_section_title
;
Structure prediction by ZEFSAII (Michael W. Deem and Ramdas Pophale) SiO2 
 PCOD9526803
Probable space group: I B A M
;
_chemical_formula_sum "Si O2"
_cell_formula_units_Z 64
_cell_length_a 5.331437
_cell_length_b 29.938187
_cell_length_c 20.618183
_cell_angle_alpha 90.000000
_cell_angle_beta 90.000000
_cell_angle_gamma 90.000000
_cell_volume 3290.941546
_symmetry_space_group_name_H-M "I B A M"
_symmetry_group_IT_number 72
_symmetry_cell_setting 'orthorhombic'
loop_
_space_group_symop_operation_xyz
x,y,z
-x,-y,z
x,-y,1/2-z
-x,y,1/2-z
-x,-y,-z
x,y,-z
-x,y,1/2+z
x,-y,1/2+z
1/2+x,1/2+y,1/2+z
1/2-x,1/2-y,1/2+z
1/2+x,1/2-y,-z
1/2-x,1/2+y,-z
1/2-x,1/2-y,1/2-z
1/2+x,1/2+y,1/2-z
1/2-x,1/2+y,z
1/2+x,1/2-y,z
loop_
_atom_site_type_symbol
_atom_site_label
_atom_site_fract_x
_atom_site_fract_y
_atom_site_fract_z
Si Si1 0.676706 0.130454 0.812736
Si Si2 0.717769 0.731100 0.176534
Si Si3 0.066314 0.048014 0.363013
Si Si4 0.552721 0.920159 0.924563
O O1 0.500000 0.130087 0.750000
O O2 0.809125 0.178042 0.818749
O O3 0.865466 0.088432 0.814637
O O4 0.508704 0.121227 0.876782
O O5 0.750000 0.750000 0.250000
O O6 0.480358 0.754876 0.145175
O O7 0.321389 0.046567 0.406135
O O8 0.175287 0.938430 0.405060
O O9 0.000000 0.000000 0.333639
O O10 0.542494 0.909493 0.000000
#
# Coordination Sequence:
#
# PCOD9526803 Si02
#       4
#    16  16  16  16
#     4  10  23  40  64  93 132 162 209 267 326 375
#     4  10  20  34  61  90 116 151 213 257 307 369
#     4  10  23  40  65  91 126 170 219 256 310 376
#     4  10  23  40  64  92 125 167 220 265 309 368
#
# _framework density 19.447320999999999
#
# number of rings (size 3 to 8) (size 9 to 14) (size 15 to 20)
#    1.500    0.500    2.500    1.500    3.500    4.000 
#    0.000    3.750    0.000    1.500    0.000    0.000 
#    0.000    0.000    0.000    0.000    0.000    0.000 
#
# Total GULP energy -178163.947295 kJ/mol
# GULP energy per Si atom -5567.623353 kJ/mol
# Density = 1.940306 g / cm^3
# Si number density = 19.447321 Si / 1000 Ang^3
#
#
#
# Elastic Constant Matrix: (Units=GPa)
#
#
# Indices 1 2 3 4 5 6 
#
# 1 130.9025 17.4693 17.0363 0.0000 0.0000 0.0000
# 2 17.4693 142.2312 28.1644 0.0000 0.0000 0.0000
# 3 17.0363 28.1644 67.7475 0.0000 0.0000 0.0000
# 4 0.0000 0.0000 0.0000 21.8772 0.0000 0.0000
# 5 0.0000 0.0000 0.0000 0.0000 10.1791 0.0000
# 6 0.0000 0.0000 0.0000 0.0000 0.0000 14.0928
#
#
#
# Elastic Compliance Matrix: (Units=1/GPa)
#
#
# Indices 1 2 3 4 5 6 
#
# 1 0.007950 -0.000633 -0.001736 0.000000 0.000000 0.000000
# 2 -0.000633 0.007712 -0.003047 0.000000 0.000000 0.000000
# 3 -0.001736 -0.003047 0.016464 0.000000 0.000000 0.000000
# 4 0.000000 0.000000 0.000000 0.045710 0.000000 0.000000
# 5 0.000000 0.000000 0.000000 0.000000 0.098240 0.000000
# 6 0.000000 0.000000 0.000000 0.000000 0.000000 0.070958
#
#
# Mechanical properties :
#
#
# Convention : Reuss Voigt Hill
#
# Bulk Modulus (GPa) = 46.96121 51.80236 49.38178
# Shear Modulus (GPa) = 18.87057 27.77725 23.32391
#
# Velocity S-wave (km/s) = 3.11841 3.78343 3.46690
# Velocity P-wave (km/s) = 6.09642 6.76616 6.44000
#
# Compressibility (1/GPa) = 0.02129417
#
# Stress axis : x y z
#
# Youngs Moduli (GPa) = 125.79184 129.67051 60.73882
#
# Poissons Ratio (x) = 0.08203 0.10545
# Poissons Ratio (y) = 0.07958 0.18507
# Poissons Ratio (z) = 0.21838 0.39510
#
# Static dielectric constant tensor:
#      x y z
#    x 1.759980 0.000000 0.000000 
#    y 0.000000 1.687680 0.000000 
#    z 0.000000 0.000000 1.597240 
# 
# From -- ./inp_files/34769.got.cif
#   From: 2010.05.17/outbox.cif.g08.bks.cpg/sg72_18_cif.got.tgz:34769.got - 2010.06.03 17:03:01.
