data_PCOD9526884
_publ_section_title
;
Structure prediction by ZEFSAII (Michael W. Deem and Ramdas Pophale) SiO2 
 PCOD9526884
Probable space group: I B A M
;
_chemical_formula_sum "Si O2"
_cell_formula_units_Z 96
_cell_length_a 24.571489
_cell_length_b 23.835391
_cell_length_c 8.692529
_cell_angle_alpha 90.000000
_cell_angle_beta 90.000000
_cell_angle_gamma 90.000000
_cell_volume 5090.962567
_symmetry_space_group_name_H-M "I B A M"
_symmetry_group_IT_number 72
_symmetry_cell_setting 'orthorhombic'
loop_
_space_group_symop_operation_xyz
x,y,z
-x,-y,z
x,-y,1/2-z
-x,y,1/2-z
-x,-y,-z
x,y,-z
-x,y,1/2+z
x,-y,1/2+z
1/2+x,1/2+y,1/2+z
1/2-x,1/2-y,1/2+z
1/2+x,1/2-y,-z
1/2-x,1/2+y,-z
1/2-x,1/2-y,1/2-z
1/2+x,1/2+y,1/2-z
1/2-x,1/2+y,z
1/2+x,1/2-y,z
loop_
_atom_site_type_symbol
_atom_site_label
_atom_site_fract_x
_atom_site_fract_y
_atom_site_fract_z
Si Si1 0.943468 0.782566 0.315558
Si Si2 0.438555 0.058605 0.815818
Si Si3 0.281749 0.831811 0.680213
Si Si4 0.236963 0.938747 0.180314
Si Si5 0.894621 0.673141 0.182279
Si Si6 0.669650 0.335523 0.680166
O O1 0.945557 0.781571 0.500000
O O2 0.934152 0.720047 0.251610
O O3 0.889505 0.816854 0.266795
O O4 0.000000 0.805190 0.250000
O O5 0.500000 0.063082 0.750000
O O6 0.407226 0.113272 0.757923
O O7 0.415593 0.000000 0.750000
O O8 0.439987 0.056577 0.000000
O O9 0.289871 0.824051 0.500000
O O10 0.277420 0.898094 0.725701
O O11 0.333361 0.809428 0.771935
O O12 0.277806 0.689356 0.767436
O O13 0.181051 0.902452 0.191686
O O14 0.233479 0.000000 0.250000
O O15 0.252199 0.940156 0.000000
O O16 0.900767 0.669710 0.000000
O O17 0.675019 0.320289 0.500000
#
# Coordination Sequence:
#
# PCOD9526884 Si02
#       6
#    16  16  16  16  16  16
#     4  11  23  41  62  86 114 151 194 242 291 343
#     4  11  22  39  59  81 109 147 192 240 290 340
#     4  10  20  35  56  84 113 147 186 230 281 338
#     4   9  17  33  55  84 115 151 188 229 280 340
#     4  12  24  39  57  83 116 152 193 239 287 342
#     4   8  19  38  58  82 117 153 190 234 287 345
#
# _framework density 18.856946000000001
#
# number of rings (size 3 to 8) (size 9 to 14) (size 15 to 20)
#    1.000    0.833    0.000    6.000    0.000    2.667 
#    0.000    3.333    0.000    0.500    0.000    3.500 
#    0.000    0.000    0.000    0.000    0.000    0.000 
#
# Total GULP energy -267811.658419 kJ/mol
# GULP energy per Si atom -5579.409550 kJ/mol
# Density = 1.881403 g / cm^3
# Si number density = 18.856946 Si / 1000 Ang^3
#
#
#
# Elastic Constant Matrix: (Units=GPa)
#
#
# Indices 1 2 3 4 5 6 
#
# 1 87.3309 12.4596 19.3505 0.0000 0.0000 0.0000
# 2 12.4596 48.1100 3.4539 0.0000 0.0000 0.0000
# 3 19.3505 3.4539 91.2093 0.0000 0.0000 0.0000
# 4 0.0000 0.0000 0.0000 20.6296 0.0000 0.0000
# 5 0.0000 0.0000 0.0000 0.0000 30.4851 0.0000
# 6 0.0000 0.0000 0.0000 0.0000 0.0000 23.3342
#
#
#
# Elastic Compliance Matrix: (Units=1/GPa)
#
#
# Indices 1 2 3 4 5 6 
#
# 1 0.012444 -0.003042 -0.002525 0.000000 0.000000 0.000000
# 2 -0.003042 0.021586 -0.000172 0.000000 0.000000 0.000000
# 3 -0.002525 -0.000172 0.011506 0.000000 0.000000 0.000000
# 4 0.000000 0.000000 0.000000 0.048474 0.000000 0.000000
# 5 0.000000 0.000000 0.000000 0.000000 0.032803 0.000000
# 6 0.000000 0.000000 0.000000 0.000000 0.000000 0.042855
#
#
# Mechanical properties :
#
#
# Convention : Reuss Voigt Hill
#
# Bulk Modulus (GPa) = 29.36105 33.01979 31.19042
# Shear Modulus (GPa) = 25.97426 27.64887 26.81157
#
# Velocity S-wave (km/s) = 3.71541 3.83331 3.77482
# Velocity P-wave (km/s) = 5.83180 6.09435 5.96452
#
# Compressibility (1/GPa) = 0.03405872
#
# Stress axis : x y z
#
# Youngs Moduli (GPa) = 80.35944 46.32687 86.91132
#
# Poissons Ratio (x) = 0.14090 0.21944
# Poissons Ratio (y) = 0.24441 0.01496
# Poissons Ratio (z) = 0.20290 0.00797
#
# Static dielectric constant tensor:
#      x y z
#    x 1.676480 0.000000 0.000000 
#    y 0.000000 1.682920 0.000000 
#    z 0.000000 0.000000 1.626280 
# 
# From -- ./inp_files/8068.got.cif
#   From: 2010.05.17/outbox.cif.g08.bks.cpg/sg72_5_cif.got.tgz:8068.got - 2010.06.03 17:03:01.
