data_PCOD9526047
_publ_section_title
;
Structure prediction by ZEFSAII (Michael W. Deem and Ramdas Pophale) SiO2 
 PCOD9526047
Probable space group: I B A M
;
_chemical_formula_sum "Si O2"
_cell_formula_units_Z 68
_cell_length_a 8.881504
_cell_length_b 16.073468
_cell_length_c 22.989217
_cell_angle_alpha 90.000000
_cell_angle_beta 90.000000
_cell_angle_gamma 90.000000
_cell_volume 3281.861774
_symmetry_space_group_name_H-M "I B A M"
_symmetry_group_IT_number 72
_symmetry_cell_setting 'orthorhombic'
loop_
_space_group_symop_operation_xyz
x,y,z
-x,-y,z
x,-y,1/2-z
-x,y,1/2-z
-x,-y,-z
x,y,-z
-x,y,1/2+z
x,-y,1/2+z
1/2+x,1/2+y,1/2+z
1/2-x,1/2-y,1/2+z
1/2+x,1/2-y,-z
1/2-x,1/2+y,-z
1/2-x,1/2-y,1/2-z
1/2+x,1/2+y,1/2-z
1/2-x,1/2+y,z
1/2+x,1/2-y,z
loop_
_atom_site_type_symbol
_atom_site_label
_atom_site_fract_x
_atom_site_fract_y
_atom_site_fract_z
Si Si1 0.323789 0.974753 0.565386
Si Si2 0.334153 0.864396 0.324943
Si Si3 0.421218 0.265676 0.359189
Si Si4 0.500000 0.000000 0.750000
Si Si5 0.816833 0.846345 0.569699
O O1 0.284794 0.948344 0.500000
O O2 0.306186 0.901432 0.610713
O O3 0.500000 0.000000 0.566347
O O4 0.230251 0.057737 0.579922
O O5 0.468775 0.798724 0.327634
O O6 0.179022 0.816864 0.313155
O O7 0.391179 0.940930 0.287174
O O8 0.308790 0.212069 0.400043
O O9 0.527116 0.322964 0.399425
O O10 0.821055 0.833233 0.500000
#
# Coordination Sequence:
#
# PCOD9526047 Si02
#       5
#    16  16  16   4  16
#     4  10  19  35  59  89 127 166 204 242 294 360
#     4  11  23  42  64  91 119 161 202 250 310 361
#     4  10  22  37  58  89 128 155 203 257 300 362
#     4  12  24  44  74  86 112 158 210 250 312 380
#     4  10  19  33  57  90 129 172 205 242 296 360
#
# _framework density 20.719946
#
# number of rings (size 3 to 8) (size 9 to 14) (size 15 to 20)
#    0.000    1.647    3.529    0.706    0.000    6.588 
#    0.000    2.353    0.000   12.706    0.000    0.000 
#    0.000    0.000    0.000    0.000    0.000    0.000 
#
# Total GULP energy -190046.614024 kJ/mol
# GULP energy per Si atom -5589.606295 kJ/mol
# Density = 2.067279 g / cm^3
# Si number density = 20.719946 Si / 1000 Ang^3
#
#
#
# Elastic Constant Matrix: (Units=GPa)
#
#
# Indices 1 2 3 4 5 6 
#
# 1 136.6947 62.4772 33.5349 0.0000 0.0000 0.0000
# 2 62.4772 113.6941 46.7765 0.0000 0.0000 0.0000
# 3 33.5349 46.7765 40.9659 0.0000 0.0000 0.0000
# 4 0.0000 0.0000 0.0000 -24.2318 0.0000 0.0000
# 5 0.0000 0.0000 0.0000 0.0000 6.0497 0.0000
# 6 0.0000 0.0000 0.0000 0.0000 0.0000 31.7703
#
#
#
# Elastic Compliance Matrix: (Units=1/GPa)
#
#
# Indices 1 2 3 4 5 6 
#
# 1 0.010046 -0.004031 -0.003622 0.000000 0.000000 0.000000
# 2 -0.004031 0.018206 -0.017488 0.000000 0.000000 0.000000
# 3 -0.003622 -0.017488 0.047344 0.000000 0.000000 0.000000
# 4 0.000000 0.000000 0.000000 -0.041268 0.000000 0.000000
# 5 0.000000 0.000000 0.000000 0.000000 0.165297 0.000000
# 6 0.000000 0.000000 0.000000 0.000000 0.000000 0.031476
#
#
# Mechanical properties :
#
#
# Convention : Reuss Voigt Hill
#
# Bulk Modulus (GPa) = 39.50259 64.10355 51.80307
# Shear Modulus (GPa) = 17.25207 12.62205 14.93706
#
# Velocity S-wave (km/s) = 2.88866 2.47082 2.68788
# Velocity P-wave (km/s) = 5.49839 6.25661 5.88971
#
# Compressibility (1/GPa) = 0.02531480
#
# Stress axis : x y z
#
# Youngs Moduli (GPa) = 99.53942 54.92835 21.12194
#
# Poissons Ratio (x) = 0.22139 0.07650
# Poissons Ratio (y) = 0.40120 0.36939
# Poissons Ratio (z) = 0.36050 0.96061
#
# Static dielectric constant tensor:
#      x y z
#    x 1.738600 0.000000 0.000000 
#    y 0.000000 1.764110 0.000000 
#    z 0.000000 0.000000 1.734850 
# 
# From -- ./inp_files/35477.got.cif
#   From: 2010.05.17/outbox.cif.g08.bks.cpg/sg72_18_cif.got.tgz:35477.got - 2010.06.03 17:03:01.
