data_PCOD9526183
_publ_section_title
;
Structure prediction by ZEFSAII (Michael W. Deem and Ramdas Pophale) SiO2 
 PCOD9526183
Probable space group: I B A M
;
_chemical_formula_sum "Si O2"
_cell_formula_units_Z 116
_cell_length_a 7.858527
_cell_length_b 24.234494
_cell_length_c 28.498488
_cell_angle_alpha 90.000000
_cell_angle_beta 90.000000
_cell_angle_gamma 90.000000
_cell_volume 5427.463668
_symmetry_space_group_name_H-M "I B A M"
_symmetry_group_IT_number 72
_symmetry_cell_setting 'orthorhombic'
loop_
_space_group_symop_operation_xyz
x,y,z
-x,-y,z
x,-y,1/2-z
-x,y,1/2-z
-x,-y,-z
x,y,-z
-x,y,1/2+z
x,-y,1/2+z
1/2+x,1/2+y,1/2+z
1/2-x,1/2-y,1/2+z
1/2+x,1/2-y,-z
1/2-x,1/2+y,-z
1/2-x,1/2-y,1/2-z
1/2+x,1/2+y,1/2-z
1/2-x,1/2+y,z
1/2+x,1/2-y,z
loop_
_atom_site_type_symbol
_atom_site_label
_atom_site_fract_x
_atom_site_fract_y
_atom_site_fract_z
Si Si1 0.319700 0.170111 0.695606
Si Si2 0.162531 0.724087 0.155277
Si Si3 0.211431 0.157230 0.553015
Si Si4 0.150356 0.145856 0.787764
Si Si5 0.691298 0.047956 0.662792
Si Si6 0.500000 0.000000 0.250000
Si Si7 0.455826 0.235467 0.053720
Si Si8 0.821122 0.428037 0.630901
O O1 0.186055 0.213935 0.674298
O O2 0.497232 0.192492 0.675148
O O3 0.300753 0.162894 0.750906
O O4 0.282898 0.109795 0.675515
O O5 0.330439 0.695276 0.175650
O O6 0.149524 0.717942 0.099465
O O7 0.209472 0.135955 0.500000
O O8 0.369623 0.200752 0.557077
O O9 0.048424 0.197621 0.559110
O O10 0.245287 0.107163 0.588235
O O11 0.173295 0.093401 0.821864
O O12 0.000000 0.141093 0.750000
O O13 0.612430 0.034524 0.714069
O O14 0.529290 0.068287 0.631710
O O15 0.745176 0.990048 0.639521
O O16 0.391369 0.225765 0.000000
#
# Coordination Sequence:
#
# PCOD9526183 Si02
#       8
#    16  16  16  16  16   4  16  16
#     4  12  23  38  60  88 124 170 208 257 313 388
#     4  12  22  38  59  89 130 167 207 255 320 387
#     4  10  19  34  58  94 130 161 203 258 317 381
#     4  12  25  40  58  89 125 166 215 265 314 374
#     4  10  20  36  61  84 109 161 214 258 304 362
#     4   8  16  32  58  80  98 140 202 252 292 354
#     4  10  19  34  59  91 126 164 204 251 311 375
#     4  10  19  37  62  86 117 164 213 256 312 366
#
# _framework density 21.372781
#
# number of rings (size 3 to 8) (size 9 to 14) (size 15 to 20)
#    0.000    1.379    4.138    3.310    0.000    0.000 
#    0.000    4.483    0.000    0.828    0.000    0.000 
#    0.000    1.103    0.000    1.103    0.000    0.000 
#
# Total GULP energy -323189.275516 kJ/mol
# GULP energy per Si atom -5572.228888 kJ/mol
# Density = 2.132414 g / cm^3
# Si number density = 21.372781 Si / 1000 Ang^3
#
#
#
# Elastic Constant Matrix: (Units=GPa)
#
#
# Indices 1 2 3 4 5 6 
#
# 1 66.7479 27.1854 24.0873 0.0000 0.0000 0.0000
# 2 27.1854 106.8276 33.0510 0.0000 0.0000 0.0000
# 3 24.0873 33.0510 124.3894 0.0000 0.0000 0.0000
# 4 0.0000 0.0000 0.0000 42.0068 0.0000 0.0000
# 5 0.0000 0.0000 0.0000 0.0000 19.7121 0.0000
# 6 0.0000 0.0000 0.0000 0.0000 0.0000 -2.4451
#
#
#
# Elastic Compliance Matrix: (Units=1/GPa)
#
#
# Indices 1 2 3 4 5 6 
#
# 1 0.017338 -0.003676 -0.002381 0.000000 0.000000 0.000000
# 2 -0.003676 0.010979 -0.002205 0.000000 0.000000 0.000000
# 3 -0.002381 -0.002205 0.009086 0.000000 0.000000 0.000000
# 4 0.000000 0.000000 0.000000 0.023806 0.000000 0.000000
# 5 0.000000 0.000000 0.000000 0.000000 0.050730 0.000000
# 6 0.000000 0.000000 0.000000 0.000000 0.000000 -0.408975
#
#
# Mechanical properties :
#
#
# Convention : Reuss Voigt Hill
#
# Bulk Modulus (GPa) = 47.89409 51.84581 49.86995
# Shear Modulus (GPa) = -18.27796 26.09750 3.90977
#
# Velocity S-wave (km/s) = -2.92755 3.49816 1.35399
# Velocity P-wave (km/s) = 3.32117 6.37391 5.08217
#
# Compressibility (1/GPa) = 0.02087940
#
# Stress axis : x y z
#
# Youngs Moduli (GPa) = 57.67717 91.08698 110.05631
#
# Poissons Ratio (x) = 0.33479 0.26202
# Poissons Ratio (y) = 0.21200 0.24271
# Poissons Ratio (z) = 0.13732 0.20087
#
# Static dielectric constant tensor:
#      x y z
#    x 1.954870 0.000000 0.000000 
#    y 0.000000 1.823670 0.000000 
#    z 0.000000 0.000000 1.457230 
# 
# From -- ./inp_files/50994.got.cif
#   From: 2010.05.17/outbox.cif.g08.bks.cpg/sg72_26_cif.got.tgz:50994.got - 2010.06.03 17:03:01.
