data_PCOD9526639
_publ_section_title
;
Structure prediction by ZEFSAII (Michael W. Deem and Ramdas Pophale) SiO2 
 PCOD9526639
Probable space group: I B A M
;
_chemical_formula_sum "Si O2"
_cell_formula_units_Z 96
_cell_length_a 11.044251
_cell_length_b 28.150576
_cell_length_c 14.786516
_cell_angle_alpha 90.000000
_cell_angle_beta 90.000000
_cell_angle_gamma 90.000000
_cell_volume 4597.157799
_symmetry_space_group_name_H-M "I B A M"
_symmetry_group_IT_number 72
_symmetry_cell_setting 'orthorhombic'
loop_
_space_group_symop_operation_xyz
x,y,z
-x,-y,z
x,-y,1/2-z
-x,y,1/2-z
-x,-y,-z
x,y,-z
-x,y,1/2+z
x,-y,1/2+z
1/2+x,1/2+y,1/2+z
1/2-x,1/2-y,1/2+z
1/2+x,1/2-y,-z
1/2-x,1/2+y,-z
1/2-x,1/2-y,1/2-z
1/2+x,1/2+y,1/2-z
1/2-x,1/2+y,z
1/2+x,1/2-y,z
loop_
_atom_site_type_symbol
_atom_site_label
_atom_site_fract_x
_atom_site_fract_y
_atom_site_fract_z
Si Si1 0.623517 0.979556 0.648685
Si Si2 0.372655 0.517648 0.145964
Si Si3 0.484665 0.114361 0.392581
Si Si4 0.507637 0.223965 0.143961
Si Si5 0.235026 0.116734 0.891293
Si Si6 0.761245 0.775566 0.152143
O O1 0.604145 0.923337 0.651896
O O2 0.500000 0.000000 0.605067
O O3 0.625370 0.000000 0.750000
O O4 0.750125 0.994794 0.605477
O O5 0.500000 0.500000 0.106503
O O6 0.374339 0.500000 0.250000
O O7 0.352065 0.574186 0.139372
O O8 0.468101 0.111603 0.500000
O O9 0.464345 0.168169 0.362809
O O10 0.625185 0.102266 0.373085
O O11 0.500000 0.236614 0.250000
O O12 0.371438 0.231115 0.107255
O O13 0.621092 0.252725 0.105998
O O14 0.217751 0.167735 0.844102
O O15 0.223666 0.123301 0.000000
O O16 0.750000 0.750000 0.250000
#
# Coordination Sequence:
#
# PCOD9526639 Si02
#       6
#    16  16  16  16  16  16
#     4  10  20  33  59  84 110 143 191 235 279 329
#     4  10  22  40  57  85 116 158 195 244 289 354
#     4  10  21  35  56  86 113 145 188 236 284 339
#     4   9  19  35  58  81 111 144 186 232 283 337
#     4  10  21  38  60  84 119 160 193 236 306 361
#     4   9  19  37  58  85 112 148 192 237 287 353
#
# _framework density 20.882466999999998
#
# number of rings (size 3 to 8) (size 9 to 14) (size 15 to 20)
#    0.000    2.333    1.667    0.000    2.333    6.000 
#   12.000    0.000    0.000    0.000    0.000    0.000 
#    0.000    0.000    0.000    0.000    0.000    0.000 
#
# Total GULP energy -267784.769694 kJ/mol
# GULP energy per Si atom -5578.849369 kJ/mol
# Density = 2.083494 g / cm^3
# Si number density = 20.882467 Si / 1000 Ang^3
#
#
#
# Elastic Constant Matrix: (Units=GPa)
#
#
# Indices 1 2 3 4 5 6 
#
# 1 196.8172 92.7056 6.1284 -0.0012 0.0000 0.0000
# 2 92.7056 145.7906 19.2023 -0.0010 0.0000 0.0000
# 3 6.1284 19.2023 82.7938 -0.0030 0.0000 0.0000
# 4 -0.0012 -0.0010 -0.0030 2659.3357 0.0009 -0.0004
# 5 0.0000 0.0000 0.0000 0.0009 -5.9093 0.0000
# 6 0.0000 0.0000 0.0000 -0.0004 0.0000 40.6899
#
#
#
# Elastic Compliance Matrix: (Units=1/GPa)
#
#
# Indices 1 2 3 4 5 6 
#
# 1 0.007278 -0.004700 0.000551 0.000000 0.000000 0.000000
# 2 -0.004700 0.010111 -0.001997 0.000000 0.000000 0.000000
# 3 0.000551 -0.001997 0.012501 0.000000 0.000000 0.000000
# 4 0.000000 0.000000 0.000000 0.000376 0.000000 0.000000
# 5 0.000000 0.000000 0.000000 0.000000 -0.169225 0.000000
# 6 0.000000 0.000000 0.000000 0.000000 0.000000 0.024576
#
#
# Mechanical properties :
#
#
# Convention : Reuss Voigt Hill
#
# Bulk Modulus (GPa) = 56.82711 73.49713 65.16212
# Shear Modulus (GPa) = -51.96097 559.31429 253.67666
#
# Velocity S-wave (km/s) = -4.99366 16.38355 11.03368
# Velocity P-wave (km/s) = 2.44477 19.82842 13.91383
#
# Compressibility (1/GPa) = 0.01759723
#
# Stress axis : x y z
#
# Youngs Moduli (GPa) = 137.40647 98.90136 79.99636
#
# Poissons Ratio (x) = 0.46487 -0.04411
# Poissons Ratio (y) = 0.64586 0.15976
# Poissons Ratio (z) = -0.07577 0.19752
#
# Static dielectric constant tensor:
#      x y z
#    x 1.826730 0.000000 0.000000 
#    y 0.000000 1.627090 0.000000 
#    z 0.000000 0.000000 1.720900 
# 
# From -- ./inp_files/29457.got.cif
#   From: 2010.05.17/outbox.cif.g08.bks.cpg/sg72_15_cif.got.tgz:29457.got - 2010.06.03 17:03:01.
