data_PCOD9526550
_publ_section_title
;
Structure prediction by ZEFSAII (Michael W. Deem and Ramdas Pophale) SiO2 
 PCOD9526550
Probable space group: I B A M
;
_chemical_formula_sum "Si O2"
_cell_formula_units_Z 80
_cell_length_a 23.565258
_cell_length_b 24.367255
_cell_length_c 9.941181
_cell_angle_alpha 90.000000
_cell_angle_beta 90.000000
_cell_angle_gamma 90.000000
_cell_volume 5708.431424
_symmetry_space_group_name_H-M "I B A M"
_symmetry_group_IT_number 72
_symmetry_cell_setting 'orthorhombic'
loop_
_space_group_symop_operation_xyz
x,y,z
-x,-y,z
x,-y,1/2-z
-x,y,1/2-z
-x,-y,-z
x,y,-z
-x,y,1/2+z
x,-y,1/2+z
1/2+x,1/2+y,1/2+z
1/2-x,1/2-y,1/2+z
1/2+x,1/2-y,-z
1/2-x,1/2+y,-z
1/2-x,1/2-y,1/2-z
1/2+x,1/2+y,1/2-z
1/2-x,1/2+y,z
1/2+x,1/2-y,z
loop_
_atom_site_type_symbol
_atom_site_label
_atom_site_fract_x
_atom_site_fract_y
_atom_site_fract_z
Si Si1 0.164608 0.257243 0.342550
Si Si2 0.721321 0.671477 0.341794
Si Si3 0.553934 0.170595 0.339808
Si Si4 0.396275 0.949106 0.657468
Si Si5 0.239670 0.448880 0.658317
O O1 0.163875 0.241543 0.500000
O O2 0.217206 0.299413 0.324980
O O3 0.177900 0.205451 0.249024
O O4 0.106792 0.289269 0.311590
O O5 0.706895 0.675408 0.500000
O O6 0.729217 0.607777 0.306175
O O7 0.500000 0.184510 0.250000
O O8 0.542005 0.173682 0.500000
O O9 0.573222 0.108043 0.310296
O O10 0.405992 0.961710 0.500000
O O11 0.328365 0.940772 0.675031
O O12 0.413987 0.000000 0.750000
O O13 0.256669 0.500000 0.750000
O O14 0.249078 0.459993 0.500000
#
# Coordination Sequence:
#
# PCOD9526550 Si02
#       5
#    16  16  16  16  16
#     4   9  17  30  45  62  85 112 142 178 221 260
#     4   9  16  28  46  65  86 111 140 177 217 260
#     4  10  20  33  46  60  84 115 148 187 224 256
#     4   9  17  30  44  58  81 113 148 185 221 253
#     4   9  16  27  43  63  88 115 142 175 215 255
#
# _framework density 14.014357
#
# number of rings (size 3 to 8) (size 9 to 14) (size 15 to 20)
#    0.000    2.800    2.000    0.000    0.000    2.800 
#    0.000    2.000    0.000    0.000    0.000    0.000 
#    0.000    0.800    0.000    8.800    0.000    6.400 
#
# Total GULP energy -222873.034155 kJ/mol
# GULP energy per Si atom -5571.825854 kJ/mol
# Density = 1.398246 g / cm^3
# Si number density = 14.014357 Si / 1000 Ang^3
#
#
#
# Elastic Constant Matrix: (Units=GPa)
#
#
# Indices 1 2 3 4 5 6 
#
# 1 68.7020 49.1912 52.7984 0.0000 0.0000 0.0000
# 2 49.1912 102.2212 69.3219 0.0000 0.0000 0.0000
# 3 52.7984 69.3219 61.1412 0.0000 0.0000 0.0000
# 4 0.0000 0.0000 0.0000 29.5158 0.0000 0.0000
# 5 0.0000 0.0000 0.0000 0.0000 22.5036 0.0000
# 6 0.0000 0.0000 0.0000 0.0000 0.0000 15.3418
#
#
#
# Elastic Compliance Matrix: (Units=1/GPa)
#
#
# Indices 1 2 3 4 5 6 
#
# 1 0.054683 0.024702 -0.075228 0.000000 0.000000 0.000000
# 2 0.024702 0.053488 -0.081976 0.000000 0.000000 0.000000
# 3 -0.075228 -0.081976 0.174263 0.000000 0.000000 0.000000
# 4 0.000000 0.000000 0.000000 0.033880 0.000000 0.000000
# 5 0.000000 0.000000 0.000000 0.000000 0.044437 0.000000
# 6 0.000000 0.000000 0.000000 0.000000 0.000000 0.065181
#
#
# Mechanical properties :
#
#
# Convention : Reuss Voigt Hill
#
# Bulk Modulus (GPa) = 57.37455 63.85414 60.61435
# Shear Modulus (GPa) = 7.17620 17.52243 12.34932
#
# Velocity S-wave (km/s) = 2.26533 3.53982 2.97171
# Velocity P-wave (km/s) = 6.91889 7.89743 7.42430
#
# Compressibility (1/GPa) = 0.01742933
#
# Stress axis : x y z
#
# Youngs Moduli (GPa) = 18.28738 18.69564 5.73845
#
# Poissons Ratio (x) = -0.46181 0.43169
# Poissons Ratio (y) = -0.45173 0.47042
# Poissons Ratio (z) = 1.37572 1.53260
#
# Static dielectric constant tensor:
#      x y z
#    x 1.439640 0.000000 0.000000 
#    y 0.000000 1.445990 0.000000 
#    z 0.000000 0.000000 1.462050 
# 
# From -- ./inp_files/4802.got.cif
#   From: 2010.05.17/outbox.cif.g08.bks.cpg/sg72_3_cif.got.tgz:4802.got - 2010.06.03 17:03:01.
