data_PCOD9526489
_publ_section_title
;
Structure prediction by ZEFSAII (Michael W. Deem and Ramdas Pophale) SiO2 
 PCOD9526489
Probable space group: I B A M
;
_chemical_formula_sum "Si O2"
_cell_formula_units_Z 56
_cell_length_a 26.656223
_cell_length_b 5.186849
_cell_length_c 20.647417
_cell_angle_alpha 90.000000
_cell_angle_beta 90.000000
_cell_angle_gamma 90.000000
_cell_volume 2854.749114
_symmetry_space_group_name_H-M "I B A M"
_symmetry_group_IT_number 72
_symmetry_cell_setting 'orthorhombic'
loop_
_space_group_symop_operation_xyz
x,y,z
-x,-y,z
x,-y,1/2-z
-x,y,1/2-z
-x,-y,-z
x,y,-z
-x,y,1/2+z
x,-y,1/2+z
1/2+x,1/2+y,1/2+z
1/2-x,1/2-y,1/2+z
1/2+x,1/2-y,-z
1/2-x,1/2+y,-z
1/2-x,1/2-y,1/2-z
1/2+x,1/2+y,1/2-z
1/2-x,1/2+y,z
1/2+x,1/2-y,z
loop_
_atom_site_type_symbol
_atom_site_label
_atom_site_fract_x
_atom_site_fract_y
_atom_site_fract_z
Si Si1 0.785111 0.984094 0.500000
Si Si2 0.530297 0.252566 0.921183
Si Si3 0.284261 0.039370 0.822477
Si Si4 0.355441 0.811267 0.073455
O O1 0.742971 0.213060 0.500000
O O2 0.821716 0.056260 0.559680
O O3 0.500000 0.500000 0.897877
O O4 0.588725 0.247841 0.903166
O O5 0.500000 0.000000 0.901063
O O6 0.530106 0.259595 0.000000
O O7 0.257881 0.315413 0.828305
O O8 0.174849 0.485127 0.877041
O O9 0.305461 0.000000 0.750000
O O10 0.359414 0.927124 0.000000
#
# Coordination Sequence:
#
# PCOD9526489 Si02
#       4
#     8  16  16  16
#     4  10  20  30  44  72 104 130 166 212 252 302
#     4   9  18  32  48  72 103 132 169 213 258 308
#     4  10  21  36  53  76 108 143 177 214 263 324
#     4   9  20  34  53  81 103 145 175 222 268 315
#
# _framework density 19.616436
#
# number of rings (size 3 to 8) (size 9 to 14) (size 15 to 20)
#    0.857    1.714    0.000    1.714    0.000    4.571 
#    0.000    0.000    0.000    0.857    0.000    2.000 
#    0.000    0.000    0.000    0.000    0.000    0.000 
#
# Total GULP energy -156228.715435 kJ/mol
# GULP energy per Si atom -5579.596980 kJ/mol
# Density = 1.957179 g / cm^3
# Si number density = 19.616436 Si / 1000 Ang^3
#
#
#
# Elastic Constant Matrix: (Units=GPa)
#
#
# Indices 1 2 3 4 5 6 
#
# 1 137.6676 40.5304 35.5748 0.0000 0.0000 0.0000
# 2 40.5304 104.3328 14.3717 0.0000 0.0000 0.0000
# 3 35.5748 14.3717 82.8746 0.0000 0.0000 0.0000
# 4 0.0000 0.0000 0.0000 13.4847 0.0000 0.0000
# 5 0.0000 0.0000 0.0000 0.0000 13.0808 0.0000
# 6 0.0000 0.0000 0.0000 0.0000 0.0000 17.7622
#
#
#
# Elastic Compliance Matrix: (Units=1/GPa)
#
#
# Indices 1 2 3 4 5 6 
#
# 1 0.009025 -0.003045 -0.003346 0.000000 0.000000 0.000000
# 2 -0.003045 0.010847 -0.000574 0.000000 0.000000 0.000000
# 3 -0.003346 -0.000574 0.013602 0.000000 0.000000 0.000000
# 4 0.000000 0.000000 0.000000 0.074158 0.000000 0.000000
# 5 0.000000 0.000000 0.000000 0.000000 0.076448 0.000000
# 6 0.000000 0.000000 0.000000 0.000000 0.000000 0.056299
#
#
# Mechanical properties :
#
#
# Convention : Reuss Voigt Hill
#
# Bulk Modulus (GPa) = 51.16637 56.20318 53.68478
# Shear Modulus (GPa) = 19.17003 24.49209 21.83106
#
# Velocity S-wave (km/s) = 3.12948 3.53731 3.33963
# Velocity P-wave (km/s) = 6.26085 6.73771 6.50365
#
# Compressibility (1/GPa) = 0.01954409
#
# Stress axis : x y z
#
# Youngs Moduli (GPa) = 110.80325 92.19408 73.51724
#
# Poissons Ratio (x) = 0.28074 0.24599
# Poissons Ratio (y) = 0.33740 0.04219
# Poissons Ratio (z) = 0.37075 0.05291
#
# Static dielectric constant tensor:
#      x y z
#    x 1.674790 0.000000 0.000000 
#    y 0.000000 1.701680 0.000000 
#    z 0.000000 0.000000 1.729190 
# 
# From -- ./inp_files/45565.got.cif
#   From: 2010.05.17/outbox.cif.g08.bks.cpg/sg72_23_cif.got.tgz:45565.got - 2010.06.03 17:03:01.
