data_PCOD9526086
_publ_section_title
;
Structure prediction by ZEFSAII (Michael W. Deem and Ramdas Pophale) SiO2 
 PCOD9526086
Probable space group: I B A M
;
_chemical_formula_sum "Si O2"
_cell_formula_units_Z 104
_cell_length_a 22.770146
_cell_length_b 23.055118
_cell_length_c 9.586430
_cell_angle_alpha 90.000000
_cell_angle_beta 90.000000
_cell_angle_gamma 90.000000
_cell_volume 5032.572847
_symmetry_space_group_name_H-M "I B A M"
_symmetry_group_IT_number 72
_symmetry_cell_setting 'orthorhombic'
loop_
_space_group_symop_operation_xyz
x,y,z
-x,-y,z
x,-y,1/2-z
-x,y,1/2-z
-x,-y,-z
x,y,-z
-x,y,1/2+z
x,-y,1/2+z
1/2+x,1/2+y,1/2+z
1/2-x,1/2-y,1/2+z
1/2+x,1/2-y,-z
1/2-x,1/2+y,-z
1/2-x,1/2-y,1/2-z
1/2+x,1/2+y,1/2-z
1/2-x,1/2+y,z
1/2+x,1/2-y,z
loop_
_atom_site_type_symbol
_atom_site_label
_atom_site_fract_x
_atom_site_fract_y
_atom_site_fract_z
Si Si1 0.768422 0.366920 0.161325
Si Si2 0.111414 0.441047 0.663735
Si Si3 0.345884 0.439955 0.667951
Si Si4 0.326875 0.771282 0.159744
Si Si5 0.510410 0.691554 0.000000
Si Si6 0.410545 0.326382 0.732063
Si Si7 0.948189 0.343614 0.662273
O O1 0.827113 0.406402 0.166533
O O2 0.715049 0.407865 0.207853
O O3 0.782564 0.308933 0.247560
O O4 0.757933 0.351574 0.000000
O O5 0.117412 0.500000 0.750000
O O6 0.095569 0.449632 0.500000
O O7 0.065948 0.401289 0.749331
O O8 0.351631 0.500000 0.750000
O O9 0.346066 0.448859 0.500000
O O10 0.396383 0.394207 0.708190
O O11 0.349821 0.708914 0.209672
O O12 0.388213 0.807625 0.163103
O O13 0.306822 0.769156 0.000000
O O14 0.561091 0.686464 0.120685
O O15 0.457936 0.692289 0.118145
O O16 0.965055 0.352308 0.500000
O O17 0.000000 0.313712 0.750000
#
# Coordination Sequence:
#
# PCOD9526086 Si02
#       7
#    16  16  16  16   8  16  16
#     4   9  21  39  60  91 125 164 205 257 317 371
#     4  10  19  34  53  75 107 147 195 245 304 364
#     4  11  24  44  68  95 131 169 220 273 324 389
#     4  10  21  37  61  93 128 163 205 258 311 376
#     4  10  24  42  69  94 134 170 215 262 330 388
#     4  11  23  44  66  99 129 173 215 266 324 389
#     4  10  21  33  50  78 109 147 195 244 300 365
#
# _framework density 20.665374
#
# number of rings (size 3 to 8) (size 9 to 14) (size 15 to 20)
#    0.000    1.846    1.538    1.385    4.308    2.769 
#    0.000    3.846    0.000    0.000    0.000    0.000 
#    0.000    0.000    0.000    0.000    0.000    0.000 
#
# Total GULP energy -289540.100277 kJ/mol
# GULP energy per Si atom -5568.078851 kJ/mol
# Density = 2.061834 g / cm^3
# Si number density = 20.665374 Si / 1000 Ang^3
#
#
#
# Elastic Constant Matrix: (Units=GPa)
#
#
# Indices 1 2 3 4 5 6 
#
# 1 51.4515 15.5446 28.9266 0.0000 0.0000 0.0000
# 2 15.5446 138.3804 57.2341 0.0000 0.0000 0.0000
# 3 28.9266 57.2341 173.1952 0.0000 0.0000 0.0000
# 4 0.0000 0.0000 0.0000 -33.6766 0.0000 0.0000
# 5 0.0000 0.0000 0.0000 0.0000 29.9929 0.0000
# 6 0.0000 0.0000 0.0000 0.0000 0.0000 14.3492
#
#
#
# Elastic Compliance Matrix: (Units=1/GPa)
#
#
# Indices 1 2 3 4 5 6 
#
# 1 0.021589 -0.001082 -0.003248 0.000000 0.000000 0.000000
# 2 -0.001082 0.008425 -0.002603 0.000000 0.000000 0.000000
# 3 -0.003248 -0.002603 0.007177 0.000000 0.000000 0.000000
# 4 0.000000 0.000000 0.000000 -0.029694 0.000000 0.000000
# 5 0.000000 0.000000 0.000000 0.000000 0.033341 0.000000
# 6 0.000000 0.000000 0.000000 0.000000 0.000000 0.069690
#
#
# Mechanical properties :
#
#
# Convention : Reuss Voigt Hill
#
# Bulk Modulus (GPa) = 42.87503 62.93753 52.90628
# Shear Modulus (GPa) = 37.83045 19.55454 28.69249
#
# Velocity S-wave (km/s) = 4.28322 3.07945 3.73021
# Velocity P-wave (km/s) = 6.72708 6.57006 6.64903
#
# Compressibility (1/GPa) = 0.02332360
#
# Stress axis : x y z
#
# Youngs Moduli (GPa) = 46.32033 118.69833 139.34053
#
# Poissons Ratio (x) = 0.12839 0.45261
# Poissons Ratio (y) = 0.05010 0.36276
# Poissons Ratio (z) = 0.15046 0.30902
#
# Static dielectric constant tensor:
#      x y z
#    x 1.767900 0.000000 0.000000 
#    y 0.000000 1.777500 0.000000 
#    z 0.000000 0.000000 1.710310 
# 
# From -- ./inp_files/8188.got.cif
#   From: 2010.05.17/outbox.cif.g08.bks.cpg/sg72_5_cif.got.tgz:8188.got - 2010.06.03 17:03:01.
