data_PCOD9526359
_publ_section_title
;
Structure prediction by ZEFSAII (Michael W. Deem and Ramdas Pophale) SiO2 
 PCOD9526359
Probable space group: I B A M
;
_chemical_formula_sum "Si O2"
_cell_formula_units_Z 112
_cell_length_a 32.574871
_cell_length_b 12.371169
_cell_length_c 13.973380
_cell_angle_alpha 90.000000
_cell_angle_beta 90.000000
_cell_angle_gamma 90.000000
_cell_volume 5631.121707
_symmetry_space_group_name_H-M "I B A M"
_symmetry_group_IT_number 72
_symmetry_cell_setting 'orthorhombic'
loop_
_space_group_symop_operation_xyz
x,y,z
-x,-y,z
x,-y,1/2-z
-x,y,1/2-z
-x,-y,-z
x,y,-z
-x,y,1/2+z
x,-y,1/2+z
1/2+x,1/2+y,1/2+z
1/2-x,1/2-y,1/2+z
1/2+x,1/2-y,-z
1/2-x,1/2+y,-z
1/2-x,1/2-y,1/2-z
1/2+x,1/2+y,1/2-z
1/2-x,1/2+y,z
1/2+x,1/2-y,z
loop_
_atom_site_type_symbol
_atom_site_label
_atom_site_fract_x
_atom_site_fract_y
_atom_site_fract_z
Si Si1 0.644915 0.969366 0.885683
Si Si2 0.386771 0.379775 0.734293
Si Si3 0.578420 0.215981 0.613631
Si Si4 0.709630 0.381079 0.231102
Si Si5 0.492365 0.122935 0.615842
Si Si6 0.098781 0.678431 0.614445
Si Si7 0.282006 0.806052 0.613578
O O1 0.604922 0.893501 0.872406
O O2 0.684910 0.899147 0.855369
O O3 0.632464 0.089708 0.848599
O O4 0.650931 0.981798 0.000000
O O5 0.404133 0.500000 0.750000
O O6 0.399146 0.308769 0.826590
O O7 0.338470 0.391499 0.716035
O O8 0.398338 0.301700 0.647199
O O9 0.579493 0.239120 0.500000
O O10 0.531198 0.196228 0.643851
O O11 0.726830 0.500000 0.250000
O O12 0.712415 0.300438 0.321556
O O13 0.735797 0.339225 0.141541
O O14 0.491954 0.128371 0.500000
O O15 0.446611 0.147280 0.648382
O O16 0.500000 0.000000 0.642276
O O17 0.100353 0.671389 0.500000
O O18 0.287184 0.787389 0.500000
#
# Coordination Sequence:
#
# PCOD9526359 Si02
#       7
#    16  16  16  16  16  16  16
#     4   9  17  33  60  91 119 149 186 234 302 365
#     4  11  25  42  58  81 115 163 215 249 287 350
#     4  10  19  36  61  88 117 154 197 243 295 353
#     4  10  23  41  59  85 120 160 207 254 303 361
#     4   9  16  32  59  91 125 153 186 239 303 370
#     4  10  21  38  61  92 126 155 190 246 310 364
#     4  10  21  39  63  92 122 155 200 253 309 370
#
# _framework density 19.889465000000001
#
# number of rings (size 3 to 8) (size 9 to 14) (size 15 to 20)
#    0.000    2.143    2.857    0.000    0.000    5.143 
#    0.000    6.429    0.000    2.571    0.000    0.000 
#    0.000    0.000    0.000    0.000    0.000    0.000 
#
# Total GULP energy -312062.686872 kJ/mol
# GULP energy per Si atom -5572.547980 kJ/mol
# Density = 1.984420 g / cm^3
# Si number density = 19.889465 Si / 1000 Ang^3
#
#
#
# Elastic Constant Matrix: (Units=GPa)
#
#
# Indices 1 2 3 4 5 6 
#
# 1 93.8616 34.0106 17.1251 0.0000 0.0000 0.0000
# 2 34.0106 84.7910 3.4690 0.0000 0.0000 0.0000
# 3 17.1251 3.4690 68.2840 0.0000 0.0000 0.0000
# 4 0.0000 0.0000 0.0000 22.7888 0.0000 0.0000
# 5 0.0000 0.0000 0.0000 0.0000 15.3947 0.0000
# 6 0.0000 0.0000 0.0000 0.0000 0.0000 -8.7798
#
#
#
# Elastic Compliance Matrix: (Units=1/GPa)
#
#
# Indices 1 2 3 4 5 6 
#
# 1 0.013057 -0.005114 -0.003015 0.000000 0.000000 0.000000
# 2 -0.005114 0.013821 0.000580 0.000000 0.000000 0.000000
# 3 -0.003015 0.000580 0.015371 0.000000 0.000000 0.000000
# 4 0.000000 0.000000 0.000000 0.043881 0.000000 0.000000
# 5 0.000000 0.000000 0.000000 0.000000 0.064957 0.000000
# 6 0.000000 0.000000 0.000000 0.000000 0.000000 -0.113898
#
#
# Mechanical properties :
#
#
# Convention : Reuss Voigt Hill
#
# Bulk Modulus (GPa) = 36.82859 39.57178 38.20018
# Shear Modulus (GPa) = 81.51553 18.70287 50.10920
#
# Velocity S-wave (km/s) = 6.40884 3.06982 5.02479
# Velocity P-wave (km/s) = 8.56278 5.70124 7.27411
#
# Compressibility (1/GPa) = 0.02715282
#
# Stress axis : x y z
#
# Youngs Moduli (GPa) = 76.58671 72.35237 65.05622
#
# Poissons Ratio (x) = 0.37001 0.19613
# Poissons Ratio (y) = 0.39166 -0.03776
# Poissons Ratio (z) = 0.23089 -0.04199
#
# Static dielectric constant tensor:
#      x y z
#    x 1.715530 0.000000 0.000000 
#    y 0.000000 1.753170 0.000000 
#    z 0.000000 0.000000 1.742100 
# 
# From -- ./inp_files/26433.got.cif
#   From: 2010.05.17/outbox.cif.g08.bks.cpg/sg72_14_cif.got.tgz:26433.got - 2010.06.03 17:03:01.
