data_PCOD9526390
_publ_section_title
;
Structure prediction by ZEFSAII (Michael W. Deem and Ramdas Pophale) SiO2 
 PCOD9526390
Probable space group: I B A M
;
_chemical_formula_sum "Si O2"
_cell_formula_units_Z 80
_cell_length_a 18.681611
_cell_length_b 9.258902
_cell_length_c 20.507037
_cell_angle_alpha 90.000000
_cell_angle_beta 90.000000
_cell_angle_gamma 90.000000
_cell_volume 3547.126910
_symmetry_space_group_name_H-M "I B A M"
_symmetry_group_IT_number 72
_symmetry_cell_setting 'orthorhombic'
loop_
_space_group_symop_operation_xyz
x,y,z
-x,-y,z
x,-y,1/2-z
-x,y,1/2-z
-x,-y,-z
x,y,-z
-x,y,1/2+z
x,-y,1/2+z
1/2+x,1/2+y,1/2+z
1/2-x,1/2-y,1/2+z
1/2+x,1/2-y,-z
1/2-x,1/2+y,-z
1/2-x,1/2-y,1/2-z
1/2+x,1/2+y,1/2-z
1/2-x,1/2+y,z
1/2+x,1/2-y,z
loop_
_atom_site_type_symbol
_atom_site_label
_atom_site_fract_x
_atom_site_fract_y
_atom_site_fract_z
Si Si1 0.671461 0.539009 0.647303
Si Si2 0.031663 0.838998 0.315799
Si Si3 0.539251 0.846917 0.925752
Si Si4 0.266491 0.865543 0.000000
Si Si5 0.165028 0.896206 0.500000
Si Si6 0.691902 0.225242 0.373771
O O1 0.616152 0.637014 0.686346
O O2 0.641464 0.549454 0.571284
O O3 0.673082 0.370563 0.666718
O O4 0.749638 0.611698 0.651560
O O5 0.000000 0.770660 0.250000
O O6 0.006232 0.754309 0.378774
O O7 0.000000 0.000000 0.320317
O O8 0.619324 0.851588 0.896310
O O9 0.500000 0.000000 0.926519
O O10 0.544461 0.791776 0.000000
O O11 0.230227 0.801564 0.064371
O O12 0.247207 0.033502 0.000000
O O13 0.340839 0.778437 0.000000
#
# Coordination Sequence:
#
# PCOD9526390 Si02
#       6
#    16  16  16   8   8  16
#     4  10  21  36  64  99 132 180 222 282 346 411
#     4  11  25  46  70  93 137 188 233 283 345 421
#     4  11  25  44  67 104 143 182 231 293 353 414
#     4   8  14  28  46  78 130 165 193 259 331 377
#     4   8  16  28  50  87 124 163 209 256 325 399
#     4  10  19  37  60  98 138 171 226 282 341 409
#
# _framework density 22.553464000000002
#
# number of rings (size 3 to 8) (size 9 to 14) (size 15 to 20)
#    0.000    2.000    3.000    0.000    4.200    0.800 
#    0.000    1.000    0.000    0.000    0.000    0.000 
#    0.000    0.000    0.000    0.000    0.000    0.000 
#
# Total GULP energy -223106.110643 kJ/mol
# GULP energy per Si atom -5577.652766 kJ/mol
# Density = 2.250213 g / cm^3
# Si number density = 22.553464 Si / 1000 Ang^3
#
#
#
# Elastic Constant Matrix: (Units=GPa)
#
#
# Indices 1 2 3 4 5 6 
#
# 1 124.6269 39.2869 52.5961 0.0000 0.0000 0.0000
# 2 39.2869 64.4844 45.4615 0.0000 0.0000 0.0000
# 3 52.5961 45.4615 75.7720 0.0000 0.0000 0.0000
# 4 0.0000 0.0000 0.0000 -6.7269 0.0000 0.0000
# 5 0.0000 0.0000 0.0000 0.0000 37.0085 0.0000
# 6 0.0000 0.0000 0.0000 0.0000 0.0000 30.8314
#
#
#
# Elastic Compliance Matrix: (Units=1/GPa)
#
#
# Indices 1 2 3 4 5 6 
#
# 1 0.011559 -0.002402 -0.006583 0.000000 0.000000 0.000000
# 2 -0.002402 0.027375 -0.014757 0.000000 0.000000 0.000000
# 3 -0.006583 -0.014757 0.026621 0.000000 0.000000 0.000000
# 4 0.000000 0.000000 0.000000 -0.148657 0.000000 0.000000
# 5 0.000000 0.000000 0.000000 0.000000 0.027021 0.000000
# 6 0.000000 0.000000 0.000000 0.000000 0.000000 0.032435
#
#
# Mechanical properties :
#
#
# Convention : Reuss Voigt Hill
#
# Bulk Modulus (GPa) = 55.33539 59.95248 57.64393
# Shear Modulus (GPa) = 167.45051 20.72518 94.08785
#
# Velocity S-wave (km/s) = 8.62596 3.03468 6.46593
# Velocity P-wave (km/s) = 11.12646 6.23852 9.01990
#
# Compressibility (1/GPa) = 0.01807162
#
# Stress axis : x y z
#
# Youngs Moduli (GPa) = 86.51206 36.53032 37.56466
#
# Poissons Ratio (x) = 0.08773 0.24728
# Poissons Ratio (y) = 0.20776 0.55435
# Poissons Ratio (z) = 0.56949 0.53908
#
# Static dielectric constant tensor:
#      x y z
#    x 1.899540 0.000000 0.000000 
#    y 0.000000 1.884670 0.000000 
#    z 0.000000 0.000000 1.912940 
# 
# From -- ./inp_files/45210.got.cif
#   From: 2010.05.17/outbox.cif.g08.bks.cpg/sg72_23_cif.got.tgz:45210.got - 2010.06.03 17:03:01.
