data_PCOD9526854
_publ_section_title
;
Structure prediction by ZEFSAII (Michael W. Deem and Ramdas Pophale) SiO2 
 PCOD9526854
Probable space group: I B A M
;
_chemical_formula_sum "Si O2"
_cell_formula_units_Z 96
_cell_length_a 24.798753
_cell_length_b 23.584982
_cell_length_c 8.560948
_cell_angle_alpha 90.000000
_cell_angle_beta 90.000000
_cell_angle_gamma 90.000000
_cell_volume 5007.111370
_symmetry_space_group_name_H-M "I B A M"
_symmetry_group_IT_number 72
_symmetry_cell_setting 'orthorhombic'
loop_
_space_group_symop_operation_xyz
x,y,z
-x,-y,z
x,-y,1/2-z
-x,y,1/2-z
-x,-y,-z
x,y,-z
-x,y,1/2+z
x,-y,1/2+z
1/2+x,1/2+y,1/2+z
1/2-x,1/2-y,1/2+z
1/2+x,1/2-y,-z
1/2-x,1/2+y,-z
1/2-x,1/2-y,1/2-z
1/2+x,1/2+y,1/2-z
1/2-x,1/2+y,z
1/2+x,1/2-y,z
loop_
_atom_site_type_symbol
_atom_site_label
_atom_site_fract_x
_atom_site_fract_y
_atom_site_fract_z
Si Si1 0.163648 0.634624 0.811178
Si Si2 0.441653 0.935970 0.312023
Si Si3 0.776998 0.875434 0.312426
Si Si4 0.057218 0.832402 0.186637
Si Si5 0.382113 0.437799 0.685838
Si Si6 0.163805 0.763955 0.810786
O O1 0.108916 0.602858 0.762628
O O2 0.218871 0.607079 0.751041
O O3 0.166461 0.699779 0.753463
O O4 0.164159 0.634821 0.000000
O O5 0.500000 0.915916 0.250000
O O6 0.443560 0.937225 0.500000
O O7 0.434003 0.000000 0.250000
O O8 0.777013 0.875940 0.500000
O O9 0.825193 0.915072 0.252993
O O10 0.792785 0.811110 0.257925
O O11 0.073343 0.892962 0.257721
O O12 0.105653 0.790104 0.229403
O O13 0.000000 0.813084 0.250000
O O14 0.056069 0.836996 0.000000
O O15 0.393181 0.500000 0.750000
O O16 0.379613 0.438340 0.500000
O O17 0.167615 0.762078 0.000000
#
# Coordination Sequence:
#
# PCOD9526854 Si02
#       6
#    16  16  16  16  16  16
#     4  10  20  35  56  82 108 142 183 223 267 322
#     4  10  21  37  57  77 104 138 174 218 268 317
#     4  10  20  35  55  81 112 145 178 221 270 321
#     4  10  20  36  56  81 111 145 183 226 274 326
#     4  11  22  38  58  80 108 144 183 227 274 323
#     4   8  17  34  54  77 110 144 179 222 268 316
#
# _framework density 19.172730999999999
#
# number of rings (size 3 to 8) (size 9 to 14) (size 15 to 20)
#    0.000    2.167    0.000    5.000    0.000    3.000 
#    0.000    7.500    0.000    0.000    0.000    0.000 
#    0.000    0.000    0.000    0.000    0.000    0.000 
#
# Total GULP energy -267983.705085 kJ/mol
# GULP energy per Si atom -5582.993856 kJ/mol
# Density = 1.912909 g / cm^3
# Si number density = 19.172731 Si / 1000 Ang^3
#
#
#
# Elastic Constant Matrix: (Units=GPa)
#
#
# Indices 1 2 3 4 5 6 
#
# 1 122.4957 3.4473 23.3521 0.0000 0.0000 0.0000
# 2 3.4473 19.4765 6.8340 0.0000 0.0000 0.0000
# 3 23.3521 6.8340 50.6137 0.0000 0.0000 0.0000
# 4 0.0000 0.0000 0.0000 17.8971 0.0000 0.0000
# 5 0.0000 0.0000 0.0000 0.0000 32.1207 0.0000
# 6 0.0000 0.0000 0.0000 0.0000 0.0000 10.1950
#
#
#
# Elastic Compliance Matrix: (Units=1/GPa)
#
#
# Indices 1 2 3 4 5 6 
#
# 1 0.008951 -0.000142 -0.004111 0.000000 0.000000 0.000000
# 2 -0.000142 0.053900 -0.007212 0.000000 0.000000 0.000000
# 3 -0.004111 -0.007212 0.022628 0.000000 0.000000 0.000000
# 4 0.000000 0.000000 0.000000 0.055875 0.000000 0.000000
# 5 0.000000 0.000000 0.000000 0.000000 0.031133 0.000000
# 6 0.000000 0.000000 0.000000 0.000000 0.000000 0.098087
#
#
# Mechanical properties :
#
#
# Convention : Reuss Voigt Hill
#
# Bulk Modulus (GPa) = 15.98743 28.87250 22.42996
# Shear Modulus (GPa) = 15.90570 22.63940 19.27255
#
# Velocity S-wave (km/s) = 2.88340 3.44002 3.17394
# Velocity P-wave (km/s) = 4.40932 5.55609 5.01559
#
# Compressibility (1/GPa) = 0.06254914
#
# Stress axis : x y z
#
# Youngs Moduli (GPa) = 111.71684 18.55298 44.19320
#
# Poissons Ratio (x) = 0.00263 0.18167
# Poissons Ratio (y) = 0.01586 0.31873
# Poissons Ratio (z) = 0.45924 0.13381
#
# Static dielectric constant tensor:
#      x y z
#    x 1.651280 0.000000 0.000000 
#    y 0.000000 1.666720 0.000000 
#    z 0.000000 0.000000 1.643050 
# 
# From -- ./inp_files/6984.got.cif
#   From: 2010.05.17/outbox.cif.g08.bks.cpg/sg72_4_cif.got.tgz:6984.got - 2010.06.03 17:03:01.
