data_PCOD9526046
_publ_section_title
;
Structure prediction by ZEFSAII (Michael W. Deem and Ramdas Pophale) SiO2 
 PCOD9526046
Probable space group: I B A M
;
_chemical_formula_sum "Si O2"
_cell_formula_units_Z 96
_cell_length_a 10.276575
_cell_length_b 13.980544
_cell_length_c 28.677815
_cell_angle_alpha 90.000000
_cell_angle_beta 90.000000
_cell_angle_gamma 90.000000
_cell_volume 4120.202161
_symmetry_space_group_name_H-M "I B A M"
_symmetry_group_IT_number 72
_symmetry_cell_setting 'orthorhombic'
loop_
_space_group_symop_operation_xyz
x,y,z
-x,-y,z
x,-y,1/2-z
-x,y,1/2-z
-x,-y,-z
x,y,-z
-x,y,1/2+z
x,-y,1/2+z
1/2+x,1/2+y,1/2+z
1/2-x,1/2-y,1/2+z
1/2+x,1/2-y,-z
1/2-x,1/2+y,-z
1/2-x,1/2-y,1/2-z
1/2+x,1/2+y,1/2-z
1/2-x,1/2+y,z
1/2+x,1/2-y,z
loop_
_atom_site_type_symbol
_atom_site_label
_atom_site_fract_x
_atom_site_fract_y
_atom_site_fract_z
Si Si1 0.295539 0.346168 0.713365
Si Si2 0.460050 0.843454 0.000000
Si Si3 0.358220 0.541725 0.308440
Si Si4 0.156861 0.164998 0.500000
Si Si5 0.990415 0.320529 0.200056
Si Si6 0.949698 0.662171 0.898264
Si Si7 0.150296 0.163339 0.599752
O O1 0.282802 0.442752 0.683299
O O2 0.307626 0.394297 0.765167
O O3 0.161651 0.292863 0.701524
O O4 0.415157 0.273631 0.703458
O O5 0.309967 0.807750 0.000000
O O6 0.472995 0.889936 0.948185
O O7 0.564825 0.758051 0.000000
O O8 0.500000 0.500000 0.296915
O O9 0.367834 0.597295 0.356193
O O10 0.132346 0.113762 0.549168
O O11 0.699692 0.196548 0.101134
O O12 0.000000 0.372963 0.250000
O O13 0.028925 0.378565 0.153864
O O14 0.049247 0.750476 0.897828
#
# Coordination Sequence:
#
# PCOD9526046 Si02
#       7
#    16   8  16   8  16  16  16
#     4  11  24  40  61  86 116 152 194 239 297 356
#     4   8  16  30  50  81 121 153 195 248 300 344
#     4  11  23  41  59  83 122 164 191 232 302 370
#     4   8  16  30  53  85 115 153 198 250 296 346
#     4  12  22  36  61  91 115 147 197 250 290 351
#     4  10  19  33  57  89 119 159 203 249 295 352
#     4  10  19  35  59  86 122 159 202 248 298 354
#
# _framework density 23.299828000000002
#
# number of rings (size 3 to 8) (size 9 to 14) (size 15 to 20)
#    0.000    1.667    0.000    6.500    0.000    0.000 
#    0.000    6.250    0.000    8.000    0.000    3.500 
#    0.000    0.000    0.000    0.000    0.000    0.000 
#
# Total GULP energy -267510.512834 kJ/mol
# GULP energy per Si atom -5573.135684 kJ/mol
# Density = 2.324680 g / cm^3
# Si number density = 23.299828 Si / 1000 Ang^3
#
#
#
# Elastic Constant Matrix: (Units=GPa)
#
#
# Indices 1 2 3 4 5 6 
#
# 1 135.3576 32.2375 32.4433 0.0000 0.0000 0.0000
# 2 32.2375 62.5494 18.7944 0.0000 0.0000 0.0000
# 3 32.4433 18.7944 228.0880 0.0000 0.0000 0.0000
# 4 0.0000 0.0000 0.0000 5.4464 0.0000 0.0000
# 5 0.0000 0.0000 0.0000 0.0000 29.1693 0.0000
# 6 0.0000 0.0000 0.0000 0.0000 0.0000 15.5328
#
#
#
# Elastic Compliance Matrix: (Units=1/GPa)
#
#
# Indices 1 2 3 4 5 6 
#
# 1 0.008590 -0.004163 -0.000879 0.000000 0.000000 0.000000
# 2 -0.004163 0.018411 -0.000925 0.000000 0.000000 0.000000
# 3 -0.000879 -0.000925 0.004585 0.000000 0.000000 0.000000
# 4 0.000000 0.000000 0.000000 0.183607 0.000000 0.000000
# 5 0.000000 0.000000 0.000000 0.000000 0.034283 0.000000
# 6 0.000000 0.000000 0.000000 0.000000 0.000000 0.064380
#
#
# Mechanical properties :
#
#
# Convention : Reuss Voigt Hill
#
# Bulk Modulus (GPa) = 50.88356 65.88281 58.38318
# Shear Modulus (GPa) = 15.04482 32.86436 23.95459
#
# Velocity S-wave (km/s) = 2.54383 3.75973 3.20988
# Velocity P-wave (km/s) = 5.52396 6.86913 6.23294
#
# Compressibility (1/GPa) = 0.01965271
#
# Stress axis : x y z
#
# Youngs Moduli (GPa) = 116.41448 54.31552 218.07957
#
# Poissons Ratio (x) = 0.22612 0.19165
# Poissons Ratio (y) = 0.48465 0.20170
# Poissons Ratio (z) = 0.10230 0.05024
#
# Static dielectric constant tensor:
#      x y z
#    x 2.033540 0.000000 0.000000 
#    y 0.000000 1.913380 0.000000 
#    z 0.000000 0.000000 2.032200 
# 
# From -- ./inp_files/42483.got.cif
#   From: 2010.05.17/outbox.cif.g08.bks.cpg/sg72_22_cif.got.tgz:42483.got - 2010.06.03 17:03:01.
