data_PCOD9526117
_publ_section_title
;
Structure prediction by ZEFSAII (Michael W. Deem and Ramdas Pophale) SiO2 
 PCOD9526117
Probable space group: I B A M
;
_chemical_formula_sum "Si O2"
_cell_formula_units_Z 72
_cell_length_a 16.100293
_cell_length_b 23.101819
_cell_length_c 9.780330
_cell_angle_alpha 90.000000
_cell_angle_beta 90.000000
_cell_angle_gamma 90.000000
_cell_volume 3637.755157
_symmetry_space_group_name_H-M "I B A M"
_symmetry_group_IT_number 72
_symmetry_cell_setting 'orthorhombic'
loop_
_space_group_symop_operation_xyz
x,y,z
-x,-y,z
x,-y,1/2-z
-x,y,1/2-z
-x,-y,-z
x,y,-z
-x,y,1/2+z
x,-y,1/2+z
1/2+x,1/2+y,1/2+z
1/2-x,1/2-y,1/2+z
1/2+x,1/2-y,-z
1/2-x,1/2+y,-z
1/2-x,1/2-y,1/2-z
1/2+x,1/2+y,1/2-z
1/2-x,1/2+y,z
1/2+x,1/2-y,z
loop_
_atom_site_type_symbol
_atom_site_label
_atom_site_fract_x
_atom_site_fract_y
_atom_site_fract_z
Si Si1 0.116222 0.449641 0.649115
Si Si2 0.684742 0.442505 0.162195
Si Si3 0.000000 0.649249 0.250000
Si Si4 0.320148 0.330344 0.838963
Si Si5 0.641084 0.226041 0.849333
O O1 0.092195 0.500000 0.750000
O O2 0.101513 0.473561 0.500000
O O3 0.214570 0.438864 0.663586
O O4 0.063429 0.392292 0.670976
O O5 0.661957 0.500000 0.250000
O O6 0.657207 0.385957 0.247415
O O7 0.660320 0.444414 0.000000
O O8 0.057958 0.689017 0.342623
O O9 0.359959 0.273755 0.769270
O O10 0.221172 0.315679 0.830618
O O11 0.340125 0.337536 0.000000
O O12 0.651327 0.253527 0.000000
#
# Coordination Sequence:
#
# PCOD9526117 Si02
#       5
#    16  16   8  16  16
#     4  10  22  35  50  73 107 148 185 223 264 314
#     4  10  19  34  55  80 108 141 182 225 271 323
#     4  12  21  36  54  80 107 146 188 230 270 322
#     4  10  20  37  56  77 105 142 184 230 278 326
#     4  10  22  36  54  77 106 144 186 230 276 325
#
# _framework density 19.792425999999999
#
# number of rings (size 3 to 8) (size 9 to 14) (size 15 to 20)
#    0.000    1.778    2.222    2.333    0.000    6.222 
#    0.000    0.000    0.000    0.000    0.000    0.778 
#    0.000    5.333    0.000    0.000    0.000    0.000 
#
# Total GULP energy -200844.022731 kJ/mol
# GULP energy per Si atom -5579.000631 kJ/mol
# Density = 1.974738 g / cm^3
# Si number density = 19.792426 Si / 1000 Ang^3
#
#
#
# Elastic Constant Matrix: (Units=GPa)
#
#
# Indices 1 2 3 4 5 6 
#
# 1 8.9335 3.3770 3.4966 0.0000 0.0000 0.0000
# 2 3.3770 107.2570 79.6308 0.0000 0.0000 0.0000
# 3 3.4966 79.6308 179.9903 0.0000 0.0000 0.0000
# 4 0.0000 0.0000 0.0000 31.2609 0.0000 0.0000
# 5 0.0000 0.0000 0.0000 0.0000 39.8207 0.0000
# 6 0.0000 0.0000 0.0000 0.0000 0.0000 26.2215
#
#
#
# Elastic Compliance Matrix: (Units=1/GPa)
#
#
# Indices 1 2 3 4 5 6 
#
# 1 0.113391 -0.002881 -0.000928 0.000000 0.000000 0.000000
# 2 -0.002881 0.013957 -0.006119 0.000000 0.000000 0.000000
# 3 -0.000928 -0.006119 0.008281 0.000000 0.000000 0.000000
# 4 0.000000 0.000000 0.000000 0.031989 0.000000 0.000000
# 5 0.000000 0.000000 0.000000 0.000000 0.025113 0.000000
# 6 0.000000 0.000000 0.000000 0.000000 0.000000 0.038137
#
#
# Mechanical properties :
#
#
# Convention : Reuss Voigt Hill
#
# Bulk Modulus (GPa) = 8.63762 52.13219 30.38490
# Shear Modulus (GPa) = 17.28228 33.43905 25.36067
#
# Velocity S-wave (km/s) = 2.95816 4.11480 3.58345
# Velocity P-wave (km/s) = 4.00515 6.99800 5.70146
#
# Compressibility (1/GPa) = 0.11577265
#
# Stress axis : x y z
#
# Youngs Moduli (GPa) = 8.81905 71.64925 120.75921
#
# Poissons Ratio (x) = 0.20642 0.11209
# Poissons Ratio (y) = 0.02541 0.73890
# Poissons Ratio (z) = 0.00819 0.43841
#
# Static dielectric constant tensor:
#      x y z
#    x 1.703520 0.000000 0.000000 
#    y 0.000000 1.678690 0.000000 
#    z 0.000000 0.000000 1.699740 
# 
# From -- ./inp_files/4596.got.cif
#   From: 2010.05.17/outbox.cif.g08.bks.cpg/sg72_3_cif.got.tgz:4596.got - 2010.06.03 17:03:01.
