data_PCOD9526600
_publ_section_title
;
Structure prediction by ZEFSAII (Michael W. Deem and Ramdas Pophale) SiO2 
 PCOD9526600
Probable space group: I B A M
;
_chemical_formula_sum "Si O2"
_cell_formula_units_Z 112
_cell_length_a 32.490363
_cell_length_b 11.159025
_cell_length_c 14.375039
_cell_angle_alpha 90.000000
_cell_angle_beta 90.000000
_cell_angle_gamma 90.000000
_cell_volume 5211.825251
_symmetry_space_group_name_H-M "I B A M"
_symmetry_group_IT_number 72
_symmetry_cell_setting 'orthorhombic'
loop_
_space_group_symop_operation_xyz
x,y,z
-x,-y,z
x,-y,1/2-z
-x,y,1/2-z
-x,-y,-z
x,y,-z
-x,y,1/2+z
x,-y,1/2+z
1/2+x,1/2+y,1/2+z
1/2-x,1/2-y,1/2+z
1/2+x,1/2-y,-z
1/2-x,1/2+y,-z
1/2-x,1/2-y,1/2-z
1/2+x,1/2+y,1/2-z
1/2-x,1/2+y,z
1/2+x,1/2-y,z
loop_
_atom_site_type_symbol
_atom_site_label
_atom_site_fract_x
_atom_site_fract_y
_atom_site_fract_z
Si Si1 0.734484 0.815199 0.893757
Si Si2 0.583337 0.044502 0.891538
Si Si3 0.049175 0.701239 0.895089
Si Si4 0.824199 0.541931 0.895280
Si Si5 0.482909 0.378638 0.355055
Si Si6 0.811005 0.777200 0.778224
Si Si7 0.405451 0.708917 0.780843
O O1 0.779102 0.837717 0.848875
O O2 0.710248 0.727689 0.822800
O O3 0.708549 0.937026 0.893369
O O4 0.737251 0.771343 0.000000
O O5 0.551842 0.938553 0.867382
O O6 0.629713 0.990753 0.882093
O O7 0.585878 0.161741 0.828642
O O8 0.577118 0.077331 0.000000
O O9 0.076492 0.776470 0.822763
O O10 0.003824 0.759433 0.895480
O O11 0.065716 0.707289 0.000000
O O12 0.814862 0.641414 0.818595
O O13 0.824124 0.596659 0.000000
O O14 0.500000 0.500000 0.398742
O O15 0.500000 0.376770 0.250000
O O16 0.434091 0.377320 0.342760
O O17 0.857634 0.822702 0.779132
#
# Coordination Sequence:
#
# PCOD9526600 Si02
#       7
#    16  16  16  16  16  16  16
#     4  10  20  33  53  80 114 150 185 227 281 344
#     4   9  18  32  54  88 120 146 181 232 289 343
#     4  10  20  34  56  85 116 146 184 234 293 350
#     4   9  17  32  55  79 109 146 181 225 280 339
#     4   9  20  39  60  78 105 152 199 241 287 336
#     4  10  20  34  56  83 109 147 189 232 281 339
#     4  10  20  36  60  86 113 148 192 241 287 344
#
# _framework density 21.489592999999999
#
# number of rings (size 3 to 8) (size 9 to 14) (size 15 to 20)
#    0.000    2.429    0.000    2.143    0.000    6.000 
#    0.000    3.571   28.286    0.000    0.000    0.000 
#    0.000    0.000    0.000    0.000    0.000    0.000 
#
# Total GULP energy -312506.837077 kJ/mol
# GULP energy per Si atom -5580.479234 kJ/mol
# Density = 2.144068 g / cm^3
# Si number density = 21.489593 Si / 1000 Ang^3
#
#
#
# Elastic Constant Matrix: (Units=GPa)
#
#
# Indices 1 2 3 4 5 6 
#
# 1 145.7952 19.5430 36.1622 0.0000 0.0000 0.0000
# 2 19.5430 24.1901 5.9380 0.0000 0.0000 0.0000
# 3 36.1622 5.9380 121.7814 0.0000 0.0000 0.0000
# 4 0.0000 0.0000 0.0000 -2.2068 0.0000 0.0000
# 5 0.0000 0.0000 0.0000 0.0000 7.7867 0.0000
# 6 0.0000 0.0000 0.0000 0.0000 0.0000 31.9370
#
#
#
# Elastic Compliance Matrix: (Units=1/GPa)
#
#
# Indices 1 2 3 4 5 6 
#
# 1 0.008208 -0.006106 -0.002140 0.000000 0.000000 0.000000
# 2 -0.006106 0.046382 -0.000448 0.000000 0.000000 0.000000
# 3 -0.002140 -0.000448 0.008869 0.000000 0.000000 0.000000
# 4 0.000000 0.000000 0.000000 -0.453149 0.000000 0.000000
# 5 0.000000 0.000000 0.000000 0.000000 0.128425 0.000000
# 6 0.000000 0.000000 0.000000 0.000000 0.000000 0.031312
#
#
# Mechanical properties :
#
#
# Convention : Reuss Voigt Hill
#
# Bulk Modulus (GPa) = 21.70566 46.11699 33.91133
# Shear Modulus (GPa) = -25.35392 22.84493 -1.25449
#
# Velocity S-wave (km/s) = -3.43858 3.26401 -0.76488
# Velocity P-wave (km/s) = 2.37543 5.97593 3.87744
#
# Compressibility (1/GPa) = 0.04607093
#
# Stress axis : x y z
#
# Youngs Moduli (GPa) = 121.83066 21.55991 112.75680
#
# Poissons Ratio (x) = 0.13165 0.24126
# Poissons Ratio (y) = 0.74390 0.05057
# Poissons Ratio (z) = 0.26067 0.00967
#
# Static dielectric constant tensor:
#      x y z
#    x 1.805510 0.000000 0.000000 
#    y 0.000000 1.816490 0.000000 
#    z 0.000000 0.000000 1.814930 
# 
# From -- ./inp_files/26389.got.cif
#   From: 2010.05.17/outbox.cif.g08.bks.cpg/sg72_14_cif.got.tgz:26389.got - 2010.06.03 17:03:01.
