data_PCOD9526027
_publ_section_title
;
Structure prediction by ZEFSAII (Michael W. Deem and Ramdas Pophale) SiO2 
 PCOD9526027
Probable space group: I B A M
;
_chemical_formula_sum "Si O2"
_cell_formula_units_Z 112
_cell_length_a 17.746862
_cell_length_b 21.187425
_cell_length_c 15.631524
_cell_angle_alpha 90.000000
_cell_angle_beta 90.000000
_cell_angle_gamma 90.000000
_cell_volume 5877.614148
_symmetry_space_group_name_H-M "I B A M"
_symmetry_group_IT_number 72
_symmetry_cell_setting 'orthorhombic'
loop_
_space_group_symop_operation_xyz
x,y,z
-x,-y,z
x,-y,1/2-z
-x,y,1/2-z
-x,-y,-z
x,y,-z
-x,y,1/2+z
x,-y,1/2+z
1/2+x,1/2+y,1/2+z
1/2-x,1/2-y,1/2+z
1/2+x,1/2-y,-z
1/2-x,1/2+y,-z
1/2-x,1/2-y,1/2-z
1/2+x,1/2+y,1/2-z
1/2-x,1/2+y,z
1/2+x,1/2-y,z
loop_
_atom_site_type_symbol
_atom_site_label
_atom_site_fract_x
_atom_site_fract_y
_atom_site_fract_z
Si Si1 0.930469 0.461091 0.595684
Si Si2 0.119078 0.867831 0.100620
Si Si3 0.319745 0.047730 0.170802
Si Si4 0.091042 0.788941 0.261006
Si Si5 0.667766 0.494831 0.102023
Si Si6 0.589386 0.854187 0.271082
Si Si7 0.939682 0.888425 0.098821
O O1 0.953204 0.443301 0.500000
O O2 0.863970 0.511973 0.596000
O O3 0.905938 0.399215 0.646463
O O4 0.000000 0.500000 0.637368
O O5 0.127885 0.814323 0.172875
O O6 0.029877 0.884308 0.104882
O O7 0.163626 0.931550 0.126086
O O8 0.135336 0.852225 0.000000
O O9 0.232594 0.045065 0.147778
O O10 0.360284 0.112085 0.198088
O O11 0.331265 0.000000 0.250000
O O12 0.114638 0.717796 0.282885
O O13 0.099374 0.839202 0.337142
O O14 0.000000 0.786266 0.250000
O O15 0.590073 0.458317 0.118882
O O16 0.679974 0.494066 0.000000
O O17 0.500000 0.854607 0.250000
O O18 0.919864 0.874280 0.000000
#
# Coordination Sequence:
#
# PCOD9526027 Si02
#       7
#    16  16  16  16  16  16  16
#     4  10  19  33  56  82 104 133 176 226 277 328
#     4   9  18  34  55  81 111 144 187 231 274 328
#     4  10  21  33  54  78 105 138 172 227 271 330
#     4   9  19  33  54  80 110 146 183 225 277 333
#     4  10  20  34  54  79 110 143 181 232 281 322
#     4  10  19  36  55  79 110 142 177 226 281 331
#     4   9  18  33  54  81 112 145 185 230 273 326
#
# _framework density 19.055350000000001
#
# number of rings (size 3 to 8) (size 9 to 14) (size 15 to 20)
#    0.000    2.429    1.429    0.857    2.000    2.286 
#    0.000    6.429    0.000    0.000    0.000    0.000 
#    0.000    0.000    0.000    0.000    0.000    0.000 
#
# Total GULP energy -311959.015201 kJ/mol
# GULP energy per Si atom -5570.696700 kJ/mol
# Density = 1.901198 g / cm^3
# Si number density = 19.055350 Si / 1000 Ang^3
#
#
#
# Elastic Constant Matrix: (Units=GPa)
#
#
# Indices 1 2 3 4 5 6 
#
# 1 35.2204 10.6844 7.1269 0.0000 0.0000 0.0000
# 2 10.6844 120.2115 46.6749 0.0000 0.0000 0.0000
# 3 7.1269 46.6749 66.6011 0.0000 0.0000 0.0000
# 4 0.0000 0.0000 0.0000 12.7033 0.0000 0.0000
# 5 0.0000 0.0000 0.0000 0.0000 18.1001 0.0000
# 6 0.0000 0.0000 0.0000 0.0000 0.0000 6.1096
#
#
#
# Elastic Compliance Matrix: (Units=1/GPa)
#
#
# Indices 1 2 3 4 5 6 
#
# 1 0.029336 -0.001908 -0.001802 0.000000 0.000000 0.000000
# 2 -0.001908 0.011552 -0.007892 0.000000 0.000000 0.000000
# 3 -0.001802 -0.007892 0.020738 0.000000 0.000000 0.000000
# 4 0.000000 0.000000 0.000000 0.078720 0.000000 0.000000
# 5 0.000000 0.000000 0.000000 0.000000 0.055248 0.000000
# 6 0.000000 0.000000 0.000000 0.000000 0.000000 0.163676
#
#
# Mechanical properties :
#
#
# Convention : Reuss Voigt Hill
#
# Bulk Modulus (GPa) = 26.02603 39.00061 32.51332
# Shear Modulus (GPa) = 12.64917 17.88572 15.26745
#
# Velocity S-wave (km/s) = 2.57925 3.06701 2.83365
# Velocity P-wave (km/s) = 4.74951 5.74922 5.27311
#
# Compressibility (1/GPa) = 0.03842308
#
# Stress axis : x y z
#
# Youngs Moduli (GPa) = 34.08782 86.56158 48.21968
#
# Poissons Ratio (x) = 0.16512 0.08691
# Poissons Ratio (y) = 0.06503 0.38055
# Poissons Ratio (z) = 0.06144 0.68314
#
# Static dielectric constant tensor:
#      x y z
#    x 1.718070 0.000000 0.000000 
#    y 0.000000 1.644810 0.000000 
#    z 0.000000 0.000000 1.699830 
# 
# From -- ./inp_files/31911.got.cif
#   From: 2010.05.17/outbox.cif.g08.bks.cpg/sg72_16_cif.got.tgz:31911.got - 2010.06.03 17:03:01.
