data_PCOD9526448
_publ_section_title
;
Structure prediction by ZEFSAII (Michael W. Deem and Ramdas Pophale) SiO2 
 PCOD9526448
Probable space group: I B A M
;
_chemical_formula_sum "Si O2"
_cell_formula_units_Z 120
_cell_length_a 15.676666
_cell_length_b 29.107218
_cell_length_c 13.380529
_cell_angle_alpha 90.000000
_cell_angle_beta 90.000000
_cell_angle_gamma 90.000000
_cell_volume 6105.590708
_symmetry_space_group_name_H-M "I B A M"
_symmetry_group_IT_number 72
_symmetry_cell_setting 'orthorhombic'
loop_
_space_group_symop_operation_xyz
x,y,z
-x,-y,z
x,-y,1/2-z
-x,y,1/2-z
-x,-y,-z
x,y,-z
-x,y,1/2+z
x,-y,1/2+z
1/2+x,1/2+y,1/2+z
1/2-x,1/2-y,1/2+z
1/2+x,1/2-y,-z
1/2-x,1/2+y,-z
1/2-x,1/2-y,1/2-z
1/2+x,1/2+y,1/2-z
1/2-x,1/2+y,z
1/2+x,1/2-y,z
loop_
_atom_site_type_symbol
_atom_site_label
_atom_site_fract_x
_atom_site_fract_y
_atom_site_fract_z
Si Si1 0.905357 0.983275 0.618722
Si Si2 0.402691 0.157755 0.718962
Si Si3 0.310657 0.203703 0.880371
Si Si4 0.758964 0.000000 0.250000
Si Si5 0.367376 0.618424 0.382015
Si Si6 0.316386 0.080282 0.617456
Si Si7 0.369783 0.746269 0.119873
Si Si8 0.556990 0.713715 0.878098
O O1 0.892000 0.982299 0.500000
O O2 0.829047 0.013312 0.665127
O O3 0.898598 0.930799 0.657413
O O4 0.000000 0.000000 0.638598
O O5 0.500000 0.165075 0.750000
O O6 0.344049 0.160324 0.818032
O O7 0.393218 0.111008 0.657358
O O8 0.371321 0.201038 0.654003
O O9 0.216078 0.219722 0.849710
O O10 0.377683 0.244807 0.855099
O O11 0.312794 0.196586 0.000000
O O12 0.703771 0.961673 0.307278
O O13 0.388595 0.618377 0.500000
O O14 0.265459 0.614395 0.374751
O O15 0.406994 0.664985 0.340717
O O16 0.323210 0.066861 0.500000
O O17 0.459641 0.723940 0.151894
O O18 0.368581 0.745938 0.000000
O O19 0.556848 0.712148 0.000000
#
# Coordination Sequence:
#
# PCOD9526448 Si02
#       8
#    16  16  16   8  16  16  16  16
#     4   9  17  31  55  86 123 163 204 251 309 369
#     4  12  23  38  61  87 119 158 207 259 309 375
#     4  10  21  37  55  80 118 160 207 261 308 357
#     4  10  19  38  63  86 116 150 202 258 305 367
#     4   8  15  30  53  82 115 156 200 239 285 356
#     4  10  22  41  66  92 119 156 202 251 314 382
#     4  10  20  35  57  82 119 167 209 257 310 355
#     4   9  16  30  52  79 114 157 203 246 296 352
#
# _framework density 19.654118
#
# number of rings (size 3 to 8) (size 9 to 14) (size 15 to 20)
#    0.000    2.267    1.333    3.000    0.000    2.667 
#    2.400    1.667    2.933    0.800    0.000    0.000 
#    0.000    0.000    0.000    0.000    0.000    0.000 
#
# Total GULP energy -334621.769692 kJ/mol
# GULP energy per Si atom -5577.029495 kJ/mol
# Density = 1.960938 g / cm^3
# Si number density = 19.654118 Si / 1000 Ang^3
#
#
#
# Elastic Constant Matrix: (Units=GPa)
#
#
# Indices 1 2 3 4 5 6 
#
# 1 81.7541 17.9036 26.9763 0.0000 0.0000 0.0000
# 2 17.9036 65.6604 40.1510 -0.0001 0.0000 0.0000
# 3 26.9763 40.1510 89.6164 -0.0001 0.0000 0.0000
# 4 0.0000 -0.0001 -0.0001 30.4911 0.0000 0.0000
# 5 0.0000 0.0000 0.0000 0.0000 25.7525 0.0000
# 6 0.0000 0.0000 0.0000 0.0000 0.0000 34.1474
#
#
#
# Elastic Compliance Matrix: (Units=1/GPa)
#
#
# Indices 1 2 3 4 5 6 
#
# 1 0.013713 -0.001673 -0.003378 0.000000 0.000000 0.000000
# 2 -0.001673 0.021181 -0.008986 0.000000 0.000000 0.000000
# 3 -0.003378 -0.008986 0.016202 0.000000 0.000000 0.000000
# 4 0.000000 0.000000 0.000000 0.032796 0.000000 0.000000
# 5 0.000000 0.000000 0.000000 0.000000 0.038831 0.000000
# 6 0.000000 0.000000 0.000000 0.000000 0.000000 0.029285
#
#
# Mechanical properties :
#
#
# Convention : Reuss Voigt Hill
#
# Bulk Modulus (GPa) = 43.43967 45.23253 44.33610
# Shear Modulus (GPa) = 26.63019 28.21153 27.42086
#
# Velocity S-wave (km/s) = 3.68495 3.79278 3.73925
# Velocity P-wave (km/s) = 6.34470 6.49957 6.42260
#
# Compressibility (1/GPa) = 0.02302043
#
# Stress axis : x y z
#
# Youngs Moduli (GPa) = 72.92386 47.21191 61.72228
#
# Poissons Ratio (x) = 0.07900 0.20851
# Poissons Ratio (y) = 0.12203 0.55464
# Poissons Ratio (z) = 0.24635 0.42425
#
# Static dielectric constant tensor:
#      x y z
#    x 1.699580 0.000000 0.000000 
#    y 0.000000 1.693340 0.000000 
#    z 0.000000 0.000000 1.749510 
# 
# From -- ./inp_files/22482.got.cif
#   From: 2010.05.17/outbox.cif.g08.bks.cpg/sg72_12_cif.got.tgz:22482.got - 2010.06.03 17:03:01.
