data_PCOD9526181
_publ_section_title
;
Structure prediction by ZEFSAII (Michael W. Deem and Ramdas Pophale) SiO2 
 PCOD9526181
Probable space group: I B A M
;
_chemical_formula_sum "Si O2"
_cell_formula_units_Z 88
_cell_length_a 15.822280
_cell_length_b 9.408058
_cell_length_c 23.800513
_cell_angle_alpha 90.000000
_cell_angle_beta 90.000000
_cell_angle_gamma 90.000000
_cell_volume 3542.871248
_symmetry_space_group_name_H-M "I B A M"
_symmetry_group_IT_number 72
_symmetry_cell_setting 'orthorhombic'
loop_
_space_group_symop_operation_xyz
x,y,z
-x,-y,z
x,-y,1/2-z
-x,y,1/2-z
-x,-y,-z
x,y,-z
-x,y,1/2+z
x,-y,1/2+z
1/2+x,1/2+y,1/2+z
1/2-x,1/2-y,1/2+z
1/2+x,1/2-y,-z
1/2-x,1/2+y,-z
1/2-x,1/2-y,1/2-z
1/2+x,1/2+y,1/2-z
1/2-x,1/2+y,z
1/2+x,1/2-y,z
loop_
_atom_site_type_symbol
_atom_site_label
_atom_site_fract_x
_atom_site_fract_y
_atom_site_fract_z
Si Si1 0.626368 0.000000 0.750000
Si Si2 0.410481 0.987398 0.085032
Si Si3 0.635536 0.377934 0.500000
Si Si4 0.244717 0.316149 0.311676
Si Si5 0.406239 0.706659 0.624916
Si Si6 0.273413 0.088299 0.000000
Si Si7 0.574619 0.253691 0.828365
O O1 0.689144 0.954261 0.800002
O O2 0.578852 0.863217 0.722707
O O3 0.325883 0.023738 0.051904
O O4 0.406588 0.839062 0.115851
O O5 0.500000 0.000000 0.053378
O O6 0.423581 0.123595 0.124461
O O7 0.590200 0.350734 0.560472
O O8 0.678999 0.531623 0.500000
O O9 0.709170 0.256225 0.500000
O O10 0.250000 0.250000 0.250000
O O11 0.189225 0.209377 0.350636
O O12 0.341202 0.349283 0.326553
O O13 0.486109 0.664158 0.663560
#
# Coordination Sequence:
#
# PCOD9526181 Si02
#       7
#     8  16   8  16  16   8  16
#     4  10  20  35  54  85 120 154 206 253 318 377
#     4   9  17  31  54  89 115 149 197 262 307 357
#     4  10  22  38  64  96 127 169 211 270 313 397
#     4  10  21  34  56  88 118 158 201 248 311 382
#     4  10  20  37  57  92 121 149 207 257 318 368
#     4  10  19  34  58  92 126 163 201 256 318 362
#     4  10  20  34  58  86 116 158 193 263 313 365
#
# _framework density 24.838611
#
# number of rings (size 3 to 8) (size 9 to 14) (size 15 to 20)
#    0.000    2.182    1.818    1.364    0.000    5.818 
#    0.000    0.909    0.000    8.727    9.455   35.636 
#    0.000    0.000    0.000    0.000    0.000    0.000 
#
# Total GULP energy -244981.496834 kJ/mol
# GULP energy per Si atom -5567.761292 kJ/mol
# Density = 2.478208 g / cm^3
# Si number density = 24.838611 Si / 1000 Ang^3
#
#
#
# Elastic Constant Matrix: (Units=GPa)
#
#
# Indices 1 2 3 4 5 6 
#
# 1 160.9794 8.1146 48.5293 0.0000 0.0000 0.0000
# 2 8.1146 42.5788 1.0805 0.0000 0.0000 0.0000
# 3 48.5293 1.0805 64.1634 0.0000 0.0000 0.0000
# 4 0.0000 0.0000 0.0000 4.3330 0.0000 0.0000
# 5 0.0000 0.0000 0.0000 0.0000 427.4986 0.0000
# 6 0.0000 0.0000 0.0000 0.0000 0.0000 23.8299
#
#
#
# Elastic Compliance Matrix: (Units=1/GPa)
#
#
# Indices 1 2 3 4 5 6 
#
# 1 0.008129 -0.001394 -0.006124 0.000000 0.000000 0.000000
# 2 -0.001394 0.023735 0.000654 0.000000 0.000000 0.000000
# 3 -0.006124 0.000654 0.020206 0.000000 0.000000 0.000000
# 4 0.000000 0.000000 0.000000 0.230786 0.000000 0.000000
# 5 0.000000 0.000000 0.000000 0.000000 0.002339 0.000000
# 6 0.000000 0.000000 0.000000 0.000000 0.000000 0.041964
#
#
# Mechanical properties :
#
#
# Convention : Reuss Voigt Hill
#
# Bulk Modulus (GPa) = 26.08085 42.57448 34.32767
# Shear Modulus (GPa) = 14.13759 105.13213 59.63486
#
# Velocity S-wave (km/s) = 2.38833 6.51291 4.90521
# Velocity P-wave (km/s) = 4.25775 8.58691 6.77729
#
# Compressibility (1/GPa) = 0.03834231
#
# Stress axis : x y z
#
# Youngs Moduli (GPa) = 123.02360 42.13211 49.48937
#
# Poissons Ratio (x) = 0.05872 0.30310
# Poissons Ratio (y) = 0.17146 -0.03239
# Poissons Ratio (z) = 0.75345 -0.02757
#
# Static dielectric constant tensor:
#      x y z
#    x 2.174840 0.000000 0.000000 
#    y 0.000000 2.029310 0.000000 
#    z 0.000000 0.000000 2.071820 
# 
# From -- ./inp_files/48071.got.cif
#   From: 2010.05.17/outbox.cif.g08.bks.cpg/sg72_25_cif.got.tgz:48071.got - 2010.06.03 17:03:01.
