data_PCOD9527748
_publ_section_title
;
Structure prediction by ZEFSAII (Michael W. Deem and Ramdas Pophale) SiO2 
 PCOD9527748
Probable space group: I B A M
;
_chemical_formula_sum "Si O2"
_cell_formula_units_Z 96
_cell_length_a 13.727689
_cell_length_b 20.022447
_cell_length_c 17.690038
_cell_angle_alpha 90.000000
_cell_angle_beta 90.000000
_cell_angle_gamma 90.000000
_cell_volume 4862.317906
_symmetry_space_group_name_H-M "I B A M"
_symmetry_group_IT_number 72
_symmetry_cell_setting 'orthorhombic'
loop_
_space_group_symop_operation_xyz
x,y,z
-x,-y,z
x,-y,1/2-z
-x,y,1/2-z
-x,-y,-z
x,y,-z
-x,y,1/2+z
x,-y,1/2+z
1/2+x,1/2+y,1/2+z
1/2-x,1/2-y,1/2+z
1/2+x,1/2-y,-z
1/2-x,1/2+y,-z
1/2-x,1/2-y,1/2-z
1/2+x,1/2+y,1/2-z
1/2-x,1/2+y,z
1/2+x,1/2-y,z
loop_
_atom_site_type_symbol
_atom_site_label
_atom_site_fract_x
_atom_site_fract_y
_atom_site_fract_z
Si Si1 0.371330 0.357640 0.914347
Si Si2 0.383973 0.004772 0.088590
Si Si3 0.259997 0.434630 0.200298
Si Si4 0.007448 0.748757 0.165004
Si Si5 0.183134 0.644136 0.159116
Si Si6 0.188586 0.742881 0.586661
O O1 0.350540 0.412551 0.850974
O O2 0.456593 0.307576 0.889929
O O3 0.273393 0.312270 0.911313
O O4 0.383872 0.382226 0.000000
O O5 0.346210 0.078194 0.112350
O O6 0.500000 0.000000 0.100821
O O7 0.326841 0.954061 0.142763
O O8 0.364502 0.991838 0.000000
O O9 0.281592 0.500000 0.250000
O O10 0.224347 0.378949 0.259774
O O11 0.087683 0.690369 0.165786
O O12 0.000000 0.775275 0.250000
O O13 0.903701 0.723588 0.136451
O O14 0.263844 0.689083 0.117773
O O15 0.157921 0.750809 0.500000
#
# Coordination Sequence:
#
# PCOD9527748 Si02
#       6
#    16  16  16  16  16  16
#     4  10  21  38  58  85 117 148 190 236 282 345
#     4  10  22  36  55  83 115 156 195 232 284 338
#     4  10  21  37  57  80 113 153 191 235 290 333
#     4  11  22  35  59  88 116 151 192 237 292 344
#     4  10  22  37  57  85 121 149 192 242 283 343
#     4  10  21  37  58  84 115 153 186 232 294 343
#
# _framework density 19.743670000000002
#
# number of rings (size 3 to 8) (size 9 to 14) (size 15 to 20)
#    0.000    1.833    0.000    3.500    4.667    7.000 
#    0.000    0.000    0.000   11.500    0.000   16.333 
#    0.000    0.000    0.000    0.000    0.000    0.000 
#
# Total GULP energy -268251.833732 kJ/mol
# GULP energy per Si atom -5588.579869 kJ/mol
# Density = 1.969873 g / cm^3
# Si number density = 19.743670 Si / 1000 Ang^3
#
#
#
# Elastic Constant Matrix: (Units=GPa)
#
#
# Indices 1 2 3 4 5 6 
#
# 1 22.7509 -10.6613 -0.9345 0.0000 0.0000 0.0000
# 2 -10.6613 42.0431 16.6927 0.0000 0.0000 0.0000
# 3 -0.9345 16.6927 109.7923 0.0000 0.0000 0.0000
# 4 0.0000 0.0000 0.0000 24.9624 0.0000 0.0000
# 5 0.0000 0.0000 0.0000 0.0000 29.2047 0.0000
# 6 0.0000 0.0000 0.0000 0.0000 0.0000 11.8081
#
#
#
# Elastic Compliance Matrix: (Units=1/GPa)
#
#
# Indices 1 2 3 4 5 6 
#
# 1 0.050145 0.013352 -0.001603 0.000000 0.000000 0.000000
# 2 0.013352 0.028869 -0.004275 0.000000 0.000000 0.000000
# 3 -0.001603 -0.004275 0.009744 0.000000 0.000000 0.000000
# 4 0.000000 0.000000 0.000000 0.040060 0.000000 0.000000
# 5 0.000000 0.000000 0.000000 0.000000 0.034241 0.000000
# 6 0.000000 0.000000 0.000000 0.000000 0.000000 0.084688
#
#
# Mechanical properties :
#
#
# Convention : Reuss Voigt Hill
#
# Bulk Modulus (GPa) = 9.64266 20.53113 15.08690
# Shear Modulus (GPa) = 18.70076 24.49433 21.59755
#
# Velocity S-wave (km/s) = 3.08096 3.52606 3.31100
# Velocity P-wave (km/s) = 4.18939 5.19605 4.71963
#
# Compressibility (1/GPa) = 0.10370580
#
# Stress axis : x y z
#
# Youngs Moduli (GPa) = 19.94198 34.63982 102.62204
#
# Poissons Ratio (x) = -0.46252 0.16453
# Poissons Ratio (y) = -0.26627 0.43876
# Poissons Ratio (z) = 0.03197 0.14810
#
# Static dielectric constant tensor:
#      x y z
#    x 1.660760 0.000000 0.000000 
#    y 0.000000 1.697680 0.000000 
#    z 0.000000 0.000000 1.692850 
# 
# From -- ./inp_files/21861.got.cif
#   From: 2010.05.17/outbox.cif.g08.bks.cpg/sg72_11_cif.got.tgz:21861.got - 2010.06.03 17:03:01.
