data_PCOD9527961
_publ_section_title
;
Structure prediction by ZEFSAII (Michael W. Deem and Ramdas Pophale) SiO2 
 PCOD9527961
Probable space group: I B A M
;
_chemical_formula_sum "Si O2"
_cell_formula_units_Z 96
_cell_length_a 8.946766
_cell_length_b 26.805067
_cell_length_c 18.918803
_cell_angle_alpha 90.000000
_cell_angle_beta 90.000000
_cell_angle_gamma 90.000000
_cell_volume 4537.082023
_symmetry_space_group_name_H-M "I B A M"
_symmetry_group_IT_number 72
_symmetry_cell_setting 'orthorhombic'
loop_
_space_group_symop_operation_xyz
x,y,z
-x,-y,z
x,-y,1/2-z
-x,y,1/2-z
-x,-y,-z
x,y,-z
-x,y,1/2+z
x,-y,1/2+z
1/2+x,1/2+y,1/2+z
1/2-x,1/2-y,1/2+z
1/2+x,1/2-y,-z
1/2-x,1/2+y,-z
1/2-x,1/2-y,1/2-z
1/2+x,1/2+y,1/2-z
1/2-x,1/2+y,z
1/2+x,1/2-y,z
loop_
_atom_site_type_symbol
_atom_site_label
_atom_site_fract_x
_atom_site_fract_y
_atom_site_fract_z
Si Si1 0.121592 0.681867 0.416680
Si Si2 0.414277 0.086367 0.319680
Si Si3 0.067904 0.120129 0.915560
Si Si4 0.165097 0.547697 0.081839
Si Si5 0.453255 0.723930 0.583598
Si Si6 0.365491 0.534635 0.650577
O O1 0.098196 0.669043 0.500000
O O2 0.124077 0.632705 0.369814
O O3 0.280139 0.710063 0.410732
O O4 0.999005 0.721686 0.390019
O O5 0.500000 0.102441 0.250000
O O6 0.526349 0.052692 0.366088
O O7 0.263622 0.056344 0.299380
O O8 0.044265 0.176139 0.887775
O O9 0.946716 0.082048 0.884178
O O10 0.230125 0.096148 0.904372
O O11 0.043049 0.121188 0.000000
O O12 0.272549 0.500422 0.096516
O O13 0.118744 0.547688 0.000000
O O14 0.490406 0.726973 0.500000
O O15 0.500000 0.500000 0.677056
#
# Coordination Sequence:
#
# PCOD9527961 Si02
#       6
#    16  16  16  16  16  16
#     4  10  21  38  65  94 126 166 213 267 321 379
#     4  12  26  43  61  90 130 172 214 264 324 385
#     4   9  17  34  61  95 129 158 202 263 322 381
#     4  10  22  37  63  95 124 160 209 268 327 384
#     4   9  18  33  61  95 125 160 206 261 319 374
#     4  10  21  40  65  89 122 166 212 263 321 383
#
# _framework density 21.158974000000001
#
# number of rings (size 3 to 8) (size 9 to 14) (size 15 to 20)
#    0.000    2.000    1.667    1.500    2.333    6.000 
#    0.000    6.667    0.000    0.000    0.000    0.000 
#    0.000    0.000    0.000    0.000    0.000    0.000 
#
# Total GULP energy -268053.563660 kJ/mol
# GULP energy per Si atom -5584.449243 kJ/mol
# Density = 2.111082 g / cm^3
# Si number density = 21.158974 Si / 1000 Ang^3
#
#
#
# Elastic Constant Matrix: (Units=GPa)
#
#
# Indices 1 2 3 4 5 6 
#
# 1 94.9253 40.3867 33.2131 0.0000 0.0000 0.0000
# 2 40.3867 108.6460 28.9762 0.0000 0.0000 0.0000
# 3 33.2131 28.9762 50.3582 0.0001 0.0003 0.0000
# 4 0.0000 0.0000 0.0001 -12.5557 0.0001 0.0000
# 5 0.0000 0.0000 0.0003 0.0001 51.9052 0.0000
# 6 0.0000 0.0000 0.0000 0.0000 0.0000 38.4081
#
#
#
# Elastic Compliance Matrix: (Units=1/GPa)
#
#
# Indices 1 2 3 4 5 6 
#
# 1 0.014685 -0.003397 -0.007730 0.000000 0.000000 0.000000
# 2 -0.003397 0.011659 -0.004468 0.000000 0.000000 0.000000
# 3 -0.007730 -0.004468 0.027527 0.000000 0.000000 0.000000
# 4 0.000000 0.000000 0.000000 -0.079645 0.000000 0.000000
# 5 0.000000 0.000000 0.000000 0.000000 0.019266 0.000000
# 6 0.000000 0.000000 0.000000 0.000000 0.000000 0.026036
#
#
# Mechanical properties :
#
#
# Convention : Reuss Voigt Hill
#
# Bulk Modulus (GPa) = 44.09244 51.00905 47.55074
# Shear Modulus (GPa) = 85.79592 25.64176 55.71884
#
# Velocity S-wave (km/s) = 6.37466 3.48496 5.13718
# Velocity P-wave (km/s) = 8.66404 6.35241 7.59667
#
# Compressibility (1/GPa) = 0.02267963
#
# Stress axis : x y z
#
# Youngs Moduli (GPa) = 68.09841 85.77391 36.32786
#
# Poissons Ratio (x) = 0.29137 0.28083
# Poissons Ratio (y) = 0.23133 0.16231
# Poissons Ratio (z) = 0.52643 0.38323
#
# Static dielectric constant tensor:
#      x y z
#    x 1.793130 0.000000 0.000000 
#    y 0.000000 1.805250 0.000000 
#    z 0.000000 0.000000 1.713910 
# 
# From -- ./inp_files/36046.got.cif
#   From: 2010.05.17/outbox.cif.g08.bks.cpg/sg72_19_cif.got.tgz:36046.got - 2010.06.03 17:03:01.
