data_PCOD9527412
_publ_section_title
;
Structure prediction by ZEFSAII (Michael W. Deem and Ramdas Pophale) SiO2 
 PCOD9527412
Probable space group: I B A M
;
_chemical_formula_sum "Si O2"
_cell_formula_units_Z 112
_cell_length_a 11.214383
_cell_length_b 30.662297
_cell_length_c 16.918085
_cell_angle_alpha 90.000000
_cell_angle_beta 90.000000
_cell_angle_gamma 90.000000
_cell_volume 5817.431429
_symmetry_space_group_name_H-M "I B A M"
_symmetry_group_IT_number 72
_symmetry_cell_setting 'orthorhombic'
loop_
_space_group_symop_operation_xyz
x,y,z
-x,-y,z
x,-y,1/2-z
-x,y,1/2-z
-x,-y,-z
x,y,-z
-x,y,1/2+z
x,-y,1/2+z
1/2+x,1/2+y,1/2+z
1/2-x,1/2-y,1/2+z
1/2+x,1/2-y,-z
1/2-x,1/2+y,-z
1/2-x,1/2-y,1/2-z
1/2+x,1/2+y,1/2-z
1/2-x,1/2+y,z
1/2+x,1/2-y,z
loop_
_atom_site_type_symbol
_atom_site_label
_atom_site_fract_x
_atom_site_fract_y
_atom_site_fract_z
Si Si1 0.099422 0.037362 0.410800
Si Si2 0.964342 0.432775 0.908294
Si Si3 0.473740 0.379442 0.656983
Si Si4 0.776901 0.639575 0.404103
Si Si5 0.661397 0.014720 0.837980
Si Si6 0.248931 0.237065 0.157769
Si Si7 0.009615 0.781520 0.094519
O O1 0.148576 0.037662 0.500000
O O2 0.202732 0.025654 0.350817
O O3 0.046208 0.084109 0.389736
O O4 0.000000 0.000000 0.406678
O O5 0.893960 0.388916 0.888676
O O6 0.878743 0.474475 0.893333
O O7 0.080910 0.443678 0.858563
O O8 0.996786 0.431415 0.000000
O O9 0.500000 0.383596 0.750000
O O10 0.335862 0.385515 0.632767
O O11 0.504270 0.330434 0.629410
O O12 0.762569 0.644154 0.500000
O O13 0.776535 0.686498 0.362591
O O14 0.637222 0.000000 0.750000
O O15 0.250000 0.250000 0.250000
O O16 0.111543 0.242709 0.126288
O O17 0.361576 0.261936 0.118381
O O18 0.000190 0.782838 0.000000
#
# Coordination Sequence:
#
# PCOD9527412 Si02
#       7
#    16  16  16  16  16  16  16
#     4  11  24  40  61  87 121 163 209 255 310 377
#     4  10  20  39  64  85 117 166 210 252 307 376
#     4  11  23  38  61  91 126 160 205 261 319 373
#     4  10  21  40  66  91 122 167 217 256 315 393
#     4  11  23  38  58  89 127 161 206 260 318 370
#     4  11  22  41  65  96 130 168 214 270 328 386
#     4  11  22  42  67  93 128 171 215 261 325 394
#
# _framework density 19.252483999999999
#
# number of rings (size 3 to 8) (size 9 to 14) (size 15 to 20)
#    0.000    1.286    0.000    9.000    4.000    2.286 
#    2.571    1.429    0.000    0.000    0.000    0.000 
#    0.000    0.000    0.000    0.000    0.000    0.000 
#
# Total GULP energy -312720.240884 kJ/mol
# GULP energy per Si atom -5584.290016 kJ/mol
# Density = 1.920866 g / cm^3
# Si number density = 19.252484 Si / 1000 Ang^3
#
#
#
# Elastic Constant Matrix: (Units=GPa)
#
#
# Indices 1 2 3 4 5 6 
#
# 1 88.2620 30.1844 32.0180 0.0000 0.0001 0.0000
# 2 30.1844 49.2373 21.6865 0.0000 0.0001 -0.0001
# 3 32.0180 21.6865 113.4874 0.0002 0.0005 -0.0007
# 4 0.0000 0.0000 0.0002 108.2787 0.0002 -0.0013
# 5 0.0001 0.0001 0.0005 0.0002 156.2405 0.0010
# 6 0.0000 -0.0001 -0.0007 -0.0013 0.0010 180.1768
#
#
#
# Elastic Compliance Matrix: (Units=1/GPa)
#
#
# Indices 1 2 3 4 5 6 
#
# 1 0.015064 -0.008039 -0.002714 0.000000 0.000000 0.000000
# 2 -0.008039 0.026467 -0.002789 0.000000 0.000000 0.000000
# 3 -0.002714 -0.002789 0.010110 0.000000 0.000000 0.000000
# 4 0.000000 0.000000 0.000000 0.009235 0.000000 0.000000
# 5 0.000000 0.000000 0.000000 0.000000 0.006400 0.000000
# 6 0.000000 0.000000 0.000000 0.000000 0.000000 0.005550
#
#
# Mechanical properties :
#
#
# Convention : Reuss Voigt Hill
#
# Bulk Modulus (GPa) = 40.72361 46.52939 43.62650
# Shear Modulus (GPa) = 46.25478 100.07904 73.16691
#
# Velocity S-wave (km/s) = 4.90688 7.21770 6.17142
# Velocity P-wave (km/s) = 7.30080 9.67888 8.57270
#
# Compressibility (1/GPa) = 0.02455578
#
# Stress axis : x y z
#
# Youngs Moduli (GPa) = 66.38490 37.78301 98.91022
#
# Poissons Ratio (x) = 0.30375 0.26841
# Poissons Ratio (y) = 0.53370 0.27590
# Poissons Ratio (z) = 0.18014 0.10539
#
# Static dielectric constant tensor:
#      x y z
#    x 1.689830 0.000000 0.000000 
#    y 0.000000 1.748200 0.000000 
#    z 0.000000 0.000000 1.669710 
# 
# From -- ./inp_files/20738.got.cif
#   From: 2010.05.17/outbox.cif.g08.bks.cpg/sg72_11_cif.got.tgz:20738.got - 2010.06.03 17:03:01.
