data_PCOD9527318
_publ_section_title
;
Structure prediction by ZEFSAII (Michael W. Deem and Ramdas Pophale) SiO2 
 PCOD9527318
Probable space group: I B A M
;
_chemical_formula_sum "Si O2"
_cell_formula_units_Z 80
_cell_length_a 12.760379
_cell_length_b 13.101252
_cell_length_c 26.406840
_cell_angle_alpha 90.000000
_cell_angle_beta 90.000000
_cell_angle_gamma 90.000000
_cell_volume 4414.614730
_symmetry_space_group_name_H-M "I B A M"
_symmetry_group_IT_number 72
_symmetry_cell_setting 'orthorhombic'
loop_
_space_group_symop_operation_xyz
x,y,z
-x,-y,z
x,-y,1/2-z
-x,y,1/2-z
-x,-y,-z
x,y,-z
-x,y,1/2+z
x,-y,1/2+z
1/2+x,1/2+y,1/2+z
1/2-x,1/2-y,1/2+z
1/2+x,1/2-y,-z
1/2-x,1/2+y,-z
1/2-x,1/2-y,1/2-z
1/2+x,1/2+y,1/2-z
1/2-x,1/2+y,z
1/2+x,1/2-y,z
loop_
_atom_site_type_symbol
_atom_site_label
_atom_site_fract_x
_atom_site_fract_y
_atom_site_fract_z
Si Si1 0.786945 0.070288 0.701523
Si Si2 0.419469 0.792405 0.703438
Si Si3 0.022640 0.120458 0.557896
Si Si4 0.803214 0.128403 0.141898
Si Si5 0.098324 0.761400 0.361079
O O1 0.675409 0.127529 0.709752
O O2 0.870647 0.154963 0.682553
O O3 0.812664 0.000000 0.750000
O O4 0.780712 0.987561 0.656665
O O5 0.500000 0.793637 0.750000
O O6 0.363155 0.685649 0.688592
O O7 0.498597 0.805306 0.656310
O O8 0.034131 0.154659 0.500000
O O9 0.124300 0.135869 0.592808
O O10 0.931504 0.178756 0.588268
O O11 0.000000 0.000000 0.557964
O O12 0.697851 0.190364 0.133666
#
# Coordination Sequence:
#
# PCOD9527318 Si02
#       5
#    16  16  16  16  16
#     4  11  21  34  55  80 112 152 183 217 267 317
#     4  10  21  35  52  80 113 149 184 220 259 319
#     4  10  20  38  61  80 103 139 183 227 275 326
#     4  10  21  36  56  82 111 141 183 225 269 319
#     4  10  21  37  55  83 111 141 182 226 267 323
#
# _framework density 18.121627
#
# number of rings (size 3 to 8) (size 9 to 14) (size 15 to 20)
#    0.000    1.800    2.000    2.400    0.000    6.800 
#    0.000    3.000    0.000    0.000    0.000    5.600 
#    0.000    0.000    0.000    0.000    0.000    0.000 
#
# Total GULP energy -223040.698058 kJ/mol
# GULP energy per Si atom -5576.017451 kJ/mol
# Density = 1.808038 g / cm^3
# Si number density = 18.121627 Si / 1000 Ang^3
#
#
#
# Elastic Constant Matrix: (Units=GPa)
#
#
# Indices 1 2 3 4 5 6 
#
# 1 43.3209 15.4835 1.8140 0.0000 0.0000 0.0000
# 2 15.4835 36.4952 9.8441 0.0000 0.0000 0.0000
# 3 1.8140 9.8441 85.1895 0.0000 0.0000 0.0000
# 4 0.0000 0.0000 0.0000 2.6448 0.0000 0.0000
# 5 0.0000 0.0000 0.0000 0.0000 9.4527 0.0000
# 6 0.0000 0.0000 0.0000 0.0000 0.0000 12.2299
#
#
#
# Elastic Compliance Matrix: (Units=1/GPa)
#
#
# Indices 1 2 3 4 5 6 
#
# 1 0.027260 -0.011776 0.000780 0.000000 0.000000 0.000000
# 2 -0.011776 0.033369 -0.003605 0.000000 0.000000 0.000000
# 3 0.000780 -0.003605 0.012139 0.000000 0.000000 0.000000
# 4 0.000000 0.000000 0.000000 0.378106 0.000000 0.000000
# 5 0.000000 0.000000 0.000000 0.000000 0.105790 0.000000
# 6 0.000000 0.000000 0.000000 0.000000 0.000000 0.081767
#
#
# Mechanical properties :
#
#
# Convention : Reuss Voigt Hill
#
# Bulk Modulus (GPa) = 22.95359 24.36542 23.65950
# Shear Modulus (GPa) = 7.32972 14.05640 10.69306
#
# Velocity S-wave (km/s) = 2.01334 2.78811 2.43177
# Velocity P-wave (km/s) = 4.25424 4.88256 4.57919
#
# Compressibility (1/GPa) = 0.04356617
#
# Stress axis : x y z
#
# Youngs Moduli (GPa) = 36.68430 29.96773 82.38235
#
# Poissons Ratio (x) = 0.35289 -0.06428
# Poissons Ratio (y) = 0.43198 0.29701
# Poissons Ratio (z) = -0.02862 0.10804
#
# Static dielectric constant tensor:
#      x y z
#    x 1.617150 0.000000 0.000000 
#    y 0.000000 1.613300 0.000000 
#    z 0.000000 0.000000 1.643090 
# 
# From -- ./inp_files/43106.got.cif
#   From: 2010.05.17/outbox.cif.g08.bks.cpg/sg72_22_cif.got.tgz:43106.got - 2010.06.03 17:03:01.
