data_PCOD9527591
_publ_section_title
;
Structure prediction by ZEFSAII (Michael W. Deem and Ramdas Pophale) SiO2 
 PCOD9527591
Probable space group: I B A M
;
_chemical_formula_sum "Si O2"
_cell_formula_units_Z 100
_cell_length_a 32.671336
_cell_length_b 18.665797
_cell_length_c 9.861072
_cell_angle_alpha 90.000000
_cell_angle_beta 90.000000
_cell_angle_gamma 90.000000
_cell_volume 6013.641886
_symmetry_space_group_name_H-M "I B A M"
_symmetry_group_IT_number 72
_symmetry_cell_setting 'orthorhombic'
loop_
_space_group_symop_operation_xyz
x,y,z
-x,-y,z
x,-y,1/2-z
-x,y,1/2-z
-x,-y,-z
x,y,-z
-x,y,1/2+z
x,-y,1/2+z
1/2+x,1/2+y,1/2+z
1/2-x,1/2-y,1/2+z
1/2+x,1/2-y,-z
1/2-x,1/2+y,-z
1/2-x,1/2-y,1/2-z
1/2+x,1/2+y,1/2-z
1/2-x,1/2+y,z
1/2+x,1/2-y,z
loop_
_atom_site_type_symbol
_atom_site_label
_atom_site_fract_x
_atom_site_fract_y
_atom_site_fract_z
Si Si1 0.810798 0.070657 0.660395
Si Si2 0.872060 0.800094 0.839087
Si Si3 0.136479 0.658277 0.838822
Si Si4 0.536675 0.722314 0.655085
Si Si5 0.065468 0.386733 0.153979
Si Si6 0.282320 0.068457 0.157292
Si Si7 0.000000 0.500000 0.250000
O O1 0.814559 0.053595 0.500000
O O2 0.842619 0.133656 0.690968
O O3 0.763819 0.095711 0.684325
O O4 0.817492 0.000000 0.750000
O O5 0.863454 0.733112 0.741768
O O6 0.920142 0.816355 0.819888
O O7 0.867204 0.780920 0.000000
O O8 0.101600 0.610143 0.765021
O O9 0.181133 0.623816 0.822592
O O10 0.127762 0.665830 0.000000
O O11 0.500000 0.700146 0.750000
O O12 0.524754 0.711534 0.500000
O O13 0.545857 0.807554 0.672397
O O14 0.030745 0.446868 0.170779
O O15 0.082000 0.389849 0.000000
O O16 0.289229 0.000000 0.250000
O O17 0.283402 0.046226 0.000000
#
# Coordination Sequence:
#
# PCOD9527591 Si02
#       7
#    16  16  16  16  16  16   4
#     4   9  18  35  57  79 106 134 166 207 256 313
#     4   9  19  35  54  77 104 136 169 209 261 312
#     4  10  21  35  51  75 105 136 177 221 258 305
#     4   9  17  32  50  70  96 128 165 204 248 297
#     4  10  22  36  50  70  99 135 176 219 264 303
#     4   9  19  34  51  74 103 138 174 213 258 306
#     4  12  22  36  52  74  98 136 186 230 258 304
#
# _framework density 16.628858000000001
#
# number of rings (size 3 to 8) (size 9 to 14) (size 15 to 20)
#    0.000    2.560    0.800    1.680    1.120    6.400 
#    0.000    0.000    0.000    0.480    0.000    3.360 
#    0.000    0.000    0.000    0.000    0.000    0.000 
#
# Total GULP energy -278593.169144 kJ/mol
# GULP energy per Si atom -5571.863383 kJ/mol
# Density = 1.659101 g / cm^3
# Si number density = 16.628858 Si / 1000 Ang^3
#
#
#
# Elastic Constant Matrix: (Units=GPa)
#
#
# Indices 1 2 3 4 5 6 
#
# 1 132.6690 65.3427 90.2772 0.0000 0.0000 0.0000
# 2 65.3427 56.3904 49.2910 0.0000 0.0000 0.0000
# 3 90.2772 49.2910 90.3074 0.0000 0.0000 0.0000
# 4 0.0000 0.0000 0.0000 19.7851 0.0000 0.0000
# 5 0.0000 0.0000 0.0000 0.0000 28.8906 0.0000
# 6 0.0000 0.0000 0.0000 0.0000 0.0000 27.8488
#
#
#
# Elastic Compliance Matrix: (Units=1/GPa)
#
#
# Indices 1 2 3 4 5 6 
#
# 1 0.029704 -0.016186 -0.020859 0.000000 0.000000 0.000000
# 2 -0.016186 0.042734 -0.007144 0.000000 0.000000 0.000000
# 3 -0.020859 -0.007144 0.035824 0.000000 0.000000 0.000000
# 4 0.000000 0.000000 0.000000 0.050543 0.000000 0.000000
# 5 0.000000 0.000000 0.000000 0.000000 0.034613 0.000000
# 6 0.000000 0.000000 0.000000 0.000000 0.000000 0.035908
#
#
# Mechanical properties :
#
#
# Convention : Reuss Voigt Hill
#
# Bulk Modulus (GPa) = 50.29220 76.57648 63.43434
# Shear Modulus (GPa) = 15.41626 20.26863 17.84244
#
# Velocity S-wave (km/s) = 3.04810 3.49504 3.27919
# Velocity P-wave (km/s) = 6.53433 7.90173 7.25034
#
# Compressibility (1/GPa) = 0.01988380
#
# Stress axis : x y z
#
# Youngs Moduli (GPa) = 33.66598 23.40056 27.91388
#
# Poissons Ratio (x) = 0.37877 0.58225
# Poissons Ratio (y) = 0.54493 0.19941
# Poissons Ratio (z) = 0.70224 0.16717
#
# Static dielectric constant tensor:
#      x y z
#    x 1.572320 0.000000 0.000000 
#    y 0.000000 1.531300 0.000000 
#    z 0.000000 0.000000 1.565440 
# 
# From -- ./inp_files/8203.got.cif
#   From: 2010.05.17/outbox.cif.g08.bks.cpg/sg72_5_cif.got.tgz:8203.got - 2010.06.03 17:03:01.
