data_PCOD9527022
_publ_section_title
;
Structure prediction by ZEFSAII (Michael W. Deem and Ramdas Pophale) SiO2 
 PCOD9527022
Probable space group: I B A M
;
_chemical_formula_sum "Si O2"
_cell_formula_units_Z 68
_cell_length_a 10.969606
_cell_length_b 8.992124
_cell_length_c 30.004539
_cell_angle_alpha 90.000000
_cell_angle_beta 90.000000
_cell_angle_gamma 90.000000
_cell_volume 2959.649449
_symmetry_space_group_name_H-M "I B A M"
_symmetry_group_IT_number 72
_symmetry_cell_setting 'orthorhombic'
loop_
_space_group_symop_operation_xyz
x,y,z
-x,-y,z
x,-y,1/2-z
-x,y,1/2-z
-x,-y,-z
x,y,-z
-x,y,1/2+z
x,-y,1/2+z
1/2+x,1/2+y,1/2+z
1/2-x,1/2-y,1/2+z
1/2+x,1/2-y,-z
1/2-x,1/2+y,-z
1/2-x,1/2-y,1/2-z
1/2+x,1/2+y,1/2-z
1/2-x,1/2+y,z
1/2+x,1/2-y,z
loop_
_atom_site_type_symbol
_atom_site_label
_atom_site_fract_x
_atom_site_fract_y
_atom_site_fract_z
Si Si1 0.410217 0.880966 0.448475
Si Si2 0.733319 0.839495 0.551871
Si Si3 0.369976 0.307535 0.635454
Si Si4 0.500000 0.500000 0.250000
Si Si5 0.371050 0.355910 0.168466
O O1 0.451120 0.863256 0.500000
O O2 0.365350 0.720974 0.433587
O O3 0.500000 0.000000 0.426647
O O4 0.289446 0.985499 0.447204
O O5 0.718491 0.796923 0.500000
O O6 0.643399 0.754878 0.585423
O O7 0.506153 0.270785 0.652479
O O8 0.358458 0.485128 0.642785
O O9 0.255266 0.232145 0.661523
O O10 0.411155 0.403688 0.218373
#
# Coordination Sequence:
#
# PCOD9527022 Si02
#       5
#    16  16  16   4  16
#     4   9  19  34  51  75 104 147 200 253 298 350
#     4  10  20  36  57  80 117 164 210 254 306 362
#     4  10  22  40  59  95 124 164 207 261 307 368
#     4   8  20  44  68  96 126 160 196 264 324 388
#     4  10  23  41  66  91 129 157 205 259 317 378
#
# _framework density 22.975694000000001
#
# number of rings (size 3 to 8) (size 9 to 14) (size 15 to 20)
#    0.000    2.588    0.000    1.412    3.294    4.706 
#    0.000    2.353    0.000   11.294    0.000    0.000 
#    0.000    0.000    0.000    0.000    0.000    0.000 
#
# Total GULP energy -189342.743171 kJ/mol
# GULP energy per Si atom -5568.904211 kJ/mol
# Density = 2.292340 g / cm^3
# Si number density = 22.975694 Si / 1000 Ang^3
#
#
#
# Elastic Constant Matrix: (Units=GPa)
#
#
# Indices 1 2 3 4 5 6 
#
# 1 154.7630 37.6530 38.1248 0.0000 0.0000 0.0000
# 2 37.6530 81.6156 14.0081 0.0000 0.0000 0.0000
# 3 38.1248 14.0081 135.3082 0.0000 0.0000 0.0000
# 4 0.0000 0.0000 0.0000 24.7068 0.0000 0.0000
# 5 0.0000 0.0000 0.0000 0.0000 17.0804 0.0000
# 6 0.0000 0.0000 0.0000 0.0000 0.0000 56.2290
#
#
#
# Elastic Compliance Matrix: (Units=1/GPa)
#
#
# Indices 1 2 3 4 5 6 
#
# 1 0.007701 -0.003238 -0.001835 0.000000 0.000000 0.000000
# 2 -0.003238 0.013836 -0.000520 0.000000 0.000000 0.000000
# 3 -0.001835 -0.000520 0.007961 0.000000 0.000000 0.000000
# 4 0.000000 0.000000 0.000000 0.040475 0.000000 0.000000
# 5 0.000000 0.000000 0.000000 0.000000 0.058547 0.000000
# 6 0.000000 0.000000 0.000000 0.000000 0.000000 0.017784
#
#
# Mechanical properties :
#
#
# Convention : Reuss Voigt Hill
#
# Bulk Modulus (GPa) = 54.60681 61.25097 57.92889
# Shear Modulus (GPa) = 30.56350 38.39663 34.48007
#
# Velocity S-wave (km/s) = 3.65122 4.09245 3.87811
# Velocity P-wave (km/s) = 6.44934 7.00341 6.73208
#
# Compressibility (1/GPa) = 0.01831274
#
# Stress axis : x y z
#
# Youngs Moduli (GPa) = 129.84894 72.27698 125.60732
#
# Poissons Ratio (x) = 0.23404 0.23045
# Poissons Ratio (y) = 0.42046 0.06532
# Poissons Ratio (z) = 0.23823 0.03758
#
# Static dielectric constant tensor:
#      x y z
#    x 2.093540 0.000000 0.000000 
#    y 0.000000 1.847900 0.000000 
#    z 0.000000 0.000000 1.939100 
# 
# From -- ./inp_files/51195.got.cif
#   From: 2010.05.17/outbox.cif.g08.bks.cpg/sg72_26_cif.got.tgz:51195.got - 2010.06.03 17:03:01.
