data_PCOD9527489
_publ_section_title
;
Structure prediction by ZEFSAII (Michael W. Deem and Ramdas Pophale) SiO2 
 PCOD9527489
Probable space group: I B A M
;
_chemical_formula_sum "Si O2"
_cell_formula_units_Z 72
_cell_length_a 25.145526
_cell_length_b 15.021971
_cell_length_c 7.486351
_cell_angle_alpha 90.000000
_cell_angle_beta 90.000000
_cell_angle_gamma 90.000000
_cell_volume 2827.859508
_symmetry_space_group_name_H-M "I B A M"
_symmetry_group_IT_number 72
_symmetry_cell_setting 'orthorhombic'
loop_
_space_group_symop_operation_xyz
x,y,z
-x,-y,z
x,-y,1/2-z
-x,y,1/2-z
-x,-y,-z
x,y,-z
-x,y,1/2+z
x,-y,1/2+z
1/2+x,1/2+y,1/2+z
1/2-x,1/2-y,1/2+z
1/2+x,1/2-y,-z
1/2-x,1/2+y,-z
1/2-x,1/2-y,1/2-z
1/2+x,1/2+y,1/2-z
1/2-x,1/2+y,z
1/2+x,1/2-y,z
loop_
_atom_site_type_symbol
_atom_site_label
_atom_site_fract_x
_atom_site_fract_y
_atom_site_fract_z
Si Si1 0.558232 0.357552 0.212368
Si Si2 0.674572 0.102032 0.786144
Si Si3 0.057695 0.346505 0.787788
Si Si4 0.673608 0.400116 0.301768
Si Si5 0.256794 0.674142 0.000000
O O1 0.500000 0.395933 0.250000
O O2 0.556905 0.255199 0.279720
O O3 0.609823 0.400325 0.298696
O O4 0.566234 0.358980 0.000000
O O5 0.680105 0.878334 0.500000
O O6 0.612730 0.110177 0.729028
O O7 0.711496 0.160303 0.658537
O O8 0.690318 0.000000 0.750000
O O9 0.000000 0.388106 0.750000
O O10 0.061236 0.342141 0.000000
O O11 0.691035 0.500000 0.250000
O O12 0.693121 0.377803 0.500000
O O13 0.696411 0.334785 0.154832
#
# Coordination Sequence:
#
# PCOD9527489 Si02
#       5
#    16  16  16  16   8
#     4  10  20  41  65  93 126 163 201 255 313 369
#     4  11  23  39  63  94 122 165 209 256 304 366
#     4   9  21  39  65  91 126 162 203 254 314 370
#     4  12  24  40  65  94 122 164 207 255 303 367
#     4  12  24  42  64  86 132 162 214 244 318 354
#
# _framework density 25.460953
#
# number of rings (size 3 to 8) (size 9 to 14) (size 15 to 20)
#    0.000    1.333    3.333    2.000    1.556    1.778 
#    0.000    5.556    0.000    0.000    0.000    0.000 
#    0.000    0.000    0.000    0.000    0.000    0.000 
#
# Total GULP energy -200628.254487 kJ/mol
# GULP energy per Si atom -5573.007069 kJ/mol
# Density = 2.540300 g / cm^3
# Si number density = 25.460953 Si / 1000 Ang^3
#
#
#
# Elastic Constant Matrix: (Units=GPa)
#
#
# Indices 1 2 3 4 5 6 
#
# 1 230.8743 9.5080 33.6007 0.0000 0.0000 0.0000
# 2 9.5080 76.2422 15.3721 0.0000 0.0000 0.0000
# 3 33.6007 15.3721 209.3639 0.0000 0.0000 0.0000
# 4 0.0000 0.0000 0.0000 11.9495 0.0000 0.0000
# 5 0.0000 0.0000 0.0000 0.0000 49.6602 0.0000
# 6 0.0000 0.0000 0.0000 0.0000 0.0000 -187.9954
#
#
#
# Elastic Compliance Matrix: (Units=1/GPa)
#
#
# Indices 1 2 3 4 5 6 
#
# 1 0.004448 -0.000417 -0.000683 0.000000 0.000000 0.000000
# 2 -0.000417 0.013352 -0.000913 0.000000 0.000000 0.000000
# 3 -0.000683 -0.000913 0.004953 0.000000 0.000000 0.000000
# 4 0.000000 0.000000 0.000000 0.083686 0.000000 0.000000
# 5 0.000000 0.000000 0.000000 0.000000 0.020137 0.000000
# 6 0.000000 0.000000 0.000000 0.000000 0.000000 -0.005319
#
#
# Mechanical properties :
#
#
# Convention : Reuss Voigt Hill
#
# Bulk Modulus (GPa) = 53.40148 70.38244 61.89196
# Shear Modulus (GPa) = 38.01538 5.25616 21.63577
#
# Velocity S-wave (km/s) = 3.86824 1.43836 2.91823
# Velocity P-wave (km/s) = 6.40081 5.51922 5.97630
#
# Compressibility (1/GPa) = 0.01872607
#
# Stress axis : x y z
#
# Youngs Moduli (GPa) = 224.82171 74.89367 201.89407
#
# Poissons Ratio (x) = 0.03123 0.13794
# Poissons Ratio (y) = 0.09374 0.18442
# Poissons Ratio (z) = 0.15361 0.06841
#
# Static dielectric constant tensor:
#      x y z
#    x 2.002270 0.000000 0.000000 
#    y 0.000000 2.071280 0.000000 
#    z 0.000000 0.000000 1.991910 
# 
# From -- ./inp_files/4584.got.cif
#   From: 2010.05.17/outbox.cif.g08.bks.cpg/sg72_3_cif.got.tgz:4584.got - 2010.06.03 17:03:01.
