data_PCOD9527332
_publ_section_title
;
Structure prediction by ZEFSAII (Michael W. Deem and Ramdas Pophale) SiO2 
 PCOD9527332
Probable space group: I B A M
;
_chemical_formula_sum "Si O2"
_cell_formula_units_Z 112
_cell_length_a 32.531725
_cell_length_b 10.604484
_cell_length_c 15.291197
_cell_angle_alpha 90.000000
_cell_angle_beta 90.000000
_cell_angle_gamma 90.000000
_cell_volume 5275.190128
_symmetry_space_group_name_H-M "I B A M"
_symmetry_group_IT_number 72
_symmetry_cell_setting 'orthorhombic'
loop_
_space_group_symop_operation_xyz
x,y,z
-x,-y,z
x,-y,1/2-z
-x,y,1/2-z
-x,-y,-z
x,y,-z
-x,y,1/2+z
x,-y,1/2+z
1/2+x,1/2+y,1/2+z
1/2-x,1/2-y,1/2+z
1/2+x,1/2-y,-z
1/2-x,1/2+y,-z
1/2-x,1/2-y,1/2-z
1/2+x,1/2+y,1/2-z
1/2-x,1/2+y,z
1/2+x,1/2-y,z
loop_
_atom_site_type_symbol
_atom_site_label
_atom_site_fract_x
_atom_site_fract_y
_atom_site_fract_z
Si Si1 0.426752 0.222506 0.102265
Si Si2 0.287878 0.053818 0.899451
Si Si3 0.147134 0.782460 0.603272
Si Si4 0.085887 0.863635 0.726797
Si Si5 0.514100 0.353344 0.099808
Si Si6 0.740000 0.210851 0.848013
Si Si7 0.122174 0.488798 0.894823
O O1 0.405032 0.296478 0.181407
O O2 0.473769 0.266731 0.106838
O O3 0.416164 0.077521 0.123660
O O4 0.413497 0.246234 0.000000
O O5 0.270907 0.195468 0.897926
O O6 0.334446 0.048277 0.863176
O O7 0.260586 0.941393 0.857010
O O8 0.289713 0.012017 0.000000
O O9 0.142052 0.806133 0.500000
O O10 0.125758 0.882529 0.665593
O O11 0.194541 0.754653 0.622785
O O12 0.123018 0.655357 0.633097
O O13 0.048627 0.810639 0.667862
O O14 0.069409 0.000000 0.750000
O O15 0.500000 0.500000 0.110923
O O16 0.530383 0.344129 0.000000
O O17 0.750000 0.250000 0.750000
O O18 0.124478 0.483068 0.000000
#
# Coordination Sequence:
#
# PCOD9527332 Si02
#       7
#    16  16  16  16  16  16  16
#     4  10  21  37  61  92 122 157 209 264 317 377
#     4  10  20  39  65  88 122 166 210 257 320 388
#     4  10  23  44  64  87 128 172 212 262 327 386
#     4  12  24  36  61  92 128 167 216 258 315 389
#     4  10  20  38  62  88 125 169 208 259 324 380
#     4  11  23  39  63  93 126 164 213 267 324 385
#     4   8  18  39  64  87 117 161 206 255 317 381
#
# _framework density 21.231460999999999
#
# number of rings (size 3 to 8) (size 9 to 14) (size 15 to 20)
#    0.000    1.857    1.429    3.429    2.000    2.286 
#    0.000    0.714    0.000    5.143    0.000    0.000 
#    0.000    0.000    0.000    0.000    0.000    0.000 
#
# Total GULP energy -312064.243599 kJ/mol
# GULP energy per Si atom -5572.575779 kJ/mol
# Density = 2.118314 g / cm^3
# Si number density = 21.231461 Si / 1000 Ang^3
#
#
#
# Elastic Constant Matrix: (Units=GPa)
#
#
# Indices 1 2 3 4 5 6 
#
# 1 54.3760 20.0535 11.1745 0.0000 0.0000 0.0000
# 2 20.0535 44.9028 -1.2988 0.0000 0.0000 0.0000
# 3 11.1745 -1.2988 104.7371 0.0000 0.0000 0.0000
# 4 0.0000 0.0000 0.0000 23.2468 0.0000 0.0000
# 5 0.0000 0.0000 0.0000 0.0000 21.7680 0.0000
# 6 0.0000 0.0000 0.0000 0.0000 0.0000 35.6801
#
#
#
# Elastic Compliance Matrix: (Units=1/GPa)
#
#
# Indices 1 2 3 4 5 6 
#
# 1 0.022676 -0.010200 -0.002546 0.000000 0.000000 0.000000
# 2 -0.010200 0.026867 0.001421 0.000000 0.000000 0.000000
# 3 -0.002546 0.001421 0.009837 0.000000 0.000000 0.000000
# 4 0.000000 0.000000 0.000000 0.043017 0.000000 0.000000
# 5 0.000000 0.000000 0.000000 0.000000 0.045939 0.000000
# 6 0.000000 0.000000 0.000000 0.000000 0.000000 0.028027
#
#
# Mechanical properties :
#
#
# Convention : Reuss Voigt Hill
#
# Bulk Modulus (GPa) = 27.22582 29.31939 28.27260
# Shear Modulus (GPa) = 23.66809 27.74474 25.70641
#
# Velocity S-wave (km/s) = 3.34243 3.61886 3.48339
# Velocity P-wave (km/s) = 5.26754 5.59472 5.43359
#
# Compressibility (1/GPa) = 0.03672984
#
# Stress axis : x y z
#
# Youngs Moduli (GPa) = 44.10043 37.22046 101.65744
#
# Poissons Ratio (x) = 0.37967 0.25880
# Poissons Ratio (y) = 0.44985 -0.14450
# Poissons Ratio (z) = 0.11227 -0.05291
#
# Static dielectric constant tensor:
#      x y z
#    x 1.768690 0.000000 0.000000 
#    y 0.000000 1.802730 0.000000 
#    z 0.000000 0.000000 1.797440 
# 
# From -- ./inp_files/20707.got.cif
#   From: 2010.05.17/outbox.cif.g08.bks.cpg/sg72_11_cif.got.tgz:20707.got - 2010.06.03 17:03:01.
