data_PCOD9527541
_publ_section_title
;
Structure prediction by ZEFSAII (Michael W. Deem and Ramdas Pophale) SiO2 
 PCOD9527541
Probable space group: I B A M
;
_chemical_formula_sum "Si O2"
_cell_formula_units_Z 68
_cell_length_a 23.267370
_cell_length_b 14.504670
_cell_length_c 9.525857
_cell_angle_alpha 90.000000
_cell_angle_beta 90.000000
_cell_angle_gamma 90.000000
_cell_volume 3214.838838
_symmetry_space_group_name_H-M "I B A M"
_symmetry_group_IT_number 72
_symmetry_cell_setting 'orthorhombic'
loop_
_space_group_symop_operation_xyz
x,y,z
-x,-y,z
x,-y,1/2-z
-x,y,1/2-z
-x,-y,-z
x,y,-z
-x,y,1/2+z
x,-y,1/2+z
1/2+x,1/2+y,1/2+z
1/2-x,1/2-y,1/2+z
1/2+x,1/2-y,-z
1/2-x,1/2+y,-z
1/2-x,1/2-y,1/2-z
1/2+x,1/2+y,1/2-z
1/2-x,1/2+y,z
1/2+x,1/2-y,z
loop_
_atom_site_type_symbol
_atom_site_label
_atom_site_fract_x
_atom_site_fract_y
_atom_site_fract_z
Si Si1 0.943212 0.350864 0.164318
Si Si2 0.591142 0.363814 0.653928
Si Si3 0.807232 0.153160 0.666393
Si Si4 0.682285 0.847369 0.169038
Si Si5 0.000000 0.000000 0.750000
O O1 0.933234 0.239770 0.177934
O O2 0.879938 0.389000 0.208459
O O3 0.000000 0.377693 0.250000
O O4 0.952374 0.371561 0.000000
O O5 0.619155 0.364265 0.500000
O O6 0.636707 0.393852 0.770990
O O7 0.539082 0.433476 0.658603
O O8 0.812193 0.166617 0.500000
O O9 0.744840 0.107961 0.694486
O O10 0.811325 0.251227 0.747467
O O11 0.678955 0.832089 0.000000
#
# Coordination Sequence:
#
# PCOD9527541 Si02
#       5
#    16  16  16  16   4
#     4   9  16  27  40  58  83 109 137 172 210 251
#     4  10  21  33  44  58  80 107 144 189 223 253
#     4   9  16  27  44  61  77 102 137 175 217 261
#     4   8  15  27  41  59  82 106 134 171 212 256
#     4  12  22  36  48  58  78 120 158 186 222 258
#
# _framework density 21.151916
#
# number of rings (size 3 to 8) (size 9 to 14) (size 15 to 20)
#    0.000    2.824    1.176    2.471    0.000    6.588 
#    0.000    0.000    0.000    0.000    0.000    0.000 
#    0.000    0.000    0.000    1.059    0.000   17.647 
#
# Total GULP energy -189281.945120 kJ/mol
# GULP energy per Si atom -5567.116033 kJ/mol
# Density = 2.110377 g / cm^3
# Si number density = 21.151916 Si / 1000 Ang^3
#
#
#
# Elastic Constant Matrix: (Units=GPa)
#
#
# Indices 1 2 3 4 5 6 
#
# 1 194.9649 -1.9028 61.8747 0.0000 0.0000 0.0000
# 2 -1.9028 38.5251 3.8992 0.0000 0.0000 0.0000
# 3 61.8747 3.8992 56.5516 0.0000 0.0000 0.0000
# 4 0.0000 0.0000 0.0000 -2.4155 0.0000 0.0000
# 5 0.0000 0.0000 0.0000 0.0000 36.5298 0.0000
# 6 0.0000 0.0000 0.0000 0.0000 0.0000 -0.6429
#
#
#
# Elastic Compliance Matrix: (Units=1/GPa)
#
#
# Indices 1 2 3 4 5 6 
#
# 1 0.007919 0.001277 -0.008753 0.000000 0.000000 0.000000
# 2 0.001277 0.026345 -0.003214 0.000000 0.000000 0.000000
# 3 -0.008753 -0.003214 0.027481 0.000000 0.000000 0.000000
# 4 0.000000 0.000000 0.000000 -0.413995 0.000000 0.000000
# 5 0.000000 0.000000 0.000000 0.000000 0.027375 0.000000
# 6 0.000000 0.000000 0.000000 0.000000 0.000000 -1.555548
#
#
# Mechanical properties :
#
#
# Convention : Reuss Voigt Hill
#
# Bulk Modulus (GPa) = 24.77274 46.42045 35.59660
# Shear Modulus (GPa) = -2.70917 21.77232 9.53158
#
# Velocity S-wave (km/s) = -1.13296 3.21180 2.12510
# Velocity P-wave (km/s) = 3.16635 5.97897 4.78403
#
# Compressibility (1/GPa) = 0.04036695
#
# Stress axis : x y z
#
# Youngs Moduli (GPa) = 126.27124 37.95724 36.38821
#
# Poissons Ratio (x) = -0.04847 0.31850
# Poissons Ratio (y) = -0.16126 0.11694
# Poissons Ratio (z) = 1.10525 0.12199
#
# Static dielectric constant tensor:
#      x y z
#    x 1.861170 0.000000 0.000000 
#    y 0.000000 1.788030 0.000000 
#    z 0.000000 0.000000 1.743900 
# 
# From -- ./inp_files/6722.got.cif
#   From: 2010.05.17/outbox.cif.g08.bks.cpg/sg72_4_cif.got.tgz:6722.got - 2010.06.03 17:03:01.
