data_PCOD9527794
_publ_section_title
;
Structure prediction by ZEFSAII (Michael W. Deem and Ramdas Pophale) SiO2 
 PCOD9527794
Probable space group: I B A M
;
_chemical_formula_sum "Si O2"
_cell_formula_units_Z 112
_cell_length_a 15.616065
_cell_length_b 13.795124
_cell_length_c 24.488124
_cell_angle_alpha 90.000000
_cell_angle_beta 90.000000
_cell_angle_gamma 90.000000
_cell_volume 5275.367656
_symmetry_space_group_name_H-M "I B A M"
_symmetry_group_IT_number 72
_symmetry_cell_setting 'orthorhombic'
loop_
_space_group_symop_operation_xyz
x,y,z
-x,-y,z
x,-y,1/2-z
-x,y,1/2-z
-x,-y,-z
x,y,-z
-x,y,1/2+z
x,-y,1/2+z
1/2+x,1/2+y,1/2+z
1/2-x,1/2-y,1/2+z
1/2+x,1/2-y,-z
1/2-x,1/2+y,-z
1/2-x,1/2-y,1/2-z
1/2+x,1/2+y,1/2-z
1/2-x,1/2+y,z
1/2+x,1/2-y,z
loop_
_atom_site_type_symbol
_atom_site_label
_atom_site_fract_x
_atom_site_fract_y
_atom_site_fract_z
Si Si1 0.832106 0.242423 0.824022
Si Si2 0.746353 0.470661 0.563485
Si Si3 0.838054 0.311702 0.366019
Si Si4 0.132991 0.656785 0.061112
Si Si5 0.578217 0.567941 0.126187
Si Si6 0.973500 0.775431 0.938524
Si Si7 0.099519 0.396255 0.237516
O O1 0.731183 0.225732 0.822483
O O2 0.839950 0.287309 0.884781
O O3 0.884074 0.141165 0.827977
O O4 0.865008 0.314470 0.778265
O O5 0.723393 0.458784 0.500000
O O6 0.789174 0.374944 0.588910
O O7 0.819138 0.554047 0.566179
O O8 0.659702 0.486348 0.598873
O O9 0.896340 0.234296 0.396373
O O10 0.895032 0.377429 0.326876
O O11 0.030174 0.675759 0.062284
O O12 0.157794 0.694335 0.000000
O O13 0.500000 0.500000 0.144637
O O14 0.535945 0.638330 0.080273
O O15 0.942887 0.791291 0.000000
O O16 0.141897 0.500000 0.250000
O O17 0.000000 0.400810 0.250000
#
# Coordination Sequence:
#
# PCOD9527794 Si02
#       7
#    16  16  16  16  16  16  16
#     4  10  22  41  63  91 129 159 213 267 317 390
#     4  10  21  37  59  92 131 167 213 267 319 387
#     4  11  23  38  62  90 123 166 205 261 329 386
#     4   9  19  36  58  88 126 165 205 260 317 376
#     4  10  22  39  60  90 129 173 216 256 313 393
#     4  10  21  37  59  90 127 167 210 258 318 391
#     4  11  23  42  68  90 116 158 210 270 331 388
#
# _framework density 21.230747000000001
#
# number of rings (size 3 to 8) (size 9 to 14) (size 15 to 20)
#    0.000    1.857    0.000    3.857    2.000    6.857 
#    0.000    2.143    0.000    0.857    0.000    0.000 
#    0.000    0.000    0.000    0.000    0.000    0.000 
#
# Total GULP energy -312188.450769 kJ/mol
# GULP energy per Si atom -5574.793764 kJ/mol
# Density = 2.118242 g / cm^3
# Si number density = 21.230747 Si / 1000 Ang^3
#
#
#
# Elastic Constant Matrix: (Units=GPa)
#
#
# Indices 1 2 3 4 5 6 
#
# 1 82.9808 33.0873 15.9902 0.0000 0.0000 0.0000
# 2 33.0873 73.6313 29.5670 0.0000 0.0000 0.0000
# 3 15.9902 29.5670 70.0250 0.0000 0.0000 0.0000
# 4 0.0000 0.0000 0.0000 20.8854 0.0000 0.0000
# 5 0.0000 0.0000 0.0000 0.0000 5.1324 0.0000
# 6 0.0000 0.0000 0.0000 0.0000 0.0000 41.1345
#
#
#
# Elastic Compliance Matrix: (Units=1/GPa)
#
#
# Indices 1 2 3 4 5 6 
#
# 1 0.014709 -0.006335 -0.000684 0.000000 0.000000 0.000000
# 2 -0.006335 0.019082 -0.006611 0.000000 0.000000 0.000000
# 3 -0.000684 -0.006611 0.017228 0.000000 0.000000 0.000000
# 4 0.000000 0.000000 0.000000 0.047880 0.000000 0.000000
# 5 0.000000 0.000000 0.000000 0.000000 0.194841 0.000000
# 6 0.000000 0.000000 0.000000 0.000000 0.000000 0.024310
#
#
# Mechanical properties :
#
#
# Convention : Reuss Voigt Hill
#
# Bulk Modulus (GPa) = 42.08733 42.65848 42.37291
# Shear Modulus (GPa) = 14.15507 23.29664 18.72586
#
# Velocity S-wave (km/s) = 2.58490 3.31616 2.97310
# Velocity P-wave (km/s) = 5.36431 5.89906 5.63803
#
# Compressibility (1/GPa) = 0.02376012
#
# Stress axis : x y z
#
# Youngs Moduli (GPa) = 67.98686 52.40424 58.04488
#
# Poissons Ratio (x) = 0.33198 0.03970
# Poissons Ratio (y) = 0.43069 0.38372
# Poissons Ratio (z) = 0.04650 0.34643
#
# Static dielectric constant tensor:
#      x y z
#    x 1.849610 0.000000 0.000000 
#    y 0.000000 1.895240 0.000000 
#    z 0.000000 0.000000 1.693180 
# 
# From -- ./inp_files/44353.got.cif
#   From: 2010.05.17/outbox.cif.g08.bks.cpg/sg72_23_cif.got.tgz:44353.got - 2010.06.03 17:03:01.
