data_PCOD9527348
_publ_section_title
;
Structure prediction by ZEFSAII (Michael W. Deem and Ramdas Pophale) SiO2 
 PCOD9527348
Probable space group: I B A M
;
_chemical_formula_sum "Si O2"
_cell_formula_units_Z 88
_cell_length_a 10.417364
_cell_length_b 19.924988
_cell_length_c 17.189615
_cell_angle_alpha 90.000000
_cell_angle_beta 90.000000
_cell_angle_gamma 90.000000
_cell_volume 3567.977095
_symmetry_space_group_name_H-M "I B A M"
_symmetry_group_IT_number 72
_symmetry_cell_setting 'orthorhombic'
loop_
_space_group_symop_operation_xyz
x,y,z
-x,-y,z
x,-y,1/2-z
-x,y,1/2-z
-x,-y,-z
x,y,-z
-x,y,1/2+z
x,-y,1/2+z
1/2+x,1/2+y,1/2+z
1/2-x,1/2-y,1/2+z
1/2+x,1/2-y,-z
1/2-x,1/2+y,-z
1/2-x,1/2-y,1/2-z
1/2+x,1/2+y,1/2-z
1/2-x,1/2+y,z
1/2+x,1/2-y,z
loop_
_atom_site_type_symbol
_atom_site_label
_atom_site_fract_x
_atom_site_fract_y
_atom_site_fract_z
Si Si1 0.831396 0.372132 0.880346
Si Si2 0.500000 0.377351 0.250000
Si Si3 0.452748 0.370698 0.584705
Si Si4 0.652807 0.987194 0.336233
Si Si5 0.558441 0.224731 0.915309
Si Si6 0.720348 0.154491 0.204718
O O1 0.695941 0.347843 0.911587
O O2 0.813339 0.452215 0.892726
O O3 0.847431 0.360472 0.787280
O O4 0.952502 0.334257 0.913747
O O5 0.477052 0.410912 0.335019
O O6 0.632538 0.339065 0.268352
O O7 0.482545 0.400492 0.500000
O O8 0.514704 0.296309 0.590391
O O9 0.500000 0.000000 0.330620
O O10 0.710310 0.000000 0.250000
O O11 0.696848 0.911462 0.349868
O O12 0.654420 0.212932 0.843552
O O13 0.622585 0.221359 0.000000
#
# Coordination Sequence:
#
# PCOD9527348 Si02
#       6
#    16   8  16  16  16  16
#     4  10  20  38  63  89 118 161 207 263 322 374
#     4  10  24  40  65  92 122 179 210 254 314 388
#     4  10  24  41  59  88 127 169 216 265 315 379
#     4   9  16  33  61  91 117 151 200 261 318 369
#     4  11  23  36  58  88 124 164 205 264 322 373
#     4  10  21  38  60  92 121 158 209 257 311 383
#
# _framework density 24.663836
#
# number of rings (size 3 to 8) (size 9 to 14) (size 15 to 20)
#    0.000    2.000    1.818    1.091    5.091    2.182 
#    0.000   14.091    0.000    1.091    0.000    0.000 
#    0.000    0.000    0.000    0.000    0.000    0.000 
#
# Total GULP energy -245159.060344 kJ/mol
# GULP energy per Si atom -5571.796826 kJ/mol
# Density = 2.460770 g / cm^3
# Si number density = 24.663836 Si / 1000 Ang^3
#
#
#
# Elastic Constant Matrix: (Units=GPa)
#
#
# Indices 1 2 3 4 5 6 
#
# 1 68.4735 1.2549 21.1098 0.0000 0.0000 0.0000
# 2 1.2549 92.4732 17.3969 0.0000 0.0000 0.0000
# 3 21.1098 17.3969 169.8143 0.0000 0.0000 0.0000
# 4 0.0000 0.0000 0.0000 8.1565 0.0000 0.0000
# 5 0.0000 0.0000 0.0000 0.0000 19.2076 0.0000
# 6 0.0000 0.0000 0.0000 0.0000 0.0000 11.8338
#
#
#
# Elastic Compliance Matrix: (Units=1/GPa)
#
#
# Indices 1 2 3 4 5 6 
#
# 1 0.015188 0.000152 -0.001904 0.000000 0.000000 0.000000
# 2 0.000152 0.011028 -0.001149 0.000000 0.000000 0.000000
# 3 -0.001904 -0.001149 0.006243 0.000000 0.000000 0.000000
# 4 0.000000 0.000000 0.000000 0.122601 0.000000 0.000000
# 5 0.000000 0.000000 0.000000 0.000000 0.052063 0.000000
# 6 0.000000 0.000000 0.000000 0.000000 0.000000 0.084504
#
#
# Mechanical properties :
#
#
# Convention : Reuss Voigt Hill
#
# Bulk Modulus (GPa) = 37.51111 45.58712 41.54911
# Shear Modulus (GPa) = 16.32314 27.23955 21.78134
#
# Velocity S-wave (km/s) = 2.57539 3.32691 2.97497
# Velocity P-wave (km/s) = 4.90769 5.76899 5.35568
#
# Compressibility (1/GPa) = 0.02665877
#
# Stress axis : x y z
#
# Youngs Moduli (GPa) = 65.84023 90.67841 160.17661
#
# Poissons Ratio (x) = -0.01378 0.30492
# Poissons Ratio (y) = -0.01001 0.18399
# Poissons Ratio (z) = 0.12534 0.10416
#
# Static dielectric constant tensor:
#      x y z
#    x 2.048740 0.000000 0.000000 
#    y 0.000000 2.104690 0.000000 
#    z 0.000000 0.000000 1.997360 
# 
# From -- ./inp_files/20312.got.cif
#   From: 2010.05.17/outbox.cif.g08.bks.cpg/sg72_11_cif.got.tgz:20312.got - 2010.06.03 17:03:01.
