data_PCOD9527171
_publ_section_title
;
Structure prediction by ZEFSAII (Michael W. Deem and Ramdas Pophale) SiO2 
 PCOD9527171
Probable space group: I B A M
;
_chemical_formula_sum "Si O2"
_cell_formula_units_Z 68
_cell_length_a 11.361872
_cell_length_b 20.654298
_cell_length_c 14.146665
_cell_angle_alpha 90.000000
_cell_angle_beta 90.000000
_cell_angle_gamma 90.000000
_cell_volume 3319.818956
_symmetry_space_group_name_H-M "I B A M"
_symmetry_group_IT_number 72
_symmetry_cell_setting 'orthorhombic'
loop_
_space_group_symop_operation_xyz
x,y,z
-x,-y,z
x,-y,1/2-z
-x,y,1/2-z
-x,-y,-z
x,y,-z
-x,y,1/2+z
x,-y,1/2+z
1/2+x,1/2+y,1/2+z
1/2-x,1/2-y,1/2+z
1/2+x,1/2-y,-z
1/2-x,1/2+y,-z
1/2-x,1/2-y,1/2-z
1/2+x,1/2+y,1/2-z
1/2-x,1/2+y,z
1/2+x,1/2-y,z
loop_
_atom_site_type_symbol
_atom_site_label
_atom_site_fract_x
_atom_site_fract_y
_atom_site_fract_z
Si Si1 0.804952 0.228351 0.387780
Si Si2 0.455025 0.786519 0.608689
Si Si3 0.940130 0.436626 0.147286
Si Si4 0.500000 0.500000 0.750000
Si Si5 0.827571 0.074191 0.388722
O O1 0.798113 0.244678 0.500000
O O2 0.670989 0.238046 0.350952
O O3 0.829165 0.151886 0.380779
O O4 0.920100 0.264729 0.348651
O O5 0.456456 0.762888 0.500000
O O6 0.453922 0.864669 0.605834
O O7 0.801106 0.448635 0.144871
O O8 0.000000 0.500000 0.102694
O O9 0.000000 0.431592 0.250000
O O10 0.421711 0.543401 0.819484
O O11 0.843717 0.057836 0.500000
#
# Coordination Sequence:
#
# PCOD9527171 Si02
#       5
#    16  16  16   4  16
#     4   8  16  34  56  81 113 153 196 242 300 358
#     4   9  17  33  56  81 112 153 199 245 295 356
#     4  10  20  37  57  85 120 154 196 248 300 358
#     4  12  22  40  62  90 116 156 216 242 288 378
#     4  10  22  41  62  85 124 163 193 250 311 351
#
# _framework density 20.483046000000002
#
# number of rings (size 3 to 8) (size 9 to 14) (size 15 to 20)
#    0.000    2.588    0.000    3.882    0.000    1.882 
#   10.588    2.353    0.000    0.000    0.000    0.000 
#    0.000    0.000    0.000    0.000    0.000    0.000 
#
# Total GULP energy -189471.421533 kJ/mol
# GULP energy per Si atom -5572.688869 kJ/mol
# Density = 2.043643 g / cm^3
# Si number density = 20.483046 Si / 1000 Ang^3
#
#
#
# Elastic Constant Matrix: (Units=GPa)
#
#
# Indices 1 2 3 4 5 6 
#
# 1 227.7398 75.8270 67.9333 0.0000 0.0000 0.0000
# 2 75.8270 50.9821 2.0769 -0.0001 0.0000 0.0001
# 3 67.9333 2.0769 109.7216 -0.0001 0.0000 0.0001
# 4 0.0000 -0.0001 -0.0001 21.4999 0.0000 0.0001
# 5 0.0000 0.0000 0.0000 0.0000 0.8848 0.0000
# 6 0.0000 0.0001 0.0001 0.0001 0.0000 249.1497
#
#
#
# Elastic Compliance Matrix: (Units=1/GPa)
#
#
# Indices 1 2 3 4 5 6 
#
# 1 0.013053 -0.019100 -0.007720 0.000000 -0.000001 0.000000
# 2 -0.019100 0.047578 0.010925 0.000000 0.000002 0.000000
# 3 -0.007720 0.010925 0.013687 0.000000 0.000001 0.000000
# 4 0.000000 0.000000 0.000000 0.046512 0.000002 0.000000
# 5 -0.000001 0.000002 0.000001 0.000002 1.130187 0.000000
# 6 0.000000 0.000000 0.000000 0.000000 0.000000 0.004014
#
#
# Mechanical properties :
#
#
# Convention : Reuss Voigt Hill
#
# Bulk Modulus (GPa) = 23.51409 75.56865 49.54137
# Shear Modulus (GPa) = 3.84321 70.48064 37.16192
#
# Velocity S-wave (km/s) = 1.37126 5.87230 4.26405
# Velocity P-wave (km/s) = 3.74324 9.10780 6.96290
#
# Compressibility (1/GPa) = 0.04252769
#
# Stress axis : x y z
#
# Youngs Moduli (GPa) = 76.60830 21.01815 73.06097
#
# Poissons Ratio (x) = 0.40145 0.56406
# Poissons Ratio (y) = 1.46323 -0.79820
# Poissons Ratio (z) = 0.59145 -0.22963
#
# Static dielectric constant tensor:
#      x y z
#    x 1.771390 0.000000 0.000000 
#    y 0.000000 1.692550 0.000000 
#    z 0.000000 0.000000 1.780380 
# 
# From -- ./inp_files/19929.got.cif
#   From: 2010.05.17/outbox.cif.g08.bks.cpg/sg72_10_cif.got.tgz:19929.got - 2010.06.03 17:03:01.
