data_PCOD9527422
_publ_section_title
;
Structure prediction by ZEFSAII (Michael W. Deem and Ramdas Pophale) SiO2 
 PCOD9527422
Probable space group: I B A M
;
_chemical_formula_sum "Si O2"
_cell_formula_units_Z 52
_cell_length_a 7.476786
_cell_length_b 19.949215
_cell_length_c 13.462949
_cell_angle_alpha 90.000000
_cell_angle_beta 90.000000
_cell_angle_gamma 90.000000
_cell_volume 2008.079775
_symmetry_space_group_name_H-M "I B A M"
_symmetry_group_IT_number 72
_symmetry_cell_setting 'orthorhombic'
loop_
_space_group_symop_operation_xyz
x,y,z
-x,-y,z
x,-y,1/2-z
-x,y,1/2-z
-x,-y,-z
x,y,-z
-x,y,1/2+z
x,-y,1/2+z
1/2+x,1/2+y,1/2+z
1/2-x,1/2-y,1/2+z
1/2+x,1/2-y,-z
1/2-x,1/2+y,-z
1/2-x,1/2-y,1/2-z
1/2+x,1/2+y,1/2-z
1/2-x,1/2+y,z
1/2+x,1/2-y,z
loop_
_atom_site_type_symbol
_atom_site_label
_atom_site_fract_x
_atom_site_fract_y
_atom_site_fract_z
Si Si1 0.500000 0.000000 0.500000
Si Si2 0.795619 0.013428 0.135081
Si Si3 0.332837 0.308170 0.614031
Si Si4 0.743058 0.661495 0.166843
O O1 0.642533 0.027680 0.416322
O O2 0.723768 0.089239 0.119707
O O3 0.799523 0.000000 0.250000
O O4 0.000000 0.000000 0.102047
O O5 0.283836 0.325277 0.500000
O O6 0.229340 0.334669 0.713027
O O7 0.533690 0.330523 0.639112
O O8 0.333666 0.227166 0.622346
#
# Coordination Sequence:
#
# PCOD9527422 Si02
#       4
#     4  16  16  16
#     4  12  28  48  76 116 140 200 256 308 370 442
#     4  11  25  53  76 108 154 197 251 309 373 442
#     4  10  20  39  66 101 137 183 234 299 377 434
#     4  10  23  44  65 104 143 180 246 306 364 451
#
# _framework density 25.895385000000001
#
# number of rings (size 3 to 8) (size 9 to 14) (size 15 to 20)
#    0.000    1.538    0.000    5.538    4.308    0.000 
#   36.000    0.000    0.000    0.000    0.000    0.000 
#    0.000    0.000    0.000    0.000    0.000    0.000 
#
# Total GULP energy -144782.752366 kJ/mol
# GULP energy per Si atom -5568.567399 kJ/mol
# Density = 2.583645 g / cm^3
# Si number density = 25.895385 Si / 1000 Ang^3
#
#
#
# Elastic Constant Matrix: (Units=GPa)
#
#
# Indices 1 2 3 4 5 6 
#
# 1 108.6290 -10.4794 40.9928 0.0000 0.0000 0.0000
# 2 -10.4794 126.1634 4.0671 0.0000 0.0000 0.0000
# 3 40.9928 4.0671 235.4222 0.0001 0.0000 0.0000
# 4 0.0000 0.0000 0.0001 -3.9181 0.0000 0.0000
# 5 0.0000 0.0000 0.0000 0.0000 16.8083 0.0000
# 6 0.0000 0.0000 0.0000 0.0000 0.0000 55.2746
#
#
#
# Elastic Compliance Matrix: (Units=1/GPa)
#
#
# Indices 1 2 3 4 5 6 
#
# 1 0.009950 0.000883 -0.001748 0.000000 0.000000 0.000000
# 2 0.000883 0.008009 -0.000292 0.000000 0.000000 0.000000
# 3 -0.001748 -0.000292 0.004557 0.000000 0.000000 0.000000
# 4 0.000000 0.000000 0.000000 -0.255227 -0.000001 0.000000
# 5 0.000000 0.000000 0.000000 -0.000001 0.059495 0.000000
# 6 0.000000 0.000000 0.000000 0.000000 0.000000 0.018091
#
#
# Mechanical properties :
#
#
# Convention : Reuss Voigt Hill
#
# Bulk Modulus (GPa) = 49.49942 59.93060 54.71501
# Shear Modulus (GPa) = -34.22870 42.67523 4.22327
#
# Velocity S-wave (km/s) = -3.63961 4.06394 1.27845
# Velocity P-wave (km/s) = 1.22241 6.72417 4.83264
#
# Compressibility (1/GPa) = 0.02020226
#
# Stress axis : x y z
#
# Youngs Moduli (GPa) = 100.49850 124.85988 219.43888
#
# Poissons Ratio (x) = -0.11023 0.38355
# Poissons Ratio (y) = -0.08872 0.06409
# Poissons Ratio (z) = 0.17566 0.03647
#
# Static dielectric constant tensor:
#      x y z
#    x 2.088660 0.000000 0.000000 
#    y 0.000000 2.129220 0.000000 
#    z 0.000000 0.000000 2.035250 
# 
# From -- ./inp_files/18298.got.cif
#   From: 2010.05.17/outbox.cif.g08.bks.cpg/sg72_10_cif.got.tgz:18298.got - 2010.06.03 17:03:01.
