data_PCOD9527496
_publ_section_title
;
Structure prediction by ZEFSAII (Michael W. Deem and Ramdas Pophale) SiO2 
 PCOD9527496
Probable space group: I B A M
;
_chemical_formula_sum "Si O2"
_cell_formula_units_Z 84
_cell_length_a 12.081287
_cell_length_b 18.313951
_cell_length_c 18.528999
_cell_angle_alpha 90.000000
_cell_angle_beta 90.000000
_cell_angle_gamma 90.000000
_cell_volume 4099.654021
_symmetry_space_group_name_H-M "I B A M"
_symmetry_group_IT_number 72
_symmetry_cell_setting 'orthorhombic'
loop_
_space_group_symop_operation_xyz
x,y,z
-x,-y,z
x,-y,1/2-z
-x,y,1/2-z
-x,-y,-z
x,y,-z
-x,y,1/2+z
x,-y,1/2+z
1/2+x,1/2+y,1/2+z
1/2-x,1/2-y,1/2+z
1/2+x,1/2-y,-z
1/2-x,1/2+y,-z
1/2-x,1/2-y,1/2-z
1/2+x,1/2+y,1/2-z
1/2-x,1/2+y,z
1/2+x,1/2-y,z
loop_
_atom_site_type_symbol
_atom_site_label
_atom_site_fract_x
_atom_site_fract_y
_atom_site_fract_z
Si Si1 0.316725 0.108257 0.585286
Si Si2 0.000000 0.000000 0.000000
Si Si3 0.083313 0.057073 0.857148
Si Si4 0.670161 0.962921 0.174311
Si Si5 0.482382 0.821992 0.334543
Si Si6 0.075629 0.822651 0.912922
O O1 0.338042 0.112283 0.500000
O O2 0.334700 0.026870 0.615259
O O3 0.400610 0.160244 0.628338
O O4 0.191704 0.136123 0.598497
O O5 0.089798 0.020670 0.063219
O O6 0.020166 0.132438 0.872165
O O7 0.202318 0.063383 0.822069
O O8 0.000000 0.000000 0.820735
O O9 0.408920 0.104968 0.160351
O O10 0.639749 0.000000 0.250000
O O11 0.500000 0.803823 0.250000
O O12 0.424727 0.757422 0.379457
O O13 0.054419 0.825013 0.000000
#
# Coordination Sequence:
#
# PCOD9527496 Si02
#       6
#    16   4  16  16  16  16
#     4  11  25  47  73 102 136 183 240 290 341 418
#     4   8  16  40  66 104 134 176 220 300 352 382
#     4  10  20  41  70 100 135 178 234 286 349 404
#     4  12  26  45  72 100 140 186 235 293 351 410
#     4  12  28  47  69  99 146 193 229 284 357 424
#     4  11  24  46  70 105 147 178 230 298 350 412
#
# _framework density 20.489535
#
# number of rings (size 3 to 8) (size 9 to 14) (size 15 to 20)
#    0.571    0.381    4.762    1.143    6.667    4.952 
#    0.000    0.000    0.000    0.000    0.000    0.000 
#    0.000    0.000    0.000    0.000    0.000    0.000 
#
# Total GULP energy -234170.672795 kJ/mol
# GULP energy per Si atom -5575.492209 kJ/mol
# Density = 2.044290 g / cm^3
# Si number density = 20.489535 Si / 1000 Ang^3
#
#
#
# Elastic Constant Matrix: (Units=GPa)
#
#
# Indices 1 2 3 4 5 6 
#
# 1 78.5022 34.4539 25.8927 0.0000 0.0000 0.0000
# 2 34.4539 117.9685 31.5142 0.0000 0.0000 0.0000
# 3 25.8927 31.5142 85.4794 0.0000 0.0000 0.0000
# 4 0.0000 0.0000 0.0000 28.2519 0.0000 0.0000
# 5 0.0000 0.0000 0.0000 0.0000 10.1809 0.0000
# 6 0.0000 0.0000 0.0000 0.0000 0.0000 33.7162
#
#
#
# Elastic Compliance Matrix: (Units=1/GPa)
#
#
# Indices 1 2 3 4 5 6 
#
# 1 0.015426 -0.003613 -0.003341 0.000000 0.000000 0.000000
# 2 -0.003613 0.010249 -0.002684 0.000000 0.000000 0.000000
# 3 -0.003341 -0.002684 0.013700 0.000000 0.000000 0.000000
# 4 0.000000 0.000000 0.000000 0.035396 0.000000 0.000000
# 5 0.000000 0.000000 0.000000 0.000000 0.098223 0.000000
# 6 0.000000 0.000000 0.000000 0.000000 0.000000 0.029659
#
#
# Mechanical properties :
#
#
# Convention : Reuss Voigt Hill
#
# Bulk Modulus (GPa) = 49.75190 51.74131 50.74661
# Shear Modulus (GPa) = 21.86945 27.10242 24.48594
#
# Velocity S-wave (km/s) = 3.27057 3.64090 3.46069
# Velocity P-wave (km/s) = 6.21261 6.55609 6.38666
#
# Compressibility (1/GPa) = 0.02009973
#
# Stress axis : x y z
#
# Youngs Moduli (GPa) = 64.82534 97.56972 72.99122
#
# Poissons Ratio (x) = 0.35251 0.24385
# Poissons Ratio (y) = 0.23421 0.19592
# Poissons Ratio (z) = 0.21657 0.26190
#
# Static dielectric constant tensor:
#      x y z
#    x 1.704780 0.000000 0.000000 
#    y 0.000000 1.766140 0.000000 
#    z 0.000000 0.000000 1.698760 
# 
# From -- ./inp_files/43439.got.cif
#   From: 2010.05.17/outbox.cif.g08.bks.cpg/sg72_22_cif.got.tgz:43439.got - 2010.06.03 17:03:01.
