data_PCOD9527136
_publ_section_title
;
Structure prediction by ZEFSAII (Michael W. Deem and Ramdas Pophale) SiO2 
 PCOD9527136
Probable space group: I B A M
;
_chemical_formula_sum "Si O2"
_cell_formula_units_Z 116
_cell_length_a 21.182024
_cell_length_b 18.397473
_cell_length_c 15.220517
_cell_angle_alpha 90.000000
_cell_angle_beta 90.000000
_cell_angle_gamma 90.000000
_cell_volume 5931.370249
_symmetry_space_group_name_H-M "I B A M"
_symmetry_group_IT_number 72
_symmetry_cell_setting 'orthorhombic'
loop_
_space_group_symop_operation_xyz
x,y,z
-x,-y,z
x,-y,1/2-z
-x,y,1/2-z
-x,-y,-z
x,y,-z
-x,y,1/2+z
x,-y,1/2+z
1/2+x,1/2+y,1/2+z
1/2-x,1/2-y,1/2+z
1/2+x,1/2-y,-z
1/2-x,1/2+y,-z
1/2-x,1/2-y,1/2-z
1/2+x,1/2+y,1/2-z
1/2-x,1/2+y,z
1/2+x,1/2-y,z
loop_
_atom_site_type_symbol
_atom_site_label
_atom_site_fract_x
_atom_site_fract_y
_atom_site_fract_z
Si Si1 0.630109 0.720881 0.599246
Si Si2 0.105980 0.809815 0.103249
Si Si3 0.094137 0.975256 0.846398
Si Si4 0.070105 0.692194 0.759571
Si Si5 0.300817 0.425380 0.395540
Si Si6 0.187129 0.583962 0.233121
Si Si7 0.749787 0.298384 0.660279
Si Si8 0.500000 0.500000 0.500000
O O1 0.603794 0.719718 0.500000
O O2 0.588812 0.761298 0.672543
O O3 0.650442 0.639834 0.627784
O O4 0.696948 0.763270 0.599709
O O5 0.088452 0.889280 0.139195
O O6 0.072003 0.748072 0.159370
O O7 0.180744 0.798889 0.119649
O O8 0.091522 0.807484 0.000000
O O9 0.074865 0.000000 0.750000
O O10 0.166049 0.001800 0.861081
O O11 0.053416 0.011471 0.922937
O O12 0.124043 0.631992 0.774474
O O13 0.000000 0.661461 0.750000
O O14 0.294139 0.426558 0.500000
O O15 0.234023 0.411202 0.349898
O O16 0.173072 0.500000 0.250000
O O17 0.226796 0.622110 0.311183
O O18 0.750000 0.250000 0.750000
#
# Coordination Sequence:
#
# PCOD9527136 Si02
#       8
#    16  16  16  16  16  16  16   4
#     4  10  20  36  62  92 122 169 209 264 331 393
#     4  12  23  41  65  98 128 174 225 280 333 399
#     4  12  25  42  66  92 140 188 228 279 322 400
#     4  11  25  44  62  88 127 169 225 281 338 405
#     4  11  20  37  63  98 134 165 218 274 333 403
#     4  11  22  39  65  95 126 169 217 272 345 409
#     4  11  18  37  63  94 133 159 209 271 336 400
#     4  12  26  48  52  98 132 192 246 252 336 398
#
# _framework density 19.557032
#
# number of rings (size 3 to 8) (size 9 to 14) (size 15 to 20)
#    0.000    0.828    5.517    3.517    0.000    4.690 
#    0.000    2.759    0.000    0.000    0.000    5.793 
#    0.000    0.000    0.000    0.000    0.000    0.000 
#
# Total GULP energy -323732.304735 kJ/mol
# GULP energy per Si atom -5581.591461 kJ/mol
# Density = 1.951252 g / cm^3
# Si number density = 19.557032 Si / 1000 Ang^3
#
#
#
# Elastic Constant Matrix: (Units=GPa)
#
#
# Indices 1 2 3 4 5 6 
#
# 1 104.3203 19.8597 31.5721 0.0000 0.0000 0.0000
# 2 19.8597 110.2015 34.6808 0.0000 0.0000 0.0000
# 3 31.5721 34.6808 128.0097 0.0000 0.0000 0.0000
# 4 0.0000 0.0000 0.0000 11.3640 0.0000 0.0000
# 5 0.0000 0.0000 0.0000 0.0000 20.8934 0.0000
# 6 0.0000 0.0000 0.0000 0.0000 0.0000 9.2971
#
#
#
# Elastic Compliance Matrix: (Units=1/GPa)
#
#
# Indices 1 2 3 4 5 6 
#
# 1 0.010497 -0.001177 -0.002270 0.000000 0.000000 0.000000
# 2 -0.001177 0.010052 -0.002433 0.000000 0.000000 0.000000
# 3 -0.002270 -0.002433 0.009031 0.000000 0.000000 0.000000
# 4 0.000000 0.000000 0.000000 0.087997 0.000000 0.000000
# 5 0.000000 0.000000 0.000000 0.000000 0.047862 0.000000
# 6 0.000000 0.000000 0.000000 0.000000 0.000000 0.107560
#
#
# Mechanical properties :
#
#
# Convention : Reuss Voigt Hill
#
# Bulk Modulus (GPa) = 56.11847 57.19521 56.65684
# Shear Modulus (GPa) = 17.19989 25.40551 21.30270
#
# Velocity S-wave (km/s) = 2.96881 3.60814 3.30397
# Velocity P-wave (km/s) = 6.36466 6.83133 6.60212
#
# Compressibility (1/GPa) = 0.01781945
#
# Stress axis : x y z
#
# Youngs Moduli (GPa) = 95.26533 99.48151 110.73061
#
# Poissons Ratio (x) = 0.11712 0.25136
# Poissons Ratio (y) = 0.11216 0.26941
# Poissons Ratio (z) = 0.21625 0.24204
#
# Static dielectric constant tensor:
#      x y z
#    x 1.696650 0.000000 0.000000 
#    y 0.000000 1.706710 0.000000 
#    z 0.000000 0.000000 1.685240 
# 
# From -- ./inp_files/25410.got.cif
#   From: 2010.05.17/outbox.cif.g08.bks.cpg/sg72_13_cif.got.tgz:25410.got - 2010.06.03 17:03:01.
