data_PCOD9527053
_publ_section_title
;
Structure prediction by ZEFSAII (Michael W. Deem and Ramdas Pophale) SiO2 
 PCOD9527053
Probable space group: I B A M
;
_chemical_formula_sum "Si O2"
_cell_formula_units_Z 88
_cell_length_a 22.992631
_cell_length_b 10.952099
_cell_length_c 15.463631
_cell_angle_alpha 90.000000
_cell_angle_beta 90.000000
_cell_angle_gamma 90.000000
_cell_volume 3894.013997
_symmetry_space_group_name_H-M "I B A M"
_symmetry_group_IT_number 72
_symmetry_cell_setting 'orthorhombic'
loop_
_space_group_symop_operation_xyz
x,y,z
-x,-y,z
x,-y,1/2-z
-x,y,1/2-z
-x,-y,-z
x,y,-z
-x,y,1/2+z
x,-y,1/2+z
1/2+x,1/2+y,1/2+z
1/2-x,1/2-y,1/2+z
1/2+x,1/2-y,-z
1/2-x,1/2+y,-z
1/2-x,1/2-y,1/2-z
1/2+x,1/2+y,1/2-z
1/2-x,1/2+y,z
1/2+x,1/2-y,z
loop_
_atom_site_type_symbol
_atom_site_label
_atom_site_fract_x
_atom_site_fract_y
_atom_site_fract_z
Si Si1 0.355983 0.134890 0.774352
Si Si2 0.536156 0.882142 0.902678
Si Si3 0.603372 0.500000 0.250000
Si Si4 0.806905 0.010356 0.099003
Si Si5 0.951482 0.240381 0.681426
Si Si6 0.261620 0.763181 0.399330
O O1 0.406771 0.133984 0.846173
O O2 0.390071 0.191388 0.692334
O O3 0.304707 0.206196 0.820602
O O4 0.337027 0.000000 0.750000
O O5 0.489250 0.771463 0.901746
O O6 0.500000 0.000000 0.871759
O O7 0.555079 0.906231 0.000000
O O8 0.645060 0.459382 0.328888
O O9 0.563898 0.395193 0.209179
O O10 0.756231 0.114962 0.106221
O O11 0.786559 0.869868 0.110848
O O12 0.829126 0.020093 0.000000
O O13 0.000000 0.286933 0.750000
O O14 0.282410 0.783120 0.500000
#
# Coordination Sequence:
#
# PCOD9527053 Si02
#       6
#    16  16   8  16  16  16
#     4  11  20  35  61  90 119 160 208 261 310 376
#     4  10  20  36  58  90 129 164 204 259 322 377
#     4  12  23  42  64  92 126 172 211 264 328 382
#     4  10  24  43  66  92 127 165 214 269 321 391
#     4  10  22  38  60  88 124 160 210 257 310 375
#     4  10  22  43  63  89 124 165 211 265 322 383
#
# _framework density 22.598787999999999
#
# number of rings (size 3 to 8) (size 9 to 14) (size 15 to 20)
#    0.000    1.636    3.636    0.818    1.273    2.909 
#    0.000    0.000    0.000    3.273    0.000    0.000 
#    0.000    0.000    0.000    0.000    0.000    0.000 
#
# Total GULP energy -245140.629203 kJ/mol
# GULP energy per Si atom -5571.377936 kJ/mol
# Density = 2.254735 g / cm^3
# Si number density = 22.598788 Si / 1000 Ang^3
#
#
#
# Elastic Constant Matrix: (Units=GPa)
#
#
# Indices 1 2 3 4 5 6 
#
# 1 38.7472 24.7266 24.3584 0.0000 0.0000 0.0000
# 2 24.7266 94.8714 35.6974 0.0000 0.0000 0.0000
# 3 24.3584 35.6974 61.4646 0.0000 0.0000 0.0000
# 4 0.0000 0.0000 0.0000 11.1810 0.0000 0.0000
# 5 0.0000 0.0000 0.0000 0.0000 34.5313 0.0000
# 6 0.0000 0.0000 0.0000 0.0000 0.0000 32.1150
#
#
#
# Elastic Compliance Matrix: (Units=1/GPa)
#
#
# Indices 1 2 3 4 5 6 
#
# 1 0.036253 -0.005173 -0.011362 0.000000 0.000000 0.000000
# 2 -0.005173 0.014226 -0.006212 0.000000 0.000000 0.000000
# 3 -0.011362 -0.006212 0.024380 0.000000 0.000000 0.000000
# 4 0.000000 0.000000 0.000000 0.089437 0.000000 0.000000
# 5 0.000000 0.000000 0.000000 0.000000 0.028959 0.000000
# 6 0.000000 0.000000 0.000000 0.000000 0.000000 0.031138
#
#
# Mechanical properties :
#
#
# Convention : Reuss Voigt Hill
#
# Bulk Modulus (GPa) = 34.05573 40.51641 37.28607
# Shear Modulus (GPa) = 17.87773 22.91886 20.39829
#
# Velocity S-wave (km/s) = 2.81569 3.18805 3.00764
# Velocity P-wave (km/s) = 5.06688 5.61418 5.34753
#
# Compressibility (1/GPa) = 0.02936364
#
# Stress axis : x y z
#
# Youngs Moduli (GPa) = 27.58425 70.29186 41.01661
#
# Poissons Ratio (x) = 0.36364 0.46604
# Poissons Ratio (y) = 0.14270 0.25481
# Poissons Ratio (z) = 0.31342 0.43667
#
# Static dielectric constant tensor:
#      x y z
#    x 1.871950 0.000000 0.000000 
#    y 0.000000 1.902210 0.000000 
#    z 0.000000 0.000000 1.965800 
# 
# From -- ./inp_files/25000.got.cif
#   From: 2010.05.17/outbox.cif.g08.bks.cpg/sg72_13_cif.got.tgz:25000.got - 2010.06.03 17:03:01.
