data_PCOD9527334
_publ_section_title
;
Structure prediction by ZEFSAII (Michael W. Deem and Ramdas Pophale) SiO2 
 PCOD9527334
Probable space group: I B A M
;
_chemical_formula_sum "Si O2"
_cell_formula_units_Z 80
_cell_length_a 7.846761
_cell_length_b 29.501905
_cell_length_c 16.162467
_cell_angle_alpha 90.000000
_cell_angle_beta 90.000000
_cell_angle_gamma 90.000000
_cell_volume 3741.520562
_symmetry_space_group_name_H-M "I B A M"
_symmetry_group_IT_number 72
_symmetry_cell_setting 'orthorhombic'
loop_
_space_group_symop_operation_xyz
x,y,z
-x,-y,z
x,-y,1/2-z
-x,y,1/2-z
-x,-y,-z
x,y,-z
-x,y,1/2+z
x,-y,1/2+z
1/2+x,1/2+y,1/2+z
1/2-x,1/2-y,1/2+z
1/2+x,1/2-y,-z
1/2-x,1/2+y,-z
1/2-x,1/2-y,1/2-z
1/2+x,1/2+y,1/2-z
1/2-x,1/2+y,z
1/2+x,1/2-y,z
loop_
_atom_site_type_symbol
_atom_site_label
_atom_site_fract_x
_atom_site_fract_y
_atom_site_fract_z
Si Si1 0.893805 0.203767 0.836250
Si Si2 0.314869 0.107136 0.157846
Si Si3 0.721963 0.892860 0.338479
Si Si4 0.219264 0.447167 0.000000
Si Si5 0.742108 0.293687 0.905923
Si Si6 0.800667 0.551824 0.500000
O O1 0.775484 0.159763 0.845707
O O2 0.794200 0.250237 0.851961
O O3 0.000000 0.202548 0.750000
O O4 0.038953 0.203227 0.905642
O O5 0.227537 0.094495 0.244602
O O6 0.518056 0.100394 0.161896
O O7 0.298929 0.160228 0.137962
O O8 0.244661 0.078432 0.081691
O O9 0.782254 0.921585 0.417314
O O10 0.259713 0.500246 0.000000
O O11 0.009747 0.446253 0.000000
O O12 0.808208 0.291183 0.000000
#
# Coordination Sequence:
#
# PCOD9527334 Si02
#       6
#    16  16  16   8  16   8
#     4  12  25  41  60  88 127 167 207 255 305 371
#     4  10  20  38  62  89 124 158 206 253 313 367
#     4  10  22  37  60  92 123 163 201 257 310 373
#     4   9  20  36  62  93 124 153 204 259 316 373
#     4  12  25  39  59  90 120 168 206 253 302 371
#     4   9  18  38  62  93 122 155 200 265 316 365
#
# _framework density 21.381682000000001
#
# number of rings (size 3 to 8) (size 9 to 14) (size 15 to 20)
#    0.000    1.400    3.000    2.400    5.600    0.800 
#    0.000    4.000    0.000    2.400    0.000    0.000 
#    0.000    0.000    0.000    0.000    0.000    0.000 
#
# Total GULP energy -223351.297949 kJ/mol
# GULP energy per Si atom -5583.782449 kJ/mol
# Density = 2.133302 g / cm^3
# Si number density = 21.381682 Si / 1000 Ang^3
#
#
#
# Elastic Constant Matrix: (Units=GPa)
#
#
# Indices 1 2 3 4 5 6 
#
# 1 18.2820 -8.3559 13.7810 0.0000 0.0000 0.0000
# 2 -8.3559 154.2015 109.2666 0.0000 0.0000 0.0000
# 3 13.7810 109.2666 209.6961 0.0000 0.0000 0.0000
# 4 0.0000 0.0000 0.0000 0.7449 0.0000 0.0000
# 5 0.0000 0.0000 0.0000 0.0000 -1.8861 0.0000
# 6 0.0000 0.0000 0.0000 0.0000 0.0000 19.7284
#
#
#
# Elastic Compliance Matrix: (Units=1/GPa)
#
#
# Indices 1 2 3 4 5 6 
#
# 1 0.067139 0.010724 -0.010000 0.000000 0.000000 0.000000
# 2 0.010724 0.011994 -0.006955 0.000000 0.000000 0.000000
# 3 -0.010000 -0.006955 0.009050 0.000000 0.000000 0.000000
# 4 0.000000 0.000000 0.000000 1.342482 -0.000019 0.000000
# 5 0.000000 0.000000 0.000000 -0.000019 -0.530200 0.000000
# 6 0.000000 0.000000 0.000000 0.000000 0.000000 0.050688
#
#
# Mechanical properties :
#
#
# Convention : Reuss Voigt Hill
#
# Bulk Modulus (GPa) = 13.20630 67.95144 40.57887
# Shear Modulus (GPa) = 5.05635 21.54997 13.30316
#
# Velocity S-wave (km/s) = 1.53946 3.17814 2.49705
# Velocity P-wave (km/s) = 3.05774 6.73176 5.22812
#
# Compressibility (1/GPa) = 0.07572141
#
# Stress axis : x y z
#
# Youngs Moduli (GPa) = 14.89454 83.37379 110.49876
#
# Poissons Ratio (x) = -0.89414 1.10504
# Poissons Ratio (y) = -0.15974 0.76848
# Poissons Ratio (z) = 0.14895 0.57983
#
# Static dielectric constant tensor:
#      x y z
#    x 1.830780 0.000000 0.000000 
#    y 0.000000 1.787680 0.000000 
#    z 0.000000 0.000000 1.817520 
# 
# From -- ./inp_files/28207.got.cif
#   From: 2010.05.17/outbox.cif.g08.bks.cpg/sg72_15_cif.got.tgz:28207.got - 2010.06.03 17:03:01.
