data_PCOD9527943
_publ_section_title
;
Structure prediction by ZEFSAII (Michael W. Deem and Ramdas Pophale) SiO2 
 PCOD9527943
Probable space group: I B A M
;
_chemical_formula_sum "Si O2"
_cell_formula_units_Z 112
_cell_length_a 13.438410
_cell_length_b 25.931574
_cell_length_c 13.446265
_cell_angle_alpha 90.000000
_cell_angle_beta 90.000000
_cell_angle_gamma 90.000000
_cell_volume 4685.742640
_symmetry_space_group_name_H-M "I B A M"
_symmetry_group_IT_number 72
_symmetry_cell_setting 'orthorhombic'
loop_
_space_group_symop_operation_xyz
x,y,z
-x,-y,z
x,-y,1/2-z
-x,y,1/2-z
-x,-y,-z
x,y,-z
-x,y,1/2+z
x,-y,1/2+z
1/2+x,1/2+y,1/2+z
1/2-x,1/2-y,1/2+z
1/2+x,1/2-y,-z
1/2-x,1/2+y,-z
1/2-x,1/2-y,1/2-z
1/2+x,1/2+y,1/2-z
1/2-x,1/2+y,z
1/2+x,1/2-y,z
loop_
_atom_site_type_symbol
_atom_site_label
_atom_site_fract_x
_atom_site_fract_y
_atom_site_fract_z
Si Si1 0.825054 0.581236 0.118411
Si Si2 0.052513 0.838476 0.113000
Si Si3 0.755866 0.470163 0.121095
Si Si4 0.040283 0.943612 0.380326
Si Si5 0.660068 0.175968 0.255881
Si Si6 0.946099 0.402632 0.117364
Si Si7 0.363271 0.287755 0.309308
O O1 0.766092 0.530062 0.149865
O O2 0.801455 0.632219 0.179998
O O3 0.944411 0.574424 0.134250
O O4 0.809417 0.588586 0.000000
O O5 0.110596 0.807604 0.197585
O O6 0.034122 0.897555 0.146467
O O7 0.941821 0.813851 0.118117
O O8 0.091044 0.836107 0.000000
O O9 0.654840 0.442076 0.154030
O O10 0.856942 0.440715 0.147377
O O11 0.753319 0.470874 0.000000
O O12 0.043371 0.940069 0.500000
O O13 0.000000 0.000000 0.355721
O O14 0.576571 0.149680 0.323956
O O15 0.627763 0.226279 0.195043
O O16 0.750665 0.194560 0.325773
O O17 0.938450 0.393262 0.000000
#
# Coordination Sequence:
#
# PCOD9527943 Si02
#       7
#    16  16  16  16  16  16  16
#     4  10  22  37  62  94 127 166 209 258 319 383
#     4  10  22  42  68  91 124 167 211 262 321 379
#     4   9  18  35  58  90 130 162 203 260 312 381
#     4   9  18  33  60  94 124 160 203 253 313 378
#     4  11  24  42  61  88 129 166 211 271 316 373
#     4  10  21  38  63  90 122 166 212 254 317 382
#     4  10  25  43  61  90 126 165 214 269 317 369
#
# _framework density 23.902294000000001
#
# number of rings (size 3 to 8) (size 9 to 14) (size 15 to 20)
#    0.000    2.143    0.000    1.714    6.000    5.714 
#    0.000    5.714    0.000    0.000    0.000    0.000 
#    0.000    0.000    0.000    0.000    0.000    0.000 
#
# Total GULP energy -313422.435778 kJ/mol
# GULP energy per Si atom -5596.829210 kJ/mol
# Density = 2.384789 g / cm^3
# Si number density = 23.902294 Si / 1000 Ang^3
#
#
#
# Elastic Constant Matrix: (Units=GPa)
#
#
# Indices 1 2 3 4 5 6 
#
# 1 51.9182 9.6398 3.8834 0.0000 0.0000 0.0000
# 2 9.6398 140.1411 14.5376 0.0003 0.0000 0.0000
# 3 3.8834 14.5376 99.3909 0.0001 0.0000 0.0000
# 4 0.0000 0.0003 0.0001 15.5667 0.0000 0.0000
# 5 0.0000 0.0000 0.0000 0.0000 29.6249 0.0000
# 6 0.0000 0.0000 0.0000 0.0000 0.0000 21.5424
#
#
#
# Elastic Compliance Matrix: (Units=1/GPa)
#
#
# Indices 1 2 3 4 5 6 
#
# 1 0.019543 -0.001285 -0.000576 0.000000 0.000000 0.000000
# 2 -0.001285 0.007330 -0.001022 0.000000 0.000000 0.000000
# 3 -0.000576 -0.001022 0.010233 0.000000 0.000000 0.000000
# 4 0.000000 0.000000 0.000000 0.064240 0.000000 0.000000
# 5 0.000000 0.000000 0.000000 0.000000 0.033755 0.000000
# 6 0.000000 0.000000 0.000000 0.000000 0.000000 0.046420
#
#
# Mechanical properties :
#
#
# Convention : Reuss Voigt Hill
#
# Bulk Modulus (GPa) = 31.90653 38.61909 35.26281
# Shear Modulus (GPa) = 25.28664 30.90607 28.09636
#
# Velocity S-wave (km/s) = 3.25609 3.59976 3.43223
# Velocity P-wave (km/s) = 5.24537 5.78531 5.52194
#
# Compressibility (1/GPa) = 0.03134155
#
# Stress axis : x y z
#
# Youngs Moduli (GPa) = 51.17020 136.42491 97.72063
#
# Poissons Ratio (x) = 0.17525 0.05626
# Poissons Ratio (y) = 0.06573 0.09987
# Poissons Ratio (z) = 0.02946 0.13942
#
# Static dielectric constant tensor:
#      x y z
#    x 1.934760 0.000000 0.000000 
#    y 0.000000 1.872120 0.000000 
#    z 0.000000 0.000000 1.940500 
# 
# From -- ./inp_files/22259.got.cif
#   From: 2010.05.17/outbox.cif.g08.bks.cpg/sg72_12_cif.got.tgz:22259.got - 2010.06.03 17:03:01.
