data_PCOD9527480
_publ_section_title
;
Structure prediction by ZEFSAII (Michael W. Deem and Ramdas Pophale) SiO2 
 PCOD9527480
Probable space group: I B A M
;
_chemical_formula_sum "Si O2"
_cell_formula_units_Z 96
_cell_length_a 11.968366
_cell_length_b 22.184518
_cell_length_c 19.916587
_cell_angle_alpha 90.000000
_cell_angle_beta 90.000000
_cell_angle_gamma 90.000000
_cell_volume 5288.101431
_symmetry_space_group_name_H-M "I B A M"
_symmetry_group_IT_number 72
_symmetry_cell_setting 'orthorhombic'
loop_
_space_group_symop_operation_xyz
x,y,z
-x,-y,z
x,-y,1/2-z
-x,y,1/2-z
-x,-y,-z
x,y,-z
-x,y,1/2+z
x,-y,1/2+z
1/2+x,1/2+y,1/2+z
1/2-x,1/2-y,1/2+z
1/2+x,1/2-y,-z
1/2-x,1/2+y,-z
1/2-x,1/2-y,1/2-z
1/2+x,1/2+y,1/2-z
1/2-x,1/2+y,z
1/2+x,1/2-y,z
loop_
_atom_site_type_symbol
_atom_site_label
_atom_site_fract_x
_atom_site_fract_y
_atom_site_fract_z
Si Si1 0.561559 0.436368 0.122794
Si Si2 0.268977 0.541968 0.000000
Si Si3 0.714634 0.265110 0.111887
Si Si4 0.847461 0.853288 0.620929
Si Si5 0.178037 0.337464 0.500000
Si Si6 0.293970 0.907124 0.000000
Si Si7 0.872266 0.846169 0.770369
Si Si8 0.436697 0.203417 0.500000
O O1 0.500000 0.500000 0.137048
O O2 0.469233 0.383351 0.107753
O O3 0.623004 0.407139 0.186233
O O4 0.647452 0.449402 0.063044
O O5 0.209781 0.478034 0.000000
O O6 0.172195 0.591461 0.000000
O O7 0.817404 0.217561 0.113629
O O8 0.752779 0.320046 0.065777
O O9 0.677757 0.292699 0.183356
O O10 0.617768 0.233502 0.066615
O O11 0.771574 0.885728 0.566299
O O12 0.817045 0.861943 0.699155
O O13 0.068568 0.296866 0.500000
O O14 0.404261 0.867088 0.000000
O O15 0.000000 0.829358 0.750000
#
# Coordination Sequence:
#
# PCOD9527480 Si02
#       8
#    16   8  16  16   8   8  16   8
#     4  11  21  36  57  90 120 153 192 241 297 349
#     4  12  21  37  61  85 114 150 202 243 295 345
#     4  10  21  40  57  86 121 153 197 235 298 354
#     4  10  21  35  58  83 118 158 185 237 294 348
#     4  11  23  35  62  86 111 156 191 253 283 341
#     4  10  20  41  57  80 110 155 197 238 290 351
#     4  10  22  35  55  89 121 156 191 236 291 359
#     4   9  23  38  59  86 114 154 198 240 295 341
#
# _framework density 18.153963999999998
#
# number of rings (size 3 to 8) (size 9 to 14) (size 15 to 20)
#    0.000    1.667    3.333    1.750    4.667    3.333 
#    0.000    0.000    0.000    0.000    0.000    0.000 
#   10.000    0.000    0.000    0.000    0.000    0.000 
#
# Total GULP energy -267270.506960 kJ/mol
# GULP energy per Si atom -5568.135562 kJ/mol
# Density = 1.811264 g / cm^3
# Si number density = 18.153964 Si / 1000 Ang^3
#
#
#
# Elastic Constant Matrix: (Units=GPa)
#
#
# Indices 1 2 3 4 5 6 
#
# 1 36.2029 16.4153 22.5055 0.0000 0.0000 0.0000
# 2 16.4153 109.4057 40.0242 0.0000 0.0000 0.0000
# 3 22.5055 40.0242 109.8819 0.0000 0.0000 0.0000
# 4 0.0000 0.0000 0.0000 29.0666 0.0000 0.0000
# 5 0.0000 0.0000 0.0000 0.0000 24.6492 0.0000
# 6 0.0000 0.0000 0.0000 0.0000 0.0000 20.3779
#
#
#
# Elastic Compliance Matrix: (Units=1/GPa)
#
#
# Indices 1 2 3 4 5 6 
#
# 1 0.032382 -0.002806 -0.005610 0.000000 0.000000 0.000000
# 2 -0.002806 0.010789 -0.003355 0.000000 0.000000 0.000000
# 3 -0.005610 -0.003355 0.011472 0.000000 0.000000 0.000000
# 4 0.000000 0.000000 0.000000 0.034404 0.000000 0.000000
# 5 0.000000 0.000000 0.000000 0.000000 0.040569 0.000000
# 6 0.000000 0.000000 0.000000 0.000000 0.000000 0.049073
#
#
# Mechanical properties :
#
#
# Convention : Reuss Voigt Hill
#
# Bulk Modulus (GPa) = 32.15465 45.93119 39.04292
# Shear Modulus (GPa) = 23.51859 26.58844 25.05351
#
# Velocity S-wave (km/s) = 3.60322 3.83117 3.71894
# Velocity P-wave (km/s) = 5.92128 6.70271 6.32408
#
# Compressibility (1/GPa) = 0.03109970
#
# Stress axis : x y z
#
# Youngs Moduli (GPa) = 30.88129 92.68945 87.17039
#
# Poissons Ratio (x) = 0.26011 0.48904
# Poissons Ratio (y) = 0.08666 0.29246
# Poissons Ratio (z) = 0.17325 0.31097
#
# Static dielectric constant tensor:
#      x y z
#    x 1.643130 0.000000 0.000000 
#    y 0.000000 1.632520 0.000000 
#    z 0.000000 0.000000 1.653250 
# 
# From -- ./inp_files/29537.got.cif
#   From: 2010.05.17/outbox.cif.g08.bks.cpg/sg72_15_cif.got.tgz:29537.got - 2010.06.03 17:03:01.
