data_PCOD9527733
_publ_section_title
;
Structure prediction by ZEFSAII (Michael W. Deem and Ramdas Pophale) SiO2 
 PCOD9527733
Probable space group: I B A M
;
_chemical_formula_sum "Si O2"
_cell_formula_units_Z 56
_cell_length_a 16.880668
_cell_length_b 5.244730
_cell_length_c 28.742082
_cell_angle_alpha 90.000000
_cell_angle_beta 90.000000
_cell_angle_gamma 90.000000
_cell_volume 2544.667178
_symmetry_space_group_name_H-M "I B A M"
_symmetry_group_IT_number 72
_symmetry_cell_setting 'orthorhombic'
loop_
_space_group_symop_operation_xyz
x,y,z
-x,-y,z
x,-y,1/2-z
-x,y,1/2-z
-x,-y,-z
x,y,-z
-x,y,1/2+z
x,-y,1/2+z
1/2+x,1/2+y,1/2+z
1/2-x,1/2-y,1/2+z
1/2+x,1/2-y,-z
1/2-x,1/2+y,-z
1/2-x,1/2-y,1/2-z
1/2+x,1/2+y,1/2-z
1/2-x,1/2+y,z
1/2+x,1/2-y,z
loop_
_atom_site_type_symbol
_atom_site_label
_atom_site_fract_x
_atom_site_fract_y
_atom_site_fract_z
Si Si1 0.695138 0.754167 0.000000
Si Si2 0.449390 0.252075 0.068964
Si Si3 0.451084 0.748766 0.319411
Si Si4 0.278087 0.915297 0.698003
O O1 0.634943 0.752868 0.956248
O O2 0.750375 0.504977 0.000000
O O3 0.500000 0.500000 0.055092
O O4 0.440235 0.261769 0.124723
O O5 0.500000 0.000000 0.057510
O O6 0.500000 0.500000 0.304975
O O7 0.364076 0.789802 0.299518
O O8 0.500000 0.000000 0.307653
O O9 0.223549 0.696879 0.674788
O O10 0.253176 0.000000 0.750000
#
# Coordination Sequence:
#
# PCOD9527733 Si02
#       4
#     8  16  16  16
#     4  12  24  36  56  88 116 144 192 240 280 332
#     4  10  21  39  59  79 112 154 188 228 288 343
#     4  10  21  37  59  85 110 145 194 238 278 333
#     4  10  21  37  56  80 113 149 181 222 283 342
#
# _framework density 22.006809000000001
#
# number of rings (size 3 to 8) (size 9 to 14) (size 15 to 20)
#    0.000    1.714    0.000    4.286    0.000    2.857 
#    0.000    1.429    0.000    0.000    0.000    0.000 
#    0.000    0.000    0.000    0.000    0.000    0.000 
#
# Total GULP energy -156461.252120 kJ/mol
# GULP energy per Si atom -5587.901861 kJ/mol
# Density = 2.195672 g / cm^3
# Si number density = 22.006809 Si / 1000 Ang^3
#
#
#
# Elastic Constant Matrix: (Units=GPa)
#
#
# Indices 1 2 3 4 5 6 
#
# 1 178.4828 111.9364 40.1473 0.0000 0.0000 0.0000
# 2 111.9364 263.0105 33.1186 0.0000 0.0000 0.0000
# 3 40.1473 33.1186 68.7241 0.0000 0.0000 0.0000
# 4 0.0000 0.0000 0.0000 -21.2179 0.0000 0.0000
# 5 0.0000 0.0000 0.0000 0.0000 76.6847 0.0000
# 6 0.0000 0.0000 0.0000 0.0000 0.0000 49.1163
#
#
#
# Elastic Compliance Matrix: (Units=1/GPa)
#
#
# Indices 1 2 3 4 5 6 
#
# 1 0.008311 -0.003115 -0.003354 0.000000 0.000000 0.000000
# 2 -0.003115 0.005215 -0.000694 0.000000 0.000000 0.000000
# 3 -0.003354 -0.000694 0.016844 0.000000 0.000000 0.000000
# 4 0.000000 0.000000 0.000000 -0.047130 0.000000 0.000000
# 5 0.000000 0.000000 0.000000 0.000000 0.013040 0.000000
# 6 0.000000 0.000000 0.000000 0.000000 0.000000 0.020360
#
#
# Mechanical properties :
#
#
# Convention : Reuss Voigt Hill
#
# Bulk Modulus (GPa) = 62.32193 97.84689 80.08441
# Shear Modulus (GPa) = 137.69118 42.58431 90.13775
#
# Velocity S-wave (km/s) = 7.91855 4.40369 6.40687
# Velocity P-wave (km/s) = 10.58231 8.39138 9.54989
#
# Compressibility (1/GPa) = 0.01604572
#
# Stress axis : x y z
#
# Youngs Moduli (GPa) = 120.32917 191.75293 59.36658
#
# Poissons Ratio (x) = 0.59724 0.19911
# Poissons Ratio (y) = 0.37478 0.04118
# Poissons Ratio (z) = 0.40357 0.13301
#
# Static dielectric constant tensor:
#      x y z
#    x 1.749090 0.000000 0.000000 
#    y 0.000000 1.938770 0.000000 
#    z 0.000000 0.000000 1.849580 
# 
# From -- ./inp_files/51619.got.cif
#   From: 2010.05.17/outbox.cif.g08.bks.cpg/sg72_26_cif.got.tgz:51619.got - 2010.06.03 17:03:01.
