data_PCOD9527329
_publ_section_title
;
Structure prediction by ZEFSAII (Michael W. Deem and Ramdas Pophale) SiO2 
 PCOD9527329
Probable space group: I B A M
;
_chemical_formula_sum "Si O2"
_cell_formula_units_Z 116
_cell_length_a 11.778968
_cell_length_b 25.706980
_cell_length_c 19.970546
_cell_angle_alpha 90.000000
_cell_angle_beta 90.000000
_cell_angle_gamma 90.000000
_cell_volume 6047.115175
_symmetry_space_group_name_H-M "I B A M"
_symmetry_group_IT_number 72
_symmetry_cell_setting 'orthorhombic'
loop_
_space_group_symop_operation_xyz
x,y,z
-x,-y,z
x,-y,1/2-z
-x,y,1/2-z
-x,-y,-z
x,y,-z
-x,y,1/2+z
x,-y,1/2+z
1/2+x,1/2+y,1/2+z
1/2-x,1/2-y,1/2+z
1/2+x,1/2-y,-z
1/2-x,1/2+y,-z
1/2-x,1/2-y,1/2-z
1/2+x,1/2+y,1/2-z
1/2-x,1/2+y,z
1/2+x,1/2-y,z
loop_
_atom_site_type_symbol
_atom_site_label
_atom_site_fract_x
_atom_site_fract_y
_atom_site_fract_z
Si Si1 0.470157 0.337581 0.329500
Si Si2 0.327974 0.302195 0.923084
Si Si3 0.768049 0.187906 0.578834
Si Si4 0.500000 0.000000 0.750000
Si Si5 0.341215 0.107533 0.420893
Si Si6 0.601556 0.908614 0.920419
Si Si7 0.306127 0.008744 0.655767
Si Si8 0.930813 0.956010 0.179886
O O1 0.500000 0.331617 0.250000
O O2 0.579483 0.320519 0.370707
O O3 0.365379 0.307956 0.364795
O O4 0.438136 0.397717 0.345601
O O5 0.302561 0.241226 0.918488
O O6 0.216493 0.336970 0.909628
O O7 0.363689 0.313265 0.000000
O O8 0.807739 0.182842 0.500000
O O9 0.688887 0.138070 0.594499
O O10 0.593496 0.971252 0.704960
O O11 0.336875 0.096828 0.500000
O O12 0.473523 0.106927 0.401489
O O13 0.275210 0.060470 0.384697
O O14 0.635312 0.963217 0.887386
O O15 0.604053 0.916086 0.000000
O O16 0.196001 0.978910 0.684714
O O17 0.000000 0.951424 0.250000
O O18 0.000000 0.000000 0.139537
#
# Coordination Sequence:
#
# PCOD9527329 Si02
#       8
#    16  16  16   4  16  16  16  16
#     4  11  23  41  64  91 127 165 205 254 309 366
#     4  10  23  41  66  93 123 163 210 259 303 363
#     4  10  22  41  67  92 120 162 212 259 304 366
#     4  12  24  32  56  88 124 164 200 252 304 366
#     4  10  21  39  62  91 122 155 198 255 312 358
#     4  10  20  38  62  88 118 156 200 253 310 360
#     4  12  21  38  58  88 123 156 203 249 303 370
#     4  10  21  38  58  82 119 170 203 241 294 366
#
# _framework density 19.182699
#
# number of rings (size 3 to 8) (size 9 to 14) (size 15 to 20)
#    0.000    1.517    2.759    2.483    1.931    2.759 
#    0.000    0.000    3.034    3.310    0.000    0.000 
#    0.000    0.000    0.000    0.000    0.000    0.000 
#
# Total GULP energy -323005.254185 kJ/mol
# GULP energy per Si atom -5569.056107 kJ/mol
# Density = 1.913904 g / cm^3
# Si number density = 19.182699 Si / 1000 Ang^3
#
#
#
# Elastic Constant Matrix: (Units=GPa)
#
#
# Indices 1 2 3 4 5 6 
#
# 1 89.0759 9.1971 46.7765 0.0000 0.0000 0.0000
# 2 9.1971 75.9158 28.5123 0.0000 0.0000 0.0000
# 3 46.7765 28.5123 70.8758 0.0000 0.0000 0.0000
# 4 0.0000 0.0000 0.0000 16.2195 0.0000 0.0000
# 5 0.0000 0.0000 0.0000 0.0000 26.1564 0.0000
# 6 0.0000 0.0000 0.0000 0.0000 0.0000 -153.4828
#
#
#
# Elastic Compliance Matrix: (Units=1/GPa)
#
#
# Indices 1 2 3 4 5 6 
#
# 1 0.017615 0.002630 -0.012684 0.000000 0.000000 0.000000
# 2 0.002630 0.015909 -0.008136 0.000000 0.000000 0.000000
# 3 -0.012684 -0.008136 0.025753 0.000000 0.000000 0.000000
# 4 0.000000 0.000000 0.000000 0.061654 0.000000 0.000000
# 5 0.000000 0.000000 0.000000 0.000000 0.038232 0.000000
# 6 0.000000 0.000000 0.000000 0.000000 0.000000 -0.006515
#
#
# Mechanical properties :
#
#
# Convention : Reuss Voigt Hill
#
# Bulk Modulus (GPa) = 43.67093 44.98214 44.32653
# Shear Modulus (GPa) = 25.42453 -12.12927 6.64763
#
# Velocity S-wave (km/s) = 3.64454 -2.51729 1.86359
# Velocity P-wave (km/s) = 6.36596 3.87959 5.27146
#
# Compressibility (1/GPa) = 0.02289853
#
# Stress axis : x y z
#
# Youngs Moduli (GPa) = 56.76832 62.85557 38.83044
#
# Poissons Ratio (x) = -0.16529 0.49251
# Poissons Ratio (y) = -0.14928 0.31591
# Poissons Ratio (z) = 0.72003 0.51137
#
# Static dielectric constant tensor:
#      x y z
#    x 1.686070 0.000000 0.000000 
#    y 0.000000 1.674880 0.000000 
#    z 0.000000 0.000000 1.715590 
# 
# From -- ./inp_files/29696.got.cif
#   From: 2010.05.17/outbox.cif.g08.bks.cpg/sg72_15_cif.got.tgz:29696.got - 2010.06.03 17:03:01.
