data_PCOD9527571
_publ_section_title
;
Structure prediction by ZEFSAII (Michael W. Deem and Ramdas Pophale) SiO2 
 PCOD9527571
Probable space group: I B A M
;
_chemical_formula_sum "Si O2"
_cell_formula_units_Z 68
_cell_length_a 32.854751
_cell_length_b 5.248269
_cell_length_c 21.347299
_cell_angle_alpha 90.000000
_cell_angle_beta 90.000000
_cell_angle_gamma 90.000000
_cell_volume 3680.926960
_symmetry_space_group_name_H-M "I B A M"
_symmetry_group_IT_number 72
_symmetry_cell_setting 'orthorhombic'
loop_
_space_group_symop_operation_xyz
x,y,z
-x,-y,z
x,-y,1/2-z
-x,y,1/2-z
-x,-y,-z
x,y,-z
-x,y,1/2+z
x,-y,1/2+z
1/2+x,1/2+y,1/2+z
1/2-x,1/2-y,1/2+z
1/2+x,1/2-y,-z
1/2-x,1/2+y,-z
1/2-x,1/2-y,1/2-z
1/2+x,1/2+y,1/2-z
1/2-x,1/2+y,z
1/2+x,1/2-y,z
loop_
_atom_site_type_symbol
_atom_site_label
_atom_site_fract_x
_atom_site_fract_y
_atom_site_fract_z
Si Si1 0.000000 0.500000 0.750000
Si Si2 0.902909 0.053770 0.430583
Si Si3 0.430224 0.676090 0.691096
Si Si4 0.276099 0.989271 0.824779
Si Si5 0.363776 0.067946 0.116820
O O1 0.970933 0.324902 0.792024
O O2 0.921000 0.047392 0.500000
O O3 0.881608 0.322554 0.417934
O O4 0.932855 0.990780 0.372534
O O5 0.870109 0.824346 0.423650
O O6 0.419618 0.500000 0.750000
O O7 0.393711 0.871556 0.675559
O O8 0.254415 0.721802 0.838951
O O9 0.284299 0.000000 0.750000
O O10 0.318235 0.023269 0.860931
#
# Coordination Sequence:
#
# PCOD9527571 Si02
#       5
#     4  16  16  16  16
#     4  12  22  44  62 106 132 158 208 272 336 386
#     4  10  22  40  64  94 126 174 221 259 313 383
#     4  10  24  38  67  97 129 165 206 268 323 390
#     4  10  21  34  55  91 132 166 209 270 322 375
#     4  10  22  37  66  90 126 170 217 259 322 375
#
# _framework density 18.473606
#
# number of rings (size 3 to 8) (size 9 to 14) (size 15 to 20)
#    1.412    0.471    0.000    3.882    4.941    0.941 
#    0.000    0.588    0.000   18.353    0.000    0.000 
#    0.000    0.000    0.000    0.000    0.000    0.000 
#
# Total GULP energy -189498.419622 kJ/mol
# GULP energy per Si atom -5573.482930 kJ/mol
# Density = 1.843156 g / cm^3
# Si number density = 18.473606 Si / 1000 Ang^3
#
#
#
# Elastic Constant Matrix: (Units=GPa)
#
#
# Indices 1 2 3 4 5 6 
#
# 1 59.1963 9.1469 34.9678 0.0000 0.0000 0.0000
# 2 9.1469 113.6637 36.7514 0.0000 0.0000 0.0000
# 3 34.9678 36.7514 130.2932 0.0000 0.0000 0.0000
# 4 0.0000 0.0000 0.0000 0.8108 0.0000 0.0000
# 5 0.0000 0.0000 0.0000 0.0000 -23.1988 0.0000
# 6 0.0000 0.0000 0.0000 0.0000 0.0000 19.7181
#
#
#
# Elastic Compliance Matrix: (Units=1/GPa)
#
#
# Indices 1 2 3 4 5 6 
#
# 1 0.020078 0.000139 -0.005428 0.000000 0.000000 0.000000
# 2 0.000139 0.009682 -0.002768 0.000000 0.000000 0.000000
# 3 -0.005428 -0.002768 0.009912 0.000000 0.000000 0.000000
# 4 0.000000 0.000000 0.000000 1.233288 0.000000 0.000000
# 5 0.000000 0.000000 0.000000 0.000000 -0.043106 0.000000
# 6 0.000000 0.000000 0.000000 0.000000 0.000000 0.050715
#
#
# Mechanical properties :
#
#
# Convention : Reuss Voigt Hill
#
# Bulk Modulus (GPa) = 42.44758 51.65392 47.05075
# Shear Modulus (GPa) = 3.83278 14.28517 9.05898
#
# Velocity S-wave (km/s) = 1.44196 2.78380 2.21684
# Velocity P-wave (km/s) = 5.07933 6.19309 5.66365
#
# Compressibility (1/GPa) = 0.02355847
#
# Stress axis : x y z
#
# Youngs Moduli (GPa) = 49.80680 103.28705 100.88281
#
# Poissons Ratio (x) = -0.01438 0.54756
# Poissons Ratio (y) = -0.00694 0.27927
# Poissons Ratio (z) = 0.27033 0.28593
#
# Static dielectric constant tensor:
#      x y z
#    x 1.587230 0.000000 0.000000 
#    y 0.000000 1.653880 0.000000 
#    z 0.000000 0.000000 1.649490 
# 
# From -- ./inp_files/40595.got.cif
#   From: 2010.05.17/outbox.cif.g08.bks.cpg/sg72_21_cif.got.tgz:40595.got - 2010.06.03 17:03:01.
