data_PCOD9527786
_publ_section_title
;
Structure prediction by ZEFSAII (Michael W. Deem and Ramdas Pophale) SiO2 
 PCOD9527786
Probable space group: I B A M
;
_chemical_formula_sum "Si O2"
_cell_formula_units_Z 112
_cell_length_a 15.921267
_cell_length_b 21.294779
_cell_length_c 13.949039
_cell_angle_alpha 90.000000
_cell_angle_beta 90.000000
_cell_angle_gamma 90.000000
_cell_volume 4729.280260
_symmetry_space_group_name_H-M "I B A M"
_symmetry_group_IT_number 72
_symmetry_cell_setting 'orthorhombic'
loop_
_space_group_symop_operation_xyz
x,y,z
-x,-y,z
x,-y,1/2-z
-x,y,1/2-z
-x,-y,-z
x,y,-z
-x,y,1/2+z
x,-y,1/2+z
1/2+x,1/2+y,1/2+z
1/2-x,1/2-y,1/2+z
1/2+x,1/2-y,-z
1/2-x,1/2+y,-z
1/2-x,1/2-y,1/2-z
1/2+x,1/2+y,1/2-z
1/2-x,1/2+y,z
1/2+x,1/2-y,z
loop_
_atom_site_type_symbol
_atom_site_label
_atom_site_fract_x
_atom_site_fract_y
_atom_site_fract_z
Si Si1 0.162048 0.690449 0.384305
Si Si2 0.093980 0.092175 0.732491
Si Si3 0.763954 0.429231 0.314902
Si Si4 0.655201 0.048926 0.612415
Si Si5 0.938137 0.215279 0.107907
Si Si6 0.134820 0.178691 0.893399
Si Si7 0.977999 0.650531 0.615279
O O1 0.157868 0.694938 0.500000
O O2 0.229932 0.640090 0.355474
O O3 0.181453 0.760957 0.350179
O O4 0.072845 0.660964 0.349097
O O5 0.165638 0.051636 0.680620
O O6 0.086339 0.157951 0.674839
O O7 0.128631 0.115844 0.834000
O O8 0.000000 0.067990 0.750000
O O9 0.791380 0.427754 0.203796
O O10 0.827775 0.474566 0.372339
O O11 0.674634 0.063086 0.500000
O O12 0.566276 0.083811 0.632593
O O13 0.925787 0.286644 0.143952
O O14 0.039446 0.206031 0.101126
O O15 0.903370 0.209090 0.000000
O O16 0.166106 0.165859 0.000000
O O17 0.982273 0.655880 0.500000
#
# Coordination Sequence:
#
# PCOD9527786 Si02
#       7
#    16  16  16  16  16  16  16
#     4   9  18  34  57  89 126 158 193 236 283 348
#     4  10  21  37  59  85 117 155 196 248 302 366
#     4  11  24  38  59  86 114 151 199 252 305 349
#     4  10  23  43  59  78 114 154 197 253 299 348
#     4   8  15  30  54  84 115 153 198 238 286 352
#     4   8  16  32  53  81 120 158 191 236 290 350
#     4   8  16  34  59  83 116 163 200 229 281 351
#
# _framework density 23.68225
#
# number of rings (size 3 to 8) (size 9 to 14) (size 15 to 20)
#    0.000    2.857    0.000    2.143    2.000    3.429 
#    0.000    5.000    0.000    0.857    0.000    0.000 
#    0.000    0.000    0.000    0.000    0.000    0.000 
#
# Total GULP energy -312114.021710 kJ/mol
# GULP energy per Si atom -5573.464673 kJ/mol
# Density = 2.362835 g / cm^3
# Si number density = 23.682250 Si / 1000 Ang^3
#
#
#
# Elastic Constant Matrix: (Units=GPa)
#
#
# Indices 1 2 3 4 5 6 
#
# 1 71.5561 20.7971 9.6902 0.0000 0.0000 0.0000
# 2 20.7971 83.9302 12.2408 0.0000 0.0000 0.0000
# 3 9.6902 12.2408 87.4361 0.0000 0.0000 0.0000
# 4 0.0000 0.0000 0.0000 24.2375 0.0000 0.0000
# 5 0.0000 0.0000 0.0000 0.0000 -7.4090 0.0000
# 6 0.0000 0.0000 0.0000 0.0000 0.0000 -7.9599
#
#
#
# Elastic Compliance Matrix: (Units=1/GPa)
#
#
# Indices 1 2 3 4 5 6 
#
# 1 0.015178 -0.003589 -0.001180 0.000000 0.000000 0.000000
# 2 -0.003589 0.013012 -0.001424 0.000000 0.000000 0.000000
# 3 -0.001180 -0.001424 0.011767 0.000000 0.000000 0.000000
# 4 0.000000 0.000000 0.000000 0.041258 0.000000 0.000000
# 5 0.000000 0.000000 0.000000 0.000000 -0.134971 0.000000
# 6 0.000000 0.000000 0.000000 0.000000 0.000000 -0.125629
#
#
# Mechanical properties :
#
#
# Convention : Reuss Voigt Hill
#
# Bulk Modulus (GPa) = 36.26909 36.48650 36.37779
# Shear Modulus (GPa) = -31.68355 15.12001 -8.28177
#
# Velocity S-wave (km/s) = -3.66165 2.52950 -1.87207
# Velocity P-wave (km/s) = 1.59020 4.89605 3.27434
#
# Compressibility (1/GPa) = 0.02757169
#
# Stress axis : x y z
#
# Youngs Moduli (GPa) = 65.88540 76.85440 84.98346
#
# Poissons Ratio (x) = 0.27582 0.10025
# Poissons Ratio (y) = 0.23645 0.12100
# Poissons Ratio (z) = 0.07772 0.10943
#
# Static dielectric constant tensor:
#      x y z
#    x 1.953410 0.000000 0.000000 
#    y 0.000000 1.956540 0.000000 
#    z 0.000000 0.000000 1.910460 
# 
# From -- ./inp_files/22075.got.cif
#   From: 2010.05.17/outbox.cif.g08.bks.cpg/sg72_12_cif.got.tgz:22075.got - 2010.06.03 17:03:01.
