data_PCOD9527352
_publ_section_title
;
Structure prediction by ZEFSAII (Michael W. Deem and Ramdas Pophale) SiO2 
 PCOD9527352
Probable space group: I B A M
;
_chemical_formula_sum "Si O2"
_cell_formula_units_Z 96
_cell_length_a 19.087892
_cell_length_b 16.776967
_cell_length_c 15.179308
_cell_angle_alpha 90.000000
_cell_angle_beta 90.000000
_cell_angle_gamma 90.000000
_cell_volume 4860.975057
_symmetry_space_group_name_H-M "I B A M"
_symmetry_group_IT_number 72
_symmetry_cell_setting 'orthorhombic'
loop_
_space_group_symop_operation_xyz
x,y,z
-x,-y,z
x,-y,1/2-z
-x,y,1/2-z
-x,-y,-z
x,y,-z
-x,y,1/2+z
x,-y,1/2+z
1/2+x,1/2+y,1/2+z
1/2-x,1/2-y,1/2+z
1/2+x,1/2-y,-z
1/2-x,1/2+y,-z
1/2-x,1/2-y,1/2-z
1/2+x,1/2+y,1/2-z
1/2-x,1/2+y,z
1/2+x,1/2-y,z
loop_
_atom_site_type_symbol
_atom_site_label
_atom_site_fract_x
_atom_site_fract_y
_atom_site_fract_z
Si Si1 0.456074 0.925200 0.604556
Si Si2 0.560337 0.744133 0.897080
Si Si3 0.976864 0.085055 0.648005
Si Si4 0.809446 0.426930 0.809462
Si Si5 0.669040 0.640570 0.396012
Si Si6 0.667349 0.234058 0.758143
O O1 0.466005 0.926041 0.500000
O O2 0.471305 0.831763 0.628878
O O3 0.374946 0.942347 0.627240
O O4 0.500000 0.000000 0.642238
O O5 0.510415 0.666636 0.890607
O O6 0.623487 0.733713 0.826038
O O7 0.583724 0.750546 0.000000
O O8 0.893659 0.084712 0.635901
O O9 0.000000 0.086702 0.750000
O O10 0.000000 0.000000 0.609498
O O11 0.786871 0.500000 0.750000
O O12 0.743727 0.391216 0.862137
O O13 0.839658 0.360084 0.743364
O O14 0.669676 0.648185 0.500000
O O15 0.648453 0.722703 0.347790
O O16 0.750000 0.250000 0.750000
#
# Coordination Sequence:
#
# PCOD9527352 Si02
#       6
#    16  16  16  16  16  16
#     4   9  19  38  63  93 128 164 205 255 314 381
#     4  10  20  38  63  91 124 162 205 259 318 376
#     4  11  24  40  63  88 121 162 207 267 319 378
#     4  10  22  38  61  90 127 164 207 256 316 378
#     4  11  23  41  63  87 122 166 211 262 317 376
#     4   9  20  38  59  87 119 159 204 251 309 377
#
# _framework density 19.749123999999998
#
# number of rings (size 3 to 8) (size 9 to 14) (size 15 to 20)
#    0.000    2.000    1.667    1.000    2.333    7.000 
#    0.000    3.333    0.000    1.000    0.000    0.000 
#    0.000    1.000    0.000    0.000    0.000    0.000 
#
# Total GULP energy -267367.274470 kJ/mol
# GULP energy per Si atom -5570.151551 kJ/mol
# Density = 1.970417 g / cm^3
# Si number density = 19.749124 Si / 1000 Ang^3
#
#
#
# Elastic Constant Matrix: (Units=GPa)
#
#
# Indices 1 2 3 4 5 6 
#
# 1 106.6288 53.5176 16.8743 0.0000 0.0000 0.0000
# 2 53.5176 109.1329 48.9497 0.0000 0.0000 0.0000
# 3 16.8743 48.9497 83.1047 0.0000 0.0000 0.0000
# 4 0.0000 0.0000 0.0000 5.7477 0.0000 0.0000
# 5 0.0000 0.0000 0.0000 0.0000 26.9142 0.0000
# 6 0.0000 0.0000 0.0000 0.0000 0.0000 23.4985
#
#
#
# Elastic Compliance Matrix: (Units=1/GPa)
#
#
# Indices 1 2 3 4 5 6 
#
# 1 0.012570 -0.006822 0.001466 0.000000 0.000000 0.000000
# 2 -0.006822 0.016155 -0.008130 0.000000 0.000000 0.000000
# 3 0.001466 -0.008130 0.016524 0.000000 0.000000 0.000000
# 4 0.000000 0.000000 0.000000 0.173982 0.000000 0.000000
# 5 0.000000 0.000000 0.000000 0.000000 0.037155 0.000000
# 6 0.000000 0.000000 0.000000 0.000000 0.000000 0.042556
#
#
# Mechanical properties :
#
#
# Convention : Reuss Voigt Hill
#
# Bulk Modulus (GPa) = 54.71413 59.72774 57.22093
# Shear Modulus (GPa) = 15.05986 23.20039 19.13012
#
# Velocity S-wave (km/s) = 2.76444 3.43119 3.11570
# Velocity P-wave (km/s) = 6.16070 6.78279 6.47922
#
# Compressibility (1/GPa) = 0.01827682
#
# Stress axis : x y z
#
# Youngs Moduli (GPa) = 79.55301 61.89941 60.51668
#
# Poissons Ratio (x) = 0.42226 -0.08870
# Poissons Ratio (y) = 0.54269 0.49203
# Poissons Ratio (z) = -0.11660 0.50327
#
# Static dielectric constant tensor:
#      x y z
#    x 1.703660 0.000000 0.000000 
#    y 0.000000 1.763180 0.000000 
#    z 0.000000 0.000000 1.698180 
# 
# From -- ./inp_files/21807.got.cif
#   From: 2010.05.17/outbox.cif.g08.bks.cpg/sg72_11_cif.got.tgz:21807.got - 2010.06.03 17:03:01.
