data_PCOD9527926
_publ_section_title
;
Structure prediction by ZEFSAII (Michael W. Deem and Ramdas Pophale) SiO2 
 PCOD9527926
Probable space group: I B A M
;
_chemical_formula_sum "Si O2"
_cell_formula_units_Z 64
_cell_length_a 5.040760
_cell_length_b 35.641900
_cell_length_c 16.739963
_cell_angle_alpha 90.000000
_cell_angle_beta 90.000000
_cell_angle_gamma 90.000000
_cell_volume 3007.539649
_symmetry_space_group_name_H-M "I B A M"
_symmetry_group_IT_number 72
_symmetry_cell_setting 'orthorhombic'
loop_
_space_group_symop_operation_xyz
x,y,z
-x,-y,z
x,-y,1/2-z
-x,y,1/2-z
-x,-y,-z
x,y,-z
-x,y,1/2+z
x,-y,1/2+z
1/2+x,1/2+y,1/2+z
1/2-x,1/2-y,1/2+z
1/2+x,1/2-y,-z
1/2-x,1/2+y,-z
1/2-x,1/2-y,1/2-z
1/2+x,1/2+y,1/2-z
1/2-x,1/2+y,z
1/2+x,1/2-y,z
loop_
_atom_site_type_symbol
_atom_site_label
_atom_site_fract_x
_atom_site_fract_y
_atom_site_fract_z
Si Si1 0.386773 0.105647 0.838746
Si Si2 0.006804 0.773081 0.153740
Si Si3 0.260228 0.474503 0.592109
Si Si4 0.392735 0.645619 0.408018
O O1 0.500000 0.107125 0.750000
O O2 0.310008 0.063374 0.862389
O O3 0.617604 0.124095 0.892562
O O4 0.119581 0.128925 0.851298
O O5 0.709922 0.760426 0.132915
O O6 0.000000 0.778547 0.250000
O O7 0.113154 0.810451 0.112444
O O8 0.500000 0.500000 0.624873
O O9 0.331433 0.464506 0.500000
O O10 0.000000 0.500000 0.591063
O O11 0.471254 0.640081 0.500000
#
# Coordination Sequence:
#
# PCOD9527926 Si02
#       4
#    16  16  16  16
#     4  12  25  43  66  95 131 171 218 268 323 387
#     4  10  21  38  61  90 126 167 211 263 325 388
#     4  10  21  39  64  92 124 161 201 251 312 375
#     4  12  25  42  66  95 130 171 218 271 326 387
#
# _framework density 21.279852000000002
#
# number of rings (size 3 to 8) (size 9 to 14) (size 15 to 20)
#    0.000    1.000    0.000    7.500    0.000    5.500 
#    0.000    1.250    0.000    0.000    0.000    0.000 
#    0.000    0.000    0.000    0.000    0.000    0.000 
#
# Total GULP energy -179041.965701 kJ/mol
# GULP energy per Si atom -5595.061428 kJ/mol
# Density = 2.123142 g / cm^3
# Si number density = 21.279852 Si / 1000 Ang^3
#
#
#
# Elastic Constant Matrix: (Units=GPa)
#
#
# Indices 1 2 3 4 5 6 
#
# 1 115.8317 30.0842 3.0833 0.0000 0.0000 0.0000
# 2 30.0842 112.4881 26.8560 0.0000 0.0000 0.0000
# 3 3.0833 26.8560 52.9715 0.0000 0.0000 0.0000
# 4 0.0000 0.0000 0.0000 27.0279 0.0000 0.0000
# 5 0.0000 0.0000 0.0000 0.0000 32.5833 0.0000
# 6 0.0000 0.0000 0.0000 0.0000 0.0000 19.5694
#
#
#
# Elastic Compliance Matrix: (Units=1/GPa)
#
#
# Indices 1 2 3 4 5 6 
#
# 1 0.009309 -0.002685 0.000820 0.000000 0.000000 0.000000
# 2 -0.002685 0.010889 -0.005364 0.000000 0.000000 0.000000
# 3 0.000820 -0.005364 0.021550 0.000000 0.000000 0.000000
# 4 0.000000 0.000000 0.000000 0.036999 0.000000 0.000000
# 5 0.000000 0.000000 0.000000 0.000000 0.030691 0.000000
# 6 0.000000 0.000000 0.000000 0.000000 0.000000 0.051100
#
#
# Mechanical properties :
#
#
# Convention : Reuss Voigt Hill
#
# Bulk Modulus (GPa) = 36.64650 44.59316 40.61983
# Shear Modulus (GPa) = 27.16025 30.58729 28.87377
#
# Velocity S-wave (km/s) = 3.57646 3.79540 3.68755
# Velocity P-wave (km/s) = 5.85776 6.34096 6.10414
#
# Compressibility (1/GPa) = 0.02728774
#
# Stress axis : x y z
#
# Youngs Moduli (GPa) = 107.42499 91.83879 46.40387
#
# Poissons Ratio (x) = 0.24661 -0.03803
# Poissons Ratio (y) = 0.28846 0.24892
# Poissons Ratio (z) = -0.08804 0.49263
#
# Static dielectric constant tensor:
#      x y z
#    x 1.733960 0.000000 0.000000 
#    y 0.000000 1.768340 0.000000 
#    z 0.000000 0.000000 1.867600 
# 
# From -- ./inp_files/27006.got.cif
#   From: 2010.05.17/outbox.cif.g08.bks.cpg/sg72_14_cif.got.tgz:27006.got - 2010.06.03 17:03:01.
