data_PCOD9527432
_publ_section_title
;
Structure prediction by ZEFSAII (Michael W. Deem and Ramdas Pophale) SiO2 
 PCOD9527432
Probable space group: I B A M
;
_chemical_formula_sum "Si O2"
_cell_formula_units_Z 116
_cell_length_a 12.074867
_cell_length_b 18.282030
_cell_length_c 29.340396
_cell_angle_alpha 90.000000
_cell_angle_beta 90.000000
_cell_angle_gamma 90.000000
_cell_volume 6476.982807
_symmetry_space_group_name_H-M "I B A M"
_symmetry_group_IT_number 72
_symmetry_cell_setting 'orthorhombic'
loop_
_space_group_symop_operation_xyz
x,y,z
-x,-y,z
x,-y,1/2-z
-x,y,1/2-z
-x,-y,-z
x,y,-z
-x,y,1/2+z
x,-y,1/2+z
1/2+x,1/2+y,1/2+z
1/2-x,1/2-y,1/2+z
1/2+x,1/2-y,-z
1/2-x,1/2+y,-z
1/2-x,1/2-y,1/2-z
1/2+x,1/2+y,1/2-z
1/2-x,1/2+y,z
1/2+x,1/2-y,z
loop_
_atom_site_type_symbol
_atom_site_label
_atom_site_fract_x
_atom_site_fract_y
_atom_site_fract_z
Si Si1 0.932988 0.657854 0.356667
Si Si2 0.178059 0.386386 0.829822
Si Si3 0.237904 0.531786 0.882248
Si Si4 0.707067 0.826145 0.768886
Si Si5 0.093372 0.107971 0.177357
Si Si6 0.893078 0.179120 0.126464
Si Si7 0.000000 0.000000 0.250000
Si Si8 0.610546 0.550292 0.053328
O O1 0.857880 0.593439 0.379269
O O2 0.893672 0.672416 0.304383
O O3 0.914300 0.735270 0.382016
O O4 0.060499 0.635097 0.351627
O O5 0.206025 0.468524 0.846079
O O6 0.182490 0.376474 0.775143
O O7 0.273857 0.334795 0.850705
O O8 0.351911 0.568221 0.865308
O O9 0.278935 0.491643 0.928150
O O10 0.750000 0.750000 0.750000
O O11 0.809077 0.846432 0.801095
O O12 0.985547 0.151798 0.162526
O O13 0.067963 0.050123 0.216316
O O14 0.900886 0.123707 0.083786
O O15 0.500000 0.500000 0.058651
O O16 0.621443 0.567020 0.000000
#
# Coordination Sequence:
#
# PCOD9527432 Si02
#       8
#    16  16  16  16  16  16   4  16
#     4  11  24  37  59  83 124 169 206 251 304 364
#     4  11  22  37  57  83 120 167 213 249 294 358
#     4  10  22  40  59  86 119 159 200 250 307 368
#     4  11  21  36  53  82 119 166 215 252 293 337
#     4  11  21  33  53  81 115 154 200 253 302 342
#     4  11  22  37  60  86 122 152 199 260 313 373
#     4  12  20  28  48  80 108 144 190 252 288 330
#     4  10  20  39  69  96 118 145 193 256 317 384
#
# _framework density 17.909573000000002
#
# number of rings (size 3 to 8) (size 9 to 14) (size 15 to 20)
#    0.000    1.241    2.759    4.966    1.931    1.655 
#    0.000    3.448    0.000   11.586    0.000    0.000 
#    0.000    0.000    0.000    0.000    0.000    0.000 
#
# Total GULP energy -323486.382491 kJ/mol
# GULP energy per Si atom -5577.351422 kJ/mol
# Density = 1.786881 g / cm^3
# Si number density = 17.909573 Si / 1000 Ang^3
#
#
#
# Elastic Constant Matrix: (Units=GPa)
#
#
# Indices 1 2 3 4 5 6 
#
# 1 108.2820 27.6570 16.3128 0.0000 0.0000 0.0000
# 2 27.6570 94.6348 27.1936 0.0000 0.0000 0.0000
# 3 16.3128 27.1936 90.0400 0.0000 0.0000 0.0000
# 4 0.0000 0.0000 0.0000 11.6874 0.0000 0.0000
# 5 0.0000 0.0000 0.0000 0.0000 20.6200 0.0000
# 6 0.0000 0.0000 0.0000 0.0000 0.0000 34.7822
#
#
#
# Elastic Compliance Matrix: (Units=1/GPa)
#
#
# Indices 1 2 3 4 5 6 
#
# 1 0.010066 -0.002647 -0.001024 0.000000 0.000000 0.000000
# 2 -0.002647 0.012267 -0.003225 0.000000 0.000000 0.000000
# 3 -0.001024 -0.003225 0.012266 0.000000 0.000000 0.000000
# 4 0.000000 0.000000 0.000000 0.085562 0.000000 0.000000
# 5 0.000000 0.000000 0.000000 0.000000 0.048497 0.000000
# 6 0.000000 0.000000 0.000000 0.000000 0.000000 0.028750
#
#
# Mechanical properties :
#
#
# Convention : Reuss Voigt Hill
#
# Bulk Modulus (GPa) = 48.06475 48.36486 48.21481
# Shear Modulus (GPa) = 22.92140 28.20416 25.56278
#
# Velocity S-wave (km/s) = 3.58137 3.97269 3.78209
# Velocity P-wave (km/s) = 6.63305 6.93590 6.78616
#
# Compressibility (1/GPa) = 0.02080527
#
# Stress axis : x y z
#
# Youngs Moduli (GPa) = 99.34817 81.51648 81.52741
#
# Poissons Ratio (x) = 0.21581 0.08349
# Poissons Ratio (y) = 0.26302 0.26295
# Poissons Ratio (z) = 0.10174 0.26292
#
# Static dielectric constant tensor:
#      x y z
#    x 1.610550 0.000000 0.000000 
#    y 0.000000 1.470780 0.000000 
#    z 0.000000 0.000000 1.590440 
# 
# From -- ./inp_files/51557.got.cif
#   From: 2010.05.17/outbox.cif.g08.bks.cpg/sg72_26_cif.got.tgz:51557.got - 2010.06.03 17:03:01.
