data_PCOD9527523
_publ_section_title
;
Structure prediction by ZEFSAII (Michael W. Deem and Ramdas Pophale) SiO2 
 PCOD9527523
Probable space group: I B A M
;
_chemical_formula_sum "Si O2"
_cell_formula_units_Z 68
_cell_length_a 20.455522
_cell_length_b 5.443533
_cell_length_c 24.588357
_cell_angle_alpha 90.000000
_cell_angle_beta 90.000000
_cell_angle_gamma 90.000000
_cell_volume 2737.921151
_symmetry_space_group_name_H-M "I B A M"
_symmetry_group_IT_number 72
_symmetry_cell_setting 'orthorhombic'
loop_
_space_group_symop_operation_xyz
x,y,z
-x,-y,z
x,-y,1/2-z
-x,y,1/2-z
-x,-y,-z
x,y,-z
-x,y,1/2+z
x,-y,1/2+z
1/2+x,1/2+y,1/2+z
1/2-x,1/2-y,1/2+z
1/2+x,1/2-y,-z
1/2-x,1/2+y,-z
1/2-x,1/2-y,1/2-z
1/2+x,1/2+y,1/2-z
1/2-x,1/2+y,z
1/2+x,1/2-y,z
loop_
_atom_site_type_symbol
_atom_site_label
_atom_site_fract_x
_atom_site_fract_y
_atom_site_fract_z
Si Si1 0.500000 0.000000 0.750000
Si Si2 0.500000 0.500000 0.888093
Si Si3 0.206808 0.500000 0.750000
Si Si4 0.600425 0.801757 0.834448
Si Si5 0.223979 0.104301 0.937152
Si Si6 0.587367 0.131994 0.060457
O O1 0.455352 0.148625 0.790332
O O2 0.567785 0.540930 0.854096
O O3 0.479309 0.725776 0.926005
O O4 0.250000 0.250000 0.750000
O O5 0.161234 0.421386 0.698600
O O6 0.600351 0.947161 0.890788
O O7 0.261548 0.338578 0.911645
O O8 0.148656 0.178155 0.938997
O O9 0.248032 0.077952 0.000000
O O10 0.587107 0.022886 0.000000
#
# Coordination Sequence:
#
# PCOD9527523 Si02
#       6
#     4   8   8  16  16  16
#     4  10  20  50  66 100 134 190 256 314 392 464
#     4  12  25  45  72 114 152 211 267 322 402 490
#     4  11  30  55  88 125 160 205 276 358 420 485
#     4  11  26  47  78 109 153 207 261 334 404 484
#     4   9  20  39  63  93 135 192 248 298 362 443
#     4  11  25  44  70 111 160 210 262 327 397 483
#
# _framework density 24.836359999999999
#
# number of rings (size 3 to 8) (size 9 to 14) (size 15 to 20)
#    0.000    1.412    2.353    0.353    6.588    5.176 
#    0.000    0.000    0.000    0.000    0.000    0.000 
#    0.000    0.000    0.000    0.000    0.000    0.000 
#
# Total GULP energy -189354.127048 kJ/mol
# GULP energy per Si atom -5569.239031 kJ/mol
# Density = 2.477983 g / cm^3
# Si number density = 24.836360 Si / 1000 Ang^3
#
#
#
# Elastic Constant Matrix: (Units=GPa)
#
#
# Indices 1 2 3 4 5 6 
#
# 1 123.9216 55.0168 60.8712 0.0000 0.0000 0.0000
# 2 55.0168 126.4981 51.1901 0.0000 0.0000 0.0000
# 3 60.8712 51.1901 174.5153 0.0000 0.0000 0.0000
# 4 0.0000 0.0000 0.0000 39.6595 0.0000 0.0000
# 5 0.0000 0.0000 0.0000 0.0000 42.2720 0.0000
# 6 0.0000 0.0000 0.0000 0.0000 0.0000 44.5532
#
#
#
# Elastic Compliance Matrix: (Units=1/GPa)
#
#
# Indices 1 2 3 4 5 6 
#
# 1 0.011074 -0.003691 -0.002780 0.000000 0.000000 0.000000
# 2 -0.003691 0.010200 -0.001705 0.000000 0.000000 0.000000
# 3 -0.002780 -0.001705 0.007200 0.000000 0.000000 0.000000
# 4 0.000000 0.000000 0.000000 0.025215 0.000000 0.000000
# 5 0.000000 0.000000 0.000000 0.000000 0.023656 0.000000
# 6 0.000000 0.000000 0.000000 0.000000 0.000000 0.022445
#
#
# Mechanical properties :
#
#
# Convention : Reuss Voigt Hill
#
# Bulk Modulus (GPa) = 82.48978 84.34348 83.41663
# Shear Modulus (GPa) = 41.60338 42.48740 42.04539
#
# Velocity S-wave (km/s) = 4.09724 4.14054 4.11895
# Velocity P-wave (km/s) = 7.46114 7.54269 7.50202
#
# Compressibility (1/GPa) = 0.01212271
#
# Stress axis : x y z
#
# Youngs Moduli (GPa) = 90.30219 98.03443 138.89384
#
# Poissons Ratio (x) = 0.36188 0.38610
# Poissons Ratio (y) = 0.33334 0.23675
# Poissons Ratio (z) = 0.25102 0.16710
#
# Static dielectric constant tensor:
#      x y z
#    x 2.077770 0.000000 0.000000 
#    y 0.000000 2.047780 0.000000 
#    z 0.000000 0.000000 2.084710 
# 
# From -- ./inp_files/49287.got.cif
#   From: 2010.05.17/outbox.cif.g08.bks.cpg/sg72_25_cif.got.tgz:49287.got - 2010.06.03 17:03:01.
