data_PCOD9527940
_publ_section_title
;
Structure prediction by ZEFSAII (Michael W. Deem and Ramdas Pophale) SiO2 
 PCOD9527940
Probable space group: I B A M
;
_chemical_formula_sum "Si O2"
_cell_formula_units_Z 116
_cell_length_a 26.956218
_cell_length_b 11.307682
_cell_length_c 19.924287
_cell_angle_alpha 90.000000
_cell_angle_beta 90.000000
_cell_angle_gamma 90.000000
_cell_volume 6073.168565
_symmetry_space_group_name_H-M "I B A M"
_symmetry_group_IT_number 72
_symmetry_cell_setting 'orthorhombic'
loop_
_space_group_symop_operation_xyz
x,y,z
-x,-y,z
x,-y,1/2-z
-x,y,1/2-z
-x,-y,-z
x,y,-z
-x,y,1/2+z
x,-y,1/2+z
1/2+x,1/2+y,1/2+z
1/2-x,1/2-y,1/2+z
1/2+x,1/2-y,-z
1/2-x,1/2+y,-z
1/2-x,1/2-y,1/2-z
1/2+x,1/2+y,1/2-z
1/2-x,1/2+y,z
1/2+x,1/2-y,z
loop_
_atom_site_type_symbol
_atom_site_label
_atom_site_fract_x
_atom_site_fract_y
_atom_site_fract_z
Si Si1 0.320417 0.516428 0.823486
Si Si2 0.383743 0.824699 0.076644
Si Si3 0.054527 0.377776 0.281495
Si Si4 0.720158 0.302009 0.923445
Si Si5 0.410339 0.901803 0.424275
Si Si6 0.581448 0.671610 0.305450
Si Si7 0.670762 0.694571 0.076492
Si Si8 0.500000 0.500000 0.750000
O O1 0.297381 0.500000 0.750000
O O2 0.285029 0.591719 0.871629
O O3 0.369928 0.592016 0.810206
O O4 0.336147 0.401054 0.865244
O O5 0.326715 0.784844 0.088248
O O6 0.418057 0.753857 0.128562
O O7 0.389525 0.965215 0.082967
O O8 0.396202 0.792361 0.000000
O O9 0.075324 0.500000 0.250000
O O10 0.053280 0.383835 0.361621
O O11 0.083992 0.263698 0.256064
O O12 0.000000 0.365324 0.250000
O O13 0.772669 0.238447 0.917683
O O14 0.715728 0.346501 0.000000
O O15 0.431306 0.890747 0.500000
O O16 0.366565 0.805308 0.417566
O O17 0.534968 0.585472 0.294123
O O18 0.663920 0.646548 0.000000
#
# Coordination Sequence:
#
# PCOD9527940 Si02
#       8
#    16  16  16  16  16  16  16   4
#     4  11  22  37  58  86 129 164 200 258 311 362
#     4   9  19  38  62  88 122 159 204 257 309 360
#     4  11  22  40  66  91 116 156 207 249 305 381
#     4   9  20  37  60  85 118 167 213 249 296 366
#     4  10  21  38  62  93 124 157 202 261 309 351
#     4  11  22  40  62  90 117 161 207 248 308 375
#     4  10  22  38  62  91 123 165 212 253 299 361
#     4  12  24  40  68  84 116 160 212 256 288 384
#
# _framework density 19.100408999999999
#
# number of rings (size 3 to 8) (size 9 to 14) (size 15 to 20)
#    0.000    1.793    2.759    1.241    1.931    1.103 
#    0.000    3.103    0.000    0.000    0.000    0.000 
#    0.000    0.000    0.000    0.000    0.000    0.000 
#
# Total GULP energy -323685.700220 kJ/mol
# GULP energy per Si atom -5580.787935 kJ/mol
# Density = 1.905694 g / cm^3
# Si number density = 19.100409 Si / 1000 Ang^3
#
#
#
# Elastic Constant Matrix: (Units=GPa)
#
#
# Indices 1 2 3 4 5 6 
#
# 1 49.9021 19.3832 43.1429 0.0000 0.0000 0.0000
# 2 19.3832 109.2775 71.5389 0.0000 0.0000 0.0000
# 3 43.1429 71.5389 167.4842 0.0000 0.0000 0.0000
# 4 0.0000 0.0000 0.0000 33.6802 0.0000 0.0000
# 5 0.0000 0.0000 0.0000 0.0000 19.5582 0.0000
# 6 0.0000 0.0000 0.0000 0.0000 0.0000 25.9130
#
#
#
# Elastic Compliance Matrix: (Units=1/GPa)
#
#
# Indices 1 2 3 4 5 6 
#
# 1 0.025788 -0.000313 -0.006509 0.000000 0.000000 0.000000
# 2 -0.000313 0.012707 -0.005347 0.000000 0.000000 0.000000
# 3 -0.006509 -0.005347 0.009931 0.000000 0.000000 0.000000
# 4 0.000000 0.000000 0.000000 0.029691 0.000000 0.000000
# 5 0.000000 0.000000 0.000000 0.000000 0.051129 0.000000
# 6 0.000000 0.000000 0.000000 0.000000 0.000000 0.038591
#
#
# Mechanical properties :
#
#
# Convention : Reuss Voigt Hill
#
# Bulk Modulus (GPa) = 41.51391 66.08819 53.80105
# Shear Modulus (GPa) = 24.97431 28.67020 26.82225
#
# Velocity S-wave (km/s) = 3.61990 3.87851 3.75143
# Velocity P-wave (km/s) = 6.26524 7.39815 6.85514
#
# Compressibility (1/GPa) = 0.02408831
#
# Stress axis : x y z
#
# Youngs Moduli (GPa) = 38.77713 78.69694 100.69087
#
# Poissons Ratio (x) = 0.02463 0.65543
# Poissons Ratio (y) = 0.01213 0.53840
# Poissons Ratio (z) = 0.25241 0.42079
#
# Static dielectric constant tensor:
#      x y z
#    x 1.640930 0.000000 0.000000 
#    y 0.000000 1.675690 0.000000 
#    z 0.000000 0.000000 1.706040 
# 
# From -- ./inp_files/29705.got.cif
#   From: 2010.05.17/outbox.cif.g08.bks.cpg/sg72_15_cif.got.tgz:29705.got - 2010.06.03 17:03:01.
