data_PCOD9527497
_publ_section_title
;
Structure prediction by ZEFSAII (Michael W. Deem and Ramdas Pophale) SiO2 
 PCOD9527497
Probable space group: I B A M
;
_chemical_formula_sum "Si O2"
_cell_formula_units_Z 112
_cell_length_a 11.687745
_cell_length_b 15.155481
_cell_length_c 29.219898
_cell_angle_alpha 90.000000
_cell_angle_beta 90.000000
_cell_angle_gamma 90.000000
_cell_volume 5175.819801
_symmetry_space_group_name_H-M "I B A M"
_symmetry_group_IT_number 72
_symmetry_cell_setting 'orthorhombic'
loop_
_space_group_symop_operation_xyz
x,y,z
-x,-y,z
x,-y,1/2-z
-x,y,1/2-z
-x,-y,-z
x,y,-z
-x,y,1/2+z
x,-y,1/2+z
1/2+x,1/2+y,1/2+z
1/2-x,1/2-y,1/2+z
1/2+x,1/2-y,-z
1/2-x,1/2+y,-z
1/2-x,1/2-y,1/2-z
1/2+x,1/2+y,1/2-z
1/2-x,1/2+y,z
1/2+x,1/2-y,z
loop_
_atom_site_type_symbol
_atom_site_label
_atom_site_fract_x
_atom_site_fract_y
_atom_site_fract_z
Si Si1 0.397066 0.788574 0.216486
Si Si2 0.736557 0.640314 0.613517
Si Si3 0.001203 0.905620 0.851447
Si Si4 0.870639 0.296962 0.553512
Si Si5 0.328912 0.603275 0.265914
Si Si6 0.364280 0.003591 0.553821
Si Si7 0.955891 0.726024 0.626182
O O1 0.500000 0.818180 0.250000
O O2 0.363967 0.689660 0.234803
O O3 0.291922 0.857380 0.215996
O O4 0.450475 0.784564 0.165822
O O5 0.633501 0.614266 0.646210
O O6 0.694201 0.718982 0.580098
O O7 0.787301 0.560357 0.584173
O O8 0.842449 0.678187 0.641755
O O9 0.069565 0.906461 0.803710
O O10 0.064313 0.829650 0.878947
O O11 0.000000 0.000000 0.874171
O O12 0.879442 0.277210 0.500000
O O13 0.822289 0.395470 0.558854
O O14 0.994439 0.304043 0.577966
O O15 0.314708 0.500000 0.250000
O O16 0.358180 0.979559 0.500000
O O17 0.500000 0.000000 0.566541
#
# Coordination Sequence:
#
# PCOD9527497 Si02
#       7
#    16  16  16  16  16  16  16
#     4  11  25  46  74  99 140 181 233 292 357 415
#     4  11  25  42  70 101 144 184 232 292 356 424
#     4  11  26  43  69  99 138 186 234 280 353 423
#     4  10  23  42  68 102 140 183 232 289 354 420
#     4  11  26  47  73 100 138 185 236 289 350 429
#     4  10  20  41  71 102 136 183 238 295 355 422
#     4  11  24  42  70 102 140 178 232 294 352 414
#
# _framework density 21.639084
#
# number of rings (size 3 to 8) (size 9 to 14) (size 15 to 20)
#    0.000    1.286    2.857    1.286    6.000    2.000 
#    0.000    1.429    0.000    2.143    0.000    0.000 
#    0.000    0.000    0.000    0.000    0.000    0.000 
#
# Total GULP energy -312404.173030 kJ/mol
# GULP energy per Si atom -5578.645947 kJ/mol
# Density = 2.158983 g / cm^3
# Si number density = 21.639084 Si / 1000 Ang^3
#
#
#
# Elastic Constant Matrix: (Units=GPa)
#
#
# Indices 1 2 3 4 5 6 
#
# 1 142.0166 61.7608 46.5179 0.0000 0.0000 0.0000
# 2 61.7608 140.6776 39.6621 0.0000 0.0000 0.0000
# 3 46.5179 39.6621 63.6115 0.0000 0.0000 0.0000
# 4 0.0000 0.0000 0.0000 21.1731 0.0000 0.0000
# 5 0.0000 0.0000 0.0000 0.0000 34.3230 0.0000
# 6 0.0000 0.0000 0.0000 0.0000 0.0000 36.7737
#
#
#
# Elastic Compliance Matrix: (Units=1/GPa)
#
#
# Indices 1 2 3 4 5 6 
#
# 1 0.010127 -0.002861 -0.005622 0.000000 0.000000 0.000000
# 2 -0.002861 0.009433 -0.003789 0.000000 0.000000 0.000000
# 3 -0.005622 -0.003789 0.022194 0.000000 0.000000 0.000000
# 4 0.000000 0.000000 0.000000 0.047230 0.000000 0.000000
# 5 0.000000 0.000000 0.000000 0.000000 0.029135 0.000000
# 6 0.000000 0.000000 0.000000 0.000000 0.000000 0.027193
#
#
# Mechanical properties :
#
#
# Convention : Reuss Voigt Hill
#
# Bulk Modulus (GPa) = 58.10615 71.35417 64.73016
# Shear Modulus (GPa) = 28.47492 31.67828 30.07660
#
# Velocity S-wave (km/s) = 3.63147 3.83030 3.73221
# Velocity P-wave (km/s) = 6.67039 7.25312 6.96785
#
# Compressibility (1/GPa) = 0.01720988
#
# Stress axis : x y z
#
# Youngs Moduli (GPa) = 98.74479 106.01282 45.05677
#
# Poissons Ratio (x) = 0.30331 0.25331
# Poissons Ratio (y) = 0.28251 0.17073
# Poissons Ratio (z) = 0.55513 0.40170
#
# Static dielectric constant tensor:
#      x y z
#    x 1.812650 0.000000 0.000000 
#    y 0.000000 1.840110 0.000000 
#    z 0.000000 0.000000 1.788440 
# 
# From -- ./inp_files/51441.got.cif
#   From: 2010.05.17/outbox.cif.g08.bks.cpg/sg72_26_cif.got.tgz:51441.got - 2010.06.03 17:03:01.
