data_PCOD9527273
_publ_section_title
;
Structure prediction by ZEFSAII (Michael W. Deem and Ramdas Pophale) SiO2 
 PCOD9527273
Probable space group: I B A M
;
_chemical_formula_sum "Si O2"
_cell_formula_units_Z 112
_cell_length_a 12.381839
_cell_length_b 16.003898
_cell_length_c 26.797094
_cell_angle_alpha 90.000000
_cell_angle_beta 90.000000
_cell_angle_gamma 90.000000
_cell_volume 5310.050203
_symmetry_space_group_name_H-M "I B A M"
_symmetry_group_IT_number 72
_symmetry_cell_setting 'orthorhombic'
loop_
_space_group_symop_operation_xyz
x,y,z
-x,-y,z
x,-y,1/2-z
-x,y,1/2-z
-x,-y,-z
x,y,-z
-x,y,1/2+z
x,-y,1/2+z
1/2+x,1/2+y,1/2+z
1/2-x,1/2-y,1/2+z
1/2+x,1/2-y,-z
1/2-x,1/2+y,-z
1/2-x,1/2-y,1/2-z
1/2+x,1/2+y,1/2-z
1/2-x,1/2+y,z
1/2+x,1/2-y,z
loop_
_atom_site_type_symbol
_atom_site_label
_atom_site_fract_x
_atom_site_fract_y
_atom_site_fract_z
Si Si1 0.843359 0.678973 0.294505
Si Si2 0.190605 0.335048 0.816065
Si Si3 0.525294 0.362906 0.443861
Si Si4 0.001653 0.299985 0.883406
Si Si5 0.657775 0.484374 0.912421
Si Si6 0.304538 0.513594 0.195569
Si Si7 0.098911 0.556623 0.059158
O O1 0.873379 0.679566 0.236146
O O2 0.782941 0.764893 0.309550
O O3 0.938008 0.672876 0.333967
O O4 0.766089 0.598133 0.300591
O O5 0.234102 0.429689 0.814373
O O6 0.124155 0.318413 0.866577
O O7 0.535886 0.328580 0.500000
O O8 0.512966 0.294390 0.401016
O O9 0.417219 0.419273 0.441497
O O10 0.624953 0.424567 0.432212
O O11 0.945362 0.352627 0.927043
O O12 0.626283 0.477726 0.854189
O O13 0.784255 0.463901 0.918018
O O14 0.356869 0.500000 0.250000
O O15 0.000000 0.500000 0.078669
O O16 0.109188 0.544777 0.000000
#
# Coordination Sequence:
#
# PCOD9527273 Si02
#       7
#    16  16  16  16  16  16  16
#     4  10  21  39  59  91 129 171 215 256 321 389
#     4  10  22  38  60  91 132 169 211 264 316 393
#     4  11  25  43  67  94 124 173 226 269 326 395
#     4  12  23  37  63  92 124 165 209 269 320 379
#     4  11  21  45  69  91 130 172 215 269 331 391
#     4  10  20  37  64  94 130 170 210 260 323 397
#     4  11  24  41  63  91 126 166 214 270 327 382
#
# _framework density 21.092079999999999
#
# number of rings (size 3 to 8) (size 9 to 14) (size 15 to 20)
#    0.000    1.286    1.429    5.143    0.000    0.000 
#    0.000    5.000    0.000    0.000    0.000    0.000 
#    0.000    0.000    0.000    0.000    0.000    0.000 
#
# Total GULP energy -312533.269321 kJ/mol
# GULP energy per Si atom -5580.951238 kJ/mol
# Density = 2.104407 g / cm^3
# Si number density = 21.092080 Si / 1000 Ang^3
#
#
#
# Elastic Constant Matrix: (Units=GPa)
#
#
# Indices 1 2 3 4 5 6 
#
# 1 94.4181 114.9889 -34.8890 0.0000 0.0000 0.0000
# 2 114.9889 405.2238 -134.3240 0.0000 0.0000 0.0000
# 3 -34.8890 -134.3240 144.9937 0.0000 0.0000 0.0000
# 4 0.0000 0.0000 0.0000 17.5506 0.0000 0.0000
# 5 0.0000 0.0000 0.0000 0.0000 17.1064 0.0000
# 6 0.0000 0.0000 0.0000 0.0000 0.0000 10.3596
#
#
#
# Elastic Compliance Matrix: (Units=1/GPa)
#
#
# Indices 1 2 3 4 5 6 
#
# 1 0.016212 -0.004773 -0.000521 0.000000 0.000000 0.000000
# 2 -0.004773 0.004967 0.003453 0.000000 0.000000 0.000000
# 3 -0.000521 0.003453 0.009970 0.000000 0.000000 0.000000
# 4 0.000000 0.000000 0.000000 0.056978 0.000000 0.000000
# 5 0.000000 0.000000 0.000000 0.000000 0.058458 0.000000
# 6 0.000000 0.000000 0.000000 0.000000 0.000000 0.096528
#
#
# Mechanical properties :
#
#
# Convention : Reuss Voigt Hill
#
# Bulk Modulus (GPa) = 36.40823 59.57638 47.99230
# Shear Modulus (GPa) = 19.53504 55.59396 37.56450
#
# Velocity S-wave (km/s) = 3.04662 5.13955 4.22474
# Velocity P-wave (km/s) = 5.44747 7.97039 6.82649
#
# Compressibility (1/GPa) = 0.02746632
#
# Stress axis : x y z
#
# Youngs Moduli (GPa) = 61.68439 201.34177 100.29924
#
# Poissons Ratio (x) = 0.96099 0.05224
# Poissons Ratio (y) = 0.29442 -0.34630
# Poissons Ratio (z) = 0.03213 -0.69517
#
# Static dielectric constant tensor:
#      x y z
#    x 1.766500 0.000000 0.000000 
#    y 0.000000 1.778810 0.000000 
#    z 0.000000 0.000000 1.771320 
# 
# From -- ./inp_files/51442.got.cif
#   From: 2010.05.17/outbox.cif.g08.bks.cpg/sg72_26_cif.got.tgz:51442.got - 2010.06.03 17:03:01.
