data_PCOD9527970
_publ_section_title
;
Structure prediction by ZEFSAII (Michael W. Deem and Ramdas Pophale) SiO2 
 PCOD9527970
Probable space group: I B A M
;
_chemical_formula_sum "Si O2"
_cell_formula_units_Z 52
_cell_length_a 20.488305
_cell_length_b 5.144520
_cell_length_c 18.858376
_cell_angle_alpha 90.000000
_cell_angle_beta 90.000000
_cell_angle_gamma 90.000000
_cell_volume 1987.719879
_symmetry_space_group_name_H-M "I B A M"
_symmetry_group_IT_number 72
_symmetry_cell_setting 'orthorhombic'
loop_
_space_group_symop_operation_xyz
x,y,z
-x,-y,z
x,-y,1/2-z
-x,y,1/2-z
-x,-y,-z
x,y,-z
-x,y,1/2+z
x,-y,1/2+z
1/2+x,1/2+y,1/2+z
1/2-x,1/2-y,1/2+z
1/2+x,1/2-y,-z
1/2-x,1/2+y,-z
1/2-x,1/2-y,1/2-z
1/2+x,1/2+y,1/2-z
1/2-x,1/2+y,z
1/2+x,1/2-y,z
loop_
_atom_site_type_symbol
_atom_site_label
_atom_site_fract_x
_atom_site_fract_y
_atom_site_fract_z
Si Si1 0.893445 0.745108 0.348578
Si Si2 0.797432 0.408408 0.580991
Si Si3 0.500000 0.500000 0.750000
Si Si4 0.954162 0.756582 0.500000
Si Si5 0.795257 0.000000 0.750000
O O1 0.853365 0.473479 0.359980
O O2 0.912959 0.789097 0.429034
O O3 0.842514 0.943911 0.315390
O O4 0.956344 0.806452 0.299427
O O5 0.825275 0.401307 0.500000
O O6 0.751885 0.154854 0.585836
O O7 0.000000 0.500000 0.500000
O O8 0.000000 0.000000 0.500000
O O9 0.750000 0.750000 0.750000
#
# Coordination Sequence:
#
# PCOD9527970 Si02
#       5
#    16  16   4   8   8
#     4  11  23  48  73 107 148 195 254 312 377 461
#     4  10  21  38  67 102 135 174 226 295 370 431
#     4  10  24  46  74 100 146 204 246 298 378 464
#     4  12  28  48  76 108 148 200 262 323 382 449
#     4  11  26  47  76 111 154 199 246 310 398 477
#
# _framework density 26.160629
#
# number of rings (size 3 to 8) (size 9 to 14) (size 15 to 20)
#    0.000    1.231    3.077    1.846    0.000    4.923 
#    0.000    0.000    0.000    0.000    0.000    0.000 
#    0.000    0.000    0.000    0.000    0.000    0.000 
#
# Total GULP energy -145443.858397 kJ/mol
# GULP energy per Si atom -5593.994554 kJ/mol
# Density = 2.610109 g / cm^3
# Si number density = 26.160629 Si / 1000 Ang^3
#
#
#
# Elastic Constant Matrix: (Units=GPa)
#
#
# Indices 1 2 3 4 5 6 
#
# 1 143.4865 61.4474 94.5703 0.0000 0.0000 0.0000
# 2 61.4474 182.3194 47.4080 0.0000 0.0000 0.0000
# 3 94.5703 47.4080 200.1257 0.0000 0.0000 0.0000
# 4 0.0000 0.0000 0.0000 17.0777 0.0000 0.0000
# 5 0.0000 0.0000 0.0000 0.0000 65.2651 0.0000
# 6 0.0000 0.0000 0.0000 0.0000 0.0000 -10.6044
#
#
#
# Elastic Compliance Matrix: (Units=1/GPa)
#
#
# Indices 1 2 3 4 5 6 
#
# 1 0.011125 -0.002539 -0.004656 0.000000 0.000000 0.000000
# 2 -0.002539 0.006424 -0.000322 0.000000 0.000000 0.000000
# 3 -0.004656 -0.000322 0.007273 0.000000 0.000000 0.000000
# 4 0.000000 0.000000 0.000000 0.058556 0.000000 0.000000
# 5 0.000000 0.000000 0.000000 0.000000 0.015322 0.000000
# 6 0.000000 0.000000 0.000000 0.000000 0.000000 -0.094301
#
#
# Mechanical properties :
#
#
# Convention : Reuss Voigt Hill
#
# Bulk Modulus (GPa) = 102.15371 103.64256 102.89813
# Shear Modulus (GPa) = 220.29483 35.84808 128.07145
#
# Velocity S-wave (km/s) = 9.18648 3.70578 7.00443
# Velocity P-wave (km/s) = 12.31484 7.61670 10.23888
#
# Compressibility (1/GPa) = 0.00978917
#
# Stress axis : x y z
#
# Youngs Moduli (GPa) = 89.88644 155.65844 137.48955
#
# Poissons Ratio (x) = 0.39520 0.64012
# Poissons Ratio (y) = 0.22821 0.04429
# Poissons Ratio (z) = 0.41849 0.05014
#
# Static dielectric constant tensor:
#      x y z
#    x 2.073990 0.000000 0.000000 
#    y 0.000000 2.044760 0.000000 
#    z 0.000000 0.000000 2.211080 
# 
# From -- ./inp_files/39479.got.cif
#   From: 2010.05.17/outbox.cif.g08.bks.cpg/sg72_20_cif.got.tgz:39479.got - 2010.06.03 17:03:01.
