data_PCOD9527483
_publ_section_title
;
Structure prediction by ZEFSAII (Michael W. Deem and Ramdas Pophale) SiO2 
 PCOD9527483
Probable space group: I B A M
;
_chemical_formula_sum "Si O2"
_cell_formula_units_Z 64
_cell_length_a 8.609197
_cell_length_b 24.620911
_cell_length_c 13.769742
_cell_angle_alpha 90.000000
_cell_angle_beta 90.000000
_cell_angle_gamma 90.000000
_cell_volume 2918.720894
_symmetry_space_group_name_H-M "I B A M"
_symmetry_group_IT_number 72
_symmetry_cell_setting 'orthorhombic'
loop_
_space_group_symop_operation_xyz
x,y,z
-x,-y,z
x,-y,1/2-z
-x,y,1/2-z
-x,-y,-z
x,y,-z
-x,y,1/2+z
x,-y,1/2+z
1/2+x,1/2+y,1/2+z
1/2-x,1/2-y,1/2+z
1/2+x,1/2-y,-z
1/2-x,1/2+y,-z
1/2-x,1/2-y,1/2-z
1/2+x,1/2+y,1/2-z
1/2-x,1/2+y,z
1/2+x,1/2-y,z
loop_
_atom_site_type_symbol
_atom_site_label
_atom_site_fract_x
_atom_site_fract_y
_atom_site_fract_z
Si Si1 0.423375 0.670247 0.000000
Si Si2 0.626906 0.836827 0.671178
Si Si3 0.265255 0.733220 0.500000
Si Si4 0.636314 0.398194 0.813753
Si Si5 0.546943 0.941998 0.862629
O O1 0.557219 0.715137 0.000000
O O2 0.435364 0.635615 0.902329
O O3 0.261224 0.702579 0.000000
O O4 0.500000 0.816443 0.750000
O O5 0.688054 0.792742 0.596139
O O6 0.766245 0.860786 0.737891
O O7 0.545083 0.886747 0.611600
O O8 0.500000 0.424771 0.750000
O O9 0.768266 0.434944 0.863669
O O10 0.500000 0.944389 0.750000
O O11 0.500000 0.000000 0.903532
#
# Coordination Sequence:
#
# PCOD9527483 Si02
#       5
#     8  16   8  16  16
#     4  12  28  38  64  89 125 169 218 264 317 366
#     4   9  21  39  64  86 129 160 203 262 318 369
#     4  12  26  42  58  91 123 167 222 259 317 373
#     4  10  20  41  61  92 127 165 204 263 314 370
#     4   8  17  36  65  95 119 160 205 242 316 380
#
# _framework density 21.927413000000001
#
# number of rings (size 3 to 8) (size 9 to 14) (size 15 to 20)
#    0.000    2.750    2.500    0.000    7.000    2.000 
#    0.000   12.500    0.000    1.500    0.000    0.875 
#    0.000    0.000    0.000    0.000    0.000    0.000 
#
# Total GULP energy -178476.470088 kJ/mol
# GULP energy per Si atom -5577.389690 kJ/mol
# Density = 2.187751 g / cm^3
# Si number density = 21.927413 Si / 1000 Ang^3
#
#
#
# Elastic Constant Matrix: (Units=GPa)
#
#
# Indices 1 2 3 4 5 6 
#
# 1 81.5941 -1.8693 21.6986 0.0000 0.0000 0.0000
# 2 -1.8693 41.6884 14.4843 0.0000 0.0000 0.0000
# 3 21.6986 14.4843 110.5366 -0.0001 0.0000 0.0000
# 4 0.0000 0.0000 -0.0001 -13.5171 0.0000 0.0000
# 5 0.0000 0.0000 0.0000 0.0000 20.7248 0.0000
# 6 0.0000 0.0000 0.0000 0.0000 0.0000 26.7483
#
#
#
# Elastic Compliance Matrix: (Units=1/GPa)
#
#
# Indices 1 2 3 4 5 6 
#
# 1 0.013025 0.001543 -0.002759 0.000000 0.000000 0.000000
# 2 0.001543 0.025314 -0.003620 0.000000 0.000000 0.000000
# 3 -0.002759 -0.003620 0.010063 0.000000 0.000000 0.000000
# 4 0.000000 0.000000 0.000000 -0.073981 0.000000 0.000000
# 5 0.000000 0.000000 0.000000 0.000000 0.048251 0.000000
# 6 0.000000 0.000000 0.000000 0.000000 0.000000 0.037386
#
#
# Mechanical properties :
#
#
# Convention : Reuss Voigt Hill
#
# Bulk Modulus (GPa) = 25.82017 33.60515 29.71266
# Shear Modulus (GPa) = 60.50284 20.09156 40.29720
#
# Velocity S-wave (km/s) = 5.25854 3.03029 4.29155
# Velocity P-wave (km/s) = 6.97642 5.25380 6.17547
#
# Compressibility (1/GPa) = 0.03872941
#
# Stress axis : x y z
#
# Youngs Moduli (GPa) = 76.77647 39.50321 99.37681
#
# Poissons Ratio (x) = -0.06094 0.27418
# Poissons Ratio (y) = -0.11844 0.35974
# Poissons Ratio (z) = 0.21182 0.14300
#
# Static dielectric constant tensor:
#      x y z
#    x 1.845260 0.000000 0.000000 
#    y 0.000000 1.844750 0.000000 
#    z 0.000000 0.000000 1.778160 
# 
# From -- ./inp_files/18803.got.cif
#   From: 2010.05.17/outbox.cif.g08.bks.cpg/sg72_10_cif.got.tgz:18803.got - 2010.06.03 17:03:01.
