data_PCOD9527665
_publ_section_title
;
Structure prediction by ZEFSAII (Michael W. Deem and Ramdas Pophale) SiO2 
 PCOD9527665
Probable space group: I B A M
;
_chemical_formula_sum "Si O2"
_cell_formula_units_Z 96
_cell_length_a 19.037950
_cell_length_b 8.549964
_cell_length_c 24.790602
_cell_angle_alpha 90.000000
_cell_angle_beta 90.000000
_cell_angle_gamma 90.000000
_cell_volume 4035.260173
_symmetry_space_group_name_H-M "I B A M"
_symmetry_group_IT_number 72
_symmetry_cell_setting 'orthorhombic'
loop_
_space_group_symop_operation_xyz
x,y,z
-x,-y,z
x,-y,1/2-z
-x,y,1/2-z
-x,-y,-z
x,y,-z
-x,y,1/2+z
x,-y,1/2+z
1/2+x,1/2+y,1/2+z
1/2-x,1/2-y,1/2+z
1/2+x,1/2-y,-z
1/2-x,1/2+y,-z
1/2-x,1/2-y,1/2-z
1/2+x,1/2+y,1/2-z
1/2-x,1/2+y,z
1/2+x,1/2-y,z
loop_
_atom_site_type_symbol
_atom_site_label
_atom_site_fract_x
_atom_site_fract_y
_atom_site_fract_z
Si Si1 0.062315 0.096609 0.402424
Si Si2 0.908364 0.346632 0.711874
Si Si3 0.220274 0.834580 0.326478
Si Si4 0.461059 0.156039 0.409222
Si Si5 0.830695 0.164171 0.559454
Si Si6 0.355615 0.335051 0.197836
O O1 0.105812 0.188528 0.358390
O O2 0.012737 0.212958 0.433985
O O3 0.116325 0.983292 0.432141
O O4 0.000000 0.000000 0.372458
O O5 0.916927 0.500000 0.750000
O O6 0.830857 0.311535 0.687185
O O7 0.954361 0.339267 0.657126
O O8 0.910320 0.202981 0.754647
O O9 0.223342 0.842913 0.391230
O O10 0.294075 0.794254 0.300262
O O11 0.181867 0.994383 0.307099
O O12 0.383492 0.190009 0.431311
O O13 0.500000 0.000000 0.423391
O O14 0.800171 0.164876 0.500000
#
# Coordination Sequence:
#
# PCOD9527665 Si02
#       6
#    16  16  16  16  16  16
#     4   9  20  37  58  84 115 154 199 241 289 363
#     4  11  22  36  57  83 119 163 198 240 300 363
#     4  10  22  38  58  86 114 149 204 251 294 361
#     4  10  21  36  56  90 122 151 199 251 295 355
#     4   9  20  41  64  83 113 157 198 247 307 361
#     4  11  21  37  58  82 119 159 196 247 303 354
#
# _framework density 23.790286999999999
#
# number of rings (size 3 to 8) (size 9 to 14) (size 15 to 20)
#    0.000    2.000    0.000    4.000    0.000    7.000 
#    0.000    7.500    0.000    0.000    0.000    0.000 
#    0.000    0.000    0.000    0.000    0.000    0.000 
#
# Total GULP energy -267585.413715 kJ/mol
# GULP energy per Si atom -5574.696119 kJ/mol
# Density = 2.373614 g / cm^3
# Si number density = 23.790287 Si / 1000 Ang^3
#
#
#
# Elastic Constant Matrix: (Units=GPa)
#
#
# Indices 1 2 3 4 5 6 
#
# 1 47.3902 3.0973 2.6473 0.0000 0.0000 0.0000
# 2 3.0973 68.0346 2.0187 0.0000 0.0000 0.0000
# 3 2.6473 2.0187 148.2981 0.0000 0.0000 0.0000
# 4 0.0000 0.0000 0.0000 1.2568 0.0000 0.0000
# 5 0.0000 0.0000 0.0000 0.0000 9.0611 0.0000
# 6 0.0000 0.0000 0.0000 0.0000 0.0000 16.4783
#
#
#
# Elastic Compliance Matrix: (Units=1/GPa)
#
#
# Indices 1 2 3 4 5 6 
#
# 1 0.021184 -0.000954 -0.000365 0.000000 0.000000 0.000000
# 2 -0.000954 0.014747 -0.000184 0.000000 0.000000 0.000000
# 3 -0.000365 -0.000184 0.006752 0.000000 0.000000 0.000000
# 4 0.000000 0.000000 0.000000 0.795656 0.000000 0.000000
# 5 0.000000 0.000000 0.000000 0.000000 0.110362 0.000000
# 6 0.000000 0.000000 0.000000 0.000000 0.000000 0.060686
#
#
# Mechanical properties :
#
#
# Convention : Reuss Voigt Hill
#
# Bulk Modulus (GPa) = 25.20249 31.02772 28.11511
# Shear Modulus (GPa) = 4.87511 22.42323 13.64917
#
# Velocity S-wave (km/s) = 1.43306 3.07341 2.39786
# Velocity P-wave (km/s) = 3.65442 5.06606 4.41700
#
# Compressibility (1/GPa) = 0.03967861
#
# Stress axis : x y z
#
# Youngs Moduli (GPa) = 47.20515 67.80919 148.09998
#
# Poissons Ratio (x) = 0.06466 0.05408
# Poissons Ratio (y) = 0.04501 0.02721
# Poissons Ratio (z) = 0.01724 0.01246
#
# Static dielectric constant tensor:
#      x y z
#    x 1.867840 0.000000 0.000000 
#    y 0.000000 2.023530 0.000000 
#    z 0.000000 0.000000 1.928980 
# 
# From -- ./inp_files/45649.got.cif
#   From: 2010.05.17/outbox.cif.g08.bks.cpg/sg72_23_cif.got.tgz:45649.got - 2010.06.03 17:03:01.
