data_PCOD9527995
_publ_section_title
;
Structure prediction by ZEFSAII (Michael W. Deem and Ramdas Pophale) SiO2 
 PCOD9527995
Probable space group: I B A M
;
_chemical_formula_sum "Si O2"
_cell_formula_units_Z 104
_cell_length_a 20.574261
_cell_length_b 30.646340
_cell_length_c 8.750243
_cell_angle_alpha 90.000000
_cell_angle_beta 90.000000
_cell_angle_gamma 90.000000
_cell_volume 5517.253949
_symmetry_space_group_name_H-M "I B A M"
_symmetry_group_IT_number 72
_symmetry_cell_setting 'orthorhombic'
loop_
_space_group_symop_operation_xyz
x,y,z
-x,-y,z
x,-y,1/2-z
-x,y,1/2-z
-x,-y,-z
x,y,-z
-x,y,1/2+z
x,-y,1/2+z
1/2+x,1/2+y,1/2+z
1/2-x,1/2-y,1/2+z
1/2+x,1/2-y,-z
1/2-x,1/2+y,-z
1/2-x,1/2-y,1/2-z
1/2+x,1/2+y,1/2-z
1/2-x,1/2+y,z
1/2+x,1/2-y,z
loop_
_atom_site_type_symbol
_atom_site_label
_atom_site_fract_x
_atom_site_fract_y
_atom_site_fract_z
Si Si1 0.275890 0.794339 0.821643
Si Si2 0.904270 0.312032 0.167550
Si Si3 0.932573 0.412631 0.181556
Si Si4 0.000000 0.759625 0.250000
Si Si5 0.704751 0.952268 0.184600
Si Si6 0.698635 0.625120 0.317013
Si Si7 0.935362 0.844128 0.315282
O O1 0.250000 0.750000 0.750000
O O2 0.352669 0.797105 0.792224
O O3 0.243163 0.834538 0.734350
O O4 0.259955 0.796651 0.000000
O O5 0.927824 0.360483 0.208123
O O6 0.960534 0.276187 0.154161
O O7 0.871716 0.315316 0.000000
O O8 0.865847 0.434477 0.238367
O O9 0.000000 0.429398 0.250000
O O10 0.935179 0.418858 0.000000
O O11 0.056863 0.796617 0.270016
O O12 0.761446 0.918254 0.226653
O O13 0.716280 0.000000 0.250000
O O14 0.702843 0.953623 0.000000
O O15 0.689362 0.625500 0.500000
O O16 0.629948 0.632074 0.233596
O O17 0.938648 0.837621 0.500000
O O18 0.000000 0.867660 0.250000
#
# Coordination Sequence:
#
# PCOD9527995 Si02
#       7
#    16  16  16   8  16  16  16
#     4  12  25  38  57  85 121 164 211 257 311 371
#     4  11  21  37  57  80 119 161 208 258 304 361
#     4  10  21  39  60  87 121 162 207 256 310 365
#     4  10  22  34  58  84 120 164 218 252 306 362
#     4  10  23  43  67  95 126 161 204 263 325 387
#     4  11  22  42  67  91 125 164 210 265 323 379
#     4  10  22  38  59  89 126 166 209 255 308 370
#
# _framework density 18.849957
#
# number of rings (size 3 to 8) (size 9 to 14) (size 15 to 20)
#    0.462    0.923    2.308    3.692    0.000    4.000 
#    0.000    1.538    0.000    0.462    0.000    3.231 
#    0.000    0.000    0.000    0.000    0.000    0.000 
#
# Total GULP energy -289645.367743 kJ/mol
# GULP energy per Si atom -5570.103226 kJ/mol
# Density = 1.880705 g / cm^3
# Si number density = 18.849957 Si / 1000 Ang^3
#
#
#
# Elastic Constant Matrix: (Units=GPa)
#
#
# Indices 1 2 3 4 5 6 
#
# 1 127.9004 68.6548 47.4485 0.0000 0.0000 0.0000
# 2 68.6548 130.0445 28.4253 0.0000 0.0000 0.0000
# 3 47.4485 28.4253 42.4472 0.0000 0.0000 0.0000
# 4 0.0000 0.0000 0.0000 45.1267 0.0000 0.0000
# 5 0.0000 0.0000 0.0000 0.0000 22.4262 0.0000
# 6 0.0000 0.0000 0.0000 0.0000 0.0000 21.1754
#
#
#
# Elastic Compliance Matrix: (Units=1/GPa)
#
#
# Indices 1 2 3 4 5 6 
#
# 1 0.015972 -0.005306 -0.014301 0.000000 0.000000 0.000000
# 2 -0.005306 0.010771 -0.001281 0.000000 0.000000 0.000000
# 3 -0.014301 -0.001281 0.040402 0.000000 0.000000 0.000000
# 4 0.000000 0.000000 0.000000 0.022160 0.000000 0.000000
# 5 0.000000 0.000000 0.000000 0.000000 0.044591 0.000000
# 6 0.000000 0.000000 0.000000 0.000000 0.000000 0.047225
#
#
# Mechanical properties :
#
#
# Convention : Reuss Voigt Hill
#
# Bulk Modulus (GPa) = 39.41841 65.49437 52.45639
# Shear Modulus (GPa) = 21.61189 28.13657 24.87423
#
# Velocity S-wave (km/s) = 3.38971 3.86769 3.63656
# Velocity P-wave (km/s) = 6.02306 7.40040 6.74697
#
# Compressibility (1/GPa) = 0.02536886
#
# Stress axis : x y z
#
# Youngs Moduli (GPa) = 62.60869 92.84018 24.75102
#
# Poissons Ratio (x) = 0.49265 0.35396
# Poissons Ratio (y) = 0.33223 0.03172
# Poissons Ratio (z) = 0.89534 0.11897
#
# Static dielectric constant tensor:
#      x y z
#    x 1.699830 0.000000 0.000000 
#    y 0.000000 1.651430 0.000000 
#    z 0.000000 0.000000 1.896460 
# 
# From -- ./inp_files/6158.got.cif
#   From: 2010.05.17/outbox.cif.g08.bks.cpg/sg72_4_cif.got.tgz:6158.got - 2010.06.03 17:03:01.
