data_PCOD9527245
_publ_section_title
;
Structure prediction by ZEFSAII (Michael W. Deem and Ramdas Pophale) SiO2 
 PCOD9527245
Probable space group: I B A M
;
_chemical_formula_sum "Si O2"
_cell_formula_units_Z 112
_cell_length_a 27.042036
_cell_length_b 14.118587
_cell_length_c 14.286457
_cell_angle_alpha 90.000000
_cell_angle_beta 90.000000
_cell_angle_gamma 90.000000
_cell_volume 5454.502678
_symmetry_space_group_name_H-M "I B A M"
_symmetry_group_IT_number 72
_symmetry_cell_setting 'orthorhombic'
loop_
_space_group_symop_operation_xyz
x,y,z
-x,-y,z
x,-y,1/2-z
-x,y,1/2-z
-x,-y,-z
x,y,-z
-x,y,1/2+z
x,-y,1/2+z
1/2+x,1/2+y,1/2+z
1/2-x,1/2-y,1/2+z
1/2+x,1/2-y,-z
1/2-x,1/2+y,-z
1/2-x,1/2-y,1/2-z
1/2+x,1/2+y,1/2-z
1/2-x,1/2+y,z
1/2+x,1/2-y,z
loop_
_atom_site_type_symbol
_atom_site_label
_atom_site_fract_x
_atom_site_fract_y
_atom_site_fract_z
Si Si1 0.893030 0.375600 0.606179
Si Si2 0.555185 0.239151 0.244179
Si Si3 0.144633 0.112677 0.757445
Si Si4 0.235424 0.159463 0.107483
Si Si5 0.306686 0.904039 0.228856
Si Si6 0.547870 0.064748 0.390810
Si Si7 0.775235 0.869047 0.396033
O O1 0.879820 0.352869 0.500000
O O2 0.938275 0.314736 0.645196
O O3 0.848236 0.346928 0.674566
O O4 0.908710 0.485706 0.609694
O O5 0.500000 0.278601 0.250000
O O6 0.596114 0.321810 0.245306
O O7 0.558663 0.153900 0.322541
O O8 0.183577 0.130139 0.843691
O O9 0.176757 0.140888 0.666490
O O10 0.134199 0.000000 0.750000
O O11 0.279798 0.136256 0.180626
O O12 0.243813 0.272367 0.102133
O O13 0.239961 0.124306 0.000000
O O14 0.262572 0.935582 0.158849
O O15 0.334274 0.000000 0.250000
O O16 0.541265 0.094738 0.500000
O O17 0.500000 0.000000 0.364037
O O18 0.786843 0.899245 0.500000
#
# Coordination Sequence:
#
# PCOD9527245 Si02
#       7
#    16  16  16  16  16  16  16
#     4  11  23  38  61  96 134 170 209 263 336 409
#     4  12  24  40  67  91 122 169 221 278 330 387
#     4  11  25  42  60  90 130 177 228 272 321 383
#     4  10  21  39  65  91 122 163 213 270 329 389
#     4  11  21  34  55  88 126 160 198 245 308 386
#     4  10  21  40  65  96 131 165 207 265 342 414
#     4  10  20  37  62  88 118 158 207 266 325 381
#
# _framework density 20.533494000000001
#
# number of rings (size 3 to 8) (size 9 to 14) (size 15 to 20)
#    0.000    1.286    1.429    6.857    0.000    5.429 
#    0.000    3.571    0.000    0.000    0.000    4.000 
#    0.000    0.000    0.000    0.000    0.000    0.000 
#
# Total GULP energy -312280.652050 kJ/mol
# GULP energy per Si atom -5576.440215 kJ/mol
# Density = 2.048676 g / cm^3
# Si number density = 20.533494 Si / 1000 Ang^3
#
#
#
# Elastic Constant Matrix: (Units=GPa)
#
#
# Indices 1 2 3 4 5 6 
#
# 1 120.1311 44.5900 60.6117 0.0000 0.0000 0.0000
# 2 44.5900 111.9743 37.6194 0.0000 0.0000 0.0000
# 3 60.6117 37.6194 160.1947 0.0000 0.0000 0.0000
# 4 0.0000 0.0000 0.0000 12.4357 0.0000 0.0000
# 5 0.0000 0.0000 0.0000 0.0000 9.0421 0.0000
# 6 0.0000 0.0000 0.0000 0.0000 0.0000 29.6027
#
#
#
# Elastic Compliance Matrix: (Units=1/GPa)
#
#
# Indices 1 2 3 4 5 6 
#
# 1 0.011330 -0.003335 -0.003504 0.000000 0.000000 0.000000
# 2 -0.003335 0.010677 -0.001246 0.000000 0.000000 0.000000
# 3 -0.003504 -0.001246 0.007861 0.000000 0.000000 0.000000
# 4 0.000000 0.000000 0.000000 0.080414 0.000000 0.000000
# 5 0.000000 0.000000 0.000000 0.000000 0.110593 0.000000
# 6 0.000000 0.000000 0.000000 0.000000 0.000000 0.033781
#
#
# Mechanical properties :
#
#
# Convention : Reuss Voigt Hill
#
# Bulk Modulus (GPa) = 72.99531 75.32690 74.16111
# Shear Modulus (GPa) = 18.15611 26.84804 22.50208
#
# Velocity S-wave (km/s) = 2.97681 3.61989 3.31399
# Velocity P-wave (km/s) = 6.88780 7.36451 7.13014
#
# Compressibility (1/GPa) = 0.01369951
#
# Stress axis : x y z
#
# Youngs Moduli (GPa) = 88.26339 93.65931 127.21696
#
# Poissons Ratio (x) = 0.31231 0.44573
# Poissons Ratio (y) = 0.29432 0.15847
# Poissons Ratio (z) = 0.30925 0.11667
#
# Static dielectric constant tensor:
#      x y z
#    x 1.759780 0.000000 0.000000 
#    y 0.000000 1.796640 0.000000 
#    z 0.000000 0.000000 1.816340 
# 
# From -- ./inp_files/25940.got.cif
#   From: 2010.05.17/outbox.cif.g08.bks.cpg/sg72_13_cif.got.tgz:25940.got - 2010.06.03 17:03:01.
