data_PCOD9527676
_publ_section_title
;
Structure prediction by ZEFSAII (Michael W. Deem and Ramdas Pophale) SiO2 
 PCOD9527676
Probable space group: I B A M
;
_chemical_formula_sum "Si O2"
_cell_formula_units_Z 96
_cell_length_a 8.643178
_cell_length_b 26.100724
_cell_length_c 22.731004
_cell_angle_alpha 90.000000
_cell_angle_beta 90.000000
_cell_angle_gamma 90.000000
_cell_volume 5127.960010
_symmetry_space_group_name_H-M "I B A M"
_symmetry_group_IT_number 72
_symmetry_cell_setting 'orthorhombic'
loop_
_space_group_symop_operation_xyz
x,y,z
-x,-y,z
x,-y,1/2-z
-x,y,1/2-z
-x,-y,-z
x,y,-z
-x,y,1/2+z
x,-y,1/2+z
1/2+x,1/2+y,1/2+z
1/2-x,1/2-y,1/2+z
1/2+x,1/2-y,-z
1/2-x,1/2+y,-z
1/2-x,1/2-y,1/2-z
1/2+x,1/2+y,1/2-z
1/2-x,1/2+y,z
1/2+x,1/2-y,z
loop_
_atom_site_type_symbol
_atom_site_label
_atom_site_fract_x
_atom_site_fract_y
_atom_site_fract_z
Si Si1 0.091581 0.281762 0.312134
Si Si2 0.683066 0.998232 0.565044
Si Si3 0.720382 0.817115 0.644041
Si Si4 0.873857 0.895025 0.567050
Si Si5 0.101988 0.949822 0.656838
Si Si6 0.322539 0.362402 0.258894
O O1 0.178086 0.231136 0.334103
O O2 0.222687 0.324380 0.299576
O O3 0.000000 0.273974 0.250000
O O4 0.958168 0.300476 0.356489
O O5 0.732008 0.017432 0.500000
O O6 0.747958 0.940650 0.569111
O O7 0.500000 0.000000 0.568546
O O8 0.759914 0.030534 0.616218
O O9 0.792290 0.842654 0.586694
O O10 0.740271 0.859556 0.695769
O O11 0.933381 0.892687 0.500000
O O12 0.001137 0.911849 0.615189
O O13 0.162633 0.917938 0.712048
O O14 0.000000 0.000000 0.671653
O O15 0.500000 0.344975 0.250000
#
# Coordination Sequence:
#
# PCOD9527676 Si02
#       6
#    16  16  16  16  16  16
#     4  10  22  36  61  83 114 149 192 235 280 352
#     4   9  19  37  59  82 112 153 196 234 276 337
#     4  11  21  38  58  87 112 150 192 241 288 345
#     4  10  21  37  59  82 112 152 194 237 284 346
#     4  10  21  36  58  84 118 152 192 236 288 349
#     4  11  20  36  59  86 115 148 189 230 290 343
#
# _framework density 18.720894000000001
#
# number of rings (size 3 to 8) (size 9 to 14) (size 15 to 20)
#    0.000    1.833    1.667    4.000    2.333    2.333 
#    0.000    0.833    0.000    1.000    0.000    0.000 
#    0.000    0.000    0.000    0.000    0.000    0.000 
#
# Total GULP energy -267926.441238 kJ/mol
# GULP energy per Si atom -5581.800859 kJ/mol
# Density = 1.867828 g / cm^3
# Si number density = 18.720894 Si / 1000 Ang^3
#
#
#
# Elastic Constant Matrix: (Units=GPa)
#
#
# Indices 1 2 3 4 5 6 
#
# 1 85.2201 34.1340 14.8985 0.0000 0.0000 0.0000
# 2 34.1340 78.2728 36.0669 0.0000 0.0000 0.0000
# 3 14.8985 36.0669 45.4814 0.0000 0.0000 0.0000
# 4 0.0000 0.0000 0.0000 12.3952 0.0000 0.0000
# 5 0.0000 0.0000 0.0000 0.0000 15.8978 0.0000
# 6 0.0000 0.0000 0.0000 0.0000 0.0000 16.6743
#
#
#
# Elastic Compliance Matrix: (Units=1/GPa)
#
#
# Indices 1 2 3 4 5 6 
#
# 1 0.014223 -0.006391 0.000409 0.000000 0.000000 0.000000
# 2 -0.006391 0.023004 -0.016149 0.000000 0.000000 0.000000
# 3 0.000409 -0.016149 0.034659 0.000000 0.000000 0.000000
# 4 0.000000 0.000000 0.000000 0.080676 0.000000 0.000000
# 5 0.000000 0.000000 0.000000 0.000000 0.062902 0.000000
# 6 0.000000 0.000000 0.000000 0.000000 0.000000 0.059973
#
#
# Mechanical properties :
#
#
# Convention : Reuss Voigt Hill
#
# Bulk Modulus (GPa) = 36.19984 42.13037 39.16510
# Shear Modulus (GPa) = 15.20196 17.25179 16.22687
#
# Velocity S-wave (km/s) = 2.85271 3.03896 2.94730
# Velocity P-wave (km/s) = 5.49811 5.90483 5.70509
#
# Compressibility (1/GPa) = 0.02762443
#
# Stress axis : x y z
#
# Youngs Moduli (GPa) = 70.31073 43.47095 28.85253
#
# Poissons Ratio (x) = 0.27781 -0.01180
# Poissons Ratio (y) = 0.44934 0.46593
# Poissons Ratio (z) = -0.02875 0.70200
#
# Static dielectric constant tensor:
#      x y z
#    x 1.644570 0.000000 0.000000 
#    y 0.000000 1.656490 0.000000 
#    z 0.000000 0.000000 1.672580 
# 
# From -- ./inp_files/40669.got.cif
#   From: 2010.05.17/outbox.cif.g08.bks.cpg/sg72_21_cif.got.tgz:40669.got - 2010.06.03 17:03:01.
