data_PCOD9527293
_publ_section_title
;
Structure prediction by ZEFSAII (Michael W. Deem and Ramdas Pophale) SiO2 
 PCOD9527293
Probable space group: I B A M
;
_chemical_formula_sum "Si O2"
_cell_formula_units_Z 120
_cell_length_a 26.301888
_cell_length_b 28.453575
_cell_length_c 9.101908
_cell_angle_alpha 90.000000
_cell_angle_beta 90.000000
_cell_angle_gamma 90.000000
_cell_volume 6811.710874
_symmetry_space_group_name_H-M "I B A M"
_symmetry_group_IT_number 72
_symmetry_cell_setting 'orthorhombic'
loop_
_space_group_symop_operation_xyz
x,y,z
-x,-y,z
x,-y,1/2-z
-x,y,1/2-z
-x,-y,-z
x,y,-z
-x,y,1/2+z
x,-y,1/2+z
1/2+x,1/2+y,1/2+z
1/2-x,1/2-y,1/2+z
1/2+x,1/2-y,-z
1/2-x,1/2+y,-z
1/2-x,1/2-y,1/2-z
1/2+x,1/2+y,1/2-z
1/2-x,1/2+y,z
1/2+x,1/2-y,z
loop_
_atom_site_type_symbol
_atom_site_label
_atom_site_fract_x
_atom_site_fract_y
_atom_site_fract_z
Si Si1 0.263595 0.200306 0.822882
Si Si2 0.815760 0.950922 0.827266
Si Si3 0.675666 0.356886 0.668804
Si Si4 0.647846 0.858216 0.677038
Si Si5 0.554910 0.812233 0.827723
Si Si6 0.307136 0.950703 0.673553
Si Si7 0.981427 0.813641 0.000000
Si Si8 0.424201 0.703475 0.291518
O O1 0.250000 0.250000 0.750000
O O2 0.219160 0.165009 0.771660
O O3 0.314770 0.180164 0.750440
O O4 0.267461 0.202870 0.000000
O O5 0.838396 0.907148 0.738227
O O6 0.754250 0.946286 0.817018
O O7 0.829636 0.000000 0.750000
O O8 0.829217 0.950470 0.000000
O O9 0.694068 0.362480 0.500000
O O10 0.627817 0.322161 0.668419
O O11 0.649816 0.856482 0.500000
O O12 0.592116 0.846342 0.738945
O O13 0.667265 0.908013 0.739350
O O14 0.500000 0.810423 0.750000
O O15 0.577207 0.759370 0.820013
O O16 0.550318 0.824768 0.000000
O O17 0.320288 0.949726 0.500000
O O18 0.320831 0.000000 0.750000
O O19 0.938265 0.806042 0.125487
O O20 0.027578 0.815434 0.120694
#
# Coordination Sequence:
#
# PCOD9527293 Si02
#       8
#    16  16  16  16  16  16   8  16
#     4  12  25  41  55  80 120 161 198 236 290 359
#     4  10  21  37  59  86 118 153 193 243 296 351
#     4  12  23  36  59  88 120 156 195 239 297 355
#     4  12  25  39  60  87 119 160 199 240 297 353
#     4  12  22  39  61  86 121 156 205 253 293 344
#     4  10  20  38  62  86 117 153 196 243 293 351
#     4  10  20  38  58  82 117 150 205 250 288 348
#     4  11  21  37  59  85 117 154 200 248 297 340
#
# _framework density 17.616719
#
# number of rings (size 3 to 8) (size 9 to 14) (size 15 to 20)
#    0.000    0.800    4.000    4.800    2.800    1.067 
#    0.000    0.000    0.000    0.400    0.000    5.600 
#    0.000    0.000    0.000    0.000    0.000    0.000 
#
# Total GULP energy -334030.594400 kJ/mol
# GULP energy per Si atom -5567.176573 kJ/mol
# Density = 1.757662 g / cm^3
# Si number density = 17.616719 Si / 1000 Ang^3
#
#
#
# Elastic Constant Matrix: (Units=GPa)
#
#
# Indices 1 2 3 4 5 6 
#
# 1 49.9204 21.1264 27.2556 0.0000 0.0000 0.0000
# 2 21.1264 81.4234 42.7664 0.0000 0.0000 0.0000
# 3 27.2556 42.7664 206.4865 0.0000 0.0000 0.0000
# 4 0.0000 0.0000 0.0000 36.0241 0.0000 0.0000
# 5 0.0000 0.0000 0.0000 0.0000 136.6744 0.0000
# 6 0.0000 0.0000 0.0000 0.0000 0.0000 12.3200
#
#
#
# Elastic Compliance Matrix: (Units=1/GPa)
#
#
# Indices 1 2 3 4 5 6 
#
# 1 0.023245 -0.004959 -0.002041 0.000000 0.000000 0.000000
# 2 -0.004959 0.014839 -0.002419 0.000000 0.000000 0.000000
# 3 -0.002041 -0.002419 0.005613 0.000000 0.000000 0.000000
# 4 0.000000 0.000000 0.000000 0.027759 0.000000 0.000000
# 5 0.000000 0.000000 0.000000 0.000000 0.007317 0.000000
# 6 0.000000 0.000000 0.000000 0.000000 0.000000 0.081169
#
#
# Mechanical properties :
#
#
# Convention : Reuss Voigt Hill
#
# Bulk Modulus (GPa) = 40.22698 57.79190 49.00944
# Shear Modulus (GPa) = 26.72859 53.44917 40.08888
#
# Velocity S-wave (km/s) = 3.89939 5.51415 4.77552
# Velocity P-wave (km/s) = 6.56946 8.56840 7.63463
#
# Compressibility (1/GPa) = 0.02485894
#
# Stress axis : x y z
#
# Youngs Moduli (GPa) = 43.01988 67.39188 178.14805
#
# Poissons Ratio (x) = 0.33421 0.36363
# Poissons Ratio (y) = 0.21334 0.43089
# Poissons Ratio (z) = 0.08781 0.16300
#
# Static dielectric constant tensor:
#      x y z
#    x 1.580030 0.000000 0.000000 
#    y 0.000000 1.616600 0.000000 
#    z 0.000000 0.000000 1.606110 
# 
# From -- ./inp_files/7236.got.cif
#   From: 2010.05.17/outbox.cif.g08.bks.cpg/sg72_4_cif.got.tgz:7236.got - 2010.06.03 17:03:01.
