data_PCOD9527955
_publ_section_title
;
Structure prediction by ZEFSAII (Michael W. Deem and Ramdas Pophale) SiO2 
 PCOD9527955
Probable space group: I B A M
;
_chemical_formula_sum "Si O2"
_cell_formula_units_Z 96
_cell_length_a 18.867161
_cell_length_b 14.482112
_cell_length_c 14.723121
_cell_angle_alpha 90.000000
_cell_angle_beta 90.000000
_cell_angle_gamma 90.000000
_cell_volume 4022.891677
_symmetry_space_group_name_H-M "I B A M"
_symmetry_group_IT_number 72
_symmetry_cell_setting 'orthorhombic'
loop_
_space_group_symop_operation_xyz
x,y,z
-x,-y,z
x,-y,1/2-z
-x,y,1/2-z
-x,-y,-z
x,y,-z
-x,y,1/2+z
x,-y,1/2+z
1/2+x,1/2+y,1/2+z
1/2-x,1/2-y,1/2+z
1/2+x,1/2-y,-z
1/2-x,1/2+y,-z
1/2-x,1/2-y,1/2-z
1/2+x,1/2+y,1/2-z
1/2-x,1/2+y,z
1/2+x,1/2-y,z
loop_
_atom_site_type_symbol
_atom_site_label
_atom_site_fract_x
_atom_site_fract_y
_atom_site_fract_z
Si Si1 0.416272 0.394450 0.239704
Si Si2 0.322713 0.637668 0.098551
Si Si3 0.699428 0.849743 0.600348
Si Si4 0.466547 0.902002 0.891515
Si Si5 0.699676 0.093138 0.288134
Si Si6 0.093069 0.730518 0.109856
O O1 0.390456 0.500000 0.250000
O O2 0.500000 0.396831 0.250000
O O3 0.383828 0.349136 0.328911
O O4 0.400206 0.332878 0.151322
O O5 0.292024 0.740448 0.090858
O O6 0.260627 0.574213 0.138368
O O7 0.347818 0.606460 0.000000
O O8 0.717762 0.889412 0.500000
O O9 0.616595 0.877371 0.620101
O O10 0.736599 0.869844 0.696332
O O11 0.517139 0.816399 0.865858
O O12 0.500000 0.000000 0.856867
O O13 0.473650 0.908526 0.000000
O O14 0.647171 0.163376 0.336902
O O15 0.665041 0.000000 0.250000
O O16 0.102961 0.728712 0.000000
#
# Coordination Sequence:
#
# PCOD9527955 Si02
#       6
#    16  16  16  16  16  16
#     4  11  25  46  73 104 137 180 242 304 359 424
#     4  11  24  46  70  95 136 183 233 292 357 428
#     4  10  21  38  64  92 130 184 232 283 352 422
#     4   9  18  35  61  98 141 184 231 285 356 434
#     4  12  25  42  67 101 142 185 235 294 356 432
#     4  11  24  42  68 105 148 190 238 297 360 430
#
# _framework density 23.863432
#
# number of rings (size 3 to 8) (size 9 to 14) (size 15 to 20)
#    0.000    1.333    1.667    3.500    0.000    5.333 
#    0.000    3.333    0.000    0.000    0.000    0.000 
#    0.000    0.000    0.000    0.000    0.000    0.000 
#
# Total GULP energy -267875.590544 kJ/mol
# GULP energy per Si atom -5580.741470 kJ/mol
# Density = 2.380912 g / cm^3
# Si number density = 23.863432 Si / 1000 Ang^3
#
#
#
# Elastic Constant Matrix: (Units=GPa)
#
#
# Indices 1 2 3 4 5 6 
#
# 1 40.0365 6.7579 12.0429 0.0000 0.0000 0.0000
# 2 6.7579 128.1359 48.9389 0.0000 0.0000 0.0000
# 3 12.0429 48.9389 176.1198 0.0000 0.0000 0.0000
# 4 0.0000 0.0000 0.0000 29.9268 0.0000 0.0000
# 5 0.0000 0.0000 0.0000 0.0000 8.8214 0.0000
# 6 0.0000 0.0000 0.0000 0.0000 0.0000 26.8206
#
#
#
# Elastic Compliance Matrix: (Units=1/GPa)
#
#
# Indices 1 2 3 4 5 6 
#
# 1 0.025568 -0.000762 -0.001537 0.000000 0.000000 0.000000
# 2 -0.000762 0.008753 -0.002380 0.000000 0.000000 0.000000
# 3 -0.001537 -0.002380 0.006444 0.000000 0.000000 0.000000
# 4 0.000000 0.000000 0.000000 0.033415 0.000000 0.000000
# 5 0.000000 0.000000 0.000000 0.000000 0.113361 0.000000
# 6 0.000000 0.000000 0.000000 0.000000 0.000000 0.037285
#
#
# Mechanical properties :
#
#
# Convention : Reuss Voigt Hill
#
# Bulk Modulus (GPa) = 31.83814 53.30796 42.57305
# Shear Modulus (GPa) = 20.43711 31.55060 25.99386
#
# Velocity S-wave (km/s) = 2.92964 3.64006 3.30400
# Velocity P-wave (km/s) = 4.98141 6.32882 5.69511
#
# Compressibility (1/GPa) = 0.03140887
#
# Stress axis : x y z
#
# Youngs Moduli (GPa) = 39.11137 114.24032 155.17231
#
# Poissons Ratio (x) = 0.08700 0.23845
# Poissons Ratio (y) = 0.02978 0.36935
# Poissons Ratio (z) = 0.06010 0.27192
#
# Static dielectric constant tensor:
#      x y z
#    x 1.964480 0.000000 0.000000 
#    y 0.000000 1.995000 0.000000 
#    z 0.000000 0.000000 2.030870 
# 
# From -- ./inp_files/24120.got.cif
#   From: 2010.05.17/outbox.cif.g08.bks.cpg/sg72_13_cif.got.tgz:24120.got - 2010.06.03 17:03:01.
