data_PCOD9527271
_publ_section_title
;
Structure prediction by ZEFSAII (Michael W. Deem and Ramdas Pophale) SiO2 
 PCOD9527271
Probable space group: I B A M
;
_chemical_formula_sum "Si O2"
_cell_formula_units_Z 48
_cell_length_a 21.149248
_cell_length_b 7.722161
_cell_length_c 12.199878
_cell_angle_alpha 90.000000
_cell_angle_beta 90.000000
_cell_angle_gamma 90.000000
_cell_volume 1992.458432
_symmetry_space_group_name_H-M "I B A M"
_symmetry_group_IT_number 72
_symmetry_cell_setting 'orthorhombic'
loop_
_space_group_symop_operation_xyz
x,y,z
-x,-y,z
x,-y,1/2-z
-x,y,1/2-z
-x,-y,-z
x,y,-z
-x,y,1/2+z
x,-y,1/2+z
1/2+x,1/2+y,1/2+z
1/2-x,1/2-y,1/2+z
1/2+x,1/2-y,-z
1/2-x,1/2+y,-z
1/2-x,1/2-y,1/2-z
1/2+x,1/2+y,1/2-z
1/2-x,1/2+y,z
1/2+x,1/2-y,z
loop_
_atom_site_type_symbol
_atom_site_label
_atom_site_fract_x
_atom_site_fract_y
_atom_site_fract_z
Si Si1 0.803318 0.146981 0.114756
Si Si2 0.164689 0.747716 0.342050
Si Si3 0.019531 0.699542 0.375627
O O1 0.830914 0.260552 0.211176
O O2 0.727187 0.149857 0.118728
O O3 0.823992 0.949237 0.128384
O O4 0.825557 0.217757 0.000000
O O5 0.095447 0.701771 0.377979
O O6 0.998939 0.770022 0.500000
O O7 0.000000 0.500000 0.374067
O O8 0.000000 0.770480 0.250000
#
# Coordination Sequence:
#
# PCOD9527271 Si02
#       3
#    16  16  16
#     4  10  20  37  64  93 125 157 189 246 311 369
#     4  10  22  38  60  94 124 155 201 246 303 367
#     4  10  22  40  62  87 118 159 207 254 296 351
#
# _framework density 24.090841000000001
#
# number of rings (size 3 to 8) (size 9 to 14) (size 15 to 20)
#    0.000    2.000    0.000    3.000    0.000   12.000 
#    0.000   10.000    0.000   10.000    0.000    0.000 
#    0.000    0.000    0.000    0.000    0.000    0.000 
#
# Total GULP energy -133895.481212 kJ/mol
# GULP energy per Si atom -5578.978384 kJ/mol
# Density = 2.403601 g / cm^3
# Si number density = 24.090841 Si / 1000 Ang^3
#
#
#
# Elastic Constant Matrix: (Units=GPa)
#
#
# Indices 1 2 3 4 5 6 
#
# 1 127.1112 28.2125 18.9018 0.0000 0.0000 0.0000
# 2 28.2125 39.7935 -1.2949 0.0000 0.0000 0.0000
# 3 18.9018 -1.2949 276.0455 0.0000 0.0000 0.0000
# 4 0.0000 0.0000 0.0000 -27.2925 0.0000 0.0000
# 5 0.0000 0.0000 0.0000 0.0000 -118.8781 0.0000
# 6 0.0000 0.0000 0.0000 0.0000 0.0000 -74.2310
#
#
#
# Elastic Compliance Matrix: (Units=1/GPa)
#
#
# Indices 1 2 3 4 5 6 
#
# 1 0.009462 -0.006730 -0.000679 0.000000 0.000000 0.000000
# 2 -0.006730 0.029921 0.000601 0.000000 0.000000 0.000000
# 3 -0.000679 0.000601 0.003672 0.000000 0.000000 0.000000
# 4 0.000000 0.000000 0.000000 -0.036640 0.000000 0.000000
# 5 0.000000 0.000000 0.000000 0.000000 -0.008412 0.000000
# 6 0.000000 0.000000 0.000000 0.000000 0.000000 -0.013471
#
#
# Mechanical properties :
#
#
# Convention : Reuss Voigt Hill
#
# Bulk Modulus (GPa) = 33.97020 59.39876 46.68448
# Shear Modulus (GPa) = 628.05371 -17.60491 305.22440
#
# Velocity S-wave (km/s) = 16.16379 -2.70621 11.26820
# Velocity P-wave (km/s) = 19.03915 3.86586 13.73743
#
# Compressibility (1/GPa) = 0.02943757
#
# Stress axis : x y z
#
# Youngs Moduli (GPa) = 105.68607 33.42141 272.33590
#
# Poissons Ratio (x) = 0.22494 0.18504
# Poissons Ratio (y) = 0.71131 -0.16373
# Poissons Ratio (z) = 0.07181 -0.02009
#
# Static dielectric constant tensor:
#      x y z
#    x 1.847430 0.000000 0.000000 
#    y 0.000000 1.851540 0.000000 
#    z 0.000000 0.000000 2.141870 
# 
# From -- ./inp_files/15163.got.cif
#   From: 2010.05.17/outbox.cif.g08.bks.cpg/sg72_8_cif.got.tgz:15163.got - 2010.06.03 17:03:01.
