data_PCOD9527188
_publ_section_title
;
Structure prediction by ZEFSAII (Michael W. Deem and Ramdas Pophale) SiO2 
 PCOD9527188
Probable space group: I B A M
;
_chemical_formula_sum "Si O2"
_cell_formula_units_Z 96
_cell_length_a 28.346191
_cell_length_b 9.719053
_cell_length_c 18.616344
_cell_angle_alpha 90.000000
_cell_angle_beta 90.000000
_cell_angle_gamma 90.000000
_cell_volume 5128.768009
_symmetry_space_group_name_H-M "I B A M"
_symmetry_group_IT_number 72
_symmetry_cell_setting 'orthorhombic'
loop_
_space_group_symop_operation_xyz
x,y,z
-x,-y,z
x,-y,1/2-z
-x,y,1/2-z
-x,-y,-z
x,y,-z
-x,y,1/2+z
x,-y,1/2+z
1/2+x,1/2+y,1/2+z
1/2-x,1/2-y,1/2+z
1/2+x,1/2-y,-z
1/2-x,1/2+y,-z
1/2-x,1/2-y,1/2-z
1/2+x,1/2+y,1/2-z
1/2-x,1/2+y,z
1/2+x,1/2-y,z
loop_
_atom_site_type_symbol
_atom_site_label
_atom_site_fract_x
_atom_site_fract_y
_atom_site_fract_z
Si Si1 0.881229 0.760233 0.586875
Si Si2 0.970921 0.377610 0.676030
Si Si3 0.206074 0.280794 0.087252
Si Si4 0.988360 0.840568 0.417287
Si Si5 0.364266 0.023539 0.670666
Si Si6 0.297626 0.461195 0.086822
O O1 0.877714 0.741007 0.500000
O O2 0.934854 0.803125 0.604293
O O3 0.867641 0.619690 0.627106
O O4 0.845528 0.882721 0.607914
O O5 0.917302 0.421500 0.683656
O O6 0.000000 0.500000 0.637304
O O7 0.000000 0.358387 0.750000
O O8 0.975446 0.241540 0.630859
O O9 0.164348 0.365014 0.124863
O O10 0.253829 0.363289 0.106726
O O11 0.207076 0.120197 0.110144
O O12 0.201232 0.285100 0.000000
O O13 0.993562 0.798571 0.500000
O O14 0.000000 0.000000 0.411963
O O15 0.342977 0.000000 0.750000
O O16 0.297633 0.466717 0.000000
#
# Coordination Sequence:
#
# PCOD9527188 Si02
#       6
#    16  16  16  16  16  16
#     4  10  20  37  59  84 117 154 189 235 292 348
#     4  11  21  41  59  79 114 159 201 235 281 348
#     4  10  21  38  63  90 115 151 193 239 290 347
#     4  10  22  36  56  88 120 147 187 245 296 338
#     4  12  23  38  59  85 116 153 199 244 286 339
#     4   9  19  38  63  90 119 150 192 235 286 356
#
# _framework density 18.717945
#
# number of rings (size 3 to 8) (size 9 to 14) (size 15 to 20)
#    0.000    1.667    3.333    1.500    2.333    4.667 
#    0.000    4.167    0.000    0.000    0.000    0.000 
#    0.000    0.000    0.000    0.000    0.000    0.000 
#
# Total GULP energy -267824.702343 kJ/mol
# GULP energy per Si atom -5579.681299 kJ/mol
# Density = 1.867534 g / cm^3
# Si number density = 18.717945 Si / 1000 Ang^3
#
#
#
# Elastic Constant Matrix: (Units=GPa)
#
#
# Indices 1 2 3 4 5 6 
#
# 1 74.5441 54.2466 20.2379 0.0000 0.0000 0.0000
# 2 54.2466 136.3141 52.3982 0.0000 0.0000 0.0000
# 3 20.2379 52.3982 35.8846 0.0000 0.0000 0.0000
# 4 0.0000 0.0000 0.0000 10.7824 0.0000 0.0000
# 5 0.0000 0.0000 0.0000 0.0000 21.9151 0.0000
# 6 0.0000 0.0000 0.0000 0.0000 0.0000 34.5839
#
#
#
# Elastic Compliance Matrix: (Units=1/GPa)
#
#
# Indices 1 2 3 4 5 6 
#
# 1 0.018892 -0.007801 0.000737 0.000000 0.000000 0.000000
# 2 -0.007801 0.019943 -0.024721 0.000000 0.000000 0.000000
# 3 0.000737 -0.024721 0.063549 0.000000 0.000000 0.000000
# 4 0.000000 0.000000 0.000000 0.092744 0.000000 0.000000
# 5 0.000000 0.000000 0.000000 0.000000 0.045631 0.000000
# 6 0.000000 0.000000 0.000000 0.000000 0.000000 0.028915
#
#
# Mechanical properties :
#
#
# Convention : Reuss Voigt Hill
#
# Bulk Modulus (GPa) = 25.76448 55.61201 40.68824
# Shear Modulus (GPa) = 14.44324 21.44693 17.94508
#
# Velocity S-wave (km/s) = 2.78083 3.38863 3.09966
# Velocity P-wave (km/s) = 4.90970 6.71457 5.88178
#
# Compressibility (1/GPa) = 0.03881313
#
# Stress axis : x y z
#
# Youngs Moduli (GPa) = 52.93254 50.14243 15.73592
#
# Poissons Ratio (x) = 0.39118 -0.01160
# Poissons Ratio (y) = 0.41295 0.38901
# Poissons Ratio (z) = -0.03901 1.23957
#
# Static dielectric constant tensor:
#      x y z
#    x 1.648030 0.000000 0.000000 
#    y 0.000000 1.651110 0.000000 
#    z 0.000000 0.000000 1.644730 
# 
# From -- ./inp_files/36001.got.cif
#   From: 2010.05.17/outbox.cif.g08.bks.cpg/sg72_19_cif.got.tgz:36001.got - 2010.06.03 17:03:01.
