data_PCOD9527993
_publ_section_title
;
Structure prediction by ZEFSAII (Michael W. Deem and Ramdas Pophale) SiO2 
 PCOD9527993
Probable space group: I B A M
;
_chemical_formula_sum "Si O2"
_cell_formula_units_Z 88
_cell_length_a 21.909221
_cell_length_b 22.327283
_cell_length_c 9.847596
_cell_angle_alpha 90.000000
_cell_angle_beta 90.000000
_cell_angle_gamma 90.000000
_cell_volume 4817.181796
_symmetry_space_group_name_H-M "I B A M"
_symmetry_group_IT_number 72
_symmetry_cell_setting 'orthorhombic'
loop_
_space_group_symop_operation_xyz
x,y,z
-x,-y,z
x,-y,1/2-z
-x,y,1/2-z
-x,-y,-z
x,y,-z
-x,y,1/2+z
x,-y,1/2+z
1/2+x,1/2+y,1/2+z
1/2-x,1/2-y,1/2+z
1/2+x,1/2-y,-z
1/2-x,1/2+y,-z
1/2-x,1/2-y,1/2-z
1/2+x,1/2+y,1/2-z
1/2-x,1/2+y,z
1/2+x,1/2-y,z
loop_
_atom_site_type_symbol
_atom_site_label
_atom_site_fract_x
_atom_site_fract_y
_atom_site_fract_z
Si Si1 0.187209 0.375501 0.231364
Si Si2 0.356271 0.680226 0.000000
Si Si3 0.239306 0.548839 0.500000
Si Si4 0.430238 0.693569 0.727486
Si Si5 0.731959 0.213787 0.000000
Si Si6 0.151464 0.145523 0.500000
Si Si7 0.260682 0.408246 0.500000
Si Si8 0.941034 0.332978 0.841716
O O1 0.207423 0.320161 0.134668
O O2 0.228274 0.383189 0.364605
O O3 0.118379 0.364844 0.279373
O O4 0.200624 0.431504 0.132199
O O5 0.395826 0.695388 0.130267
O O6 0.330556 0.613292 0.000000
O O7 0.295684 0.720983 0.000000
O O8 0.300675 0.590526 0.500000
O O9 0.254515 0.479597 0.500000
O O10 0.500000 0.674391 0.750000
O O11 0.391808 0.650588 0.629623
O O12 0.431773 0.760937 0.667785
O O13 0.804300 0.204188 0.000000
O O14 0.000000 0.346898 0.750000
O O15 0.949329 0.348774 0.000000
#
# Coordination Sequence:
#
# PCOD9527993 Si02
#       8
#    16   8   8  16   8   8   8  16
#     4  10  21  39  60  87 121 154 195 251 302 364
#     4  12  23  34  60  89 126 156 199 250 291 372
#     4  10  24  43  63  82 116 160 202 257 314 349
#     4  11  23  36  57  88 127 162 194 237 299 369
#     4  10  22  34  57  92 126 156 187 243 321 358
#     4  10  21  40  58  83 121 159 193 259 296 357
#     4  12  24  39  62  90 111 160 208 249 304 358
#     4  11  23  36  60  91 128 162 197 237 295 375
#
# _framework density 18.267944
#
# number of rings (size 3 to 8) (size 9 to 14) (size 15 to 20)
#    0.000    1.455    3.636    3.273    8.909    1.455 
#    0.000    0.000    0.000    6.545    0.000    0.000 
#    0.000    0.000    0.000    0.000    0.000    0.000 
#
# Total GULP energy -245743.399967 kJ/mol
# GULP energy per Si atom -5585.077272 kJ/mol
# Density = 1.822636 g / cm^3
# Si number density = 18.267944 Si / 1000 Ang^3
#
#
#
# Elastic Constant Matrix: (Units=GPa)
#
#
# Indices 1 2 3 4 5 6 
#
# 1 139.8421 35.6289 61.8811 0.0000 0.0000 0.0000
# 2 35.6289 62.7328 31.0605 0.0000 0.0000 0.0000
# 3 61.8811 31.0605 160.0655 0.0000 0.0000 0.0000
# 4 0.0000 0.0000 0.0000 -15.2752 0.0000 0.0000
# 5 0.0000 0.0000 0.0000 0.0000 35.8391 0.0000
# 6 0.0000 0.0000 0.0000 0.0000 0.0000 14.7513
#
#
#
# Elastic Compliance Matrix: (Units=1/GPa)
#
#
# Indices 1 2 3 4 5 6 
#
# 1 0.009427 -0.003927 -0.002882 0.000000 0.000000 0.000000
# 2 -0.003927 0.019271 -0.002221 0.000000 0.000000 0.000000
# 3 -0.002882 -0.002221 0.007793 0.000000 0.000000 0.000000
# 4 0.000000 0.000000 0.000000 -0.065465 0.000000 0.000000
# 5 0.000000 0.000000 0.000000 0.000000 0.027902 0.000000
# 6 0.000000 0.000000 0.000000 0.000000 0.000000 0.067791
#
#
# Mechanical properties :
#
#
# Convention : Reuss Voigt Hill
#
# Bulk Modulus (GPa) = 54.26165 68.86461 61.56313
# Shear Modulus (GPa) = 54.99203 22.66770 38.82986
#
# Velocity S-wave (km/s) = 5.49257 3.52639 4.61540
# Velocity P-wave (km/s) = 8.36613 7.37288 7.88516
#
# Compressibility (1/GPa) = 0.01842922
#
# Stress axis : x y z
#
# Youngs Moduli (GPa) = 106.07951 51.89230 128.32299
#
# Poissons Ratio (x) = 0.20377 0.36988
# Poissons Ratio (y) = 0.41655 0.28505
# Poissons Ratio (z) = 0.30577 0.11527
#
# Static dielectric constant tensor:
#      x y z
#    x 1.611670 0.000000 0.000000 
#    y 0.000000 1.615300 0.000000 
#    z 0.000000 0.000000 1.632010 
# 
# From -- ./inp_files/5823.got.cif
#   From: 2010.05.17/outbox.cif.g08.bks.cpg/sg72_3_cif.got.tgz:5823.got - 2010.06.03 17:03:01.
