data_PCOD9527232
_publ_section_title
;
Structure prediction by ZEFSAII (Michael W. Deem and Ramdas Pophale) SiO2 
 PCOD9527232
Probable space group: I B A M
;
_chemical_formula_sum "Si O2"
_cell_formula_units_Z 80
_cell_length_a 11.069652
_cell_length_b 24.801740
_cell_length_c 14.397525
_cell_angle_alpha 90.000000
_cell_angle_beta 90.000000
_cell_angle_gamma 90.000000
_cell_volume 3952.791981
_symmetry_space_group_name_H-M "I B A M"
_symmetry_group_IT_number 72
_symmetry_cell_setting 'orthorhombic'
loop_
_space_group_symop_operation_xyz
x,y,z
-x,-y,z
x,-y,1/2-z
-x,y,1/2-z
-x,-y,-z
x,y,-z
-x,y,1/2+z
x,-y,1/2+z
1/2+x,1/2+y,1/2+z
1/2-x,1/2-y,1/2+z
1/2+x,1/2-y,-z
1/2-x,1/2+y,-z
1/2-x,1/2-y,1/2-z
1/2+x,1/2+y,1/2-z
1/2-x,1/2+y,z
1/2+x,1/2-y,z
loop_
_atom_site_type_symbol
_atom_site_label
_atom_site_fract_x
_atom_site_fract_y
_atom_site_fract_z
Si Si1 0.234137 0.913891 0.892856
Si Si2 0.028237 0.866228 0.646236
Si Si3 0.705183 0.722508 0.604229
Si Si4 0.640746 0.825226 0.271996
Si Si5 0.629731 0.524136 0.611861
O O1 0.309887 0.879243 0.820431
O O2 0.096843 0.889722 0.893430
O O3 0.222969 0.976920 0.864231
O O4 0.277870 0.910782 0.000000
O O5 0.087344 0.815443 0.598022
O O6 0.124975 0.915375 0.649112
O O7 0.000000 0.848467 0.750000
O O8 0.754456 0.730100 0.500000
O O9 0.670704 0.778399 0.653182
O O10 0.792458 0.691791 0.676648
O O11 0.500000 0.828353 0.250000
O O12 0.500000 0.500000 0.639792
O O13 0.631756 0.528861 0.500000
#
# Coordination Sequence:
#
# PCOD9527232 Si02
#       5
#    16  16  16  16  16
#     4  10  20  37  61  90 127 164 201 254 313 370
#     4  11  19  35  60  97 128 159 199 259 314 374
#     4  11  24  41  63  89 123 165 205 258 317 368
#     4  11  25  43  60  89 123 164 217 256 299 377
#     4   8  16  30  53  88 122 152 190 241 308 368
#
# _framework density 20.238859000000001
#
# number of rings (size 3 to 8) (size 9 to 14) (size 15 to 20)
#    0.000    1.800    2.000    4.200    2.800    5.200 
#    0.000    0.000    0.000    2.400    0.000    4.200 
#    0.000    0.000    0.000    0.000    0.000    0.000 
#
# Total GULP energy -223297.112584 kJ/mol
# GULP energy per Si atom -5582.427815 kJ/mol
# Density = 2.019279 g / cm^3
# Si number density = 20.238859 Si / 1000 Ang^3
#
#
#
# Elastic Constant Matrix: (Units=GPa)
#
#
# Indices 1 2 3 4 5 6 
#
# 1 62.6700 25.9216 42.1637 0.0000 0.0000 0.0000
# 2 25.9216 67.3895 40.0945 -0.0001 0.0000 0.0000
# 3 42.1637 40.0945 155.4342 -0.0001 -0.0001 0.0000
# 4 0.0000 -0.0001 -0.0001 29.2056 0.0000 0.0000
# 5 0.0000 0.0000 -0.0001 0.0000 2.5123 0.0000
# 6 0.0000 0.0000 0.0000 0.0000 0.0000 18.0128
#
#
#
# Elastic Compliance Matrix: (Units=1/GPa)
#
#
# Indices 1 2 3 4 5 6 
#
# 1 0.021158 -0.005580 -0.004300 0.000000 0.000000 0.000000
# 2 -0.005580 0.019001 -0.003388 0.000000 0.000000 0.000000
# 3 -0.004300 -0.003388 0.008474 0.000000 0.000000 0.000000
# 4 0.000000 0.000000 0.000000 0.034240 0.000000 0.000000
# 5 0.000000 0.000000 0.000000 0.000000 0.398045 0.000000
# 6 0.000000 0.000000 0.000000 0.000000 0.000000 0.055516
#
#
# Mechanical properties :
#
#
# Convention : Reuss Voigt Hill
#
# Bulk Modulus (GPa) = 45.25457 55.76147 50.50802
# Shear Modulus (GPa) = 8.76679 21.76705 15.26692
#
# Velocity S-wave (km/s) = 2.08352 3.28305 2.74950
# Velocity P-wave (km/s) = 5.31007 6.47941 5.92366
#
# Compressibility (1/GPa) = 0.02209721
#
# Stress axis : x y z
#
# Youngs Moduli (GPa) = 47.26449 52.62862 118.00997
#
# Poissons Ratio (x) = 0.29367 0.50743
# Poissons Ratio (y) = 0.26374 0.39978
# Poissons Ratio (z) = 0.20323 0.17829
#
# Static dielectric constant tensor:
#      x y z
#    x 1.705070 0.000000 0.000000 
#    y 0.000000 1.732360 0.000000 
#    z 0.000000 0.000000 1.738950 
# 
# From -- ./inp_files/20196.got.cif
#   From: 2010.05.17/outbox.cif.g08.bks.cpg/sg72_11_cif.got.tgz:20196.got - 2010.06.03 17:03:01.
