data_PCOD9527598
_publ_section_title
;
Structure prediction by ZEFSAII (Michael W. Deem and Ramdas Pophale) SiO2 
 PCOD9527598
Probable space group: I B A M
;
_chemical_formula_sum "Si O2"
_cell_formula_units_Z 80
_cell_length_a 10.454831
_cell_length_b 15.245060
_cell_length_c 22.475010
_cell_angle_alpha 90.000000
_cell_angle_beta 90.000000
_cell_angle_gamma 90.000000
_cell_volume 3582.168813
_symmetry_space_group_name_H-M "I B A M"
_symmetry_group_IT_number 72
_symmetry_cell_setting 'orthorhombic'
loop_
_space_group_symop_operation_xyz
x,y,z
-x,-y,z
x,-y,1/2-z
-x,y,1/2-z
-x,-y,-z
x,y,-z
-x,y,1/2+z
x,-y,1/2+z
1/2+x,1/2+y,1/2+z
1/2-x,1/2-y,1/2+z
1/2+x,1/2-y,-z
1/2-x,1/2+y,-z
1/2-x,1/2-y,1/2-z
1/2+x,1/2+y,1/2-z
1/2-x,1/2+y,z
1/2+x,1/2-y,z
loop_
_atom_site_type_symbol
_atom_site_label
_atom_site_fract_x
_atom_site_fract_y
_atom_site_fract_z
Si Si1 0.388393 0.938866 0.121222
Si Si2 0.677948 0.298828 0.500000
Si Si3 0.542665 0.159902 0.000000
Si Si4 0.119598 0.950234 0.093404
Si Si5 0.733259 0.765124 0.320711
Si Si6 0.491529 0.325891 0.179043
O O1 0.443655 0.897704 0.059912
O O2 0.258541 0.992022 0.103737
O O3 0.333513 0.858906 0.162531
O O4 0.500000 0.000000 0.147481
O O5 0.584592 0.217051 0.500000
O O6 0.829135 0.279328 0.500000
O O7 0.649780 0.363756 0.554942
O O8 0.062888 0.916256 0.155653
O O9 0.000000 0.000000 0.065605
O O10 0.750000 0.750000 0.250000
O O11 0.630703 0.696570 0.345295
O O12 0.879977 0.758638 0.341210
O O13 0.500000 0.324536 0.250000
#
# Coordination Sequence:
#
# PCOD9527598 Si02
#       6
#    16   8   8  16  16  16
#     4  10  21  36  55  84 119 151 189 242 303 361
#     4  10  21  36  54  80 110 146 197 242 286 354
#     4  10  21  36  56  84 114 150 197 244 291 358
#     4  10  21  35  52  78 111 147 187 235 293 355
#     4   9  18  34  56  80 107 145 191 237 286 351
#     4   9  18  33  54  77 102 139 185 231 280 341
#
# _framework density 22.332840999999998
#
# number of rings (size 3 to 8) (size 9 to 14) (size 15 to 20)
#    0.000    2.400    0.000    1.800    0.000    3.600 
#    0.000    0.000    0.000   17.400    0.000    0.000 
#    0.000    0.000    0.000    0.200    0.000    0.000 
#
# Total GULP energy -222731.593210 kJ/mol
# GULP energy per Si atom -5568.289830 kJ/mol
# Density = 2.228201 g / cm^3
# Si number density = 22.332841 Si / 1000 Ang^3
#
#
#
# Elastic Constant Matrix: (Units=GPa)
#
#
# Indices 1 2 3 4 5 6 
#
# 1 142.6560 35.2746 27.3216 0.0000 0.0000 0.0000
# 2 35.2746 29.7244 12.3704 0.0000 0.0000 0.0000
# 3 27.3216 12.3704 62.3848 0.0000 0.0000 0.0000
# 4 0.0000 0.0000 0.0000 9.2667 0.0000 0.0000
# 5 0.0000 0.0000 0.0000 0.0000 17.7028 0.0000
# 6 0.0000 0.0000 0.0000 0.0000 0.0000 45.3825
#
#
#
# Elastic Compliance Matrix: (Units=1/GPa)
#
#
# Indices 1 2 3 4 5 6 
#
# 1 0.010204 -0.011171 -0.002254 0.000000 0.000000 0.000000
# 2 -0.011171 0.048899 -0.004804 0.000000 0.000000 0.000000
# 3 -0.002254 -0.004804 0.017969 0.000000 0.000000 0.000000
# 4 0.000000 0.000000 0.000000 0.107913 0.000000 0.000000
# 5 0.000000 0.000000 0.000000 0.000000 0.056488 0.000000
# 6 0.000000 0.000000 0.000000 0.000000 0.000000 0.022035
#
#
# Mechanical properties :
#
#
# Convention : Reuss Voigt Hill
#
# Bulk Modulus (GPa) = 24.62178 42.74427 33.68302
# Shear Modulus (GPa) = 15.94878 25.12362 20.53620
#
# Velocity S-wave (km/s) = 2.67524 3.35769 3.03570
# Velocity P-wave (km/s) = 4.53777 5.84921 5.23472
#
# Compressibility (1/GPa) = 0.04061445
#
# Stress axis : x y z
#
# Youngs Moduli (GPa) = 98.00272 20.45043 55.65116
#
# Poissons Ratio (x) = 0.22846 0.12542
# Poissons Ratio (y) = 1.09481 0.26733
# Poissons Ratio (z) = 0.22086 0.09824
#
# Static dielectric constant tensor:
#      x y z
#    x 1.908920 0.000000 0.000000 
#    y 0.000000 1.881400 0.000000 
#    z 0.000000 0.000000 1.898610 
# 
# From -- ./inp_files/47991.got.cif
#   From: 2010.05.17/outbox.cif.g08.bks.cpg/sg72_24_cif.got.tgz:47991.got - 2010.06.03 17:03:01.
