data_PCOD9527693
_publ_section_title
;
Structure prediction by ZEFSAII (Michael W. Deem and Ramdas Pophale) SiO2 
 PCOD9527693
Probable space group: I B A M
;
_chemical_formula_sum "Si O2"
_cell_formula_units_Z 64
_cell_length_a 18.413726
_cell_length_b 9.811139
_cell_length_c 18.732575
_cell_angle_alpha 90.000000
_cell_angle_beta 90.000000
_cell_angle_gamma 90.000000
_cell_volume 3384.219980
_symmetry_space_group_name_H-M "I B A M"
_symmetry_group_IT_number 72
_symmetry_cell_setting 'orthorhombic'
loop_
_space_group_symop_operation_xyz
x,y,z
-x,-y,z
x,-y,1/2-z
-x,y,1/2-z
-x,-y,-z
x,y,-z
-x,y,1/2+z
x,-y,1/2+z
1/2+x,1/2+y,1/2+z
1/2-x,1/2-y,1/2+z
1/2+x,1/2-y,-z
1/2-x,1/2+y,-z
1/2-x,1/2-y,1/2-z
1/2+x,1/2+y,1/2-z
1/2-x,1/2+y,z
1/2+x,1/2-y,z
loop_
_atom_site_type_symbol
_atom_site_label
_atom_site_fract_x
_atom_site_fract_y
_atom_site_fract_z
Si Si1 0.299800 0.713976 0.320196
Si Si2 0.954186 0.361444 0.580569
Si Si3 0.321249 0.985969 0.836129
Si Si4 0.966678 0.151297 0.822230
O O1 0.250000 0.750000 0.250000
O O2 0.251541 0.596173 0.354407
O O3 0.380305 0.654196 0.309902
O O4 0.312602 0.857281 0.360132
O O5 0.931245 0.326230 0.500000
O O6 0.886169 0.399847 0.630138
O O7 0.000000 0.500000 0.578236
O O8 0.004548 0.244287 0.613784
O O9 0.332434 0.000000 0.750000
O O10 0.000000 0.213058 0.750000
O O11 0.000000 0.000000 0.829929
#
# Coordination Sequence:
#
# PCOD9527693 Si02
#       4
#    16  16  16  16
#     4  10  21  36  59  93 126 157 200 261 313 373
#     4  11  24  43  63  89 124 168 211 258 319 389
#     4  10  21  37  64  88 124 157 209 254 316 365
#     4  11  24  38  66  97 129 162 213 265 324 371
#
# _framework density 18.911299
#
# number of rings (size 3 to 8) (size 9 to 14) (size 15 to 20)
#    0.000    1.500    2.500    3.000   14.000    0.500 
#    0.000    2.500    0.000    0.000    0.000    0.000 
#    0.000    0.000    0.000    0.000    0.000    0.000 
#
# Total GULP energy -178339.010864 kJ/mol
# GULP energy per Si atom -5573.094090 kJ/mol
# Density = 1.886826 g / cm^3
# Si number density = 18.911299 Si / 1000 Ang^3
#
#
#
# Elastic Constant Matrix: (Units=GPa)
#
#
# Indices 1 2 3 4 5 6 
#
# 1 181.0647 39.1979 31.5895 0.0000 0.0000 0.0000
# 2 39.1979 88.3779 21.4164 0.0000 0.0000 0.0000
# 3 31.5895 21.4164 72.6452 0.0000 0.0000 0.0000
# 4 0.0000 0.0000 0.0000 -5.5081 0.0000 0.0000
# 5 0.0000 0.0000 0.0000 0.0000 5.1640 0.0000
# 6 0.0000 0.0000 0.0000 0.0000 0.0000 33.1637
#
#
#
# Elastic Compliance Matrix: (Units=1/GPa)
#
#
# Indices 1 2 3 4 5 6 
#
# 1 0.006392 -0.002328 -0.002093 0.000000 0.000000 0.000000
# 2 -0.002328 0.013033 -0.002830 0.000000 0.000000 0.000000
# 3 -0.002093 -0.002830 0.015510 0.000000 0.000000 0.000000
# 4 0.000000 0.000000 0.000000 -0.181552 0.000000 0.000000
# 5 0.000000 0.000000 0.000000 0.000000 0.193647 0.000000
# 6 0.000000 0.000000 0.000000 0.000000 0.000000 0.030153
#
#
# Mechanical properties :
#
#
# Convention : Reuss Voigt Hill
#
# Bulk Modulus (GPa) = 48.94018 58.49949 53.71983
# Shear Modulus (GPa) = 50.76250 23.22286 36.99268
#
# Velocity S-wave (km/s) = 5.18659 3.50807 4.42760
# Velocity P-wave (km/s) = 7.86146 6.88546 7.38959
#
# Compressibility (1/GPa) = 0.02043311
#
# Stress axis : x y z
#
# Youngs Moduli (GPa) = 156.44502 76.72661 64.47394
#
# Poissons Ratio (x) = 0.17860 0.13496
# Poissons Ratio (y) = 0.36417 0.18247
# Poissons Ratio (z) = 0.32749 0.21714
#
# Static dielectric constant tensor:
#      x y z
#    x 1.728580 0.000000 0.000000 
#    y 0.000000 1.731560 0.000000 
#    z 0.000000 0.000000 1.687800 
# 
# From -- ./inp_files/28951.got.cif
#   From: 2010.05.17/outbox.cif.g08.bks.cpg/sg72_15_cif.got.tgz:28951.got - 2010.06.03 17:03:01.
