data_PCOD9527417
_publ_section_title
;
Structure prediction by ZEFSAII (Michael W. Deem and Ramdas Pophale) SiO2 
 PCOD9527417
Probable space group: I B A M
;
_chemical_formula_sum "Si O2"
_cell_formula_units_Z 72
_cell_length_a 20.989173
_cell_length_b 5.616078
_cell_length_c 21.851585
_cell_angle_alpha 90.000000
_cell_angle_beta 90.000000
_cell_angle_gamma 90.000000
_cell_volume 2575.795630
_symmetry_space_group_name_H-M "I B A M"
_symmetry_group_IT_number 72
_symmetry_cell_setting 'orthorhombic'
loop_
_space_group_symop_operation_xyz
x,y,z
-x,-y,z
x,-y,1/2-z
-x,y,1/2-z
-x,-y,-z
x,y,-z
-x,y,1/2+z
x,-y,1/2+z
1/2+x,1/2+y,1/2+z
1/2-x,1/2-y,1/2+z
1/2+x,1/2-y,-z
1/2-x,1/2+y,-z
1/2-x,1/2-y,1/2-z
1/2+x,1/2+y,1/2-z
1/2-x,1/2+y,z
1/2+x,1/2-y,z
loop_
_atom_site_type_symbol
_atom_site_label
_atom_site_fract_x
_atom_site_fract_y
_atom_site_fract_z
Si Si1 0.500000 0.000000 0.354307
Si Si2 0.917140 0.903766 0.882893
Si Si3 0.724592 0.799676 0.632439
Si Si4 0.891709 0.500000 0.750000
Si Si5 0.126518 0.143975 0.500000
Si Si6 0.886625 0.000000 0.250000
Si Si7 0.798458 0.642569 0.000000
O O1 0.526352 0.781590 0.394581
O O2 0.559907 0.020787 0.307329
O O3 0.849698 0.762113 0.876277
O O4 0.925902 0.994675 0.813050
O O5 0.908100 0.104941 0.934202
O O6 0.757691 0.560471 0.658332
O O7 0.744151 0.844428 0.561176
O O8 0.852705 0.745061 0.750222
O O9 0.161569 0.884647 0.500000
O O10 0.156840 0.408895 0.500000
#
# Coordination Sequence:
#
# PCOD9527417 Si02
#       7
#     8  16  16   8   8   8   8
#     4   9  20  39  66  96 134 177 232 287 342 410
#     4  10  23  42  67 101 140 185 233 287 352 419
#     4  11  22  38  63  94 130 175 228 282 337 403
#     4   9  20  38  64  96 120 172 246 290 318 390
#     4  10  22  38  64  98 136 172 222 278 349 418
#     4  10  22  41  66  92 132 180 234 289 338 406
#     4  10  20  39  64  91 124 175 236 287 323 386
#
# _framework density 27.952529999999999
#
# number of rings (size 3 to 8) (size 9 to 14) (size 15 to 20)
#    0.000    2.000    0.000    3.333    0.000   18.222 
#    0.000    1.111    0.000    8.000    0.000    0.000 
#    0.000    8.000    0.000    0.000    0.000    0.000 
#
# Total GULP energy -200850.743026 kJ/mol
# GULP energy per Si atom -5579.187306 kJ/mol
# Density = 2.788891 g / cm^3
# Si number density = 27.952530 Si / 1000 Ang^3
#
#
#
# Elastic Constant Matrix: (Units=GPa)
#
#
# Indices 1 2 3 4 5 6 
#
# 1 126.5299 91.6538 37.3252 0.0000 0.0000 0.0000
# 2 91.6538 315.6586 28.9452 0.0000 0.0000 0.0000
# 3 37.3252 28.9452 84.1170 0.0000 0.0000 0.0000
# 4 0.0000 0.0000 0.0000 30.0191 0.0000 0.0000
# 5 0.0000 0.0000 0.0000 0.0000 -168.1728 0.0000
# 6 0.0000 0.0000 0.0000 0.0000 0.0000 -38.2825
#
#
#
# Elastic Compliance Matrix: (Units=1/GPa)
#
#
# Indices 1 2 3 4 5 6 
#
# 1 0.011154 -0.002876 -0.003960 0.000000 0.000000 0.000000
# 2 -0.002876 0.004013 -0.000105 0.000000 0.000000 0.000000
# 3 -0.003960 -0.000105 0.013681 0.000000 0.000000 0.000000
# 4 0.000000 0.000000 0.000000 0.033312 0.000000 0.000000
# 5 0.000000 0.000000 0.000000 0.000000 -0.005946 0.000000
# 6 0.000000 0.000000 0.000000 0.000000 0.000000 -0.026122
#
#
# Mechanical properties :
#
#
# Convention : Reuss Voigt Hill
#
# Bulk Modulus (GPa) = 66.81100 93.57267 80.19183
# Shear Modulus (GPa) = 102.11843 -10.72849 45.69497
#
# Velocity S-wave (km/s) = 6.05079 -1.96123 4.04757
# Velocity P-wave (km/s) = 8.53051 5.33101 7.11299
#
# Compressibility (1/GPa) = 0.01496760
#
# Stress axis : x y z
#
# Youngs Moduli (GPa) = 89.65012 249.21801 73.09181
#
# Poissons Ratio (x) = 0.71667 0.28945
# Poissons Ratio (y) = 0.25780 0.00765
# Poissons Ratio (z) = 0.35502 0.02610
#
# Static dielectric constant tensor:
#      x y z
#    x 2.159050 0.000000 0.000000 
#    y 0.000000 2.288130 0.000000 
#    z 0.000000 0.000000 2.379870 
# 
# From -- ./inp_files/49817.got.cif
#   From: 2010.05.17/outbox.cif.g08.bks.cpg/sg72_25_cif.got.tgz:49817.got - 2010.06.03 17:03:01.
