data_PCOD9527248
_publ_section_title
;
Structure prediction by ZEFSAII (Michael W. Deem and Ramdas Pophale) SiO2 
 PCOD9527248
Probable space group: I B A M
;
_chemical_formula_sum "Si O2"
_cell_formula_units_Z 80
_cell_length_a 14.622242
_cell_length_b 10.517223
_cell_length_c 22.965027
_cell_angle_alpha 90.000000
_cell_angle_beta 90.000000
_cell_angle_gamma 90.000000
_cell_volume 3531.685401
_symmetry_space_group_name_H-M "I B A M"
_symmetry_group_IT_number 72
_symmetry_cell_setting 'orthorhombic'
loop_
_space_group_symop_operation_xyz
x,y,z
-x,-y,z
x,-y,1/2-z
-x,y,1/2-z
-x,-y,-z
x,y,-z
-x,y,1/2+z
x,-y,1/2+z
1/2+x,1/2+y,1/2+z
1/2-x,1/2-y,1/2+z
1/2+x,1/2-y,-z
1/2-x,1/2+y,-z
1/2-x,1/2-y,1/2-z
1/2+x,1/2+y,1/2-z
1/2-x,1/2+y,z
1/2+x,1/2-y,z
loop_
_atom_site_type_symbol
_atom_site_label
_atom_site_fract_x
_atom_site_fract_y
_atom_site_fract_z
Si Si1 0.896975 0.520038 0.873271
Si Si2 0.848180 0.585865 0.000000
Si Si3 0.392173 0.248078 0.169946
Si Si4 0.109448 0.011903 0.881303
Si Si5 0.189812 0.119326 0.000000
Si Si6 0.613887 0.257418 0.804738
O O1 0.901632 0.568968 0.939479
O O2 0.859512 0.378907 0.863071
O O3 0.850489 0.631075 0.836421
O O4 0.000000 0.500000 0.850714
O O5 0.780800 0.465240 0.000000
O O6 0.803752 0.727176 0.000000
O O7 0.359940 0.369394 0.133194
O O8 0.503797 0.255133 0.179628
O O9 0.362890 0.250930 0.237083
O O10 0.143358 0.109672 0.832307
O O11 0.137588 0.071772 0.942489
O O12 0.000000 0.000000 0.880093
#
# Coordination Sequence:
#
# PCOD9527248 Si02
#       6
#    16   8  16  16   8  16
#     4  10  20  37  62  90 119 151 192 242 291 346
#     4  12  27  44  60  80 116 160 203 250 296 346
#     4   9  18  29  59  94 122 147 186 231 296 353
#     4  10  20  37  62  90 119 151 192 242 291 346
#     4  12  27  44  60  80 116 160 203 250 296 346
#     4   9  16  33  55  92 126 151 180 235 290 349
#
# _framework density 22.652073999999999
#
# number of rings (size 3 to 8) (size 9 to 14) (size 15 to 20)
#    0.000    2.000    2.000    1.800    2.800    4.800 
#    0.000    0.000    0.000    7.200    0.000    0.000 
#    0.000    0.000    0.000    0.000    0.000    0.000 
#
# Total GULP energy -223286.857870 kJ/mol
# GULP energy per Si atom -5582.171447 kJ/mol
# Density = 2.260052 g / cm^3
# Si number density = 22.652074 Si / 1000 Ang^3
#
#
#
# Elastic Constant Matrix: (Units=GPa)
#
#
# Indices 1 2 3 4 5 6 
#
# 1 49.3327 -10.4586 -37.8555 0.0000 0.0000 0.0000
# 2 -10.4586 127.4447 31.5699 0.0000 0.0000 0.0000
# 3 -37.8555 31.5699 95.7995 0.0000 0.0000 0.0000
# 4 0.0000 0.0000 0.0000 38.5421 0.0000 0.0000
# 5 0.0000 0.0000 0.0000 0.0000 -28.7111 0.0000
# 6 0.0000 0.0000 0.0000 0.0000 0.0000 6.7194
#
#
#
# Elastic Compliance Matrix: (Units=1/GPa)
#
#
# Indices 1 2 3 4 5 6 
#
# 1 0.029121 -0.000502 0.011673 0.000000 0.000000 0.000000
# 2 -0.000502 0.008553 -0.003017 0.000000 0.000000 0.000000
# 3 0.011673 -0.003017 0.016045 0.000000 0.000000 0.000000
# 4 0.000000 0.000000 0.000000 0.025946 0.000000 0.000000
# 5 0.000000 0.000000 0.000000 0.000000 -0.034830 0.000000
# 6 0.000000 0.000000 0.000000 0.000000 0.000000 0.148822
#
#
# Mechanical properties :
#
#
# Convention : Reuss Voigt Hill
#
# Bulk Modulus (GPa) = 14.28008 26.56540 20.42274
# Shear Modulus (GPa) = 24.91396 22.59818 23.75607
#
# Velocity S-wave (km/s) = 3.32000 3.16194 3.24193
# Velocity P-wave (km/s) = 4.58414 5.00835 4.80093
#
# Compressibility (1/GPa) = 0.07002762
#
# Stress axis : x y z
#
# Youngs Moduli (GPa) = 34.33917 116.92283 62.32430
#
# Poissons Ratio (x) = 0.05866 -0.72749
# Poissons Ratio (y) = 0.01723 0.18801
# Poissons Ratio (z) = -0.40083 0.35272
#
# Static dielectric constant tensor:
#      x y z
#    x 1.837860 0.000000 0.000000 
#    y 0.000000 1.845620 0.000000 
#    z 0.000000 0.000000 1.904600 
# 
# From -- ./inp_files/38826.got.cif
#   From: 2010.05.17/outbox.cif.g08.bks.cpg/sg72_20_cif.got.tgz:38826.got - 2010.06.03 17:03:01.
