data_PCOD9527772
_publ_section_title
;
Structure prediction by ZEFSAII (Michael W. Deem and Ramdas Pophale) SiO2 
 PCOD9527772
Probable space group: I B A M
;
_chemical_formula_sum "Si O2"
_cell_formula_units_Z 64
_cell_length_a 13.494321
_cell_length_b 8.111938
_cell_length_c 27.239596
_cell_angle_alpha 90.000000
_cell_angle_beta 90.000000
_cell_angle_gamma 90.000000
_cell_volume 2981.784972
_symmetry_space_group_name_H-M "I B A M"
_symmetry_group_IT_number 72
_symmetry_cell_setting 'orthorhombic'
loop_
_space_group_symop_operation_xyz
x,y,z
-x,-y,z
x,-y,1/2-z
-x,y,1/2-z
-x,-y,-z
x,y,-z
-x,y,1/2+z
x,-y,1/2+z
1/2+x,1/2+y,1/2+z
1/2-x,1/2-y,1/2+z
1/2+x,1/2-y,-z
1/2-x,1/2+y,-z
1/2-x,1/2-y,1/2-z
1/2+x,1/2+y,1/2-z
1/2-x,1/2+y,z
1/2+x,1/2-y,z
loop_
_atom_site_type_symbol
_atom_site_label
_atom_site_fract_x
_atom_site_fract_y
_atom_site_fract_z
Si Si1 0.628021 0.146889 0.648499
Si Si2 0.063628 0.165244 0.122345
Si Si3 0.289360 0.519354 0.306962
Si Si4 0.384414 0.948197 0.054551
O O1 0.514309 0.202450 0.644794
O O2 0.681203 0.308638 0.669036
O O3 0.672733 0.010859 0.684689
O O4 0.657523 0.076416 0.594744
O O5 0.143128 0.106491 0.161859
O O6 0.114073 0.265089 0.077843
O O7 0.000000 0.000000 0.108140
O O8 0.313453 0.500000 0.250000
O O9 0.500000 0.000000 0.050504
O O10 0.340431 0.954934 0.000000
#
# Coordination Sequence:
#
# PCOD9527772 Si02
#       4
#    16  16  16  16
#     4  10  21  37  58  86 119 156 202 250 299 363
#     4   9  20  37  59  90 125 159 202 253 303 365
#     4  11  22  39  60  86 122 161 200 252 307 363
#     4   9  18  36  60  85 118 157 196 244 300 357
#
# _framework density 21.463653000000001
#
# number of rings (size 3 to 8) (size 9 to 14) (size 15 to 20)
#    0.000    2.250    0.000    2.250    0.000    5.000 
#    0.000   13.750    0.000    0.000    0.000    0.000 
#    0.000    0.000    0.000    0.000    0.000    0.000 
#
# Total GULP energy -178340.865353 kJ/mol
# GULP energy per Si atom -5573.152042 kJ/mol
# Density = 2.141480 g / cm^3
# Si number density = 21.463653 Si / 1000 Ang^3
#
#
#
# Elastic Constant Matrix: (Units=GPa)
#
#
# Indices 1 2 3 4 5 6 
#
# 1 41.9187 26.6072 29.5676 0.0000 0.0000 0.0000
# 2 26.6072 106.1257 79.7118 0.0000 0.0000 0.0000
# 3 29.5676 79.7118 188.8954 0.0000 0.0000 0.0000
# 4 0.0000 0.0000 0.0000 -416.9018 0.0000 0.0000
# 5 0.0000 0.0000 0.0000 0.0000 57.4119 0.0000
# 6 0.0000 0.0000 0.0000 0.0000 0.0000 17.0892
#
#
#
# Elastic Compliance Matrix: (Units=1/GPa)
#
#
# Indices 1 2 3 4 5 6 
#
# 1 0.028955 -0.005644 -0.002151 0.000000 0.000000 0.000000
# 2 -0.005644 0.014896 -0.005402 0.000000 0.000000 0.000000
# 3 -0.002151 -0.005402 0.007910 0.000000 0.000000 0.000000
# 4 0.000000 0.000000 0.000000 -0.002399 0.000000 0.000000
# 5 0.000000 0.000000 0.000000 0.000000 0.017418 0.000000
# 6 0.000000 0.000000 0.000000 0.000000 0.000000 0.058516
#
#
# Mechanical properties :
#
#
# Convention : Reuss Voigt Hill
#
# Bulk Modulus (GPa) = 39.42135 67.63476 53.52806
# Shear Modulus (GPa) = 31.22142 -55.07659 -11.92759
#
# Velocity S-wave (km/s) = 3.81808 -5.07111 -2.35991
# Velocity P-wave (km/s) = 6.15170 1.64573 4.19136
#
# Compressibility (1/GPa) = 0.02536696
#
# Stress axis : x y z
#
# Youngs Moduli (GPa) = 34.53621 67.13405 126.41798
#
# Poissons Ratio (x) = 0.37892 0.27187
# Poissons Ratio (y) = 0.19493 0.68295
# Poissons Ratio (z) = 0.07427 0.36268
#
# Static dielectric constant tensor:
#      x y z
#    x 1.793920 0.000000 0.000000 
#    y 0.000000 1.898720 0.000000 
#    z 0.000000 0.000000 1.771540 
# 
# From -- ./inp_files/41889.got.cif
#   From: 2010.05.17/outbox.cif.g08.bks.cpg/sg72_21_cif.got.tgz:41889.got - 2010.06.03 17:03:01.
