data_PCOD9527336
_publ_section_title
;
Structure prediction by ZEFSAII (Michael W. Deem and Ramdas Pophale) SiO2 
 PCOD9527336
Probable space group: I B A M
;
_chemical_formula_sum "Si O2"
_cell_formula_units_Z 80
_cell_length_a 12.327573
_cell_length_b 16.064783
_cell_length_c 20.768439
_cell_angle_alpha 90.000000
_cell_angle_beta 90.000000
_cell_angle_gamma 90.000000
_cell_volume 4112.977198
_symmetry_space_group_name_H-M "I B A M"
_symmetry_group_IT_number 72
_symmetry_cell_setting 'orthorhombic'
loop_
_space_group_symop_operation_xyz
x,y,z
-x,-y,z
x,-y,1/2-z
-x,y,1/2-z
-x,-y,-z
x,y,-z
-x,y,1/2+z
x,-y,1/2+z
1/2+x,1/2+y,1/2+z
1/2-x,1/2-y,1/2+z
1/2+x,1/2-y,-z
1/2-x,1/2+y,-z
1/2-x,1/2-y,1/2-z
1/2+x,1/2+y,1/2-z
1/2-x,1/2+y,z
1/2+x,1/2-y,z
loop_
_atom_site_type_symbol
_atom_site_label
_atom_site_fract_x
_atom_site_fract_y
_atom_site_fract_z
Si Si1 0.447957 0.260837 0.321218
Si Si2 0.874987 0.001699 0.076606
Si Si3 0.371657 0.311840 0.075397
Si Si4 0.253838 0.155896 0.868713
Si Si5 0.484629 0.910124 0.674174
O O1 0.500000 0.263221 0.250000
O O2 0.528358 0.299086 0.375042
O O3 0.333873 0.306676 0.320002
O O4 0.435723 0.164949 0.343839
O O5 0.804477 0.924403 0.100832
O O6 0.829096 0.094608 0.089414
O O7 0.880730 0.992250 0.000000
O O8 0.000000 0.000000 0.101303
O O9 0.290087 0.234374 0.086860
O O10 0.406203 0.310914 0.000000
O O11 0.364661 0.123743 0.838096
O O12 0.500000 0.919293 0.750000
O O13 0.500000 0.000000 0.642620
#
# Coordination Sequence:
#
# PCOD9527336 Si02
#       5
#    16  16  16  16  16
#     4  10  22  40  62  91 126 158 208 259 307 364
#     4  10  20  38  62  91 123 157 203 254 304 364
#     4  10  22  39  62  91 124 160 205 258 306 368
#     4  11  22  38  64  88 120 168 202 252 313 366
#     4   9  21  40  57  83 119 162 202 250 304 365
#
# _framework density 19.45063
#
# number of rings (size 3 to 8) (size 9 to 14) (size 15 to 20)
#    0.000    2.000    2.000    0.600    2.800    8.000 
#    3.600    1.000    0.000    3.000    0.000    0.000 
#    0.000    0.000    0.000    0.000    0.000    0.000 
#
# Total GULP energy -222782.866103 kJ/mol
# GULP energy per Si atom -5569.571653 kJ/mol
# Density = 1.940636 g / cm^3
# Si number density = 19.450630 Si / 1000 Ang^3
#
#
#
# Elastic Constant Matrix: (Units=GPa)
#
#
# Indices 1 2 3 4 5 6 
#
# 1 84.4917 65.7002 27.7021 0.0000 0.0000 0.0000
# 2 65.7002 194.6588 36.8212 0.0000 0.0000 0.0000
# 3 27.7021 36.8212 61.3458 0.0000 0.0000 0.0000
# 4 0.0000 0.0000 0.0000 23.9456 0.0000 0.0000
# 5 0.0000 0.0000 0.0000 0.0000 21.5037 0.0000
# 6 0.0000 0.0000 0.0000 0.0000 0.0000 41.7086
#
#
#
# Elastic Compliance Matrix: (Units=1/GPa)
#
#
# Indices 1 2 3 4 5 6 
#
# 1 0.017233 -0.004901 -0.004841 0.000000 0.000000 0.000000
# 2 -0.004901 0.007189 -0.002102 0.000000 0.000000 0.000000
# 3 -0.004841 -0.002102 0.019748 0.000000 0.000000 0.000000
# 4 0.000000 0.000000 0.000000 0.041761 0.000000 0.000000
# 5 0.000000 0.000000 0.000000 0.000000 0.046504 0.000000
# 6 0.000000 0.000000 0.000000 0.000000 0.000000 0.023976
#
#
# Mechanical properties :
#
#
# Convention : Reuss Voigt Hill
#
# Bulk Modulus (GPa) = 48.81793 66.77148 57.79470
# Shear Modulus (GPa) = 26.74852 31.44978 29.09915
#
# Velocity S-wave (km/s) = 3.71239 4.02544 3.87208
# Velocity P-wave (km/s) = 6.59763 7.48390 7.05469
#
# Compressibility (1/GPa) = 0.02048428
#
# Stress axis : x y z
#
# Youngs Moduli (GPa) = 58.02668 139.10326 50.63694
#
# Poissons Ratio (x) = 0.68173 0.24511
# Poissons Ratio (y) = 0.28438 0.10643
# Poissons Ratio (z) = 0.28088 0.29237
#
# Static dielectric constant tensor:
#      x y z
#    x 1.696050 0.000000 0.000000 
#    y 0.000000 1.766280 0.000000 
#    z 0.000000 0.000000 1.646900 
# 
# From -- ./inp_files/43086.got.cif
#   From: 2010.05.17/outbox.cif.g08.bks.cpg/sg72_22_cif.got.tgz:43086.got - 2010.06.03 17:03:01.
