data_PCOD9527091
_publ_section_title
;
Structure prediction by ZEFSAII (Michael W. Deem and Ramdas Pophale) SiO2 
 PCOD9527091
Probable space group: I B A M
;
_chemical_formula_sum "Si O2"
_cell_formula_units_Z 88
_cell_length_a 20.894942
_cell_length_b 22.385955
_cell_length_c 9.584079
_cell_angle_alpha 90.000000
_cell_angle_beta 90.000000
_cell_angle_gamma 90.000000
_cell_volume 4482.983922
_symmetry_space_group_name_H-M "I B A M"
_symmetry_group_IT_number 72
_symmetry_cell_setting 'orthorhombic'
loop_
_space_group_symop_operation_xyz
x,y,z
-x,-y,z
x,-y,1/2-z
-x,y,1/2-z
-x,-y,-z
x,y,-z
-x,y,1/2+z
x,-y,1/2+z
1/2+x,1/2+y,1/2+z
1/2-x,1/2-y,1/2+z
1/2+x,1/2-y,-z
1/2-x,1/2+y,-z
1/2-x,1/2-y,1/2-z
1/2+x,1/2+y,1/2-z
1/2-x,1/2+y,z
1/2+x,1/2-y,z
loop_
_atom_site_type_symbol
_atom_site_label
_atom_site_fract_x
_atom_site_fract_y
_atom_site_fract_z
Si Si1 0.907010 0.555148 0.157388
Si Si2 0.883139 0.265811 0.159010
Si Si3 0.332258 0.439378 0.336056
Si Si4 0.933729 0.839852 0.833790
Si Si5 0.198665 0.378995 0.664534
Si Si6 0.000000 0.653662 0.750000
O O1 0.929855 0.500000 0.250000
O O2 0.844916 0.580419 0.236432
O O3 0.958101 0.608788 0.157013
O O4 0.893367 0.536141 0.000000
O O5 0.891064 0.213612 0.270570
O O6 0.824534 0.311025 0.187736
O O7 0.948196 0.305464 0.171690
O O8 0.878092 0.243274 0.000000
O O9 0.327898 0.500000 0.250000
O O10 0.330259 0.454180 0.500000
O O11 0.396218 0.401554 0.309214
O O12 0.271837 0.395908 0.308612
O O13 0.000000 0.838732 0.750000
O O14 0.943230 0.831839 0.000000
O O15 0.184989 0.391040 0.500000
#
# Coordination Sequence:
#
# PCOD9527091 Si02
#       6
#    16  16  16  16  16   8
#     4  11  22  34  51  79 115 157 203 249 295 347
#     4  10  20  36  60  88 120 156 196 243 296 355
#     4  10  23  43  65  90 121 158 200 249 304 362
#     4  11  24  41  63  91 123 158 199 249 304 362
#     4   9  20  39  61  87 120 156 196 244 296 355
#     4  10  21  34  54  78 113 152 202 244 292 346
#
# _framework density 19.629781000000001
#
# number of rings (size 3 to 8) (size 9 to 14) (size 15 to 20)
#    0.000    1.818    0.909    2.455    0.000   10.545 
#    0.000    1.818    0.000    0.000    0.000    0.000 
#    0.000    0.000    0.000    0.000    0.000    0.000 
#
# Total GULP energy -245713.389953 kJ/mol
# GULP energy per Si atom -5584.395226 kJ/mol
# Density = 1.958510 g / cm^3
# Si number density = 19.629781 Si / 1000 Ang^3
#
#
#
# Elastic Constant Matrix: (Units=GPa)
#
#
# Indices 1 2 3 4 5 6 
#
# 1 62.2473 57.0647 54.5259 0.0000 0.0000 0.0000
# 2 57.0647 88.2196 54.8499 0.0000 0.0000 0.0000
# 3 54.5259 54.8499 110.0750 0.0000 0.0000 0.0000
# 4 0.0000 0.0000 0.0000 29.2666 0.0000 0.0000
# 5 0.0000 0.0000 0.0000 0.0000 11.6029 0.0000
# 6 0.0000 0.0000 0.0000 0.0000 0.0000 15.8116
#
#
#
# Elastic Compliance Matrix: (Units=1/GPa)
#
#
# Indices 1 2 3 4 5 6 
#
# 1 0.048638 -0.023880 -0.012194 0.000000 0.000000 0.000000
# 2 -0.023880 0.028148 -0.002197 0.000000 0.000000 0.000000
# 3 -0.012194 -0.002197 0.016220 0.000000 0.000000 0.000000
# 4 0.000000 0.000000 0.000000 0.034169 0.000000 0.000000
# 5 0.000000 0.000000 0.000000 0.000000 0.086185 0.000000
# 6 0.000000 0.000000 0.000000 0.000000 0.000000 0.063245
#
#
# Mechanical properties :
#
#
# Convention : Reuss Voigt Hill
#
# Bulk Modulus (GPa) = 60.73760 65.93589 63.33675
# Shear Modulus (GPa) = 13.94180 17.60964 15.77572
#
# Velocity S-wave (km/s) = 2.66792 2.99839 2.83797
# Velocity P-wave (km/s) = 6.36389 6.75646 6.56311
#
# Compressibility (1/GPa) = 0.01646426
#
# Stress axis : x y z
#
# Youngs Moduli (GPa) = 20.56008 35.52628 61.65384
#
# Poissons Ratio (x) = 0.84837 0.75178
# Poissons Ratio (y) = 0.49098 0.13546
# Poissons Ratio (z) = 0.25070 0.07805
#
# Static dielectric constant tensor:
#      x y z
#    x 1.700090 0.000000 0.000000 
#    y 0.000000 1.681080 0.000000 
#    z 0.000000 0.000000 1.672560 
# 
# From -- ./inp_files/5797.got.cif
#   From: 2010.05.17/outbox.cif.g08.bks.cpg/sg72_3_cif.got.tgz:5797.got - 2010.06.03 17:03:01.
