data_PCOD9527632
_publ_section_title
;
Structure prediction by ZEFSAII (Michael W. Deem and Ramdas Pophale) SiO2 
 PCOD9527632
Probable space group: I B A M
;
_chemical_formula_sum "Si O2"
_cell_formula_units_Z 104
_cell_length_a 33.646682
_cell_length_b 21.085833
_cell_length_c 8.026319
_cell_angle_alpha 90.000000
_cell_angle_beta 90.000000
_cell_angle_gamma 90.000000
_cell_volume 5694.419038
_symmetry_space_group_name_H-M "I B A M"
_symmetry_group_IT_number 72
_symmetry_cell_setting 'orthorhombic'
loop_
_space_group_symop_operation_xyz
x,y,z
-x,-y,z
x,-y,1/2-z
-x,y,1/2-z
-x,-y,-z
x,y,-z
-x,y,1/2+z
x,-y,1/2+z
1/2+x,1/2+y,1/2+z
1/2-x,1/2-y,1/2+z
1/2+x,1/2-y,-z
1/2-x,1/2+y,-z
1/2-x,1/2-y,1/2-z
1/2+x,1/2+y,1/2-z
1/2-x,1/2+y,z
1/2+x,1/2-y,z
loop_
_atom_site_type_symbol
_atom_site_label
_atom_site_fract_x
_atom_site_fract_y
_atom_site_fract_z
Si Si1 0.394065 0.000000 0.750000
Si Si2 0.456196 0.907584 0.301464
Si Si3 0.786082 0.798012 0.800461
Si Si4 0.253531 0.927721 0.699586
Si Si5 0.131537 0.737917 0.198333
Si Si6 0.955506 0.743282 0.303521
Si Si7 0.341712 0.899632 0.809284
O O1 0.425912 0.052243 0.691280
O O2 0.362787 0.051527 0.815876
O O3 0.500000 0.926759 0.250000
O O4 0.448784 0.918742 0.500000
O O5 0.453503 0.832505 0.271630
O O6 0.750000 0.750000 0.750000
O O7 0.775979 0.870538 0.752802
O O8 0.828907 0.778597 0.729398
O O9 0.788482 0.794106 0.000000
O O10 0.257796 0.926438 0.500000
O O11 0.295198 0.906464 0.779244
O O12 0.243629 0.000000 0.750000
O O13 0.088503 0.764939 0.258702
O O14 0.141807 0.670333 0.280591
O O15 0.127811 0.726931 0.000000
O O16 0.955519 0.754311 0.500000
O O17 0.000000 0.764819 0.250000
O O18 0.350200 0.919573 0.000000
#
# Coordination Sequence:
#
# PCOD9527632 Si02
#       7
#     8  16  16  16  16  16  16
#     4  12  23  34  48  68  96 130 180 228 275 322
#     4  10  21  36  48  63  90 126 171 223 275 322
#     4  11  23  38  59  85 113 147 187 230 276 330
#     4  11  24  40  58  81 113 146 182 227 275 327
#     4  11  22  38  57  78 107 140 182 231 277 326
#     4   9  19  35  53  73  99 134 173 224 278 328
#     4  12  24  34  52  75 100 139 183 227 279 326
#
# _framework density 18.263494999999999
#
# number of rings (size 3 to 8) (size 9 to 14) (size 15 to 20)
#    0.000    1.231    3.846    2.538    0.000    6.154 
#    0.000    0.000    0.000    0.000    0.000    0.000 
#    0.000    0.615    0.000    6.769    0.000    4.923 
#
# Total GULP energy -289541.554789 kJ/mol
# GULP energy per Si atom -5568.106823 kJ/mol
# Density = 1.822193 g / cm^3
# Si number density = 18.263495 Si / 1000 Ang^3
#
#
#
# Elastic Constant Matrix: (Units=GPa)
#
#
# Indices 1 2 3 4 5 6 
#
# 1 168.4932 53.7513 29.7348 0.0000 0.0000 0.0000
# 2 53.7513 61.2928 16.8688 0.0000 0.0000 0.0000
# 3 29.7348 16.8688 63.1215 0.0000 0.0000 0.0000
# 4 0.0000 0.0000 0.0000 9.2431 0.0000 0.0000
# 5 0.0000 0.0000 0.0000 0.0000 44.4001 0.0000
# 6 0.0000 0.0000 0.0000 0.0000 0.0000 29.3906
#
#
#
# Elastic Compliance Matrix: (Units=1/GPa)
#
#
# Indices 1 2 3 4 5 6 
#
# 1 0.008508 -0.006863 -0.002174 0.000000 0.000000 0.000000
# 2 -0.006863 0.023146 -0.002953 0.000000 0.000000 0.000000
# 3 -0.002174 -0.002953 0.017656 0.000000 0.000000 0.000000
# 4 0.000000 0.000000 0.000000 0.108189 0.000000 0.000000
# 5 0.000000 0.000000 0.000000 0.000000 0.022522 0.000000
# 6 0.000000 0.000000 0.000000 0.000000 0.000000 0.034024
#
#
# Mechanical properties :
#
#
# Convention : Reuss Voigt Hill
#
# Bulk Modulus (GPa) = 39.47749 54.84637 47.16193
# Shear Modulus (GPa) = 20.28663 29.44362 24.86512
#
# Velocity S-wave (km/s) = 3.33644 4.01952 3.69381
# Velocity P-wave (km/s) = 6.04193 7.18595 6.63863
#
# Compressibility (1/GPa) = 0.02533089
#
# Stress axis : x y z
#
# Youngs Moduli (GPa) = 117.53795 43.20371 56.63928
#
# Poissons Ratio (x) = 0.29650 0.12312
# Poissons Ratio (y) = 0.80664 0.16724
# Poissons Ratio (z) = 0.25550 0.12757
#
# Static dielectric constant tensor:
#      x y z
#    x 1.698130 0.000000 0.000000 
#    y 0.000000 1.617680 0.000000 
#    z 0.000000 0.000000 1.836940 
# 
# From -- ./inp_files/9172.got.cif
#   From: 2010.05.17/outbox.cif.g08.bks.cpg/sg72_5_cif.got.tgz:9172.got - 2010.06.03 17:03:01.
