data_PCOD9527915
_publ_section_title
;
Structure prediction by ZEFSAII (Michael W. Deem and Ramdas Pophale) SiO2 
 PCOD9527915
Probable space group: I B A M
;
_chemical_formula_sum "Si O2"
_cell_formula_units_Z 64
_cell_length_a 35.954514
_cell_length_b 5.089755
_cell_length_c 15.796766
_cell_angle_alpha 90.000000
_cell_angle_beta 90.000000
_cell_angle_gamma 90.000000
_cell_volume 2890.802924
_symmetry_space_group_name_H-M "I B A M"
_symmetry_group_IT_number 72
_symmetry_cell_setting 'orthorhombic'
loop_
_space_group_symop_operation_xyz
x,y,z
-x,-y,z
x,-y,1/2-z
-x,y,1/2-z
-x,-y,-z
x,y,-z
-x,y,1/2+z
x,-y,1/2+z
1/2+x,1/2+y,1/2+z
1/2-x,1/2-y,1/2+z
1/2+x,1/2-y,-z
1/2-x,1/2+y,-z
1/2-x,1/2-y,1/2-z
1/2+x,1/2+y,1/2-z
1/2-x,1/2+y,z
1/2+x,1/2-y,z
loop_
_atom_site_type_symbol
_atom_site_label
_atom_site_fract_x
_atom_site_fract_y
_atom_site_fract_z
Si Si1 0.647462 0.622340 0.657523
Si Si2 0.227940 0.318465 0.102434
Si Si3 0.606044 0.130125 0.402089
Si Si4 0.523689 0.744012 0.897027
O O1 0.646022 0.500000 0.750000
O O2 0.688610 0.722899 0.636328
O O3 0.633753 0.378209 0.600726
O O4 0.621409 0.876476 0.646173
O O5 0.259462 0.108623 0.128625
O O6 0.225692 0.315459 0.000000
O O7 0.601544 0.046087 0.500000
O O8 0.566137 0.227225 0.368274
O O9 0.500000 0.500000 0.864626
O O10 0.500000 0.000000 0.877208
O O11 0.525763 0.719716 0.000000
#
# Coordination Sequence:
#
# PCOD9527915 Si02
#       4
#    16  16  16  16
#     4  12  25  40  60  90 128 164 202 253 312 372
#     4  10  21  38  61  87 116 154 203 256 307 365
#     4  11  22  39  64  90 121 163 209 255 306 370
#     4   9  17  31  55  88 118 146 193 253 299 340
#
# _framework density 22.139177
#
# number of rings (size 3 to 8) (size 9 to 14) (size 15 to 20)
#    0.000    1.500    0.000    6.000    0.000    7.000 
#    0.000    0.000    0.000   11.250    0.000    0.000 
#    0.000    0.000    0.000    0.000    0.000    1.000 
#
# Total GULP energy -179053.807831 kJ/mol
# GULP energy per Si atom -5595.431495 kJ/mol
# Density = 2.208879 g / cm^3
# Si number density = 22.139177 Si / 1000 Ang^3
#
#
#
# Elastic Constant Matrix: (Units=GPa)
#
#
# Indices 1 2 3 4 5 6 
#
# 1 95.2164 17.4161 10.6779 0.0000 0.0000 0.0000
# 2 17.4161 109.7649 6.4976 0.0000 0.0000 0.0000
# 3 10.6779 6.4976 26.6713 0.0000 0.0000 0.0000
# 4 0.0000 0.0000 0.0000 6.0938 0.0000 0.0000
# 5 0.0000 0.0000 0.0000 0.0000 -79.8131 0.0000
# 6 0.0000 0.0000 0.0000 0.0000 0.0000 27.2054
#
#
#
# Elastic Compliance Matrix: (Units=1/GPa)
#
#
# Indices 1 2 3 4 5 6 
#
# 1 0.011247 -0.001540 -0.004128 0.000000 0.000000 0.000000
# 2 -0.001540 0.009455 -0.001687 0.000000 0.000000 0.000000
# 3 -0.004128 -0.001687 0.039557 0.000000 0.000000 0.000000
# 4 0.000000 0.000000 0.000000 0.164102 0.000000 0.000000
# 5 0.000000 0.000000 0.000000 0.000000 -0.012529 0.000000
# 6 0.000000 0.000000 0.000000 0.000000 0.000000 0.036757
#
#
# Mechanical properties :
#
#
# Convention : Reuss Voigt Hill
#
# Bulk Modulus (GPa) = 21.95410 33.42620 27.69015
# Shear Modulus (GPa) = 17.95458 3.83463 10.89461
#
# Velocity S-wave (km/s) = 2.85087 1.31750 2.22073
# Velocity P-wave (km/s) = 4.55791 4.17677 4.37150
#
# Compressibility (1/GPa) = 0.04554957
#
# Stress axis : x y z
#
# Youngs Moduli (GPa) = 88.91270 105.76861 25.28010
#
# Poissons Ratio (x) = 0.16290 0.10434
# Poissons Ratio (y) = 0.13694 0.04264
# Poissons Ratio (z) = 0.36699 0.17840
#
# Static dielectric constant tensor:
#      x y z
#    x 1.785440 0.000000 0.000000 
#    y 0.000000 1.759030 0.000000 
#    z 0.000000 0.000000 1.858530 
# 
# From -- ./inp_files/27034.got.cif
#   From: 2010.05.17/outbox.cif.g08.bks.cpg/sg72_14_cif.got.tgz:27034.got - 2010.06.03 17:03:01.
