data_PCOD9527472
_publ_section_title
;
Structure prediction by ZEFSAII (Michael W. Deem and Ramdas Pophale) SiO2 
 PCOD9527472
Probable space group: I B A M
;
_chemical_formula_sum "Si O2"
_cell_formula_units_Z 112
_cell_length_a 11.927069
_cell_length_b 30.669560
_cell_length_c 15.015559
_cell_angle_alpha 90.000000
_cell_angle_beta 90.000000
_cell_angle_gamma 90.000000
_cell_volume 5492.660825
_symmetry_space_group_name_H-M "I B A M"
_symmetry_group_IT_number 72
_symmetry_cell_setting 'orthorhombic'
loop_
_space_group_symop_operation_xyz
x,y,z
-x,-y,z
x,-y,1/2-z
-x,y,1/2-z
-x,-y,-z
x,y,-z
-x,y,1/2+z
x,-y,1/2+z
1/2+x,1/2+y,1/2+z
1/2-x,1/2-y,1/2+z
1/2+x,1/2-y,-z
1/2-x,1/2+y,-z
1/2-x,1/2-y,1/2-z
1/2+x,1/2+y,1/2-z
1/2-x,1/2+y,z
1/2+x,1/2-y,z
loop_
_atom_site_type_symbol
_atom_site_label
_atom_site_fract_x
_atom_site_fract_y
_atom_site_fract_z
Si Si1 0.866525 0.948002 0.742899
Si Si2 0.194908 0.804313 0.597940
Si Si3 0.235151 0.116578 0.603775
Si Si4 0.010317 0.630769 0.647802
Si Si5 0.449740 0.225598 0.899700
Si Si6 0.235766 0.402116 0.402102
Si Si7 0.891701 0.809509 0.286909
O O1 0.819125 0.924857 0.653689
O O2 0.788332 0.929295 0.822209
O O3 0.000000 0.938407 0.750000
O O4 0.855396 0.000000 0.750000
O O5 0.144985 0.793723 0.500000
O O6 0.321420 0.788547 0.593615
O O7 0.197731 0.856452 0.602541
O O8 0.159277 0.789307 0.696583
O O9 0.202756 0.119900 0.500000
O O10 0.370562 0.115314 0.610230
O O11 0.190652 0.158988 0.658966
O O12 0.000000 0.617886 0.750000
O O13 0.010237 0.683745 0.642763
O O14 0.895991 0.611473 0.605515
O O15 0.441091 0.271181 0.848589
O O16 0.492648 0.228708 0.000000
O O17 0.253005 0.421962 0.500000
O O18 0.000000 0.835462 0.250000
#
# Coordination Sequence:
#
# PCOD9527472 Si02
#       7
#    16  16  16  16  16  16  16
#     4  11  25  47  72 103 139 173 216 272 335 412
#     4   9  19  36  60  84 116 162 223 278 326 391
#     4  12  25  43  68 100 137 178 226 283 339 400
#     4  11  20  41  70  97 133 180 229 281 338 393
#     4  10  21  37  57  89 125 169 226 280 333 393
#     4  10  20  40  69  99 130 175 222 267 333 407
#     4  12  24  39  55  84 129 180 228 277 340 395
#
# _framework density 20.390846
#
# number of rings (size 3 to 8) (size 9 to 14) (size 15 to 20)
#    0.000    1.286    2.857    4.714    0.000    3.429 
#    0.000    4.286    0.000    1.714    0.000    0.000 
#    0.000    0.000    0.000    0.000    0.000    0.000 
#
# Total GULP energy -312217.102287 kJ/mol
# GULP energy per Si atom -5575.305398 kJ/mol
# Density = 2.034444 g / cm^3
# Si number density = 20.390846 Si / 1000 Ang^3
#
#
#
# Elastic Constant Matrix: (Units=GPa)
#
#
# Indices 1 2 3 4 5 6 
#
# 1 94.6174 31.9442 27.8301 -0.0001 0.0003 0.0000
# 2 31.9442 88.0410 24.5622 -0.0002 -0.0014 0.0000
# 3 27.8301 24.5622 152.9835 -0.0004 -0.0052 -0.0001
# 4 -0.0001 -0.0002 -0.0004 -92.1158 -0.0079 -0.0001
# 5 0.0003 -0.0014 -0.0052 -0.0079-1445.8029 -0.0010
# 6 0.0000 0.0000 -0.0001 -0.0001 -0.0010 30.9308
#
#
#
# Elastic Compliance Matrix: (Units=1/GPa)
#
#
# Indices 1 2 3 4 5 6 
#
# 1 0.012410 -0.004055 -0.001607 0.000000 0.000000 0.000000
# 2 -0.004055 0.013216 -0.001384 0.000000 0.000000 0.000000
# 3 -0.001607 -0.001384 0.007051 0.000000 0.000000 0.000000
# 4 0.000000 0.000000 0.000000 -0.010856 0.000000 0.000000
# 5 0.000000 0.000000 0.000000 0.000000 -0.000692 0.000000
# 6 0.000000 0.000000 0.000000 0.000000 0.000000 0.032330
#
#
# Mechanical properties :
#
#
# Convention : Reuss Voigt Hill
#
# Bulk Modulus (GPa) = 53.80351 56.03498 54.91925
# Shear Modulus (GPa) = 67.79994 -284.64390 -108.42198
#
# Velocity S-wave (km/s) = 5.77255 -11.82781 -7.29982
# Velocity P-wave (km/s) = 8.41862 12.60909 6.63762
#
# Compressibility (1/GPa) = 0.01858615
#
# Stress axis : x y z
#
# Youngs Moduli (GPa) = 80.57780 75.66764 141.82037
#
# Poissons Ratio (x) = 0.30681 0.22785
# Poissons Ratio (y) = 0.32672 0.19631
# Poissons Ratio (z) = 0.12946 0.10474
#
# Static dielectric constant tensor:
#      x y z
#    x 1.763220 0.000000 0.000000 
#    y 0.000000 1.723640 0.000000 
#    z 0.000000 0.000000 1.775090 
# 
# From -- ./inp_files/20723.got.cif
#   From: 2010.05.17/outbox.cif.g08.bks.cpg/sg72_11_cif.got.tgz:20723.got - 2010.06.03 17:03:01.
