data_PCOD9527885
_publ_section_title
;
Structure prediction by ZEFSAII (Michael W. Deem and Ramdas Pophale) SiO2 
 PCOD9527885
Probable space group: I B A M
;
_chemical_formula_sum "Si O2"
_cell_formula_units_Z 56
_cell_length_a 24.432697
_cell_length_b 5.217154
_cell_length_c 21.113131
_cell_angle_alpha 90.000000
_cell_angle_beta 90.000000
_cell_angle_gamma 90.000000
_cell_volume 2691.272712
_symmetry_space_group_name_H-M "I B A M"
_symmetry_group_IT_number 72
_symmetry_cell_setting 'orthorhombic'
loop_
_space_group_symop_operation_xyz
x,y,z
-x,-y,z
x,-y,1/2-z
-x,y,1/2-z
-x,-y,-z
x,y,-z
-x,y,1/2+z
x,-y,1/2+z
1/2+x,1/2+y,1/2+z
1/2-x,1/2-y,1/2+z
1/2+x,1/2-y,-z
1/2-x,1/2+y,-z
1/2-x,1/2-y,1/2-z
1/2+x,1/2+y,1/2-z
1/2-x,1/2+y,z
1/2+x,1/2-y,z
loop_
_atom_site_type_symbol
_atom_site_label
_atom_site_fract_x
_atom_site_fract_y
_atom_site_fract_z
Si Si1 0.628049 0.972337 0.613472
Si Si2 0.212947 0.558562 0.000000
Si Si3 0.435514 0.458734 0.924595
Si Si4 0.727401 0.803492 0.320538
O O1 0.673124 0.027395 0.559784
O O2 0.594921 0.719633 0.594128
O O3 0.666020 0.906560 0.673878
O O4 0.588935 0.218729 0.614046
O O5 0.243394 0.829032 0.000000
O O6 0.500000 0.500000 0.914368
O O7 0.427257 0.407864 0.000000
O O8 0.750000 0.750000 0.250000
O O9 0.733706 0.522005 0.350573
#
# Coordination Sequence:
#
# PCOD9527885 Si02
#       4
#    16   8  16  16
#     4  12  21  37  57  85 120 164 203 248 309 358
#     4  12  22  32  49  80 121 156 192 242 294 364
#     4  11  22  38  57  84 121 164 210 251 299 360
#     4  10  21  38  59  86 117 154 203 248 303 370
#
# _framework density 20.808
#
# number of rings (size 3 to 8) (size 9 to 14) (size 15 to 20)
#    0.000    0.857    2.857    6.000    0.000    2.286 
#    0.000    0.000    0.000    0.000    0.000   60.000 
#    0.000    0.000    0.000    0.000    0.000    0.000 
#
# Total GULP energy -156453.581789 kJ/mol
# GULP energy per Si atom -5587.627921 kJ/mol
# Density = 2.076064 g / cm^3
# Si number density = 20.808000 Si / 1000 Ang^3
#
#
#
# Elastic Constant Matrix: (Units=GPa)
#
#
# Indices 1 2 3 4 5 6 
#
# 1 141.9992 63.0442 51.3418 0.0000 0.0000 0.0000
# 2 63.0442 179.2393 22.7878 0.0000 0.0000 0.0000
# 3 51.3418 22.7878 66.6340 0.0000 0.0000 0.0000
# 4 0.0000 0.0000 0.0000 16.4072 0.0000 0.0000
# 5 0.0000 0.0000 0.0000 0.0000 28.8698 0.0000
# 6 0.0000 0.0000 0.0000 0.0000 0.0000 40.0508
#
#
#
# Elastic Compliance Matrix: (Units=1/GPa)
#
#
# Indices 1 2 3 4 5 6 
#
# 1 0.011065 -0.002936 -0.007522 0.000000 0.000000 0.000000
# 2 -0.002936 0.006612 0.000001 0.000000 0.000000 0.000000
# 3 -0.007522 0.000001 0.020803 0.000000 0.000000 0.000000
# 4 0.000000 0.000000 0.000000 0.060949 0.000000 0.000000
# 5 0.000000 0.000000 0.000000 0.000000 0.034638 0.000000
# 6 0.000000 0.000000 0.000000 0.000000 0.000000 0.024968
#
#
# Mechanical properties :
#
#
# Convention : Reuss Voigt Hill
#
# Bulk Modulus (GPa) = 56.92744 73.58000 65.25372
# Shear Modulus (GPa) = 26.91007 33.77881 30.34444
#
# Velocity S-wave (km/s) = 3.60009 4.03346 3.82292
# Velocity P-wave (km/s) = 6.68571 7.55843 7.13543
#
# Compressibility (1/GPa) = 0.01756622
#
# Stress axis : x y z
#
# Youngs Moduli (GPa) = 90.37222 151.24921 48.07061
#
# Poissons Ratio (x) = 0.44403 0.36158
# Poissons Ratio (y) = 0.26531 -0.00004
# Poissons Ratio (z) = 0.67977 -0.00014
#
# Static dielectric constant tensor:
#      x y z
#    x 1.727490 0.000000 0.000000 
#    y 0.000000 1.874030 0.000000 
#    z 0.000000 0.000000 1.932080 
# 
# From -- ./inp_files/40001.got.cif
#   From: 2010.05.17/outbox.cif.g08.bks.cpg/sg72_21_cif.got.tgz:40001.got - 2010.06.03 17:03:01.
