data_PCOD9527978
_publ_section_title
;
Structure prediction by ZEFSAII (Michael W. Deem and Ramdas Pophale) SiO2 
 PCOD9527978
Probable space group: I B A M
;
_chemical_formula_sum "Si O2"
_cell_formula_units_Z 116
_cell_length_a 8.895199
_cell_length_b 24.127429
_cell_length_c 32.120320
_cell_angle_alpha 90.000000
_cell_angle_beta 90.000000
_cell_angle_gamma 90.000000
_cell_volume 6893.607906
_symmetry_space_group_name_H-M "I B A M"
_symmetry_group_IT_number 72
_symmetry_cell_setting 'orthorhombic'
loop_
_space_group_symop_operation_xyz
x,y,z
-x,-y,z
x,-y,1/2-z
-x,y,1/2-z
-x,-y,-z
x,y,-z
-x,y,1/2+z
x,-y,1/2+z
1/2+x,1/2+y,1/2+z
1/2-x,1/2-y,1/2+z
1/2+x,1/2-y,-z
1/2-x,1/2+y,-z
1/2-x,1/2-y,1/2-z
1/2+x,1/2+y,1/2-z
1/2-x,1/2+y,z
1/2+x,1/2-y,z
loop_
_atom_site_type_symbol
_atom_site_label
_atom_site_fract_x
_atom_site_fract_y
_atom_site_fract_z
Si Si1 0.844647 0.799882 0.804752
Si Si2 0.000000 0.500000 0.250000
Si Si3 0.803378 0.182816 0.207800
Si Si4 0.126903 0.575952 0.320133
Si Si5 0.160659 0.996069 0.630225
Si Si6 0.327343 0.118810 0.133879
Si Si7 0.239095 0.474651 0.953959
Si Si8 0.560852 0.907588 0.953122
O O1 0.799558 0.820684 0.758270
O O2 0.796695 0.735607 0.805235
O O3 0.755631 0.832865 0.840603
O O4 0.024656 0.807316 0.806439
O O5 0.094864 0.540873 0.278850
O O6 0.734417 0.127460 0.188949
O O7 0.208432 0.532421 0.349847
O O8 0.972439 0.598106 0.340125
O O9 0.148615 0.022352 0.584175
O O10 0.213701 0.932941 0.630770
O O11 0.000000 0.000000 0.652059
O O12 0.383648 0.128087 0.086232
O O13 0.152269 0.533982 0.952598
O O14 0.111765 0.427590 0.947951
O O15 0.304925 0.468003 0.000000
O O16 0.578916 0.884171 0.000000
#
# Coordination Sequence:
#
# PCOD9527978 Si02
#       8
#    16   4  16  16  16  16  16  16
#     4  10  21  39  58  83 102 140 176 233 273 323
#     4  12  24  36  54  76 106 148 194 220 282 332
#     4  10  22  38  58  79 109 134 182 226 279 316
#     4  12  22  37  52  76 105 148 183 229 270 333
#     4  11  21  32  47  75 111 144 179 223 271 329
#     4  11  19  34  56  77 107 140 185 224 266 327
#     4   8  14  27  46  70 103 141 177 216 263 318
#     4   8  14  26  48  75 102 137 177 219 264 316
#
# _framework density 16.827182000000001
#
# number of rings (size 3 to 8) (size 9 to 14) (size 15 to 20)
#    0.000    1.931    2.759    3.310    0.000    2.483 
#    0.000    0.000    0.000    0.000    0.000    4.828 
#    0.000    0.000    0.000    0.000    0.000    0.000 
#
# Total GULP energy -323283.615860 kJ/mol
# GULP energy per Si atom -5573.855446 kJ/mol
# Density = 1.678888 g / cm^3
# Si number density = 16.827182 Si / 1000 Ang^3
#
#
#
# Elastic Constant Matrix: (Units=GPa)
#
#
# Indices 1 2 3 4 5 6 
#
# 1 69.1511 17.2595 29.1499 0.0000 0.0000 0.0000
# 2 17.2595 55.8559 32.2775 0.0000 0.0000 0.0000
# 3 29.1499 32.2775 104.7251 0.0000 0.0000 0.0000
# 4 0.0000 0.0000 0.0000 22.2741 0.0000 0.0000
# 5 0.0000 0.0000 0.0000 0.0000 42.6096 0.0000
# 6 0.0000 0.0000 0.0000 0.0000 0.0000 28.9669
#
#
#
# Elastic Compliance Matrix: (Units=1/GPa)
#
#
# Indices 1 2 3 4 5 6 
#
# 1 0.016794 -0.003027 -0.003742 0.000000 0.000000 0.000000
# 2 -0.003027 0.022329 -0.006039 0.000000 0.000000 0.000000
# 3 -0.003742 -0.006039 0.012452 0.000000 0.000000 0.000000
# 4 0.000000 0.000000 0.000000 0.044895 0.000000 0.000000
# 5 0.000000 0.000000 0.000000 0.000000 0.023469 0.000000
# 6 0.000000 0.000000 0.000000 0.000000 0.000000 0.034522
#
#
# Mechanical properties :
#
#
# Convention : Reuss Voigt Hill
#
# Bulk Modulus (GPa) = 38.52373 43.01177 40.76775
# Shear Modulus (GPa) = 26.49302 28.83980 27.66641
#
# Velocity S-wave (km/s) = 3.97220 4.14440 4.05921
# Velocity P-wave (km/s) = 6.63184 6.96547 6.80070
#
# Compressibility (1/GPa) = 0.02595802
#
# Stress axis : x y z
#
# Youngs Moduli (GPa) = 59.54571 44.78565 80.31071
#
# Poissons Ratio (x) = 0.13557 0.30048
# Poissons Ratio (y) = 0.18026 0.48502
# Poissons Ratio (z) = 0.22279 0.27048
#
# Static dielectric constant tensor:
#      x y z
#    x 1.594070 0.000000 0.000000 
#    y 0.000000 1.527180 0.000000 
#    z 0.000000 0.000000 1.617760 
# 
# From -- ./inp_files/51002.got.cif
#   From: 2010.05.17/outbox.cif.g08.bks.cpg/sg72_26_cif.got.tgz:51002.got - 2010.06.03 17:03:01.
