data_PCOD9527687
_publ_section_title
;
Structure prediction by ZEFSAII (Michael W. Deem and Ramdas Pophale) SiO2 
 PCOD9527687
Probable space group: I B A M
;
_chemical_formula_sum "Si O2"
_cell_formula_units_Z 112
_cell_length_a 14.451512
_cell_length_b 28.720668
_cell_length_c 14.484824
_cell_angle_alpha 90.000000
_cell_angle_beta 90.000000
_cell_angle_gamma 90.000000
_cell_volume 6012.028728
_symmetry_space_group_name_H-M "I B A M"
_symmetry_group_IT_number 72
_symmetry_cell_setting 'orthorhombic'
loop_
_space_group_symop_operation_xyz
x,y,z
-x,-y,z
x,-y,1/2-z
-x,y,1/2-z
-x,-y,-z
x,y,-z
-x,y,1/2+z
x,-y,1/2+z
1/2+x,1/2+y,1/2+z
1/2-x,1/2-y,1/2+z
1/2+x,1/2-y,-z
1/2-x,1/2+y,-z
1/2-x,1/2-y,1/2-z
1/2+x,1/2+y,1/2-z
1/2-x,1/2+y,z
1/2+x,1/2-y,z
loop_
_atom_site_type_symbol
_atom_site_label
_atom_site_fract_x
_atom_site_fract_y
_atom_site_fract_z
Si Si1 0.500000 0.053512 0.139973
Si Si2 0.293150 0.052680 0.106346
Si Si3 0.107118 0.199231 0.750000
Si Si4 0.793149 0.552680 0.106346
Si Si5 0.243242 0.848596 0.388276
Si Si6 0.892472 0.688921 0.750000
Si Si7 0.756758 0.848596 0.611724
O O1 0.500000 0.054925 0.250000
O O2 0.399878 0.070394 0.109697
O O3 0.600123 0.070394 0.109697
O O4 0.500000 0.000000 0.107936
O O5 0.235854 0.096789 0.140628
O O6 0.288574 0.000000 0.146823
O O7 0.267819 0.952232 0.000000
O O8 0.160883 0.179597 0.839451
O O9 0.111904 0.255174 0.750000
O O10 0.160883 0.179597 0.660549
O O11 0.000000 0.185390 0.750000
O O12 0.735854 0.596789 0.140628
O O13 0.232181 0.547769 0.000000
O O14 0.245225 0.844869 0.500000
O O15 0.336156 0.829304 0.339096
O O16 0.836157 0.670695 0.839096
O O17 0.000000 0.673916 0.750000
O O18 0.754775 0.844869 0.500000
#
# Coordination Sequence:
#
# PCOD9527687 Si02
#       7
#    16  16  16  16  16  16  16
#     4   9  17  25  39  67 103 147 183 205 241 303
#     4   9  18  31  47  72 109 147 177 210 256 313
#     4  10  23  43  60  78 105 140 184 240 297 332
#     4   9  18  31  47  72 109 147 177 210 256 313
#     4  10  21  36  59  86 111 145 187 226 267 326
#     4  10  23  39  56  82 118 147 174 224 280 331
#     4  10  21  36  59  86 111 145 187 226 267 326
#
# _framework density 18.629318999999999
#
# number of rings (size 3 to 8) (size 9 to 14) (size 15 to 20)
#    0.000    2.429    0.000    2.143    6.000    5.143 
#    0.000    2.857    0.000    1.714    0.000    4.000 
#    0.000    0.000    0.000    0.000    0.000    0.000 
#
# Total GULP energy -311807.267409 kJ/mol
# GULP energy per Si atom -5567.986918 kJ/mol
# Density = 1.858692 g / cm^3
# Si number density = 18.629319 Si / 1000 Ang^3
#
#
#
# Elastic Constant Matrix: (Units=GPa)
#
#
# Indices 1 2 3 4 5 6 
#
# 1 101.7063 49.9613 43.7665 0.0000 0.0000 0.0000
# 2 49.9613 117.4145 37.0163 0.0001 0.0000 0.0000
# 3 43.7665 37.0163 142.0036 0.0000 0.0000 0.0000
# 4 0.0000 0.0001 0.0000 41.7328 0.0000 0.0000
# 5 0.0000 0.0000 0.0000 0.0000 9.6827 0.0000
# 6 0.0000 0.0000 0.0000 0.0000 0.0000 29.3156
#
#
#
# Elastic Compliance Matrix: (Units=1/GPa)
#
#
# Indices 1 2 3 4 5 6 
#
# 1 0.013436 -0.004807 -0.002888 0.000000 0.000000 0.000000
# 2 -0.004807 0.010999 -0.001386 0.000000 0.000000 0.000000
# 3 -0.002888 -0.001386 0.008293 0.000000 0.000000 0.000000
# 4 0.000000 0.000000 0.000000 0.023962 0.000000 0.000000
# 5 0.000000 0.000000 0.000000 0.000000 0.103277 0.000000
# 6 0.000000 0.000000 0.000000 0.000000 0.000000 0.034112
#
#
# Mechanical properties :
#
#
# Convention : Reuss Voigt Hill
#
# Bulk Modulus (GPa) = 68.64569 69.17917 68.91243
# Shear Modulus (GPa) = 23.03125 31.50491 27.26808
#
# Velocity S-wave (km/s) = 3.51991 4.11682 3.83001
# Velocity P-wave (km/s) = 7.31080 7.73387 7.52531
#
# Compressibility (1/GPa) = 0.01456756
#
# Stress axis : x y z
#
# Youngs Moduli (GPa) = 74.42516 90.91722 120.57735
#
# Poissons Ratio (x) = 0.43702 0.34825
# Poissons Ratio (y) = 0.35775 0.16708
# Poissons Ratio (z) = 0.21495 0.12598
#
# Static dielectric constant tensor:
#      x y z
#    x 1.649610 0.000000 0.000000 
#    y 0.000000 1.698480 0.000000 
#    z 0.000000 0.000000 1.657790 
# 
# From -- ./inp_files/22317.got.cif
#   From: 2010.05.17/outbox.cif.g08.bks.cpg/sg72_12_cif.got.tgz:22317.got - 2010.06.03 17:03:01.
