data_PCOD9527050
_publ_section_title
;
Structure prediction by ZEFSAII (Michael W. Deem and Ramdas Pophale) SiO2 
 PCOD9527050
Probable space group: I B A M
;
_chemical_formula_sum "Si O2"
_cell_formula_units_Z 112
_cell_length_a 14.535176
_cell_length_b 13.794718
_cell_length_c 23.536204
_cell_angle_alpha 90.000000
_cell_angle_beta 90.000000
_cell_angle_gamma 90.000000
_cell_volume 4719.212584
_symmetry_space_group_name_H-M "I B A M"
_symmetry_group_IT_number 72
_symmetry_cell_setting 'orthorhombic'
loop_
_space_group_symop_operation_xyz
x,y,z
-x,-y,z
x,-y,1/2-z
-x,y,1/2-z
-x,-y,-z
x,y,-z
-x,y,1/2+z
x,-y,1/2+z
1/2+x,1/2+y,1/2+z
1/2-x,1/2-y,1/2+z
1/2+x,1/2-y,-z
1/2-x,1/2+y,-z
1/2-x,1/2-y,1/2-z
1/2+x,1/2+y,1/2-z
1/2-x,1/2+y,z
1/2+x,1/2-y,z
loop_
_atom_site_type_symbol
_atom_site_label
_atom_site_fract_x
_atom_site_fract_y
_atom_site_fract_z
Si Si1 0.534575 0.097565 0.936388
Si Si2 0.885690 0.857800 0.400502
Si Si3 0.605870 0.694965 0.231813
Si Si4 0.932174 0.200037 0.432413
Si Si5 0.200663 0.607196 0.731646
Si Si6 0.213339 0.465044 0.104956
Si Si7 0.274255 0.830752 0.566528
O O1 0.523261 0.200696 0.907855
O O2 0.643963 0.084149 0.938794
O O3 0.500000 0.000000 0.906971
O O4 0.492821 0.099521 0.000000
O O5 0.891238 0.828505 0.334766
O O6 0.819159 0.948710 0.410587
O O7 0.833910 0.766327 0.429440
O O8 0.988565 0.876260 0.421360
O O9 0.500000 0.675469 0.250000
O O10 0.694552 0.631221 0.253424
O O11 0.636269 0.804703 0.247925
O O12 0.924315 0.215192 0.500000
O O13 0.829493 0.186415 0.411586
O O14 0.171970 0.500000 0.750000
O O15 0.200524 0.593728 0.663424
O O16 0.190147 0.578791 0.103364
O O17 0.271029 0.860528 0.500000
#
# Coordination Sequence:
#
# PCOD9527050 Si02
#       7
#    16  16  16  16  16  16  16
#     4  10  20  36  58  88 122 160 209 257 308 371
#     4  11  23  40  65  92 123 167 215 262 321 383
#     4  10  24  42  67  95 123 168 214 273 333 385
#     4  10  22  37  59  89 126 168 204 254 310 373
#     4  10  23  44  64  92 129 162 214 272 329 390
#     4  11  23  39  63  89 121 170 208 261 318 380
#     4  11  23  40  62  92 132 171 209 258 316 381
#
# _framework density 23.732773999999999
#
# number of rings (size 3 to 8) (size 9 to 14) (size 15 to 20)
#    0.000    1.571    1.429    2.571    2.000    6.286 
#    0.000    4.286    0.000    0.000    0.000    0.000 
#    0.000    0.000    0.000    0.000    0.000    0.000 
#
# Total GULP energy -312588.633837 kJ/mol
# GULP energy per Si atom -5581.939890 kJ/mol
# Density = 2.367876 g / cm^3
# Si number density = 23.732774 Si / 1000 Ang^3
#
#
#
# Elastic Constant Matrix: (Units=GPa)
#
#
# Indices 1 2 3 4 5 6 
#
# 1 107.7225 -8.6391 14.8081 0.0000 0.0000 0.0000
# 2 -8.6391 70.8885 6.2795 0.0000 0.0000 0.0000
# 3 14.8081 6.2795 39.4532 0.0000 0.0000 0.0000
# 4 0.0000 0.0000 0.0000 16.6677 0.0000 0.0000
# 5 0.0000 0.0000 0.0000 0.0000 51.5355 0.0000
# 6 0.0000 0.0000 0.0000 0.0000 0.0000 28.9145
#
#
#
# Elastic Compliance Matrix: (Units=1/GPa)
#
#
# Indices 1 2 3 4 5 6 
#
# 1 0.009957 0.001567 -0.003986 0.000000 0.000000 0.000000
# 2 0.001567 0.014555 -0.002905 0.000000 0.000000 0.000000
# 3 -0.003986 -0.002905 0.027305 0.000000 0.000000 0.000000
# 4 0.000000 0.000000 0.000000 0.059996 0.000000 0.000000
# 5 0.000000 0.000000 0.000000 0.000000 0.019404 0.000000
# 6 0.000000 0.000000 0.000000 0.000000 0.000000 0.034585
#
#
# Mechanical properties :
#
#
# Convention : Reuss Voigt Hill
#
# Bulk Modulus (GPa) = 24.29090 26.99571 25.64331
# Shear Modulus (GPa) = 26.29180 33.13126 29.71153
#
# Velocity S-wave (km/s) = 3.33201 3.74038 3.54209
# Velocity P-wave (km/s) = 5.00604 5.48210 5.24947
#
# Compressibility (1/GPa) = 0.04116769
#
# Stress axis : x y z
#
# Youngs Moduli (GPa) = 100.43444 68.70557 36.62323
#
# Poissons Ratio (x) = -0.10763 0.14600
# Poissons Ratio (y) = -0.15733 0.10638
# Poissons Ratio (z) = 0.40038 0.19956
#
# Static dielectric constant tensor:
#      x y z
#    x 1.952130 0.000000 0.000000 
#    y 0.000000 1.927760 0.000000 
#    z 0.000000 0.000000 1.929870 
# 
# From -- ./inp_files/44345.got.cif
#   From: 2010.05.17/outbox.cif.g08.bks.cpg/sg72_23_cif.got.tgz:44345.got - 2010.06.03 17:03:01.
