data_PCOD9527064
_publ_section_title
;
Structure prediction by ZEFSAII (Michael W. Deem and Ramdas Pophale) SiO2 
 PCOD9527064
Probable space group: I B A M
;
_chemical_formula_sum "Si O2"
_cell_formula_units_Z 92
_cell_length_a 23.330507
_cell_length_b 7.464079
_cell_length_c 21.344542
_cell_angle_alpha 90.000000
_cell_angle_beta 90.000000
_cell_angle_gamma 90.000000
_cell_volume 3716.954496
_symmetry_space_group_name_H-M "I B A M"
_symmetry_group_IT_number 72
_symmetry_cell_setting 'orthorhombic'
loop_
_space_group_symop_operation_xyz
x,y,z
-x,-y,z
x,-y,1/2-z
-x,y,1/2-z
-x,-y,-z
x,y,-z
-x,y,1/2+z
x,-y,1/2+z
1/2+x,1/2+y,1/2+z
1/2-x,1/2-y,1/2+z
1/2+x,1/2-y,-z
1/2-x,1/2+y,-z
1/2-x,1/2-y,1/2-z
1/2+x,1/2+y,1/2-z
1/2-x,1/2+y,z
1/2+x,1/2-y,z
loop_
_atom_site_type_symbol
_atom_site_label
_atom_site_fract_x
_atom_site_fract_y
_atom_site_fract_z
Si Si1 0.830228 0.649651 0.500000
Si Si2 0.302119 0.570657 0.000000
Si Si3 0.907918 0.500000 0.250000
Si Si4 0.800840 0.926343 0.138714
Si Si5 0.406255 0.652618 0.799753
Si Si6 0.668395 0.846634 0.137820
Si Si7 0.500000 0.000000 0.500000
Si Si8 0.046995 0.154453 0.935784
O O1 0.767948 0.560455 0.500000
O O2 0.856531 0.605350 0.568066
O O3 0.822143 0.864120 0.500000
O O4 0.312112 0.653533 0.068937
O O5 0.938204 0.330734 0.279230
O O6 0.871064 0.583886 0.306925
O O7 0.822900 0.131674 0.140309
O O8 0.836993 0.825644 0.192341
O O9 0.732571 0.923464 0.146181
O O10 0.418378 0.500000 0.750000
O O11 0.422938 0.620257 0.870880
O O12 0.481697 0.152206 0.446538
O O13 0.084072 0.129897 0.000000
O O14 0.000000 0.000000 0.937902
#
# Coordination Sequence:
#
# PCOD9527064 Si02
#       8
#     8   8   8  16  16  16   4  16
#     4   8  16  32  49  78 103 153 221 286 318 382
#     4   8  16  29  53  78 108 150 213 283 340 362
#     4  12  26  42  58  95 138 192 233 282 342 400
#     4  10  20  36  59  87 127 179 236 292 334 398
#     4  12  26  43  64 102 145 176 230 285 348 418
#     4  10  20  37  58  81 128 185 243 282 340 393
#     4   8  18  46  80 116 136 164 226 270 344 436
#     4   9  22  48  80 109 134 173 220 276 350 434
#
# _framework density 24.751446999999999
#
# number of rings (size 3 to 8) (size 9 to 14) (size 15 to 20)
#    0.522    1.565    1.739    1.043    2.435    4.522 
#    1.565    0.000    0.000    0.000    0.000    0.000 
#    0.000    0.000    0.000    0.000    0.000    0.000 
#
# Total GULP energy -256402.055231 kJ/mol
# GULP energy per Si atom -5573.957722 kJ/mol
# Density = 2.469511 g / cm^3
# Si number density = 24.751447 Si / 1000 Ang^3
#
#
#
# Elastic Constant Matrix: (Units=GPa)
#
#
# Indices 1 2 3 4 5 6 
#
# 1 31.4260 12.0457 20.5303 0.0000 0.0000 0.0000
# 2 12.0457 100.9822 21.7363 0.0000 0.0000 0.0000
# 3 20.5303 21.7363 164.3199 0.0000 0.0000 0.0000
# 4 0.0000 0.0000 0.0000 40.6344 0.0000 0.0000
# 5 0.0000 0.0000 0.0000 0.0000 23.9907 0.0000
# 6 0.0000 0.0000 0.0000 0.0000 0.0000 -6.3168
#
#
#
# Elastic Compliance Matrix: (Units=1/GPa)
#
#
# Indices 1 2 3 4 5 6 
#
# 1 0.035748 -0.003400 -0.004017 0.000000 0.000000 0.000000
# 2 -0.003400 0.010516 -0.000966 0.000000 0.000000 0.000000
# 3 -0.004017 -0.000966 0.006715 0.000000 0.000000 0.000000
# 4 0.000000 0.000000 0.000000 0.024610 0.000000 0.000000
# 5 0.000000 0.000000 0.000000 0.000000 0.041683 0.000000
# 6 0.000000 0.000000 0.000000 0.000000 0.000000 -0.158309
#
#
# Mechanical properties :
#
#
# Convention : Reuss Voigt Hill
#
# Bulk Modulus (GPa) = 27.61341 45.03918 36.32630
# Shear Modulus (GPa) = -490.17538 27.82273 -231.17632
#
# Velocity S-wave (km/s) = -14.08790 3.35637 -9.67481
# Velocity P-wave (km/s) = 15.91995 5.76684 10.49258
#
# Compressibility (1/GPa) = 0.03621428
#
# Stress axis : x y z
#
# Youngs Moduli (GPa) = 27.97366 95.09086 148.91222
#
# Poissons Ratio (x) = 0.32327 0.59813
# Poissons Ratio (y) = 0.09510 0.14390
# Poissons Ratio (z) = 0.11236 0.09189
#
# Static dielectric constant tensor:
#      x y z
#    x 2.016760 0.000000 0.000000 
#    y 0.000000 2.039400 0.000000 
#    z 0.000000 0.000000 1.998110 
# 
# From -- ./inp_files/40756.got.cif
#   From: 2010.05.17/outbox.cif.g08.bks.cpg/sg72_21_cif.got.tgz:40756.got - 2010.06.03 17:03:01.
