data_PCOD9527445
_publ_section_title
;
Structure prediction by ZEFSAII (Michael W. Deem and Ramdas Pophale) SiO2 
 PCOD9527445
Probable space group: I B A M
;
_chemical_formula_sum "Si O2"
_cell_formula_units_Z 80
_cell_length_a 18.008476
_cell_length_b 14.666961
_cell_length_c 15.649060
_cell_angle_alpha 90.000000
_cell_angle_beta 90.000000
_cell_angle_gamma 90.000000
_cell_volume 4133.380195
_symmetry_space_group_name_H-M "I B A M"
_symmetry_group_IT_number 72
_symmetry_cell_setting 'orthorhombic'
loop_
_space_group_symop_operation_xyz
x,y,z
-x,-y,z
x,-y,1/2-z
-x,y,1/2-z
-x,-y,-z
x,y,-z
-x,y,1/2+z
x,-y,1/2+z
1/2+x,1/2+y,1/2+z
1/2-x,1/2-y,1/2+z
1/2+x,1/2-y,-z
1/2-x,1/2+y,-z
1/2-x,1/2-y,1/2-z
1/2+x,1/2+y,1/2-z
1/2-x,1/2+y,z
1/2+x,1/2-y,z
loop_
_atom_site_type_symbol
_atom_site_label
_atom_site_fract_x
_atom_site_fract_y
_atom_site_fract_z
Si Si1 0.823800 0.143929 0.591718
Si Si2 0.735044 0.026733 0.150270
Si Si3 0.791811 0.229836 0.161123
Si Si4 0.930884 0.430618 0.600460
Si Si5 0.420181 0.246794 0.276158
O O1 0.860985 0.150354 0.500000
O O2 0.751311 0.208662 0.594434
O O3 0.877888 0.180495 0.664764
O O4 0.790351 0.045418 0.608897
O O5 0.773653 0.125315 0.141773
O O6 0.651767 0.026602 0.111883
O O7 0.727757 0.000000 0.250000
O O8 0.750000 0.250000 0.250000
O O9 0.873741 0.261007 0.187698
O O10 0.938126 0.402497 0.500000
O O11 0.928629 0.346000 0.667751
O O12 0.000000 0.500000 0.618487
O O13 0.500000 0.280292 0.250000
#
# Coordination Sequence:
#
# PCOD9527445 Si02
#       5
#    16  16  16  16  16
#     4  11  23  40  65  94 128 167 212 266 318 370
#     4  12  21  39  67  94 125 165 220 260 308 386
#     4  10  20  40  62  91 123 169 216 255 305 374
#     4  11  25  38  57  95 137 166 199 257 326 382
#     4  11  23  41  63  90 127 170 211 258 314 382
#
# _framework density 19.354619
#
# number of rings (size 3 to 8) (size 9 to 14) (size 15 to 20)
#    0.000    1.000    8.000    1.200    5.600    0.800 
#    0.000    3.000    0.000    1.200    0.000    0.000 
#    0.000    0.000    0.000    0.000    0.000    0.000 
#
# Total GULP energy -223055.795117 kJ/mol
# GULP energy per Si atom -5576.394878 kJ/mol
# Density = 1.931057 g / cm^3
# Si number density = 19.354619 Si / 1000 Ang^3
#
#
#
# Elastic Constant Matrix: (Units=GPa)
#
#
# Indices 1 2 3 4 5 6 
#
# 1 127.1325 35.8993 25.2971 0.0000 0.0000 0.0000
# 2 35.8993 146.6690 19.1949 0.0000 0.0000 0.0000
# 3 25.2971 19.1949 62.6219 0.0000 0.0000 0.0000
# 4 0.0000 0.0000 0.0000 -11.7411 0.0000 0.0000
# 5 0.0000 0.0000 0.0000 0.0000 19.9301 0.0000
# 6 0.0000 0.0000 0.0000 0.0000 0.0000 26.9686
#
#
#
# Elastic Compliance Matrix: (Units=1/GPa)
#
#
# Indices 1 2 3 4 5 6 
#
# 1 0.008986 -0.001796 -0.003079 0.000000 0.000000 0.000000
# 2 -0.001796 0.007462 -0.001562 0.000000 0.000000 0.000000
# 3 -0.003079 -0.001562 0.017691 0.000000 0.000000 0.000000
# 4 0.000000 0.000000 0.000000 -0.085171 0.000000 0.000000
# 5 0.000000 0.000000 0.000000 0.000000 0.050175 0.000000
# 6 0.000000 0.000000 0.000000 0.000000 0.000000 0.037080
#
#
# Mechanical properties :
#
#
# Convention : Reuss Voigt Hill
#
# Bulk Modulus (GPa) = 47.02622 55.24510 51.13566
# Shear Modulus (GPa) = 88.98878 24.10033 56.54456
#
# Velocity S-wave (km/s) = 6.78807 3.53256 5.41096
# Velocity P-wave (km/s) = 9.26213 6.72639 8.09418
#
# Compressibility (1/GPa) = 0.02126473
#
# Stress axis : x y z
#
# Youngs Moduli (GPa) = 111.28674 134.00980 56.52444
#
# Poissons Ratio (x) = 0.24074 0.17406
# Poissons Ratio (y) = 0.19992 0.08827
# Poissons Ratio (z) = 0.34269 0.20927
#
# Static dielectric constant tensor:
#      x y z
#    x 1.633970 0.000000 0.000000 
#    y 0.000000 1.604070 0.000000 
#    z 0.000000 0.000000 1.711980 
# 
# From -- ./inp_files/31378.got.cif
#   From: 2010.05.17/outbox.cif.g08.bks.cpg/sg72_16_cif.got.tgz:31378.got - 2010.06.03 17:03:01.
