data_PCOD9527405
_publ_section_title
;
Structure prediction by ZEFSAII (Michael W. Deem and Ramdas Pophale) SiO2 
 PCOD9527405
Probable space group: I B A M
;
_chemical_formula_sum "Si O2"
_cell_formula_units_Z 96
_cell_length_a 15.892498
_cell_length_b 18.920216
_cell_length_c 15.347335
_cell_angle_alpha 90.000000
_cell_angle_beta 90.000000
_cell_angle_gamma 90.000000
_cell_volume 4614.782410
_symmetry_space_group_name_H-M "I B A M"
_symmetry_group_IT_number 72
_symmetry_cell_setting 'orthorhombic'
loop_
_space_group_symop_operation_xyz
x,y,z
-x,-y,z
x,-y,1/2-z
-x,y,1/2-z
-x,-y,-z
x,y,-z
-x,y,1/2+z
x,-y,1/2+z
1/2+x,1/2+y,1/2+z
1/2-x,1/2-y,1/2+z
1/2+x,1/2-y,-z
1/2-x,1/2+y,-z
1/2-x,1/2-y,1/2-z
1/2+x,1/2+y,1/2-z
1/2-x,1/2+y,z
1/2+x,1/2-y,z
loop_
_atom_site_type_symbol
_atom_site_label
_atom_site_fract_x
_atom_site_fract_y
_atom_site_fract_z
Si Si1 0.297306 0.668071 0.333417
Si Si2 0.894740 0.337854 0.000000
Si Si3 0.905429 0.833227 0.500000
Si Si4 0.476769 0.865822 0.849928
Si Si5 0.143011 0.231015 0.843882
Si Si6 0.254864 0.950093 0.500000
Si Si7 0.902839 0.870743 0.000000
Si Si8 0.325352 0.960774 0.160785
O O1 0.355249 0.647034 0.413451
O O2 0.232134 0.730085 0.360187
O O3 0.349797 0.697262 0.251905
O O4 0.238605 0.601687 0.311398
O O5 0.944537 0.363963 0.085845
O O6 0.904185 0.252971 0.000000
O O7 0.803415 0.374202 0.000000
O O8 0.996589 0.868824 0.500000
O O9 0.500000 0.879479 0.750000
O O10 0.429030 0.790328 0.851329
O O11 0.408405 0.923756 0.877602
O O12 0.124977 0.172445 0.914827
O O13 0.154398 0.940266 0.500000
O O14 0.284452 0.991103 0.413548
O O15 0.347140 0.000000 0.250000
#
# Coordination Sequence:
#
# PCOD9527405 Si02
#       8
#    16   8   8  16  16   8   8  16
#     4  10  22  39  66  89 122 166 212 259 317 377
#     4  12  23  39  61  98 128 162 202 257 325 388
#     4  12  23  40  66  96 121 156 212 274 326 363
#     4  11  22  37  63  96 133 160 204 260 315 384
#     4  10  20  39  62  94 125 161 202 266 329 370
#     4  12  26  41  63  87 130 174 213 250 309 390
#     4  12  24  40  63  91 126 160 211 270 318 369
#     4  11  24  43  61  90 128 175 215 249 302 379
#
# _framework density 20.802714000000002
#
# number of rings (size 3 to 8) (size 9 to 14) (size 15 to 20)
#    0.000    1.000    1.667    5.500    0.000    8.333 
#    0.000    1.667    0.000    1.000    0.000    0.000 
#    0.000    0.000    0.000    0.000    0.000    0.000 
#
# Total GULP energy -268595.902726 kJ/mol
# GULP energy per Si atom -5595.747973 kJ/mol
# Density = 2.075537 g / cm^3
# Si number density = 20.802714 Si / 1000 Ang^3
#
#
#
# Elastic Constant Matrix: (Units=GPa)
#
#
# Indices 1 2 3 4 5 6 
#
# 1 49.0663 -6.4320 1.6085 0.0000 0.0000 0.0000
# 2 -6.4320 33.7826 -23.4269 0.0000 0.0000 0.0000
# 3 1.6085 -23.4269 57.1053 0.0000 0.0000 0.0000
# 4 0.0000 0.0000 0.0000 42.7275 0.0000 0.0000
# 5 0.0000 0.0000 0.0000 0.0000 16.1392 0.0000
# 6 0.0000 0.0000 0.0000 0.0000 0.0000 17.0453
#
#
#
# Elastic Compliance Matrix: (Units=1/GPa)
#
#
# Indices 1 2 3 4 5 6 
#
# 1 0.020990 0.005012 0.001465 0.000000 0.000000 0.000000
# 2 0.005012 0.042567 0.017322 0.000000 0.000000 0.000000
# 3 0.001465 0.017322 0.024576 0.000000 0.000000 0.000000
# 4 0.000000 0.000000 0.000000 0.023404 0.000000 0.000000
# 5 0.000000 0.000000 0.000000 0.000000 0.061961 0.000000
# 6 0.000000 0.000000 0.000000 0.000000 0.000000 0.058667
#
#
# Mechanical properties :
#
#
# Convention : Reuss Voigt Hill
#
# Bulk Modulus (GPa) = 7.36755 9.27262 8.32008
# Shear Modulus (GPa) = 21.75701 26.39605 24.07653
#
# Velocity S-wave (km/s) = 3.23751 3.56599 3.40571
# Velocity P-wave (km/s) = 4.18624 4.62841 4.41286
#
# Compressibility (1/GPa) = 0.13573038
#
# Stress axis : x y z
#
# Youngs Moduli (GPa) = 47.64270 23.49230 40.68970
#
# Poissons Ratio (x) = -0.11775 -0.05961
# Poissons Ratio (y) = -0.23879 -0.70481
# Poissons Ratio (z) = -0.06980 -0.40692
#
# Static dielectric constant tensor:
#      x y z
#    x 1.744900 0.000000 0.000000 
#    y 0.000000 1.754860 0.000000 
#    z 0.000000 0.000000 1.700810 
# 
# From -- ./inp_files/21923.got.cif
#   From: 2010.05.17/outbox.cif.g08.bks.cpg/sg72_11_cif.got.tgz:21923.got - 2010.06.03 17:03:01.
