data_PCOD9527442
_publ_section_title
;
Structure prediction by ZEFSAII (Michael W. Deem and Ramdas Pophale) SiO2 
 PCOD9527442
Probable space group: I B A M
;
_chemical_formula_sum "Si O2"
_cell_formula_units_Z 80
_cell_length_a 8.730593
_cell_length_b 21.783828
_cell_length_c 16.760108
_cell_angle_alpha 90.000000
_cell_angle_beta 90.000000
_cell_angle_gamma 90.000000
_cell_volume 3187.533480
_symmetry_space_group_name_H-M "I B A M"
_symmetry_group_IT_number 72
_symmetry_cell_setting 'orthorhombic'
loop_
_space_group_symop_operation_xyz
x,y,z
-x,-y,z
x,-y,1/2-z
-x,y,1/2-z
-x,-y,-z
x,y,-z
-x,y,1/2+z
x,-y,1/2+z
1/2+x,1/2+y,1/2+z
1/2-x,1/2-y,1/2+z
1/2+x,1/2-y,-z
1/2-x,1/2+y,-z
1/2-x,1/2-y,1/2-z
1/2+x,1/2+y,1/2-z
1/2-x,1/2+y,z
1/2+x,1/2-y,z
loop_
_atom_site_type_symbol
_atom_site_label
_atom_site_fract_x
_atom_site_fract_y
_atom_site_fract_z
Si Si1 0.074658 0.252110 0.500000
Si Si2 0.345858 0.143005 0.793251
Si Si3 0.166846 0.468354 0.410068
Si Si4 0.553814 0.311648 0.159421
Si Si5 0.822525 0.087549 0.858007
Si Si6 0.662449 0.160605 0.000000
O O1 0.245445 0.225197 0.500000
O O2 0.007627 0.226013 0.584215
O O3 0.015689 0.322091 0.500000
O O4 0.500000 0.163542 0.750000
O O5 0.366679 0.091028 0.858403
O O6 0.236752 0.193052 0.833384
O O7 0.247133 0.109671 0.724949
O O8 0.218051 0.455015 0.500000
O O9 0.289249 0.516009 0.371762
O O10 0.000000 0.500000 0.413345
O O11 0.500000 0.297100 0.250000
O O12 0.490908 0.381249 0.140405
O O13 0.722095 0.122248 0.925149
#
# Coordination Sequence:
#
# PCOD9527442 Si02
#       6
#     8  16  16  16  16   8
#     4  10  22  44  71  95 133 159 222 285 323 413
#     4  11  22  37  61  91 127 166 214 261 315 382
#     4  11  22  36  58  90 132 168 214 267 314 384
#     4   9  22  42  65  93 131 174 217 270 335 391
#     4  10  20  40  61  85 128 172 208 260 324 391
#     4  10  22  42  64  95 122 170 212 269 338 376
#
# _framework density 25.097774999999999
#
# number of rings (size 3 to 8) (size 9 to 14) (size 15 to 20)
#    0.000    1.800    3.000    0.600    1.400    2.400 
#    0.000   14.000    0.000    0.000    0.000    0.000 
#    0.000    0.000    0.000    0.000    0.000    0.000 
#
# Total GULP energy -223735.921979 kJ/mol
# GULP energy per Si atom -5593.398049 kJ/mol
# Density = 2.504065 g / cm^3
# Si number density = 25.097775 Si / 1000 Ang^3
#
#
#
# Elastic Constant Matrix: (Units=GPa)
#
#
# Indices 1 2 3 4 5 6 
#
# 1 107.5726 39.8397 22.8945 0.0000 0.0000 0.0000
# 2 39.8397 79.8925 38.0379 0.0000 0.0000 0.0000
# 3 22.8945 38.0379 144.2178 0.0000 0.0000 0.0000
# 4 0.0000 0.0000 0.0000 2.0505 0.0000 0.0000
# 5 0.0000 0.0000 0.0000 0.0000 9.4679 0.0000
# 6 0.0000 0.0000 0.0000 0.0000 0.0000 41.5908
#
#
#
# Elastic Compliance Matrix: (Units=1/GPa)
#
#
# Indices 1 2 3 4 5 6 
#
# 1 0.011418 -0.005524 -0.000355 0.000000 0.000000 0.000000
# 2 -0.005524 0.016987 -0.003603 0.000000 0.000000 0.000000
# 3 -0.000355 -0.003603 0.007941 0.000000 0.000000 0.000000
# 4 0.000000 0.000000 0.000000 0.487686 0.000000 0.000000
# 5 0.000000 0.000000 0.000000 0.000000 0.105620 0.000000
# 6 0.000000 0.000000 0.000000 0.000000 0.000000 0.024044
#
#
# Mechanical properties :
#
#
# Convention : Reuss Voigt Hill
#
# Bulk Modulus (GPa) = 57.54018 59.24747 58.39383
# Shear Modulus (GPa) = 7.36968 26.01589 16.69278
#
# Velocity S-wave (km/s) = 1.71545 3.22309 2.58177
# Velocity P-wave (km/s) = 5.18651 6.12446 5.67489
#
# Compressibility (1/GPa) = 0.01737916
#
# Stress axis : x y z
#
# Youngs Moduli (GPa) = 87.58358 58.86755 125.93168
#
# Poissons Ratio (x) = 0.32521 0.04477
# Poissons Ratio (y) = 0.48384 0.45379
# Poissons Ratio (z) = 0.03113 0.21213
#
# Static dielectric constant tensor:
#      x y z
#    x 2.029320 0.000000 0.000000 
#    y 0.000000 1.979560 0.000000 
#    z 0.000000 0.000000 2.176940 
# 
# From -- ./inp_files/28220.got.cif
#   From: 2010.05.17/outbox.cif.g08.bks.cpg/sg72_15_cif.got.tgz:28220.got - 2010.06.03 17:03:01.
