data_PCOD9527859
_publ_section_title
;
Structure prediction by ZEFSAII (Michael W. Deem and Ramdas Pophale) SiO2 
 PCOD9527859
Probable space group: I B A M
;
_chemical_formula_sum "Si O2"
_cell_formula_units_Z 108
_cell_length_a 22.060319
_cell_length_b 16.601158
_cell_length_c 13.870856
_cell_angle_alpha 90.000000
_cell_angle_beta 90.000000
_cell_angle_gamma 90.000000
_cell_volume 5079.879778
_symmetry_space_group_name_H-M "I B A M"
_symmetry_group_IT_number 72
_symmetry_cell_setting 'orthorhombic'
loop_
_space_group_symop_operation_xyz
x,y,z
-x,-y,z
x,-y,1/2-z
-x,y,1/2-z
-x,-y,-z
x,y,-z
-x,y,1/2+z
x,-y,1/2+z
1/2+x,1/2+y,1/2+z
1/2-x,1/2-y,1/2+z
1/2+x,1/2-y,-z
1/2-x,1/2+y,-z
1/2-x,1/2-y,1/2-z
1/2+x,1/2+y,1/2-z
1/2-x,1/2+y,z
1/2+x,1/2-y,z
loop_
_atom_site_type_symbol
_atom_site_label
_atom_site_fract_x
_atom_site_fract_y
_atom_site_fract_z
Si Si1 0.000000 0.346430 0.750000
Si Si2 0.767369 0.890815 0.614348
Si Si3 0.435073 0.957094 0.108737
Si Si4 0.068617 0.771032 0.887726
Si Si5 0.500000 0.500000 0.000000
Si Si6 0.189066 0.540249 0.883596
Si Si7 0.708727 0.782912 0.112515
Si Si8 0.095575 0.055805 0.342181
O O1 0.053279 0.396193 0.803572
O O2 0.027086 0.292928 0.664626
O O3 0.755343 0.883643 0.500000
O O4 0.761674 0.799240 0.653660
O O5 0.836099 0.922877 0.624446
O O6 0.723877 0.960886 0.651735
O O7 0.500000 0.000000 0.102856
O O8 0.381816 0.020480 0.129730
O O9 0.422551 0.922938 0.000000
O O10 0.137047 0.737571 0.887393
O O11 0.066783 0.855261 0.831277
O O12 0.051950 0.786148 0.000000
O O13 0.552924 0.511376 0.917600
O O14 0.213269 0.626490 0.847265
O O15 0.197240 0.544084 0.000000
O O16 0.728148 0.787511 0.000000
O O17 0.099448 0.000000 0.250000
#
# Coordination Sequence:
#
# PCOD9527859 Si02
#       8
#     8  16  16  16   4  16  16  16
#     4  12  23  34  57  86 120 154 202 270 319 362
#     4   9  17  36  59  87 124 159 207 258 306 369
#     4  10  21  38  57  86 124 160 205 259 312 378
#     4  10  21  39  59  83 119 162 205 247 311 384
#     4  12  22  40  68  86 120 164 206 256 308 374
#     4   9  17  32  62  89 115 166 211 250 317 380
#     4   8  15  31  56  83 110 156 204 243 293 376
#     4  11  23  39  63  92 121 159 208 257 305 372
#
# _framework density 21.260345999999998
#
# number of rings (size 3 to 8) (size 9 to 14) (size 15 to 20)
#    0.000    2.222    1.481    2.667    2.074    2.370 
#    0.000    4.444    0.000    5.333    0.000    0.000 
#    0.000    0.000    0.000    0.000    0.000    0.000 
#
# Total GULP energy -300705.933100 kJ/mol
# GULP energy per Si atom -5568.628391 kJ/mol
# Density = 2.121196 g / cm^3
# Si number density = 21.260346 Si / 1000 Ang^3
#
#
#
# Elastic Constant Matrix: (Units=GPa)
#
#
# Indices 1 2 3 4 5 6 
#
# 1 65.3602 50.5125 1.2433 0.0000 0.0000 0.0000
# 2 50.5125 186.6996 60.2210 0.0000 0.0000 0.0000
# 3 1.2433 60.2210 59.3624 0.0000 0.0000 0.0000
# 4 0.0000 0.0000 0.0000 -10.9605 0.0000 0.0000
# 5 0.0000 0.0000 0.0000 0.0000 24.2712 0.0000
# 6 0.0000 0.0000 0.0000 0.0000 0.0000 31.6931
#
#
#
# Elastic Compliance Matrix: (Units=1/GPa)
#
#
# Indices 1 2 3 4 5 6 
#
# 1 0.021728 -0.008520 0.008188 0.000000 0.000000 0.000000
# 2 -0.008520 0.011302 -0.011287 0.000000 0.000000 0.000000
# 3 0.008188 -0.011287 0.028124 0.000000 0.000000 0.000000
# 4 0.000000 0.000000 0.000000 -0.091237 0.000000 0.000000
# 5 0.000000 0.000000 0.000000 0.000000 0.041201 0.000000
# 6 0.000000 0.000000 0.000000 0.000000 0.000000 0.031553
#
#
# Mechanical properties :
#
#
# Convention : Reuss Voigt Hill
#
# Bulk Modulus (GPa) = 26.37326 59.48621 42.92973
# Shear Modulus (GPa) = 63.65497 22.29712 42.97605
#
# Velocity S-wave (km/s) = 5.47775 3.24198 4.50090
# Velocity P-wave (km/s) = 7.24151 6.48495 6.87364
#
# Compressibility (1/GPa) = 0.03791719
#
# Stress axis : x y z
#
# Youngs Moduli (GPa) = 46.02253 88.48019 35.55624
#
# Poissons Ratio (x) = 0.75384 -0.29113
# Poissons Ratio (y) = 0.39210 0.40132
# Poissons Ratio (z) = -0.37683 0.99868
#
# Static dielectric constant tensor:
#      x y z
#    x 1.750950 0.000000 0.000000 
#    y 0.000000 1.709050 0.000000 
#    z 0.000000 0.000000 1.840820 
# 
# From -- ./inp_files/25253.got.cif
#   From: 2010.05.17/outbox.cif.g08.bks.cpg/sg72_13_cif.got.tgz:25253.got - 2010.06.03 17:03:01.
