data_PCOD9527796
_publ_section_title
;
Structure prediction by ZEFSAII (Michael W. Deem and Ramdas Pophale) SiO2 
 PCOD9527796
Probable space group: I B A M
;
_chemical_formula_sum "Si O2"
_cell_formula_units_Z 64
_cell_length_a 12.933382
_cell_length_b 8.263575
_cell_length_c 25.971475
_cell_angle_alpha 90.000000
_cell_angle_beta 90.000000
_cell_angle_gamma 90.000000
_cell_volume 2775.726639
_symmetry_space_group_name_H-M "I B A M"
_symmetry_group_IT_number 72
_symmetry_cell_setting 'orthorhombic'
loop_
_space_group_symop_operation_xyz
x,y,z
-x,-y,z
x,-y,1/2-z
-x,y,1/2-z
-x,-y,-z
x,y,-z
-x,y,1/2+z
x,-y,1/2+z
1/2+x,1/2+y,1/2+z
1/2-x,1/2-y,1/2+z
1/2+x,1/2-y,-z
1/2-x,1/2+y,-z
1/2-x,1/2-y,1/2-z
1/2+x,1/2+y,1/2-z
1/2-x,1/2+y,z
1/2+x,1/2-y,z
loop_
_atom_site_type_symbol
_atom_site_label
_atom_site_fract_x
_atom_site_fract_y
_atom_site_fract_z
Si Si1 0.196723 0.873894 0.788795
Si Si2 0.608775 0.527572 0.558847
Si Si3 0.311246 0.165101 0.941206
Si Si4 0.610908 0.067965 0.660006
O O1 0.250000 0.750000 0.750000
O O2 0.127676 0.756272 0.823790
O O3 0.142001 0.000000 0.750000
O O4 0.290736 0.965605 0.818516
O O5 0.500000 0.500000 0.585860
O O6 0.587514 0.586229 0.500000
O O7 0.659758 0.351782 0.556792
O O8 0.694653 0.646328 0.580406
O O9 0.382668 0.069681 0.901889
O O10 0.314072 0.102346 0.000000
O O11 0.500000 0.000000 0.677646
#
# Coordination Sequence:
#
# PCOD9527796 Si02
#       4
#    16  16  16  16
#     4   9  21  43  67  93 124 155 204 273 331 384
#     4   9  19  36  57  81 117 168 217 259 305 355
#     4  10  21  37  59  91 132 173 214 258 303 368
#     4  11  23  41  66  97 131 169 214 260 318 390
#
# _framework density 23.057024999999999
#
# number of rings (size 3 to 8) (size 9 to 14) (size 15 to 20)
#    0.000    2.250    0.000    1.500    0.000    9.000 
#    0.000   13.750    0.000    0.000    0.000    0.000 
#    0.000    0.000    0.000    0.000    0.000    0.000 
#
# Total GULP energy -178517.450060 kJ/mol
# GULP energy per Si atom -5578.670314 kJ/mol
# Density = 2.300455 g / cm^3
# Si number density = 23.057025 Si / 1000 Ang^3
#
#
#
# Elastic Constant Matrix: (Units=GPa)
#
#
# Indices 1 2 3 4 5 6 
#
# 1 146.0675 58.9351 16.2035 0.0000 0.0000 0.0000
# 2 58.9351 100.2511 35.6119 0.0000 0.0000 0.0000
# 3 16.2035 35.6119 94.3278 0.0000 0.0000 0.0000
# 4 0.0000 0.0000 0.0000 25.7073 0.0000 0.0000
# 5 0.0000 0.0000 0.0000 0.0000 -16.1392 0.0000
# 6 0.0000 0.0000 0.0000 0.0000 0.0000 22.7079
#
#
#
# Elastic Compliance Matrix: (Units=1/GPa)
#
#
# Indices 1 2 3 4 5 6 
#
# 1 0.008997 -0.005474 0.000521 0.000000 0.000000 0.000000
# 2 -0.005474 0.014851 -0.004666 0.000000 0.000000 0.000000
# 3 0.000521 -0.004666 0.012273 0.000000 0.000000 0.000000
# 4 0.000000 0.000000 0.000000 0.038899 0.000000 0.000000
# 5 0.000000 0.000000 0.000000 0.000000 -0.061961 0.000000
# 6 0.000000 0.000000 0.000000 0.000000 0.000000 0.044037
#
#
# Mechanical properties :
#
#
# Convention : Reuss Voigt Hill
#
# Bulk Modulus (GPa) = 59.23270 62.46084 60.84677
# Shear Modulus (GPa) = 61.00281 21.78161 41.39221
#
# Velocity S-wave (km/s) = 5.14925 3.07691 4.24159
# Velocity P-wave (km/s) = 7.81655 6.30648 7.10177
#
# Compressibility (1/GPa) = 0.01688257
#
# Stress axis : x y z
#
# Youngs Moduli (GPa) = 111.14685 67.33658 81.47658
#
# Poissons Ratio (x) = 0.36862 -0.04247
# Poissons Ratio (y) = 0.60845 0.38019
# Poissons Ratio (z) = -0.05793 0.31421
#
# Static dielectric constant tensor:
#      x y z
#    x 1.934960 0.000000 0.000000 
#    y 0.000000 1.877390 0.000000 
#    z 0.000000 0.000000 1.944660 
# 
# From -- ./inp_files/50573.got.cif
#   From: 2010.05.17/outbox.cif.g08.bks.cpg/sg72_26_cif.got.tgz:50573.got - 2010.06.03 17:03:01.
