data_PCOD9527650
_publ_section_title
;
Structure prediction by ZEFSAII (Michael W. Deem and Ramdas Pophale) SiO2 
 PCOD9527650
Probable space group: I B A M
;
_chemical_formula_sum "Si O2"
_cell_formula_units_Z 116
_cell_length_a 26.953128
_cell_length_b 22.051273
_cell_length_c 9.785205
_cell_angle_alpha 90.000000
_cell_angle_beta 90.000000
_cell_angle_gamma 90.000000
_cell_volume 5815.844261
_symmetry_space_group_name_H-M "I B A M"
_symmetry_group_IT_number 72
_symmetry_cell_setting 'orthorhombic'
loop_
_space_group_symop_operation_xyz
x,y,z
-x,-y,z
x,-y,1/2-z
-x,y,1/2-z
-x,-y,-z
x,y,-z
-x,y,1/2+z
x,-y,1/2+z
1/2+x,1/2+y,1/2+z
1/2-x,1/2-y,1/2+z
1/2+x,1/2-y,-z
1/2-x,1/2+y,-z
1/2-x,1/2-y,1/2-z
1/2+x,1/2+y,1/2-z
1/2-x,1/2+y,z
1/2+x,1/2-y,z
loop_
_atom_site_type_symbol
_atom_site_label
_atom_site_fract_x
_atom_site_fract_y
_atom_site_fract_z
Si Si1 0.000000 0.500000 0.750000
Si Si2 0.542752 0.436267 0.163341
Si Si3 0.719506 0.368777 0.652160
Si Si4 0.420426 0.096948 0.155451
Si Si5 0.848129 0.059323 0.657723
Si Si6 0.343593 0.750095 0.656492
Si Si7 0.164124 0.366724 0.842676
Si Si8 0.453745 0.237499 0.157607
O O1 0.962718 0.546156 0.672983
O O2 0.547296 0.500000 0.250000
O O3 0.500000 0.403327 0.250000
O O4 0.597773 0.409855 0.170247
O O5 0.531392 0.443721 0.000000
O O6 0.701802 0.389194 0.500000
O O7 0.693937 0.399862 0.779421
O O8 0.699584 0.299747 0.662394
O O9 0.777744 0.382443 0.657749
O O10 0.374613 0.091426 0.260498
O O11 0.442395 0.165075 0.178132
O O12 0.402033 0.094537 0.000000
O O13 0.840806 0.044141 0.500000
O O14 0.848229 0.000000 0.750000
O O15 0.343440 0.774277 0.500000
O O16 0.336135 0.802412 0.765731
O O17 0.400770 0.729168 0.679491
O O18 0.147860 0.361852 0.000000
O O19 0.500000 0.254823 0.250000
O O20 0.467633 0.246024 0.000000
#
# Coordination Sequence:
#
# PCOD9527650 Si02
#       8
#     4  16  16  16  16  16  16  16
#     4  12  22  40  64  90 118 160 216 254 290 352
#     4   9  16  27  46  72  98 128 169 213 259 309
#     4  10  21  38  59  83 113 150 192 240 293 348
#     4  10  22  38  58  85 117 156 197 244 298 348
#     4  10  21  36  55  79 108 145 188 230 279 343
#     4   9  19  36  58  84 113 147 190 240 295 349
#     4  10  21  37  59  87 115 147 191 240 293 353
#     4   9  17  32  53  79 112 151 190 233 291 350
#
# _framework density 19.945512999999998
#
# number of rings (size 3 to 8) (size 9 to 14) (size 15 to 20)
#    0.000    2.345    0.690    3.103    0.000    6.621 
#    1.241    0.690    0.000    3.310    0.000    0.000 
#    0.000    0.000    0.000    0.000    0.000    0.000 
#
# Total GULP energy -322993.786861 kJ/mol
# GULP energy per Si atom -5568.858394 kJ/mol
# Density = 1.990012 g / cm^3
# Si number density = 19.945513 Si / 1000 Ang^3
#
#
#
# Elastic Constant Matrix: (Units=GPa)
#
#
# Indices 1 2 3 4 5 6 
#
# 1 103.1015 18.0014 69.4568 0.0000 0.0000 0.0000
# 2 18.0014 41.7280 32.9149 0.0000 0.0000 0.0000
# 3 69.4568 32.9149 155.0101 0.0000 0.0000 0.0000
# 4 0.0000 0.0000 0.0000 20.6823 0.0000 0.0000
# 5 0.0000 0.0000 0.0000 0.0000 41.1166 0.0000
# 6 0.0000 0.0000 0.0000 0.0000 0.0000 25.2891
#
#
#
# Elastic Compliance Matrix: (Units=1/GPa)
#
#
# Indices 1 2 3 4 5 6 
#
# 1 0.013952 -0.001306 -0.005974 0.000000 0.000000 0.000000
# 2 -0.001306 0.028909 -0.005553 0.000000 0.000000 0.000000
# 3 -0.005974 -0.005553 0.010307 0.000000 0.000000 0.000000
# 4 0.000000 0.000000 0.000000 0.048351 0.000000 0.000000
# 5 0.000000 0.000000 0.000000 0.000000 0.024321 0.000000
# 6 0.000000 0.000000 0.000000 0.000000 0.000000 0.039543
#
#
# Mechanical properties :
#
#
# Convention : Reuss Voigt Hill
#
# Bulk Modulus (GPa) = 36.36311 60.06508 48.21410
# Shear Modulus (GPa) = 24.97299 29.38203 27.17751
#
# Velocity S-wave (km/s) = 3.54229 3.84228 3.69533
# Velocity P-wave (km/s) = 5.91618 7.06145 6.51404
#
# Compressibility (1/GPa) = 0.02750040
#
# Stress axis : x y z
#
# Youngs Moduli (GPa) = 71.67478 34.59178 97.01939
#
# Poissons Ratio (x) = 0.04519 0.57961
# Poissons Ratio (y) = 0.09364 0.53876
# Poissons Ratio (z) = 0.42820 0.19209
#
# Static dielectric constant tensor:
#      x y z
#    x 1.753660 0.000000 0.000000 
#    y 0.000000 1.742750 0.000000 
#    z 0.000000 0.000000 1.694960 
# 
# From -- ./inp_files/9378.got.cif
#   From: 2010.05.17/outbox.cif.g08.bks.cpg/sg72_5_cif.got.tgz:9378.got - 2010.06.03 17:03:01.
