data_PCOD9527672
_publ_section_title
;
Structure prediction by ZEFSAII (Michael W. Deem and Ramdas Pophale) SiO2 
 PCOD9527672
Probable space group: I B A M
;
_chemical_formula_sum "Si O2"
_cell_formula_units_Z 116
_cell_length_a 21.723677
_cell_length_b 8.585134
_cell_length_c 28.366309
_cell_angle_alpha 90.000000
_cell_angle_beta 90.000000
_cell_angle_gamma 90.000000
_cell_volume 5290.335861
_symmetry_space_group_name_H-M "I B A M"
_symmetry_group_IT_number 72
_symmetry_cell_setting 'orthorhombic'
loop_
_space_group_symop_operation_xyz
x,y,z
-x,-y,z
x,-y,1/2-z
-x,y,1/2-z
-x,-y,-z
x,y,-z
-x,y,1/2+z
x,-y,1/2+z
1/2+x,1/2+y,1/2+z
1/2-x,1/2-y,1/2+z
1/2+x,1/2-y,-z
1/2-x,1/2+y,-z
1/2-x,1/2-y,1/2-z
1/2+x,1/2+y,1/2-z
1/2-x,1/2+y,z
1/2+x,1/2-y,z
loop_
_atom_site_type_symbol
_atom_site_label
_atom_site_fract_x
_atom_site_fract_y
_atom_site_fract_z
Si Si1 0.590469 0.221377 0.607503
Si Si2 0.381985 0.554663 0.144084
Si Si3 0.877276 0.429905 0.204204
Si Si4 0.841727 0.465687 0.554655
Si Si5 0.000000 0.000000 0.500000
Si Si6 0.683180 0.618864 0.786292
Si Si7 0.456567 0.259311 0.422017
Si Si8 0.708359 0.165920 0.856260
O O1 0.608529 0.402210 0.611887
O O2 0.587998 0.150599 0.660383
O O3 0.524651 0.192968 0.583623
O O4 0.639967 0.132590 0.575714
O O5 0.375210 0.480991 0.195552
O O6 0.435880 0.670015 0.128414
O O7 0.320896 0.661836 0.140592
O O8 0.910814 0.500000 0.250000
O O9 0.837407 0.290019 0.228243
O O10 0.836328 0.557086 0.175842
O O11 0.825293 0.468304 0.500000
O O12 0.903095 0.358819 0.562299
O O13 0.791635 0.397657 0.590640
O O14 0.035614 0.897086 0.540740
O O15 0.714507 0.500000 0.750000
O O16 0.726869 0.656779 0.830495
#
# Coordination Sequence:
#
# PCOD9527672 Si02
#       8
#    16  16  16  16   4  16  16  16
#     4  10  21  36  57  88 123 161 202 249 304 358
#     4  10  21  37  59  86 124 153 194 258 309 352
#     4  10  21  37  58  88 121 156 201 250 305 373
#     4  10  22  37  60  88 124 162 201 247 305 368
#     4  12  20  32  66  96 122 160 218 252 300 368
#     4  11  22  38  66  93 114 154 203 255 313 373
#     4  11  21  37  61  94 125 163 204 255 303 365
#     4  10  21  37  59  87 121 153 199 253 310 363
#
# _framework density 21.926774000000002
#
# number of rings (size 3 to 8) (size 9 to 14) (size 15 to 20)
#    0.000    1.655    2.069    2.483    0.966    2.207 
#    0.000    1.379    1.517   54.621    0.000    0.000 
#    0.000    0.000    0.000    0.000    0.000    0.000 
#
# Total GULP energy -322953.508996 kJ/mol
# GULP energy per Si atom -5568.163948 kJ/mol
# Density = 2.187687 g / cm^3
# Si number density = 21.926774 Si / 1000 Ang^3
#
#
#
# Elastic Constant Matrix: (Units=GPa)
#
#
# Indices 1 2 3 4 5 6 
#
# 1 26.5674 0.4553 11.3596 0.0000 0.0000 0.0000
# 2 0.4553 89.4523 25.2430 0.0000 0.0000 0.0000
# 3 11.3596 25.2430 139.6871 0.0000 0.0000 0.0000
# 4 0.0000 0.0000 0.0000 10.5120 0.0000 0.0000
# 5 0.0000 0.0000 0.0000 0.0000 -0.9327 0.0000
# 6 0.0000 0.0000 0.0000 0.0000 0.0000 20.6398
#
#
#
# Elastic Compliance Matrix: (Units=1/GPa)
#
#
# Indices 1 2 3 4 5 6 
#
# 1 0.039042 0.000735 -0.003308 0.000000 0.000000 0.000000
# 2 0.000735 0.011794 -0.002191 0.000000 0.000000 0.000000
# 3 -0.003308 -0.002191 0.007824 0.000000 0.000000 0.000000
# 4 0.000000 0.000000 0.000000 0.095130 0.000000 0.000000
# 5 0.000000 0.000000 0.000000 0.000000 -1.072139 0.000000
# 6 0.000000 0.000000 0.000000 0.000000 0.000000 0.048450
#
#
# Mechanical properties :
#
#
# Convention : Reuss Voigt Hill
#
# Bulk Modulus (GPa) = 20.35363 36.64694 28.50029
# Shear Modulus (GPa) = -5.92420 20.62042 7.34811
#
# Velocity S-wave (km/s) = -1.64550 3.06996 1.83262
# Velocity P-wave (km/s) = 2.38589 5.41441 4.18379
#
# Compressibility (1/GPa) = 0.04913128
#
# Stress axis : x y z
#
# Youngs Moduli (GPa) = 25.61357 84.79110 127.81545
#
# Poissons Ratio (x) = -0.06230 0.42278
# Poissons Ratio (y) = -0.01882 0.28004
# Poissons Ratio (z) = 0.08472 0.18578
#
# Static dielectric constant tensor:
#      x y z
#    x 1.808870 0.000000 0.000000 
#    y 0.000000 1.845510 0.000000 
#    z 0.000000 0.000000 1.794680 
# 
# From -- ./inp_files/49757.got.cif
#   From: 2010.05.17/outbox.cif.g08.bks.cpg/sg72_25_cif.got.tgz:49757.got - 2010.06.03 17:03:01.
