data_PCOD9527411
_publ_section_title
;
Structure prediction by ZEFSAII (Michael W. Deem and Ramdas Pophale) SiO2 
 PCOD9527411
Probable space group: I B A M
;
_chemical_formula_sum "Si O2"
_cell_formula_units_Z 80
_cell_length_a 25.509982
_cell_length_b 9.977854
_cell_length_c 17.828055
_cell_angle_alpha 90.000000
_cell_angle_beta 90.000000
_cell_angle_gamma 90.000000
_cell_volume 4537.861768
_symmetry_space_group_name_H-M "I B A M"
_symmetry_group_IT_number 72
_symmetry_cell_setting 'orthorhombic'
loop_
_space_group_symop_operation_xyz
x,y,z
-x,-y,z
x,-y,1/2-z
-x,y,1/2-z
-x,-y,-z
x,y,-z
-x,y,1/2+z
x,-y,1/2+z
1/2+x,1/2+y,1/2+z
1/2-x,1/2-y,1/2+z
1/2+x,1/2-y,-z
1/2-x,1/2+y,-z
1/2-x,1/2-y,1/2-z
1/2+x,1/2+y,1/2-z
1/2-x,1/2+y,z
1/2+x,1/2-y,z
loop_
_atom_site_type_symbol
_atom_site_label
_atom_site_fract_x
_atom_site_fract_y
_atom_site_fract_z
Si Si1 0.560084 0.157221 0.267645
Si Si2 0.185088 0.093948 0.648464
Si Si3 0.653823 0.686233 0.307608
Si Si4 0.700267 0.083887 0.089287
Si Si5 0.877029 0.665802 0.414866
O O1 0.500000 0.189746 0.250000
O O2 0.599590 0.247745 0.219177
O O3 0.577094 0.175575 0.353949
O O4 0.568299 0.000000 0.250000
O O5 0.186913 0.162417 0.730947
O O6 0.241961 0.051128 0.619763
O O7 0.159051 0.203183 0.594838
O O8 0.149910 0.961221 0.657058
O O9 0.680977 0.786915 0.365140
O O10 0.660059 0.961767 0.102809
O O11 0.702330 0.107985 0.000000
O O12 0.895743 0.653012 0.500000
#
# Coordination Sequence:
#
# PCOD9527411 Si02
#       5
#    16  16  16  16  16
#     4  10  20  39  64  84 105 142 190 239 286 326
#     4  10  21  34  55  82 116 154 185 219 277 336
#     4  10  21  37  55  83 110 147 193 232 270 334
#     4  11  21  34  54  82 116 153 190 226 270 328
#     4  10  21  37  57  85 118 148 185 232 278 329
#
# _framework density 17.629446999999999
#
# number of rings (size 3 to 8) (size 9 to 14) (size 15 to 20)
#    0.000    1.800    2.000    2.400    0.000    8.000 
#    0.000   11.000    0.000    1.200    0.000    0.000 
#    0.000    0.000    0.000    0.000    0.000    0.000 
#
# Total GULP energy -223263.801254 kJ/mol
# GULP energy per Si atom -5581.595031 kJ/mol
# Density = 1.758932 g / cm^3
# Si number density = 17.629447 Si / 1000 Ang^3
#
#
#
# Elastic Constant Matrix: (Units=GPa)
#
#
# Indices 1 2 3 4 5 6 
#
# 1 108.0744 39.6214 62.5883 0.0000 0.0000 0.0000
# 2 39.6214 103.9974 43.1512 0.0000 0.0000 0.0000
# 3 62.5883 43.1512 79.8955 0.0000 0.0000 0.0000
# 4 0.0000 0.0000 0.0000 7.8403 0.0000 0.0000
# 5 0.0000 0.0000 0.0000 0.0000 13.3129 0.0000
# 6 0.0000 0.0000 0.0000 0.0000 0.0000 -120.5513
#
#
#
# Elastic Compliance Matrix: (Units=1/GPa)
#
#
# Indices 1 2 3 4 5 6 
#
# 1 0.017058 -0.001230 -0.012698 0.000000 0.000000 0.000000
# 2 -0.001230 0.012482 -0.005778 0.000000 0.000000 0.000000
# 3 -0.012698 -0.005778 0.025584 0.000000 0.000000 0.000000
# 4 0.000000 0.000000 0.000000 0.127547 0.000000 0.000000
# 5 0.000000 0.000000 0.000000 0.000000 0.075115 0.000000
# 6 0.000000 0.000000 0.000000 0.000000 0.000000 -0.008295
#
#
# Mechanical properties :
#
#
# Convention : Reuss Voigt Hill
#
# Bulk Modulus (GPa) = 63.64669 64.74324 64.19497
# Shear Modulus (GPa) = 16.99874 -10.10587 3.44644
#
# Velocity S-wave (km/s) = 3.10856 -2.39684 1.39971
# Velocity P-wave (km/s) = 7.00465 5.39856 6.25338
#
# Compressibility (1/GPa) = 0.01571174
#
# Stress axis : x y z
#
# Youngs Moduli (GPa) = 58.62477 80.11842 39.08622
#
# Poissons Ratio (x) = 0.09853 0.49633
# Poissons Ratio (y) = 0.07210 0.22583
# Poissons Ratio (z) = 0.74444 0.46291
#
# Static dielectric constant tensor:
#      x y z
#    x 1.568440 0.000000 0.000000 
#    y 0.000000 1.595920 0.000000 
#    z 0.000000 0.000000 1.612240 
# 
# From -- ./inp_files/28159.got.cif
#   From: 2010.05.17/outbox.cif.g08.bks.cpg/sg72_15_cif.got.tgz:28159.got - 2010.06.03 17:03:01.
