data_PCOD9527260
_publ_section_title
;
Structure prediction by ZEFSAII (Michael W. Deem and Ramdas Pophale) SiO2 
 PCOD9527260
Probable space group: I B A M
;
_chemical_formula_sum "Si O2"
_cell_formula_units_Z 116
_cell_length_a 20.547458
_cell_length_b 27.277146
_cell_length_c 9.874028
_cell_angle_alpha 90.000000
_cell_angle_beta 90.000000
_cell_angle_gamma 90.000000
_cell_volume 5534.155834
_symmetry_space_group_name_H-M "I B A M"
_symmetry_group_IT_number 72
_symmetry_cell_setting 'orthorhombic'
loop_
_space_group_symop_operation_xyz
x,y,z
-x,-y,z
x,-y,1/2-z
-x,y,1/2-z
-x,-y,-z
x,y,-z
-x,y,1/2+z
x,-y,1/2+z
1/2+x,1/2+y,1/2+z
1/2-x,1/2-y,1/2+z
1/2+x,1/2-y,-z
1/2-x,1/2+y,-z
1/2-x,1/2-y,1/2-z
1/2+x,1/2+y,1/2-z
1/2-x,1/2+y,z
1/2+x,1/2-y,z
loop_
_atom_site_type_symbol
_atom_site_label
_atom_site_fract_x
_atom_site_fract_y
_atom_site_fract_z
Si Si1 0.642846 0.960742 0.648768
Si Si2 0.500000 0.500000 0.250000
Si Si3 0.099059 0.191085 0.150282
Si Si4 0.776782 0.086610 0.157745
Si Si5 0.752567 0.324289 0.850063
Si Si6 0.940744 0.635450 0.158760
Si Si7 0.602845 0.577240 0.347297
Si Si8 0.611795 0.224072 0.340791
O O1 0.629391 0.979708 0.500000
O O2 0.719858 0.953068 0.665080
O O3 0.612382 0.907185 0.660485
O O4 0.615613 0.000000 0.750000
O O5 0.546791 0.537063 0.331490
O O6 0.178222 0.193717 0.144818
O O7 0.080486 0.134057 0.169908
O O8 0.084518 0.225786 0.276711
O O9 0.075498 0.206855 0.000000
O O10 0.749590 0.134927 0.233728
O O11 0.841022 0.069970 0.236784
O O12 0.790380 0.097104 0.000000
O O13 0.809487 0.284285 0.831949
O O14 0.765973 0.346743 0.000000
O O15 0.916020 0.682382 0.241825
O O16 0.000000 0.616758 0.250000
O O17 0.955917 0.645901 0.000000
O O18 0.630158 0.574548 0.500000
O O19 0.595063 0.219145 0.500000
#
# Coordination Sequence:
#
# PCOD9527260 Si02
#       8
#    16   4  16  16  16  16  16  16
#     4  10  23  40  62  93 127 165 209 260 319 376
#     4  12  26  48  76  98 122 172 226 274 328 392
#     4   9  19  37  59  89 129 168 206 260 319 378
#     4  10  20  37  62  95 129 165 211 264 320 381
#     4   9  18  33  57  90 129 170 210 256 318 383
#     4  11  24  44  64  89 124 167 217 265 317 383
#     4  10  24  45  67  94 127 166 213 265 323 384
#     4  11  21  35  60  94 127 169 214 259 319 384
#
# _framework density 20.960739
#
# number of rings (size 3 to 8) (size 9 to 14) (size 15 to 20)
#    0.000    1.931    1.379    2.690    0.966    6.345 
#    1.241    1.379    0.000    0.000    0.000    0.000 
#    0.000    0.000    0.000    0.000    0.000    0.000 
#
# Total GULP energy -323536.008675 kJ/mol
# GULP energy per Si atom -5578.207046 kJ/mol
# Density = 2.091303 g / cm^3
# Si number density = 20.960739 Si / 1000 Ang^3
#
#
#
# Elastic Constant Matrix: (Units=GPa)
#
#
# Indices 1 2 3 4 5 6 
#
# 1 42.6464 22.3586 40.0442 0.0000 0.0000 0.0000
# 2 22.3586 87.8840 79.3997 0.0000 0.0000 0.0000
# 3 40.0442 79.3997 194.1049 0.0000 0.0000 0.0000
# 4 0.0000 0.0000 0.0000 27.8779 0.0000 0.0000
# 5 0.0000 0.0000 0.0000 0.0000 10.1338 0.0000
# 6 0.0000 0.0000 0.0000 0.0000 0.0000 22.3357
#
#
#
# Elastic Compliance Matrix: (Units=1/GPa)
#
#
# Indices 1 2 3 4 5 6 
#
# 1 0.029638 -0.003198 -0.004806 0.000000 0.000000 0.000000
# 2 -0.003198 0.018394 -0.006864 0.000000 0.000000 0.000000
# 3 -0.004806 -0.006864 0.008951 0.000000 0.000000 0.000000
# 4 0.000000 0.000000 0.000000 0.035871 0.000000 0.000000
# 5 0.000000 0.000000 0.000000 0.000000 0.098680 0.000000
# 6 0.000000 0.000000 0.000000 0.000000 0.000000 0.044771
#
#
# Mechanical properties :
#
#
# Convention : Reuss Voigt Hill
#
# Bulk Modulus (GPa) = 36.70233 67.58227 52.14230
# Shear Modulus (GPa) = 18.17356 24.25832 21.21594
#
# Velocity S-wave (km/s) = 2.94773 3.40563 3.18492
# Velocity P-wave (km/s) = 5.39755 6.91207 6.20122
#
# Compressibility (1/GPa) = 0.02724623
#
# Stress axis : x y z
#
# Youngs Moduli (GPa) = 33.74009 54.36573 111.71541
#
# Poissons Ratio (x) = 0.17386 0.53694
# Poissons Ratio (y) = 0.10790 0.76686
# Poissons Ratio (z) = 0.16216 0.37319
#
# Static dielectric constant tensor:
#      x y z
#    x 1.790920 0.000000 0.000000 
#    y 0.000000 1.757850 0.000000 
#    z 0.000000 0.000000 1.746100 
# 
# From -- ./inp_files/7270.got.cif
#   From: 2010.05.17/outbox.cif.g08.bks.cpg/sg72_4_cif.got.tgz:7270.got - 2010.06.03 17:03:01.
