data_PCOD9527613
_publ_section_title
;
Structure prediction by ZEFSAII (Michael W. Deem and Ramdas Pophale) SiO2 
 PCOD9527613
Probable space group: I B A M
;
_chemical_formula_sum "Si O2"
_cell_formula_units_Z 64
_cell_length_a 8.320033
_cell_length_b 13.892970
_cell_length_c 23.115355
_cell_angle_alpha 90.000000
_cell_angle_beta 90.000000
_cell_angle_gamma 90.000000
_cell_volume 2671.903165
_symmetry_space_group_name_H-M "I B A M"
_symmetry_group_IT_number 72
_symmetry_cell_setting 'orthorhombic'
loop_
_space_group_symop_operation_xyz
x,y,z
-x,-y,z
x,-y,1/2-z
-x,y,1/2-z
-x,-y,-z
x,y,-z
-x,y,1/2+z
x,-y,1/2+z
1/2+x,1/2+y,1/2+z
1/2-x,1/2-y,1/2+z
1/2+x,1/2-y,-z
1/2-x,1/2+y,-z
1/2-x,1/2-y,1/2-z
1/2+x,1/2+y,1/2-z
1/2-x,1/2+y,z
1/2+x,1/2-y,z
loop_
_atom_site_type_symbol
_atom_site_label
_atom_site_fract_x
_atom_site_fract_y
_atom_site_fract_z
Si Si1 0.679204 0.631495 0.368871
Si Si2 0.832814 0.563376 0.875983
Si Si3 0.817279 0.383619 0.254327
Si Si4 0.481974 0.776877 0.433025
O O1 0.699334 0.518349 0.382513
O O2 0.710132 0.647480 0.300018
O O3 0.528123 0.684979 0.394973
O O4 0.824465 0.678141 0.405013
O O5 0.778906 0.628327 0.821421
O O6 0.000000 0.500000 0.862974
O O7 0.884972 0.637790 0.925026
O O8 0.818146 0.500000 0.250000
O O9 0.000000 0.347248 0.250000
O O10 0.463867 0.753572 0.500000
#
# Coordination Sequence:
#
# PCOD9527613 Si02
#       4
#    16  16  16  16
#     4  10  21  35  56  80 110 141 181 232 278 322
#     4   9  17  33  57  81 104 139 184 228 273 322
#     4   9  12  29  55  82 104 129 171 226 277 323
#     4  11  22  35  52  79 110 147 191 226 263 324
#
# _framework density 23.952961999999999
#
# number of rings (size 3 to 8) (size 9 to 14) (size 15 to 20)
#    0.000    2.250    7.500    0.750    0.000    6.500 
#    0.000    1.250    0.000    3.000    0.000   21.000 
#    0.000    0.000    0.000    0.000    0.000    0.000 
#
# Total GULP energy -178689.090204 kJ/mol
# GULP energy per Si atom -5584.034069 kJ/mol
# Density = 2.389844 g / cm^3
# Si number density = 23.952962 Si / 1000 Ang^3
#
#
#
# Elastic Constant Matrix: (Units=GPa)
#
#
# Indices 1 2 3 4 5 6 
#
# 1 40.8273 29.8875 37.2114 0.0000 0.0000 0.0000
# 2 29.8875 104.7155 29.7322 0.0000 0.0000 0.0000
# 3 37.2114 29.7322 160.7853 0.0000 0.0000 0.0000
# 4 0.0000 0.0000 0.0000 14.7577 0.0000 0.0000
# 5 0.0000 0.0000 0.0000 0.0000 9.6154 0.0000
# 6 0.0000 0.0000 0.0000 0.0000 0.0000 220.4868
#
#
#
# Elastic Compliance Matrix: (Units=1/GPa)
#
#
# Indices 1 2 3 4 5 6 
#
# 1 0.037202 -0.008626 -0.007015 0.000000 0.000000 0.000000
# 2 -0.008626 0.012079 -0.000237 0.000000 0.000000 0.000000
# 3 -0.007015 -0.000237 0.007887 0.000000 0.000000 0.000000
# 4 0.000000 0.000000 0.000000 0.067761 0.000000 0.000000
# 5 0.000000 0.000000 0.000000 0.000000 0.104000 0.000000
# 6 0.000000 0.000000 0.000000 0.000000 0.000000 0.004535
#
#
# Mechanical properties :
#
#
# Convention : Reuss Voigt Hill
#
# Bulk Modulus (GPa) = 39.35258 55.55448 47.45353
# Shear Modulus (GPa) = 18.26881 62.93845 40.60363
#
# Velocity S-wave (km/s) = 2.76469 5.13156 4.12167
# Velocity P-wave (km/s) = 5.16296 7.63898 6.51959
#
# Compressibility (1/GPa) = 0.02541130
#
# Stress axis : x y z
#
# Youngs Moduli (GPa) = 26.88054 82.78747 126.79454
#
# Poissons Ratio (x) = 0.71415 0.88941
# Poissons Ratio (y) = 0.23188 0.03008
# Poissons Ratio (z) = 0.18856 0.01964
#
# Static dielectric constant tensor:
#      x y z
#    x 2.151400 0.000000 0.000000 
#    y 0.000000 2.020510 0.000000 
#    z 0.000000 0.000000 1.876460 
# 
# From -- ./inp_files/36584.got.cif
#   From: 2010.05.17/outbox.cif.g08.bks.cpg/sg72_19_cif.got.tgz:36584.got - 2010.06.03 17:03:01.
