data_PCOD9527596
_publ_section_title
;
Structure prediction by ZEFSAII (Michael W. Deem and Ramdas Pophale) SiO2 
 PCOD9527596
Probable space group: I B A M
;
_chemical_formula_sum "Si O2"
_cell_formula_units_Z 96
_cell_length_a 26.931184
_cell_length_b 20.609966
_cell_length_c 10.268419
_cell_angle_alpha 90.000000
_cell_angle_beta 90.000000
_cell_angle_gamma 90.000000
_cell_volume 5699.494043
_symmetry_space_group_name_H-M "I B A M"
_symmetry_group_IT_number 72
_symmetry_cell_setting 'orthorhombic'
loop_
_space_group_symop_operation_xyz
x,y,z
-x,-y,z
x,-y,1/2-z
-x,y,1/2-z
-x,-y,-z
x,y,-z
-x,y,1/2+z
x,-y,1/2+z
1/2+x,1/2+y,1/2+z
1/2-x,1/2-y,1/2+z
1/2+x,1/2-y,-z
1/2-x,1/2+y,-z
1/2-x,1/2-y,1/2-z
1/2+x,1/2+y,1/2-z
1/2-x,1/2+y,z
1/2+x,1/2-y,z
loop_
_atom_site_type_symbol
_atom_site_label
_atom_site_fract_x
_atom_site_fract_y
_atom_site_fract_z
Si Si1 0.682604 0.802192 0.000000
Si Si2 0.317266 0.404295 0.266810
Si Si3 0.926365 0.946006 0.851429
Si Si4 0.542223 0.702812 0.349850
Si Si5 0.767795 0.067450 0.000000
Si Si6 0.258873 0.927771 0.500000
Si Si7 0.280045 0.209686 0.500000
Si Si8 0.348730 0.744067 0.234211
O O1 0.734352 0.760770 0.000000
O O2 0.654214 0.781694 0.130300
O O3 0.696002 0.877930 0.000000
O O4 0.368048 0.433211 0.323538
O O5 0.301178 0.435048 0.129969
O O6 0.274375 0.412185 0.373186
O O7 0.327084 0.328175 0.243758
O O8 0.950806 0.875246 0.836344
O O9 0.943449 0.000000 0.750000
O O10 0.933205 0.968035 0.000000
O O11 0.500000 0.724122 0.250000
O O12 0.529259 0.715917 0.500000
O O13 0.595450 0.734374 0.317246
O O14 0.740446 0.136616 0.000000
O O15 0.732300 0.004808 0.000000
O O16 0.313792 0.222938 0.373637
#
# Coordination Sequence:
#
# PCOD9527596 Si02
#       8
#     8  16  16  16   8   8   8  16
#     4  12  22  34  59  82 111 154 188 227 268 339
#     4  11  20  34  50  74 110 150 193 233 267 314
#     4  10  21  35  52  75 106 146 186 231 283 328
#     4  10  23  41  60  80 108 139 181 244 294 330
#     4  12  24  32  50  80 112 152 193 227 268 320
#     4  12  22  34  50  76 116 150 185 229 268 314
#     4  12  20  38  57  80 115 152 192 227 272 333
#     4  11  21  38  58  83 108 148 194 233 275 329
#
# _framework density 16.843599999999999
#
# number of rings (size 3 to 8) (size 9 to 14) (size 15 to 20)
#    0.000    1.000    5.000    3.000    2.333    1.000 
#    0.000    1.667    0.000    0.000    0.000    0.000 
#    0.000    4.000    0.000    0.000    0.000    0.000 
#
# Total GULP energy -268341.622354 kJ/mol
# GULP energy per Si atom -5590.450466 kJ/mol
# Density = 1.680526 g / cm^3
# Si number density = 16.843600 Si / 1000 Ang^3
#
#
#
# Elastic Constant Matrix: (Units=GPa)
#
#
# Indices 1 2 3 4 5 6 
#
# 1 55.5417 17.9084 38.1408 0.0000 0.0000 0.0000
# 2 17.9084 76.1548 15.0184 0.0000 0.0000 0.0000
# 3 38.1408 15.0184 136.9851 0.0000 0.0000 0.0000
# 4 0.0000 0.0000 0.0000 89.8856 0.0000 0.0000
# 5 0.0000 0.0000 0.0000 0.0000 15.7434 0.0000
# 6 0.0000 0.0000 0.0000 0.0000 0.0000 6.8670
#
#
#
# Elastic Compliance Matrix: (Units=1/GPa)
#
#
# Indices 1 2 3 4 5 6 
#
# 1 0.023589 -0.004346 -0.006091 0.000000 0.000000 0.000000
# 2 -0.004346 0.014222 -0.000349 0.000000 0.000000 0.000000
# 3 -0.006091 -0.000349 0.009034 0.000000 0.000000 0.000000
# 4 0.000000 0.000000 0.000000 0.011125 0.000000 0.000000
# 5 0.000000 0.000000 0.000000 0.000000 0.063519 0.000000
# 6 0.000000 0.000000 0.000000 0.000000 0.000000 0.145625
#
#
# Mechanical properties :
#
#
# Convention : Reuss Voigt Hill
#
# Bulk Modulus (GPa) = 39.56906 45.64630 42.60768
# Shear Modulus (GPa) = 16.82875 35.67346 26.25110
#
# Velocity S-wave (km/s) = 3.16431 4.60708 3.95209
# Velocity P-wave (km/s) = 6.07401 7.44709 6.79532
#
# Compressibility (1/GPa) = 0.02527227
#
# Stress axis : x y z
#
# Youngs Moduli (GPa) = 42.39326 70.31383 110.68845
#
# Poissons Ratio (x) = 0.30557 0.67424
# Poissons Ratio (y) = 0.18423 0.03866
# Poissons Ratio (z) = 0.25823 0.02456
#
# Static dielectric constant tensor:
#      x y z
#    x 1.546200 0.000000 0.000000 
#    y 0.000000 1.572500 0.000000 
#    z 0.000000 0.000000 1.572080 
# 
# From -- ./inp_files/8315.got.cif
#   From: 2010.05.17/outbox.cif.g08.bks.cpg/sg72_5_cif.got.tgz:8315.got - 2010.06.03 17:03:01.
