data_PCOD9527181
_publ_section_title
;
Structure prediction by ZEFSAII (Michael W. Deem and Ramdas Pophale) SiO2 
 PCOD9527181
Probable space group: I B A M
;
_chemical_formula_sum "Si O2"
_cell_formula_units_Z 64
_cell_length_a 11.377502
_cell_length_b 8.655478
_cell_length_c 32.502680
_cell_angle_alpha 90.000000
_cell_angle_beta 90.000000
_cell_angle_gamma 90.000000
_cell_volume 3200.789764
_symmetry_space_group_name_H-M "I B A M"
_symmetry_group_IT_number 72
_symmetry_cell_setting 'orthorhombic'
loop_
_space_group_symop_operation_xyz
x,y,z
-x,-y,z
x,-y,1/2-z
-x,y,1/2-z
-x,-y,-z
x,y,-z
-x,y,1/2+z
x,-y,1/2+z
1/2+x,1/2+y,1/2+z
1/2-x,1/2-y,1/2+z
1/2+x,1/2-y,-z
1/2-x,1/2+y,-z
1/2-x,1/2-y,1/2-z
1/2+x,1/2+y,1/2-z
1/2-x,1/2+y,z
1/2+x,1/2-y,z
loop_
_atom_site_type_symbol
_atom_site_label
_atom_site_fract_x
_atom_site_fract_y
_atom_site_fract_z
Si Si1 0.879358 0.410533 0.547448
Si Si2 0.620875 0.409398 0.359931
Si Si3 0.251589 0.342602 0.406074
Si Si4 0.872662 0.823999 0.734398
O O1 0.874151 0.361462 0.500000
O O2 0.783197 0.541487 0.557618
O O3 0.854930 0.268232 0.577754
O O4 0.000000 0.500000 0.555050
O O5 0.500000 0.500000 0.365696
O O6 0.715512 0.545374 0.368291
O O7 0.649271 0.273901 0.392140
O O8 0.626173 0.335671 0.314913
O O9 0.750000 0.750000 0.750000
O O10 0.000000 0.757329 0.750000
O O11 0.871189 0.000000 0.750000
#
# Coordination Sequence:
#
# PCOD9527181 Si02
#       4
#    16  16  16  16
#     4  10  20  37  58  85 120 156 195 241 291 354
#     4  11  21  38  60  84 118 155 197 253 293 362
#     4  10  22  36  58  89 117 154 201 240 305 342
#     4  11  23  42  63  89 121 159 200 251 307 363
#
# _framework density 19.995065
#
# number of rings (size 3 to 8) (size 9 to 14) (size 15 to 20)
#    0.000    1.500    2.500    3.750    0.000    0.500 
#    0.000    0.000    0.000   12.000    0.000    0.000 
#    0.000    0.000    0.000    0.000    0.000    0.000 
#
# Total GULP energy -178373.430619 kJ/mol
# GULP energy per Si atom -5574.169707 kJ/mol
# Density = 1.994956 g / cm^3
# Si number density = 19.995065 Si / 1000 Ang^3
#
#
#
# Elastic Constant Matrix: (Units=GPa)
#
#
# Indices 1 2 3 4 5 6 
#
# 1 108.9884 28.7771 20.5833 0.0000 0.0000 0.0000
# 2 28.7771 70.7002 19.0575 0.0000 0.0000 0.0000
# 3 20.5833 19.0575 72.3813 0.0000 0.0000 0.0000
# 4 0.0000 0.0000 0.0000 21.4095 0.0000 0.0000
# 5 0.0000 0.0000 0.0000 0.0000 22.4398 0.0000
# 6 0.0000 0.0000 0.0000 0.0000 0.0000 33.6314
#
#
#
# Elastic Compliance Matrix: (Units=1/GPa)
#
#
# Indices 1 2 3 4 5 6 
#
# 1 0.010545 -0.003750 -0.002011 0.000000 0.000000 0.000000
# 2 -0.003750 0.016558 -0.003293 0.000000 0.000000 0.000000
# 3 -0.002011 -0.003293 0.015255 0.000000 0.000000 0.000000
# 4 0.000000 0.000000 0.000000 0.046708 0.000000 0.000000
# 5 0.000000 0.000000 0.000000 0.000000 0.044564 0.000000
# 6 0.000000 0.000000 0.000000 0.000000 0.000000 0.029734
#
#
# Mechanical properties :
#
#
# Convention : Reuss Voigt Hill
#
# Bulk Modulus (GPa) = 41.23899 43.21176 42.22538
# Shear Modulus (GPa) = 26.37727 27.73960 27.05844
#
# Velocity S-wave (km/s) = 3.63600 3.72872 3.68265
# Velocity P-wave (km/s) = 6.18844 6.34002 6.26469
#
# Compressibility (1/GPa) = 0.02424890
#
# Stress axis : x y z
#
# Youngs Moduli (GPa) = 94.82868 60.39247 65.55302
#
# Poissons Ratio (x) = 0.22648 0.13186
# Poissons Ratio (y) = 0.35562 0.21588
# Poissons Ratio (z) = 0.19074 0.19889
#
# Static dielectric constant tensor:
#      x y z
#    x 1.756960 0.000000 0.000000 
#    y 0.000000 1.657420 0.000000 
#    z 0.000000 0.000000 1.707870 
# 
# From -- ./inp_files/50574.got.cif
#   From: 2010.05.17/outbox.cif.g08.bks.cpg/sg72_26_cif.got.tgz:50574.got - 2010.06.03 17:03:01.
