data_PCOD9527459
_publ_section_title
;
Structure prediction by ZEFSAII (Michael W. Deem and Ramdas Pophale) SiO2 
 PCOD9527459
Probable space group: I B A M
;
_chemical_formula_sum "Si O2"
_cell_formula_units_Z 96
_cell_length_a 20.407318
_cell_length_b 15.087607
_cell_length_c 17.474060
_cell_angle_alpha 90.000000
_cell_angle_beta 90.000000
_cell_angle_gamma 90.000000
_cell_volume 5380.221030
_symmetry_space_group_name_H-M "I B A M"
_symmetry_group_IT_number 72
_symmetry_cell_setting 'orthorhombic'
loop_
_space_group_symop_operation_xyz
x,y,z
-x,-y,z
x,-y,1/2-z
-x,y,1/2-z
-x,-y,-z
x,y,-z
-x,y,1/2+z
x,-y,1/2+z
1/2+x,1/2+y,1/2+z
1/2-x,1/2-y,1/2+z
1/2+x,1/2-y,-z
1/2-x,1/2+y,-z
1/2-x,1/2-y,1/2-z
1/2+x,1/2+y,1/2-z
1/2-x,1/2+y,z
1/2+x,1/2-y,z
loop_
_atom_site_type_symbol
_atom_site_label
_atom_site_fract_x
_atom_site_fract_y
_atom_site_fract_z
Si Si1 0.694721 0.997880 0.659026
Si Si2 0.310452 0.386009 0.590960
Si Si3 0.842798 0.314553 0.592164
Si Si4 0.513975 0.776558 0.339813
Si Si5 0.461208 0.589585 0.091790
Si Si6 0.441175 0.065427 0.908941
O O1 0.755272 0.056985 0.631379
O O2 0.626820 0.038061 0.628211
O O3 0.693245 0.000000 0.750000
O O4 0.696205 0.898243 0.625002
O O5 0.302548 0.397418 0.500000
O O6 0.308559 0.280326 0.606419
O O7 0.384166 0.416749 0.611240
O O8 0.852761 0.323563 0.500000
O O9 0.913712 0.309232 0.633453
O O10 0.500000 0.787175 0.250000
O O11 0.510380 0.674340 0.364652
O O12 0.462595 0.836667 0.385227
O O13 0.500000 0.500000 0.108699
O O14 0.464857 0.606485 0.000000
O O15 0.500000 0.000000 0.883459
O O16 0.435283 0.057381 0.000000
#
# Coordination Sequence:
#
# PCOD9527459 Si02
#       6
#    16  16  16  16  16  16
#     4  12  24  38  58  90 124 157 191 246 301 352
#     4   9  20  40  62  83 113 157 205 244 285 351
#     4  10  20  40  65  81 112 165 203 234 292 357
#     4  11  21  35  57  91 122 151 186 245 307 354
#     4   9  19  40  65  86 113 157 207 247 289 351
#     4  11  22  36  60  86 113 155 201 239 284 355
#
# _framework density 17.843133000000002
#
# number of rings (size 3 to 8) (size 9 to 14) (size 15 to 20)
#    0.000    1.667    1.667    5.000    0.000    1.000 
#    9.000    0.000    0.000    0.000    0.000    0.000 
#    0.000    0.000    0.000    0.000    0.000    0.000 
#
# Total GULP energy -268086.460034 kJ/mol
# GULP energy per Si atom -5585.134584 kJ/mol
# Density = 1.780252 g / cm^3
# Si number density = 17.843133 Si / 1000 Ang^3
#
#
#
# Elastic Constant Matrix: (Units=GPa)
#
#
# Indices 1 2 3 4 5 6 
#
# 1 111.4727 90.0998 63.5092 0.0000 0.0000 0.0000
# 2 90.0998 133.5394 68.2208 0.0000 0.0000 0.0000
# 3 63.5092 68.2208 91.0227 0.0000 0.0000 0.0000
# 4 0.0000 0.0000 0.0000 116.2481 0.0000 0.0000
# 5 0.0000 0.0000 0.0000 0.0000 6.5599 0.0000
# 6 0.0000 0.0000 0.0000 0.0000 0.0000 34.7919
#
#
#
# Elastic Compliance Matrix: (Units=1/GPa)
#
#
# Indices 1 2 3 4 5 6 
#
# 1 0.022103 -0.011399 -0.006878 0.000000 0.000000 0.000000
# 2 -0.011399 0.018014 -0.005547 0.000000 0.000000 0.000000
# 3 -0.006878 -0.005547 0.019943 0.000000 0.000000 0.000000
# 4 0.000000 0.000000 0.000000 0.008602 0.000000 0.000000
# 5 0.000000 0.000000 0.000000 0.000000 0.152441 0.000000
# 6 0.000000 0.000000 0.000000 0.000000 0.000000 0.028742
#
#
# Mechanical properties :
#
#
# Convention : Reuss Voigt Hill
#
# Bulk Modulus (GPa) = 80.58085 86.63272 83.60678
# Shear Modulus (GPa) = 16.57645 39.13365 27.85505
#
# Velocity S-wave (km/s) = 3.05127 4.68825 3.95537
# Velocity P-wave (km/s) = 7.59424 8.82972 8.23518
#
# Compressibility (1/GPa) = 0.01240990
#
# Stress axis : x y z
#
# Youngs Moduli (GPa) = 45.24198 55.51360 50.14200
#
# Poissons Ratio (x) = 0.63282 0.34490
# Poissons Ratio (y) = 0.51573 0.27816
# Poissons Ratio (z) = 0.31120 0.30796
#
# Static dielectric constant tensor:
#      x y z
#    x 1.585620 0.000000 0.000000 
#    y 0.000000 1.615620 0.000000 
#    z 0.000000 0.000000 1.590070 
# 
# From -- ./inp_files/21858.got.cif
#   From: 2010.05.17/outbox.cif.g08.bks.cpg/sg72_11_cif.got.tgz:21858.got - 2010.06.03 17:03:01.
