data_PCOD9527911
_publ_section_title
;
Structure prediction by ZEFSAII (Michael W. Deem and Ramdas Pophale) SiO2 
 PCOD9527911
Probable space group: I B A M
;
_chemical_formula_sum "Si O2"
_cell_formula_units_Z 104
_cell_length_a 22.676838
_cell_length_b 9.087866
_cell_length_c 25.153357
_cell_angle_alpha 90.000000
_cell_angle_beta 90.000000
_cell_angle_gamma 90.000000
_cell_volume 5183.706060
_symmetry_space_group_name_H-M "I B A M"
_symmetry_group_IT_number 72
_symmetry_cell_setting 'orthorhombic'
loop_
_space_group_symop_operation_xyz
x,y,z
-x,-y,z
x,-y,1/2-z
-x,y,1/2-z
-x,-y,-z
x,y,-z
-x,y,1/2+z
x,-y,1/2+z
1/2+x,1/2+y,1/2+z
1/2-x,1/2-y,1/2+z
1/2+x,1/2-y,-z
1/2-x,1/2+y,-z
1/2-x,1/2-y,1/2-z
1/2+x,1/2+y,1/2-z
1/2-x,1/2+y,z
1/2+x,1/2-y,z
loop_
_atom_site_type_symbol
_atom_site_label
_atom_site_fract_x
_atom_site_fract_y
_atom_site_fract_z
Si Si1 0.667570 0.003057 0.350763
Si Si2 0.000000 0.500000 0.612381
Si Si3 0.222252 0.122704 0.212543
Si Si4 0.889837 0.327232 0.437741
Si Si5 0.397286 0.762638 0.792855
Si Si6 0.938303 0.942299 0.876952
Si Si7 0.415689 0.760990 0.666515
O O1 0.662013 0.905266 0.403479
O O2 0.618222 0.927956 0.311467
O O3 0.729484 0.036017 0.322247
O O4 0.641907 0.164327 0.359106
O O5 0.051238 0.579112 0.578028
O O6 0.031853 0.369597 0.645996
O O7 0.250000 0.250000 0.250000
O O8 0.165193 0.193644 0.187178
O O9 0.195191 0.000000 0.250000
O O10 0.879336 0.332409 0.500000
O O11 0.902905 0.161039 0.417658
O O12 0.444119 0.666404 0.825536
O O13 0.409760 0.758043 0.730587
O O14 0.914323 0.094862 0.854267
O O15 0.000000 0.000000 0.900566
#
# Coordination Sequence:
#
# PCOD9527911 Si02
#       7
#    16   8  16  16  16  16  16
#     4  10  22  39  57  91 123 156 214 253 302 389
#     4  10  21  38  61  84 120 160 214 262 310 384
#     4  12  20  35  60  92 122 169 200 245 306 378
#     4  10  22  43  65  83 112 158 210 274 325 362
#     4  11  23  37  58  85 134 171 207 243 309 385
#     4  11  23  40  53  88 123 162 212 259 310 373
#     4  11  20  37  53  86 125 166 205 252 312 382
#
# _framework density 20.062867000000001
#
# number of rings (size 3 to 8) (size 9 to 14) (size 15 to 20)
#    0.000    1.231    4.615    2.077    0.000    1.538 
#    2.769    0.769    0.000    3.692    0.000    0.000 
#    0.000    0.000    0.000    0.000    0.000    0.000 
#
# Total GULP energy -289609.284526 kJ/mol
# GULP energy per Si atom -5569.409318 kJ/mol
# Density = 2.001720 g / cm^3
# Si number density = 20.062867 Si / 1000 Ang^3
#
#
#
# Elastic Constant Matrix: (Units=GPa)
#
#
# Indices 1 2 3 4 5 6 
#
# 1 42.4962 28.0698 19.3081 0.0000 0.0000 0.0000
# 2 28.0698 127.8113 54.4534 0.0000 0.0000 0.0000
# 3 19.3081 54.4534 145.7183 0.0000 0.0000 0.0000
# 4 0.0000 0.0000 0.0000 19.7884 0.0000 0.0000
# 5 0.0000 0.0000 0.0000 0.0000 20.5115 0.0000
# 6 0.0000 0.0000 0.0000 0.0000 0.0000 40.7425
#
#
#
# Elastic Compliance Matrix: (Units=1/GPa)
#
#
# Indices 1 2 3 4 5 6 
#
# 1 0.027862 -0.005407 -0.001671 0.000000 0.000000 0.000000
# 2 -0.005407 0.010355 -0.003153 0.000000 0.000000 0.000000
# 3 -0.001671 -0.003153 0.008262 0.000000 0.000000 0.000000
# 4 0.000000 0.000000 0.000000 0.050535 0.000000 0.000000
# 5 0.000000 0.000000 0.000000 0.000000 0.048753 0.000000
# 6 0.000000 0.000000 0.000000 0.000000 0.000000 0.024544
#
#
# Mechanical properties :
#
#
# Convention : Reuss Voigt Hill
#
# Bulk Modulus (GPa) = 38.43686 57.74315 48.09000
# Shear Modulus (GPa) = 25.06936 30.48812 27.77874
#
# Velocity S-wave (km/s) = 3.53872 3.90247 3.72504
# Velocity P-wave (km/s) = 5.99137 7.01066 6.52096
#
# Compressibility (1/GPa) = 0.02601669
#
# Stress axis : x y z
#
# Youngs Moduli (GPa) = 35.89073 96.57297 121.03214
#
# Poissons Ratio (x) = 0.52218 0.20228
# Poissons Ratio (y) = 0.19406 0.38162
# Poissons Ratio (z) = 0.05998 0.30450
#
# Static dielectric constant tensor:
#      x y z
#    x 1.859760 0.000000 0.000000 
#    y 0.000000 1.853590 0.000000 
#    z 0.000000 0.000000 1.694870 
# 
# From -- ./inp_files/49690.got.cif
#   From: 2010.05.17/outbox.cif.g08.bks.cpg/sg72_25_cif.got.tgz:49690.got - 2010.06.03 17:03:01.
