data_PCOD9527261
_publ_section_title
;
Structure prediction by ZEFSAII (Michael W. Deem and Ramdas Pophale) SiO2 
 PCOD9527261
Probable space group: I B A M
;
_chemical_formula_sum "Si O2"
_cell_formula_units_Z 64
_cell_length_a 8.617423
_cell_length_b 16.151265
_cell_length_c 20.134377
_cell_angle_alpha 90.000000
_cell_angle_beta 90.000000
_cell_angle_gamma 90.000000
_cell_volume 2802.348547
_symmetry_space_group_name_H-M "I B A M"
_symmetry_group_IT_number 72
_symmetry_cell_setting 'orthorhombic'
loop_
_space_group_symop_operation_xyz
x,y,z
-x,-y,z
x,-y,1/2-z
-x,y,1/2-z
-x,-y,-z
x,y,-z
-x,y,1/2+z
x,-y,1/2+z
1/2+x,1/2+y,1/2+z
1/2-x,1/2-y,1/2+z
1/2+x,1/2-y,-z
1/2-x,1/2+y,-z
1/2-x,1/2-y,1/2-z
1/2+x,1/2+y,1/2-z
1/2-x,1/2+y,z
1/2+x,1/2-y,z
loop_
_atom_site_type_symbol
_atom_site_label
_atom_site_fract_x
_atom_site_fract_y
_atom_site_fract_z
Si Si1 0.887147 0.134824 0.198301
Si Si2 0.819893 0.021445 0.073134
Si Si3 0.848841 0.347207 0.078864
Si Si4 0.623082 0.221863 0.844586
O O1 0.832422 0.083984 0.134072
O O2 0.719690 0.175929 0.213866
O O3 0.000000 0.088270 0.250000
O O4 0.004826 0.208446 0.179995
O O5 0.728016 0.937235 0.090142
O O6 0.763955 0.051909 0.000000
O O7 0.000000 0.000000 0.064809
O O8 0.740818 0.274335 0.108942
O O9 0.015669 0.340096 0.113452
O O10 0.861496 0.335355 0.000000
#
# Coordination Sequence:
#
# PCOD9527261 Si02
#       4
#    16  16  16  16
#     4  11  23  41  65  91 127 175 220 271 332 395
#     4  10  21  39  62  94 133 171 216 271 328 394
#     4  10  20  37  62  96 137 175 218 272 332 397
#     4  10  22  38  61  95 128 170 223 273 329 390
#
# _framework density 22.837987999999999
#
# number of rings (size 3 to 8) (size 9 to 14) (size 15 to 20)
#    0.000    1.750    2.500    1.500    0.000    6.500 
#    0.000    2.500    0.000    0.000    6.500    0.000 
#    0.000    0.000    0.000    0.000    0.000    0.000 
#
# Total GULP energy -178412.151504 kJ/mol
# GULP energy per Si atom -5575.379734 kJ/mol
# Density = 2.278601 g / cm^3
# Si number density = 22.837988 Si / 1000 Ang^3
#
#
#
# Elastic Constant Matrix: (Units=GPa)
#
#
# Indices 1 2 3 4 5 6 
#
# 1 161.2423 55.5845 52.9521 0.0000 0.0000 0.0000
# 2 55.5845 94.1511 63.3241 0.0000 0.0000 0.0000
# 3 52.9521 63.3241 94.6086 0.0000 0.0000 0.0000
# 4 0.0000 0.0000 0.0000-2079.4646 0.0000 0.0000
# 5 0.0000 0.0000 0.0000 0.0000 40.9777 0.0000
# 6 0.0000 0.0000 0.0000 0.0000 0.0000 47.4150
#
#
#
# Elastic Compliance Matrix: (Units=1/GPa)
#
#
# Indices 1 2 3 4 5 6 
#
# 1 0.008080 -0.003144 -0.002418 0.000000 0.000000 0.000000
# 2 -0.003144 0.020541 -0.011989 0.000000 0.000000 0.000000
# 3 -0.002418 -0.011989 0.019948 0.000000 0.000000 0.000000
# 4 0.000000 0.000000 0.000000 -0.000481 0.000000 0.000000
# 5 0.000000 0.000000 0.000000 0.000000 0.024404 0.000000
# 6 0.000000 0.000000 0.000000 0.000000 0.000000 0.021090
#
#
# Mechanical properties :
#
#
# Convention : Reuss Voigt Hill
#
# Bulk Modulus (GPa) = 74.25663 77.08040 75.66851
# Shear Modulus (GPa) = 37.54563 -386.33830 -174.39634
#
# Velocity S-wave (km/s) = 4.05902 -13.02045 -8.74804
# Velocity P-wave (km/s) = 7.38598 13.86429 8.29656
#
# Compressibility (1/GPa) = 0.01346681
#
# Stress axis : x y z
#
# Youngs Moduli (GPa) = 123.76791 48.68373 50.13110
#
# Poissons Ratio (x) = 0.15305 0.12121
# Poissons Ratio (y) = 0.38910 0.60102
# Poissons Ratio (z) = 0.29926 0.58367
#
# Static dielectric constant tensor:
#      x y z
#    x 1.804000 0.000000 0.000000 
#    y 0.000000 1.934100 0.000000 
#    z 0.000000 0.000000 2.063880 
# 
# From -- ./inp_files/35383.got.cif
#   From: 2010.05.17/outbox.cif.g08.bks.cpg/sg72_18_cif.got.tgz:35383.got - 2010.06.03 17:03:01.
