data_PCOD9527680
_publ_section_title
;
Structure prediction by ZEFSAII (Michael W. Deem and Ramdas Pophale) SiO2 
 PCOD9527680
Probable space group: I B A M
;
_chemical_formula_sum "Si O2"
_cell_formula_units_Z 72
_cell_length_a 17.153708
_cell_length_b 12.025966
_cell_length_c 16.710149
_cell_angle_alpha 90.000000
_cell_angle_beta 90.000000
_cell_angle_gamma 90.000000
_cell_volume 3447.135120
_symmetry_space_group_name_H-M "I B A M"
_symmetry_group_IT_number 72
_symmetry_cell_setting 'orthorhombic'
loop_
_space_group_symop_operation_xyz
x,y,z
-x,-y,z
x,-y,1/2-z
-x,y,1/2-z
-x,-y,-z
x,y,-z
-x,y,1/2+z
x,-y,1/2+z
1/2+x,1/2+y,1/2+z
1/2-x,1/2-y,1/2+z
1/2+x,1/2-y,-z
1/2-x,1/2+y,-z
1/2-x,1/2-y,1/2-z
1/2+x,1/2+y,1/2-z
1/2-x,1/2+y,z
1/2+x,1/2-y,z
loop_
_atom_site_type_symbol
_atom_site_label
_atom_site_fract_x
_atom_site_fract_y
_atom_site_fract_z
Si Si1 0.698972 0.007709 0.588890
Si Si2 0.207368 0.000000 0.750000
Si Si3 0.456405 0.886449 0.359748
Si Si4 0.887565 0.275776 0.586169
Si Si5 0.912470 0.820679 0.251508
O O1 0.735475 0.023737 0.500000
O O2 0.741803 0.035100 0.672592
O O3 0.671564 0.878845 0.594323
O O4 0.618334 0.076209 0.590944
O O5 0.150928 0.095883 0.714088
O O6 0.524400 0.823896 0.407691
O O7 0.424215 0.799628 0.293471
O O8 0.500000 0.000000 0.332468
O O9 0.875761 0.222737 0.500000
O O10 0.882456 0.197768 0.661868
O O11 0.000000 0.868183 0.250000
#
# Coordination Sequence:
#
# PCOD9527680 Si02
#       5
#    16   8  16  16  16
#     4  10  21  36  58  89 123 154 187 236 294 349
#     4  12  25  40  53  78 122 164 198 228 281 358
#     4   9  18  36  62  89 112 141 190 246 295 336
#     4   9  18  34  58  87 112 141 189 245 295 338
#     4  10  22  39  60  80 108 154 200 245 289 340
#
# _framework density 20.886911000000001
#
# number of rings (size 3 to 8) (size 9 to 14) (size 15 to 20)
#    0.000    2.222    0.000    2.333    0.000   18.222 
#    0.000    7.778    0.000    6.667    0.000    0.000 
#    0.000    0.000    0.000    0.000    0.000    0.000 
#
# Total GULP energy -200583.634375 kJ/mol
# GULP energy per Si atom -5571.767622 kJ/mol
# Density = 2.083937 g / cm^3
# Si number density = 20.886911 Si / 1000 Ang^3
#
#
#
# Elastic Constant Matrix: (Units=GPa)
#
#
# Indices 1 2 3 4 5 6 
#
# 1 82.9891 27.0384 29.3485 0.0000 0.0000 0.0000
# 2 27.0384 54.9636 17.9730 0.0000 0.0000 0.0000
# 3 29.3485 17.9730 117.8673 0.0000 0.0000 0.0000
# 4 0.0000 0.0000 0.0000 7.1903 0.0000 0.0000
# 5 0.0000 0.0000 0.0000 0.0000 -12.3938 0.0000
# 6 0.0000 0.0000 0.0000 0.0000 0.0000 24.8587
#
#
#
# Elastic Compliance Matrix: (Units=1/GPa)
#
#
# Indices 1 2 3 4 5 6 
#
# 1 0.015167 -0.006553 -0.002777 0.000000 0.000000 0.000000
# 2 -0.006553 0.021980 -0.001720 0.000000 0.000000 0.000000
# 3 -0.002777 -0.001720 0.009438 0.000000 0.000000 0.000000
# 4 0.000000 0.000000 0.000000 0.139076 0.000000 0.000000
# 5 0.000000 0.000000 0.000000 0.000000 -0.080685 0.000000
# 6 0.000000 0.000000 0.000000 0.000000 0.000000 0.040227
#
#
# Mechanical properties :
#
#
# Convention : Reuss Voigt Hill
#
# Bulk Modulus (GPa) = 40.84235 44.94887 42.89561
# Shear Modulus (GPa) = 28.49586 16.02839 22.26212
#
# Velocity S-wave (km/s) = 3.69764 2.77318 3.26826
# Velocity P-wave (km/s) = 6.15033 5.64100 5.90116
#
# Compressibility (1/GPa) = 0.02448439
#
# Stress axis : x y z
#
# Youngs Moduli (GPa) = 65.93297 45.49616 105.95559
#
# Poissons Ratio (x) = 0.29813 0.29427
# Poissons Ratio (y) = 0.43205 0.18224
# Poissons Ratio (z) = 0.18311 0.07825
#
# Static dielectric constant tensor:
#      x y z
#    x 1.733150 0.000000 0.000000 
#    y 0.000000 1.765430 0.000000 
#    z 0.000000 0.000000 1.784610 
# 
# From -- ./inp_files/31232.got.cif
#   From: 2010.05.17/outbox.cif.g08.bks.cpg/sg72_16_cif.got.tgz:31232.got - 2010.06.03 17:03:01.
