data_PCOD9527738
_publ_section_title
;
Structure prediction by ZEFSAII (Michael W. Deem and Ramdas Pophale) SiO2 
 PCOD9527738
Probable space group: I B A M
;
_chemical_formula_sum "Si O2"
_cell_formula_units_Z 112
_cell_length_a 25.302033
_cell_length_b 11.583914
_cell_length_c 19.319828
_cell_angle_alpha 90.000000
_cell_angle_beta 90.000000
_cell_angle_gamma 90.000000
_cell_volume 5662.575403
_symmetry_space_group_name_H-M "I B A M"
_symmetry_group_IT_number 72
_symmetry_cell_setting 'orthorhombic'
loop_
_space_group_symop_operation_xyz
x,y,z
-x,-y,z
x,-y,1/2-z
-x,y,1/2-z
-x,-y,-z
x,y,-z
-x,y,1/2+z
x,-y,1/2+z
1/2+x,1/2+y,1/2+z
1/2-x,1/2-y,1/2+z
1/2+x,1/2-y,-z
1/2-x,1/2+y,-z
1/2-x,1/2-y,1/2-z
1/2+x,1/2+y,1/2-z
1/2-x,1/2+y,z
1/2+x,1/2-y,z
loop_
_atom_site_type_symbol
_atom_site_label
_atom_site_fract_x
_atom_site_fract_y
_atom_site_fract_z
Si Si1 0.514727 0.300038 0.080735
Si Si2 0.271308 0.898595 0.700283
Si Si3 0.343536 0.896474 0.580673
Si Si4 0.608244 0.651346 0.081362
Si Si5 0.900143 0.382727 0.580833
Si Si6 0.669403 0.751839 0.307788
Si Si7 0.587141 0.448002 0.180082
O O1 0.452316 0.306268 0.090892
O O2 0.543207 0.176880 0.093855
O O3 0.544059 0.389355 0.130613
O O4 0.524737 0.330459 0.000000
O O5 0.297608 0.941736 0.630079
O O6 0.318005 0.837640 0.744636
O O7 0.225896 0.808502 0.680528
O O8 0.250256 0.000000 0.750000
O O9 0.329546 0.905027 0.500000
O O10 0.355874 0.762895 0.595456
O O11 0.393844 0.980548 0.592056
O O12 0.615841 0.544814 0.133027
O O13 0.614503 0.618836 0.000000
O O14 0.888169 0.361181 0.500000
O O15 0.857006 0.319723 0.628651
O O16 0.628289 0.649037 0.294618
O O17 0.563860 0.500000 0.250000
#
# Coordination Sequence:
#
# PCOD9527738 Si02
#       7
#    16  16  16  16  16  16  16
#     4   9  19  35  57  81 110 150 190 225 274 335
#     4  11  21  38  61  82 111 146 188 230 281 340
#     4  10  21  37  57  82 114 146 185 237 283 324
#     4  10  21  37  56  82 114 152 190 227 275 335
#     4   9  18  36  58  84 114 145 184 232 279 327
#     4  10  22  37  59  84 108 148 189 226 278 341
#     4  11  21  35  55  81 115 144 185 234 280 326
#
# _framework density 19.778984999999999
#
# number of rings (size 3 to 8) (size 9 to 14) (size 15 to 20)
#    0.000    2.000    1.429    2.143    0.000    5.143 
#    0.000    2.857    0.000    0.000    0.000    0.000 
#    0.000    0.000    0.000    0.000    0.000    0.000 
#
# Total GULP energy -312399.784805 kJ/mol
# GULP energy per Si atom -5578.567586 kJ/mol
# Density = 1.973397 g / cm^3
# Si number density = 19.778985 Si / 1000 Ang^3
#
#
#
# Elastic Constant Matrix: (Units=GPa)
#
#
# Indices 1 2 3 4 5 6 
#
# 1 19.8948 -21.3500 -6.3755 0.0000 0.0000 0.0000
# 2 -21.3500 45.6726 -0.0229 0.0000 0.0000 0.0000
# 3 -6.3755 -0.0229 27.1597 0.0000 0.0000 0.0000
# 4 0.0000 0.0000 0.0000 21.5507 0.0000 0.0000
# 5 0.0000 0.0000 0.0000 0.0000 15.6112 0.0000
# 6 0.0000 0.0000 0.0000 0.0000 0.0000 15.2584
#
#
#
# Elastic Compliance Matrix: (Units=1/GPa)
#
#
# Indices 1 2 3 4 5 6 
#
# 1 0.118864 0.055578 0.027949 0.000000 0.000000 0.000000
# 2 0.055578 0.047882 0.013087 0.000000 0.000000 0.000000
# 3 0.027949 0.013087 0.043391 0.000000 0.000000 0.000000
# 4 0.000000 0.000000 0.000000 0.046402 0.000000 0.000000
# 5 0.000000 0.000000 0.000000 0.000000 0.064057 0.000000
# 6 0.000000 0.000000 0.000000 0.000000 0.000000 0.065538
#
#
# Mechanical properties :
#
#
# Convention : Reuss Voigt Hill
#
# Bulk Modulus (GPa) = 2.47914 4.13669 3.30792
# Shear Modulus (GPa) = 15.27368 18.51577 16.89473
#
# Velocity S-wave (km/s) = 2.78190 3.06295 2.92580
# Velocity P-wave (km/s) = 3.40217 3.82163 3.61798
#
# Compressibility (1/GPa) = 0.40336579
#
# Stress axis : x y z
#
# Youngs Moduli (GPa) = 8.41296 20.88471 23.04615
#
# Poissons Ratio (x) = -1.16073 -0.64412
# Poissons Ratio (y) = -0.46758 -0.30160
# Poissons Ratio (z) = -0.23514 -0.27332
#
# Static dielectric constant tensor:
#      x y z
#    x 1.674400 0.000000 0.000000 
#    y 0.000000 1.730710 0.000000 
#    z 0.000000 0.000000 1.681690 
# 
# From -- ./inp_files/26407.got.cif
#   From: 2010.05.17/outbox.cif.g08.bks.cpg/sg72_14_cif.got.tgz:26407.got - 2010.06.03 17:03:01.
