data_PCOD9527569
_publ_section_title
;
Structure prediction by ZEFSAII (Michael W. Deem and Ramdas Pophale) SiO2 
 PCOD9527569
Probable space group: I B A M
;
_chemical_formula_sum "Si O2"
_cell_formula_units_Z 112
_cell_length_a 23.423842
_cell_length_b 14.798271
_cell_length_c 14.293993
_cell_angle_alpha 90.000000
_cell_angle_beta 90.000000
_cell_angle_gamma 90.000000
_cell_volume 4954.760553
_symmetry_space_group_name_H-M "I B A M"
_symmetry_group_IT_number 72
_symmetry_cell_setting 'orthorhombic'
loop_
_space_group_symop_operation_xyz
x,y,z
-x,-y,z
x,-y,1/2-z
-x,y,1/2-z
-x,-y,-z
x,y,-z
-x,y,1/2+z
x,-y,1/2+z
1/2+x,1/2+y,1/2+z
1/2-x,1/2-y,1/2+z
1/2+x,1/2-y,-z
1/2-x,1/2+y,-z
1/2-x,1/2-y,1/2-z
1/2+x,1/2+y,1/2-z
1/2-x,1/2+y,z
1/2+x,1/2-y,z
loop_
_atom_site_type_symbol
_atom_site_label
_atom_site_fract_x
_atom_site_fract_y
_atom_site_fract_z
Si Si1 0.456268 0.724540 0.390835
Si Si2 0.178865 0.384862 0.097902
Si Si3 0.600909 0.538190 0.106071
Si Si4 0.085652 0.162036 0.888578
Si Si5 0.240756 0.276801 0.357148
Si Si6 0.272422 0.519780 0.139712
Si Si7 0.126600 0.703867 0.234823
O O1 0.442493 0.742166 0.500000
O O2 0.423254 0.632528 0.358200
O O3 0.523221 0.705726 0.385054
O O4 0.433125 0.798515 0.318824
O O5 0.226637 0.305148 0.095027
O O6 0.215992 0.474696 0.100392
O O7 0.145348 0.376252 0.195666
O O8 0.145024 0.378570 0.000000
O O9 0.581654 0.441744 0.145732
O O10 0.669446 0.527938 0.106010
O O11 0.578745 0.537103 0.000000
O O12 0.124028 0.216901 0.814704
O O13 0.103843 0.162525 0.000000
O O14 0.250000 0.250000 0.250000
O O15 0.267984 0.373690 0.380186
O O16 0.172041 0.283377 0.350590
O O17 0.272352 0.500000 0.250000
#
# Coordination Sequence:
#
# PCOD9527569 Si02
#       7
#    16  16  16  16  16  16  16
#     4  10  22  38  56  84 121 161 209 262 314 370
#     4  11  24  40  60  89 125 164 209 260 310 372
#     4  10  21  34  54  82 120 166 204 247 304 372
#     4  10  21  37  57  85 120 160 209 258 311 377
#     4  10  21  37  58  84 118 161 206 258 303 360
#     4  12  22  37  59  88 125 166 209 249 304 371
#     4  11  21  36  57  80 112 155 200 250 302 356
#
# _framework density 22.604523
#
# number of rings (size 3 to 8) (size 9 to 14) (size 15 to 20)
#    0.000    1.429    2.857    4.286    4.000    5.714 
#    0.000    1.429    0.000    0.000    0.000    8.000 
#    0.000   13.714    0.000    0.000    0.000    0.000 
#
# Total GULP energy -312424.242306 kJ/mol
# GULP energy per Si atom -5579.004327 kJ/mol
# Density = 2.255307 g / cm^3
# Si number density = 22.604523 Si / 1000 Ang^3
#
#
#
# Elastic Constant Matrix: (Units=GPa)
#
#
# Indices 1 2 3 4 5 6 
#
# 1 73.6074 11.7131 19.8667 0.0000 0.0000 0.0000
# 2 11.7131 65.0271 0.0277 0.0000 0.0000 0.0000
# 3 19.8667 0.0277 104.4725 0.0000 0.0000 0.0000
# 4 0.0000 0.0000 0.0000 -13.0731 0.0000 0.0000
# 5 0.0000 0.0000 0.0000 0.0000 28.3455 0.0000
# 6 0.0000 0.0000 0.0000 0.0000 0.0000 31.0713
#
#
#
# Elastic Compliance Matrix: (Units=1/GPa)
#
#
# Indices 1 2 3 4 5 6 
#
# 1 0.014766 -0.002659 -0.002807 0.000000 0.000000 0.000000
# 2 -0.002659 0.015857 0.000501 0.000000 0.000000 0.000000
# 3 -0.002807 0.000501 0.010106 0.000000 0.000000 0.000000
# 4 0.000000 0.000000 0.000000 -0.076493 0.000000 0.000000
# 5 0.000000 0.000000 0.000000 0.000000 0.035279 0.000000
# 6 0.000000 0.000000 0.000000 0.000000 0.000000 0.032184
#
#
# Mechanical properties :
#
#
# Convention : Reuss Voigt Hill
#
# Bulk Modulus (GPa) = 32.46782 34.03579 33.25181
# Shear Modulus (GPa) = 96.34908 23.36870 59.85889
#
# Velocity S-wave (km/s) = 6.53577 3.21877 5.15155
# Velocity P-wave (km/s) = 8.44688 5.37622 7.08002
#
# Compressibility (1/GPa) = 0.03079972
#
# Stress axis : x y z
#
# Youngs Moduli (GPa) = 67.72157 63.06413 98.95502
#
# Poissons Ratio (x) = 0.16766 0.27780
# Poissons Ratio (y) = 0.18005 -0.04961
# Poissons Ratio (z) = 0.19011 -0.03162
#
# Static dielectric constant tensor:
#      x y z
#    x 1.930510 0.000000 0.000000 
#    y 0.000000 1.865200 0.000000 
#    z 0.000000 0.000000 1.880300 
# 
# From -- ./inp_files/25208.got.cif
#   From: 2010.05.17/outbox.cif.g08.bks.cpg/sg72_13_cif.got.tgz:25208.got - 2010.06.03 17:03:01.
