data_PCOD9527675
_publ_section_title
;
Structure prediction by ZEFSAII (Michael W. Deem and Ramdas Pophale) SiO2 
 PCOD9527675
Probable space group: I B A M
;
_chemical_formula_sum "Si O2"
_cell_formula_units_Z 80
_cell_length_a 11.445082
_cell_length_b 12.664394
_cell_length_c 30.751557
_cell_angle_alpha 90.000000
_cell_angle_beta 90.000000
_cell_angle_gamma 90.000000
_cell_volume 4457.285285
_symmetry_space_group_name_H-M "I B A M"
_symmetry_group_IT_number 72
_symmetry_cell_setting 'orthorhombic'
loop_
_space_group_symop_operation_xyz
x,y,z
-x,-y,z
x,-y,1/2-z
-x,y,1/2-z
-x,-y,-z
x,y,-z
-x,y,1/2+z
x,-y,1/2+z
1/2+x,1/2+y,1/2+z
1/2-x,1/2-y,1/2+z
1/2+x,1/2-y,-z
1/2-x,1/2+y,-z
1/2-x,1/2-y,1/2-z
1/2+x,1/2+y,1/2-z
1/2-x,1/2+y,z
1/2+x,1/2-y,z
loop_
_atom_site_type_symbol
_atom_site_label
_atom_site_fract_x
_atom_site_fract_y
_atom_site_fract_z
Si Si1 0.863396 0.175569 0.751949
Si Si2 0.634161 0.499298 0.823191
Si Si3 0.315008 0.475053 0.417751
Si Si4 0.033347 0.162286 0.552420
Si Si5 0.570118 0.099414 0.448758
O O1 0.750000 0.250000 0.750000
O O2 0.854144 0.094967 0.711347
O O3 0.000000 0.216724 0.750000
O O4 0.850348 0.106075 0.795777
O O5 0.500000 0.500000 0.838937
O O6 0.709092 0.484523 0.866319
O O7 0.421343 0.395129 0.427244
O O8 0.356377 0.589662 0.434642
O O9 0.204350 0.429855 0.442488
O O10 0.023062 0.159546 0.500000
O O11 0.044366 0.282902 0.568108
O O12 0.541628 0.104791 0.500000
O O13 0.500000 0.000000 0.429491
#
# Coordination Sequence:
#
# PCOD9527675 Si02
#       5
#    16  16  16  16  16
#     4   9  19  37  60  83 112 152 189 228 295 356
#     4   9  18  37  57  81 113 148 185 231 288 353
#     4  11  20  37  59  85 112 148 199 247 286 351
#     4  10  21  36  58  81 109 155 202 236 292 349
#     4  10  23  39  55  81 120 158 194 247 302 343
#
# _framework density 17.948143999999999
#
# number of rings (size 3 to 8) (size 9 to 14) (size 15 to 20)
#    0.000    2.200    2.000    3.600    2.800    1.600 
#    0.000    2.000    0.000    0.000    0.000    0.000 
#    0.000    0.000    0.000    0.000    0.000    0.000 
#
# Total GULP energy -222840.234929 kJ/mol
# GULP energy per Si atom -5571.005873 kJ/mol
# Density = 1.790729 g / cm^3
# Si number density = 17.948144 Si / 1000 Ang^3
#
#
#
# Elastic Constant Matrix: (Units=GPa)
#
#
# Indices 1 2 3 4 5 6 
#
# 1 73.9253 60.0441 -5.6223 0.0000 0.0000 0.0000
# 2 60.0441 144.3315 15.7147 0.0000 0.0000 0.0000
# 3 -5.6223 15.7147 52.8895 0.0000 0.0000 0.0000
# 4 0.0000 0.0000 0.0000 -1.0530 0.0000 0.0000
# 5 0.0000 0.0000 0.0000 0.0000 -4.3674 0.0000
# 6 0.0000 0.0000 0.0000 0.0000 0.0000 24.9184
#
#
#
# Elastic Compliance Matrix: (Units=1/GPa)
#
#
# Indices 1 2 3 4 5 6 
#
# 1 0.021712 -0.009594 0.005159 0.000000 0.000000 0.000000
# 2 -0.009594 0.011400 -0.004407 0.000000 0.000000 0.000000
# 3 0.005159 -0.004407 0.020765 0.000000 0.000000 0.000000
# 4 0.000000 0.000000 0.000000 -0.949650 0.000000 0.000000
# 5 0.000000 0.000000 0.000000 0.000000 -0.228971 0.000000
# 6 0.000000 0.000000 0.000000 0.000000 0.000000 0.040131
#
#
# Mechanical properties :
#
#
# Convention : Reuss Voigt Hill
#
# Bulk Modulus (GPa) = 27.63043 45.71327 36.67185
# Shear Modulus (GPa) = -4.73995 17.30025 6.28015
#
# Velocity S-wave (km/s) = -1.62685 3.10805 1.87260
# Velocity P-wave (km/s) = 3.44951 6.19717 5.01518
#
# Compressibility (1/GPa) = 0.03619198
#
# Stress axis : x y z
#
# Youngs Moduli (GPa) = 46.05688 87.72155 48.15762
#
# Poissons Ratio (x) = 0.84163 -0.24843
# Poissons Ratio (y) = 0.44188 0.21223
# Poissons Ratio (z) = -0.23760 0.38659
#
# Static dielectric constant tensor:
#      x y z
#    x 1.617180 0.000000 0.000000 
#    y 0.000000 1.628650 0.000000 
#    z 0.000000 0.000000 1.613190 
# 
# From -- ./inp_files/51228.got.cif
#   From: 2010.05.17/outbox.cif.g08.bks.cpg/sg72_26_cif.got.tgz:51228.got - 2010.06.03 17:03:01.
