data_PCOD9527563
_publ_section_title
;
Structure prediction by ZEFSAII (Michael W. Deem and Ramdas Pophale) SiO2 
 PCOD9527563
Probable space group: I B A M
;
_chemical_formula_sum "Si O2"
_cell_formula_units_Z 88
_cell_length_a 26.612188
_cell_length_b 19.057155
_cell_length_c 8.170463
_cell_angle_alpha 90.000000
_cell_angle_beta 90.000000
_cell_angle_gamma 90.000000
_cell_volume 4143.671485
_symmetry_space_group_name_H-M "I B A M"
_symmetry_group_IT_number 72
_symmetry_cell_setting 'orthorhombic'
loop_
_space_group_symop_operation_xyz
x,y,z
-x,-y,z
x,-y,1/2-z
-x,y,1/2-z
-x,-y,-z
x,y,-z
-x,y,1/2+z
x,-y,1/2+z
1/2+x,1/2+y,1/2+z
1/2-x,1/2-y,1/2+z
1/2+x,1/2-y,-z
1/2-x,1/2+y,-z
1/2-x,1/2-y,1/2-z
1/2+x,1/2+y,1/2-z
1/2-x,1/2+y,z
1/2+x,1/2-y,z
loop_
_atom_site_type_symbol
_atom_site_label
_atom_site_fract_x
_atom_site_fract_y
_atom_site_fract_z
Si Si1 0.167163 0.672793 0.311833
Si Si2 0.252466 0.421626 0.308734
Si Si3 0.573053 0.078973 0.193743
Si Si4 0.366768 0.575690 0.304690
Si Si5 0.000000 0.689511 0.750000
Si Si6 0.912091 0.778359 0.692227
O O1 0.166607 0.695599 0.500000
O O2 0.221256 0.642309 0.267927
O O3 0.129818 0.606119 0.293112
O O4 0.139628 0.734421 0.212471
O O5 0.237371 0.500000 0.250000
O O6 0.243214 0.419001 0.500000
O O7 0.311532 0.415045 0.271933
O O8 0.540059 0.130140 0.307992
O O9 0.567090 0.000000 0.250000
O O10 0.558968 0.088189 0.000000
O O11 0.386540 0.500000 0.250000
O O12 0.360167 0.575408 0.500000
O O13 0.401143 0.641767 0.262600
O O14 0.043933 0.743724 0.698259
O O15 0.928012 0.773648 0.500000
#
# Coordination Sequence:
#
# PCOD9527563 Si02
#       6
#    16  16  16  16   8  16
#     4  10  21  36  55  83 118 155 193 232 277 328
#     4  11  21  35  57  84 117 155 193 233 278 331
#     4  10  21  34  52  79 111 149 189 227 266 314
#     4  10  21  39  62  86 112 143 183 231 286 347
#     4  10  21  38  59  80 110 144 186 234 283 334
#     4  10  22  40  61  84 111 146 188 235 286 340
#
# _framework density 21.237204999999999
#
# number of rings (size 3 to 8) (size 9 to 14) (size 15 to 20)
#    0.000    1.818    0.000    5.182    0.000    9.455 
#    0.000    0.455    0.000    2.182    0.000    0.000 
#    0.000    0.000    0.000    0.000    0.000    0.000 
#
# Total GULP energy -245096.540482 kJ/mol
# GULP energy per Si atom -5570.375920 kJ/mol
# Density = 2.118887 g / cm^3
# Si number density = 21.237205 Si / 1000 Ang^3
#
#
#
# Elastic Constant Matrix: (Units=GPa)
#
#
# Indices 1 2 3 4 5 6 
#
# 1 21.4314 37.8947 7.7851 0.0000 0.0000 0.0000
# 2 37.8947 153.5389 16.0210 0.0000 0.0000 0.0000
# 3 7.7851 16.0210 59.7391 0.0000 0.0000 0.0000
# 4 0.0000 0.0000 0.0000 16.5373 0.0000 0.0000
# 5 0.0000 0.0000 0.0000 0.0000 -11.5090 0.0000
# 6 0.0000 0.0000 0.0000 0.0000 0.0000 25.2536
#
#
#
# Elastic Compliance Matrix: (Units=1/GPa)
#
#
# Indices 1 2 3 4 5 6 
#
# 1 0.084560 -0.020288 -0.005579 0.000000 0.000000 0.000000
# 2 -0.020288 0.011568 -0.000458 0.000000 0.000000 0.000000
# 3 -0.005579 -0.000458 0.017589 0.000000 0.000000 0.000000
# 4 0.000000 0.000000 0.000000 0.060469 0.000000 0.000000
# 5 0.000000 0.000000 0.000000 0.000000 -0.086888 0.000000
# 6 0.000000 0.000000 0.000000 0.000000 0.000000 0.039598
#
#
# Mechanical properties :
#
#
# Convention : Reuss Voigt Hill
#
# Bulk Modulus (GPa) = 16.37547 39.79010 28.08278
# Shear Modulus (GPa) = 25.01215 17.59029 21.30122
#
# Velocity S-wave (km/s) = 3.43556 2.88110 3.17048
# Velocity P-wave (km/s) = 4.84406 5.46300 5.16281
#
# Compressibility (1/GPa) = 0.06106695
#
# Stress axis : x y z
#
# Youngs Moduli (GPa) = 11.82592 86.44470 56.85231
#
# Poissons Ratio (x) = 1.75379 0.31717
# Poissons Ratio (y) = 0.23992 0.02606
# Poissons Ratio (z) = 0.06597 0.03963
#
# Static dielectric constant tensor:
#      x y z
#    x 1.765330 0.000000 0.000000 
#    y 0.000000 1.738330 0.000000 
#    z 0.000000 0.000000 1.842760 
# 
# From -- ./inp_files/9064.got.cif
#   From: 2010.05.17/outbox.cif.g08.bks.cpg/sg72_5_cif.got.tgz:9064.got - 2010.06.03 17:03:01.
