data_PCOD9527428
_publ_section_title
;
Structure prediction by ZEFSAII (Michael W. Deem and Ramdas Pophale) SiO2 
 PCOD9527428
Probable space group: I B A M
;
_chemical_formula_sum "Si O2"
_cell_formula_units_Z 100
_cell_length_a 15.458644
_cell_length_b 12.326303
_cell_length_c 23.131487
_cell_angle_alpha 90.000000
_cell_angle_beta 90.000000
_cell_angle_gamma 90.000000
_cell_volume 4407.656964
_symmetry_space_group_name_H-M "I B A M"
_symmetry_group_IT_number 72
_symmetry_cell_setting 'orthorhombic'
loop_
_space_group_symop_operation_xyz
x,y,z
-x,-y,z
x,-y,1/2-z
-x,y,1/2-z
-x,-y,-z
x,y,-z
-x,y,1/2+z
x,-y,1/2+z
1/2+x,1/2+y,1/2+z
1/2-x,1/2-y,1/2+z
1/2+x,1/2-y,-z
1/2-x,1/2+y,-z
1/2-x,1/2-y,1/2-z
1/2+x,1/2+y,1/2-z
1/2-x,1/2+y,z
1/2+x,1/2-y,z
loop_
_atom_site_type_symbol
_atom_site_label
_atom_site_fract_x
_atom_site_fract_y
_atom_site_fract_z
Si Si1 0.885252 0.573850 0.845283
Si Si2 0.704149 0.140488 0.673322
Si Si3 0.500000 0.000000 0.250000
Si Si4 0.979443 0.729373 0.934218
Si Si5 0.684621 0.389610 0.937517
Si Si6 0.202860 0.124389 0.290000
Si Si7 0.583672 0.424334 0.613313
O O1 0.868708 0.444094 0.846900
O O2 0.941582 0.579436 0.787836
O O3 0.937772 0.632502 0.895975
O O4 0.789212 0.616579 0.830461
O O5 0.759442 0.152485 0.615552
O O6 0.674548 0.250023 0.703620
O O7 0.767359 0.097076 0.724895
O O8 0.900645 0.815529 0.938327
O O9 0.056312 0.802860 0.906149
O O10 0.001880 0.695988 0.000000
O O11 0.654305 0.513792 0.926417
O O12 0.728291 0.381623 0.000000
O O13 0.123894 0.068709 0.322877
O O14 0.500000 0.500000 0.610203
#
# Coordination Sequence:
#
# PCOD9527428 Si02
#       7
#    16  16   4  16  16  16  16
#     4  12  24  44  71  95 138 185 232 285 347 429
#     4  11  23  41  67 102 136 180 227 296 352 416
#     4  12  28  44  70 100 132 192 232 270 368 416
#     4  10  23  44  66 100 141 181 229 286 349 424
#     4  10  20  39  68 100 136 177 228 283 350 417
#     4  11  23  43  70  98 141 179 233 299 355 427
#     4  10  22  42  71 102 137 186 235 294 364 419
#
# _framework density 22.687791000000001
#
# number of rings (size 3 to 8) (size 9 to 14) (size 15 to 20)
#    0.000    1.280    4.800    0.480    2.240    2.560 
#    0.000    6.800    0.000    0.000    0.000    0.000 
#    0.000    0.000    0.000    0.000    0.000    0.000 
#
# Total GULP energy -278826.704624 kJ/mol
# GULP energy per Si atom -5576.534092 kJ/mol
# Density = 2.263615 g / cm^3
# Si number density = 22.687791 Si / 1000 Ang^3
#
#
#
# Elastic Constant Matrix: (Units=GPa)
#
#
# Indices 1 2 3 4 5 6 
#
# 1 43.3560 13.5195 32.3997 0.0000 0.0000 0.0000
# 2 13.5195 81.5081 24.4236 0.0000 0.0000 0.0000
# 3 32.3997 24.4236 151.4376 0.0000 0.0000 0.0000
# 4 0.0000 0.0000 0.0000 32.8275 0.0000 0.0000
# 5 0.0000 0.0000 0.0000 0.0000 27.7904 0.0000
# 6 0.0000 0.0000 0.0000 0.0000 0.0000 32.0608
#
#
#
# Elastic Compliance Matrix: (Units=1/GPa)
#
#
# Indices 1 2 3 4 5 6 
#
# 1 0.028139 -0.003009 -0.005535 0.000000 0.000000 0.000000
# 2 -0.003009 0.013213 -0.001487 0.000000 0.000000 0.000000
# 3 -0.005535 -0.001487 0.008027 0.000000 0.000000 0.000000
# 4 0.000000 0.000000 0.000000 0.030462 0.000000 0.000000
# 5 0.000000 0.000000 0.000000 0.000000 0.035984 0.000000
# 6 0.000000 0.000000 0.000000 0.000000 0.000000 0.031191
#
#
# Mechanical properties :
#
#
# Convention : Reuss Voigt Hill
#
# Bulk Modulus (GPa) = 34.10888 46.33193 40.22040
# Shear Modulus (GPa) = 28.27220 32.26633 30.26927
#
# Velocity S-wave (km/s) = 3.53390 3.77528 3.65659
# Velocity P-wave (km/s) = 5.63187 6.28248 5.96605
#
# Compressibility (1/GPa) = 0.02931788
#
# Stress axis : x y z
#
# Youngs Moduli (GPa) = 35.53731 75.68045 124.57215
#
# Poissons Ratio (x) = 0.22771 0.68952
# Poissons Ratio (y) = 0.10693 0.18528
# Poissons Ratio (z) = 0.19670 0.11256
#
# Static dielectric constant tensor:
#      x y z
#    x 1.875480 0.000000 0.000000 
#    y 0.000000 2.030050 0.000000 
#    z 0.000000 0.000000 1.864960 
# 
# From -- ./inp_files/51725.got.cif
#   From: 2010.05.17/outbox.cif.g08.bks.cpg/sg72_26_cif.got.tgz:51725.got - 2010.06.03 17:03:01.
