data_PCOD9527689
_publ_section_title
;
Structure prediction by ZEFSAII (Michael W. Deem and Ramdas Pophale) SiO2 
 PCOD9527689
Probable space group: I B A M
;
_chemical_formula_sum "Si O2"
_cell_formula_units_Z 128
_cell_length_a 17.471973
_cell_length_b 16.241115
_cell_length_c 23.278822
_cell_angle_alpha 90.000000
_cell_angle_beta 90.000000
_cell_angle_gamma 90.000000
_cell_volume 6605.699160
_symmetry_space_group_name_H-M "I B A M"
_symmetry_group_IT_number 72
_symmetry_cell_setting 'orthorhombic'
loop_
_space_group_symop_operation_xyz
x,y,z
-x,-y,z
x,-y,1/2-z
-x,y,1/2-z
-x,-y,-z
x,y,-z
-x,y,1/2+z
x,-y,1/2+z
1/2+x,1/2+y,1/2+z
1/2-x,1/2-y,1/2+z
1/2+x,1/2-y,-z
1/2-x,1/2+y,-z
1/2-x,1/2-y,1/2-z
1/2+x,1/2+y,1/2-z
1/2-x,1/2+y,z
1/2+x,1/2-y,z
loop_
_atom_site_type_symbol
_atom_site_label
_atom_site_fract_x
_atom_site_fract_y
_atom_site_fract_z
Si Si1 0.088692 0.192445 0.235093
Si Si2 0.622054 0.780135 0.932047
Si Si3 0.189367 0.405678 0.642094
Si Si4 0.980595 0.405313 0.431681
Si Si5 0.160057 0.867356 0.854025
Si Si6 0.165338 0.582890 0.364806
Si Si7 0.648433 0.540027 0.313364
Si Si8 0.590951 0.121569 0.753365
O O1 0.139132 0.168278 0.290972
O O2 0.098413 0.122037 0.187545
O O3 0.106550 0.286717 0.221797
O O4 0.000000 0.191716 0.250000
O O5 0.690809 0.830997 0.902279
O O6 0.548901 0.840165 0.921287
O O7 0.621083 0.692953 0.899750
O O8 0.630698 0.770585 0.000000
O O9 0.173368 0.491065 0.609376
O O10 0.267403 0.425353 0.674902
O O11 0.127064 0.383704 0.690575
O O12 0.967871 0.408563 0.500000
O O13 0.904084 0.376815 0.399275
O O14 0.000000 0.500000 0.412837
O O15 0.252160 0.873793 0.862734
O O16 0.132160 0.962598 0.854408
O O17 0.134823 0.566966 0.299978
O O18 0.643903 0.500000 0.250000
O O19 0.500000 0.105902 0.750000
#
# Coordination Sequence:
#
# PCOD9527689 Si02
#       8
#    16  16  16  16  16  16  16  16
#     4  10  21  36  59  88 120 156 201 244 298 368
#     4  11  23  39  61  85 115 159 204 248 301 357
#     4  11  20  36  55  82 125 156 193 236 299 368
#     4  10  21  39  62  88 119 160 206 251 301 364
#     4  10  22  40  57  86 119 153 203 249 302 355
#     4  11  23  35  59  89 121 163 195 246 304 367
#     4   9  20  37  57  84 114 156 195 238 298 362
#     4  11  22  31  52  91 126 153 191 240 300 371
#
# _framework density 19.377206999999999
#
# number of rings (size 3 to 8) (size 9 to 14) (size 15 to 20)
#    0.000    1.625    2.500    3.375    3.500    4.250 
#    0.000    1.875    0.000    0.000    0.000    1.750 
#    0.000    0.000    0.000    0.000    0.000    0.000 
#
# Total GULP energy -356902.928685 kJ/mol
# GULP energy per Si atom -5576.608261 kJ/mol
# Density = 1.933310 g / cm^3
# Si number density = 19.377207 Si / 1000 Ang^3
#
#
#
# Elastic Constant Matrix: (Units=GPa)
#
#
# Indices 1 2 3 4 5 6 
#
# 1 35.0685 30.8725 10.2769 0.0000 0.0000 0.0000
# 2 30.8725 123.1854 36.6204 0.0000 0.0000 0.0000
# 3 10.2769 36.6204 57.2035 0.0000 0.0000 0.0000
# 4 0.0000 0.0000 0.0000 25.0674 0.0000 0.0000
# 5 0.0000 0.0000 0.0000 0.0000 15.6365 0.0000
# 6 0.0000 0.0000 0.0000 0.0000 0.0000 46.6860
#
#
#
# Elastic Compliance Matrix: (Units=1/GPa)
#
#
# Indices 1 2 3 4 5 6 
#
# 1 0.036623 -0.008920 -0.000869 0.000000 0.000000 0.000000
# 2 -0.008920 0.012198 -0.006207 0.000000 0.000000 0.000000
# 3 -0.000869 -0.006207 0.021611 0.000000 0.000000 0.000000
# 4 0.000000 0.000000 0.000000 0.039892 0.000000 0.000000
# 5 0.000000 0.000000 0.000000 0.000000 0.063953 0.000000
# 6 0.000000 0.000000 0.000000 0.000000 0.000000 0.021420
#
#
# Mechanical properties :
#
#
# Convention : Reuss Voigt Hill
#
# Bulk Modulus (GPa) = 26.01396 41.22190 33.61793
# Shear Modulus (GPa) = 20.78979 26.65717 23.72348
#
# Velocity S-wave (km/s) = 3.27907 3.71306 3.50279
# Velocity P-wave (km/s) = 5.27167 6.30095 5.80916
#
# Compressibility (1/GPa) = 0.03844091
#
# Stress axis : x y z
#
# Youngs Moduli (GPa) = 27.30519 81.97740 46.27282
#
# Poissons Ratio (x) = 0.73124 0.04021
# Poissons Ratio (y) = 0.24356 0.28720
# Poissons Ratio (z) = 0.02373 0.50881
#
# Static dielectric constant tensor:
#      x y z
#    x 1.723910 0.000000 0.000000 
#    y 0.000000 1.760630 0.000000 
#    z 0.000000 0.000000 1.679530 
# 
# From -- ./inp_files/45076.got.cif
#   From: 2010.05.17/outbox.cif.g08.bks.cpg/sg72_23_cif.got.tgz:45076.got - 2010.06.03 17:03:01.
