data_PCOD9527648
_publ_section_title
;
Structure prediction by ZEFSAII (Michael W. Deem and Ramdas Pophale) SiO2 
 PCOD9527648
Probable space group: I B A M
;
_chemical_formula_sum "Si O2"
_cell_formula_units_Z 72
_cell_length_a 25.950731
_cell_length_b 5.036048
_cell_length_c 28.308533
_cell_angle_alpha 90.000000
_cell_angle_beta 90.000000
_cell_angle_gamma 90.000000
_cell_volume 3699.617463
_symmetry_space_group_name_H-M "I B A M"
_symmetry_group_IT_number 72
_symmetry_cell_setting 'orthorhombic'
loop_
_space_group_symop_operation_xyz
x,y,z
-x,-y,z
x,-y,1/2-z
-x,y,1/2-z
-x,-y,-z
x,y,-z
-x,y,1/2+z
x,-y,1/2+z
1/2+x,1/2+y,1/2+z
1/2-x,1/2-y,1/2+z
1/2+x,1/2-y,-z
1/2-x,1/2+y,-z
1/2-x,1/2-y,1/2-z
1/2+x,1/2+y,1/2-z
1/2-x,1/2+y,z
1/2+x,1/2-y,z
loop_
_atom_site_type_symbol
_atom_site_label
_atom_site_fract_x
_atom_site_fract_y
_atom_site_fract_z
Si Si1 0.962762 0.248885 0.446714
Si Si2 0.397433 0.986894 0.860580
Si Si3 0.286717 0.014244 0.397444
Si Si4 0.716960 0.895088 0.000000
Si Si5 0.438331 0.499274 0.805582
O O1 0.942256 0.187354 0.500000
O O2 0.921115 0.354766 0.408766
O O3 0.000000 0.500000 0.450632
O O4 0.000000 0.000000 0.432447
O O5 0.336099 0.011063 0.864972
O O6 0.414527 0.771649 0.823021
O O7 0.419007 0.265048 0.840524
O O8 0.257136 0.290964 0.392100
O O9 0.308269 0.972578 0.450866
O O10 0.767979 0.085469 0.000000
O O11 0.500000 0.500000 0.809343
O O12 0.425448 0.500000 0.750000
#
# Coordination Sequence:
#
# PCOD9527648 Si02
#       5
#    16  16  16   8  16
#     4  10  21  36  54  85 127 161 195 238 292 370
#     4  12  22  37  66  88 118 163 201 248 306 375
#     4  10  21  37  57  86 121 158 203 253 293 345
#     4   8  16  32  52  76 111 152 195 242 282 322
#     4  11  24  42  64  92 119 149 199 261 314 367
#
# _framework density 19.461471
#
# number of rings (size 3 to 8) (size 9 to 14) (size 15 to 20)
#    0.000    1.556    0.000    6.000    1.556    1.778 
#    0.000    0.000    0.000   13.333    0.000    0.000 
#    0.000    0.000    0.000    0.000    0.000    0.000 
#
# Total GULP energy -200656.520431 kJ/mol
# GULP energy per Si atom -5573.792234 kJ/mol
# Density = 1.941718 g / cm^3
# Si number density = 19.461471 Si / 1000 Ang^3
#
#
#
# Elastic Constant Matrix: (Units=GPa)
#
#
# Indices 1 2 3 4 5 6 
#
# 1 342.6846 397.9322 486.2972 0.0000 0.0000 0.0000
# 2 397.9322 652.2902 638.7504 0.0000 0.0000 0.0000
# 3 486.2972 638.7504 819.0316 0.0000 0.0000 0.0000
# 4 0.0000 0.0000 0.0000 34.4777 0.0000 0.0000
# 5 0.0000 0.0000 0.0000 0.0000 48.8700 0.0000
# 6 0.0000 0.0000 0.0000 0.0000 0.0000 25.7497
#
#
#
# Elastic Compliance Matrix: (Units=1/GPa)
#
#
# Indices 1 2 3 4 5 6 
#
# 1 0.019348 -0.002344 -0.009660 0.000000 0.000000 0.000000
# 2 -0.002344 0.006772 -0.003889 0.000000 0.000000 0.000000
# 3 -0.009660 -0.003889 0.009989 0.000000 0.000000 0.000000
# 4 0.000000 0.000000 0.000000 0.029004 0.000000 0.000000
# 5 0.000000 0.000000 0.000000 0.000000 0.020462 0.000000
# 6 0.000000 0.000000 0.000000 0.000000 0.000000 0.038835
#
#
# Mechanical properties :
#
#
# Convention : Reuss Voigt Hill
#
# Bulk Modulus (GPa) = 231.31862 539.99622 385.65742
# Shear Modulus (GPa) = 31.71806 41.22125 36.46965
#
# Velocity S-wave (km/s) = 4.04144 4.60727 4.33360
# Velocity P-wave (km/s) = 11.86994 17.50355 14.95443
#
# Compressibility (1/GPa) = 0.00432304
#
# Stress axis : x y z
#
# Youngs Moduli (GPa) = 51.68434 147.67266 100.10532
#
# Poissons Ratio (x) = 0.34619 0.96698
# Poissons Ratio (y) = 0.12117 0.38933
# Poissons Ratio (z) = 0.49925 0.57433
#
# Static dielectric constant tensor:
#      x y z
#    x 1.632710 0.000000 0.000000 
#    y 0.000000 1.661610 0.000000 
#    z 0.000000 0.000000 1.735670 
# 
# From -- ./inp_files/49810.got.cif
#   From: 2010.05.17/outbox.cif.g08.bks.cpg/sg72_25_cif.got.tgz:49810.got - 2010.06.03 17:03:01.
