data_PCOD9527381
_publ_section_title
;
Structure prediction by ZEFSAII (Michael W. Deem and Ramdas Pophale) SiO2 
 PCOD9527381
Probable space group: I B A M
;
_chemical_formula_sum "Si O2"
_cell_formula_units_Z 88
_cell_length_a 27.927614
_cell_length_b 10.556860
_cell_length_c 15.310150
_cell_angle_alpha 90.000000
_cell_angle_beta 90.000000
_cell_angle_gamma 90.000000
_cell_volume 4513.859544
_symmetry_space_group_name_H-M "I B A M"
_symmetry_group_IT_number 72
_symmetry_cell_setting 'orthorhombic'
loop_
_space_group_symop_operation_xyz
x,y,z
-x,-y,z
x,-y,1/2-z
-x,y,1/2-z
-x,-y,-z
x,y,-z
-x,y,1/2+z
x,-y,1/2+z
1/2+x,1/2+y,1/2+z
1/2-x,1/2-y,1/2+z
1/2+x,1/2-y,-z
1/2-x,1/2+y,-z
1/2-x,1/2-y,1/2-z
1/2+x,1/2+y,1/2-z
1/2-x,1/2+y,z
1/2+x,1/2-y,z
loop_
_atom_site_type_symbol
_atom_site_label
_atom_site_fract_x
_atom_site_fract_y
_atom_site_fract_z
Si Si1 0.349870 0.066020 0.906577
Si Si2 0.126439 0.000000 0.250000
Si Si3 0.802327 0.669831 0.154841
Si Si4 0.053003 0.534935 0.352805
Si Si5 0.102109 0.802686 0.602005
Si Si6 0.194790 0.807233 0.158814
O O1 0.333429 0.208652 0.899899
O O2 0.323358 0.970952 0.842037
O O3 0.406159 0.051533 0.894911
O O4 0.335767 0.012080 0.000000
O O5 0.098595 0.905022 0.317605
O O6 0.161775 0.924677 0.184402
O O7 0.842704 0.752646 0.105721
O O8 0.800140 0.732163 0.249890
O O9 0.747632 0.665123 0.122745
O O10 0.054739 0.500000 0.250000
O O11 0.069481 0.679456 0.373094
O O12 0.000000 0.500000 0.384033
O O13 0.092206 0.840805 0.500000
#
# Coordination Sequence:
#
# PCOD9527381 Si02
#       6
#    16   8  16  16  16  16
#     4  11  22  34  53  84 118 145 187 250 301 358
#     4  10  22  38  56  85 122 168 207 242 298 368
#     4   9  19  34  54  76 109 152 203 249 296 342
#     4  10  20  38  66  93 113 146 197 258 317 371
#     4  10  21  38  59  88 126 162 202 256 307 362
#     4  10  21  34  54  76 109 160 204 240 293 354
#
# _framework density 19.495511
#
# number of rings (size 3 to 8) (size 9 to 14) (size 15 to 20)
#    0.000    2.000    0.000    6.000    7.636    3.636 
#    0.000    0.000    0.000    8.727    0.000   12.727 
#    0.000    0.000    0.000    0.000    0.000    0.000 
#
# Total GULP energy -245028.563743 kJ/mol
# GULP energy per Si atom -5568.830994 kJ/mol
# Density = 1.945114 g / cm^3
# Si number density = 19.495511 Si / 1000 Ang^3
#
#
#
# Elastic Constant Matrix: (Units=GPa)
#
#
# Indices 1 2 3 4 5 6 
#
# 1 130.1543 59.1064 25.5840 0.0000 0.0000 0.0000
# 2 59.1064 78.2936 29.4884 0.0000 0.0000 0.0000
# 3 25.5840 29.4884 89.9245 0.0000 0.0000 0.0000
# 4 0.0000 0.0000 0.0000 22.2958 0.0000 0.0000
# 5 0.0000 0.0000 0.0000 0.0000 15.1056 0.0000
# 6 0.0000 0.0000 0.0000 0.0000 0.0000 4.6851
#
#
#
# Elastic Compliance Matrix: (Units=1/GPa)
#
#
# Indices 1 2 3 4 5 6 
#
# 1 0.011711 -0.008655 -0.000494 0.000000 0.000000 0.000000
# 2 -0.008655 0.020969 -0.004414 0.000000 0.000000 0.000000
# 3 -0.000494 -0.004414 0.012708 0.000000 0.000000 0.000000
# 4 0.000000 0.000000 0.000000 0.044851 0.000000 0.000000
# 5 0.000000 0.000000 0.000000 0.000000 0.066201 0.000000
# 6 0.000000 0.000000 0.000000 0.000000 0.000000 0.213444
#
#
# Mechanical properties :
#
#
# Convention : Reuss Voigt Hill
#
# Bulk Modulus (GPa) = 54.75519 58.52555 56.64037
# Shear Modulus (GPa) = 12.40401 20.69686 16.55044
#
# Velocity S-wave (km/s) = 2.52514 3.26179 2.91681
# Velocity P-wave (km/s) = 6.05382 6.65364 6.36080
#
# Compressibility (1/GPa) = 0.01826311
#
# Stress axis : x y z
#
# Youngs Moduli (GPa) = 85.39282 47.69028 78.68900
#
# Poissons Ratio (x) = 0.41275 0.03884
# Poissons Ratio (y) = 0.73906 0.34732
# Poissons Ratio (z) = 0.04215 0.21049
#
# Static dielectric constant tensor:
#      x y z
#    x 1.689420 0.000000 0.000000 
#    y 0.000000 1.699810 0.000000 
#    z 0.000000 0.000000 1.765100 
# 
# From -- ./inp_files/25817.got.cif
#   From: 2010.05.17/outbox.cif.g08.bks.cpg/sg72_13_cif.got.tgz:25817.got - 2010.06.03 17:03:01.
