data_PCOD9527929
_publ_section_title
;
Structure prediction by ZEFSAII (Michael W. Deem and Ramdas Pophale) SiO2 
 PCOD9527929
Probable space group: I B A M
;
_chemical_formula_sum "Si O2"
_cell_formula_units_Z 92
_cell_length_a 14.635238
_cell_length_b 20.098782
_cell_length_c 13.559409
_cell_angle_alpha 90.000000
_cell_angle_beta 90.000000
_cell_angle_gamma 90.000000
_cell_volume 3988.506369
_symmetry_space_group_name_H-M "I B A M"
_symmetry_group_IT_number 72
_symmetry_cell_setting 'orthorhombic'
loop_
_space_group_symop_operation_xyz
x,y,z
-x,-y,z
x,-y,1/2-z
-x,y,1/2-z
-x,-y,-z
x,y,-z
-x,y,1/2+z
x,-y,1/2+z
1/2+x,1/2+y,1/2+z
1/2-x,1/2-y,1/2+z
1/2+x,1/2-y,-z
1/2-x,1/2+y,-z
1/2-x,1/2-y,1/2-z
1/2+x,1/2+y,1/2-z
1/2-x,1/2+y,z
1/2+x,1/2-y,z
loop_
_atom_site_type_symbol
_atom_site_label
_atom_site_fract_x
_atom_site_fract_y
_atom_site_fract_z
Si Si1 0.156235 0.957004 0.616297
Si Si2 0.295729 0.000000 0.750000
Si Si3 0.604849 0.873057 0.775068
Si Si4 0.500000 0.500000 0.750000
Si Si5 0.745437 0.177487 0.116202
Si Si6 0.863697 0.811599 0.116177
Si Si7 0.932698 0.233517 0.119581
O O1 0.147339 0.966111 0.500000
O O2 0.221652 0.013082 0.662516
O O3 0.184473 0.881214 0.642458
O O4 0.061861 0.959376 0.674955
O O5 0.357099 0.945199 0.695524
O O6 0.500000 0.884289 0.750000
O O7 0.671394 0.860292 0.681739
O O8 0.597749 0.806249 0.841015
O O9 0.707783 0.252793 0.128186
O O10 0.851884 0.181643 0.148044
O O11 0.740673 0.159991 0.000000
O O12 0.964640 0.788275 0.152201
O O13 0.880831 0.820138 0.000000
O O14 0.932034 0.236801 0.000000
#
# Coordination Sequence:
#
# PCOD9527929 Si02
#       7
#    16   8  16   4  16  16  16
#     4  10  22  42  64  89 130 172 212 276 331 383
#     4  11  27  43  59  92 124 180 243 263 309 407
#     4  12  24  41  63  88 128 174 217 278 329 382
#     4  10  22  36  62  98 126 164 220 258 312 412
#     4  10  21  38  61  92 125 159 208 270 334 403
#     4   9  18  36  62  92 123 161 210 265 335 404
#     4  10  21  38  65  98 128 162 210 272 344 406
#
# _framework density 23.066279000000002
#
# number of rings (size 3 to 8) (size 9 to 14) (size 15 to 20)
#    0.000    1.739    1.739    2.087    0.000    6.957 
#    0.000    1.739    0.000    3.130    0.000    0.000 
#    0.000    0.000    0.000    0.000    0.000    0.000 
#
# Total GULP energy -256437.985133 kJ/mol
# GULP energy per Si atom -5574.738807 kJ/mol
# Density = 2.301378 g / cm^3
# Si number density = 23.066279 Si / 1000 Ang^3
#
#
#
# Elastic Constant Matrix: (Units=GPa)
#
#
# Indices 1 2 3 4 5 6 
#
# 1 153.3939 11.7304 32.2346 0.0000 0.0000 0.0000
# 2 11.7304 33.2050 1.7860 0.0000 0.0000 0.0000
# 3 32.2346 1.7860 90.2201 0.0000 0.0000 0.0000
# 4 0.0000 0.0000 0.0000 27.4358 0.0000 0.0000
# 5 0.0000 0.0000 0.0000 0.0000 24.1111 0.0000
# 6 0.0000 0.0000 0.0000 0.0000 0.0000 29.3330
#
#
#
# Elastic Compliance Matrix: (Units=1/GPa)
#
#
# Indices 1 2 3 4 5 6 
#
# 1 0.007238 -0.002420 -0.002538 0.000000 0.000000 0.000000
# 2 -0.002420 0.030957 0.000252 0.000000 0.000000 0.000000
# 3 -0.002538 0.000252 0.011986 0.000000 0.000000 0.000000
# 4 0.000000 0.000000 0.000000 0.036449 0.000000 0.000000
# 5 0.000000 0.000000 0.000000 0.000000 0.041475 0.000000
# 6 0.000000 0.000000 0.000000 0.000000 0.000000 0.034091
#
#
# Mechanical properties :
#
#
# Convention : Reuss Voigt Hill
#
# Bulk Modulus (GPa) = 24.52903 40.92456 32.72680
# Shear Modulus (GPa) = 26.99819 31.58052 29.28935
#
# Velocity S-wave (km/s) = 3.42491 3.70418 3.56728
# Velocity P-wave (km/s) = 5.12809 6.00627 5.58447
#
# Compressibility (1/GPa) = 0.04076802
#
# Stress axis : x y z
#
# Youngs Moduli (GPa) = 138.16751 32.30243 83.43195
#
# Poissons Ratio (x) = 0.07818 0.21175
# Poissons Ratio (y) = 0.33441 -0.02102
# Poissons Ratio (z) = 0.35067 -0.00814
#
# Static dielectric constant tensor:
#      x y z
#    x 1.883590 0.000000 0.000000 
#    y 0.000000 2.109550 0.000000 
#    z 0.000000 0.000000 1.896010 
# 
# From -- ./inp_files/21896.got.cif
#   From: 2010.05.17/outbox.cif.g08.bks.cpg/sg72_11_cif.got.tgz:21896.got - 2010.06.03 17:03:01.
