data_PCOD9527345
_publ_section_title
;
Structure prediction by ZEFSAII (Michael W. Deem and Ramdas Pophale) SiO2 
 PCOD9527345
Probable space group: I B A M
;
_chemical_formula_sum "Si O2"
_cell_formula_units_Z 112
_cell_length_a 15.641792
_cell_length_b 11.387846
_cell_length_c 30.978773
_cell_angle_alpha 90.000000
_cell_angle_beta 90.000000
_cell_angle_gamma 90.000000
_cell_volume 5518.134785
_symmetry_space_group_name_H-M "I B A M"
_symmetry_group_IT_number 72
_symmetry_cell_setting 'orthorhombic'
loop_
_space_group_symop_operation_xyz
x,y,z
-x,-y,z
x,-y,1/2-z
-x,y,1/2-z
-x,-y,-z
x,y,-z
-x,y,1/2+z
x,-y,1/2+z
1/2+x,1/2+y,1/2+z
1/2-x,1/2-y,1/2+z
1/2+x,1/2-y,-z
1/2-x,1/2+y,-z
1/2-x,1/2-y,1/2-z
1/2+x,1/2+y,1/2-z
1/2-x,1/2+y,z
1/2+x,1/2-y,z
loop_
_atom_site_type_symbol
_atom_site_label
_atom_site_fract_x
_atom_site_fract_y
_atom_site_fract_z
Si Si1 0.729038 0.456896 0.422915
Si Si2 0.163784 0.769276 0.299742
Si Si3 0.855951 0.809510 0.296905
Si Si4 0.819042 0.297802 0.951585
Si Si5 0.618375 0.082693 0.858113
Si Si6 0.443851 0.174782 0.871019
Si Si7 0.101781 0.019151 0.851567
O O1 0.762251 0.582302 0.442862
O O2 0.721630 0.334411 0.449528
O O3 0.796608 0.419952 0.386089
O O4 0.640949 0.484434 0.397750
O O5 0.126644 0.807798 0.253857
O O6 0.266869 0.762028 0.300847
O O7 0.133397 0.639421 0.311814
O O8 0.130243 0.851478 0.337871
O O9 0.924649 0.757385 0.330381
O O10 0.851031 0.940764 0.314994
O O11 0.888625 0.295157 0.913118
O O12 0.854308 0.312348 0.000000
O O13 0.542878 0.155549 0.881256
O O14 0.588679 0.950534 0.854877
O O15 0.000000 0.000000 0.850344
#
# Coordination Sequence:
#
# PCOD9527345 Si02
#       7
#    16  16  16  16  16  16  16
#     4  11  22  43  68  94 126 170 214 261 335 395
#     4  11  23  37  60  88 129 170 217 259 312 372
#     4  11  23  39  58  91 127 170 214 266 310 383
#     4  11  23  42  68  96 129 163 213 271 330 403
#     4  10  20  38  63  87 121 163 205 259 313 390
#     4  10  21  38  61  89 120 159 207 260 326 379
#     4  12  24  40  64  92 128 172 219 266 319 388
#
# _framework density 20.296713
#
# number of rings (size 3 to 8) (size 9 to 14) (size 15 to 20)
#    0.000    1.143    2.857    4.286    0.000    3.429 
#    0.000    7.857    0.000    0.857    0.000    0.000 
#    0.000    0.000    0.000    0.000    0.000    0.000 
#
# Total GULP energy -312166.908526 kJ/mol
# GULP energy per Si atom -5574.409081 kJ/mol
# Density = 2.025052 g / cm^3
# Si number density = 20.296713 Si / 1000 Ang^3
#
#
#
# Elastic Constant Matrix: (Units=GPa)
#
#
# Indices 1 2 3 4 5 6 
#
# 1 67.0393 16.0886 -1.2605 0.0000 0.0000 0.0000
# 2 16.0886 106.0348 37.0399 0.0000 0.0000 0.0000
# 3 -1.2605 37.0399 57.9210 0.0000 0.0000 0.0000
# 4 0.0000 0.0000 0.0000 10.4318 0.0000 0.0000
# 5 0.0000 0.0000 0.0000 0.0000 0.6716 0.0000
# 6 0.0000 0.0000 0.0000 0.0000 0.0000 13.3221
#
#
#
# Elastic Compliance Matrix: (Units=1/GPa)
#
#
# Indices 1 2 3 4 5 6 
#
# 1 0.015737 -0.003229 0.002407 0.000000 0.000000 0.000000
# 2 -0.003229 0.012806 -0.008260 0.000000 0.000000 0.000000
# 3 0.002407 -0.008260 0.022599 0.000000 0.000000 0.000000
# 4 0.000000 0.000000 0.000000 0.095860 0.000000 0.000000
# 5 0.000000 0.000000 0.000000 0.000000 1.489085 0.000000
# 6 0.000000 0.000000 0.000000 0.000000 0.000000 0.075063
#
#
# Mechanical properties :
#
#
# Convention : Reuss Voigt Hill
#
# Bulk Modulus (GPa) = 30.32161 37.19237 33.75699
# Shear Modulus (GPa) = 2.87306 16.82690 9.84998
#
# Velocity S-wave (km/s) = 1.19105 2.88244 2.20534
# Velocity P-wave (km/s) = 4.10647 5.42605 4.81171
#
# Compressibility (1/GPa) = 0.03297978
#
# Stress axis : x y z
#
# Youngs Moduli (GPa) = 63.54579 78.08875 44.24942
#
# Poissons Ratio (x) = 0.25211 -0.10651
# Poissons Ratio (y) = 0.20516 0.36548
# Poissons Ratio (z) = -0.15296 0.64498
#
# Static dielectric constant tensor:
#      x y z
#    x 1.750930 0.000000 0.000000 
#    y 0.000000 1.796620 0.000000 
#    z 0.000000 0.000000 1.698120 
# 
# From -- ./inp_files/51788.got.cif
#   From: 2010.05.17/outbox.cif.g08.bks.cpg/sg72_26_cif.got.tgz:51788.got - 2010.06.03 17:03:01.
