data_PCOD9527805
_publ_section_title
;
Structure prediction by ZEFSAII (Michael W. Deem and Ramdas Pophale) SiO2 
 PCOD9527805
Probable space group: I B A M
;
_chemical_formula_sum "Si O2"
_cell_formula_units_Z 112
_cell_length_a 24.485246
_cell_length_b 15.038119
_cell_length_c 14.794795
_cell_angle_alpha 90.000000
_cell_angle_beta 90.000000
_cell_angle_gamma 90.000000
_cell_volume 5447.621694
_symmetry_space_group_name_H-M "I B A M"
_symmetry_group_IT_number 72
_symmetry_cell_setting 'orthorhombic'
loop_
_space_group_symop_operation_xyz
x,y,z
-x,-y,z
x,-y,1/2-z
-x,y,1/2-z
-x,-y,-z
x,y,-z
-x,y,1/2+z
x,-y,1/2+z
1/2+x,1/2+y,1/2+z
1/2-x,1/2-y,1/2+z
1/2+x,1/2-y,-z
1/2-x,1/2+y,-z
1/2-x,1/2-y,1/2-z
1/2+x,1/2+y,1/2-z
1/2-x,1/2+y,z
1/2+x,1/2-y,z
loop_
_atom_site_type_symbol
_atom_site_label
_atom_site_fract_x
_atom_site_fract_y
_atom_site_fract_z
Si Si1 0.047981 0.439824 0.896088
Si Si2 0.332272 0.055168 0.396071
Si Si3 0.761672 0.105928 0.234825
Si Si4 0.692119 0.844577 0.102241
Si Si5 0.040515 0.248563 0.835388
Si Si6 0.527422 0.590020 0.103949
Si Si7 0.375000 0.699648 0.303991
O O1 0.107685 0.441212 0.852635
O O2 0.033129 0.336835 0.892832
O O3 0.000000 0.500000 0.856445
O O4 0.055506 0.471101 0.000000
O O5 0.333225 0.088122 0.500000
O O6 0.286937 0.106475 0.338836
O O7 0.320271 0.949851 0.398648
O O8 0.739740 0.158410 0.322878
O O9 0.818391 0.147703 0.204946
O O10 0.770042 0.000000 0.250000
O O11 0.640761 0.785340 0.135079
O O12 0.707108 0.817744 0.000000
O O13 0.099647 0.232620 0.790983
O O14 0.000000 0.258934 0.750000
O O15 0.019907 0.163480 0.889029
O O16 0.500000 0.500000 0.141271
O O17 0.579263 0.633510 0.154353
O O18 0.543036 0.573608 0.000000
#
# Coordination Sequence:
#
# PCOD9527805 Si02
#       7
#    16  16  16  16  16  16  16
#     4  10  21  37  60  88 122 164 203 250 316 384
#     4   9  20  38  61  89 129 166 206 263 320 378
#     4  10  22  40  64  91 125 167 213 269 325 390
#     4  10  21  39  60  90 126 164 208 263 318 382
#     4  10  23  38  56  88 122 157 204 261 314 377
#     4  10  23  42  63  89 123 164 212 270 329 388
#     4  11  23  38  65  90 122 168 218 264 325 398
#
# _framework density 20.559431
#
# number of rings (size 3 to 8) (size 9 to 14) (size 15 to 20)
#    0.000    2.000    0.000    2.143    6.000    3.429 
#    0.000    2.857    0.000    0.000    0.000    0.000 
#    0.000    0.000    0.000    0.000    0.000    0.000 
#
# Total GULP energy -312432.554133 kJ/mol
# GULP energy per Si atom -5579.152752 kJ/mol
# Density = 2.051264 g / cm^3
# Si number density = 20.559431 Si / 1000 Ang^3
#
#
#
# Elastic Constant Matrix: (Units=GPa)
#
#
# Indices 1 2 3 4 5 6 
#
# 1 143.3474 50.7606 47.7200 0.0000 0.0000 0.0000
# 2 50.7606 87.6590 26.9994 0.0000 0.0000 0.0000
# 3 47.7200 26.9994 74.9036 0.0000 0.0000 0.0000
# 4 0.0000 0.0000 0.0000 16.1323 0.0000 0.0000
# 5 0.0000 0.0000 0.0000 0.0000 22.1923 0.0000
# 6 0.0000 0.0000 0.0000 0.0000 0.0000 31.9447
#
#
#
# Elastic Compliance Matrix: (Units=1/GPa)
#
#
# Indices 1 2 3 4 5 6 
#
# 1 0.010153 -0.004372 -0.004892 0.000000 0.000000 0.000000
# 2 -0.004372 0.014716 -0.002519 0.000000 0.000000 0.000000
# 3 -0.004892 -0.002519 0.017375 0.000000 0.000000 0.000000
# 4 0.000000 0.000000 0.000000 0.061987 0.000000 0.000000
# 5 0.000000 0.000000 0.000000 0.000000 0.045061 0.000000
# 6 0.000000 0.000000 0.000000 0.000000 0.000000 0.031304
#
#
# Mechanical properties :
#
#
# Convention : Reuss Voigt Hill
#
# Bulk Modulus (GPa) = 53.54195 61.87444 57.70820
# Shear Modulus (GPa) = 23.76556 26.08251 24.92403
#
# Velocity S-wave (km/s) = 3.40361 3.56566 3.48558
# Velocity P-wave (km/s) = 6.44555 6.86387 6.65799
#
# Compressibility (1/GPa) = 0.01867694
#
# Stress axis : x y z
#
# Youngs Moduli (GPa) = 98.49298 67.95528 57.55348
#
# Poissons Ratio (x) = 0.29713 0.28157
# Poissons Ratio (y) = 0.43066 0.14496
# Poissons Ratio (z) = 0.48185 0.17116
#
# Static dielectric constant tensor:
#      x y z
#    x 1.735090 0.000000 0.000000 
#    y 0.000000 1.748530 0.000000 
#    z 0.000000 0.000000 1.774990 
# 
# From -- ./inp_files/25181.got.cif
#   From: 2010.05.17/outbox.cif.g08.bks.cpg/sg72_13_cif.got.tgz:25181.got - 2010.06.03 17:03:01.
