data_PCOD9527546
_publ_section_title
;
Structure prediction by ZEFSAII (Michael W. Deem and Ramdas Pophale) SiO2 
 PCOD9527546
Probable space group: I B A M
;
_chemical_formula_sum "Si O2"
_cell_formula_units_Z 96
_cell_length_a 25.468700
_cell_length_b 14.030755
_cell_length_c 13.466320
_cell_angle_alpha 90.000000
_cell_angle_beta 90.000000
_cell_angle_gamma 90.000000
_cell_volume 4812.123331
_symmetry_space_group_name_H-M "I B A M"
_symmetry_group_IT_number 72
_symmetry_cell_setting 'orthorhombic'
loop_
_space_group_symop_operation_xyz
x,y,z
-x,-y,z
x,-y,1/2-z
-x,y,1/2-z
-x,-y,-z
x,y,-z
-x,y,1/2+z
x,-y,1/2+z
1/2+x,1/2+y,1/2+z
1/2-x,1/2-y,1/2+z
1/2+x,1/2-y,-z
1/2-x,1/2+y,-z
1/2-x,1/2-y,1/2-z
1/2+x,1/2+y,1/2-z
1/2-x,1/2+y,z
1/2+x,1/2-y,z
loop_
_atom_site_type_symbol
_atom_site_label
_atom_site_fract_x
_atom_site_fract_y
_atom_site_fract_z
Si Si1 0.228479 0.846664 0.880647
Si Si2 0.036129 0.593135 0.610777
Si Si3 0.911634 0.840380 0.206838
Si Si4 0.121259 0.500000 0.750000
Si Si5 0.985168 0.792916 0.613080
Si Si6 0.831266 0.000000 0.750000
Si Si7 0.328483 0.812961 0.745975
O O1 0.285584 0.831447 0.831545
O O2 0.194966 0.756930 0.838185
O O3 0.203206 0.940209 0.828488
O O4 0.228753 0.851318 0.000000
O O5 0.054759 0.617352 0.500000
O O6 0.084045 0.557987 0.676290
O O7 0.000000 0.500000 0.607794
O O8 0.000054 0.683254 0.640673
O O9 0.942794 0.836393 0.312058
O O10 0.870328 0.924898 0.198439
O O11 0.877260 0.744552 0.206943
O O12 0.958639 0.843754 0.128168
O O13 0.155539 0.584326 0.797375
O O14 0.967133 0.796163 0.500000
#
# Coordination Sequence:
#
# PCOD9527546 Si02
#       7
#    16  16  16   8  16   8  16
#     4  10  23  45  68  91 127 167 213 277 335 391
#     4  10  21  33  51  82 119 160 201 239 293 365
#     4  10  21  39  61  89 127 169 202 265 313 370
#     4  12  20  34  62  87 125 158 196 252 314 372
#     4  10  21  37  57  88 126 169 214 254 308 379
#     4  10  23  43  66  95 125 161 224 269 328 388
#     4  10  22  39  63  96 126 163 213 259 326 402
#
# _framework density 19.949614
#
# number of rings (size 3 to 8) (size 9 to 14) (size 15 to 20)
#    0.000    1.833    1.667    1.750    2.333    6.667 
#    0.000   12.500    0.000    0.000    0.000    0.000 
#    0.000    0.000    0.000    0.000    0.000    0.000 
#
# Total GULP energy -267768.201792 kJ/mol
# GULP energy per Si atom -5578.504204 kJ/mol
# Density = 1.990421 g / cm^3
# Si number density = 19.949614 Si / 1000 Ang^3
#
#
#
# Elastic Constant Matrix: (Units=GPa)
#
#
# Indices 1 2 3 4 5 6 
#
# 1 94.4277 30.5606 30.1458 0.0000 0.0000 0.0000
# 2 30.5606 93.0953 30.2905 0.0000 0.0000 0.0000
# 3 30.1458 30.2905 123.2855 0.0000 0.0000 0.0000
# 4 0.0000 0.0000 0.0000 -21.8034 0.0000 0.0000
# 5 0.0000 0.0000 0.0000 0.0000 49.6970 0.0000
# 6 0.0000 0.0000 0.0000 0.0000 0.0000 29.2707
#
#
#
# Elastic Compliance Matrix: (Units=1/GPa)
#
#
# Indices 1 2 3 4 5 6 
#
# 1 0.012377 -0.003346 -0.002204 0.000000 0.000000 0.000000
# 2 -0.003346 0.012579 -0.002273 0.000000 0.000000 0.000000
# 3 -0.002204 -0.002273 0.009209 0.000000 0.000000 0.000000
# 4 0.000000 0.000000 0.000000 -0.045864 0.000000 0.000000
# 5 0.000000 0.000000 0.000000 0.000000 0.020122 0.000000
# 6 0.000000 0.000000 0.000000 0.000000 0.000000 0.034164
#
#
# Mechanical properties :
#
#
# Convention : Reuss Voigt Hill
#
# Bulk Modulus (GPa) = 53.99726 54.75581 54.37654
# Shear Modulus (GPa) = 77.63460 26.08699 51.86079
#
# Velocity S-wave (km/s) = 6.24498 3.62006 5.10415
# Velocity P-wave (km/s) = 8.89524 6.70669 7.87734
#
# Compressibility (1/GPa) = 0.01851946
#
# Stress axis : x y z
#
# Youngs Moduli (GPa) = 80.79745 79.49502 108.59390
#
# Poissons Ratio (x) = 0.26596 0.23938
# Poissons Ratio (y) = 0.27032 0.24679
# Poissons Ratio (z) = 0.17810 0.18066
#
# Static dielectric constant tensor:
#      x y z
#    x 1.776860 0.000000 0.000000 
#    y 0.000000 1.763760 0.000000 
#    z 0.000000 0.000000 1.703590 
# 
# From -- ./inp_files/25141.got.cif
#   From: 2010.05.17/outbox.cif.g08.bks.cpg/sg72_13_cif.got.tgz:25141.got - 2010.06.03 17:03:01.
