data_PCOD9527027
_publ_section_title
;
Structure prediction by ZEFSAII (Michael W. Deem and Ramdas Pophale) SiO2 
 PCOD9527027
Probable space group: I B A M
;
_chemical_formula_sum "Si O2"
_cell_formula_units_Z 96
_cell_length_a 24.508496
_cell_length_b 22.129842
_cell_length_c 8.596787
_cell_angle_alpha 90.000000
_cell_angle_beta 90.000000
_cell_angle_gamma 90.000000
_cell_volume 4662.632008
_symmetry_space_group_name_H-M "I B A M"
_symmetry_group_IT_number 72
_symmetry_cell_setting 'orthorhombic'
loop_
_space_group_symop_operation_xyz
x,y,z
-x,-y,z
x,-y,1/2-z
-x,y,1/2-z
-x,-y,-z
x,y,-z
-x,y,1/2+z
x,-y,1/2+z
1/2+x,1/2+y,1/2+z
1/2-x,1/2-y,1/2+z
1/2+x,1/2-y,-z
1/2-x,1/2+y,-z
1/2-x,1/2-y,1/2-z
1/2+x,1/2+y,1/2-z
1/2-x,1/2+y,z
1/2+x,1/2-y,z
loop_
_atom_site_type_symbol
_atom_site_label
_atom_site_fract_x
_atom_site_fract_y
_atom_site_fract_z
Si Si1 0.941575 0.192279 0.186376
Si Si2 0.714840 0.614242 0.312371
Si Si3 0.332298 0.743454 0.815829
Si Si4 0.104617 0.937828 0.183839
Si Si5 0.332821 0.125845 0.815974
Si Si6 0.557767 0.931780 0.684936
O O1 0.894739 0.226730 0.279285
O O2 0.930975 0.121287 0.219799
O O3 0.000000 0.210443 0.250000
O O4 0.936414 0.201664 0.000000
O O5 0.713362 0.613309 0.500000
O O6 0.701104 0.683744 0.265194
O O7 0.665141 0.574601 0.250339
O O8 0.775721 0.595447 0.262755
O O9 0.322205 0.803759 0.719513
O O10 0.323681 0.753545 0.000000
O O11 0.082104 0.000000 0.250000
O O12 0.108941 0.942711 0.000000
O O13 0.388069 0.104124 0.734705
O O14 0.339277 0.116238 0.000000
O O15 0.500000 0.907026 0.750000
O O16 0.554132 0.933878 0.500000
O O17 0.563044 0.000000 0.750000
#
# Coordination Sequence:
#
# PCOD9527027 Si02
#       6
#    16  16  16  16  16  16
#     4  10  21  37  56  80 109 146 187 232 281 331
#     4   9  20  37  57  81 114 150 185 227 277 327
#     4  10  20  36  57  83 114 149 185 228 278 328
#     4  10  21  36  56  80 110 146 187 232 280 330
#     4  11  22  37  59  88 116 147 186 226 269 328
#     4  11  23  42  64  86 113 146 182 226 277 329
#
# _framework density 20.589230000000001
#
# number of rings (size 3 to 8) (size 9 to 14) (size 15 to 20)
#    0.000    1.833    0.000    4.500    0.000    5.667 
#    0.000    5.000    0.000    0.000    0.000    0.000 
#    0.000    0.000    0.000    0.000    0.000    0.000 
#
# Total GULP energy -268166.172930 kJ/mol
# GULP energy per Si atom -5586.795269 kJ/mol
# Density = 2.054237 g / cm^3
# Si number density = 20.589230 Si / 1000 Ang^3
#
#
#
# Elastic Constant Matrix: (Units=GPa)
#
#
# Indices 1 2 3 4 5 6 
#
# 1 120.6798 -12.1356 18.8500 0.0000 0.0000 0.0000
# 2 -12.1356 14.0458 -6.0673 0.0000 0.0000 0.0000
# 3 18.8500 -6.0673 53.3573 0.0000 0.0000 0.0000
# 4 0.0000 0.0000 0.0000 33.8575 0.0000 0.0000
# 5 0.0000 0.0000 0.0000 0.0000 285.2559 0.0000
# 6 0.0000 0.0000 0.0000 0.0000 0.0000 -6.5342
#
#
#
# Elastic Compliance Matrix: (Units=1/GPa)
#
#
# Indices 1 2 3 4 5 6 
#
# 1 0.009386 0.007022 -0.002517 0.000000 0.000000 0.000000
# 2 0.007022 0.080127 0.006631 0.000000 0.000000 0.000000
# 3 -0.002517 0.006631 0.020385 0.000000 0.000000 0.000000
# 4 0.000000 0.000000 0.000000 0.029536 0.000000 0.000000
# 5 0.000000 0.000000 0.000000 0.000000 0.003506 0.000000
# 6 0.000000 0.000000 0.000000 0.000000 0.000000 -0.153040
#
#
# Mechanical properties :
#
#
# Convention : Reuss Voigt Hill
#
# Bulk Modulus (GPa) = 7.56612 21.04188 14.30400
# Shear Modulus (GPa) = 427.93748 75.01157 251.47452
#
# Velocity S-wave (km/s) = 14.43248 6.04248 11.06364
# Velocity P-wave (km/s) = 16.77532 7.67620 13.04484
#
# Compressibility (1/GPa) = 0.13216820
#
# Stress axis : x y z
#
# Youngs Moduli (GPa) = 106.54480 12.48018 49.05604
#
# Poissons Ratio (x) = -0.08763 0.12349
# Poissons Ratio (y) = -0.74815 -0.32527
# Poissons Ratio (z) = 0.26821 -0.08275
#
# Static dielectric constant tensor:
#      x y z
#    x 1.770860 0.000000 0.000000 
#    y 0.000000 1.771270 0.000000 
#    z 0.000000 0.000000 1.693200 
# 
# From -- ./inp_files/6951.got.cif
#   From: 2010.05.17/outbox.cif.g08.bks.cpg/sg72_4_cif.got.tgz:6951.got - 2010.06.03 17:03:01.
