data_PCOD9527882
_publ_section_title
;
Structure prediction by ZEFSAII (Michael W. Deem and Ramdas Pophale) SiO2 
 PCOD9527882
Probable space group: I B A M
;
_chemical_formula_sum "Si O2"
_cell_formula_units_Z 96
_cell_length_a 12.614596
_cell_length_b 20.895243
_cell_length_c 17.214036
_cell_angle_alpha 90.000000
_cell_angle_beta 90.000000
_cell_angle_gamma 90.000000
_cell_volume 4537.362519
_symmetry_space_group_name_H-M "I B A M"
_symmetry_group_IT_number 72
_symmetry_cell_setting 'orthorhombic'
loop_
_space_group_symop_operation_xyz
x,y,z
-x,-y,z
x,-y,1/2-z
-x,y,1/2-z
-x,-y,-z
x,y,-z
-x,y,1/2+z
x,-y,1/2+z
1/2+x,1/2+y,1/2+z
1/2-x,1/2-y,1/2+z
1/2+x,1/2-y,-z
1/2-x,1/2+y,-z
1/2-x,1/2-y,1/2-z
1/2+x,1/2+y,1/2-z
1/2-x,1/2+y,z
1/2+x,1/2-y,z
loop_
_atom_site_type_symbol
_atom_site_label
_atom_site_fract_x
_atom_site_fract_y
_atom_site_fract_z
Si Si1 0.852892 0.818505 0.088317
Si Si2 0.385427 0.122793 0.585230
Si Si3 0.114818 0.653292 0.872228
Si Si4 0.387219 0.531223 0.091858
Si Si5 0.351614 0.782688 0.212347
Si Si6 0.332289 0.993606 0.659319
O O1 0.723292 0.817349 0.093206
O O2 0.886601 0.891953 0.102840
O O3 0.897793 0.772469 0.155607
O O4 0.883396 0.800510 0.000000
O O5 0.337415 0.128600 0.500000
O O6 0.502627 0.153758 0.585122
O O7 0.324021 0.160357 0.652662
O O8 0.389836 0.048990 0.611029
O O9 0.096209 0.685125 0.787981
O O10 0.139064 0.578001 0.864745
O O11 0.500000 0.500000 0.109593
O O12 0.292909 0.500717 0.141529
O O13 0.363959 0.520622 0.000000
O O14 0.250000 0.750000 0.250000
O O15 0.355961 0.000000 0.750000
#
# Coordination Sequence:
#
# PCOD9527882 Si02
#       6
#    16  16  16  16  16  16
#     4   9  18  36  62  88 120 161 206 254 307 362
#     4  12  24  38  62  95 127 158 203 255 304 368
#     4  10  21  38  61  87 126 165 199 244 309 373
#     4   9  19  38  62  88 120 156 202 257 310 363
#     4  10  21  38  59  83 119 166 207 248 299 364
#     4  11  22  37  61  88 124 161 200 249 310 370
#
# _framework density 21.157665999999999
#
# number of rings (size 3 to 8) (size 9 to 14) (size 15 to 20)
#    0.000    1.833    1.667    2.500    0.000    3.667 
#    0.000    5.000    0.000    2.000    0.000    0.000 
#    0.000    0.000    0.000    0.000    0.000    0.000 
#
# Total GULP energy -267843.823275 kJ/mol
# GULP energy per Si atom -5580.079652 kJ/mol
# Density = 2.110951 g / cm^3
# Si number density = 21.157666 Si / 1000 Ang^3
#
#
#
# Elastic Constant Matrix: (Units=GPa)
#
#
# Indices 1 2 3 4 5 6 
#
# 1 60.6268 21.5364 12.0807 0.0000 0.0000 0.0000
# 2 21.5364 78.5582 37.5460 0.0000 0.0000 0.0000
# 3 12.0807 37.5460 124.5099 0.0001 0.0000 0.0000
# 4 0.0000 0.0000 0.0001 30.9879 0.0000 0.0000
# 5 0.0000 0.0000 0.0000 0.0000 16.0829 0.0000
# 6 0.0000 0.0000 0.0000 0.0000 0.0000 23.5588
#
#
#
# Elastic Compliance Matrix: (Units=1/GPa)
#
#
# Indices 1 2 3 4 5 6 
#
# 1 0.018284 -0.004866 -0.000307 0.000000 0.000000 0.000000
# 2 -0.004866 0.016168 -0.004403 0.000000 0.000000 0.000000
# 3 -0.000307 -0.004403 0.009389 0.000000 0.000000 0.000000
# 4 0.000000 0.000000 0.000000 0.032271 0.000000 0.000000
# 5 0.000000 0.000000 0.000000 0.000000 0.062178 0.000000
# 6 0.000000 0.000000 0.000000 0.000000 0.000000 0.042447
#
#
# Mechanical properties :
#
#
# Convention : Reuss Voigt Hill
#
# Bulk Modulus (GPa) = 40.50367 45.11345 42.80856
# Shear Modulus (GPa) = 24.02486 26.96138 25.49312
#
# Velocity S-wave (km/s) = 3.37340 3.57362 3.47495
# Velocity P-wave (km/s) = 5.86160 6.19649 6.03137
#
# Compressibility (1/GPa) = 0.02468912
#
# Stress axis : x y z
#
# Youngs Moduli (GPa) = 54.69267 61.85100 106.50689
#
# Poissons Ratio (x) = 0.30096 0.03267
# Poissons Ratio (y) = 0.26613 0.46898
# Poissons Ratio (z) = 0.01678 0.27235
#
# Static dielectric constant tensor:
#      x y z
#    x 1.843050 0.000000 0.000000 
#    y 0.000000 1.785500 0.000000 
#    z 0.000000 0.000000 1.767910 
# 
# From -- ./inp_files/21864.got.cif
#   From: 2010.05.17/outbox.cif.g08.bks.cpg/sg72_11_cif.got.tgz:21864.got - 2010.06.03 17:03:01.
