data_PCOD9527502
_publ_section_title
;
Structure prediction by ZEFSAII (Michael W. Deem and Ramdas Pophale) SiO2 
 PCOD9527502
Probable space group: I B A M
;
_chemical_formula_sum "Si O2"
_cell_formula_units_Z 88
_cell_length_a 30.696361
_cell_length_b 7.383489
_cell_length_c 14.654920
_cell_angle_alpha 90.000000
_cell_angle_beta 90.000000
_cell_angle_gamma 90.000000
_cell_volume 3321.482571
_symmetry_space_group_name_H-M "I B A M"
_symmetry_group_IT_number 72
_symmetry_cell_setting 'orthorhombic'
loop_
_space_group_symop_operation_xyz
x,y,z
-x,-y,z
x,-y,1/2-z
-x,y,1/2-z
-x,-y,-z
x,y,-z
-x,y,1/2+z
x,-y,1/2+z
1/2+x,1/2+y,1/2+z
1/2-x,1/2-y,1/2+z
1/2+x,1/2-y,-z
1/2-x,1/2+y,-z
1/2-x,1/2-y,1/2-z
1/2+x,1/2+y,1/2-z
1/2-x,1/2+y,z
1/2+x,1/2-y,z
loop_
_atom_site_type_symbol
_atom_site_label
_atom_site_fract_x
_atom_site_fract_y
_atom_site_fract_z
Si Si1 0.637746 0.864567 0.000000
Si Si2 0.914890 0.796316 0.348739
Si Si3 0.005267 0.705849 0.394416
Si Si4 0.292973 0.296739 0.860082
Si Si5 0.303324 0.273262 0.648100
Si Si6 0.895833 0.801119 0.861574
O O1 0.599590 0.857243 0.081214
O O2 0.674882 0.817298 0.078324
O O3 0.967286 0.812542 0.341660
O O4 0.895962 0.777192 0.247782
O O5 0.896271 0.985781 0.386191
O O6 0.993011 0.729685 0.500000
O O7 0.000000 0.500000 0.364267
O O8 0.056233 0.743948 0.389619
O O9 0.298439 0.228737 0.755696
O O10 0.304224 0.509067 0.859536
O O11 0.242671 0.287679 0.891349
O O12 0.350065 0.214215 0.606278
#
# Coordination Sequence:
#
# PCOD9527502 Si02
#       6
#     8  16  16  16  16  16
#     4  12  20  38  66  94 121 170 207 266 309 366
#     4  11  22  41  69  93 124 164 216 260 308 377
#     4  11  26  44  61  96 134 161 204 262 317 380
#     4  10  21  38  63  85 130 158 209 259 313 358
#     4  10  20  42  58  92 121 165 206 261 302 379
#     4  11  22  42  69  94 121 167 216 257 314 379
#
# _framework density 26.494195000000001
#
# number of rings (size 3 to 8) (size 9 to 14) (size 15 to 20)
#    0.000    1.273    4.545    2.182    1.273    4.364 
#    4.909    1.818    0.000    0.000    0.000    0.000 
#    0.000    0.000    0.000    0.000    0.000    0.000 
#
# Total GULP energy -245363.294970 kJ/mol
# GULP energy per Si atom -5576.438522 kJ/mol
# Density = 2.643389 g / cm^3
# Si number density = 26.494195 Si / 1000 Ang^3
#
#
#
# Elastic Constant Matrix: (Units=GPa)
#
#
# Indices 1 2 3 4 5 6 
#
# 1 285.9576 21.7738 8.1162 0.0000 0.0000 0.0000
# 2 21.7738 52.7401 -16.6696 0.0000 0.0000 0.0000
# 3 8.1162 -16.6696 91.9435 0.0000 0.0000 0.0000
# 4 0.0000 0.0000 0.0000 11.1427 0.0000 0.0000
# 5 0.0000 0.0000 0.0000 0.0000 47.2651 0.0000
# 6 0.0000 0.0000 0.0000 0.0000 0.0000 57.2308
#
#
#
# Elastic Compliance Matrix: (Units=1/GPa)
#
#
# Indices 1 2 3 4 5 6 
#
# 1 0.003645 -0.001704 -0.000631 0.000000 0.000000 0.000000
# 2 -0.001704 0.020910 0.003942 0.000000 0.000000 0.000000
# 3 -0.000631 0.003942 0.011647 0.000000 0.000000 0.000000
# 4 0.000000 0.000000 0.000000 0.089745 0.000000 0.000000
# 5 0.000000 0.000000 0.000000 0.000000 0.021157 0.000000
# 6 0.000000 0.000000 0.000000 0.000000 0.000000 0.017473
#
#
# Mechanical properties :
#
#
# Convention : Reuss Voigt Hill
#
# Bulk Modulus (GPa) = 25.37105 50.78687 38.07896
# Shear Modulus (GPa) = 28.65309 50.95578 39.80443
#
# Velocity S-wave (km/s) = 3.29216 4.39028 3.88026
# Velocity P-wave (km/s) = 4.90387 6.70150 5.87188
#
# Compressibility (1/GPa) = 0.03941500
#
# Stress axis : x y z
#
# Youngs Moduli (GPa) = 274.37297 47.82349 85.86250
#
# Poissons Ratio (x) = 0.08149 0.05415
# Poissons Ratio (y) = 0.46754 -0.33843
# Poissons Ratio (z) = 0.17304 -0.18850
#
# Static dielectric constant tensor:
#      x y z
#    x 2.088090 0.000000 0.000000 
#    y 0.000000 2.139130 0.000000 
#    z 0.000000 0.000000 2.071570 
# 
# From -- ./inp_files/34239.got.cif
#   From: 2010.05.17/outbox.cif.g08.bks.cpg/sg72_18_cif.got.tgz:34239.got - 2010.06.03 17:03:01.
