data_PCOD9527040
_publ_section_title
;
Structure prediction by ZEFSAII (Michael W. Deem and Ramdas Pophale) SiO2 
 PCOD9527040
Probable space group: I B A M
;
_chemical_formula_sum "Si O2"
_cell_formula_units_Z 64
_cell_length_a 11.859056
_cell_length_b 18.870190
_cell_length_c 11.912703
_cell_angle_alpha 90.000000
_cell_angle_beta 90.000000
_cell_angle_gamma 90.000000
_cell_volume 2665.856126
_symmetry_space_group_name_H-M "I B A M"
_symmetry_group_IT_number 72
_symmetry_cell_setting 'orthorhombic'
loop_
_space_group_symop_operation_xyz
x,y,z
-x,-y,z
x,-y,1/2-z
-x,y,1/2-z
-x,-y,-z
x,y,-z
-x,y,1/2+z
x,-y,1/2+z
1/2+x,1/2+y,1/2+z
1/2-x,1/2-y,1/2+z
1/2+x,1/2-y,-z
1/2-x,1/2+y,-z
1/2-x,1/2-y,1/2-z
1/2+x,1/2+y,1/2-z
1/2-x,1/2+y,z
1/2+x,1/2-y,z
loop_
_atom_site_type_symbol
_atom_site_label
_atom_site_fract_x
_atom_site_fract_y
_atom_site_fract_z
Si Si1 0.879795 0.657684 0.807541
Si Si2 0.757081 0.965964 0.624542
Si Si3 0.743327 0.779873 0.116896
Si Si4 0.056731 0.845227 0.125725
O O1 0.848948 0.588640 0.876037
O O2 0.854559 0.731474 0.871208
O O3 0.783748 0.664619 0.711840
O O4 0.000000 0.655082 0.750000
O O5 0.756257 0.002899 0.500000
O O6 0.867767 0.916241 0.624455
O O7 0.752535 0.000000 0.750000
O O8 0.641267 0.722595 0.121221
O O9 0.740198 0.817266 0.000000
O O10 0.000000 0.843496 0.250000
O O11 0.999170 0.845552 0.000000
#
# Coordination Sequence:
#
# PCOD9527040 Si02
#       4
#    16  16  16  16
#     4  10  20  36  58  83 112 149 189 233 284 338
#     4  10  23  42  59  80 115 154 196 245 289 335
#     4   9  19  35  55  84 120 150 182 229 284 345
#     4   9  18  35  59  87 119 153 189 234 288 343
#
# _framework density 24.007297000000001
#
# number of rings (size 3 to 8) (size 9 to 14) (size 15 to 20)
#    0.000    2.500    0.000    3.000    0.000    5.000 
#    0.000   20.000    0.000    0.000    0.000    0.000 
#    0.000    0.000    0.000    0.000    0.000    0.000 
#
# Total GULP energy -178177.158016 kJ/mol
# GULP energy per Si atom -5568.036188 kJ/mol
# Density = 2.395266 g / cm^3
# Si number density = 24.007297 Si / 1000 Ang^3
#
#
#
# Elastic Constant Matrix: (Units=GPa)
#
#
# Indices 1 2 3 4 5 6 
#
# 1 94.3492 12.4781 46.2266 0.0000 0.0000 0.0000
# 2 12.4781 65.8007 47.6977 -0.0002 0.0000 0.0000
# 3 46.2266 47.6977 271.1427 -0.0002 0.0000 0.0000
# 4 0.0000 -0.0002 -0.0002 21.0234 0.0000 0.0000
# 5 0.0000 0.0000 0.0000 0.0000 27.1043 0.0000
# 6 0.0000 0.0000 0.0000 0.0000 0.0000 14.0242
#
#
#
# Elastic Compliance Matrix: (Units=1/GPa)
#
#
# Indices 1 2 3 4 5 6 
#
# 1 0.011609 -0.000879 -0.001825 0.000000 0.000000 0.000000
# 2 -0.000879 0.017485 -0.002926 0.000000 0.000000 0.000000
# 3 -0.001825 -0.002926 0.004514 0.000000 0.000000 0.000000
# 4 0.000000 0.000000 0.000000 0.047566 0.000000 0.000000
# 5 0.000000 0.000000 0.000000 0.000000 0.036895 0.000000
# 6 0.000000 0.000000 0.000000 0.000000 0.000000 0.071305
#
#
# Mechanical properties :
#
#
# Convention : Reuss Voigt Hill
#
# Bulk Modulus (GPa) = 44.74454 71.56637 58.15545
# Shear Modulus (GPa) = 24.02890 34.08973 29.05931
#
# Velocity S-wave (km/s) = 3.16713 3.77234 3.48291
# Velocity P-wave (km/s) = 5.66151 6.98921 6.36010
#
# Compressibility (1/GPa) = 0.02234910
#
# Stress axis : x y z
#
# Youngs Moduli (GPa) = 86.13914 57.19158 221.53811
#
# Poissons Ratio (x) = 0.05026 0.40422
# Poissons Ratio (y) = 0.07571 0.64823
# Poissons Ratio (z) = 0.15717 0.16734
#
# Static dielectric constant tensor:
#      x y z
#    x 1.963130 0.000000 0.000000 
#    y 0.000000 1.902490 0.000000 
#    z 0.000000 0.000000 2.608290 
# 
# From -- ./inp_files/11156.got.cif
#   From: 2010.05.17/outbox.cif.g08.bks.cpg/sg72_6_cif.got.tgz:11156.got - 2010.06.03 17:03:01.
