data_PCOD9527281
_publ_section_title
;
Structure prediction by ZEFSAII (Michael W. Deem and Ramdas Pophale) SiO2 
 PCOD9527281
Probable space group: I B A M
;
_chemical_formula_sum "Si O2"
_cell_formula_units_Z 80
_cell_length_a 9.844100
_cell_length_b 24.833502
_cell_length_c 13.278343
_cell_angle_alpha 90.000000
_cell_angle_beta 90.000000
_cell_angle_gamma 90.000000
_cell_volume 3246.069899
_symmetry_space_group_name_H-M "I B A M"
_symmetry_group_IT_number 72
_symmetry_cell_setting 'orthorhombic'
loop_
_space_group_symop_operation_xyz
x,y,z
-x,-y,z
x,-y,1/2-z
-x,y,1/2-z
-x,-y,-z
x,y,-z
-x,y,1/2+z
x,-y,1/2+z
1/2+x,1/2+y,1/2+z
1/2-x,1/2-y,1/2+z
1/2+x,1/2-y,-z
1/2-x,1/2+y,-z
1/2-x,1/2-y,1/2-z
1/2+x,1/2+y,1/2-z
1/2-x,1/2+y,z
1/2+x,1/2-y,z
loop_
_atom_site_type_symbol
_atom_site_label
_atom_site_fract_x
_atom_site_fract_y
_atom_site_fract_z
Si Si1 0.500305 0.590786 0.888233
Si Si2 0.169027 0.803340 0.613932
Si Si3 0.210078 0.424782 0.176524
Si Si4 0.201677 0.457254 0.608227
Si Si5 0.638635 0.187026 0.809278
O O1 0.451811 0.652857 0.877946
O O2 0.624936 0.576627 0.816830
O O3 0.364378 0.554581 0.889629
O O4 0.561246 0.584442 0.000000
O O5 0.227211 0.813078 0.500000
O O6 0.253449 0.811903 0.716660
O O7 0.137221 0.740208 0.622870
O O8 0.151989 0.429215 0.290267
O O9 0.174102 0.479589 0.120715
O O10 0.164508 0.368267 0.132341
O O11 0.151218 0.437755 0.500000
O O12 0.500000 0.186051 0.750000
#
# Coordination Sequence:
#
# PCOD9527281 Si02
#       5
#    16  16  16  16  16
#     4  10  20  37  65  97 127 162 207 265 328 381
#     4  10  24  44  67  93 128 169 212 264 323 386
#     4  11  22  38  64  92 130 165 207 266 325 382
#     4  10  21  37  60  95 128 163 207 259 322 381
#     4  11  26  43  65  93 129 173 218 265 316 384
#
# _framework density 24.645188000000001
#
# number of rings (size 3 to 8) (size 9 to 14) (size 15 to 20)
#    0.000    1.600    2.000    1.800    5.600    5.600 
#    0.000    2.000    0.000    1.200    0.000    0.000 
#    0.000    0.000    0.000    0.000    0.000    0.000 
#
# Total GULP energy -223516.747184 kJ/mol
# GULP energy per Si atom -5587.918680 kJ/mol
# Density = 2.458909 g / cm^3
# Si number density = 24.645188 Si / 1000 Ang^3
#
#
#
# Elastic Constant Matrix: (Units=GPa)
#
#
# Indices 1 2 3 4 5 6 
#
# 1 17.4040 -3.5371 17.0791 0.0000 0.0000 0.0000
# 2 -3.5371 178.3305 21.7449 0.0000 0.0000 0.0000
# 3 17.0791 21.7449 136.7337 0.0003 0.0000 0.0000
# 4 0.0000 0.0000 0.0003 94.1509 0.0000 0.0000
# 5 0.0000 0.0000 0.0000 0.0000 10.8793 0.0000
# 6 0.0000 0.0000 0.0000 0.0000 0.0000 -1.5100
#
#
#
# Elastic Compliance Matrix: (Units=1/GPa)
#
#
# Indices 1 2 3 4 5 6 
#
# 1 0.066458 0.002376 -0.008679 0.000000 0.000000 0.000000
# 2 0.002376 0.005803 -0.001220 0.000000 0.000000 0.000000
# 3 -0.008679 -0.001220 0.008592 0.000000 0.000000 0.000000
# 4 0.000000 0.000000 0.000000 0.010621 0.000000 0.000000
# 5 0.000000 0.000000 0.000000 0.000000 0.091918 0.000000
# 6 0.000000 0.000000 0.000000 0.000000 0.000000 -0.662233
#
#
# Mechanical properties :
#
#
# Convention : Reuss Voigt Hill
#
# Bulk Modulus (GPa) = 15.19569 44.78245 29.98907
# Shear Modulus (GPa) = -11.31580 40.51611 14.60016
#
# Velocity S-wave (km/s) = -2.14510 4.05900 2.43660
# Velocity P-wave (km/s) = 0.20953 6.33858 4.48450
#
# Compressibility (1/GPa) = 0.06580812
#
# Stress axis : x y z
#
# Youngs Moduli (GPa) = 15.04714 172.31178 116.39359
#
# Poissons Ratio (x) = -0.40949 1.01018
# Poissons Ratio (y) = -0.03576 0.14197
# Poissons Ratio (z) = 0.13059 0.21018
#
# Static dielectric constant tensor:
#      x y z
#    x 1.960290 0.000000 0.000000 
#    y 0.000000 1.946960 0.000000 
#    z 0.000000 0.000000 2.034890 
# 
# From -- ./inp_files/20222.got.cif
#   From: 2010.05.17/outbox.cif.g08.bks.cpg/sg72_11_cif.got.tgz:20222.got - 2010.06.03 17:03:01.
