data_PCOD9527666
_publ_section_title
;
Structure prediction by ZEFSAII (Michael W. Deem and Ramdas Pophale) SiO2 
 PCOD9527666
Probable space group: I B A M
;
_chemical_formula_sum "Si O2"
_cell_formula_units_Z 104
_cell_length_a 9.368187
_cell_length_b 27.941873
_cell_length_c 18.646834
_cell_angle_alpha 90.000000
_cell_angle_beta 90.000000
_cell_angle_gamma 90.000000
_cell_volume 4881.082747
_symmetry_space_group_name_H-M "I B A M"
_symmetry_group_IT_number 72
_symmetry_cell_setting 'orthorhombic'
loop_
_space_group_symop_operation_xyz
x,y,z
-x,-y,z
x,-y,1/2-z
-x,y,1/2-z
-x,-y,-z
x,y,-z
-x,y,1/2+z
x,-y,1/2+z
1/2+x,1/2+y,1/2+z
1/2-x,1/2-y,1/2+z
1/2+x,1/2-y,-z
1/2-x,1/2+y,-z
1/2-x,1/2-y,1/2-z
1/2+x,1/2+y,1/2-z
1/2-x,1/2+y,z
1/2+x,1/2-y,z
loop_
_atom_site_type_symbol
_atom_site_label
_atom_site_fract_x
_atom_site_fract_y
_atom_site_fract_z
Si Si1 0.856473 0.474142 0.325687
Si Si2 0.072658 0.218507 0.670889
Si Si3 0.899651 0.671685 0.626910
Si Si4 0.882716 0.066092 0.918850
Si Si5 0.400987 0.639944 0.917195
Si Si6 0.000000 0.387622 0.250000
Si Si7 0.214482 0.666159 0.420921
O O1 0.826208 0.500000 0.250000
O O2 0.713982 0.469968 0.372747
O O3 0.910609 0.421758 0.302249
O O4 0.000000 0.500000 0.357068
O O5 0.095666 0.271835 0.641844
O O6 0.224048 0.193786 0.649038
O O7 0.000000 0.219462 0.750000
O O8 0.968199 0.184599 0.624929
O O9 0.766109 0.648792 0.587311
O O10 0.899637 0.645651 0.703450
O O11 0.046542 0.661145 0.586972
O O12 0.787444 0.114425 0.921524
O O13 0.032338 0.089133 0.890570
O O14 0.901603 0.047933 0.000000
O O15 0.444633 0.642381 0.000000
O O16 0.245288 0.689128 0.500000
#
# Coordination Sequence:
#
# PCOD9527666 Si02
#       7
#    16  16  16  16  16   8  16
#     4   9  19  37  66  98 125 156 204 260 330 395
#     4  11  24  37  55  86 123 173 229 274 329 372
#     4  12  22  35  61  83 124 171 223 273 324 371
#     4   9  18  38  61  89 126 164 207 257 317 387
#     4  10  24  40  58  87 128 173 219 275 327 373
#     4  10  21  36  56  94 126 154 210 282 311 376
#     4  10  22  38  59  84 120 171 222 266 315 381
#
# _framework density 21.306747000000001
#
# number of rings (size 3 to 8) (size 9 to 14) (size 15 to 20)
#    0.000    2.000    2.308    2.769    2.154    5.231 
#    0.000    0.000    0.000    7.385    0.000    8.615 
#    0.000    0.000    0.000    0.308    0.000    0.000 
#
# Total GULP energy -289822.636246 kJ/mol
# GULP energy per Si atom -5573.512235 kJ/mol
# Density = 2.125825 g / cm^3
# Si number density = 21.306747 Si / 1000 Ang^3
#
#
#
# Elastic Constant Matrix: (Units=GPa)
#
#
# Indices 1 2 3 4 5 6 
#
# 1 151.6627 18.9113 36.4016 0.0000 0.0000 0.0000
# 2 18.9113 61.5726 23.5240 0.0000 0.0000 0.0000
# 3 36.4016 23.5240 77.5087 -0.0002 -0.0001 -0.0001
# 4 0.0000 0.0000 -0.0002 20.1923 0.0000 0.0000
# 5 0.0000 0.0000 -0.0001 0.0000 31.7976 0.0000
# 6 0.0000 0.0000 -0.0001 0.0000 0.0000 9.7129
#
#
#
# Elastic Compliance Matrix: (Units=1/GPa)
#
#
# Indices 1 2 3 4 5 6 
#
# 1 0.007495 -0.001083 -0.003191 0.000000 0.000000 0.000000
# 2 -0.001083 0.018528 -0.005115 0.000000 0.000000 0.000000
# 3 -0.003191 -0.005115 0.015953 0.000000 0.000000 0.000000
# 4 0.000000 0.000000 0.000000 0.049524 0.000000 0.000000
# 5 0.000000 0.000000 0.000000 0.000000 0.031449 0.000000
# 6 0.000000 0.000000 0.000000 0.000000 0.000000 0.102956
#
#
# Mechanical properties :
#
#
# Convention : Reuss Voigt Hill
#
# Bulk Modulus (GPa) = 43.10733 49.82416 46.46575
# Shear Modulus (GPa) = 19.80879 26.46770 23.13824
#
# Velocity S-wave (km/s) = 3.05240 3.52834 3.29896
# Velocity P-wave (km/s) = 5.71826 6.32723 6.03044
#
# Compressibility (1/GPa) = 0.02319791
#
# Stress axis : x y z
#
# Youngs Moduli (GPa) = 133.43094 53.97352 62.68486
#
# Poissons Ratio (x) = 0.05843 0.20004
# Poissons Ratio (y) = 0.14446 0.32061
# Poissons Ratio (z) = 0.42580 0.27606
#
# Static dielectric constant tensor:
#      x y z
#    x 1.862350 0.000000 0.000000 
#    y 0.000000 1.772590 0.000000 
#    z 0.000000 0.000000 1.891320 
# 
# From -- ./inp_files/36134.got.cif
#   From: 2010.05.17/outbox.cif.g08.bks.cpg/sg72_19_cif.got.tgz:36134.got - 2010.06.03 17:03:01.
