data_PCOD9527330
_publ_section_title
;
Structure prediction by ZEFSAII (Michael W. Deem and Ramdas Pophale) SiO2 
 PCOD9527330
Probable space group: I B A M
;
_chemical_formula_sum "Si O2"
_cell_formula_units_Z 72
_cell_length_a 13.575817
_cell_length_b 14.816320
_cell_length_c 16.838889
_cell_angle_alpha 90.000000
_cell_angle_beta 90.000000
_cell_angle_gamma 90.000000
_cell_volume 3387.035577
_symmetry_space_group_name_H-M "I B A M"
_symmetry_group_IT_number 72
_symmetry_cell_setting 'orthorhombic'
loop_
_space_group_symop_operation_xyz
x,y,z
-x,-y,z
x,-y,1/2-z
-x,y,1/2-z
-x,-y,-z
x,y,-z
-x,y,1/2+z
x,-y,1/2+z
1/2+x,1/2+y,1/2+z
1/2-x,1/2-y,1/2+z
1/2+x,1/2-y,-z
1/2-x,1/2+y,-z
1/2-x,1/2-y,1/2-z
1/2+x,1/2+y,1/2-z
1/2-x,1/2+y,z
1/2+x,1/2-y,z
loop_
_atom_site_type_symbol
_atom_site_label
_atom_site_fract_x
_atom_site_fract_y
_atom_site_fract_z
Si Si1 0.153116 0.500000 0.250000
Si Si2 0.675582 0.689928 0.589242
Si Si3 0.887749 0.596952 0.591516
Si Si4 0.980815 0.769903 0.662730
Si Si5 0.768709 0.170253 0.185558
O O1 0.098937 0.465141 0.330371
O O2 0.220918 0.581229 0.281247
O O3 0.642056 0.681333 0.500000
O O4 0.772883 0.629040 0.598725
O O5 0.578956 0.675778 0.641541
O O6 0.712035 0.791187 0.609160
O O7 0.901437 0.563980 0.500000
O O8 0.953861 0.686762 0.605177
O O9 0.884069 0.831619 0.667470
O O10 0.000000 0.729207 0.750000
O O11 0.750000 0.250000 0.250000
#
# Coordination Sequence:
#
# PCOD9527330 Si02
#       5
#     8  16  16  16  16
#     4  12  20  40  64  86 128 158 194 252 294 354
#     4  10  20  38  62  88 119 154 200 253 294 351
#     4  10  22  38  59  90 121 157 203 247 298 358
#     4  11  18  36  63  86 118 158 202 242 299 356
#     4  11  21  39  60  89 114 160 202 235 300 358
#
# _framework density 21.257527
#
# number of rings (size 3 to 8) (size 9 to 14) (size 15 to 20)
#    0.000    1.333    6.667    0.667    0.000    1.778 
#    0.000   10.000    0.000    9.333    0.000    0.000 
#    0.000    0.000    0.000    0.000    0.000    0.000 
#
# Total GULP energy -200818.091851 kJ/mol
# GULP energy per Si atom -5578.280329 kJ/mol
# Density = 2.120914 g / cm^3
# Si number density = 21.257527 Si / 1000 Ang^3
#
#
#
# Elastic Constant Matrix: (Units=GPa)
#
#
# Indices 1 2 3 4 5 6 
#
# 1 127.0148 10.8130 11.3016 0.0000 0.0000 0.0000
# 2 10.8130 73.4520 15.1337 0.0000 0.0000 0.0000
# 3 11.3016 15.1337 134.6906 0.0000 0.0000 0.0000
# 4 0.0000 0.0000 0.0000 20.3230 0.0000 0.0000
# 5 0.0000 0.0000 0.0000 0.0000 22.1619 0.0000
# 6 0.0000 0.0000 0.0000 0.0000 0.0000 10.9165
#
#
#
# Elastic Compliance Matrix: (Units=1/GPa)
#
#
# Indices 1 2 3 4 5 6 
#
# 1 0.008013 -0.001066 -0.000553 0.000000 0.000000 0.000000
# 2 -0.001066 0.014079 -0.001492 0.000000 0.000000 0.000000
# 3 -0.000553 -0.001492 0.007638 0.000000 0.000000 0.000000
# 4 0.000000 0.000000 0.000000 0.049205 0.000000 0.000000
# 5 0.000000 0.000000 0.000000 0.000000 0.045123 0.000000
# 6 0.000000 0.000000 0.000000 0.000000 0.000000 0.091605
#
#
# Mechanical properties :
#
#
# Convention : Reuss Voigt Hill
#
# Bulk Modulus (GPa) = 42.53764 45.51711 44.02738
# Shear Modulus (GPa) = 21.76557 30.54087 26.15322
#
# Velocity S-wave (km/s) = 3.20331 3.79451 3.51137
# Velocity P-wave (km/s) = 5.80824 6.37624 6.09886
#
# Compressibility (1/GPa) = 0.02350859
#
# Stress axis : x y z
#
# Youngs Moduli (GPa) = 124.79722 71.02921 130.91605
#
# Poissons Ratio (x) = 0.07570 0.07235
# Poissons Ratio (y) = 0.13300 0.19538
# Poissons Ratio (z) = 0.06896 0.10601
#
# Static dielectric constant tensor:
#      x y z
#    x 1.782920 0.000000 0.000000 
#    y 0.000000 1.740130 0.000000 
#    z 0.000000 0.000000 1.888870 
# 
# From -- ./inp_files/30285.got.cif
#   From: 2010.05.17/outbox.cif.g08.bks.cpg/sg72_16_cif.got.tgz:30285.got - 2010.06.03 17:03:01.
