data_PCOD9527452
_publ_section_title
;
Structure prediction by ZEFSAII (Michael W. Deem and Ramdas Pophale) SiO2 
 PCOD9527452
Probable space group: I B A M
;
_chemical_formula_sum "Si O2"
_cell_formula_units_Z 68
_cell_length_a 20.002513
_cell_length_b 8.037820
_cell_length_c 17.164922
_cell_angle_alpha 90.000000
_cell_angle_beta 90.000000
_cell_angle_gamma 90.000000
_cell_volume 2759.717782
_symmetry_space_group_name_H-M "I B A M"
_symmetry_group_IT_number 72
_symmetry_cell_setting 'orthorhombic'
loop_
_space_group_symop_operation_xyz
x,y,z
-x,-y,z
x,-y,1/2-z
-x,y,1/2-z
-x,-y,-z
x,y,-z
-x,y,1/2+z
x,-y,1/2+z
1/2+x,1/2+y,1/2+z
1/2-x,1/2-y,1/2+z
1/2+x,1/2-y,-z
1/2-x,1/2+y,-z
1/2-x,1/2-y,1/2-z
1/2+x,1/2+y,1/2-z
1/2-x,1/2+y,z
1/2+x,1/2-y,z
loop_
_atom_site_type_symbol
_atom_site_label
_atom_site_fract_x
_atom_site_fract_y
_atom_site_fract_z
Si Si1 0.279999 0.694334 0.910304
Si Si2 0.454002 0.746544 0.369767
Si Si3 0.085525 0.615954 0.589755
Si Si4 0.500000 0.500000 0.500000
Si Si5 0.675250 0.388296 0.323053
O O1 0.339152 0.828356 0.897584
O O2 0.314238 0.517705 0.893964
O O3 0.222191 0.736898 0.849231
O O4 0.257015 0.701689 0.000000
O O5 0.531200 0.796927 0.354149
O O6 0.459194 0.602607 0.432671
O O7 0.399355 0.679707 0.309876
O O8 0.424720 0.919748 0.403455
O O9 0.068282 0.671270 0.500000
O O10 0.695262 0.500000 0.250000
#
# Coordination Sequence:
#
# PCOD9527452 Si02
#       5
#    16  16  16   4  16
#     4  11  25  42  73 102 137 187 256 305 359 441
#     4  11  22  37  68  99 140 183 236 298 375 438
#     4  10  20  40  64 106 139 174 234 316 369 411
#     4  12  20  34  66 104 136 174 238 308 360 410
#     4  12  27  46  68 103 153 197 237 307 390 453
#
# _framework density 24.640201000000001
#
# number of rings (size 3 to 8) (size 9 to 14) (size 15 to 20)
#    0.000    0.941    2.353    4.941    6.588    1.882 
#    0.000    5.294    0.000    5.647    0.000    0.000 
#    0.000    0.000    0.000    0.000    0.000    0.000 
#
# Total GULP energy -189597.552411 kJ/mol
# GULP energy per Si atom -5576.398600 kJ/mol
# Density = 2.458412 g / cm^3
# Si number density = 24.640201 Si / 1000 Ang^3
#
#
#
# Elastic Constant Matrix: (Units=GPa)
#
#
# Indices 1 2 3 4 5 6 
#
# 1 88.9389 39.7281 48.8332 0.0000 0.0000 0.0000
# 2 39.7281 69.5191 22.6850 0.0000 0.0000 0.0000
# 3 48.8332 22.6850 66.7088 0.0000 0.0000 0.0000
# 4 0.0000 0.0000 0.0000 264.2878 0.0000 0.0000
# 5 0.0000 0.0000 0.0000 0.0000 13.8356 0.0000
# 6 0.0000 0.0000 0.0000 0.0000 0.0000 46.5346
#
#
#
# Elastic Compliance Matrix: (Units=1/GPa)
#
#
# Indices 1 2 3 4 5 6 
#
# 1 0.022451 -0.008399 -0.013579 0.000000 0.000000 0.000000
# 2 -0.008399 0.019322 -0.000422 0.000000 0.000000 0.000000
# 3 -0.013579 -0.000422 0.025074 0.000000 0.000000 0.000000
# 4 0.000000 0.000000 0.000000 0.003784 0.000000 0.000000
# 5 0.000000 0.000000 0.000000 0.000000 0.072278 0.000000
# 6 0.000000 0.000000 0.000000 0.000000 0.000000 0.021489
#
#
# Mechanical properties :
#
#
# Convention : Reuss Voigt Hill
#
# Bulk Modulus (GPa) = 45.35722 49.73992 47.54857
# Shear Modulus (GPa) = 23.08960 72.52629 47.80794
#
# Velocity S-wave (km/s) = 3.06448 5.43121 4.40960
# Velocity P-wave (km/s) = 5.56499 7.71758 6.72793
#
# Compressibility (1/GPa) = 0.02204721
#
# Stress axis : x y z
#
# Youngs Moduli (GPa) = 44.54110 51.75396 39.88157
#
# Poissons Ratio (x) = 0.43469 0.54154
# Poissons Ratio (y) = 0.37411 0.01684
# Poissons Ratio (z) = 0.60481 0.02185
#
# Static dielectric constant tensor:
#      x y z
#    x 2.032990 0.000000 0.000000 
#    y 0.000000 2.020110 0.000000 
#    z 0.000000 0.000000 2.016710 
# 
# From -- ./inp_files/32301.got.cif
#   From: 2010.05.17/outbox.cif.g08.bks.cpg/sg72_17_cif.got.tgz:32301.got - 2010.06.03 17:03:01.
