data_PCOD9527003
_publ_section_title
;
Structure prediction by ZEFSAII (Michael W. Deem and Ramdas Pophale) SiO2 
 PCOD9527003
Probable space group: I B A M
;
_chemical_formula_sum "Si O2"
_cell_formula_units_Z 80
_cell_length_a 27.347353
_cell_length_b 18.972113
_cell_length_c 8.643541
_cell_angle_alpha 90.000000
_cell_angle_beta 90.000000
_cell_angle_gamma 90.000000
_cell_volume 4484.589499
_symmetry_space_group_name_H-M "I B A M"
_symmetry_group_IT_number 72
_symmetry_cell_setting 'orthorhombic'
loop_
_space_group_symop_operation_xyz
x,y,z
-x,-y,z
x,-y,1/2-z
-x,y,1/2-z
-x,-y,-z
x,y,-z
-x,y,1/2+z
x,-y,1/2+z
1/2+x,1/2+y,1/2+z
1/2-x,1/2-y,1/2+z
1/2+x,1/2-y,-z
1/2-x,1/2+y,-z
1/2-x,1/2-y,1/2-z
1/2+x,1/2+y,1/2-z
1/2-x,1/2+y,z
1/2+x,1/2-y,z
loop_
_atom_site_type_symbol
_atom_site_label
_atom_site_fract_x
_atom_site_fract_y
_atom_site_fract_z
Si Si1 0.700248 0.282781 0.185250
Si Si2 0.054975 0.425591 0.184822
Si Si3 0.552320 0.641274 0.185274
Si Si4 0.844221 0.923339 0.313632
Si Si5 0.102325 0.714260 0.813751
O O1 0.750000 0.250000 0.250000
O O2 0.689992 0.361813 0.246596
O O3 0.654721 0.237604 0.249431
O O4 0.700423 0.282420 0.000000
O O5 0.074124 0.500000 0.250000
O O6 0.085331 0.359186 0.243778
O O7 0.000000 0.417814 0.250000
O O8 0.053401 0.427822 0.000000
O O9 0.500000 0.619207 0.250000
O O10 0.599750 0.596114 0.233952
O O11 0.565140 0.722152 0.229420
O O12 0.550041 0.638218 0.000000
O O13 0.842010 0.921567 0.500000
O O14 0.831602 0.000000 0.250000
O O15 0.103948 0.710680 0.000000
#
# Coordination Sequence:
#
# PCOD9527003 Si02
#       5
#    16  16  16  16  16
#     4  11  22  39  62  86 110 142 180 224 275 329
#     4  11  21  34  52  77 109 148 187 227 275 329
#     4   9  19  32  50  76 109 145 183 221 262 312
#     4  10  21  38  57  82 113 147 184 226 272 322
#     4  10  20  36  55  79 109 142 182 230 275 326
#
# _framework density 17.838868000000002
#
# number of rings (size 3 to 8) (size 9 to 14) (size 15 to 20)
#    0.000    1.800    0.000    7.200    0.000    6.800 
#    0.000    3.000    0.000    0.000    0.000    0.000 
#    0.000    0.000    0.000    0.000    0.000    0.000 
#
# Total GULP energy -223432.137294 kJ/mol
# GULP energy per Si atom -5585.803432 kJ/mol
# Density = 1.779827 g / cm^3
# Si number density = 17.838868 Si / 1000 Ang^3
#
#
#
# Elastic Constant Matrix: (Units=GPa)
#
#
# Indices 1 2 3 4 5 6 
#
# 1 91.4508 53.9463 33.2751 0.0000 0.0000 0.0000
# 2 53.9463 155.1172 56.1363 0.0000 0.0000 0.0000
# 3 33.2751 56.1363 119.7335 0.0000 0.0000 0.0000
# 4 0.0000 0.0000 0.0000 29.7574 0.0000 0.0000
# 5 0.0000 0.0000 0.0000 0.0000 31.6515 0.0000
# 6 0.0000 0.0000 0.0000 0.0000 0.0000 9.6674
#
#
#
# Elastic Compliance Matrix: (Units=1/GPa)
#
#
# Indices 1 2 3 4 5 6 
#
# 1 0.014127 -0.004206 -0.001954 0.000000 0.000000 0.000000
# 2 -0.004206 0.009016 -0.003058 0.000000 0.000000 0.000000
# 3 -0.001954 -0.003058 0.010329 0.000000 0.000000 0.000000
# 4 0.000000 0.000000 0.000000 0.033605 0.000000 0.000000
# 5 0.000000 0.000000 0.000000 0.000000 0.031594 0.000000
# 6 0.000000 0.000000 0.000000 0.000000 0.000000 0.103440
#
#
# Mechanical properties :
#
#
# Convention : Reuss Voigt Hill
#
# Bulk Modulus (GPa) = 66.51000 72.55742 69.53371
# Shear Modulus (GPa) = 22.16708 29.07819 25.62264
#
# Velocity S-wave (km/s) = 3.52892 4.04176 3.79402
# Velocity P-wave (km/s) = 7.34636 7.90843 7.63257
#
# Compressibility (1/GPa) = 0.01503533
#
# Stress axis : x y z
#
# Youngs Moduli (GPa) = 70.78716 110.91096 96.81627
#
# Poissons Ratio (x) = 0.46647 0.18919
# Poissons Ratio (y) = 0.29772 0.29610
# Poissons Ratio (z) = 0.13833 0.33921
#
# Static dielectric constant tensor:
#      x y z
#    x 1.607440 0.000000 0.000000 
#    y 0.000000 1.609890 0.000000 
#    z 0.000000 0.000000 1.594790 
# 
# From -- ./inp_files/4818.got.cif
#   From: 2010.05.17/outbox.cif.g08.bks.cpg/sg72_3_cif.got.tgz:4818.got - 2010.06.03 17:03:01.
