data_PCOD9527556
_publ_section_title
;
Structure prediction by ZEFSAII (Michael W. Deem and Ramdas Pophale) SiO2 
 PCOD9527556
Probable space group: I B A M
;
_chemical_formula_sum "Si O2"
_cell_formula_units_Z 96
_cell_length_a 8.999970
_cell_length_b 22.928078
_cell_length_c 25.745710
_cell_angle_alpha 90.000000
_cell_angle_beta 90.000000
_cell_angle_gamma 90.000000
_cell_volume 5312.679114
_symmetry_space_group_name_H-M "I B A M"
_symmetry_group_IT_number 72
_symmetry_cell_setting 'orthorhombic'
loop_
_space_group_symop_operation_xyz
x,y,z
-x,-y,z
x,-y,1/2-z
-x,y,1/2-z
-x,-y,-z
x,y,-z
-x,y,1/2+z
x,-y,1/2+z
1/2+x,1/2+y,1/2+z
1/2-x,1/2-y,1/2+z
1/2+x,1/2-y,-z
1/2-x,1/2+y,-z
1/2-x,1/2-y,1/2-z
1/2+x,1/2+y,1/2-z
1/2-x,1/2+y,z
1/2+x,1/2-y,z
loop_
_atom_site_type_symbol
_atom_site_label
_atom_site_fract_x
_atom_site_fract_y
_atom_site_fract_z
Si Si1 0.260118 0.130820 0.347858
Si Si2 0.120334 0.233153 0.711850
Si Si3 0.281003 0.294026 0.440022
Si Si4 0.179061 0.567788 0.243793
Si Si5 0.100265 0.648621 0.153088
Si Si6 0.620515 0.328874 0.559520
O O1 0.191342 0.193301 0.331792
O O2 0.244366 0.097297 0.293436
O O3 0.435279 0.126238 0.360340
O O4 0.168666 0.120801 0.400433
O O5 0.250000 0.250000 0.750000
O O6 0.064831 0.293424 0.687113
O O7 0.000000 0.204656 0.750000
O O8 0.250038 0.311875 0.500000
O O9 0.189625 0.330425 0.397380
O O10 0.455759 0.303653 0.429723
O O11 0.234169 0.226062 0.437059
O O12 0.218589 0.500000 0.250000
O O13 0.194230 0.603776 0.189680
O O14 0.000000 0.571719 0.250000
O O15 0.622021 0.349254 0.500000
#
# Coordination Sequence:
#
# PCOD9527556 Si02
#       6
#    16  16  16  16  16  16
#     4  11  21  32  53  78 104 139 173 212 260 310
#     4  12  21  31  45  75 110 137 167 204 254 315
#     4  10  21  34  50  74 107 143 175 211 257 309
#     4   9  19  36  55  77 104 134 172 218 263 305
#     4  11  20  33  52  78 105 137 173 211 261 313
#     4  10  21  34  49  74 107 142 176 211 255 308
#
# _framework density 18.069979
#
# number of rings (size 3 to 8) (size 9 to 14) (size 15 to 20)
#    0.000    1.500    5.000    1.500    2.333    2.000 
#    0.000    0.000    0.000    5.500    0.000    7.000 
#    0.000    0.000    0.000    0.000    0.000    0.000 
#
# Total GULP energy -267282.458887 kJ/mol
# GULP energy per Si atom -5568.384560 kJ/mol
# Density = 1.802885 g / cm^3
# Si number density = 18.069979 Si / 1000 Ang^3
#
#
#
# Elastic Constant Matrix: (Units=GPa)
#
#
# Indices 1 2 3 4 5 6 
#
# 1 61.8170 -2.4339 39.2377 0.0000 0.0000 0.0000
# 2 -2.4339 44.4146 22.6618 0.0000 0.0000 0.0000
# 3 39.2377 22.6618 123.1794 0.0000 0.0000 0.0000
# 4 0.0000 0.0000 0.0000 9.6336 0.0000 0.0000
# 5 0.0000 0.0000 0.0000 0.0000 34.5262 0.0000
# 6 0.0000 0.0000 0.0000 0.0000 0.0000 9.1253
#
#
#
# Elastic Compliance Matrix: (Units=1/GPa)
#
#
# Indices 1 2 3 4 5 6 
#
# 1 0.021275 0.005103 -0.007716 0.000000 0.000000 0.000000
# 2 0.005103 0.026071 -0.006422 0.000000 0.000000 0.000000
# 3 -0.007716 -0.006422 0.011758 0.000000 0.000000 0.000000
# 4 0.000000 0.000000 0.000000 0.103803 0.000000 0.000000
# 5 0.000000 0.000000 0.000000 0.000000 0.028963 0.000000
# 6 0.000000 0.000000 0.000000 0.000000 0.000000 0.109585
#
#
# Mechanical properties :
#
#
# Convention : Reuss Voigt Hill
#
# Bulk Modulus (GPa) = 24.36992 38.70471 31.53732
# Shear Modulus (GPa) = 15.00584 21.98673 18.49628
#
# Velocity S-wave (km/s) = 2.88484 3.49198 3.20283
# Velocity P-wave (km/s) = 4.96106 6.14202 5.58286
#
# Compressibility (1/GPa) = 0.04103419
#
# Stress axis : x y z
#
# Youngs Moduli (GPa) = 47.00309 38.35615 85.05204
#
# Poissons Ratio (x) = -0.19572 0.65624
# Poissons Ratio (y) = -0.23984 0.54620
# Poissons Ratio (z) = 0.36267 0.24632
#
# Static dielectric constant tensor:
#      x y z
#    x 1.968520 0.000000 0.000000 
#    y 0.000000 1.583290 0.000000 
#    z 0.000000 0.000000 1.591450 
# 
# From -- ./inp_files/45670.got.cif
#   From: 2010.05.17/outbox.cif.g08.bks.cpg/sg72_23_cif.got.tgz:45670.got - 2010.06.03 17:03:01.
