data_PCOD9527764
_publ_section_title
;
Structure prediction by ZEFSAII (Michael W. Deem and Ramdas Pophale) SiO2 
 PCOD9527764
Probable space group: I B A M
;
_chemical_formula_sum "Si O2"
_cell_formula_units_Z 112
_cell_length_a 12.072870
_cell_length_b 28.837155
_cell_length_c 15.296701
_cell_angle_alpha 90.000000
_cell_angle_beta 90.000000
_cell_angle_gamma 90.000000
_cell_volume 5325.503982
_symmetry_space_group_name_H-M "I B A M"
_symmetry_group_IT_number 72
_symmetry_cell_setting 'orthorhombic'
loop_
_space_group_symop_operation_xyz
x,y,z
-x,-y,z
x,-y,1/2-z
-x,y,1/2-z
-x,-y,-z
x,y,-z
-x,y,1/2+z
x,-y,1/2+z
1/2+x,1/2+y,1/2+z
1/2-x,1/2-y,1/2+z
1/2+x,1/2-y,-z
1/2-x,1/2+y,-z
1/2-x,1/2-y,1/2-z
1/2+x,1/2+y,1/2-z
1/2-x,1/2+y,z
1/2+x,1/2-y,z
loop_
_atom_site_type_symbol
_atom_site_label
_atom_site_fract_x
_atom_site_fract_y
_atom_site_fract_z
Si Si1 0.732922 0.807138 0.658327
Si Si2 0.749217 0.924349 0.097176
Si Si3 0.994662 0.948194 0.398780
Si Si4 0.129544 0.397099 0.230241
Si Si5 0.877624 0.479531 0.599878
Si Si6 0.947954 0.851960 0.400856
Si Si7 0.100293 0.777076 0.691074
O O1 0.656045 0.850623 0.678137
O O2 0.802159 0.795160 0.746455
O O3 0.658361 0.762830 0.633915
O O4 0.833240 0.824011 0.598334
O O5 0.880566 0.928962 0.102516
O O6 0.696552 0.898105 0.178837
O O7 0.702992 0.976704 0.102207
O O8 0.718951 0.906053 0.000000
O O9 0.954964 0.954999 0.500000
O O10 0.929467 0.903629 0.360577
O O11 0.000000 0.000000 0.359648
O O12 0.156192 0.441339 0.169763
O O13 0.000000 0.399931 0.250000
O O14 0.879672 0.460955 0.500000
O O15 0.000000 0.500000 0.619034
O O16 0.984326 0.859325 0.500000
O O17 0.040058 0.820392 0.354457
O O18 0.000000 0.755834 0.750000
#
# Coordination Sequence:
#
# PCOD9527764 Si02
#       7
#    16  16  16  16  16  16  16
#     4  10  22  37  61  90 116 152 201 255 309 366
#     4  10  21  37  58  82 117 164 207 250 309 369
#     4   9  19  36  58  86 121 161 201 244 304 372
#     4  12  23  35  59  88 120 155 210 255 309 371
#     4  10  21  38  56  77 116 166 208 254 305 362
#     4  10  21  38  62  90 122 159 201 254 314 373
#     4   9  19  41  64  81 115 157 195 242 314 377
#
# _framework density 21.030873
#
# number of rings (size 3 to 8) (size 9 to 14) (size 15 to 20)
#    0.000    2.000    1.429    1.714    2.000    1.143 
#    0.000    0.000    0.000   10.286    0.000    0.000 
#    0.000    0.000    0.000    0.000    0.000    0.000 
#
# Total GULP energy -312454.246462 kJ/mol
# GULP energy per Si atom -5579.540115 kJ/mol
# Density = 2.098301 g / cm^3
# Si number density = 21.030873 Si / 1000 Ang^3
#
#
#
# Elastic Constant Matrix: (Units=GPa)
#
#
# Indices 1 2 3 4 5 6 
#
# 1 52.6946 24.3596 2.2301 0.0000 0.0000 0.0000
# 2 24.3596 116.4576 24.0205 0.0000 0.0000 0.0000
# 3 2.2301 24.0205 57.1398 -0.0001 0.0000 0.0000
# 4 0.0000 0.0000 -0.0001 17.5371 0.0000 0.0000
# 5 0.0000 0.0000 0.0000 0.0000 9.9367 0.0000
# 6 0.0000 0.0000 0.0000 0.0000 0.0000 18.5433
#
#
#
# Elastic Compliance Matrix: (Units=1/GPa)
#
#
# Indices 1 2 3 4 5 6 
#
# 1 0.021075 -0.004641 0.001128 0.000000 0.000000 0.000000
# 2 -0.004641 0.010424 -0.004201 0.000000 0.000000 0.000000
# 3 0.001128 -0.004201 0.019223 0.000000 0.000000 0.000000
# 4 0.000000 0.000000 0.000000 0.057022 0.000000 0.000000
# 5 0.000000 0.000000 0.000000 0.000000 0.100637 0.000000
# 6 0.000000 0.000000 0.000000 0.000000 0.000000 0.053928
#
#
# Mechanical properties :
#
#
# Convention : Reuss Voigt Hill
#
# Bulk Modulus (GPa) = 28.33269 36.39026 32.36147
# Shear Modulus (GPa) = 17.27112 20.91554 19.09333
#
# Velocity S-wave (km/s) = 2.86881 3.15702 3.01636
# Velocity P-wave (km/s) = 4.94719 5.53442 5.24902
#
# Compressibility (1/GPa) = 0.03529492
#
# Stress axis : x y z
#
# Youngs Moduli (GPa) = 47.44965 95.93178 52.02131
#
# Poissons Ratio (x) = 0.44522 -0.05871
# Poissons Ratio (y) = 0.22022 0.21854
# Poissons Ratio (z) = -0.05355 0.40300
#
# Static dielectric constant tensor:
#      x y z
#    x 1.886710 0.000000 0.000000 
#    y 0.000000 1.796850 0.000000 
#    z 0.000000 0.000000 1.815100 
# 
# From -- ./inp_files/20716.got.cif
#   From: 2010.05.17/outbox.cif.g08.bks.cpg/sg72_11_cif.got.tgz:20716.got - 2010.06.03 17:03:01.
