data_PCOD9527956
_publ_section_title
;
Structure prediction by ZEFSAII (Michael W. Deem and Ramdas Pophale) SiO2 
 PCOD9527956
Probable space group: I B A M
;
_chemical_formula_sum "Si O2"
_cell_formula_units_Z 52
_cell_length_a 18.762897
_cell_length_b 11.857677
_cell_length_c 10.181183
_cell_angle_alpha 90.000000
_cell_angle_beta 90.000000
_cell_angle_gamma 90.000000
_cell_volume 2265.154108
_symmetry_space_group_name_H-M "I B A M"
_symmetry_group_IT_number 72
_symmetry_cell_setting 'orthorhombic'
loop_
_space_group_symop_operation_xyz
x,y,z
-x,-y,z
x,-y,1/2-z
-x,y,1/2-z
-x,-y,-z
x,y,-z
-x,y,1/2+z
x,-y,1/2+z
1/2+x,1/2+y,1/2+z
1/2-x,1/2-y,1/2+z
1/2+x,1/2-y,-z
1/2-x,1/2+y,-z
1/2-x,1/2-y,1/2-z
1/2+x,1/2+y,1/2-z
1/2-x,1/2+y,z
1/2+x,1/2-y,z
loop_
_atom_site_type_symbol
_atom_site_label
_atom_site_fract_x
_atom_site_fract_y
_atom_site_fract_z
Si Si1 0.601742 0.894637 0.347027
Si Si2 0.413510 0.706763 0.353726
Si Si3 0.770652 0.089084 0.140943
Si Si4 0.000000 0.000000 0.250000
O O1 0.579658 0.908849 0.500000
O O2 0.572429 0.785751 0.271330
O O3 0.687815 0.880761 0.349128
O O4 0.586325 0.000000 0.250000
O O5 0.432168 0.751486 0.500000
O O6 0.327872 0.688179 0.353801
O O7 0.450897 0.585662 0.333390
O O8 0.788724 0.000000 0.250000
O O9 0.780289 0.031718 0.000000
#
# Coordination Sequence:
#
# PCOD9527956 Si02
#       4
#    16  16  16   4
#     4  10  21  38  64  95 127 163 206 260 321 379
#     4  11  23  40  62  90 127 168 214 262 309 370
#     4   9  18  34  58  91 127 164 205 256 316 374
#     4  12  26  44  66  90 126 172 220 254 306 368
#
# _framework density 22.956496000000001
#
# number of rings (size 3 to 8) (size 9 to 14) (size 15 to 20)
#    0.000    1.846    1.538    2.308    0.000    4.923 
#    0.000    0.769    0.000    3.692    0.000    0.000 
#    0.000    0.000    0.000    0.000    0.000    0.000 
#
# Total GULP energy -145176.342236 kJ/mol
# GULP energy per Si atom -5583.705471 kJ/mol
# Density = 2.290425 g / cm^3
# Si number density = 22.956496 Si / 1000 Ang^3
#
#
#
# Elastic Constant Matrix: (Units=GPa)
#
#
# Indices 1 2 3 4 5 6 
#
# 1 95.2792 19.8666 27.0436 0.0000 0.0000 0.0000
# 2 19.8666 97.2532 84.1199 0.0000 0.0000 0.0000
# 3 27.0436 84.1199 250.8556 0.0000 0.0000 0.0000
# 4 0.0000 0.0000 0.0000 36.3788 0.0000 0.0000
# 5 0.0000 0.0000 0.0000 0.0000 339.6076 0.0000
# 6 0.0000 0.0000 0.0000 0.0000 0.0000 18.5143
#
#
#
# Elastic Compliance Matrix: (Units=1/GPa)
#
#
# Indices 1 2 3 4 5 6 
#
# 1 0.011028 -0.001725 -0.000611 0.000000 0.000000 0.000000
# 2 -0.001725 0.014753 -0.004761 0.000000 0.000000 0.000000
# 3 -0.000611 -0.004761 0.005649 0.000000 0.000000 0.000000
# 4 0.000000 0.000000 0.000000 0.027489 0.000000 0.000000
# 5 0.000000 0.000000 0.000000 0.000000 0.002945 0.000000
# 6 0.000000 0.000000 0.000000 0.000000 0.000000 0.054012
#
#
# Mechanical properties :
#
#
# Convention : Reuss Voigt Hill
#
# Bulk Modulus (GPa) = 58.01428 78.38313 68.19870
# Shear Modulus (GPa) = 36.81497 99.72400 68.26949
#
# Velocity S-wave (km/s) = 4.00895 6.59809 5.45923
# Velocity P-wave (km/s) = 6.83777 9.60545 8.33726
#
# Compressibility (1/GPa) = 0.01723714
#
# Stress axis : x y z
#
# Youngs Moduli (GPa) = 90.67502 67.78272 177.02967
#
# Poissons Ratio (x) = 0.11691 0.10809
# Poissons Ratio (y) = 0.15639 0.84288
# Poissons Ratio (z) = 0.05536 0.32273
#
# Static dielectric constant tensor:
#      x y z
#    x 1.901060 0.000000 0.000000 
#    y 0.000000 1.825570 0.000000 
#    z 0.000000 0.000000 1.834500 
# 
# From -- ./inp_files/2307.got.cif
#   From: 2010.05.17/outbox.cif.g08.bks.cpg/sg72_2_cif.got.tgz:2307.got - 2010.06.03 17:03:01.
