data_PCOD9527542
_publ_section_title
;
Structure prediction by ZEFSAII (Michael W. Deem and Ramdas Pophale) SiO2 
 PCOD9527542
Probable space group: I B A M
;
_chemical_formula_sum "Si O2"
_cell_formula_units_Z 80
_cell_length_a 28.354767
_cell_length_b 5.345992
_cell_length_c 26.289249
_cell_angle_alpha 90.000000
_cell_angle_beta 90.000000
_cell_angle_gamma 90.000000
_cell_volume 3985.038920
_symmetry_space_group_name_H-M "I B A M"
_symmetry_group_IT_number 72
_symmetry_cell_setting 'orthorhombic'
loop_
_space_group_symop_operation_xyz
x,y,z
-x,-y,z
x,-y,1/2-z
-x,y,1/2-z
-x,-y,-z
x,y,-z
-x,y,1/2+z
x,-y,1/2+z
1/2+x,1/2+y,1/2+z
1/2-x,1/2-y,1/2+z
1/2+x,1/2-y,-z
1/2-x,1/2+y,-z
1/2-x,1/2-y,1/2-z
1/2+x,1/2+y,1/2-z
1/2-x,1/2+y,z
1/2+x,1/2-y,z
loop_
_atom_site_type_symbol
_atom_site_label
_atom_site_fract_x
_atom_site_fract_y
_atom_site_fract_z
Si Si1 0.597976 0.496779 0.443580
Si Si2 0.281373 0.974461 0.941848
Si Si3 0.770174 0.744925 0.692724
Si Si4 0.054245 0.505898 0.094866
Si Si5 0.356435 0.823141 0.365652
O O1 0.619193 0.507445 0.500000
O O2 0.564290 0.251038 0.439780
O O3 0.569776 0.749574 0.432109
O O4 0.634550 0.429904 0.398396
O O5 0.248200 0.219751 0.936331
O O6 0.324960 0.008089 0.903554
O O7 0.299777 0.979410 0.000000
O O8 0.750000 0.750000 0.750000
O O9 0.745725 0.503879 0.668690
O O10 0.825675 0.717256 0.684513
O O11 0.092329 0.553699 0.139846
O O12 0.000000 0.500000 0.109887
#
# Coordination Sequence:
#
# PCOD9527542 Si02
#       5
#    16  16  16  16  16
#     4  10  22  35  53  79 115 157 205 244 284 333
#     4  10  21  33  47  71 105 147 189 225 270 330
#     4  10  22  39  62  90 118 142 186 241 299 365
#     4  10  23  37  54  81 116 158 205 248 292 334
#     4  10  23  35  58  80 115 152 192 240 294 345
#
# _framework density 20.075085999999999
#
# number of rings (size 3 to 8) (size 9 to 14) (size 15 to 20)
#    1.200    0.800    0.000    3.000    5.600    2.400 
#    0.000    0.000    0.000    0.000    0.000    2.800 
#    0.000    0.000    0.000    0.000    0.000    0.000 
#
# Total GULP energy -222883.554338 kJ/mol
# GULP energy per Si atom -5572.088858 kJ/mol
# Density = 2.002939 g / cm^3
# Si number density = 20.075086 Si / 1000 Ang^3
#
#
#
# Elastic Constant Matrix: (Units=GPa)
#
#
# Indices 1 2 3 4 5 6 
#
# 1 120.9184 29.7766 45.4234 0.0000 0.0000 0.0000
# 2 29.7766 152.8469 11.6585 0.0000 0.0000 0.0000
# 3 45.4234 11.6585 79.3773 0.0000 0.0000 0.0000
# 4 0.0000 0.0000 0.0000 4.0637 0.0000 0.0000
# 5 0.0000 0.0000 0.0000 0.0000 18.1620 0.0000
# 6 0.0000 0.0000 0.0000 0.0000 0.0000 24.4046
#
#
#
# Elastic Compliance Matrix: (Units=1/GPa)
#
#
# Indices 1 2 3 4 5 6 
#
# 1 0.010942 -0.001673 -0.006016 0.000000 0.000000 0.000000
# 2 -0.001673 0.006872 -0.000052 0.000000 0.000000 0.000000
# 3 -0.006016 -0.000052 0.016048 0.000000 0.000000 0.000000
# 4 0.000000 0.000000 0.000000 0.246080 0.000000 0.000000
# 5 0.000000 0.000000 0.000000 0.000000 0.055060 0.000000
# 6 0.000000 0.000000 0.000000 0.000000 0.000000 0.040976
#
#
# Mechanical properties :
#
#
# Convention : Reuss Voigt Hill
#
# Bulk Modulus (GPa) = 54.40372 58.53995 56.47183
# Shear Modulus (GPa) = 12.57589 27.07834 19.82712
#
# Velocity S-wave (km/s) = 2.50560 3.67666 3.14610
# Velocity P-wave (km/s) = 5.96068 6.87369 6.43340
#
# Compressibility (1/GPa) = 0.01838110
#
# Stress axis : x y z
#
# Youngs Moduli (GPa) = 91.39279 145.51071 62.31234
#
# Poissons Ratio (x) = 0.24340 0.37485
# Poissons Ratio (y) = 0.15288 0.00325
# Poissons Ratio (z) = 0.54979 0.00759
#
# Static dielectric constant tensor:
#      x y z
#    x 1.733270 0.000000 0.000000 
#    y 0.000000 1.766440 0.000000 
#    z 0.000000 0.000000 1.743780 
# 
# From -- ./inp_files/49823.got.cif
#   From: 2010.05.17/outbox.cif.g08.bks.cpg/sg72_25_cif.got.tgz:49823.got - 2010.06.03 17:03:01.
