data_PCOD9527066
_publ_section_title
;
Structure prediction by ZEFSAII (Michael W. Deem and Ramdas Pophale) SiO2 
 PCOD9527066
Probable space group: I B A M
;
_chemical_formula_sum "Si O2"
_cell_formula_units_Z 96
_cell_length_a 8.452026
_cell_length_b 28.333449
_cell_length_c 21.111654
_cell_angle_alpha 90.000000
_cell_angle_beta 90.000000
_cell_angle_gamma 90.000000
_cell_volume 5055.714347
_symmetry_space_group_name_H-M "I B A M"
_symmetry_group_IT_number 72
_symmetry_cell_setting 'orthorhombic'
loop_
_space_group_symop_operation_xyz
x,y,z
-x,-y,z
x,-y,1/2-z
-x,y,1/2-z
-x,-y,-z
x,y,-z
-x,y,1/2+z
x,-y,1/2+z
1/2+x,1/2+y,1/2+z
1/2-x,1/2-y,1/2+z
1/2+x,1/2-y,-z
1/2-x,1/2+y,-z
1/2-x,1/2-y,1/2-z
1/2+x,1/2+y,1/2-z
1/2-x,1/2+y,z
1/2+x,1/2-y,z
loop_
_atom_site_type_symbol
_atom_site_label
_atom_site_fract_x
_atom_site_fract_y
_atom_site_fract_z
Si Si1 0.401125 0.705225 0.685117
Si Si2 0.739102 0.826227 0.500000
Si Si3 0.721354 0.708882 0.629744
Si Si4 0.898153 0.373405 0.194048
Si Si5 0.599951 0.770560 0.000000
Si Si6 0.678548 0.445219 0.267748
Si Si7 0.279366 0.118106 0.630656
O O1 0.500000 0.706353 0.750000
O O2 0.533327 0.710522 0.630327
O O3 0.283178 0.748187 0.673124
O O4 0.304343 0.657297 0.675743
O O5 0.574997 0.794692 0.500000
O O6 0.875893 0.786347 0.500000
O O7 0.745948 0.860114 0.561320
O O8 0.773660 0.661077 0.663271
O O9 0.806047 0.712524 0.562453
O O10 0.808254 0.416749 0.226703
O O11 0.000000 0.348898 0.250000
O O12 0.033117 0.385378 0.143207
O O13 0.694088 0.500000 0.250000
O O14 0.500000 0.430661 0.250000
O O15 0.708752 0.430556 0.341124
#
# Coordination Sequence:
#
# PCOD9527066 Si02
#       7
#    16   8  16  16   8  16  16
#     4  12  23  36  55  84 124 162 209 264 315 369
#     4  12  24  42  58  87 135 175 233 251 302 368
#     4  12  22  36  55  81 121 168 213 254 307 369
#     4  10  20  36  59  88 121 158 207 257 317 374
#     4  12  24  40  58  81 124 186 219 255 291 370
#     4  10  22  43  70  97 123 155 203 269 340 395
#     4  11  22  38  61  91 125 168 210 261 311 380
#
# _framework density 18.988413999999999
#
# number of rings (size 3 to 8) (size 9 to 14) (size 15 to 20)
#    0.000    0.833    3.333    6.500    0.000    3.000 
#    0.000    0.000    0.000    5.000    0.000    0.000 
#    0.000    0.000    0.000    0.000    0.000    0.000 
#
# Total GULP energy -268032.235072 kJ/mol
# GULP energy per Si atom -5584.004897 kJ/mol
# Density = 1.894520 g / cm^3
# Si number density = 18.988414 Si / 1000 Ang^3
#
#
#
# Elastic Constant Matrix: (Units=GPa)
#
#
# Indices 1 2 3 4 5 6 
#
# 1 103.0726 34.9661 24.0117 0.0000 0.0000 0.0000
# 2 34.9661 83.2721 44.3210 0.0000 0.0000 0.0000
# 3 24.0117 44.3210 123.1941 0.0000 0.0000 0.0000
# 4 0.0000 0.0000 0.0000 21.2705 0.0000 0.0000
# 5 0.0000 0.0000 0.0000 0.0000 29.3920 0.0000
# 6 0.0000 0.0000 0.0000 0.0000 0.0000 33.3808
#
#
#
# Elastic Compliance Matrix: (Units=1/GPa)
#
#
# Indices 1 2 3 4 5 6 
#
# 1 0.011351 -0.004439 -0.000616 0.000000 0.000000 0.000000
# 2 -0.004439 0.016589 -0.005103 0.000000 0.000000 0.000000
# 3 -0.000616 -0.005103 0.010073 0.000000 0.000000 0.000000
# 4 0.000000 0.000000 0.000000 0.047013 0.000000 0.000000
# 5 0.000000 0.000000 0.000000 0.000000 0.034023 0.000000
# 6 0.000000 0.000000 0.000000 0.000000 0.000000 0.029957
#
#
# Mechanical properties :
#
#
# Convention : Reuss Voigt Hill
#
# Bulk Modulus (GPa) = 56.50184 57.34847 56.92515
# Shear Modulus (GPa) = 28.53552 30.55799 29.54675
#
# Velocity S-wave (km/s) = 3.88078 4.01596 3.94895
# Velocity P-wave (km/s) = 7.06408 7.19522 7.12995
#
# Compressibility (1/GPa) = 0.01769854
#
# Stress axis : x y z
#
# Youngs Moduli (GPa) = 88.09741 60.28229 99.27451
#
# Poissons Ratio (x) = 0.26758 0.06111
# Poissons Ratio (y) = 0.39104 0.50658
# Poissons Ratio (z) = 0.05423 0.30761
#
# Static dielectric constant tensor:
#      x y z
#    x 1.672350 0.000000 0.000000 
#    y 0.000000 1.644130 0.000000 
#    z 0.000000 0.000000 1.739240 
# 
# From -- ./inp_files/42582.got.cif
#   From: 2010.05.17/outbox.cif.g08.bks.cpg/sg72_22_cif.got.tgz:42582.got - 2010.06.03 17:03:01.
