data_PCOD9527301
_publ_section_title
;
Structure prediction by ZEFSAII (Michael W. Deem and Ramdas Pophale) SiO2 
 PCOD9527301
Probable space group: I B A M
;
_chemical_formula_sum "Si O2"
_cell_formula_units_Z 120
_cell_length_a 9.101747
_cell_length_b 26.991185
_cell_length_c 24.928852
_cell_angle_alpha 90.000000
_cell_angle_beta 90.000000
_cell_angle_gamma 90.000000
_cell_volume 6124.194716
_symmetry_space_group_name_H-M "I B A M"
_symmetry_group_IT_number 72
_symmetry_cell_setting 'orthorhombic'
loop_
_space_group_symop_operation_xyz
x,y,z
-x,-y,z
x,-y,1/2-z
-x,y,1/2-z
-x,-y,-z
x,y,-z
-x,y,1/2+z
x,-y,1/2+z
1/2+x,1/2+y,1/2+z
1/2-x,1/2-y,1/2+z
1/2+x,1/2-y,-z
1/2-x,1/2+y,-z
1/2-x,1/2-y,1/2-z
1/2+x,1/2+y,1/2-z
1/2-x,1/2+y,z
1/2+x,1/2-y,z
loop_
_atom_site_type_symbol
_atom_site_label
_atom_site_fract_x
_atom_site_fract_y
_atom_site_fract_z
Si Si1 0.341888 0.027714 0.175217
Si Si2 0.387443 0.459773 0.130137
Si Si3 0.497883 0.366225 0.810782
Si Si4 0.500000 0.896610 0.750000
Si Si5 0.678592 0.892114 0.439831
Si Si6 0.392648 0.952165 0.557399
Si Si7 0.675205 0.170728 0.163129
Si Si8 0.368243 0.271203 0.291226
O O1 0.211802 0.986757 0.176670
O O2 0.375545 0.069116 0.220406
O O3 0.316866 0.049199 0.115175
O O4 0.500000 0.000000 0.174268
O O5 0.500000 0.500000 0.107814
O O6 0.482994 0.414056 0.152323
O O7 0.273538 0.436319 0.087644
O O8 0.500000 0.384723 0.750000
O O9 0.344094 0.337108 0.819159
O O10 0.630087 0.326183 0.816763
O O11 0.422864 0.863144 0.796201
O O12 0.732173 0.882152 0.500000
O O13 0.509812 0.908305 0.442954
O O14 0.678388 0.848355 0.397294
O O15 0.309936 0.952745 0.500000
O O16 0.500000 0.000000 0.556935
O O17 0.620209 0.226906 0.166676
O O18 0.500000 0.273905 0.250000
O O19 0.250000 0.250000 0.250000
#
# Coordination Sequence:
#
# PCOD9527301 Si02
#       8
#    16  16  16   8  16  16  16  16
#     4  11  20  36  51  79 118 163 205 241 295 352
#     4  11  24  38  55  86 121 167 203 241 307 364
#     4  10  22  39  54  80 125 157 195 236 300 376
#     4  12  23  32  56  90 132 158 205 256 292 366
#     4  10  20  38  59  83 117 156 208 258 300 358
#     4   9  15  29  54  77 102 144 198 251 285 324
#     4  11  21  36  60  92 118 155 200 255 317 366
#     4  11  20  37  62  89 120 156 197 250 311 373
#
# _framework density 19.594414
#
# number of rings (size 3 to 8) (size 9 to 14) (size 15 to 20)
#    0.000    1.467    7.333    1.000    1.867    0.533 
#    2.400    0.000    0.000    3.200    0.000    0.000 
#    0.000    0.000    0.000    0.000    0.000    0.000 
#
# Total GULP energy -334080.863266 kJ/mol
# GULP energy per Si atom -5568.014388 kJ/mol
# Density = 1.954982 g / cm^3
# Si number density = 19.594414 Si / 1000 Ang^3
#
#
#
# Elastic Constant Matrix: (Units=GPa)
#
#
# Indices 1 2 3 4 5 6 
#
# 1 33.6825 26.7473 10.9080 0.0000 0.0000 0.0000
# 2 26.7473 108.7923 56.8170 0.0000 0.0000 0.0000
# 3 10.9080 56.8170 115.6369 0.0000 0.0000 0.0000
# 4 0.0000 0.0000 0.0000 -34.5627 0.0000 0.0000
# 5 0.0000 0.0000 0.0000 0.0000 12.5276 0.0000
# 6 0.0000 0.0000 0.0000 0.0000 0.0000 30.3086
#
#
#
# Elastic Compliance Matrix: (Units=1/GPa)
#
#
# Indices 1 2 3 4 5 6 
#
# 1 0.037040 -0.009795 0.001319 0.000000 0.000000 0.000000
# 2 -0.009795 0.014955 -0.006424 0.000000 0.000000 0.000000
# 3 0.001319 -0.006424 0.011680 0.000000 0.000000 0.000000
# 4 0.000000 0.000000 0.000000 -0.028933 0.000000 0.000000
# 5 0.000000 0.000000 0.000000 0.000000 0.079824 0.000000
# 6 0.000000 0.000000 0.000000 0.000000 0.000000 0.032994
#
#
# Mechanical properties :
#
#
# Convention : Reuss Voigt Hill
#
# Bulk Modulus (GPa) = 29.52114 49.67293 39.59704
# Shear Modulus (GPa) = 26.50374 12.56397 19.53385
#
# Velocity S-wave (km/s) = 3.68178 2.53494 3.16081
# Velocity P-wave (km/s) = 5.75959 5.82868 5.79424
#
# Compressibility (1/GPa) = 0.03387403
#
# Stress axis : x y z
#
# Youngs Moduli (GPa) = 26.99758 66.86710 85.61843
#
# Poissons Ratio (x) = 0.65499 -0.11292
# Poissons Ratio (y) = 0.26445 0.55001
# Poissons Ratio (z) = -0.03561 0.42955
#
# Static dielectric constant tensor:
#      x y z
#    x 1.702350 0.000000 0.000000 
#    y 0.000000 1.861960 0.000000 
#    z 0.000000 0.000000 1.718450 
# 
# From -- ./inp_files/47699.got.cif
#   From: 2010.05.17/outbox.cif.g08.bks.cpg/sg72_24_cif.got.tgz:47699.got - 2010.06.03 17:03:01.
