data_PCOD9527744
_publ_section_title
;
Structure prediction by ZEFSAII (Michael W. Deem and Ramdas Pophale) SiO2 
 PCOD9527744
Probable space group: I B A M
;
_chemical_formula_sum "Si O2"
_cell_formula_units_Z 116
_cell_length_a 26.818113
_cell_length_b 7.693102
_cell_length_c 24.221178
_cell_angle_alpha 90.000000
_cell_angle_beta 90.000000
_cell_angle_gamma 90.000000
_cell_volume 4997.179714
_symmetry_space_group_name_H-M "I B A M"
_symmetry_group_IT_number 72
_symmetry_cell_setting 'orthorhombic'
loop_
_space_group_symop_operation_xyz
x,y,z
-x,-y,z
x,-y,1/2-z
-x,y,1/2-z
-x,-y,-z
x,y,-z
-x,y,1/2+z
x,-y,1/2+z
1/2+x,1/2+y,1/2+z
1/2-x,1/2-y,1/2+z
1/2+x,1/2-y,-z
1/2-x,1/2+y,-z
1/2-x,1/2-y,1/2-z
1/2+x,1/2+y,1/2-z
1/2-x,1/2+y,z
1/2+x,1/2-y,z
loop_
_atom_site_type_symbol
_atom_site_label
_atom_site_fract_x
_atom_site_fract_y
_atom_site_fract_z
Si Si1 0.388828 0.800498 0.560580
Si Si2 0.684715 0.258825 0.886448
Si Si3 0.782658 0.601837 0.436021
Si Si4 0.000000 0.500000 0.750000
Si Si5 0.143875 0.197773 0.767488
Si Si6 0.947575 0.061714 0.327966
Si Si7 0.083392 0.904941 0.438983
Si Si8 0.913441 0.327164 0.822305
O O1 0.394323 0.887128 0.500000
O O2 0.415458 0.614304 0.556839
O O3 0.406736 0.899236 0.615758
O O4 0.329340 0.766722 0.567906
O O5 0.735578 0.360320 0.898421
O O6 0.693292 0.077386 0.916813
O O7 0.674577 0.245953 0.821032
O O8 0.637083 0.346912 0.915527
O O9 0.766495 0.595088 0.500000
O O10 0.962062 0.399040 0.791234
O O11 0.136040 0.329134 0.716373
O O12 0.158946 0.000000 0.750000
O O13 0.086632 0.181866 0.790580
O O14 0.953617 0.141056 0.388933
O O15 0.917879 0.880610 0.331195
O O16 0.000000 0.000000 0.306468
O O17 0.073111 0.835276 0.500000
#
# Coordination Sequence:
#
# PCOD9527744 Si02
#       8
#    16  16  16   4  16  16  16  16
#     4   9  20  39  61  81 114 157 196 243 302 355
#     4  11  22  36  58  86 116 154 198 249 301 354
#     4  11  22  37  59  85 115 152 198 244 292 357
#     4  12  24  32  60  88 120 156 200 244 292 372
#     4   9  20  38  59  80 114 152 192 245 300 357
#     4   9  17  32  54  79 109 145 189 237 291 346
#     4   9  17  32  54  80 111 149 192 242 293 349
#     4  10  21  37  56  84 114 150 196 242 296 356
#
# _framework density 23.213094999999999
#
# number of rings (size 3 to 8) (size 9 to 14) (size 15 to 20)
#    0.000    2.207    0.000    3.724    1.931    3.310 
#    0.000    3.103    0.000    0.000    0.000    0.000 
#    0.000    0.000    0.000    0.000    0.000    0.000 
#
# Total GULP energy -323654.402016 kJ/mol
# GULP energy per Si atom -5580.248311 kJ/mol
# Density = 2.316026 g / cm^3
# Si number density = 23.213095 Si / 1000 Ang^3
#
#
#
# Elastic Constant Matrix: (Units=GPa)
#
#
# Indices 1 2 3 4 5 6 
#
# 1 55.9629 -1.6697 39.5140 0.0000 0.0000 0.0000
# 2 -1.6697 36.0905 14.0586 0.0000 0.0000 0.0000
# 3 39.5140 14.0586 213.8857 0.0000 0.0000 0.0000
# 4 0.0000 0.0000 0.0000 13.1042 0.0000 0.0000
# 5 0.0000 0.0000 0.0000 0.0000 -9.2689 0.0000
# 6 0.0000 0.0000 0.0000 0.0000 0.0000 33.9748
#
#
#
# Elastic Compliance Matrix: (Units=1/GPa)
#
#
# Indices 1 2 3 4 5 6 
#
# 1 0.020770 0.002520 -0.004003 0.000000 0.000000 0.000000
# 2 0.002520 0.028742 -0.002355 0.000000 0.000000 0.000000
# 3 -0.004003 -0.002355 0.005570 0.000000 0.000000 0.000000
# 4 0.000000 0.000000 0.000000 0.076311 0.000000 0.000000
# 5 0.000000 0.000000 0.000000 0.000000 -0.107887 0.000000
# 6 0.000000 0.000000 0.000000 0.000000 0.000000 0.029434
#
#
# Mechanical properties :
#
#
# Convention : Reuss Voigt Hill
#
# Bulk Modulus (GPa) = 21.09380 45.52721 33.31051
# Shear Modulus (GPa) = 65.43040 24.49776 44.96408
#
# Velocity S-wave (km/s) = 5.31489 3.25213 4.40593
# Velocity P-wave (km/s) = 6.83892 5.81008 6.34539
#
# Compressibility (1/GPa) = 0.04740729
#
# Stress axis : x y z
#
# Youngs Moduli (GPa) = 48.14523 34.79229 179.54359
#
# Poissons Ratio (x) = -0.08768 0.71869
# Poissons Ratio (y) = -0.12134 0.42279
# Poissons Ratio (z) = 0.19272 0.08193
#
# Static dielectric constant tensor:
#      x y z
#    x 1.919160 0.000000 0.000000 
#    y 0.000000 1.912100 0.000000 
#    z 0.000000 0.000000 2.001560 
# 
# From -- ./inp_files/45999.got.cif
#   From: 2010.05.17/outbox.cif.g08.bks.cpg/sg72_23_cif.got.tgz:45999.got - 2010.06.03 17:03:01.
