data_PCOD9527049
_publ_section_title
;
Structure prediction by ZEFSAII (Michael W. Deem and Ramdas Pophale) SiO2 
 PCOD9527049
Probable space group: I B A M
;
_chemical_formula_sum "Si O2"
_cell_formula_units_Z 64
_cell_length_a 32.187477
_cell_length_b 8.862555
_cell_length_c 10.792260
_cell_angle_alpha 90.000000
_cell_angle_beta 90.000000
_cell_angle_gamma 90.000000
_cell_volume 3078.635543
_symmetry_space_group_name_H-M "I B A M"
_symmetry_group_IT_number 72
_symmetry_cell_setting 'orthorhombic'
loop_
_space_group_symop_operation_xyz
x,y,z
-x,-y,z
x,-y,1/2-z
-x,y,1/2-z
-x,-y,-z
x,y,-z
-x,y,1/2+z
x,-y,1/2+z
1/2+x,1/2+y,1/2+z
1/2-x,1/2-y,1/2+z
1/2+x,1/2-y,-z
1/2-x,1/2+y,-z
1/2-x,1/2-y,1/2-z
1/2+x,1/2+y,1/2-z
1/2-x,1/2+y,z
1/2+x,1/2-y,z
loop_
_atom_site_type_symbol
_atom_site_label
_atom_site_fract_x
_atom_site_fract_y
_atom_site_fract_z
Si Si1 0.042177 0.316411 0.500000
Si Si2 0.593546 0.818701 0.760915
Si Si3 0.054024 0.683516 0.500000
Si Si4 0.732630 0.891966 0.631725
Si Si5 0.180450 0.172566 0.731952
O O1 0.063695 0.267051 0.372197
O O2 0.049081 0.499574 0.500000
O O3 0.994156 0.269720 0.500000
O O4 0.577876 0.767233 0.624968
O O5 0.639693 0.766566 0.796267
O O6 0.593160 0.000000 0.750000
O O7 0.725266 0.967473 0.500000
O O8 0.780014 0.834341 0.640566
O O9 0.701758 0.751691 0.649226
O O10 0.726262 0.000000 0.750000
O O11 0.167890 0.000000 0.750000
#
# Coordination Sequence:
#
# PCOD9527049 Si02
#       5
#     8  16   8  16  16
#     4   9  18  34  59  88 113 148 197 248 303 355
#     4  10  20  36  58  88 117 152 199 248 300 359
#     4   9  18  34  59  86 117 148 191 254 303 351
#     4  10  23  44  67  90 120 162 212 262 308 360
#     4  10  23  39  58  88 124 164 200 245 300 361
#
# _framework density 20.788429000000001
#
# number of rings (size 3 to 8) (size 9 to 14) (size 15 to 20)
#    0.000    2.250    0.000    1.500    3.500   13.000 
#    4.500    0.000    0.000    4.500    0.000    0.000 
#    0.000    0.000    0.000    0.000    0.000    0.000 
#
# Total GULP energy -178444.817149 kJ/mol
# GULP energy per Si atom -5576.400536 kJ/mol
# Density = 2.074111 g / cm^3
# Si number density = 20.788429 Si / 1000 Ang^3
#
#
#
# Elastic Constant Matrix: (Units=GPa)
#
#
# Indices 1 2 3 4 5 6 
#
# 1 89.9070 11.5556 29.9418 0.0000 0.0000 0.0000
# 2 11.5556 29.8492 38.7454 0.0000 0.0000 0.0000
# 3 29.9418 38.7454 162.3159 0.0000 0.0000 0.0000
# 4 0.0000 0.0000 0.0000 11.7645 0.0000 0.0000
# 5 0.0000 0.0000 0.0000 0.0000 -43.2585 0.0000
# 6 0.0000 0.0000 0.0000 0.0000 0.0000 22.0009
#
#
#
# Elastic Compliance Matrix: (Units=1/GPa)
#
#
# Indices 1 2 3 4 5 6 
#
# 1 0.011985 -0.002565 -0.001599 0.000000 0.000000 0.000000
# 2 -0.002565 0.049091 -0.011245 0.000000 0.000000 0.000000
# 3 -0.001599 -0.011245 0.009140 0.000000 0.000000 0.000000
# 4 0.000000 0.000000 0.000000 0.085001 0.000000 0.000000
# 5 0.000000 0.000000 0.000000 0.000000 -0.023117 0.000000
# 6 0.000000 0.000000 0.000000 0.000000 0.000000 0.045453
#
#
# Mechanical properties :
#
#
# Convention : Reuss Voigt Hill
#
# Bulk Modulus (GPa) = 25.38128 49.17308 37.27718
# Shear Modulus (GPa) = 22.57307 11.55667 17.06487
#
# Velocity S-wave (km/s) = 3.29880 2.36035 2.86821
# Velocity P-wave (km/s) = 5.17158 5.57976 5.37954
#
# Compressibility (1/GPa) = 0.03939912
#
# Stress axis : x y z
#
# Youngs Moduli (GPa) = 83.44042 20.37018 109.40937
#
# Poissons Ratio (x) = 0.05224 0.17490
# Poissons Ratio (y) = 0.21399 1.23033
# Poissons Ratio (z) = 0.13338 0.22907
#
# Static dielectric constant tensor:
#      x y z
#    x 1.709800 0.000000 0.000000 
#    y 0.000000 1.771990 0.000000 
#    z 0.000000 0.000000 1.775240 
# 
# From -- ./inp_files/16620.got.cif
#   From: 2010.05.17/outbox.cif.g08.bks.cpg/sg72_9_cif.got.tgz:16620.got - 2010.06.03 17:03:01.
