data_PCOD9527880
_publ_section_title
;
Structure prediction by ZEFSAII (Michael W. Deem and Ramdas Pophale) SiO2 
 PCOD9527880
Probable space group: I B A M
;
_chemical_formula_sum "Si O2"
_cell_formula_units_Z 112
_cell_length_a 14.235078
_cell_length_b 26.118077
_cell_length_c 16.265729
_cell_angle_alpha 90.000000
_cell_angle_beta 90.000000
_cell_angle_gamma 90.000000
_cell_volume 6047.481959
_symmetry_space_group_name_H-M "I B A M"
_symmetry_group_IT_number 72
_symmetry_cell_setting 'orthorhombic'
loop_
_space_group_symop_operation_xyz
x,y,z
-x,-y,z
x,-y,1/2-z
-x,y,1/2-z
-x,-y,-z
x,y,-z
-x,y,1/2+z
x,-y,1/2+z
1/2+x,1/2+y,1/2+z
1/2-x,1/2-y,1/2+z
1/2+x,1/2-y,-z
1/2-x,1/2+y,-z
1/2-x,1/2-y,1/2-z
1/2+x,1/2+y,1/2-z
1/2-x,1/2+y,z
1/2+x,1/2-y,z
loop_
_atom_site_type_symbol
_atom_site_label
_atom_site_fract_x
_atom_site_fract_y
_atom_site_fract_z
Si Si1 0.541321 0.054952 0.903374
Si Si2 0.894132 0.095651 0.246682
Si Si3 0.601525 0.673245 0.906827
Si Si4 0.718637 0.233243 0.657611
Si Si5 0.886025 0.832369 0.093496
Si Si6 0.697267 0.944866 0.718088
Si Si7 0.580064 0.140003 0.313537
O O1 0.646662 0.061177 0.869232
O O2 0.476722 0.102384 0.874561
O O3 0.500000 0.000000 0.873813
O O4 0.542142 0.053625 0.000000
O O5 0.889514 0.134308 0.169113
O O6 0.878303 0.125818 0.333080
O O7 0.808444 0.058405 0.227976
O O8 0.000000 0.074172 0.250000
O O9 0.672568 0.718944 0.888272
O O10 0.491899 0.689506 0.903020
O O11 0.616881 0.652958 0.000000
O O12 0.750000 0.250000 0.750000
O O13 0.809658 0.210662 0.612726
O O14 0.640592 0.188121 0.657554
O O15 0.872056 0.852628 0.000000
O O16 0.652950 0.898520 0.769893
O O17 0.666323 0.000000 0.750000
O O18 0.500000 0.158184 0.250000
#
# Coordination Sequence:
#
# PCOD9527880 Si02
#       7
#    16  16  16  16  16  16  16
#     4  10  21  38  60  88 121 158 197 248 310 373
#     4  10  21  40  61  86 117 157 202 248 302 357
#     4  10  22  39  60  83 117 158 197 244 300 355
#     4  12  22  36  60  86 119 156 201 250 300 359
#     4  10  21  38  59  82 111 151 195 242 294 357
#     4  11  20  38  60  87 118 158 198 245 305 366
#     4  10  22  35  58  87 120 158 198 244 304 373
#
# _framework density 18.520104
#
# number of rings (size 3 to 8) (size 9 to 14) (size 15 to 20)
#    0.000    1.571    4.286    0.429    2.000    2.000 
#    0.000    0.714    0.000    0.000    0.000    5.000 
#    0.000    0.000    0.000    0.000    0.000    0.000 
#
# Total GULP energy -312114.129171 kJ/mol
# GULP energy per Si atom -5573.466592 kJ/mol
# Density = 1.847795 g / cm^3
# Si number density = 18.520104 Si / 1000 Ang^3
#
#
#
# Elastic Constant Matrix: (Units=GPa)
#
#
# Indices 1 2 3 4 5 6 
#
# 1 98.3971 18.8851 46.4834 0.0000 0.0000 0.0000
# 2 18.8851 32.1810 23.1957 0.0000 0.0000 0.0000
# 3 46.4834 23.1957 122.2669 0.0000 0.0000 0.0000
# 4 0.0000 0.0000 0.0000 10.9782 0.0000 -0.0001
# 5 0.0000 0.0000 0.0000 0.0000 12.2930 -0.0001
# 6 0.0000 0.0000 0.0000 -0.0001 -0.0001 -129.4663
#
#
#
# Elastic Compliance Matrix: (Units=1/GPa)
#
#
# Indices 1 2 3 4 5 6 
#
# 1 0.012974 -0.004701 -0.004041 0.000000 0.000000 0.000000
# 2 -0.004701 0.037700 -0.005365 0.000000 0.000000 0.000000
# 3 -0.004041 -0.005365 0.010733 0.000000 0.000000 0.000000
# 4 0.000000 0.000000 0.000000 0.091090 0.000000 0.000000
# 5 0.000000 0.000000 0.000000 0.000000 0.081347 0.000000
# 6 0.000000 0.000000 0.000000 0.000000 0.000000 -0.007724
#
#
# Mechanical properties :
#
#
# Convention : Reuss Voigt Hill
#
# Bulk Modulus (GPa) = 30.12647 47.77483 38.95065
# Shear Modulus (GPa) = 18.83969 -10.28696 4.27636
#
# Velocity S-wave (km/s) = 3.19291 -2.35935 1.52120
# Velocity P-wave (km/s) = 5.46764 4.29303 4.91555
#
# Compressibility (1/GPa) = 0.03319340
#
# Stress axis : x y z
#
# Youngs Moduli (GPa) = 77.07733 26.52514 93.17273
#
# Poissons Ratio (x) = 0.12470 0.37647
# Poissons Ratio (y) = 0.36236 0.49986
# Poissons Ratio (z) = 0.31143 0.14230
#
# Static dielectric constant tensor:
#      x y z
#    x 1.673880 0.000000 0.000000 
#    y 0.000000 1.691060 0.000000 
#    z 0.000000 0.000000 1.649470 
# 
# From -- ./inp_files/22133.got.cif
#   From: 2010.05.17/outbox.cif.g08.bks.cpg/sg72_12_cif.got.tgz:22133.got - 2010.06.03 17:03:01.
