data_PCOD9527072
_publ_section_title
;
Structure prediction by ZEFSAII (Michael W. Deem and Ramdas Pophale) SiO2 
 PCOD9527072
Probable space group: I B A M
;
_chemical_formula_sum "Si O2"
_cell_formula_units_Z 112
_cell_length_a 18.493118
_cell_length_b 11.805438
_cell_length_c 26.740815
_cell_angle_alpha 90.000000
_cell_angle_beta 90.000000
_cell_angle_gamma 90.000000
_cell_volume 5838.037563
_symmetry_space_group_name_H-M "I B A M"
_symmetry_group_IT_number 72
_symmetry_cell_setting 'orthorhombic'
loop_
_space_group_symop_operation_xyz
x,y,z
-x,-y,z
x,-y,1/2-z
-x,y,1/2-z
-x,-y,-z
x,y,-z
-x,y,1/2+z
x,-y,1/2+z
1/2+x,1/2+y,1/2+z
1/2-x,1/2-y,1/2+z
1/2+x,1/2-y,-z
1/2-x,1/2+y,-z
1/2-x,1/2-y,1/2-z
1/2+x,1/2+y,1/2-z
1/2-x,1/2+y,z
1/2+x,1/2-y,z
loop_
_atom_site_type_symbol
_atom_site_label
_atom_site_fract_x
_atom_site_fract_y
_atom_site_fract_z
Si Si1 0.068113 0.443098 0.399750
Si Si2 0.351132 0.740607 0.553538
Si Si3 0.645524 0.832171 0.367584
Si Si4 0.801804 0.930752 0.629059
Si Si5 0.805935 0.147080 0.557546
Si Si6 0.432774 0.440503 0.196061
Si Si7 0.500675 0.810064 0.306365
O O1 0.100696 0.347017 0.433638
O O2 0.121136 0.546323 0.388853
O O3 0.000000 0.500000 0.425518
O O4 0.040206 0.386768 0.347692
O O5 0.369347 0.689718 0.500000
O O6 0.353253 0.652436 0.597645
O O7 0.269248 0.785637 0.552547
O O8 0.729594 0.861897 0.354257
O O9 0.645346 0.733084 0.409446
O O10 0.584114 0.800482 0.326337
O O11 0.853935 0.963888 0.673962
O O12 0.789632 0.036115 0.591301
O O13 0.830302 0.123234 0.500000
O O14 0.500000 0.500000 0.167471
O O15 0.430542 0.500000 0.250000
O O16 0.457277 0.309152 0.197675
O O17 0.500000 0.857746 0.250000
#
# Coordination Sequence:
#
# PCOD9527072 Si02
#       7
#    16  16  16  16  16  16  16
#     4  10  21  39  62  86 121 166 206 261 319 375
#     4  10  20  36  59  89 122 163 207 258 315 375
#     4  10  23  40  64  94 126 164 215 270 314 373
#     4  11  21  40  64  93 126 162 213 268 312 375
#     4  10  21  37  63  92 125 169 210 259 323 382
#     4  11  22  39  66  92 124 173 208 246 324 392
#     4  11  22  43  66  88 122 170 215 257 327 391
#
# _framework density 19.184529000000001
#
# number of rings (size 3 to 8) (size 9 to 14) (size 15 to 20)
#    0.000    1.571    4.286    1.286    0.000    4.000 
#    2.571    2.857    0.000    1.714    0.000    0.000 
#    0.000    0.000    0.000    0.000    0.000    0.000 
#
# Total GULP energy -311768.070800 kJ/mol
# GULP energy per Si atom -5567.286979 kJ/mol
# Density = 1.914086 g / cm^3
# Si number density = 19.184529 Si / 1000 Ang^3
#
#
#
# Elastic Constant Matrix: (Units=GPa)
#
#
# Indices 1 2 3 4 5 6 
#
# 1 67.4818 -5.0255 41.0672 0.0000 0.0000 0.0000
# 2 -5.0255 61.0949 8.3105 0.0000 0.0000 0.0000
# 3 41.0672 8.3105 91.7164 0.0000 0.0000 0.0000
# 4 0.0000 0.0000 0.0000 102.9009 0.0000 0.0000
# 5 0.0000 0.0000 0.0000 0.0000 41.0927 0.0000
# 6 0.0000 0.0000 0.0000 0.0000 0.0000 31.9015
#
#
#
# Elastic Compliance Matrix: (Units=1/GPa)
#
#
# Indices 1 2 3 4 5 6 
#
# 1 0.020909 0.003031 -0.009637 0.000000 0.000000 0.000000
# 2 0.003031 0.017012 -0.002899 0.000000 0.000000 0.000000
# 3 -0.009637 -0.002899 0.015481 0.000000 0.000000 0.000000
# 4 0.000000 0.000000 0.000000 0.009718 0.000000 0.000000
# 5 0.000000 0.000000 0.000000 0.000000 0.024335 0.000000
# 6 0.000000 0.000000 0.000000 0.000000 0.000000 0.031346
#
#
# Mechanical properties :
#
#
# Convention : Reuss Voigt Hill
#
# Bulk Modulus (GPa) = 29.07626 34.33305 31.70465
# Shear Modulus (GPa) = 33.49522 46.90843 40.20183
#
# Velocity S-wave (km/s) = 4.18299 4.95018 4.58267
# Velocity P-wave (km/s) = 6.20636 7.11389 6.67556
#
# Compressibility (1/GPa) = 0.03439232
#
# Stress axis : x y z
#
# Youngs Moduli (GPa) = 47.82565 58.78357 64.59572
#
# Poissons Ratio (x) = -0.17816 0.62251
# Poissons Ratio (y) = -0.14495 0.18723
# Poissons Ratio (z) = 0.46090 0.17038
#
# Static dielectric constant tensor:
#      x y z
#    x 1.756600 0.000000 0.000000 
#    y 0.000000 1.703150 0.000000 
#    z 0.000000 0.000000 1.703010 
# 
# From -- ./inp_files/45422.got.cif
#   From: 2010.05.17/outbox.cif.g08.bks.cpg/sg72_23_cif.got.tgz:45422.got - 2010.06.03 17:03:01.
