data_PCOD9527386
_publ_section_title
;
Structure prediction by ZEFSAII (Michael W. Deem and Ramdas Pophale) SiO2 
 PCOD9527386
Probable space group: I B A M
;
_chemical_formula_sum "Si O2"
_cell_formula_units_Z 112
_cell_length_a 11.208000
_cell_length_b 16.640533
_cell_length_c 27.813426
_cell_angle_alpha 90.000000
_cell_angle_beta 90.000000
_cell_angle_gamma 90.000000
_cell_volume 5187.401254
_symmetry_space_group_name_H-M "I B A M"
_symmetry_group_IT_number 72
_symmetry_cell_setting 'orthorhombic'
loop_
_space_group_symop_operation_xyz
x,y,z
-x,-y,z
x,-y,1/2-z
-x,y,1/2-z
-x,-y,-z
x,y,-z
-x,y,1/2+z
x,-y,1/2+z
1/2+x,1/2+y,1/2+z
1/2-x,1/2-y,1/2+z
1/2+x,1/2-y,-z
1/2-x,1/2+y,-z
1/2-x,1/2-y,1/2-z
1/2+x,1/2+y,1/2-z
1/2-x,1/2+y,z
1/2+x,1/2-y,z
loop_
_atom_site_type_symbol
_atom_site_label
_atom_site_fract_x
_atom_site_fract_y
_atom_site_fract_z
Si Si1 0.143695 0.095563 0.349800
Si Si2 0.641109 0.510997 0.947521
Si Si3 0.801710 0.539521 0.298105
Si Si4 0.173906 0.715464 0.635367
Si Si5 0.577565 0.349882 0.202456
Si Si6 0.237022 0.338633 0.556806
Si Si7 0.027571 0.589344 0.885523
O O1 0.201691 0.182971 0.343351
O O2 0.007430 0.096953 0.332461
O O3 0.159693 0.073934 0.405539
O O4 0.221541 0.030427 0.321824
O O5 0.500000 0.500000 0.950530
O O6 0.695890 0.423989 0.935985
O O7 0.687315 0.536542 0.000000
O O8 0.854515 0.500000 0.250000
O O9 0.702918 0.607175 0.286437
O O10 0.896295 0.572742 0.336682
O O11 0.106857 0.769344 0.674202
O O12 0.200919 0.770314 0.588890
O O13 0.091826 0.638656 0.624576
O O14 0.500000 0.338547 0.250000
O O15 0.235779 0.320468 0.500000
O O16 0.107237 0.357486 0.578645
O O17 0.000000 0.500000 0.905239
#
# Coordination Sequence:
#
# PCOD9527386 Si02
#       7
#    16  16  16  16  16  16  16
#     4  12  23  42  68  97 134 181 228 293 352 419
#     4  10  20  38  67  98 127 167 225 285 344 417
#     4  12  24  45  72 104 134 182 245 297 355 436
#     4  12  26  45  67  99 149 186 229 295 359 432
#     4  12  26  42  71 100 135 183 236 295 364 421
#     4  11  24  44  70 102 139 185 239 291 357 434
#     4  12  25  49  72 103 148 194 237 301 362 435
#
# _framework density 21.590771
#
# number of rings (size 3 to 8) (size 9 to 14) (size 15 to 20)
#    0.000    0.429    5.714    3.000    0.000    3.429 
#    0.000    1.429    0.000    0.000    0.000    0.000 
#    0.000    0.000    0.000    0.000    0.000    0.000 
#
# Total GULP energy -313324.234236 kJ/mol
# GULP energy per Si atom -5595.075611 kJ/mol
# Density = 2.154163 g / cm^3
# Si number density = 21.590771 Si / 1000 Ang^3
#
#
#
# Elastic Constant Matrix: (Units=GPa)
#
#
# Indices 1 2 3 4 5 6 
#
# 1 74.4466 15.3333 7.8306 0.0000 0.0000 0.0000
# 2 15.3333 79.7072 27.9654 0.0000 0.0000 0.0000
# 3 7.8306 27.9654 81.5019 0.0000 0.0000 0.0000
# 4 0.0000 0.0000 0.0000 5.6662 0.0000 0.0000
# 5 0.0000 0.0000 0.0000 0.0000 10.6037 0.0000
# 6 0.0000 0.0000 0.0000 0.0000 0.0000 47.5019
#
#
#
# Elastic Compliance Matrix: (Units=1/GPa)
#
#
# Indices 1 2 3 4 5 6 
#
# 1 0.014003 -0.002526 -0.000479 0.000000 0.000000 0.000000
# 2 -0.002526 0.014719 -0.004808 0.000000 0.000000 0.000000
# 3 -0.000479 -0.004808 0.013965 0.000000 0.000000 0.000000
# 4 0.000000 0.000000 0.000000 0.176484 0.000000 0.000000
# 5 0.000000 0.000000 0.000000 0.000000 0.094307 0.000000
# 6 0.000000 0.000000 0.000000 0.000000 0.000000 0.021052
#
#
# Mechanical properties :
#
#
# Convention : Reuss Voigt Hill
#
# Bulk Modulus (GPa) = 36.95145 37.54602 37.24874
# Shear Modulus (GPa) = 13.92079 25.05611 19.48845
#
# Velocity S-wave (km/s) = 2.54196 3.41031 3.00764
# Velocity P-wave (km/s) = 5.07612 5.73886 5.41764
#
# Compressibility (1/GPa) = 0.02706253
#
# Stress axis : x y z
#
# Youngs Moduli (GPa) = 71.41312 67.94132 71.60617
#
# Poissons Ratio (x) = 0.17161 0.03428
# Poissons Ratio (y) = 0.18038 0.34426
# Poissons Ratio (z) = 0.03419 0.32664
#
# Static dielectric constant tensor:
#      x y z
#    x 1.800590 0.000000 0.000000 
#    y 0.000000 1.771510 0.000000 
#    z 0.000000 0.000000 1.813690 
# 
# From -- ./inp_files/51461.got.cif
#   From: 2010.05.17/outbox.cif.g08.bks.cpg/sg72_26_cif.got.tgz:51461.got - 2010.06.03 17:03:01.
