data_PCOD9527615
_publ_section_title
;
Structure prediction by ZEFSAII (Michael W. Deem and Ramdas Pophale) SiO2 
 PCOD9527615
Probable space group: I B A M
;
_chemical_formula_sum "Si O2"
_cell_formula_units_Z 104
_cell_length_a 7.191048
_cell_length_b 23.722624
_cell_length_c 27.459449
_cell_angle_alpha 90.000000
_cell_angle_beta 90.000000
_cell_angle_gamma 90.000000
_cell_volume 4684.321900
_symmetry_space_group_name_H-M "I B A M"
_symmetry_group_IT_number 72
_symmetry_cell_setting 'orthorhombic'
loop_
_space_group_symop_operation_xyz
x,y,z
-x,-y,z
x,-y,1/2-z
-x,y,1/2-z
-x,-y,-z
x,y,-z
-x,y,1/2+z
x,-y,1/2+z
1/2+x,1/2+y,1/2+z
1/2-x,1/2-y,1/2+z
1/2+x,1/2-y,-z
1/2-x,1/2+y,-z
1/2-x,1/2-y,1/2-z
1/2+x,1/2+y,1/2-z
1/2-x,1/2+y,z
1/2+x,1/2-y,z
loop_
_atom_site_type_symbol
_atom_site_label
_atom_site_fract_x
_atom_site_fract_y
_atom_site_fract_z
Si Si1 0.669956 0.916453 0.133301
Si Si2 0.185257 0.324403 0.444183
Si Si3 0.298019 0.387838 0.000000
Si Si4 0.686553 0.526289 0.083203
Si Si5 0.244658 0.694918 0.421903
Si Si6 0.761753 0.886967 0.341572
Si Si7 0.724033 0.064567 0.741889
O O1 0.742889 0.868644 0.096851
O O2 0.452704 0.904417 0.145547
O O3 0.761302 0.917877 0.186660
O O4 0.695341 0.975405 0.105393
O O5 0.230085 0.339378 0.500000
O O6 0.242507 0.261054 0.430562
O O7 0.959985 0.322699 0.440786
O O8 0.231006 0.432623 0.957175
O O9 0.368663 0.342684 0.957609
O O10 0.500000 0.500000 0.060698
O O11 0.627374 0.565776 0.128412
O O12 0.282373 0.673636 0.367206
O O13 0.796370 0.894933 0.284659
O O14 0.500000 0.064227 0.750000
O O15 0.784775 0.000000 0.750000
#
# Coordination Sequence:
#
# PCOD9527615 Si02
#       7
#    16  16   8  16  16  16  16
#     4  10  21  35  56  85 108 142 189 221 267 326
#     4  11  21  37  56  80 109 141 183 228 268 322
#     4  10  21  38  53  72 109 150 183 210 265 334
#     4  11  22  35  51  81 115 145 179 220 277 327
#     4  10  21  39  57  80 103 145 185 224 275 317
#     4   9  19  37  59  78 110 145 183 225 265 329
#     4   9  15  31  57  82 106 143 181 222 267 319
#
# _framework density 22.201720999999999
#
# number of rings (size 3 to 8) (size 9 to 14) (size 15 to 20)
#    0.000    2.000    3.077    0.692    1.077    2.462 
#    2.769    4.615    0.000    0.000    0.000    0.000 
#    0.000    0.000    0.000    0.000    0.000    0.000 
#
# Total GULP energy -289504.552562 kJ/mol
# GULP energy per Si atom -5567.395242 kJ/mol
# Density = 2.215119 g / cm^3
# Si number density = 22.201721 Si / 1000 Ang^3
#
#
#
# Elastic Constant Matrix: (Units=GPa)
#
#
# Indices 1 2 3 4 5 6 
#
# 1 54.3364 4.1276 16.8132 0.0000 0.0000 0.0000
# 2 4.1276 132.9332 116.1788 0.0000 0.0000 0.0000
# 3 16.8132 116.1788 243.4675 0.0000 0.0000 0.0000
# 4 0.0000 0.0000 0.0000 16.4720 0.0000 0.0000
# 5 0.0000 0.0000 0.0000 0.0000 6.4689 0.0000
# 6 0.0000 0.0000 0.0000 0.0000 0.0000 16.8653
#
#
#
# Elastic Compliance Matrix: (Units=1/GPa)
#
#
# Indices 1 2 3 4 5 6 
#
# 1 0.018875 0.000949 -0.001756 0.000000 0.000000 0.000000
# 2 0.000949 0.012952 -0.006246 0.000000 0.000000 0.000000
# 3 -0.001756 -0.006246 0.007209 0.000000 0.000000 0.000000
# 4 0.000000 0.000000 0.000000 0.060709 0.000000 0.000000
# 5 0.000000 0.000000 0.000000 0.000000 0.154587 0.000000
# 6 0.000000 0.000000 0.000000 0.000000 0.000000 0.059293
#
#
# Mechanical properties :
#
#
# Convention : Reuss Voigt Hill
#
# Bulk Modulus (GPa) = 40.11327 78.33070 59.22198
# Shear Modulus (GPa) = 14.87910 27.53572 21.20741
#
# Velocity S-wave (km/s) = 2.59159 3.52554 3.09401
# Velocity P-wave (km/s) = 5.20211 7.20628 6.28460
#
# Compressibility (1/GPa) = 0.02492941
#
# Stress axis : x y z
#
# Youngs Moduli (GPa) = 52.97948 77.20924 138.71440
#
# Poissons Ratio (x) = -0.07326 0.24361
# Poissons Ratio (y) = -0.05027 0.86640
# Poissons Ratio (z) = 0.09304 0.48224
#
# Static dielectric constant tensor:
#      x y z
#    x 2.012090 0.000000 0.000000 
#    y 0.000000 1.804010 0.000000 
#    z 0.000000 0.000000 1.798160 
# 
# From -- ./inp_files/47418.got.cif
#   From: 2010.05.17/outbox.cif.g08.bks.cpg/sg72_24_cif.got.tgz:47418.got - 2010.06.03 17:03:01.
