data_PCOD9527717
_publ_section_title
;
Structure prediction by ZEFSAII (Michael W. Deem and Ramdas Pophale) SiO2 
 PCOD9527717
Probable space group: I B A M
;
_chemical_formula_sum "Si O2"
_cell_formula_units_Z 64
_cell_length_a 9.606404
_cell_length_b 16.098750
_cell_length_c 17.086827
_cell_angle_alpha 90.000000
_cell_angle_beta 90.000000
_cell_angle_gamma 90.000000
_cell_volume 2642.496529
_symmetry_space_group_name_H-M "I B A M"
_symmetry_group_IT_number 72
_symmetry_cell_setting 'orthorhombic'
loop_
_space_group_symop_operation_xyz
x,y,z
-x,-y,z
x,-y,1/2-z
-x,y,1/2-z
-x,-y,-z
x,y,-z
-x,y,1/2+z
x,-y,1/2+z
1/2+x,1/2+y,1/2+z
1/2-x,1/2-y,1/2+z
1/2+x,1/2-y,-z
1/2-x,1/2+y,-z
1/2-x,1/2-y,1/2-z
1/2+x,1/2+y,1/2-z
1/2-x,1/2+y,z
1/2+x,1/2-y,z
loop_
_atom_site_type_symbol
_atom_site_label
_atom_site_fract_x
_atom_site_fract_y
_atom_site_fract_z
Si Si1 0.920988 0.248857 0.374754
Si Si2 0.843738 0.882506 0.242300
Si Si3 0.433184 0.082192 0.836285
Si Si4 0.321978 0.352932 0.082653
O O1 0.870788 0.210887 0.291361
O O2 0.782041 0.274658 0.418512
O O3 0.015467 0.331697 0.373136
O O4 0.019486 0.178191 0.410244
O O5 0.732081 0.920004 0.181884
O O6 0.787793 0.888343 0.331107
O O7 0.000000 0.916142 0.250000
O O8 0.500000 0.085704 0.750000
O O9 0.500000 0.000000 0.874933
O O10 0.303449 0.399354 0.000000
#
# Coordination Sequence:
#
# PCOD9527717 Si02
#       4
#    16  16  16  16
#     4  11  20  37  61  88 120 163 210 260 311 364
#     4  10  21  36  64  87 120 161 210 257 310 362
#     4  11  21  36  61  91 123 157 204 264 310 365
#     4  11  21  32  56  92 123 155 207 261 306 366
#
# _framework density 24.219521
#
# number of rings (size 3 to 8) (size 9 to 14) (size 15 to 20)
#    0.000    1.250    5.000    3.750    0.000    0.000 
#    0.000    2.500    0.000    5.250    0.000    7.000 
#    0.000    0.000    0.000    0.000    0.000    0.000 
#
# Total GULP energy -178353.847640 kJ/mol
# GULP energy per Si atom -5573.557739 kJ/mol
# Density = 2.416440 g / cm^3
# Si number density = 24.219521 Si / 1000 Ang^3
#
#
#
# Elastic Constant Matrix: (Units=GPa)
#
#
# Indices 1 2 3 4 5 6 
#
# 1 172.1615 16.9297 14.9284 0.0000 0.0000 0.0000
# 2 16.9297 104.6698 29.1868 0.0000 0.0000 0.0000
# 3 14.9284 29.1868 116.8334 0.0000 0.0000 0.0000
# 4 0.0000 0.0000 0.0000 -1.7549 0.0000 0.0000
# 5 0.0000 0.0000 0.0000 0.0000 -9.6685 0.0000
# 6 0.0000 0.0000 0.0000 0.0000 0.0000 1.2049
#
#
#
# Elastic Compliance Matrix: (Units=1/GPa)
#
#
# Indices 1 2 3 4 5 6 
#
# 1 0.005936 -0.000805 -0.000557 0.000000 0.000000 0.000000
# 2 -0.000805 0.010378 -0.002490 0.000000 0.000000 0.000000
# 3 -0.000557 -0.002490 0.009252 0.000000 0.000000 0.000000
# 4 0.000000 0.000000 0.000000 -0.569835 0.000000 0.000000
# 5 0.000000 0.000000 0.000000 0.000000 -0.103429 0.000000
# 6 0.000000 0.000000 0.000000 0.000000 0.000000 0.829967
#
#
# Mechanical properties :
#
#
# Convention : Reuss Voigt Hill
#
# Bulk Modulus (GPa) = 55.98238 57.30607 56.64422
# Shear Modulus (GPa) = 25.51957 20.13096 22.82526
#
# Velocity S-wave (km/s) = 3.24956 2.88616 3.07324
# Velocity P-wave (km/s) = 6.10281 5.90076 6.00264
#
# Compressibility (1/GPa) = 0.01786276
#
# Stress axis : x y z
#
# Youngs Moduli (GPa) = 168.46464 96.35506 108.07983
#
# Poissons Ratio (x) = 0.07753 0.06025
# Poissons Ratio (y) = 0.13556 0.26910
# Poissons Ratio (z) = 0.09391 0.23991
#
# Static dielectric constant tensor:
#      x y z
#    x 1.963410 0.000000 0.000000 
#    y 0.000000 2.040680 0.000000 
#    z 0.000000 0.000000 1.935470 
# 
# From -- ./inp_files/28964.got.cif
#   From: 2010.05.17/outbox.cif.g08.bks.cpg/sg72_15_cif.got.tgz:28964.got - 2010.06.03 17:03:01.
