data_PCOD9527525
_publ_section_title
;
Structure prediction by ZEFSAII (Michael W. Deem and Ramdas Pophale) SiO2 
 PCOD9527525
Probable space group: I B A M
;
_chemical_formula_sum "Si O2"
_cell_formula_units_Z 52
_cell_length_a 7.913591
_cell_length_b 17.809844
_cell_length_c 19.147421
_cell_angle_alpha 90.000000
_cell_angle_beta 90.000000
_cell_angle_gamma 90.000000
_cell_volume 2698.634092
_symmetry_space_group_name_H-M "I B A M"
_symmetry_group_IT_number 72
_symmetry_cell_setting 'orthorhombic'
loop_
_space_group_symop_operation_xyz
x,y,z
-x,-y,z
x,-y,1/2-z
-x,y,1/2-z
-x,-y,-z
x,y,-z
-x,y,1/2+z
x,-y,1/2+z
1/2+x,1/2+y,1/2+z
1/2-x,1/2-y,1/2+z
1/2+x,1/2-y,-z
1/2-x,1/2+y,-z
1/2-x,1/2-y,1/2-z
1/2+x,1/2+y,1/2-z
1/2-x,1/2+y,z
1/2+x,1/2-y,z
loop_
_atom_site_type_symbol
_atom_site_label
_atom_site_fract_x
_atom_site_fract_y
_atom_site_fract_z
Si Si1 0.731473 0.455363 0.870834
Si Si2 0.576971 0.899544 0.418701
Si Si3 0.251203 0.217071 0.500000
Si Si4 0.899959 0.129984 0.500000
Si Si5 0.500000 0.500000 0.750000
O O1 0.789462 0.540584 0.888612
O O2 0.619978 0.421596 0.932842
O O3 0.624356 0.453748 0.800561
O O4 0.907441 0.409093 0.874134
O O5 0.541000 0.922381 0.500000
O O6 0.652884 0.817115 0.431914
O O7 0.254296 0.306048 0.500000
O O8 0.070329 0.177874 0.500000
#
# Coordination Sequence:
#
# PCOD9527525 Si02
#       5
#    16  16   8   8   4
#     4  11  20  38  57  82 120 148 194 231 287 328
#     4   9  18  37  61  90 107 147 187 253 279 330
#     4  10  21  30  59  98 106 140 190 248 303 312
#     4  12  19  36  61  85 120 144 190 251 271 354
#     4  12  28  32  52  92 116 164 184 230 280 356
#
# _framework density 19.269007999999999
#
# number of rings (size 3 to 8) (size 9 to 14) (size 15 to 20)
#    0.923    0.615    3.077    4.615    0.000    4.308 
#    0.000    0.000    0.000   16.615    0.000    0.000 
#    0.000    0.000    0.000    0.000    0.000    0.000 
#
# Total GULP energy -144954.759772 kJ/mol
# GULP energy per Si atom -5575.183068 kJ/mol
# Density = 1.922515 g / cm^3
# Si number density = 19.269008 Si / 1000 Ang^3
#
#
#
# Elastic Constant Matrix: (Units=GPa)
#
#
# Indices 1 2 3 4 5 6 
#
# 1 114.7236 17.8428 58.0789 0.0000 0.0000 0.0000
# 2 17.8428 61.8253 35.4996 0.0000 0.0000 0.0000
# 3 58.0789 35.4996 116.9328 0.0000 0.0000 0.0000
# 4 0.0000 0.0000 0.0000 -4.6974 0.0000 0.0000
# 5 0.0000 0.0000 0.0000 0.0000 -22.3740 0.0000
# 6 0.0000 0.0000 0.0000 0.0000 0.0000 34.9203
#
#
#
# Elastic Compliance Matrix: (Units=1/GPa)
#
#
# Indices 1 2 3 4 5 6 
#
# 1 0.011645 -0.000048 -0.005769 0.000000 0.000000 0.000000
# 2 -0.000048 0.019590 -0.005923 0.000000 0.000000 0.000000
# 3 -0.005769 -0.005923 0.013216 0.000000 0.000000 0.000000
# 4 0.000000 0.000000 0.000000 -0.212884 0.000000 0.000000
# 5 0.000000 0.000000 0.000000 0.000000 -0.044695 0.000000
# 6 0.000000 0.000000 0.000000 0.000000 0.000000 0.028637
#
#
# Mechanical properties :
#
#
# Convention : Reuss Voigt Hill
#
# Bulk Modulus (GPa) = 47.68978 57.36936 52.52957
# Shear Modulus (GPa) = -32.46295 13.70716 -9.37790
#
# Velocity S-wave (km/s) = -4.10899 2.67002 -2.20848
# Velocity P-wave (km/s) = 1.51376 6.27239 4.56258
#
# Compressibility (1/GPa) = 0.02096886
#
# Stress axis : x y z
#
# Youngs Moduli (GPa) = 85.87570 51.04743 75.66775
#
# Poissons Ratio (x) = 0.00245 0.43654
# Poissons Ratio (y) = 0.00413 0.44821
# Poissons Ratio (z) = 0.49543 0.30237
#
# Static dielectric constant tensor:
#      x y z
#    x 1.788160 0.000000 0.000000 
#    y 0.000000 1.657570 0.000000 
#    z 0.000000 0.000000 1.630450 
# 
# From -- ./inp_files/27456.got.cif
#   From: 2010.05.17/outbox.cif.g08.bks.cpg/sg72_14_cif.got.tgz:27456.got - 2010.06.03 17:03:01.
