data_PCOD9527257
_publ_section_title
;
Structure prediction by ZEFSAII (Michael W. Deem and Ramdas Pophale) SiO2 
 PCOD9527257
Probable space group: I B A M
;
_chemical_formula_sum "Si O2"
_cell_formula_units_Z 40
_cell_length_a 9.902652
_cell_length_b 9.610522
_cell_length_c 18.473676
_cell_angle_alpha 90.000000
_cell_angle_beta 90.000000
_cell_angle_gamma 90.000000
_cell_volume 1758.133370
_symmetry_space_group_name_H-M "I B A M"
_symmetry_group_IT_number 72
_symmetry_cell_setting 'orthorhombic'
loop_
_space_group_symop_operation_xyz
x,y,z
-x,-y,z
x,-y,1/2-z
-x,y,1/2-z
-x,-y,-z
x,y,-z
-x,y,1/2+z
x,-y,1/2+z
1/2+x,1/2+y,1/2+z
1/2-x,1/2-y,1/2+z
1/2+x,1/2-y,-z
1/2-x,1/2+y,-z
1/2-x,1/2-y,1/2-z
1/2+x,1/2+y,1/2-z
1/2-x,1/2+y,z
1/2+x,1/2-y,z
loop_
_atom_site_type_symbol
_atom_site_label
_atom_site_fract_x
_atom_site_fract_y
_atom_site_fract_z
Si Si1 0.000000 0.500000 0.872419
Si Si2 0.315537 0.768078 0.328086
Si Si3 0.708477 0.494989 0.418206
O O1 0.943615 0.370896 0.826809
O O2 0.869242 0.540747 0.918219
O O3 0.250000 0.750000 0.250000
O O4 0.352151 0.623379 0.366642
O O5 0.211800 0.855066 0.379550
O O6 0.657890 0.495666 0.500000
#
# Coordination Sequence:
#
# PCOD9527257 Si02
#       3
#     8  16  16
#     4   8  23  37  64  92 136 170 214 258 342 368
#     4  10  21  37  62  94 129 173 217 266 323 386
#     4  10  20  37  62  92 131 174 219 264 320 386
#
# _framework density 22.751401999999999
#
# number of rings (size 3 to 8) (size 9 to 14) (size 15 to 20)
#    2.400    0.000    0.000    3.000    0.000    3.200 
#    0.000    2.000    0.000    9.600    0.000    0.000 
#    0.000    0.000    0.000    0.000    0.000    0.000 
#
# Total GULP energy -111448.966835 kJ/mol
# GULP energy per Si atom -5572.448342 kJ/mol
# Density = 2.269962 g / cm^3
# Si number density = 22.751402 Si / 1000 Ang^3
#
#
#
# Elastic Constant Matrix: (Units=GPa)
#
#
# Indices 1 2 3 4 5 6 
#
# 1 73.8956 -11.1206 1.3506 0.0000 0.0000 0.0000
# 2 -11.1206 105.1562 37.0947 0.0000 0.0000 0.0000
# 3 1.3506 37.0947 179.7201 0.0000 0.0000 0.0000
# 4 0.0000 0.0000 0.0000 13.4777 0.0000 0.0000
# 5 0.0000 0.0000 0.0000 0.0000 17.5115 0.0000
# 6 0.0000 0.0000 0.0000 0.0000 0.0000 52.9160
#
#
#
# Elastic Compliance Matrix: (Units=1/GPa)
#
#
# Indices 1 2 3 4 5 6 
#
# 1 0.013783 0.001611 -0.000436 0.000000 0.000000 0.000000
# 2 0.001611 0.010445 -0.002168 0.000000 0.000000 0.000000
# 3 -0.000436 -0.002168 0.006015 0.000000 0.000000 0.000000
# 4 0.000000 0.000000 0.000000 0.074197 0.000000 0.000000
# 5 0.000000 0.000000 0.000000 0.000000 0.057105 0.000000
# 6 0.000000 0.000000 0.000000 0.000000 0.000000 0.018898
#
#
# Mechanical properties :
#
#
# Convention : Reuss Voigt Hill
#
# Bulk Modulus (GPa) = 35.38878 45.93571 40.66225
# Shear Modulus (GPa) = 26.06238 38.87751 32.46995
#
# Velocity S-wave (km/s) = 3.38824 4.13824 3.78188
# Velocity P-wave (km/s) = 5.55834 6.56258 6.08123
#
# Compressibility (1/GPa) = 0.02825754
#
# Stress axis : x y z
#
# Youngs Moduli (GPa) = 72.55269 95.74104 166.25221
#
# Poissons Ratio (x) = -0.15428 0.07252
# Poissons Ratio (y) = -0.11692 0.36043
# Poissons Ratio (z) = 0.03165 0.20756
#
# Static dielectric constant tensor:
#      x y z
#    x 1.927690 0.000000 0.000000 
#    y 0.000000 1.842010 0.000000 
#    z 0.000000 0.000000 1.823250 
# 
# From -- ./inp_files/36361.got.cif
#   From: 2010.05.17/outbox.cif.g08.bks.cpg/sg72_19_cif.got.tgz:36361.got - 2010.06.03 17:03:01.
