data_PCOD9527588
_publ_section_title
;
Structure prediction by ZEFSAII (Michael W. Deem and Ramdas Pophale) SiO2 
 PCOD9527588
Probable space group: I B A M
;
_chemical_formula_sum "Si O2"
_cell_formula_units_Z 116
_cell_length_a 22.777514
_cell_length_b 19.332022
_cell_length_c 13.423957
_cell_angle_alpha 90.000000
_cell_angle_beta 90.000000
_cell_angle_gamma 90.000000
_cell_volume 5911.043499
_symmetry_space_group_name_H-M "I B A M"
_symmetry_group_IT_number 72
_symmetry_cell_setting 'orthorhombic'
loop_
_space_group_symop_operation_xyz
x,y,z
-x,-y,z
x,-y,1/2-z
-x,y,1/2-z
-x,-y,-z
x,y,-z
-x,y,1/2+z
x,-y,1/2+z
1/2+x,1/2+y,1/2+z
1/2-x,1/2-y,1/2+z
1/2+x,1/2-y,-z
1/2-x,1/2+y,-z
1/2-x,1/2-y,1/2-z
1/2+x,1/2+y,1/2-z
1/2-x,1/2+y,z
1/2+x,1/2-y,z
loop_
_atom_site_type_symbol
_atom_site_label
_atom_site_fract_x
_atom_site_fract_y
_atom_site_fract_z
Si Si1 0.612110 0.641609 0.879754
Si Si2 0.232267 0.117688 0.121126
Si Si3 0.374862 0.280428 0.621357
Si Si4 0.687267 0.764802 0.116524
Si Si5 0.475090 0.617989 0.117900
Si Si6 0.215850 0.040298 0.377999
Si Si7 0.201385 0.660011 0.383053
Si Si8 0.500000 0.500000 0.250000
O O1 0.635426 0.716324 0.842778
O O2 0.543828 0.629964 0.861710
O O3 0.656216 0.580459 0.847612
O O4 0.618316 0.643975 0.000000
O O5 0.175483 0.163540 0.145943
O O6 0.288499 0.162488 0.157671
O O7 0.223295 0.038966 0.152934
O O8 0.236039 0.117084 0.000000
O O9 0.375181 0.275975 0.500000
O O10 0.436052 0.316433 0.648090
O O11 0.353587 0.204658 0.656342
O O12 0.743866 0.713945 0.120928
O O13 0.673726 0.777447 0.000000
O O14 0.461290 0.548412 0.178078
O O15 0.466535 0.606213 0.000000
O O16 0.214839 0.039928 0.500000
O O17 0.271039 0.088156 0.347016
O O18 0.188905 0.647710 0.500000
#
# Coordination Sequence:
#
# PCOD9527588 Si02
#       8
#    16  16  16  16  16  16  16   4
#     4   8  14  24  39  57  80 113 149 181 214 257
#     4   8  12  17  30  56  87 112 139 180 224 263
#     4   8  14  24  39  57  80 113 149 181 214 257
#     4   7  10  18  31  51  79 108 141 180 217 257
#     4  10  21  35  49  64  88 121 154 184 219 257
#     4   8  12  17  30  56  87 112 139 180 224 263
#     4   7  10  18  31  51  79 108 141 180 217 257
#     4  12  26  36  44  66  96 120 152 188 216 260
#
# _framework density 19.624285
#
# number of rings (size 3 to 8) (size 9 to 14) (size 15 to 20)
#    0.000    3.862    0.000    3.517    1.931    0.000 
#    0.000    0.000    0.000    0.000    0.000    9.655 
#    0.000    7.724    0.000    1.241    0.000    3.034 
#
# Total GULP energy -323472.230909 kJ/mol
# GULP energy per Si atom -5577.107429 kJ/mol
# Density = 1.957962 g / cm^3
# Si number density = 19.624285 Si / 1000 Ang^3
#
#
#
# Elastic Constant Matrix: (Units=GPa)
#
#
# Indices 1 2 3 4 5 6 
#
# 1 89.8384 77.6916 24.1295 0.0000 0.0000 0.0000
# 2 77.6916 142.6704 20.7900 0.0000 0.0000 0.0000
# 3 24.1295 20.7900 73.9333 0.0000 0.0000 0.0000
# 4 0.0000 0.0000 0.0000 37.0411 0.0000 0.0000
# 5 0.0000 0.0000 0.0000 0.0000 13.3172 0.0000
# 6 0.0000 0.0000 0.0000 0.0000 0.0000 24.2348
#
#
#
# Elastic Compliance Matrix: (Units=1/GPa)
#
#
# Indices 1 2 3 4 5 6 
#
# 1 0.022115 -0.011461 -0.003995 0.000000 0.000000 0.000000
# 2 -0.011461 0.013248 0.000015 0.000000 0.000000 0.000000
# 3 -0.003995 0.000015 0.014825 0.000000 0.000000 0.000000
# 4 0.000000 0.000000 0.000000 0.026997 0.000000 0.000000
# 5 0.000000 0.000000 0.000000 0.000000 0.075091 0.000000
# 6 0.000000 0.000000 0.000000 0.000000 0.000000 0.041263
#
#
# Mechanical properties :
#
#
# Convention : Reuss Voigt Hill
#
# Bulk Modulus (GPa) = 51.79399 61.29606 56.54502
# Shear Modulus (GPa) = 21.65847 27.17401 24.41624
#
# Velocity S-wave (km/s) = 3.32574 3.72521 3.53113
# Velocity P-wave (km/s) = 6.41853 7.05730 6.74548
#
# Compressibility (1/GPa) = 0.01930726
#
# Stress axis : x y z
#
# Youngs Moduli (GPa) = 45.21744 75.48311 67.45230
#
# Poissons Ratio (x) = 0.86510 0.26947
# Poissons Ratio (y) = 0.51823 -0.00102
# Poissons Ratio (z) = 0.18064 -0.00114
#
# Static dielectric constant tensor:
#      x y z
#    x 1.673590 0.000000 0.000000 
#    y 0.000000 1.711430 0.000000 
#    z 0.000000 0.000000 1.826230 
# 
# From -- ./inp_files/25413.got.cif
#   From: 2010.05.17/outbox.cif.g08.bks.cpg/sg72_13_cif.got.tgz:25413.got - 2010.06.03 17:03:01.
