data_PCOD9527404
_publ_section_title
;
Structure prediction by ZEFSAII (Michael W. Deem and Ramdas Pophale) SiO2 
 PCOD9527404
Probable space group: I B A M
;
_chemical_formula_sum "Si O2"
_cell_formula_units_Z 96
_cell_length_a 9.168018
_cell_length_b 23.990742
_cell_length_c 22.592454
_cell_angle_alpha 90.000000
_cell_angle_beta 90.000000
_cell_angle_gamma 90.000000
_cell_volume 4969.155007
_symmetry_space_group_name_H-M "I B A M"
_symmetry_group_IT_number 72
_symmetry_cell_setting 'orthorhombic'
loop_
_space_group_symop_operation_xyz
x,y,z
-x,-y,z
x,-y,1/2-z
-x,y,1/2-z
-x,-y,-z
x,y,-z
-x,y,1/2+z
x,-y,1/2+z
1/2+x,1/2+y,1/2+z
1/2-x,1/2-y,1/2+z
1/2+x,1/2-y,-z
1/2-x,1/2+y,-z
1/2-x,1/2-y,1/2-z
1/2+x,1/2+y,1/2-z
1/2-x,1/2+y,z
1/2+x,1/2-y,z
loop_
_atom_site_type_symbol
_atom_site_label
_atom_site_fract_x
_atom_site_fract_y
_atom_site_fract_z
Si Si1 0.713152 0.059837 0.000000
Si Si2 0.612829 0.291148 0.696777
Si Si3 0.326489 0.485828 0.185683
Si Si4 0.224512 0.909522 0.618356
Si Si5 0.359848 0.167395 0.780702
Si Si6 0.884116 0.887294 0.388692
Si Si7 0.636293 0.930487 0.000000
O O1 0.790814 0.090275 0.944015
O O2 0.538439 0.066689 0.000000
O O3 0.719568 0.991527 0.000000
O O4 0.500000 0.307210 0.750000
O O5 0.595372 0.225221 0.686933
O O6 0.763673 0.308506 0.727145
O O7 0.606850 0.324454 0.635300
O O8 0.500000 0.500000 0.186156
O O9 0.268394 0.500000 0.250000
O O10 0.252807 0.526751 0.139057
O O11 0.319750 0.422338 0.166748
O O12 0.272829 0.871108 0.673443
O O13 0.314416 0.899516 0.559362
O O14 0.053525 0.903623 0.603653
O O15 0.500000 0.139667 0.750000
#
# Coordination Sequence:
#
# PCOD9527404 Si02
#       7
#     8  16  16  16  16  16   8
#     4  11  25  43  58  85 122 171 202 254 309 372
#     4  10  20  39  62  93 126 161 203 249 306 375
#     4   9  18  30  55  90 118 145 192 253 300 349
#     4  11  21  39  61  89 119 162 209 251 298 368
#     4  10  22  37  62  93 129 165 197 248 318 370
#     4  11  21  37  65  87 118 159 213 252 295 363
#     4  11  25  43  58  83 128 165 204 248 319 374
#
# _framework density 19.319179999999999
#
# number of rings (size 3 to 8) (size 9 to 14) (size 15 to 20)
#    0.000    1.667    3.333    1.500    4.667    0.667 
#    0.000    0.833    0.000    0.000    0.000    0.000 
#    0.000    0.000    0.000    0.000    0.000    0.000 
#
# Total GULP energy -267427.771606 kJ/mol
# GULP energy per Si atom -5571.411908 kJ/mol
# Density = 1.927521 g / cm^3
# Si number density = 19.319180 Si / 1000 Ang^3
#
#
#
# Elastic Constant Matrix: (Units=GPa)
#
#
# Indices 1 2 3 4 5 6 
#
# 1 78.1304 6.7475 21.9073 0.0000 0.0000 0.0000
# 2 6.7475 69.0469 13.4152 0.0000 0.0000 0.0000
# 3 21.9073 13.4152 74.2973 0.0000 0.0000 0.0000
# 4 0.0000 0.0000 0.0000 13.1961 0.0000 0.0000
# 5 0.0000 0.0000 0.0000 0.0000 26.5472 0.0000
# 6 0.0000 0.0000 0.0000 0.0000 0.0000 19.6553
#
#
#
# Elastic Compliance Matrix: (Units=1/GPa)
#
#
# Indices 1 2 3 4 5 6 
#
# 1 0.013975 -0.000586 -0.004015 0.000000 0.000000 0.000000
# 2 -0.000586 0.015034 -0.002542 0.000000 0.000000 0.000000
# 3 -0.004015 -0.002542 0.015102 0.000000 0.000000 0.000000
# 4 0.000000 0.000000 0.000000 0.075780 0.000000 0.000000
# 5 0.000000 0.000000 0.000000 0.000000 0.037669 0.000000
# 6 0.000000 0.000000 0.000000 0.000000 0.000000 0.050877
#
#
# Mechanical properties :
#
#
# Convention : Reuss Voigt Hill
#
# Bulk Modulus (GPa) = 33.52709 33.95716 33.74213
# Shear Modulus (GPa) = 21.49016 23.84003 22.66509
#
# Velocity S-wave (km/s) = 3.33885 3.51666 3.42890
# Velocity P-wave (km/s) = 5.67942 5.83988 5.76021
#
# Compressibility (1/GPa) = 0.02982663
#
# Stress axis : x y z
#
# Youngs Moduli (GPa) = 71.55383 66.51588 66.21512
#
# Poissons Ratio (x) = 0.03895 0.26586
# Poissons Ratio (y) = 0.04191 0.16831
# Poissons Ratio (z) = 0.28729 0.16907
#
# Static dielectric constant tensor:
#      x y z
#    x 1.709030 0.000000 0.000000 
#    y 0.000000 1.714020 0.000000 
#    z 0.000000 0.000000 1.684110 
# 
# From -- ./inp_files/42492.got.cif
#   From: 2010.05.17/outbox.cif.g08.bks.cpg/sg72_22_cif.got.tgz:42492.got - 2010.06.03 17:03:01.
