data_PCOD9527883
_publ_section_title
;
Structure prediction by ZEFSAII (Michael W. Deem and Ramdas Pophale) SiO2 
 PCOD9527883
Probable space group: I B A M
;
_chemical_formula_sum "Si O2"
_cell_formula_units_Z 112
_cell_length_a 28.573758
_cell_length_b 14.014523
_cell_length_c 13.836066
_cell_angle_alpha 90.000000
_cell_angle_beta 90.000000
_cell_angle_gamma 90.000000
_cell_volume 5540.619267
_symmetry_space_group_name_H-M "I B A M"
_symmetry_group_IT_number 72
_symmetry_cell_setting 'orthorhombic'
loop_
_space_group_symop_operation_xyz
x,y,z
-x,-y,z
x,-y,1/2-z
-x,y,1/2-z
-x,-y,-z
x,y,-z
-x,y,1/2+z
x,-y,1/2+z
1/2+x,1/2+y,1/2+z
1/2-x,1/2-y,1/2+z
1/2+x,1/2-y,-z
1/2-x,1/2+y,-z
1/2-x,1/2-y,1/2-z
1/2+x,1/2+y,1/2-z
1/2-x,1/2+y,z
1/2+x,1/2-y,z
loop_
_atom_site_type_symbol
_atom_site_label
_atom_site_fract_x
_atom_site_fract_y
_atom_site_fract_z
Si Si1 0.330591 0.921883 0.884357
Si Si2 0.964039 0.148854 0.383540
Si Si3 0.838750 0.104449 0.216887
Si Si4 0.827858 0.355817 0.116656
Si Si5 0.385256 0.769448 0.214286
Si Si6 0.743371 0.297007 0.613554
Si Si7 0.063895 0.929015 0.885281
O O1 0.375262 0.863621 0.847835
O O2 0.287761 0.855488 0.848393
O O3 0.327622 0.032686 0.856789
O O4 0.329936 0.922278 0.000000
O O5 0.958884 0.166178 0.500000
O O6 0.934000 0.223923 0.321819
O O7 0.019130 0.136522 0.361352
O O8 0.945940 0.040659 0.364498
O O9 0.847330 0.182743 0.301099
O O10 0.801120 0.139100 0.140596
O O11 0.889575 0.099431 0.168540
O O12 0.825606 0.000000 0.250000
O O13 0.869482 0.304390 0.177621
O O14 0.777564 0.306584 0.142051
O O15 0.834444 0.345405 0.000000
O O16 0.751115 0.290131 0.500000
O O17 0.070299 0.922007 0.000000
#
# Coordination Sequence:
#
# PCOD9527883 Si02
#       7
#    16  16  16  16  16  16  16
#     4  10  21  38  59  85 118 157 203 257 307 356
#     4   9  18  34  56  84 116 154 196 236 293 360
#     4  11  21  32  49  83 118 155 201 239 297 358
#     4   9  20  38  57  80 114 158 202 245 305 361
#     4  11  21  34  55  83 115 153 200 248 290 353
#     4   9  20  37  56  79 111 154 204 248 296 358
#     4   9  18  35  55  78 118 160 191 237 298 358
#
# _framework density 20.214347
#
# number of rings (size 3 to 8) (size 9 to 14) (size 15 to 20)
#    0.000    2.286    1.429    2.143    0.000    5.714 
#    0.000    1.429    0.000    0.000    0.000   19.000 
#    0.000   42.286    0.000    0.000    0.000    0.000 
#
# Total GULP energy -312115.257990 kJ/mol
# GULP energy per Si atom -5573.486750 kJ/mol
# Density = 2.016834 g / cm^3
# Si number density = 20.214347 Si / 1000 Ang^3
#
#
#
# Elastic Constant Matrix: (Units=GPa)
#
#
# Indices 1 2 3 4 5 6 
#
# 1 64.1914 25.5338 14.3601 0.0000 0.0000 0.0000
# 2 25.5338 141.9337 35.9026 0.0000 0.0000 0.0000
# 3 14.3601 35.9026 70.2633 0.0000 0.0000 0.0000
# 4 0.0000 0.0000 0.0000 33.2213 0.0000 0.0000
# 5 0.0000 0.0000 0.0000 0.0000 12.6491 0.0000
# 6 0.0000 0.0000 0.0000 0.0000 0.0000 4.9087
#
#
#
# Elastic Compliance Matrix: (Units=1/GPa)
#
#
# Indices 1 2 3 4 5 6 
#
# 1 0.017071 -0.002513 -0.002205 0.000000 0.000000 0.000000
# 2 -0.002513 0.008461 -0.003810 0.000000 0.000000 0.000000
# 3 -0.002205 -0.003810 0.016629 0.000000 0.000000 0.000000
# 4 0.000000 0.000000 0.000000 0.030101 0.000000 0.000000
# 5 0.000000 0.000000 0.000000 0.000000 0.079057 0.000000
# 6 0.000000 0.000000 0.000000 0.000000 0.000000 0.203721
#
#
# Mechanical properties :
#
#
# Convention : Reuss Voigt Hill
#
# Bulk Modulus (GPa) = 39.83058 47.55349 43.69203
# Shear Modulus (GPa) = 13.14174 23.52859 18.33516
#
# Velocity S-wave (km/s) = 2.55251 3.41538 3.01497
# Velocity P-wave (km/s) = 5.33235 6.25530 5.81217
#
# Compressibility (1/GPa) = 0.02510634
#
# Stress axis : x y z
#
# Youngs Moduli (GPa) = 58.57743 118.18327 60.13411
#
# Poissons Ratio (x) = 0.29705 0.13258
# Poissons Ratio (y) = 0.14723 0.22910
# Poissons Ratio (z) = 0.12914 0.45026
#
# Static dielectric constant tensor:
#      x y z
#    x 1.723630 0.000000 0.000000 
#    y 0.000000 1.745870 0.000000 
#    z 0.000000 0.000000 1.784100 
# 
# From -- ./inp_files/25207.got.cif
#   From: 2010.05.17/outbox.cif.g08.bks.cpg/sg72_13_cif.got.tgz:25207.got - 2010.06.03 17:03:01.
