data_PCOD9527530
_publ_section_title
;
Structure prediction by ZEFSAII (Michael W. Deem and Ramdas Pophale) SiO2 
 PCOD9527530
Probable space group: I B A M
;
_chemical_formula_sum "Si O2"
_cell_formula_units_Z 96
_cell_length_a 15.762877
_cell_length_b 14.073621
_cell_length_c 22.968237
_cell_angle_alpha 90.000000
_cell_angle_beta 90.000000
_cell_angle_gamma 90.000000
_cell_volume 5095.291078
_symmetry_space_group_name_H-M "I B A M"
_symmetry_group_IT_number 72
_symmetry_cell_setting 'orthorhombic'
loop_
_space_group_symop_operation_xyz
x,y,z
-x,-y,z
x,-y,1/2-z
-x,y,1/2-z
-x,-y,-z
x,y,-z
-x,y,1/2+z
x,-y,1/2+z
1/2+x,1/2+y,1/2+z
1/2-x,1/2-y,1/2+z
1/2+x,1/2-y,-z
1/2-x,1/2+y,-z
1/2-x,1/2-y,1/2-z
1/2+x,1/2+y,1/2-z
1/2-x,1/2+y,z
1/2+x,1/2-y,z
loop_
_atom_site_type_symbol
_atom_site_label
_atom_site_fract_x
_atom_site_fract_y
_atom_site_fract_z
Si Si1 0.135368 0.062452 0.000000
Si Si2 0.357068 0.385504 0.622799
Si Si3 0.029309 0.222839 0.623949
Si Si4 0.559820 0.639793 0.000000
Si Si5 0.950218 0.399571 0.196638
Si Si6 0.239470 0.360365 0.265882
Si Si7 0.384237 0.559907 0.306332
O O1 0.177733 0.102206 0.058187
O O2 0.037461 0.100051 0.000000
O O3 0.124153 0.948989 0.000000
O O4 0.430644 0.307248 0.623646
O O5 0.291691 0.369720 0.674261
O O6 0.395508 0.488605 0.639803
O O7 0.066905 0.196807 0.560607
O O8 0.043209 0.331358 0.641412
O O9 0.071087 0.156593 0.674242
O O10 0.853662 0.399532 0.219665
O O11 0.000000 0.500000 0.187914
O O12 0.000000 0.350652 0.250000
O O13 0.250000 0.250000 0.250000
O O14 0.288220 0.414120 0.213248
O O15 0.414379 0.500000 0.250000
#
# Coordination Sequence:
#
# PCOD9527530 Si02
#       7
#     8  16  16   8  16  16  16
#     4   9  16  34  53  93 124 157 182 245 314 383
#     4  10  21  33  61  89 128 152 194 251 319 370
#     4  11  20  39  59  95 122 164 195 259 305 380
#     4   9  18  32  60  85 127 155 199 236 314 369
#     4  11  26  42  62  84 121 167 215 250 312 377
#     4  11  22  40  58  89 122 164 205 264 308 372
#     4  10  21  31  58  92 126 150 196 254 319 370
#
# _framework density 18.840924999999999
#
# number of rings (size 3 to 8) (size 9 to 14) (size 15 to 20)
#    0.000    1.667    3.333    1.500    9.333    2.000 
#    0.000    1.250    0.000    0.000    0.000    0.000 
#    0.000    0.000    0.000    0.000    0.000    0.000 
#
# Total GULP energy -267519.822866 kJ/mol
# GULP energy per Si atom -5573.329643 kJ/mol
# Density = 1.879804 g / cm^3
# Si number density = 18.840925 Si / 1000 Ang^3
#
#
#
# Elastic Constant Matrix: (Units=GPa)
#
#
# Indices 1 2 3 4 5 6 
#
# 1 97.0291 24.6680 21.0050 0.0000 0.0000 0.0000
# 2 24.6680 108.3861 34.5600 0.0000 0.0000 0.0000
# 3 21.0050 34.5600 117.0013 0.0000 0.0000 0.0000
# 4 0.0000 0.0000 0.0000 32.9915 0.0000 0.0000
# 5 0.0000 0.0000 0.0000 0.0000 13.3000 0.0000
# 6 0.0000 0.0000 0.0000 0.0000 0.0000 16.7686
#
#
#
# Elastic Compliance Matrix: (Units=1/GPa)
#
#
# Indices 1 2 3 4 5 6 
#
# 1 0.011138 -0.002095 -0.001381 0.000000 0.000000 0.000000
# 2 -0.002095 0.010580 -0.002749 0.000000 0.000000 0.000000
# 3 -0.001381 -0.002749 0.009607 0.000000 0.000000 0.000000
# 4 0.000000 0.000000 0.000000 0.030311 0.000000 0.000000
# 5 0.000000 0.000000 0.000000 0.000000 0.075188 0.000000
# 6 0.000000 0.000000 0.000000 0.000000 0.000000 0.059635
#
#
# Mechanical properties :
#
#
# Convention : Reuss Voigt Hill
#
# Bulk Modulus (GPa) = 52.97943 53.65361 53.31652
# Shear Modulus (GPa) = 23.23436 28.75758 25.99597
#
# Velocity S-wave (km/s) = 3.51548 3.91107 3.71854
# Velocity P-wave (km/s) = 6.68271 6.99531 6.84079
#
# Compressibility (1/GPa) = 0.01887525
#
# Stress axis : x y z
#
# Youngs Moduli (GPa) = 89.78577 94.52225 104.09297
#
# Poissons Ratio (x) = 0.19798 0.14373
# Poissons Ratio (y) = 0.18806 0.28615
# Poissons Ratio (z) = 0.12398 0.25984
#
# Static dielectric constant tensor:
#      x y z
#    x 1.686780 0.000000 0.000000 
#    y 0.000000 1.727770 0.000000 
#    z 0.000000 0.000000 1.722030 
# 
# From -- ./inp_files/44302.got.cif
#   From: 2010.05.17/outbox.cif.g08.bks.cpg/sg72_23_cif.got.tgz:44302.got - 2010.06.03 17:03:01.
