data_PCOD9527725
_publ_section_title
;
Structure prediction by ZEFSAII (Michael W. Deem and Ramdas Pophale) SiO2 
 PCOD9527725
Probable space group: I B A M
;
_chemical_formula_sum "Si O2"
_cell_formula_units_Z 112
_cell_length_a 25.966447
_cell_length_b 14.954250
_cell_length_c 14.047271
_cell_angle_alpha 90.000000
_cell_angle_beta 90.000000
_cell_angle_gamma 90.000000
_cell_volume 5454.678103
_symmetry_space_group_name_H-M "I B A M"
_symmetry_group_IT_number 72
_symmetry_cell_setting 'orthorhombic'
loop_
_space_group_symop_operation_xyz
x,y,z
-x,-y,z
x,-y,1/2-z
-x,y,1/2-z
-x,-y,-z
x,y,-z
-x,y,1/2+z
x,-y,1/2+z
1/2+x,1/2+y,1/2+z
1/2-x,1/2-y,1/2+z
1/2+x,1/2-y,-z
1/2-x,1/2+y,-z
1/2-x,1/2-y,1/2-z
1/2+x,1/2+y,1/2-z
1/2-x,1/2+y,z
1/2+x,1/2-y,z
loop_
_atom_site_type_symbol
_atom_site_label
_atom_site_fract_x
_atom_site_fract_y
_atom_site_fract_z
Si Si1 0.607384 0.129337 0.769520
Si Si2 0.766574 0.985798 0.614270
Si Si3 0.273622 0.852289 0.746685
Si Si4 0.061936 0.199700 0.762305
Si Si5 0.060023 0.526668 0.888938
Si Si6 0.447426 0.458371 0.395098
Si Si7 0.629908 0.379665 0.605085
O O1 0.664878 0.147148 0.732251
O O2 0.583131 0.215613 0.818435
O O3 0.597703 0.047421 0.841633
O O4 0.571292 0.110864 0.677794
O O5 0.765142 0.999088 0.500000
O O6 0.729306 0.908143 0.654045
O O7 0.820123 0.934556 0.640227
O O8 0.753768 0.079088 0.670141
O O9 0.250000 0.750000 0.750000
O O10 0.073592 0.112354 0.822881
O O11 0.099141 0.189522 0.670671
O O12 0.000000 0.204139 0.750000
O O13 0.000000 0.500000 0.878243
O O14 0.070645 0.539711 0.000000
O O15 0.500000 0.500000 0.358835
O O16 0.457326 0.418407 0.500000
O O17 0.410223 0.540609 0.404782
O O18 0.642317 0.341961 0.500000
#
# Coordination Sequence:
#
# PCOD9527725 Si02
#       7
#    16  16  16  16  16  16  16
#     4  11  24  40  61  94 123 158 207 255 310 369
#     4  10  23  44  69  90 120 165 212 263 320 376
#     4  11  25  42  64  95 128 163 211 270 318 371
#     4  12  23  35  61  91 126 167 199 243 299 363
#     4  10  21  42  68  90 122 161 200 256 318 373
#     4  10  21  37  55  84 123 162 203 239 283 353
#     4  10  22  38  59  88 121 161 204 244 294 360
#
# _framework density 20.532834000000001
#
# number of rings (size 3 to 8) (size 9 to 14) (size 15 to 20)
#    0.000    1.429    1.429    4.714    6.000    4.000 
#    0.000    0.000    0.000    0.000    0.000    0.000 
#    0.000    0.000    0.000    0.000    0.000    0.000 
#
# Total GULP energy -311851.140726 kJ/mol
# GULP energy per Si atom -5568.770370 kJ/mol
# Density = 2.048610 g / cm^3
# Si number density = 20.532834 Si / 1000 Ang^3
#
#
#
# Elastic Constant Matrix: (Units=GPa)
#
#
# Indices 1 2 3 4 5 6 
#
# 1 91.5013 8.4798 15.8693 0.0000 0.0000 0.0000
# 2 8.4798 83.0814 6.3651 0.0000 0.0000 0.0000
# 3 15.8693 6.3651 78.7060 0.0000 0.0000 0.0000
# 4 0.0000 0.0000 0.0000 -3.9828 0.0000 0.0000
# 5 0.0000 0.0000 0.0000 0.0000 22.2012 0.0000
# 6 0.0000 0.0000 0.0000 0.0000 0.0000 21.8620
#
#
#
# Elastic Compliance Matrix: (Units=1/GPa)
#
#
# Indices 1 2 3 4 5 6 
#
# 1 0.011406 -0.000994 -0.002219 0.000000 0.000000 0.000000
# 2 -0.000994 0.012198 -0.000786 0.000000 0.000000 0.000000
# 3 -0.002219 -0.000786 0.013217 0.000000 0.000000 0.000000
# 4 0.000000 0.000000 0.000000 -0.251081 0.000000 0.000000
# 5 0.000000 0.000000 0.000000 0.000000 0.045043 0.000000
# 6 0.000000 0.000000 0.000000 0.000000 0.000000 0.045741
#
#
# Mechanical properties :
#
#
# Convention : Reuss Voigt Hill
#
# Bulk Modulus (GPa) = 34.69634 34.96857 34.83245
# Shear Modulus (GPa) = -47.22774 22.85440 -12.18667
#
# Velocity S-wave (km/s) = -4.80115 3.33988 -2.43887
# Velocity P-wave (km/s) = 3.71484 5.65160 3.01169
#
# Compressibility (1/GPa) = 0.02882149
#
# Stress axis : x y z
#
# Youngs Moduli (GPa) = 87.67439 81.98017 75.66268
#
# Poissons Ratio (x) = 0.08150 0.16792
# Poissons Ratio (y) = 0.08716 0.05947
# Poissons Ratio (z) = 0.19458 0.06444
#
# Static dielectric constant tensor:
#      x y z
#    x 1.796780 0.000000 0.000000 
#    y 0.000000 1.724170 0.000000 
#    z 0.000000 0.000000 1.877560 
# 
# From -- ./inp_files/25185.got.cif
#   From: 2010.05.17/outbox.cif.g08.bks.cpg/sg72_13_cif.got.tgz:25185.got - 2010.06.03 17:03:01.
