data_PCOD9527447
_publ_section_title
;
Structure prediction by ZEFSAII (Michael W. Deem and Ramdas Pophale) SiO2 
 PCOD9527447
Probable space group: I B A M
;
_chemical_formula_sum "Si O2"
_cell_formula_units_Z 72
_cell_length_a 12.489906
_cell_length_b 15.958656
_cell_length_c 16.985308
_cell_angle_alpha 90.000000
_cell_angle_beta 90.000000
_cell_angle_gamma 90.000000
_cell_volume 3385.547486
_symmetry_space_group_name_H-M "I B A M"
_symmetry_group_IT_number 72
_symmetry_cell_setting 'orthorhombic'
loop_
_space_group_symop_operation_xyz
x,y,z
-x,-y,z
x,-y,1/2-z
-x,y,1/2-z
-x,-y,-z
x,y,-z
-x,y,1/2+z
x,-y,1/2+z
1/2+x,1/2+y,1/2+z
1/2-x,1/2-y,1/2+z
1/2+x,1/2-y,-z
1/2-x,1/2+y,-z
1/2-x,1/2-y,1/2-z
1/2+x,1/2+y,1/2-z
1/2-x,1/2+y,z
1/2+x,1/2-y,z
loop_
_atom_site_type_symbol
_atom_site_label
_atom_site_fract_x
_atom_site_fract_y
_atom_site_fract_z
Si Si1 0.346438 0.867160 0.259118
Si Si2 0.771261 0.991313 0.500000
Si Si3 0.693926 0.684198 0.500000
Si Si4 0.813442 0.216173 0.861741
Si Si5 0.612526 0.021598 0.869792
Si Si6 0.445884 0.632217 0.500000
O O1 0.243189 0.840196 0.205931
O O2 0.373208 0.787236 0.310849
O O3 0.419278 0.904738 0.190086
O O4 0.338285 0.944640 0.319620
O O5 0.752553 0.091295 0.500000
O O6 0.706250 0.953148 0.572551
O O7 0.893336 0.961263 0.500000
O O8 0.730269 0.735764 0.578247
O O9 0.569306 0.658727 0.500000
O O10 0.894013 0.171348 0.921107
O O11 0.500000 0.000000 0.909685
#
# Coordination Sequence:
#
# PCOD9527447 Si02
#       6
#    16   8   8  16  16   8
#     4  10  20  40  63  89 129 152 196 251 311 355
#     4  12  22  46  58  86 130 162 208 250 284 366
#     4  11  24  42  65  88 118 168 207 241 301 361
#     4  10  22  42  64  92 124 156 196 262 300 354
#     4  11  23  38  65  93 120 164 202 247 308 358
#     4  11  24  42  65  88 118 168 207 241 301 361
#
# _framework density 21.266870999999998
#
# number of rings (size 3 to 8) (size 9 to 14) (size 15 to 20)
#    0.000    1.333    4.444    2.000    0.000    3.556 
#    0.000    3.333    0.000    2.667    0.000    0.000 
#    0.000    0.000    0.000    0.000    0.000    0.000 
#
# Total GULP energy -200486.688023 kJ/mol
# GULP energy per Si atom -5569.074667 kJ/mol
# Density = 2.121847 g / cm^3
# Si number density = 21.266871 Si / 1000 Ang^3
#
#
#
# Elastic Constant Matrix: (Units=GPa)
#
#
# Indices 1 2 3 4 5 6 
#
# 1 94.9426 16.9559 26.8882 0.0000 0.0000 0.0000
# 2 16.9559 66.2790 31.7171 0.0000 0.0000 0.0000
# 3 26.8882 31.7171 110.8308 0.0000 0.0000 0.0000
# 4 0.0000 0.0000 0.0000 9.7390 0.0000 0.0000
# 5 0.0000 0.0000 0.0000 0.0000 17.3376 0.0000
# 6 0.0000 0.0000 0.0000 0.0000 0.0000 22.4523
#
#
#
# Elastic Compliance Matrix: (Units=1/GPa)
#
#
# Indices 1 2 3 4 5 6 
#
# 1 0.011505 -0.001863 -0.002258 0.000000 0.000000 0.000000
# 2 -0.001863 0.017783 -0.004637 0.000000 0.000000 0.000000
# 3 -0.002258 -0.004637 0.010898 0.000000 0.000000 0.000000
# 4 0.000000 0.000000 0.000000 0.102680 0.000000 0.000000
# 5 0.000000 0.000000 0.000000 0.000000 0.057678 0.000000
# 6 0.000000 0.000000 0.000000 0.000000 0.000000 0.044539
#
#
# Mechanical properties :
#
#
# Convention : Reuss Voigt Hill
#
# Bulk Modulus (GPa) = 44.11151 47.01942 45.56546
# Shear Modulus (GPa) = 18.50789 23.00522 20.75656
#
# Velocity S-wave (km/s) = 2.95323 3.29255 3.12750
# Velocity P-wave (km/s) = 5.69348 6.05076 5.87484
#
# Compressibility (1/GPa) = 0.02266982
#
# Stress axis : x y z
#
# Youngs Moduli (GPa) = 86.92003 56.23236 91.76281
#
# Poissons Ratio (x) = 0.10474 0.20721
# Poissons Ratio (y) = 0.16190 0.42553
# Poissons Ratio (z) = 0.19627 0.26077
#
# Static dielectric constant tensor:
#      x y z
#    x 1.761880 0.000000 0.000000 
#    y 0.000000 1.817470 0.000000 
#    z 0.000000 0.000000 1.763920 
# 
# From -- ./inp_files/30330.got.cif
#   From: 2010.05.17/outbox.cif.g08.bks.cpg/sg72_16_cif.got.tgz:30330.got - 2010.06.03 17:03:01.
