data_PCOD9527905
_publ_section_title
;
Structure prediction by ZEFSAII (Michael W. Deem and Ramdas Pophale) SiO2 
 PCOD9527905
Probable space group: I B A M
;
_chemical_formula_sum "Si O2"
_cell_formula_units_Z 104
_cell_length_a 21.079363
_cell_length_b 9.542513
_cell_length_c 24.907294
_cell_angle_alpha 90.000000
_cell_angle_beta 90.000000
_cell_angle_gamma 90.000000
_cell_volume 5010.104566
_symmetry_space_group_name_H-M "I B A M"
_symmetry_group_IT_number 72
_symmetry_cell_setting 'orthorhombic'
loop_
_space_group_symop_operation_xyz
x,y,z
-x,-y,z
x,-y,1/2-z
-x,y,1/2-z
-x,-y,-z
x,y,-z
-x,y,1/2+z
x,-y,1/2+z
1/2+x,1/2+y,1/2+z
1/2-x,1/2-y,1/2+z
1/2+x,1/2-y,-z
1/2-x,1/2+y,-z
1/2-x,1/2-y,1/2-z
1/2+x,1/2+y,1/2-z
1/2-x,1/2+y,z
1/2+x,1/2-y,z
loop_
_atom_site_type_symbol
_atom_site_label
_atom_site_fract_x
_atom_site_fract_y
_atom_site_fract_z
Si Si1 0.872173 0.097044 0.299011
Si Si2 0.695378 0.868183 0.404177
Si Si3 0.426793 0.654725 0.559755
Si Si4 0.688046 0.448264 0.914805
Si Si5 0.199498 0.649042 0.720941
Si Si6 0.572956 0.021694 0.436785
Si Si7 0.500000 0.500000 0.648159
O O1 0.828626 0.066018 0.351006
O O2 0.864315 0.257128 0.280663
O O3 0.942680 0.057149 0.316633
O O4 0.851813 0.000000 0.250000
O O5 0.693706 0.714512 0.430434
O O6 0.716059 0.863454 0.341783
O O7 0.747215 0.972301 0.428741
O O8 0.624686 0.929042 0.406975
O O9 0.455821 0.646767 0.500000
O O10 0.369713 0.542588 0.563143
O O11 0.406908 0.815620 0.567719
O O12 0.474533 0.617566 0.607302
O O13 0.194275 0.500000 0.750000
O O14 0.250000 0.750000 0.750000
O O15 0.575055 0.983677 0.500000
O O16 0.500000 0.000000 0.419154
#
# Coordination Sequence:
#
# PCOD9527905 Si02
#       7
#    16  16  16  16  16  16   8
#     4  10  21  38  60  88 126 162 208 252 314 370
#     4  11  22  40  64  94 130 167 212 267 318 386
#     4  10  22  40  63  89 121 160 210 263 317 379
#     4  10  22  37  63  95 124 162 209 261 321 378
#     4  11  22  37  63  96 127 165 208 261 318 382
#     4  10  24  42  63  89 125 169 212 264 324 383
#     4  10  22  38  64  88 118 166 212 258 310 378
#
# _framework density 20.758049
#
# number of rings (size 3 to 8) (size 9 to 14) (size 15 to 20)
#    0.000    1.692    0.000    4.615    6.462    3.692 
#    0.000    0.000    0.000    0.000    0.000    0.000 
#    0.000    0.000    0.000    0.000    0.000    0.000 
#
# Total GULP energy -290376.614102 kJ/mol
# GULP energy per Si atom -5584.165656 kJ/mol
# Density = 2.071080 g / cm^3
# Si number density = 20.758049 Si / 1000 Ang^3
#
#
#
# Elastic Constant Matrix: (Units=GPa)
#
#
# Indices 1 2 3 4 5 6 
#
# 1 98.1200 49.8062 11.6721 0.0000 0.0000 0.0000
# 2 49.8062 165.2111 29.4065 0.0000 0.0000 0.0000
# 3 11.6721 29.4065 66.8744 0.0000 0.0000 0.0000
# 4 0.0000 0.0000 0.0000 18.0386 0.0000 0.0000
# 5 0.0000 0.0000 0.0000 0.0000 0.1838 0.0000
# 6 0.0000 0.0000 0.0000 0.0000 0.0000 27.3905
#
#
#
# Elastic Compliance Matrix: (Units=1/GPa)
#
#
# Indices 1 2 3 4 5 6 
#
# 1 0.012052 -0.003535 -0.000549 0.000000 0.000000 0.000000
# 2 -0.003535 0.007604 -0.002727 0.000000 0.000000 0.000000
# 3 -0.000549 -0.002727 0.016248 0.000000 0.000000 0.000000
# 4 0.000000 0.000000 0.000000 0.055437 0.000000 0.000000
# 5 0.000000 0.000000 0.000000 0.000000 5.441419 0.000000
# 6 0.000000 0.000000 0.000000 0.000000 0.000000 0.036509
#
#
# Mechanical properties :
#
#
# Convention : Reuss Voigt Hill
#
# Bulk Modulus (GPa) = 44.87947 56.88611 50.88279
# Shear Modulus (GPa) = 0.89440 25.07727 12.98584
#
# Velocity S-wave (km/s) = 0.65712 3.47951 2.50387
# Velocity P-wave (km/s) = 4.71624 6.60352 5.73801
#
# Compressibility (1/GPa) = 0.02228191
#
# Stress axis : x y z
#
# Youngs Moduli (GPa) = 82.97709 131.50927 61.54537
#
# Poissons Ratio (x) = 0.46495 0.03378
# Poissons Ratio (y) = 0.29336 0.16781
# Poissons Ratio (z) = 0.04554 0.35858
#
# Static dielectric constant tensor:
#      x y z
#    x 1.743600 0.000000 0.000000 
#    y 0.000000 1.755980 0.000000 
#    z 0.000000 0.000000 1.753540 
# 
# From -- ./inp_files/49409.got.cif
#   From: 2010.05.17/outbox.cif.g08.bks.cpg/sg72_25_cif.got.tgz:49409.got - 2010.06.03 17:03:01.
