data_PCOD9527005
_publ_section_title
;
Structure prediction by ZEFSAII (Michael W. Deem and Ramdas Pophale) SiO2 
 PCOD9527005
Probable space group: I B A M
;
_chemical_formula_sum "Si O2"
_cell_formula_units_Z 80
_cell_length_a 27.692422
_cell_length_b 18.296720
_cell_length_c 8.590695
_cell_angle_alpha 90.000000
_cell_angle_beta 90.000000
_cell_angle_gamma 90.000000
_cell_volume 4352.737565
_symmetry_space_group_name_H-M "I B A M"
_symmetry_group_IT_number 72
_symmetry_cell_setting 'orthorhombic'
loop_
_space_group_symop_operation_xyz
x,y,z
-x,-y,z
x,-y,1/2-z
-x,y,1/2-z
-x,-y,-z
x,y,-z
-x,y,1/2+z
x,-y,1/2+z
1/2+x,1/2+y,1/2+z
1/2-x,1/2-y,1/2+z
1/2+x,1/2-y,-z
1/2-x,1/2+y,-z
1/2-x,1/2-y,1/2-z
1/2+x,1/2+y,1/2-z
1/2-x,1/2+y,z
1/2+x,1/2-y,z
loop_
_atom_site_type_symbol
_atom_site_label
_atom_site_fract_x
_atom_site_fract_y
_atom_site_fract_z
Si Si1 0.290802 0.920452 0.814917
Si Si2 0.949039 0.763957 0.187406
Si Si3 0.689008 0.629700 0.313334
Si Si4 0.152816 0.282036 0.314415
Si Si5 0.583103 0.423384 0.813826
O O1 0.235400 0.903733 0.768686
O O2 0.322790 0.856949 0.738707
O O3 0.303802 0.000000 0.750000
O O4 0.296002 0.918613 0.000000
O O5 0.902351 0.723780 0.256247
O O6 0.943315 0.849260 0.237428
O O7 0.000000 0.736037 0.250000
O O8 0.947134 0.760969 0.000000
O O9 0.694842 0.625831 0.500000
O O10 0.680831 0.713709 0.263462
O O11 0.639374 0.588513 0.269470
O O12 0.155016 0.274307 0.500000
O O13 0.564737 0.500000 0.750000
O O14 0.580859 0.425640 0.000000
#
# Coordination Sequence:
#
# PCOD9527005 Si02
#       5
#    16  16  16  16  16
#     4  12  24  38  56  82 114 148 184 226 272 325
#     4  10  21  38  57  80 106 139 182 230 279 331
#     4  10  20  36  55  80 113 151 190 227 267 320
#     4  11  22  38  59  83 110 145 184 227 275 326
#     4   9  19  32  49  74 109 146 183 223 266 314
#
# _framework density 18.379238999999998
#
# number of rings (size 3 to 8) (size 9 to 14) (size 15 to 20)
#    0.000    1.600    0.000    7.200    0.000    6.800 
#    0.000    2.000    0.000    0.600    0.000    4.200 
#    0.000    0.000    0.000    0.000    0.000    0.000 
#
# Total GULP energy -223608.755839 kJ/mol
# GULP energy per Si atom -5590.218896 kJ/mol
# Density = 1.833741 g / cm^3
# Si number density = 18.379239 Si / 1000 Ang^3
#
#
#
# Elastic Constant Matrix: (Units=GPa)
#
#
# Indices 1 2 3 4 5 6 
#
# 1 53.6534 2.3504 -1.0027 0.0000 0.0000 0.0000
# 2 2.3504 59.8346 -11.2098 0.0000 0.0000 0.0000
# 3 -1.0027 -11.2098 49.5046 0.0000 0.0000 0.0000
# 4 0.0000 0.0000 0.0000 30.3900 0.0000 0.0000
# 5 0.0000 0.0000 0.0000 0.0000 21.8408 0.0000
# 6 0.0000 0.0000 0.0000 0.0000 0.0000 -0.3761
#
#
#
# Elastic Compliance Matrix: (Units=1/GPa)
#
#
# Indices 1 2 3 4 5 6 
#
# 1 0.018673 -0.000692 0.000222 0.000000 0.000000 0.000000
# 2 -0.000692 0.017479 0.003944 0.000000 0.000000 0.000000
# 3 0.000222 0.003944 0.021098 0.000000 0.000000 0.000000
# 4 0.000000 0.000000 0.000000 0.032906 0.000000 0.000000
# 5 0.000000 0.000000 0.000000 0.000000 0.045786 0.000000
# 6 0.000000 0.000000 0.000000 0.000000 0.000000 -2.658727
#
#
# Mechanical properties :
#
#
# Convention : Reuss Voigt Hill
#
# Bulk Modulus (GPa) = 15.57732 15.91870 15.74801
# Shear Modulus (GPa) = -1.99335 21.89460 9.95062
#
# Velocity S-wave (km/s) = -1.04256 3.45522 2.32934
# Velocity P-wave (km/s) = 2.65418 4.95965 3.97761
#
# Compressibility (1/GPa) = 0.06419589
#
# Stress axis : x y z
#
# Youngs Moduli (GPa) = 53.55442 57.21216 47.39858
#
# Poissons Ratio (x) = 0.03959 -0.01050
# Poissons Ratio (y) = 0.03706 -0.18693
# Poissons Ratio (z) = -0.01186 -0.22564
#
# Static dielectric constant tensor:
#      x y z
#    x 1.628180 0.000000 0.000000 
#    y 0.000000 1.618500 0.000000 
#    z 0.000000 0.000000 1.606740 
# 
# From -- ./inp_files/4756.got.cif
#   From: 2010.05.17/outbox.cif.g08.bks.cpg/sg72_3_cif.got.tgz:4756.got - 2010.06.03 17:03:01.
