data_PCOD9527371
_publ_section_title
;
Structure prediction by ZEFSAII (Michael W. Deem and Ramdas Pophale) SiO2 
 PCOD9527371
Probable space group: I B A M
;
_chemical_formula_sum "Si O2"
_cell_formula_units_Z 88
_cell_length_a 11.199358
_cell_length_b 27.490067
_cell_length_c 14.077335
_cell_angle_alpha 90.000000
_cell_angle_beta 90.000000
_cell_angle_gamma 90.000000
_cell_volume 4334.004637
_symmetry_space_group_name_H-M "I B A M"
_symmetry_group_IT_number 72
_symmetry_cell_setting 'orthorhombic'
loop_
_space_group_symop_operation_xyz
x,y,z
-x,-y,z
x,-y,1/2-z
-x,y,1/2-z
-x,-y,-z
x,y,-z
-x,y,1/2+z
x,-y,1/2+z
1/2+x,1/2+y,1/2+z
1/2-x,1/2-y,1/2+z
1/2+x,1/2-y,-z
1/2-x,1/2+y,-z
1/2-x,1/2-y,1/2-z
1/2+x,1/2+y,1/2-z
1/2-x,1/2+y,z
1/2+x,1/2-y,z
loop_
_atom_site_type_symbol
_atom_site_label
_atom_site_fract_x
_atom_site_fract_y
_atom_site_fract_z
Si Si1 0.556297 0.283358 0.615014
Si Si2 0.344591 0.112839 0.613167
Si Si3 0.430857 0.950380 0.387649
Si Si4 0.801592 0.944932 0.239907
Si Si5 0.500000 0.370203 0.250000
Si Si6 0.680052 0.224099 0.884633
O O1 0.554705 0.288858 0.500000
O O2 0.549441 0.334938 0.667908
O O3 0.436211 0.254627 0.644695
O O4 0.684883 0.259119 0.640211
O O5 0.326646 0.111832 0.500000
O O6 0.477505 0.093160 0.632378
O O7 0.252894 0.076227 0.662496
O O8 0.331095 0.168123 0.647196
O O9 0.407462 0.951802 0.500000
O O10 0.309620 0.946156 0.331152
O O11 0.500000 0.000000 0.362466
O O12 0.899793 0.906085 0.209195
O O13 0.846763 0.000000 0.250000
O O14 0.675166 0.224006 0.000000
#
# Coordination Sequence:
#
# PCOD9527371 Si02
#       6
#    16  16  16  16   8  16
#     4  10  22  43  66  91 126 165 213 269 321 382
#     4  10  20  38  65  93 122 160 205 259 326 383
#     4  10  21  38  63  93 123 160 211 268 322 373
#     4  12  24  40  62  90 128 169 214 261 312 376
#     4  12  27  42  60  92 128 178 215 254 314 384
#     4   9  19  39  66  90 120 164 208 260 321 380
#
# _framework density 20.304546999999999
#
# number of rings (size 3 to 8) (size 9 to 14) (size 15 to 20)
#    0.000    1.636    3.636    0.818    0.000    2.909 
#    3.273    3.636    0.000    3.273    0.000    0.000 
#    0.000    0.000    0.000    0.000    0.000    0.000 
#
# Total GULP energy -245798.019216 kJ/mol
# GULP energy per Si atom -5586.318619 kJ/mol
# Density = 2.025833 g / cm^3
# Si number density = 20.304547 Si / 1000 Ang^3
#
#
#
# Elastic Constant Matrix: (Units=GPa)
#
#
# Indices 1 2 3 4 5 6 
#
# 1 159.7400 72.4621 28.4283 0.0000 0.0000 0.0000
# 2 72.4621 115.9011 18.4683 0.0000 0.0000 0.0000
# 3 28.4283 18.4683 51.0617 0.0003 -0.0001 -0.0001
# 4 0.0000 0.0000 0.0003 20.3472 0.0000 0.0000
# 5 0.0000 0.0000 -0.0001 0.0000 16.3983 0.0000
# 6 0.0000 0.0000 -0.0001 0.0000 0.0000 28.8163
#
#
#
# Elastic Compliance Matrix: (Units=1/GPa)
#
#
# Indices 1 2 3 4 5 6 
#
# 1 0.009215 -0.005246 -0.003233 0.000000 0.000000 0.000000
# 2 -0.005246 0.012142 -0.001471 0.000000 0.000000 0.000000
# 3 -0.003233 -0.001471 0.021916 0.000000 0.000000 0.000000
# 4 0.000000 0.000000 0.000000 0.049147 0.000000 0.000000
# 5 0.000000 0.000000 0.000000 0.000000 0.060982 0.000000
# 6 0.000000 0.000000 0.000000 0.000000 0.000000 0.034703
#
#
# Mechanical properties :
#
#
# Convention : Reuss Voigt Hill
#
# Bulk Modulus (GPa) = 42.78373 62.82445 52.80409
# Shear Modulus (GPa) = 23.16991 26.93531 25.05261
#
# Velocity S-wave (km/s) = 3.38171 3.64616 3.51642
# Velocity P-wave (km/s) = 6.03032 6.98099 6.52299
#
# Compressibility (1/GPa) = 0.02337337
#
# Stress axis : x y z
#
# Youngs Moduli (GPa) = 108.51354 82.35546 45.62843
#
# Poissons Ratio (x) = 0.43207 0.14752
# Poissons Ratio (y) = 0.56930 0.06711
# Poissons Ratio (z) = 0.35084 0.12114
#
# Static dielectric constant tensor:
#      x y z
#    x 1.746540 0.000000 0.000000 
#    y 0.000000 1.714700 0.000000 
#    z 0.000000 0.000000 1.723320 
# 
# From -- ./inp_files/20321.got.cif
#   From: 2010.05.17/outbox.cif.g08.bks.cpg/sg72_11_cif.got.tgz:20321.got - 2010.06.03 17:03:01.
