data_PCOD9527322
_publ_section_title
;
Structure prediction by ZEFSAII (Michael W. Deem and Ramdas Pophale) SiO2 
 PCOD9527322
Probable space group: I B A M
;
_chemical_formula_sum "Si O2"
_cell_formula_units_Z 96
_cell_length_a 23.242882
_cell_length_b 13.370123
_cell_length_c 16.794948
_cell_angle_alpha 90.000000
_cell_angle_beta 90.000000
_cell_angle_gamma 90.000000
_cell_volume 5219.201252
_symmetry_space_group_name_H-M "I B A M"
_symmetry_group_IT_number 72
_symmetry_cell_setting 'orthorhombic'
loop_
_space_group_symop_operation_xyz
x,y,z
-x,-y,z
x,-y,1/2-z
-x,y,1/2-z
-x,-y,-z
x,y,-z
-x,y,1/2+z
x,-y,1/2+z
1/2+x,1/2+y,1/2+z
1/2-x,1/2-y,1/2+z
1/2+x,1/2-y,-z
1/2-x,1/2+y,-z
1/2-x,1/2-y,1/2-z
1/2+x,1/2+y,1/2-z
1/2-x,1/2+y,z
1/2+x,1/2-y,z
loop_
_atom_site_type_symbol
_atom_site_label
_atom_site_fract_x
_atom_site_fract_y
_atom_site_fract_z
Si Si1 0.587312 0.742570 0.092588
Si Si2 0.856095 0.629029 0.095701
Si Si3 0.471039 0.206086 0.671258
Si Si4 0.816842 0.591017 0.404638
Si Si5 0.786517 0.803532 0.818783
Si Si6 0.597813 0.384784 0.746320
O O1 0.521996 0.777114 0.108637
O O2 0.631666 0.831469 0.114703
O O3 0.597702 0.654331 0.155552
O O4 0.595842 0.716676 0.000000
O O5 0.918538 0.645899 0.134196
O O6 0.832288 0.521013 0.120833
O O7 0.815057 0.717294 0.127005
O O8 0.860052 0.632384 0.000000
O O9 0.500000 0.158862 0.750000
O O10 0.443957 0.310974 0.703537
O O11 0.811552 0.590817 0.500000
O O12 0.758035 0.629139 0.366982
O O13 0.750000 0.750000 0.750000
O O14 0.838710 0.867047 0.781918
O O15 0.580841 0.500000 0.750000
#
# Coordination Sequence:
#
# PCOD9527322 Si02
#       6
#    16  16  16  16  16  16
#     4  10  20  38  61  86 117 154 194 241 294 346
#     4  10  22  40  61  87 121 157 195 244 297 353
#     4   9  20  39  59  87 120 154 198 244 293 343
#     4  10  22  38  60  90 120 153 195 241 294 349
#     4  11  22  38  59  85 118 155 196 241 295 347
#     4  10  22  40  59  85 116 155 195 245 291 344
#
# _framework density 18.393619000000001
#
# number of rings (size 3 to 8) (size 9 to 14) (size 15 to 20)
#    0.000    2.000    1.667    1.000    2.333    3.667 
#    0.000   10.833    0.000    0.000    0.000    0.000 
#    0.000    0.000    0.000    0.000    0.000    0.000 
#
# Total GULP energy -268024.040675 kJ/mol
# GULP energy per Si atom -5583.834181 kJ/mol
# Density = 1.835175 g / cm^3
# Si number density = 18.393619 Si / 1000 Ang^3
#
#
#
# Elastic Constant Matrix: (Units=GPa)
#
#
# Indices 1 2 3 4 5 6 
#
# 1 143.7158 49.7507 43.0159 0.0000 0.0000 0.0000
# 2 49.7507 98.5730 51.0909 0.0000 0.0000 0.0000
# 3 43.0159 51.0909 71.0949 0.0000 0.0000 0.0000
# 4 0.0000 0.0000 0.0000 26.8905 0.0000 0.0000
# 5 0.0000 0.0000 0.0000 0.0000 32.1946 0.0000
# 6 0.0000 0.0000 0.0000 0.0000 0.0000 9.2000
#
#
#
# Elastic Compliance Matrix: (Units=1/GPa)
#
#
# Indices 1 2 3 4 5 6 
#
# 1 0.008932 -0.002720 -0.003450 0.000000 0.000000 0.000000
# 2 -0.002720 0.016995 -0.010567 0.000000 0.000000 0.000000
# 3 -0.003450 -0.010567 0.023747 0.000000 0.000000 0.000000
# 4 0.000000 0.000000 0.000000 0.037188 0.000000 0.000000
# 5 0.000000 0.000000 0.000000 0.000000 0.031061 0.000000
# 6 0.000000 0.000000 0.000000 0.000000 0.000000 0.108695
#
#
# Mechanical properties :
#
#
# Convention : Reuss Voigt Hill
#
# Bulk Modulus (GPa) = 61.72880 66.78875 64.25877
# Shear Modulus (GPa) = 18.83299 24.95876 21.89587
#
# Velocity S-wave (km/s) = 3.20330 3.68764 3.45397
# Velocity P-wave (km/s) = 6.87853 7.38385 7.13567
#
# Compressibility (1/GPa) = 0.01619989
#
# Stress axis : x y z
#
# Youngs Moduli (GPa) = 111.95206 58.84216 42.11122
#
# Poissons Ratio (x) = 0.16007 0.14527
# Poissons Ratio (y) = 0.30454 0.44499
# Poissons Ratio (z) = 0.38620 0.62178
#
# Static dielectric constant tensor:
#      x y z
#    x 1.632790 0.000000 0.000000 
#    y 0.000000 1.615320 0.000000 
#    z 0.000000 0.000000 1.626720 
# 
# From -- ./inp_files/33293.got.cif
#   From: 2010.05.17/outbox.cif.g08.bks.cpg/sg72_17_cif.got.tgz:33293.got - 2010.06.03 17:03:01.
