data_PCOD9527187
_publ_section_title
;
Structure prediction by ZEFSAII (Michael W. Deem and Ramdas Pophale) SiO2 
 PCOD9527187
Probable space group: I B A M
;
_chemical_formula_sum "Si O2"
_cell_formula_units_Z 116
_cell_length_a 17.323231
_cell_length_b 14.013564
_cell_length_c 23.042168
_cell_angle_alpha 90.000000
_cell_angle_beta 90.000000
_cell_angle_gamma 90.000000
_cell_volume 5593.721457
_symmetry_space_group_name_H-M "I B A M"
_symmetry_group_IT_number 72
_symmetry_cell_setting 'orthorhombic'
loop_
_space_group_symop_operation_xyz
x,y,z
-x,-y,z
x,-y,1/2-z
-x,y,1/2-z
-x,-y,-z
x,y,-z
-x,y,1/2+z
x,-y,1/2+z
1/2+x,1/2+y,1/2+z
1/2-x,1/2-y,1/2+z
1/2+x,1/2-y,-z
1/2-x,1/2+y,-z
1/2-x,1/2-y,1/2-z
1/2+x,1/2+y,1/2-z
1/2-x,1/2+y,z
1/2+x,1/2-y,z
loop_
_atom_site_type_symbol
_atom_site_label
_atom_site_fract_x
_atom_site_fract_y
_atom_site_fract_z
Si Si1 0.758626 0.260214 0.934086
Si Si2 0.167176 0.058171 0.308762
Si Si3 0.197988 0.957133 0.430448
Si Si4 0.388872 0.234906 0.837731
Si Si5 0.156389 0.429120 0.934895
Si Si6 0.189442 0.330308 0.768418
Si Si7 0.944617 0.650159 0.840529
Si Si8 0.000000 0.500000 0.250000
O O1 0.695554 0.343283 0.924666
O O2 0.830242 0.265603 0.891139
O O3 0.716861 0.158646 0.929073
O O4 0.786311 0.270736 0.000000
O O5 0.161086 0.006789 0.372611
O O6 0.119812 0.157600 0.312373
O O7 0.257519 0.087832 0.296753
O O8 0.145192 0.000000 0.250000
O O9 0.178105 0.982369 0.500000
O O10 0.289179 0.980837 0.424078
O O11 0.356440 0.157282 0.791654
O O12 0.477228 0.207907 0.849166
O O13 0.084727 0.406837 0.895425
O O14 0.128782 0.433423 0.000000
O O15 0.250000 0.250000 0.750000
O O16 0.127957 0.291384 0.814936
O O17 0.953871 0.569723 0.791717
#
# Coordination Sequence:
#
# PCOD9527187 Si02
#       8
#    16  16  16  16  16  16  16   4
#     4  10  21  39  64  92 124 167 214 263 319 374
#     4  11  22  36  64  95 120 159 217 269 318 368
#     4  10  20  37  62  92 124 160 213 268 314 369
#     4  11  22  38  58  88 129 165 203 258 319 389
#     4  10  21  41  64  90 125 163 211 263 309 371
#     4  10  20  37  59  84 113 159 208 254 305 369
#     4  12  24  40  59  89 128 167 206 244 328 379
#     4  12  28  40  58  88 134 168 194 254 312 408
#
# _framework density 20.737535999999999
#
# number of rings (size 3 to 8) (size 9 to 14) (size 15 to 20)
#    0.000    1.379    4.138    1.655    2.897    1.655 
#    0.000    0.345    0.000   14.069    0.000    2.897 
#    0.000    0.000    0.000    0.000    0.000    0.000 
#
# Total GULP energy -323256.740402 kJ/mol
# GULP energy per Si atom -5573.392076 kJ/mol
# Density = 2.069034 g / cm^3
# Si number density = 20.737536 Si / 1000 Ang^3
#
#
#
# Elastic Constant Matrix: (Units=GPa)
#
#
# Indices 1 2 3 4 5 6 
#
# 1 29.6065 -10.6639 0.6499 0.0000 0.0000 0.0000
# 2 -10.6639 61.6683 17.9672 0.0000 0.0000 0.0000
# 3 0.6499 17.9672 123.1846 0.0000 0.0000 0.0000
# 4 0.0000 0.0000 0.0000 182.9263 0.0000 0.0000
# 5 0.0000 0.0000 0.0000 0.0000 25.7277 0.0000
# 6 0.0000 0.0000 0.0000 0.0000 0.0000 9.0167
#
#
#
# Elastic Compliance Matrix: (Units=1/GPa)
#
#
# Indices 1 2 3 4 5 6 
#
# 1 0.036176 0.006591 -0.001152 0.000000 0.000000 0.000000
# 2 0.006591 0.018136 -0.002680 0.000000 0.000000 0.000000
# 3 -0.001152 -0.002680 0.008515 0.000000 0.000000 0.000000
# 4 0.000000 0.000000 0.000000 0.005467 0.000000 0.000000
# 5 0.000000 0.000000 0.000000 0.000000 0.038869 0.000000
# 6 0.000000 0.000000 0.000000 0.000000 0.000000 0.110905
#
#
# Mechanical properties :
#
#
# Convention : Reuss Voigt Hill
#
# Bulk Modulus (GPa) = 14.63161 25.59621 20.11391
# Shear Modulus (GPa) = 21.24668 57.30123 39.27395
#
# Velocity S-wave (km/s) = 3.20433 5.26228 4.35657
# Velocity P-wave (km/s) = 4.55645 7.02082 5.91833
#
# Compressibility (1/GPa) = 0.06834517
#
# Stress axis : x y z
#
# Youngs Moduli (GPa) = 27.64282 55.13757 117.44144
#
# Poissons Ratio (x) = -0.36343 0.13532
# Poissons Ratio (y) = -0.18220 0.31475
# Poissons Ratio (z) = 0.03185 0.14777
#
# Static dielectric constant tensor:
#      x y z
#    x 1.763040 0.000000 0.000000 
#    y 0.000000 1.794800 0.000000 
#    z 0.000000 0.000000 1.799600 
# 
# From -- ./inp_files/44972.got.cif
#   From: 2010.05.17/outbox.cif.g08.bks.cpg/sg72_23_cif.got.tgz:44972.got - 2010.06.03 17:03:01.
