data_PCOD9527358
_publ_section_title
;
Structure prediction by ZEFSAII (Michael W. Deem and Ramdas Pophale) SiO2 
 PCOD9527358
Probable space group: I B A M
;
_chemical_formula_sum "Si O2"
_cell_formula_units_Z 112
_cell_length_a 12.213146
_cell_length_b 28.317539
_cell_length_c 17.296046
_cell_angle_alpha 90.000000
_cell_angle_beta 90.000000
_cell_angle_gamma 90.000000
_cell_volume 5981.772444
_symmetry_space_group_name_H-M "I B A M"
_symmetry_group_IT_number 72
_symmetry_cell_setting 'orthorhombic'
loop_
_space_group_symop_operation_xyz
x,y,z
-x,-y,z
x,-y,1/2-z
-x,y,1/2-z
-x,-y,-z
x,y,-z
-x,y,1/2+z
x,-y,1/2+z
1/2+x,1/2+y,1/2+z
1/2-x,1/2-y,1/2+z
1/2+x,1/2-y,-z
1/2-x,1/2+y,-z
1/2-x,1/2-y,1/2-z
1/2+x,1/2+y,1/2-z
1/2-x,1/2+y,z
1/2+x,1/2-y,z
loop_
_atom_site_type_symbol
_atom_site_label
_atom_site_fract_x
_atom_site_fract_y
_atom_site_fract_z
Si Si1 0.883847 0.170005 0.407760
Si Si2 0.870812 0.505965 0.591438
Si Si3 0.709510 0.087291 0.837367
Si Si4 0.197644 0.392556 0.346364
Si Si5 0.801506 0.265332 0.667444
Si Si6 0.019999 0.653594 0.661710
Si Si7 0.364519 0.660389 0.407253
O O1 0.880887 0.169001 0.500000
O O2 0.812275 0.127448 0.374925
O O3 0.830401 0.218097 0.377551
O O4 0.010225 0.167434 0.383014
O O5 0.853589 0.497934 0.500000
O O6 0.806230 0.466858 0.640806
O O7 0.835463 0.558411 0.614562
O O8 0.000000 0.500000 0.608053
O O9 0.707312 0.098129 0.745820
O O10 0.604704 0.115729 0.872937
O O11 0.815049 0.111953 0.873981
O O12 0.102707 0.353971 0.369438
O O13 0.750000 0.250000 0.750000
O O14 0.913089 0.297310 0.667001
O O15 0.711172 0.297941 0.626335
O O16 0.000000 0.639234 0.750000
O O17 0.357924 0.660491 0.500000
#
# Coordination Sequence:
#
# PCOD9527358 Si02
#       7
#    16  16  16  16  16  16  16
#     4  11  25  42  60  86 124 165 205 255 314 368
#     4  11  22  37  61  95 130 165 199 246 310 375
#     4  10  20  38  64  90 121 160 205 250 302 368
#     4  11  22  39  61  93 128 160 204 259 308 363
#     4  11  23  38  63  89 119 162 212 259 301 369
#     4   9  19  34  56  89 121 153 195 252 307 349
#     4  10  23  43  61  86 123 162 206 256 311 373
#
# _framework density 18.723548000000001
#
# number of rings (size 3 to 8) (size 9 to 14) (size 15 to 20)
#    0.000    1.571    1.429    4.286    4.000    2.286 
#    0.000    2.143    0.000    4.286    0.000    0.000 
#    0.000    0.000    0.000    0.000    0.000    0.000 
#
# Total GULP energy -312461.983728 kJ/mol
# GULP energy per Si atom -5579.678281 kJ/mol
# Density = 1.868093 g / cm^3
# Si number density = 18.723548 Si / 1000 Ang^3
#
#
#
# Elastic Constant Matrix: (Units=GPa)
#
#
# Indices 1 2 3 4 5 6 
#
# 1 137.7979 76.1676 51.4356 0.0000 0.0000 0.0000
# 2 76.1676 102.0477 36.6809 0.0000 0.0000 0.0000
# 3 51.4356 36.6809 59.2042 0.0001 0.0000 0.0000
# 4 0.0000 0.0000 0.0001 32.3317 0.0000 0.0000
# 5 0.0000 0.0000 0.0000 0.0000 21.4592 0.0000
# 6 0.0000 0.0000 0.0000 0.0000 0.0000 28.9128
#
#
#
# Elastic Compliance Matrix: (Units=1/GPa)
#
#
# Indices 1 2 3 4 5 6 
#
# 1 0.014626 -0.008168 -0.007646 0.000000 0.000000 0.000000
# 2 -0.008168 0.017169 -0.003541 0.000000 0.000000 0.000000
# 3 -0.007646 -0.003541 0.025727 0.000000 0.000000 0.000000
# 4 0.000000 0.000000 0.000000 0.030929 0.000000 0.000000
# 5 0.000000 0.000000 0.000000 0.000000 0.046600 0.000000
# 6 0.000000 0.000000 0.000000 0.000000 0.000000 0.034587
#
#
# Mechanical properties :
#
#
# Convention : Reuss Voigt Hill
#
# Bulk Modulus (GPa) = 53.15795 69.73532 61.44664
# Shear Modulus (GPa) = 23.29709 25.52514 24.41111
#
# Velocity S-wave (km/s) = 3.53124 3.69625 3.61469
# Velocity P-wave (km/s) = 6.71408 7.45264 7.09298
#
# Compressibility (1/GPa) = 0.01881186
#
# Stress axis : x y z
#
# Youngs Moduli (GPa) = 68.37078 58.24491 38.86952
#
# Poissons Ratio (x) = 0.47577 0.29720
# Poissons Ratio (y) = 0.55848 0.13762
# Poissons Ratio (z) = 0.52277 0.20622
#
# Static dielectric constant tensor:
#      x y z
#    x 1.670310 0.000000 0.000000 
#    y 0.000000 1.684580 0.000000 
#    z 0.000000 0.000000 1.643450 
# 
# From -- ./inp_files/20671.got.cif
#   From: 2010.05.17/outbox.cif.g08.bks.cpg/sg72_11_cif.got.tgz:20671.got - 2010.06.03 17:03:01.
