data_PCOD9527319
_publ_section_title
;
Structure prediction by ZEFSAII (Michael W. Deem and Ramdas Pophale) SiO2 
 PCOD9527319
Probable space group: I B A M
;
_chemical_formula_sum "Si O2"
_cell_formula_units_Z 104
_cell_length_a 27.723912
_cell_length_b 22.154912
_cell_length_c 8.998412
_cell_angle_alpha 90.000000
_cell_angle_beta 90.000000
_cell_angle_gamma 90.000000
_cell_volume 5527.012093
_symmetry_space_group_name_H-M "I B A M"
_symmetry_group_IT_number 72
_symmetry_cell_setting 'orthorhombic'
loop_
_space_group_symop_operation_xyz
x,y,z
-x,-y,z
x,-y,1/2-z
-x,y,1/2-z
-x,-y,-z
x,y,-z
-x,y,1/2+z
x,-y,1/2+z
1/2+x,1/2+y,1/2+z
1/2-x,1/2-y,1/2+z
1/2+x,1/2-y,-z
1/2-x,1/2+y,-z
1/2-x,1/2-y,1/2-z
1/2+x,1/2+y,1/2-z
1/2-x,1/2+y,z
1/2+x,1/2-y,z
loop_
_atom_site_type_symbol
_atom_site_label
_atom_site_fract_x
_atom_site_fract_y
_atom_site_fract_z
Si Si1 0.447214 0.193068 0.319961
Si Si2 0.286140 0.585353 0.165865
Si Si3 0.613421 0.558770 0.822322
Si Si4 0.641848 0.881316 0.676889
Si Si5 0.552521 0.680811 0.177838
Si Si6 0.297393 0.000000 0.250000
Si Si7 0.268020 0.189789 0.676457
O O1 0.500000 0.184259 0.250000
O O2 0.450310 0.196048 0.500000
O O3 0.411055 0.139085 0.272601
O O4 0.428980 0.257710 0.256407
O O5 0.335819 0.562976 0.235961
O O6 0.242761 0.536478 0.154837
O O7 0.267264 0.636074 0.277349
O O8 0.294664 0.609222 0.000000
O O9 0.588110 0.500000 0.750000
O O10 0.585121 0.621580 0.799276
O O11 0.620184 0.550445 0.000000
O O12 0.640435 0.874995 0.500000
O O13 0.666132 0.946521 0.702526
O O14 0.679930 0.831907 0.734409
O O15 0.500000 0.670065 0.250000
O O16 0.548138 0.690916 0.000000
O O17 0.269673 0.196221 0.500000
O O18 0.250000 0.250000 0.750000
#
# Coordination Sequence:
#
# PCOD9527319 Si02
#       7
#    16  16  16  16  16   8  16
#     4  10  20  38  63  89 118 154 192 242 297 355
#     4  11  22  36  58  83 114 156 198 239 295 350
#     4  11  24  39  58  85 117 154 199 247 293 349
#     4   9  20  37  58  84 116 154 196 242 296 353
#     4  10  22  40  61  87 116 151 192 244 298 354
#     4  10  20  38  61  84 117 156 202 246 290 354
#     4  10  21  37  55  82 117 151 193 242 294 352
#
# _framework density 18.816676000000001
#
# number of rings (size 3 to 8) (size 9 to 14) (size 15 to 20)
#    0.000    1.846    0.769    3.692    2.154    4.000 
#    0.000   10.385    0.000    1.846    0.000    0.000 
#    0.000    0.000    0.000    0.000    0.000    0.000 
#
# Total GULP energy -289621.333938 kJ/mol
# GULP energy per Si atom -5569.641037 kJ/mol
# Density = 1.877385 g / cm^3
# Si number density = 18.816676 Si / 1000 Ang^3
#
#
#
# Elastic Constant Matrix: (Units=GPa)
#
#
# Indices 1 2 3 4 5 6 
#
# 1 81.2757 59.3308 27.2858 0.0000 0.0000 0.0000
# 2 59.3308 105.8216 26.1391 0.0000 0.0000 0.0000
# 3 27.2858 26.1391 68.8811 0.0000 0.0000 0.0000
# 4 0.0000 0.0000 0.0000 4.8107 0.0000 0.0000
# 5 0.0000 0.0000 0.0000 0.0000 11.7570 0.0000
# 6 0.0000 0.0000 0.0000 0.0000 0.0000 23.3991
#
#
#
# Elastic Compliance Matrix: (Units=1/GPa)
#
#
# Indices 1 2 3 4 5 6 
#
# 1 0.022000 -0.011235 -0.004451 0.000000 0.000000 0.000000
# 2 -0.011235 0.016165 -0.001684 0.000000 0.000000 0.000000
# 3 -0.004451 -0.001684 0.016920 0.000000 0.000000 0.000000
# 4 0.000000 0.000000 0.000000 0.207869 0.000000 0.000000
# 5 0.000000 0.000000 0.000000 0.000000 0.085056 0.000000
# 6 0.000000 0.000000 0.000000 0.000000 0.000000 0.042737
#
#
# Mechanical properties :
#
#
# Convention : Reuss Voigt Hill
#
# Bulk Modulus (GPa) = 49.15324 53.49886 51.32605
# Shear Modulus (GPa) = 11.56693 17.54156 14.55424
#
# Velocity S-wave (km/s) = 2.48204 3.05656 2.78416
# Velocity P-wave (km/s) = 5.86455 6.39923 6.13771
#
# Compressibility (1/GPa) = 0.02034454
#
# Stress axis : x y z
#
# Youngs Moduli (GPa) = 45.45534 61.86252 59.10176
#
# Poissons Ratio (x) = 0.69502 0.26307
# Poissons Ratio (y) = 0.51069 0.09951
# Poissons Ratio (z) = 0.20233 0.10416
#
# Static dielectric constant tensor:
#      x y z
#    x 1.691600 0.000000 0.000000 
#    y 0.000000 1.721910 0.000000 
#    z 0.000000 0.000000 1.652860 
# 
# From -- ./inp_files/8164.got.cif
#   From: 2010.05.17/outbox.cif.g08.bks.cpg/sg72_5_cif.got.tgz:8164.got - 2010.06.03 17:03:01.
