data_PCOD9527625
_publ_section_title
;
Structure prediction by ZEFSAII (Michael W. Deem and Ramdas Pophale) SiO2 
 PCOD9527625
Probable space group: I B A M
;
_chemical_formula_sum "Si O2"
_cell_formula_units_Z 112
_cell_length_a 14.570605
_cell_length_b 14.218178
_cell_length_c 28.212166
_cell_angle_alpha 90.000000
_cell_angle_beta 90.000000
_cell_angle_gamma 90.000000
_cell_volume 5844.642643
_symmetry_space_group_name_H-M "I B A M"
_symmetry_group_IT_number 72
_symmetry_cell_setting 'orthorhombic'
loop_
_space_group_symop_operation_xyz
x,y,z
-x,-y,z
x,-y,1/2-z
-x,y,1/2-z
-x,-y,-z
x,y,-z
-x,y,1/2+z
x,-y,1/2+z
1/2+x,1/2+y,1/2+z
1/2-x,1/2-y,1/2+z
1/2+x,1/2-y,-z
1/2-x,1/2+y,-z
1/2-x,1/2-y,1/2-z
1/2+x,1/2+y,1/2-z
1/2-x,1/2+y,z
1/2+x,1/2-y,z
loop_
_atom_site_type_symbol
_atom_site_label
_atom_site_fract_x
_atom_site_fract_y
_atom_site_fract_z
Si Si1 0.241881 0.138487 0.756481
Si Si2 0.213522 0.504517 0.110259
Si Si3 0.558145 0.095512 0.946587
Si Si4 0.582096 0.928996 0.195958
Si Si5 0.705163 0.680984 0.358320
Si Si6 0.839627 0.141920 0.842932
Si Si7 0.995616 0.734313 0.865076
O O1 0.250000 0.250000 0.750000
O O2 0.345261 0.097765 0.762589
O O3 0.199390 0.124698 0.808368
O O4 0.181446 0.109709 0.711404
O O5 0.155200 0.442787 0.073355
O O6 0.142238 0.525182 0.153467
O O7 0.257318 0.608156 0.102315
O O8 0.297189 0.439500 0.125723
O O9 0.506296 0.169033 0.912160
O O10 0.500000 0.000000 0.947308
O O11 0.566787 0.132649 0.000000
O O12 0.532774 0.834582 0.176477
O O13 0.500000 0.000000 0.204615
O O14 0.779508 0.763400 0.351636
O O15 0.608522 0.730952 0.363573
O O16 0.939888 0.174680 0.858874
#
# Coordination Sequence:
#
# PCOD9527625 Si02
#       7
#    16  16  16  16  16  16  16
#     4   9  19  36  51  87 123 164 200 262 298 356
#     4  11  20  39  60  84 124 163 202 256 323 375
#     4  11  21  38  66  96 118 147 208 269 317 381
#     4  11  18  34  60  85 119 162 220 259 304 360
#     4  10  21  35  58  87 124 163 212 252 304 381
#     4  11  21  38  60  82 130 167 204 259 313 369
#     4  12  20  38  62  87 120 168 202 255 323 374
#
# _framework density 19.162849000000001
#
# number of rings (size 3 to 8) (size 9 to 14) (size 15 to 20)
#    0.000    1.286    8.571    0.000    0.000    3.429 
#    0.000    9.286    0.000    3.429    0.000    2.000 
#    0.000    0.000    0.000    0.000    0.000    0.000 
#
# Total GULP energy -312028.761831 kJ/mol
# GULP energy per Si atom -5571.942176 kJ/mol
# Density = 1.911923 g / cm^3
# Si number density = 19.162849 Si / 1000 Ang^3
#
#
#
# Elastic Constant Matrix: (Units=GPa)
#
#
# Indices 1 2 3 4 5 6 
#
# 1 73.3155 8.4690 16.9261 0.0000 0.0000 0.0000
# 2 8.4690 62.9624 9.5151 0.0000 0.0000 0.0000
# 3 16.9261 9.5151 59.5565 0.0000 0.0000 0.0000
# 4 0.0000 0.0000 0.0000 15.1093 0.0000 0.0000
# 5 0.0000 0.0000 0.0000 0.0000 13.7761 0.0000
# 6 0.0000 0.0000 0.0000 0.0000 0.0000 53.9206
#
#
#
# Elastic Compliance Matrix: (Units=1/GPa)
#
#
# Indices 1 2 3 4 5 6 
#
# 1 0.014714 -0.001380 -0.003961 0.000000 0.000000 0.000000
# 2 -0.001380 0.016405 -0.002229 0.000000 0.000000 0.000000
# 3 -0.003961 -0.002229 0.018273 0.000000 0.000000 0.000000
# 4 0.000000 0.000000 0.000000 0.066184 0.000000 0.000000
# 5 0.000000 0.000000 0.000000 0.000000 0.072590 0.000000
# 6 0.000000 0.000000 0.000000 0.000000 0.000000 0.018546
#
#
# Mechanical properties :
#
#
# Convention : Reuss Voigt Hill
#
# Bulk Modulus (GPa) = 29.19642 29.51721 29.35681
# Shear Modulus (GPa) = 21.43454 27.28948 24.36201
#
# Velocity S-wave (km/s) = 3.34810 3.77780 3.56942
# Velocity P-wave (km/s) = 5.49685 5.87076 5.68688
#
# Compressibility (1/GPa) = 0.03425078
#
# Stress axis : x y z
#
# Youngs Moduli (GPa) = 67.96420 60.95714 54.72675
#
# Poissons Ratio (x) = 0.08415 0.21678
# Poissons Ratio (y) = 0.09382 0.12196
# Poissons Ratio (z) = 0.26921 0.13585
#
# Static dielectric constant tensor:
#      x y z
#    x 1.686990 0.000000 0.000000 
#    y 0.000000 1.697480 0.000000 
#    z 0.000000 0.000000 1.743550 
# 
# From -- ./inp_files/48694.got.cif
#   From: 2010.05.17/outbox.cif.g08.bks.cpg/sg72_25_cif.got.tgz:48694.got - 2010.06.03 17:03:01.
