data_PCOD9527582
_publ_section_title
;
Structure prediction by ZEFSAII (Michael W. Deem and Ramdas Pophale) SiO2 
 PCOD9527582
Probable space group: I B A M
;
_chemical_formula_sum "Si O2"
_cell_formula_units_Z 96
_cell_length_a 7.394849
_cell_length_b 28.166488
_cell_length_c 21.497901
_cell_angle_alpha 90.000000
_cell_angle_beta 90.000000
_cell_angle_gamma 90.000000
_cell_volume 4477.731707
_symmetry_space_group_name_H-M "I B A M"
_symmetry_group_IT_number 72
_symmetry_cell_setting 'orthorhombic'
loop_
_space_group_symop_operation_xyz
x,y,z
-x,-y,z
x,-y,1/2-z
-x,y,1/2-z
-x,-y,-z
x,y,-z
-x,y,1/2+z
x,-y,1/2+z
1/2+x,1/2+y,1/2+z
1/2-x,1/2-y,1/2+z
1/2+x,1/2-y,-z
1/2-x,1/2+y,-z
1/2-x,1/2-y,1/2-z
1/2+x,1/2+y,1/2-z
1/2-x,1/2+y,z
1/2+x,1/2-y,z
loop_
_atom_site_type_symbol
_atom_site_label
_atom_site_fract_x
_atom_site_fract_y
_atom_site_fract_z
Si Si1 0.234217 0.549237 0.068451
Si Si2 0.026850 0.316834 0.820984
Si Si3 0.877605 0.598861 0.892888
Si Si4 0.210621 0.514670 0.316401
Si Si5 0.558451 0.709028 0.178151
Si Si6 0.004835 0.859804 0.569173
O O1 0.283401 0.514454 0.124775
O O2 0.360156 0.595653 0.073951
O O3 0.021221 0.564193 0.073665
O O4 0.264311 0.528007 0.000000
O O5 0.993848 0.358942 0.868341
O O6 0.237944 0.307316 0.826638
O O7 0.000000 0.331986 0.750000
O O8 0.939558 0.265687 0.832412
O O9 0.792965 0.569838 0.834487
O O10 0.702059 0.619915 0.926980
O O11 0.290474 0.500000 0.250000
O O12 0.000000 0.500000 0.313231
O O13 0.500000 0.701538 0.250000
O O14 0.461448 0.677791 0.125058
O O15 0.028639 0.838356 0.500000
#
# Coordination Sequence:
#
# PCOD9527582 Si02
#       6
#    16  16  16  16  16  16
#     4  10  22  38  62  85 115 161 198 241 298 357
#     4  10  21  34  60  88 116 158 195 246 302 352
#     4  10  22  37  62  85 119 156 195 243 295 353
#     4   9  20  37  59  91 120 151 195 244 296 353
#     4  10  21  37  58  89 118 154 201 250 296 355
#     4  10  23  41  59  87 121 157 201 248 297 355
#
# _framework density 21.439425
#
# number of rings (size 3 to 8) (size 9 to 14) (size 15 to 20)
#    0.000    2.167    0.000    2.500    9.333    5.667 
#    0.000    6.667    0.000    0.000    0.000    0.000 
#    0.000    0.000    0.000    0.000    0.000    0.000 
#
# Total GULP energy -267777.856103 kJ/mol
# GULP energy per Si atom -5578.705335 kJ/mol
# Density = 2.139063 g / cm^3
# Si number density = 21.439425 Si / 1000 Ang^3
#
#
#
# Elastic Constant Matrix: (Units=GPa)
#
#
# Indices 1 2 3 4 5 6 
#
# 1 52.5154 2.3380 16.7335 0.0000 0.0000 0.0000
# 2 2.3380 68.4243 67.2500 0.0000 0.0000 0.0000
# 3 16.7335 67.2500 166.8827 0.0000 0.0000 0.0000
# 4 0.0000 0.0000 0.0000 -25.7477 0.0000 0.0000
# 5 0.0000 0.0000 0.0000 0.0000 13.6321 0.0000
# 6 0.0000 0.0000 0.0000 0.0000 0.0000 22.4972
#
#
#
# Elastic Compliance Matrix: (Units=1/GPa)
#
#
# Indices 1 2 3 4 5 6 
#
# 1 0.019854 0.002116 -0.002844 0.000000 0.000000 0.000000
# 2 0.002116 0.024425 -0.010055 0.000000 0.000000 0.000000
# 3 -0.002844 -0.010055 0.010329 0.000000 0.000000 0.000000
# 4 0.000000 0.000000 0.000000 -0.038838 0.000000 0.000000
# 5 0.000000 0.000000 0.000000 0.000000 0.073356 0.000000
# 6 0.000000 0.000000 0.000000 0.000000 0.000000 0.044450
#
#
# Mechanical properties :
#
#
# Convention : Reuss Voigt Hill
#
# Bulk Modulus (GPa) = 30.26292 51.16284 40.71288
# Shear Modulus (GPa) = 30.09256 15.50971 22.80113
#
# Velocity S-wave (km/s) = 3.75054 2.69257 3.26469
# Velocity P-wave (km/s) = 5.73599 5.79502 5.76558
#
# Compressibility (1/GPa) = 0.03304374
#
# Stress axis : x y z
#
# Youngs Moduli (GPa) = 50.36794 40.94235 96.81270
#
# Poissons Ratio (x) = -0.08665 0.27530
# Poissons Ratio (y) = -0.10660 0.97343
# Poissons Ratio (z) = 0.14323 0.41167
#
# Static dielectric constant tensor:
#      x y z
#    x 1.794900 0.000000 0.000000 
#    y 0.000000 2.030730 0.000000 
#    z 0.000000 0.000000 1.857550 
# 
# From -- ./inp_files/36054.got.cif
#   From: 2010.05.17/outbox.cif.g08.bks.cpg/sg72_19_cif.got.tgz:36054.got - 2010.06.03 17:03:01.
