data_PCOD9527760
_publ_section_title
;
Structure prediction by ZEFSAII (Michael W. Deem and Ramdas Pophale) SiO2 
 PCOD9527760
Probable space group: I B A M
;
_chemical_formula_sum "Si O2"
_cell_formula_units_Z 104
_cell_length_a 8.703464
_cell_length_b 18.536835
_cell_length_c 29.939091
_cell_angle_alpha 90.000000
_cell_angle_beta 90.000000
_cell_angle_gamma 90.000000
_cell_volume 4830.213549
_symmetry_space_group_name_H-M "I B A M"
_symmetry_group_IT_number 72
_symmetry_cell_setting 'orthorhombic'
loop_
_space_group_symop_operation_xyz
x,y,z
-x,-y,z
x,-y,1/2-z
-x,y,1/2-z
-x,-y,-z
x,y,-z
-x,y,1/2+z
x,-y,1/2+z
1/2+x,1/2+y,1/2+z
1/2-x,1/2-y,1/2+z
1/2+x,1/2-y,-z
1/2-x,1/2+y,-z
1/2-x,1/2-y,1/2-z
1/2+x,1/2+y,1/2-z
1/2-x,1/2+y,z
1/2+x,1/2-y,z
loop_
_atom_site_type_symbol
_atom_site_label
_atom_site_fract_x
_atom_site_fract_y
_atom_site_fract_z
Si Si1 0.820552 0.648040 0.000000
Si Si2 0.609632 0.398669 0.080064
Si Si3 0.744804 0.000000 0.250000
Si Si4 0.117888 0.270838 0.215917
Si Si5 0.965346 0.798645 0.000000
Si Si6 0.426344 0.389649 0.683280
Si Si7 0.245683 0.045527 0.423408
Si Si8 0.286480 0.090080 0.672376
O O1 0.936743 0.713898 0.000000
O O2 0.832396 0.595795 0.042191
O O3 0.646122 0.680846 0.000000
O O4 0.643516 0.389265 0.133028
O O5 0.431322 0.425303 0.078885
O O6 0.720996 0.462598 0.063778
O O7 0.609961 0.333355 0.044861
O O8 0.840115 0.940249 0.219676
O O9 0.652034 0.954703 0.286192
O O10 0.250000 0.250000 0.250000
O O11 0.063453 0.193824 0.197713
O O12 0.165620 0.326928 0.178018
O O13 0.000000 0.306972 0.250000
O O14 0.601616 0.415758 0.678911
O O15 0.319847 0.056117 0.375110
#
# Coordination Sequence:
#
# PCOD9527760 Si02
#       8
#     8  16   8  16   8  16  16  16
#     4  10  21  37  59  87 119 146 182 234 292 344
#     4   9  18  33  57  85 113 142 190 241 284 329
#     4  12  19  32  57  84 113 144 193 234 277 336
#     4  12  23  38  53  78 113 154 186 230 287 334
#     4  10  21  37  57  89 115 148 184 234 292 346
#     4  11  20  33  56  85 110 146 192 238 279 335
#     4   9  18  34  57  87 111 144 188 241 286 327
#     4  11  21  34  57  83 112 147 192 237 280 333
#
# _framework density 21.531139
#
# number of rings (size 3 to 8) (size 9 to 14) (size 15 to 20)
#    0.000    1.538    4.615    1.846    2.154    1.846 
#    0.000    0.385    0.000    1.846    0.000    0.000 
#    0.000    0.000    0.000    0.000    0.000    0.000 
#
# Total GULP energy -290192.564273 kJ/mol
# GULP energy per Si atom -5580.626236 kJ/mol
# Density = 2.148213 g / cm^3
# Si number density = 21.531139 Si / 1000 Ang^3
#
#
#
# Elastic Constant Matrix: (Units=GPa)
#
#
# Indices 1 2 3 4 5 6 
#
# 1 17.0581 -3.1965 4.9470 0.0000 0.0000 0.0000
# 2 -3.1965 74.3421 21.9476 0.0000 0.0000 0.0000
# 3 4.9470 21.9476 115.8398 0.0000 0.0000 0.0000
# 4 0.0000 0.0000 0.0000 29.8996 0.0000 0.0000
# 5 0.0000 0.0000 0.0000 0.0000 7.5564 0.0000
# 6 0.0000 0.0000 0.0000 0.0000 0.0000 25.7321
#
#
#
# Elastic Compliance Matrix: (Units=1/GPa)
#
#
# Indices 1 2 3 4 5 6 
#
# 1 0.060229 0.003547 -0.003244 0.000000 0.000000 0.000000
# 2 0.003547 0.014457 -0.002891 0.000000 0.000000 0.000000
# 3 -0.003244 -0.002891 0.009319 0.000000 0.000000 0.000000
# 4 0.000000 0.000000 0.000000 0.033445 0.000000 0.000000
# 5 0.000000 0.000000 0.000000 0.000000 0.132337 0.000000
# 6 0.000000 0.000000 0.000000 0.000000 0.000000 0.038862
#
#
# Mechanical properties :
#
#
# Convention : Reuss Voigt Hill
#
# Bulk Modulus (GPa) = 12.68549 28.29290 20.48920
# Shear Modulus (GPa) = 15.62006 24.87375 20.24691
#
# Velocity S-wave (km/s) = 2.69637 3.40258 3.06985
# Velocity P-wave (km/s) = 3.94947 5.34843 4.70128
#
# Compressibility (1/GPa) = 0.07883020
#
# Stress axis : x y z
#
# Youngs Moduli (GPa) = 16.60332 69.16947 107.30960
#
# Poissons Ratio (x) = -0.24538 0.34814
# Poissons Ratio (y) = -0.05890 0.31019
# Poissons Ratio (z) = 0.05386 0.19994
#
# Static dielectric constant tensor:
#      x y z
#    x 1.891240 0.000000 0.000000 
#    y 0.000000 1.800270 0.000000 
#    z 0.000000 0.000000 1.792100 
# 
# From -- ./inp_files/51537.got.cif
#   From: 2010.05.17/outbox.cif.g08.bks.cpg/sg72_26_cif.got.tgz:51537.got - 2010.06.03 17:03:01.
