data_PCOD9527397
_publ_section_title
;
Structure prediction by ZEFSAII (Michael W. Deem and Ramdas Pophale) SiO2 
 PCOD9527397
Probable space group: I B A M
;
_chemical_formula_sum "Si O2"
_cell_formula_units_Z 96
_cell_length_a 15.800614
_cell_length_b 19.292789
_cell_length_c 16.936021
_cell_angle_alpha 90.000000
_cell_angle_beta 90.000000
_cell_angle_gamma 90.000000
_cell_volume 5162.741279
_symmetry_space_group_name_H-M "I B A M"
_symmetry_group_IT_number 72
_symmetry_cell_setting 'orthorhombic'
loop_
_space_group_symop_operation_xyz
x,y,z
-x,-y,z
x,-y,1/2-z
-x,y,1/2-z
-x,-y,-z
x,y,-z
-x,y,1/2+z
x,-y,1/2+z
1/2+x,1/2+y,1/2+z
1/2-x,1/2-y,1/2+z
1/2+x,1/2-y,-z
1/2-x,1/2+y,-z
1/2-x,1/2-y,1/2-z
1/2+x,1/2+y,1/2-z
1/2-x,1/2+y,z
1/2+x,1/2-y,z
loop_
_atom_site_type_symbol
_atom_site_label
_atom_site_fract_x
_atom_site_fract_y
_atom_site_fract_z
Si Si1 0.909974 0.973574 0.406837
Si Si2 0.063698 0.437801 0.405566
Si Si3 0.933795 0.302425 0.189743
Si Si4 0.246668 0.543488 0.827605
Si Si5 0.651935 0.321567 0.592287
Si Si6 0.731215 0.829396 0.730476
O O1 0.906198 0.990831 0.500000
O O2 0.904524 0.890477 0.399977
O O3 0.827433 0.007635 0.367536
O O4 0.000000 0.000000 0.374959
O O5 0.060399 0.430857 0.500000
O O6 0.036048 0.365949 0.364318
O O7 0.161993 0.451083 0.380474
O O8 0.000000 0.500000 0.382309
O O9 0.891150 0.244370 0.134393
O O10 0.866572 0.337524 0.249682
O O11 0.000000 0.269449 0.250000
O O12 0.222789 0.500000 0.750000
O O13 0.273933 0.618489 0.792864
O O14 0.667896 0.308321 0.500000
O O15 0.736139 0.340058 0.642261
O O16 0.750000 0.750000 0.750000
#
# Coordination Sequence:
#
# PCOD9527397 Si02
#       6
#    16  16  16  16  16  16
#     4  10  22  38  58  86 119 156 196 244 297 352
#     4  10  23  39  60  87 118 157 199 245 302 359
#     4  10  22  37  60  85 119 151 193 245 291 354
#     4  11  21  36  60  88 116 152 197 246 299 352
#     4  10  20  39  60  81 117 154 192 239 292 351
#     4   9  20  38  56  85 112 149 195 237 292 349
#
# _framework density 18.594773
#
# number of rings (size 3 to 8) (size 9 to 14) (size 15 to 20)
#    0.000    2.000    1.667    1.000    4.667    3.000 
#    0.000    2.500    0.000    0.000    0.000    0.000 
#    0.000    0.000    0.000    0.000    0.000    0.000 
#
# Total GULP energy -267418.534624 kJ/mol
# GULP energy per Si atom -5571.219471 kJ/mol
# Density = 1.855245 g / cm^3
# Si number density = 18.594773 Si / 1000 Ang^3
#
#
#
# Elastic Constant Matrix: (Units=GPa)
#
#
# Indices 1 2 3 4 5 6 
#
# 1 63.3951 29.3094 54.8998 0.0000 0.0000 0.0000
# 2 29.3094 107.8525 47.6379 0.0000 0.0000 0.0000
# 3 54.8998 47.6379 114.5858 0.0000 0.0000 0.0000
# 4 0.0000 0.0000 0.0000 32.1938 0.0000 0.0000
# 5 0.0000 0.0000 0.0000 0.0000 31.6152 0.0000
# 6 0.0000 0.0000 0.0000 0.0000 0.0000 23.9129
#
#
#
# Elastic Compliance Matrix: (Units=1/GPa)
#
#
# Indices 1 2 3 4 5 6 
#
# 1 0.027312 -0.002012 -0.012249 0.000000 0.000000 0.000000
# 2 -0.002012 0.011506 -0.003820 0.000000 0.000000 0.000000
# 3 -0.012249 -0.003820 0.016184 0.000000 0.000000 0.000000
# 4 0.000000 0.000000 0.000000 0.031062 0.000000 0.000000
# 5 0.000000 0.000000 0.000000 0.000000 0.031630 0.000000
# 6 0.000000 0.000000 0.000000 0.000000 0.000000 0.041818
#
#
# Mechanical properties :
#
#
# Convention : Reuss Voigt Hill
#
# Bulk Modulus (GPa) = 53.07716 61.05861 57.06789
# Shear Modulus (GPa) = 24.75822 27.81013 26.28417
#
# Velocity S-wave (km/s) = 3.65288 3.87148 3.76377
# Velocity P-wave (km/s) = 6.81157 7.27270 7.04591
#
# Compressibility (1/GPa) = 0.01884049
#
# Stress axis : x y z
#
# Youngs Moduli (GPa) = 36.61405 86.91361 61.79023
#
# Poissons Ratio (x) = 0.17485 0.75688
# Poissons Ratio (y) = 0.07366 0.23601
# Poissons Ratio (z) = 0.44849 0.33197
#
# Static dielectric constant tensor:
#      x y z
#    x 1.674150 0.000000 0.000000 
#    y 0.000000 1.669510 0.000000 
#    z 0.000000 0.000000 1.642410 
# 
# From -- ./inp_files/21826.got.cif
#   From: 2010.05.17/outbox.cif.g08.bks.cpg/sg72_11_cif.got.tgz:21826.got - 2010.06.03 17:03:01.
