data_PCOD9527156
_publ_section_title
;
Structure prediction by ZEFSAII (Michael W. Deem and Ramdas Pophale) SiO2 
 PCOD9527156
Probable space group: I B A M
;
_chemical_formula_sum "Si O2"
_cell_formula_units_Z 88
_cell_length_a 10.055845
_cell_length_b 26.400499
_cell_length_c 11.783673
_cell_angle_alpha 90.000000
_cell_angle_beta 90.000000
_cell_angle_gamma 90.000000
_cell_volume 3128.321564
_symmetry_space_group_name_H-M "I B A M"
_symmetry_group_IT_number 72
_symmetry_cell_setting 'orthorhombic'
loop_
_space_group_symop_operation_xyz
x,y,z
-x,-y,z
x,-y,1/2-z
-x,y,1/2-z
-x,-y,-z
x,y,-z
-x,y,1/2+z
x,-y,1/2+z
1/2+x,1/2+y,1/2+z
1/2-x,1/2-y,1/2+z
1/2+x,1/2-y,-z
1/2-x,1/2+y,-z
1/2-x,1/2-y,1/2-z
1/2+x,1/2+y,1/2-z
1/2-x,1/2+y,z
1/2+x,1/2-y,z
loop_
_atom_site_type_symbol
_atom_site_label
_atom_site_fract_x
_atom_site_fract_y
_atom_site_fract_z
Si Si1 0.755034 0.112747 0.000000
Si Si2 0.151438 0.982261 0.627581
Si Si3 0.223238 0.866472 0.623471
Si Si4 0.502874 0.076931 0.375859
Si Si5 0.038135 0.283541 0.125921
Si Si6 0.841831 0.191455 0.839913
O O1 0.643793 0.097873 0.098220
O O2 0.851966 0.138268 0.095785
O O3 0.201724 0.001420 0.500000
O O4 0.156575 0.921872 0.629040
O O5 0.210773 0.000000 0.750000
O O6 0.000000 0.000000 0.628236
O O7 0.201984 0.844305 0.500000
O O8 0.377817 0.882650 0.634628
O O9 0.171517 0.826413 0.711950
O O10 0.500000 0.053043 0.250000
O O11 0.537011 0.051611 0.500000
O O12 0.047768 0.232118 0.370129
O O13 0.198578 0.284421 0.127842
O O14 0.000000 0.305495 0.250000
O O15 0.009823 0.305936 0.000000
#
# Coordination Sequence:
#
# PCOD9527156 Si02
#       6
#     8  16  16  16  16  16
#     4  10  20  36  66  96 137 182 252 310 374 428
#     4   9  19  41  71 107 149 189 234 295 375 456
#     4  10  21  39  71 109 144 196 252 306 374 468
#     4   9  17  30  55  96 131 170 237 300 354 419
#     4  12  28  48  69  99 145 197 261 334 391 448
#     4  12  25  46  71 103 145 202 261 322 387 443
#
# _framework density 28.130099999999999
#
# number of rings (size 3 to 8) (size 9 to 14) (size 15 to 20)
#    0.545    1.091    3.636    0.545    2.545    1.455 
#    4.909    0.000    0.000    0.545    0.000    5.091 
#    0.000    0.000    0.000    0.000    0.000    0.000 
#
# Total GULP energy -244938.631321 kJ/mol
# GULP energy per Si atom -5566.787075 kJ/mol
# Density = 2.806607 g / cm^3
# Si number density = 28.130100 Si / 1000 Ang^3
#
#
#
# Elastic Constant Matrix: (Units=GPa)
#
#
# Indices 1 2 3 4 5 6 
#
# 1 113.0529 47.4887 32.2258 -0.0002 0.0000 0.0000
# 2 47.4887 36.6954 65.1068 -0.0011 -0.0001 0.0000
# 3 32.2258 65.1068 350.7804 -0.0045 -0.0003 0.0000
# 4 -0.0002 -0.0011 -0.0045 -331.8460 -0.0004 0.0005
# 5 0.0000 -0.0001 -0.0003 -0.0004 35.0721 0.0001
# 6 0.0000 0.0000 0.0000 0.0005 0.0001 51.1332
#
#
#
# Elastic Compliance Matrix: (Units=1/GPa)
#
#
# Indices 1 2 3 4 5 6 
#
# 1 0.024945 -0.042070 0.005517 0.000000 0.000000 0.000000
# 2 -0.042070 0.111584 -0.016846 0.000000 0.000000 0.000000
# 3 0.005517 -0.016846 0.005471 0.000000 0.000000 0.000000
# 4 0.000000 0.000000 0.000000 -0.003013 0.000000 0.000000
# 5 0.000000 0.000000 0.000000 0.000000 0.028513 0.000000
# 6 0.000000 0.000000 0.000000 0.000000 0.000000 0.019557
#
#
# Mechanical properties :
#
#
# Convention : Reuss Voigt Hill
#
# Bulk Modulus (GPa) = 28.40773 87.79683 58.10228
# Shear Modulus (GPa) = 16.36196 -25.41432 -4.52618
#
# Velocity S-wave (km/s) = 2.41437 -3.00902 -1.26985
# Velocity P-wave (km/s) = 4.22999 4.38252 4.30693
#
# Compressibility (1/GPa) = 0.03520169
#
# Stress axis : x y z
#
# Youngs Moduli (GPa) = 40.08882 8.96186 182.79434
#
# Poissons Ratio (x) = 0.37702 -1.00843
# Poissons Ratio (y) = 1.68653 3.07930
# Poissons Ratio (z) = -0.22116 0.15097
#
# Static dielectric constant tensor:
#      x y z
#    x 2.173350 0.000000 0.000000 
#    y 0.000000 2.305770 0.000000 
#    z 0.000000 0.000000 2.177230 
# 
# From -- ./inp_files/11750.got.cif
#   From: 2010.05.17/outbox.cif.g08.bks.cpg/sg72_6_cif.got.tgz:11750.got - 2010.06.03 17:03:01.
