data_PCOD9527170
_publ_section_title
;
Structure prediction by ZEFSAII (Michael W. Deem and Ramdas Pophale) SiO2 
 PCOD9527170
Probable space group: I B A M
;
_chemical_formula_sum "Si O2"
_cell_formula_units_Z 128
_cell_length_a 23.227133
_cell_length_b 11.766654
_cell_length_c 24.860939
_cell_angle_alpha 90.000000
_cell_angle_beta 90.000000
_cell_angle_gamma 90.000000
_cell_volume 6794.634780
_symmetry_space_group_name_H-M "I B A M"
_symmetry_group_IT_number 72
_symmetry_cell_setting 'orthorhombic'
loop_
_space_group_symop_operation_xyz
x,y,z
-x,-y,z
x,-y,1/2-z
-x,y,1/2-z
-x,-y,-z
x,y,-z
-x,y,1/2+z
x,-y,1/2+z
1/2+x,1/2+y,1/2+z
1/2-x,1/2-y,1/2+z
1/2+x,1/2-y,-z
1/2-x,1/2+y,-z
1/2-x,1/2-y,1/2-z
1/2+x,1/2+y,1/2-z
1/2-x,1/2+y,z
1/2+x,1/2-y,z
loop_
_atom_site_type_symbol
_atom_site_label
_atom_site_fract_x
_atom_site_fract_y
_atom_site_fract_z
Si Si1 0.831128 0.578395 0.326034
Si Si2 0.465124 0.616629 0.859998
Si Si3 0.650300 0.625942 0.060886
Si Si4 0.194218 0.338771 0.207359
Si Si5 0.360314 0.357908 0.563110
Si Si6 0.078360 0.764864 0.157031
Si Si7 0.123912 0.118479 0.235457
Si Si8 0.247281 0.740847 0.114208
O O1 0.803404 0.619440 0.268967
O O2 0.837194 0.443369 0.322436
O O3 0.891777 0.642353 0.335035
O O4 0.787584 0.626456 0.370833
O O5 0.500000 0.500000 0.872237
O O6 0.421334 0.650991 0.907000
O O7 0.510574 0.716932 0.848778
O O8 0.426466 0.594315 0.807246
O O9 0.655733 0.491255 0.068404
O O10 0.607449 0.677412 0.105060
O O11 0.710524 0.687738 0.072036
O O12 0.630382 0.646814 0.000000
O O13 0.162849 0.217466 0.210809
O O14 0.249122 0.313812 0.169811
O O15 0.363866 0.330229 0.500000
O O16 0.310154 0.286693 0.591857
O O17 0.097567 0.833116 0.209885
O O18 0.154702 0.000000 0.250000
#
# Coordination Sequence:
#
# PCOD9527170 Si02
#       8
#    16  16  16  16  16  16  16  16
#     4   9  21  38  56  86 121 158 200 239 293 366
#     4  12  21  36  58  89 121 156 194 249 300 354
#     4  10  21  37  56  80 114 152 197 246 298 353
#     4  10  20  37  57  84 123 159 192 244 297 358
#     4  11  23  37  56  88 119 151 199 250 306 357
#     4  10  21  35  58  85 117 154 194 238 297 350
#     4  11  20  34  57  88 121 156 193 239 292 363
#     4  11  20  37  58  82 114 156 201 248 296 353
#
# _framework density 18.838391999999999
#
# number of rings (size 3 to 8) (size 9 to 14) (size 15 to 20)
#    0.000    1.500    3.750    1.875    0.000    0.750 
#    4.500    0.625    0.000    3.750    0.000    0.875 
#    0.000    0.000    0.000    0.000    0.000    0.000 
#
# Total GULP energy -357155.739827 kJ/mol
# GULP energy per Si atom -5580.558435 kJ/mol
# Density = 1.879552 g / cm^3
# Si number density = 18.838392 Si / 1000 Ang^3
#
#
#
# Elastic Constant Matrix: (Units=GPa)
#
#
# Indices 1 2 3 4 5 6 
#
# 1 37.3788 24.9545 15.5360 0.0000 0.0000 0.0000
# 2 24.9545 90.0743 13.9963 0.0000 0.0000 0.0000
# 3 15.5360 13.9963 84.1538 0.0000 0.0000 0.0000
# 4 0.0000 0.0000 0.0000 21.8045 0.0000 0.0000
# 5 0.0000 0.0000 0.0000 0.0000 11.8799 0.0000
# 6 0.0000 0.0000 0.0000 0.0000 0.0000 28.0868
#
#
#
# Elastic Compliance Matrix: (Units=1/GPa)
#
#
# Indices 1 2 3 4 5 6 
#
# 1 0.034713 -0.008850 -0.004937 0.000000 0.000000 0.000000
# 2 -0.008850 0.013653 -0.000637 0.000000 0.000000 0.000000
# 3 -0.004937 -0.000637 0.012900 0.000000 0.000000 0.000000
# 4 0.000000 0.000000 0.000000 0.045862 0.000000 0.000000
# 5 0.000000 0.000000 0.000000 0.000000 0.084176 0.000000
# 6 0.000000 0.000000 0.000000 0.000000 0.000000 0.035604
#
#
# Mechanical properties :
#
#
# Convention : Reuss Voigt Hill
#
# Bulk Modulus (GPa) = 30.84578 35.62004 33.23291
# Shear Modulus (GPa) = 18.75738 22.82892 20.79315
#
# Velocity S-wave (km/s) = 3.15889 3.48491 3.32590
# Velocity P-wave (km/s) = 5.45108 5.92807 5.69457
#
# Compressibility (1/GPa) = 0.03241934
#
# Stress axis : x y z
#
# Youngs Moduli (GPa) = 28.80738 73.24543 77.51762
#
# Poissons Ratio (x) = 0.64822 0.38268
# Poissons Ratio (y) = 0.25495 0.04937
# Poissons Ratio (z) = 0.14221 0.04665
#
# Static dielectric constant tensor:
#      x y z
#    x 1.663390 0.000000 0.000000 
#    y 0.000000 1.665670 0.000000 
#    z 0.000000 0.000000 1.661400 
# 
# From -- ./inp_files/45791.got.cif
#   From: 2010.05.17/outbox.cif.g08.bks.cpg/sg72_23_cif.got.tgz:45791.got - 2010.06.03 17:03:01.
