data_PCOD9527735
_publ_section_title
;
Structure prediction by ZEFSAII (Michael W. Deem and Ramdas Pophale) SiO2 
 PCOD9527735
Probable space group: I B A M
;
_chemical_formula_sum "Si O2"
_cell_formula_units_Z 96
_cell_length_a 20.179214
_cell_length_b 15.992911
_cell_length_c 14.272906
_cell_angle_alpha 90.000000
_cell_angle_beta 90.000000
_cell_angle_gamma 90.000000
_cell_volume 4606.214648
_symmetry_space_group_name_H-M "I B A M"
_symmetry_group_IT_number 72
_symmetry_cell_setting 'orthorhombic'
loop_
_space_group_symop_operation_xyz
x,y,z
-x,-y,z
x,-y,1/2-z
-x,y,1/2-z
-x,-y,-z
x,y,-z
-x,y,1/2+z
x,-y,1/2+z
1/2+x,1/2+y,1/2+z
1/2-x,1/2-y,1/2+z
1/2+x,1/2-y,-z
1/2-x,1/2+y,-z
1/2-x,1/2-y,1/2-z
1/2+x,1/2+y,1/2-z
1/2-x,1/2+y,z
1/2+x,1/2-y,z
loop_
_atom_site_type_symbol
_atom_site_label
_atom_site_fract_x
_atom_site_fract_y
_atom_site_fract_z
Si Si1 0.183924 0.868097 0.105187
Si Si2 0.306819 0.080820 0.716497
Si Si3 0.960188 0.915864 0.614752
Si Si4 0.857282 0.324653 0.101650
Si Si5 0.506463 0.234376 0.107500
Si Si6 0.440252 0.935342 0.886076
O O1 0.254182 0.871011 0.155049
O O2 0.116890 0.911132 0.145955
O O3 0.166503 0.770562 0.100070
O O4 0.192187 0.902193 0.000000
O O5 0.329960 0.131425 0.806946
O O6 0.369239 0.044513 0.657997
O O7 0.266916 0.000000 0.750000
O O8 0.957927 0.912429 0.500000
O O9 0.995710 0.828323 0.644204
O O10 0.000000 0.000000 0.640277
O O11 0.936229 0.313475 0.105509
O O12 0.840662 0.364466 0.000000
O O13 0.550759 0.160883 0.150212
O O14 0.529120 0.245515 0.000000
O O15 0.500000 0.000000 0.860790
O O16 0.438147 0.935029 0.000000
#
# Coordination Sequence:
#
# PCOD9527735 Si02
#       6
#    16  16  16  16  16  16
#     4   9  19  38  60  82 113 151 189 232 289 351
#     4  12  24  35  55  84 117 151 192 241 291 346
#     4   8  14  29  57  88 114 142 178 225 284 347
#     4   9  19  37  59  79 106 149 194 237 286 344
#     4   8  15  30  53  80 108 141 184 231 281 336
#     4  10  21  37  56  81 117 158 200 241 281 337
#
# _framework density 20.841408999999999
#
# number of rings (size 3 to 8) (size 9 to 14) (size 15 to 20)
#    0.000    2.667    0.000    4.000    0.000    5.000 
#    0.000    3.333    0.000    7.000    0.000    0.000 
#    0.000    0.667    0.000    0.000    0.000    0.000 
#
# Total GULP energy -267376.980913 kJ/mol
# GULP energy per Si atom -5570.353769 kJ/mol
# Density = 2.079397 g / cm^3
# Si number density = 20.841409 Si / 1000 Ang^3
#
#
#
# Elastic Constant Matrix: (Units=GPa)
#
#
# Indices 1 2 3 4 5 6 
#
# 1 75.5185 41.0029 34.9673 0.0000 0.0000 0.0000
# 2 41.0029 83.7199 21.1928 0.0000 0.0000 0.0000
# 3 34.9673 21.1928 83.0412 0.0000 0.0000 0.0000
# 4 0.0000 0.0000 0.0000 11.3190 0.0000 0.0000
# 5 0.0000 0.0000 0.0000 0.0000 8.3323 0.0000
# 6 0.0000 0.0000 0.0000 0.0000 0.0000 17.8148
#
#
#
# Elastic Compliance Matrix: (Units=1/GPa)
#
#
# Indices 1 2 3 4 5 6 
#
# 1 0.020985 -0.008596 -0.006643 0.000000 0.000000 0.000000
# 2 -0.008596 0.016291 -0.000538 0.000000 0.000000 0.000000
# 3 -0.006643 -0.000538 0.014977 0.000000 0.000000 0.000000
# 4 0.000000 0.000000 0.000000 0.088347 0.000000 0.000000
# 5 0.000000 0.000000 0.000000 0.000000 0.120014 0.000000
# 6 0.000000 0.000000 0.000000 0.000000 0.000000 0.056133
#
#
# Mechanical properties :
#
#
# Convention : Reuss Voigt Hill
#
# Bulk Modulus (GPa) = 48.31127 48.51173 48.41150
# Shear Modulus (GPa) = 14.07661 17.16766 15.62214
#
# Velocity S-wave (km/s) = 2.60170 2.87318 2.74080
# Velocity P-wave (km/s) = 5.67942 5.85952 5.77018
#
# Compressibility (1/GPa) = 0.02069910
#
# Stress axis : x y z
#
# Youngs Moduli (GPa) = 47.65371 61.38451 66.77096
#
# Poissons Ratio (x) = 0.52766 0.44353
# Poissons Ratio (y) = 0.40963 0.03592
# Poissons Ratio (z) = 0.31654 0.03302
#
# Static dielectric constant tensor:
#      x y z
#    x 1.719770 0.000000 0.000000 
#    y 0.000000 1.756820 0.000000 
#    z 0.000000 0.000000 1.778570 
# 
# From -- ./inp_files/24152.got.cif
#   From: 2010.05.17/outbox.cif.g08.bks.cpg/sg72_13_cif.got.tgz:24152.got - 2010.06.03 17:03:01.
