data_PCOD9527746
_publ_section_title
;
Structure prediction by ZEFSAII (Michael W. Deem and Ramdas Pophale) SiO2 
 PCOD9527746
Probable space group: I B A M
;
_chemical_formula_sum "Si O2"
_cell_formula_units_Z 88
_cell_length_a 9.000344
_cell_length_b 20.955694
_cell_length_c 21.798727
_cell_angle_alpha 90.000000
_cell_angle_beta 90.000000
_cell_angle_gamma 90.000000
_cell_volume 4111.424215
_symmetry_space_group_name_H-M "I B A M"
_symmetry_group_IT_number 72
_symmetry_cell_setting 'orthorhombic'
loop_
_space_group_symop_operation_xyz
x,y,z
-x,-y,z
x,-y,1/2-z
-x,y,1/2-z
-x,-y,-z
x,y,-z
-x,y,1/2+z
x,-y,1/2+z
1/2+x,1/2+y,1/2+z
1/2-x,1/2-y,1/2+z
1/2+x,1/2-y,-z
1/2-x,1/2+y,-z
1/2-x,1/2-y,1/2-z
1/2+x,1/2+y,1/2-z
1/2-x,1/2+y,z
1/2+x,1/2-y,z
loop_
_atom_site_type_symbol
_atom_site_label
_atom_site_fract_x
_atom_site_fract_y
_atom_site_fract_z
Si Si1 0.983711 0.370360 0.500000
Si Si2 0.379859 0.673509 0.871448
Si Si3 0.468991 0.190952 0.871977
Si Si4 0.819768 0.896556 0.000000
Si Si5 0.809900 0.047705 0.000000
Si Si6 0.420926 0.061035 0.684254
Si Si7 0.907442 0.064058 0.860510
O O1 0.858317 0.424537 0.500000
O O2 0.987836 0.324159 0.441999
O O3 0.142915 0.402723 0.500000
O O4 0.465235 0.739545 0.860835
O O5 0.206238 0.685035 0.856547
O O6 0.482516 0.620259 0.839271
O O7 0.367434 0.644340 0.940747
O O8 0.544539 0.131061 0.839813
O O9 0.853804 0.972340 0.000000
O O10 0.864544 0.073026 0.066895
O O11 0.500000 0.060849 0.750000
O O12 0.244243 0.054949 0.677591
O O13 0.500000 0.000000 0.650702
O O14 0.000000 0.000000 0.856672
#
# Coordination Sequence:
#
# PCOD9527746 Si02
#       7
#     8  16  16   8   8  16  16
#     4  10  22  33  63  97 138 188 223 273 339 423
#     4  11  23  40  63  97 138 182 228 279 346 422
#     4  11  23  43  64  97 136 185 232 285 350 418
#     4  10  21  37  57 103 145 184 223 263 342 420
#     4  12  21  35  65 107 148 183 221 276 354 424
#     4  11  26  48  71  97 131 175 233 299 352 415
#     4  12  23  41  69 104 144 182 228 288 358 426
#
# _framework density 21.403773999999999
#
# number of rings (size 3 to 8) (size 9 to 14) (size 15 to 20)
#    0.000    0.909    3.636    3.818    2.545    0.000 
#    0.000   10.000    0.000    0.000    0.000    0.000 
#    0.000    0.000    0.000    0.000    0.000    0.000 
#
# Total GULP energy -245283.968406 kJ/mol
# GULP energy per Si atom -5574.635646 kJ/mol
# Density = 2.135506 g / cm^3
# Si number density = 21.403774 Si / 1000 Ang^3
#
#
#
# Elastic Constant Matrix: (Units=GPa)
#
#
# Indices 1 2 3 4 5 6 
#
# 1 202.7465 93.7009 33.2256 0.0000 0.0000 0.0000
# 2 93.7009 163.4478 7.3380 0.0000 0.0000 0.0000
# 3 33.2256 7.3380 33.5252 0.0000 0.0000 0.0000
# 4 0.0000 0.0000 0.0000 15.5799 0.0000 0.0000
# 5 0.0000 0.0000 0.0000 0.0000 -23.7512 0.0000
# 6 0.0000 0.0000 0.0000 0.0000 0.0000 53.6236
#
#
#
# Elastic Compliance Matrix: (Units=1/GPa)
#
#
# Indices 1 2 3 4 5 6 
#
# 1 0.008087 -0.004318 -0.007069 0.000000 0.000000 0.000000
# 2 -0.004318 0.008485 0.002423 0.000000 0.000000 0.000000
# 3 -0.007069 0.002423 0.036304 0.000000 0.000000 0.000000
# 4 0.000000 0.000000 0.000000 0.064185 0.000000 0.000000
# 5 0.000000 0.000000 0.000000 0.000000 -0.042103 0.000000
# 6 0.000000 0.000000 0.000000 0.000000 0.000000 0.018648
#
#
# Mechanical properties :
#
#
# Convention : Reuss Voigt Hill
#
# Bulk Modulus (GPa) = 28.61571 74.24982 51.43276
# Shear Modulus (GPa) = 40.58955 26.78748 33.68851
#
# Velocity S-wave (km/s) = 4.35946 3.54154 3.97161
# Velocity P-wave (km/s) = 6.22401 7.17556 6.71666
#
# Compressibility (1/GPa) = 0.03494584
#
# Stress axis : x y z
#
# Youngs Moduli (GPa) = 123.66233 117.85401 27.54523
#
# Poissons Ratio (x) = 0.50895 0.19472
# Poissons Ratio (y) = 0.53403 -0.06673
# Poissons Ratio (z) = 0.87418 -0.28552
#
# Static dielectric constant tensor:
#      x y z
#    x 1.783410 0.000000 0.000000 
#    y 0.000000 1.789180 0.000000 
#    z 0.000000 0.000000 1.769550 
# 
# From -- ./inp_files/42328.got.cif
#   From: 2010.05.17/outbox.cif.g08.bks.cpg/sg72_22_cif.got.tgz:42328.got - 2010.06.03 17:03:01.
