data_PCOD9527016
_publ_section_title
;
Structure prediction by ZEFSAII (Michael W. Deem and Ramdas Pophale) SiO2 
 PCOD9527016
Probable space group: I B A M
;
_chemical_formula_sum "Si O2"
_cell_formula_units_Z 96
_cell_length_a 20.844856
_cell_length_b 27.507361
_cell_length_c 8.561993
_cell_angle_alpha 90.000000
_cell_angle_beta 90.000000
_cell_angle_gamma 90.000000
_cell_volume 4909.335300
_symmetry_space_group_name_H-M "I B A M"
_symmetry_group_IT_number 72
_symmetry_cell_setting 'orthorhombic'
loop_
_space_group_symop_operation_xyz
x,y,z
-x,-y,z
x,-y,1/2-z
-x,y,1/2-z
-x,-y,-z
x,y,-z
-x,y,1/2+z
x,-y,1/2+z
1/2+x,1/2+y,1/2+z
1/2-x,1/2-y,1/2+z
1/2+x,1/2-y,-z
1/2-x,1/2+y,-z
1/2-x,1/2-y,1/2-z
1/2+x,1/2+y,1/2-z
1/2-x,1/2+y,z
1/2+x,1/2-y,z
loop_
_atom_site_type_symbol
_atom_site_label
_atom_site_fract_x
_atom_site_fract_y
_atom_site_fract_z
Si Si1 0.413900 0.781107 0.824726
Si Si2 0.691712 0.614708 0.318889
Si Si3 0.929776 0.827379 0.685932
Si Si4 0.234521 0.699455 0.325899
Si Si5 0.933991 0.386435 0.690292
Si Si6 0.194511 0.553962 0.312805
O O1 0.418113 0.728773 0.742155
O O2 0.340703 0.797171 0.843500
O O3 0.436973 0.830914 0.745229
O O4 0.442134 0.774463 0.000000
O O5 0.681012 0.604346 0.500000
O O6 0.625391 0.635656 0.246700
O O7 0.739903 0.659535 0.290919
O O8 0.735220 0.572364 0.243359
O O9 0.929831 0.827993 0.500000
O O10 0.000000 0.841124 0.750000
O O11 0.262892 0.691624 0.500000
O O12 0.250000 0.750000 0.250000
O O13 0.934613 0.384098 0.500000
O O14 0.867121 0.412795 0.735886
O O15 0.000000 0.410835 0.750000
O O16 0.183729 0.500000 0.250000
O O17 0.195225 0.555107 0.500000
#
# Coordination Sequence:
#
# PCOD9527016 Si02
#       6
#    16  16  16  16  16  16
#     4  10  20  36  56  84 123 167 209 251 295 354
#     4  12  24  40  63  90 121 160 205 254 310 371
#     4  12  25  40  60  89 127 168 208 253 302 364
#     4  11  20  33  55  85 121 159 204 252 299 356
#     4  10  22  39  59  85 123 164 207 253 301 357
#     4  11  24  45  67  92 120 153 201 259 317 373
#
# _framework density 19.554580999999999
#
# number of rings (size 3 to 8) (size 9 to 14) (size 15 to 20)
#    0.000    1.000    3.333    4.500    0.000    4.333 
#    0.000    1.667    0.000    0.500    0.000    3.500 
#    0.000    0.000    0.000    0.000    0.000    0.000 
#
# Total GULP energy -267527.662591 kJ/mol
# GULP energy per Si atom -5573.492971 kJ/mol
# Density = 1.951007 g / cm^3
# Si number density = 19.554581 Si / 1000 Ang^3
#
#
#
# Elastic Constant Matrix: (Units=GPa)
#
#
# Indices 1 2 3 4 5 6 
#
# 1 158.7075 50.0923 44.8506 0.0000 0.0000 0.0000
# 2 50.0923 86.1606 27.0827 0.0000 0.0000 0.0000
# 3 44.8506 27.0827 89.2950 0.0000 0.0000 0.0000
# 4 0.0000 0.0000 0.0000 20.4560 0.0000 0.0000
# 5 0.0000 0.0000 0.0000 0.0000 31.9153 0.0000
# 6 0.0000 0.0000 0.0000 0.0000 0.0000 8.3609
#
#
#
# Elastic Compliance Matrix: (Units=1/GPa)
#
#
# Indices 1 2 3 4 5 6 
#
# 1 0.008396 -0.003931 -0.003025 0.000000 0.000000 0.000000
# 2 -0.003931 0.014669 -0.002475 0.000000 0.000000 0.000000
# 3 -0.003025 -0.002475 0.013469 0.000000 0.000000 0.000000
# 4 0.000000 0.000000 0.000000 0.048886 0.000000 0.000000
# 5 0.000000 0.000000 0.000000 0.000000 0.031333 0.000000
# 6 0.000000 0.000000 0.000000 0.000000 0.000000 0.119605
#
#
# Mechanical properties :
#
#
# Convention : Reuss Voigt Hill
#
# Bulk Modulus (GPa) = 56.58244 64.24604 60.41424
# Shear Modulus (GPa) = 19.14901 26.28894 22.71897
#
# Velocity S-wave (km/s) = 3.13271 3.67057 3.41225
# Velocity P-wave (km/s) = 6.48719 7.13373 6.81813
#
# Compressibility (1/GPa) = 0.01767333
#
# Stress axis : x y z
#
# Youngs Moduli (GPa) = 119.09832 68.16930 74.24499
#
# Poissons Ratio (x) = 0.26795 0.22460
# Poissons Ratio (y) = 0.46813 0.18375
# Poissons Ratio (z) = 0.36029 0.16871
#
# Static dielectric constant tensor:
#      x y z
#    x 1.733140 0.000000 0.000000 
#    y 0.000000 1.675010 0.000000 
#    z 0.000000 0.000000 1.707470 
# 
# From -- ./inp_files/5941.got.cif
#   From: 2010.05.17/outbox.cif.g08.bks.cpg/sg72_3_cif.got.tgz:5941.got - 2010.06.03 17:03:01.
