data_PCOD9527821
_publ_section_title
;
Structure prediction by ZEFSAII (Michael W. Deem and Ramdas Pophale) SiO2 
 PCOD9527821
Probable space group: I B A M
;
_chemical_formula_sum "Si O2"
_cell_formula_units_Z 72
_cell_length_a 14.350026
_cell_length_b 10.061354
_cell_length_c 24.452428
_cell_angle_alpha 90.000000
_cell_angle_beta 90.000000
_cell_angle_gamma 90.000000
_cell_volume 3530.458463
_symmetry_space_group_name_H-M "I B A M"
_symmetry_group_IT_number 72
_symmetry_cell_setting 'orthorhombic'
loop_
_space_group_symop_operation_xyz
x,y,z
-x,-y,z
x,-y,1/2-z
-x,y,1/2-z
-x,-y,-z
x,y,-z
-x,y,1/2+z
x,-y,1/2+z
1/2+x,1/2+y,1/2+z
1/2-x,1/2-y,1/2+z
1/2+x,1/2-y,-z
1/2-x,1/2+y,-z
1/2-x,1/2-y,1/2-z
1/2+x,1/2+y,1/2-z
1/2-x,1/2+y,z
1/2+x,1/2-y,z
loop_
_atom_site_type_symbol
_atom_site_label
_atom_site_fract_x
_atom_site_fract_y
_atom_site_fract_z
Si Si1 0.905821 0.256577 0.691959
Si Si2 0.500000 0.000000 0.854718
Si Si3 0.602884 0.621408 0.205776
Si Si4 0.648401 0.083069 0.437160
Si Si5 0.248719 0.826559 0.887789
O O1 0.871001 0.242019 0.753728
O O2 0.825210 0.243470 0.647400
O O3 0.940044 0.404659 0.682168
O O4 0.996891 0.159058 0.686835
O O5 0.562622 0.911945 0.895082
O O6 0.611198 0.500000 0.250000
O O7 0.672343 0.617058 0.155214
O O8 0.619793 0.069429 0.500000
O O9 0.704966 0.951276 0.418565
O O10 0.704308 0.219058 0.428174
#
# Coordination Sequence:
#
# PCOD9527821 Si02
#       5
#    16   8  16  16  16
#     4  10  21  37  61  91 125 166 201 253 310 387
#     4  10  21  41  62  90 124 162 216 266 318 370
#     4  11  22  39  60  91 132 170 201 250 318 389
#     4  11  23  42  66  91 123 168 218 272 320 367
#     4  11  23  41  65  94 129 165 216 263 317 378
#
# _framework density 20.393951000000001
#
# number of rings (size 3 to 8) (size 9 to 14) (size 15 to 20)
#    0.000    1.333    2.222    4.333    0.000    1.778 
#    4.000    0.000    0.000    1.333    0.000    0.000 
#    0.000    0.000    0.000    0.000    0.000    0.000 
#
# Total GULP energy -200804.636826 kJ/mol
# GULP energy per Si atom -5577.906578 kJ/mol
# Density = 2.034753 g / cm^3
# Si number density = 20.393951 Si / 1000 Ang^3
#
#
#
# Elastic Constant Matrix: (Units=GPa)
#
#
# Indices 1 2 3 4 5 6 
#
# 1 34.1177 0.1555 -5.6252 0.0000 0.0000 0.0000
# 2 0.1555 49.4948 23.6699 0.0000 0.0000 0.0000
# 3 -5.6252 23.6699 69.5076 0.0000 0.0000 0.0000
# 4 0.0000 0.0000 0.0000 27.4397 0.0000 0.0000
# 5 0.0000 0.0000 0.0000 0.0000 -0.2335 0.0000
# 6 0.0000 0.0000 0.0000 0.0000 0.0000 23.6631
#
#
#
# Elastic Compliance Matrix: (Units=1/GPa)
#
#
# Indices 1 2 3 4 5 6 
#
# 1 0.029798 -0.001489 0.002919 0.000000 0.000000 0.000000
# 2 -0.001489 0.024209 -0.008365 0.000000 0.000000 0.000000
# 3 0.002919 -0.008365 0.017472 0.000000 0.000000 0.000000
# 4 0.000000 0.000000 0.000000 0.036444 0.000000 0.000000
# 5 0.000000 0.000000 0.000000 0.000000 -4.282079 0.000000
# 6 0.000000 0.000000 0.000000 0.000000 0.000000 0.042260
#
#
# Mechanical properties :
#
#
# Convention : Reuss Voigt Hill
#
# Bulk Modulus (GPa) = 17.35861 21.05784 19.20822
# Shear Modulus (GPa) = -1.21986 19.16852 8.97433
#
# Velocity S-wave (km/s) = -0.77424 3.06912 2.10001
# Velocity P-wave (km/s) = 2.78044 4.78616 3.91396
#
# Compressibility (1/GPa) = 0.05760831
#
# Stress axis : x y z
#
# Youngs Moduli (GPa) = 33.55895 41.30695 57.23580
#
# Poissons Ratio (x) = 0.06153 -0.16706
# Poissons Ratio (y) = 0.04999 0.47875
# Poissons Ratio (z) = -0.09795 0.34552
#
# Static dielectric constant tensor:
#      x y z
#    x 1.789740 0.000000 0.000000 
#    y 0.000000 1.800730 0.000000 
#    z 0.000000 0.000000 1.684670 
# 
# From -- ./inp_files/47901.got.cif
#   From: 2010.05.17/outbox.cif.g08.bks.cpg/sg72_24_cif.got.tgz:47901.got - 2010.06.03 17:03:01.
