data_PCOD9527229
_publ_section_title
;
Structure prediction by ZEFSAII (Michael W. Deem and Ramdas Pophale) SiO2 
 PCOD9527229
Probable space group: I B A M
;
_chemical_formula_sum "Si O2"
_cell_formula_units_Z 116
_cell_length_a 24.834097
_cell_length_b 7.983017
_cell_length_c 27.242668
_cell_angle_alpha 90.000000
_cell_angle_beta 90.000000
_cell_angle_gamma 90.000000
_cell_volume 5400.886678
_symmetry_space_group_name_H-M "I B A M"
_symmetry_group_IT_number 72
_symmetry_cell_setting 'orthorhombic'
loop_
_space_group_symop_operation_xyz
x,y,z
-x,-y,z
x,-y,1/2-z
-x,y,1/2-z
-x,-y,-z
x,y,-z
-x,y,1/2+z
x,-y,1/2+z
1/2+x,1/2+y,1/2+z
1/2-x,1/2-y,1/2+z
1/2+x,1/2-y,-z
1/2-x,1/2+y,-z
1/2-x,1/2-y,1/2-z
1/2+x,1/2+y,1/2-z
1/2-x,1/2+y,z
1/2+x,1/2-y,z
loop_
_atom_site_type_symbol
_atom_site_label
_atom_site_fract_x
_atom_site_fract_y
_atom_site_fract_z
Si Si1 0.815185 0.611355 0.644941
Si Si2 0.500000 0.000000 0.250000
Si Si3 0.562255 0.482748 0.129244
Si Si4 0.284399 0.465805 0.807094
Si Si5 0.884863 0.843198 0.212611
Si Si6 0.089117 0.318124 0.692834
Si Si7 0.234664 0.218386 0.557236
Si Si8 0.838809 0.110896 0.557704
O O1 0.769802 0.490157 0.664006
O O2 0.806392 0.786063 0.676096
O O3 0.874920 0.559890 0.659396
O O4 0.802003 0.660341 0.589916
O O5 0.466019 0.113653 0.213221
O O6 0.500000 0.500000 0.112943
O O7 0.568591 0.344138 0.172588
O O8 0.579208 0.654920 0.158002
O O9 0.607393 0.433316 0.088606
O O10 0.272898 0.500000 0.750000
O O11 0.330371 0.606038 0.815934
O O12 0.881258 0.702803 0.253563
O O13 0.894814 0.000000 0.250000
O O14 0.233045 0.264050 0.500000
O O15 0.297999 0.236281 0.571818
O O16 0.203872 0.042455 0.562699
O O17 0.853147 0.127901 0.500000
#
# Coordination Sequence:
#
# PCOD9527229 Si02
#       8
#    16   4  16  16  16  16  16  16
#     4  12  21  35  59  84 123 154 195 240 302 366
#     4  12  28  40  54  80 118 160 212 254 290 364
#     4  11  20  37  62  84 113 156 206 252 296 349
#     4  11  21  34  53  88 122 156 191 234 298 370
#     4   9  17  34  54  77 109 149 197 233 279 350
#     4  11  23  40  54  79 114 159 203 247 297 345
#     4  10  20  37  61  89 123 155 194 251 305 369
#     4  10  21  39  62  93 123 154 199 250 314 372
#
# _framework density 21.477955000000001
#
# number of rings (size 3 to 8) (size 9 to 14) (size 15 to 20)
#    0.000    1.379    5.517    2.897    0.966    2.207 
#    0.000    4.138    0.000    0.000    0.000    1.931 
#    0.000    0.000    0.000    0.000    0.000    0.000 
#
# Total GULP energy -323325.035648 kJ/mol
# GULP energy per Si atom -5574.569580 kJ/mol
# Density = 2.142907 g / cm^3
# Si number density = 21.477955 Si / 1000 Ang^3
#
#
#
# Elastic Constant Matrix: (Units=GPa)
#
#
# Indices 1 2 3 4 5 6 
#
# 1 145.8192 22.6481 59.5082 0.0000 0.0000 0.0000
# 2 22.6481 38.3810 14.9186 0.0000 0.0000 0.0000
# 3 59.5082 14.9186 106.3646 0.0000 0.0000 0.0000
# 4 0.0000 0.0000 0.0000 19.6334 0.0000 0.0000
# 5 0.0000 0.0000 0.0000 0.0000 33.3654 0.0000
# 6 0.0000 0.0000 0.0000 0.0000 0.0000 27.0761
#
#
#
# Elastic Compliance Matrix: (Units=1/GPa)
#
#
# Indices 1 2 3 4 5 6 
#
# 1 0.009355 -0.003687 -0.004717 0.000000 0.000000 0.000000
# 2 -0.003687 0.029010 -0.002006 0.000000 0.000000 0.000000
# 3 -0.004717 -0.002006 0.012322 0.000000 0.000000 0.000000
# 4 0.000000 0.000000 0.000000 0.050934 0.000000 0.000000
# 5 0.000000 0.000000 0.000000 0.000000 0.029971 0.000000
# 6 0.000000 0.000000 0.000000 0.000000 0.000000 0.036933
#
#
# Mechanical properties :
#
#
# Convention : Reuss Voigt Hill
#
# Bulk Modulus (GPa) = 33.48155 53.85717 43.66936
# Shear Modulus (GPa) = 25.08767 28.91431 27.00099
#
# Velocity S-wave (km/s) = 3.42141 3.67308 3.54948
# Velocity P-wave (km/s) = 5.58844 6.56648 6.09711
#
# Compressibility (1/GPa) = 0.02986719
#
# Stress axis : x y z
#
# Youngs Moduli (GPa) = 106.88960 34.47087 81.15547
#
# Poissons Ratio (x) = 0.12710 0.38281
# Poissons Ratio (y) = 0.39411 0.16281
# Poissons Ratio (z) = 0.50420 0.06915
#
# Static dielectric constant tensor:
#      x y z
#    x 1.859680 0.000000 0.000000 
#    y 0.000000 1.951800 0.000000 
#    z 0.000000 0.000000 1.818960 
# 
# From -- ./inp_files/52437.got.cif
#   From: 2010.05.17/outbox.cif.g08.bks.cpg/sg72_27_cif.got.tgz:52437.got - 2010.06.03 17:03:01.
