data_PCOD9527246
_publ_section_title
;
Structure prediction by ZEFSAII (Michael W. Deem and Ramdas Pophale) SiO2 
 PCOD9527246
Probable space group: I B A M
;
_chemical_formula_sum "Si O2"
_cell_formula_units_Z 64
_cell_length_a 9.005586
_cell_length_b 21.044486
_cell_length_c 15.601400
_cell_angle_alpha 90.000000
_cell_angle_beta 90.000000
_cell_angle_gamma 90.000000
_cell_volume 2956.745010
_symmetry_space_group_name_H-M "I B A M"
_symmetry_group_IT_number 72
_symmetry_cell_setting 'orthorhombic'
loop_
_space_group_symop_operation_xyz
x,y,z
-x,-y,z
x,-y,1/2-z
-x,y,1/2-z
-x,-y,-z
x,y,-z
-x,y,1/2+z
x,-y,1/2+z
1/2+x,1/2+y,1/2+z
1/2-x,1/2-y,1/2+z
1/2+x,1/2-y,-z
1/2-x,1/2+y,-z
1/2-x,1/2-y,1/2-z
1/2+x,1/2+y,1/2-z
1/2-x,1/2+y,z
1/2+x,1/2-y,z
loop_
_atom_site_type_symbol
_atom_site_label
_atom_site_fract_x
_atom_site_fract_y
_atom_site_fract_z
Si Si1 0.607855 0.686615 0.901560
Si Si2 0.079412 0.564459 0.896414
Si Si3 0.066496 0.696211 0.342911
Si Si4 0.080138 0.064964 0.895196
O O1 0.756526 0.697934 0.848236
O O2 0.503926 0.748325 0.900302
O O3 0.514255 0.626379 0.869295
O O4 0.654748 0.673497 0.000000
O O5 0.249630 0.567999 0.865654
O O6 0.000000 0.500000 0.866435
O O7 0.989712 0.626803 0.870335
O O8 0.083050 0.562427 0.000000
O O9 0.000000 0.708920 0.250000
O O10 0.083148 0.065420 0.000000
O O11 0.000000 0.000000 0.868578
#
# Coordination Sequence:
#
# PCOD9527246 Si02
#       4
#    16  16  16  16
#     4  11  22  39  63  88 118 159 208 254 304 373
#     4  10  20  37  62  89 119 159 208 256 304 365
#     4  12  25  40  59  87 124 160 198 254 319 375
#     4   9  18  34  59  90 117 146 194 254 305 353
#
# _framework density 21.645423999999998
#
# number of rings (size 3 to 8) (size 9 to 14) (size 15 to 20)
#    0.000    1.500    0.000    6.000    0.000    6.500 
#    0.000    0.000    0.000    5.250    0.000    0.000 
#    0.000    0.000    0.000    0.000    0.000    0.000 
#
# Total GULP energy -179063.723831 kJ/mol
# GULP energy per Si atom -5595.741370 kJ/mol
# Density = 2.159616 g / cm^3
# Si number density = 21.645424 Si / 1000 Ang^3
#
#
#
# Elastic Constant Matrix: (Units=GPa)
#
#
# Indices 1 2 3 4 5 6 
#
# 1 182.2408 79.8393 14.9813 0.0000 0.0000 0.0000
# 2 79.8393 168.9250 1.2128 0.0000 0.0000 0.0000
# 3 14.9813 1.2128 42.0594 0.0000 0.0000 0.0000
# 4 0.0000 0.0000 0.0000 94.8073 0.0000 0.0000
# 5 0.0000 0.0000 0.0000 0.0000 20.3218 0.0000
# 6 0.0000 0.0000 0.0000 0.0000 0.0000 44.7701
#
#
#
# Elastic Compliance Matrix: (Units=1/GPa)
#
#
# Indices 1 2 3 4 5 6 
#
# 1 0.007165 -0.003369 -0.002455 0.000000 0.000000 0.000000
# 2 -0.003369 0.007505 0.000984 0.000000 0.000000 0.000000
# 3 -0.002455 0.000984 0.024622 0.000000 0.000000 0.000000
# 4 0.000000 0.000000 0.000000 0.010548 0.000000 0.000000
# 5 0.000000 0.000000 0.000000 0.000000 0.049208 0.000000
# 6 0.000000 0.000000 0.000000 0.000000 0.000000 0.022336
#
#
# Mechanical properties :
#
#
# Convention : Reuss Voigt Hill
#
# Bulk Modulus (GPa) = 33.77071 65.03243 49.40157
# Shear Modulus (GPa) = 35.47740 51.79265 43.63502
#
# Velocity S-wave (km/s) = 4.05288 4.89691 4.49475
# Velocity P-wave (km/s) = 6.12673 7.87925 7.05760
#
# Compressibility (1/GPa) = 0.02961146
#
# Stress axis : x y z
#
# Youngs Moduli (GPa) = 139.56952 133.24637 40.61408
#
# Poissons Ratio (x) = 0.44887 0.09971
# Poissons Ratio (y) = 0.47017 -0.03994
# Poissons Ratio (z) = 0.34264 -0.13105
#
# Static dielectric constant tensor:
#      x y z
#    x 1.739320 0.000000 0.000000 
#    y 0.000000 1.745210 0.000000 
#    z 0.000000 0.000000 1.824530 
# 
# From -- ./inp_files/18685.got.cif
#   From: 2010.05.17/outbox.cif.g08.bks.cpg/sg72_10_cif.got.tgz:18685.got - 2010.06.03 17:03:01.
