data_PCOD9527514
_publ_section_title
;
Structure prediction by ZEFSAII (Michael W. Deem and Ramdas Pophale) SiO2 
 PCOD9527514
Probable space group: I B A M
;
_chemical_formula_sum "Si O2"
_cell_formula_units_Z 64
_cell_length_a 14.794014
_cell_length_b 12.211487
_cell_length_c 15.515381
_cell_angle_alpha 90.000000
_cell_angle_beta 90.000000
_cell_angle_gamma 90.000000
_cell_volume 2802.960783
_symmetry_space_group_name_H-M "I B A M"
_symmetry_group_IT_number 72
_symmetry_cell_setting 'orthorhombic'
loop_
_space_group_symop_operation_xyz
x,y,z
-x,-y,z
x,-y,1/2-z
-x,y,1/2-z
-x,-y,-z
x,y,-z
-x,y,1/2+z
x,-y,1/2+z
1/2+x,1/2+y,1/2+z
1/2-x,1/2-y,1/2+z
1/2+x,1/2-y,-z
1/2-x,1/2+y,-z
1/2-x,1/2-y,1/2-z
1/2+x,1/2+y,1/2-z
1/2-x,1/2+y,z
1/2+x,1/2-y,z
loop_
_atom_site_type_symbol
_atom_site_label
_atom_site_fract_x
_atom_site_fract_y
_atom_site_fract_z
Si Si1 0.871383 0.282960 0.097355
Si Si2 0.606727 0.019603 0.101128
Si Si3 0.192862 0.265559 0.836755
Si Si4 0.971042 0.123451 0.605306
O O1 0.853990 0.404165 0.133338
O O2 0.775166 0.225148 0.096075
O O3 0.949471 0.206695 0.135585
O O4 0.903369 0.304829 0.000000
O O5 0.636530 0.123318 0.155677
O O6 0.500000 0.000000 0.106003
O O7 0.630197 0.039741 0.000000
O O8 0.250000 0.250000 0.750000
O O9 0.123434 0.167478 0.857415
O O10 0.965056 0.127114 0.500000
O O11 0.000000 0.000000 0.628620
#
# Coordination Sequence:
#
# PCOD9527514 Si02
#       4
#    16  16  16  16
#     4  10  22  41  69 100 130 179 241 296 343 403
#     4  10  20  42  73  97 128 181 245 296 330 398
#     4  12  26  42  64 102 146 181 218 284 364 434
#     4  10  22  44  72 101 135 181 237 292 347 414
#
# _framework density 22.832996999999999
#
# number of rings (size 3 to 8) (size 9 to 14) (size 15 to 20)
#    0.000    1.500    2.500    2.250    3.500    2.000 
#    0.000    2.500    0.000    0.000    0.000    0.000 
#    0.000    0.000    0.000    0.000    0.000    0.000 
#
# Total GULP energy -178735.320778 kJ/mol
# GULP energy per Si atom -5585.478774 kJ/mol
# Density = 2.278103 g / cm^3
# Si number density = 22.832997 Si / 1000 Ang^3
#
#
#
# Elastic Constant Matrix: (Units=GPa)
#
#
# Indices 1 2 3 4 5 6 
#
# 1 154.8503 69.7253 32.0546 0.0000 0.0000 0.0000
# 2 69.7253 161.0518 51.2031 0.0000 0.0000 0.0000
# 3 32.0546 51.2031 85.4036 0.0000 0.0000 0.0000
# 4 0.0000 0.0000 0.0000 9.5293 0.0000 0.0000
# 5 0.0000 0.0000 0.0000 0.0000 22.3667 0.0000
# 6 0.0000 0.0000 0.0000 0.0000 0.0000 42.7822
#
#
#
# Elastic Compliance Matrix: (Units=1/GPa)
#
#
# Indices 1 2 3 4 5 6 
#
# 1 0.008114 -0.003144 -0.001160 0.000000 0.000000 0.000000
# 2 -0.003144 0.008890 -0.004150 0.000000 0.000000 0.000000
# 3 -0.001160 -0.004150 0.014633 0.000000 0.000000 0.000000
# 4 0.000000 0.000000 0.000000 0.104940 0.000000 0.000000
# 5 0.000000 0.000000 0.000000 0.000000 0.044709 0.000000
# 6 0.000000 0.000000 0.000000 0.000000 0.000000 0.023374
#
#
# Mechanical properties :
#
#
# Convention : Reuss Voigt Hill
#
# Bulk Modulus (GPa) = 67.89840 78.58574 73.24207
# Shear Modulus (GPa) = 22.07739 31.49049 26.78394
#
# Velocity S-wave (km/s) = 3.11289 3.71774 3.42868
# Velocity P-wave (km/s) = 6.53618 7.27469 6.91530
#
# Compressibility (1/GPa) = 0.01472789
#
# Stress axis : x y z
#
# Youngs Moduli (GPa) = 123.24948 112.49179 68.34057
#
# Poissons Ratio (x) = 0.35364 0.07931
# Poissons Ratio (y) = 0.38746 0.28359
# Poissons Ratio (z) = 0.14303 0.46681
#
# Static dielectric constant tensor:
#      x y z
#    x 1.758640 0.000000 0.000000 
#    y 0.000000 1.928710 0.000000 
#    z 0.000000 0.000000 2.070100 
# 
# From -- ./inp_files/30120.got.cif
#   From: 2010.05.17/outbox.cif.g08.bks.cpg/sg72_16_cif.got.tgz:30120.got - 2010.06.03 17:03:01.
