data_PCOD9527464
_publ_section_title
;
Structure prediction by ZEFSAII (Michael W. Deem and Ramdas Pophale) SiO2 
 PCOD9527464
Probable space group: I B A M
;
_chemical_formula_sum "Si O2"
_cell_formula_units_Z 96
_cell_length_a 13.950304
_cell_length_b 11.080935
_cell_length_c 32.328404
_cell_angle_alpha 90.000000
_cell_angle_beta 90.000000
_cell_angle_gamma 90.000000
_cell_volume 4997.402662
_symmetry_space_group_name_H-M "I B A M"
_symmetry_group_IT_number 72
_symmetry_cell_setting 'orthorhombic'
loop_
_space_group_symop_operation_xyz
x,y,z
-x,-y,z
x,-y,1/2-z
-x,y,1/2-z
-x,-y,-z
x,y,-z
-x,y,1/2+z
x,-y,1/2+z
1/2+x,1/2+y,1/2+z
1/2-x,1/2-y,1/2+z
1/2+x,1/2-y,-z
1/2-x,1/2+y,-z
1/2-x,1/2-y,1/2-z
1/2+x,1/2+y,1/2-z
1/2-x,1/2+y,z
1/2+x,1/2-y,z
loop_
_atom_site_type_symbol
_atom_site_label
_atom_site_fract_x
_atom_site_fract_y
_atom_site_fract_z
Si Si1 0.508742 0.354748 0.701729
Si Si2 0.608390 0.520534 0.078405
Si Si3 0.653167 0.267955 0.359764
Si Si4 0.628899 0.720102 0.628412
Si Si5 0.763921 0.081687 0.000000
Si Si6 0.350780 0.835413 0.500000
Si Si7 0.967036 0.365346 0.082087
O O1 0.500000 0.500000 0.697040
O O2 0.500000 0.326297 0.750000
O O3 0.608268 0.301235 0.684205
O O4 0.428347 0.300006 0.671199
O O5 0.500000 0.500000 0.063692
O O6 0.608763 0.631307 0.109968
O O7 0.641663 0.406061 0.104761
O O8 0.677425 0.547956 0.040860
O O9 0.766659 0.272330 0.362690
O O10 0.609319 0.146739 0.380124
O O11 0.562277 0.797779 0.597878
O O12 0.765927 0.231241 0.000000
O O13 0.681092 0.977530 0.000000
O O14 0.415251 0.816038 0.540901
O O15 0.000000 0.500000 0.073671
#
# Coordination Sequence:
#
# PCOD9527464 Si02
#       7
#    16  16  16  16   8   8  16
#     4  10  20  40  66  94 124 159 205 261 317 379
#     4  12  21  43  62  90 121 167 220 260 310 366
#     4  11  22  40  64  91 127 157 214 252 314 379
#     4  11  23  39  68  91 125 170 205 264 312 378
#     4  12  27  38  66  91 130 169 220 272 315 373
#     4  12  25  46  60  95 132 171 222 275 322 379
#     4  11  25  41  60  91 128 167 209 260 322 374
#
# _framework density 19.209979000000001
#
# number of rings (size 3 to 8) (size 9 to 14) (size 15 to 20)
#    0.000    0.833    6.667    1.500    4.667    1.333 
#    0.000    0.833    0.000    8.000    0.000    0.000 
#    0.000    0.000    0.000    0.000    0.000    0.000 
#
# Total GULP energy -267905.029942 kJ/mol
# GULP energy per Si atom -5581.354790 kJ/mol
# Density = 1.916626 g / cm^3
# Si number density = 19.209979 Si / 1000 Ang^3
#
#
#
# Elastic Constant Matrix: (Units=GPa)
#
#
# Indices 1 2 3 4 5 6 
#
# 1 102.2854 24.8962 23.2060 0.0000 0.0000 0.0000
# 2 24.8962 68.4885 26.5775 0.0000 0.0000 0.0000
# 3 23.2060 26.5775 117.5640 0.0000 0.0000 0.0000
# 4 0.0000 0.0000 0.0000 20.2894 0.0000 0.0000
# 5 0.0000 0.0000 0.0000 0.0000 27.6372 0.0000
# 6 0.0000 0.0000 0.0000 0.0000 0.0000 27.2395
#
#
#
# Elastic Compliance Matrix: (Units=1/GPa)
#
#
# Indices 1 2 3 4 5 6 
#
# 1 0.010926 -0.003436 -0.001380 0.000000 0.000000 0.000000
# 2 -0.003436 0.017086 -0.003184 0.000000 0.000000 0.000000
# 3 -0.001380 -0.003184 0.009498 0.000000 0.000000 0.000000
# 4 0.000000 0.000000 0.000000 0.049287 0.000000 0.000000
# 5 0.000000 0.000000 0.000000 0.000000 0.036183 0.000000
# 6 0.000000 0.000000 0.000000 0.000000 0.000000 0.036711
#
#
# Mechanical properties :
#
#
# Convention : Reuss Voigt Hill
#
# Bulk Modulus (GPa) = 46.49157 48.63303 47.56230
# Shear Modulus (GPa) = 27.34302 29.27708 28.31005
#
# Velocity S-wave (km/s) = 3.77686 3.90815 3.84307
# Velocity P-wave (km/s) = 6.57829 6.76287 6.67122
#
# Compressibility (1/GPa) = 0.02150928
#
# Stress axis : x y z
#
# Youngs Moduli (GPa) = 91.52485 58.52820 105.28265
#
# Poissons Ratio (x) = 0.20112 0.14528
# Poissons Ratio (y) = 0.31450 0.33525
# Poissons Ratio (z) = 0.12629 0.18637
#
# Static dielectric constant tensor:
#      x y z
#    x 1.697340 0.000000 0.000000 
#    y 0.000000 1.747780 0.000000 
#    z 0.000000 0.000000 1.642580 
# 
# From -- ./inp_files/51718.got.cif
#   From: 2010.05.17/outbox.cif.g08.bks.cpg/sg72_26_cif.got.tgz:51718.got - 2010.06.03 17:03:01.
