data_PCOD9527959
_publ_section_title
;
Structure prediction by ZEFSAII (Michael W. Deem and Ramdas Pophale) SiO2 
 PCOD9527959
Probable space group: I B A M
;
_chemical_formula_sum "Si O2"
_cell_formula_units_Z 88
_cell_length_a 7.315429
_cell_length_b 31.113545
_cell_length_c 15.285346
_cell_angle_alpha 90.000000
_cell_angle_beta 90.000000
_cell_angle_gamma 90.000000
_cell_volume 3479.081238
_symmetry_space_group_name_H-M "I B A M"
_symmetry_group_IT_number 72
_symmetry_cell_setting 'orthorhombic'
loop_
_space_group_symop_operation_xyz
x,y,z
-x,-y,z
x,-y,1/2-z
-x,y,1/2-z
-x,-y,-z
x,y,-z
-x,y,1/2+z
x,-y,1/2+z
1/2+x,1/2+y,1/2+z
1/2-x,1/2-y,1/2+z
1/2+x,1/2-y,-z
1/2-x,1/2+y,-z
1/2-x,1/2-y,1/2-z
1/2+x,1/2+y,1/2-z
1/2-x,1/2+y,z
1/2+x,1/2-y,z
loop_
_atom_site_type_symbol
_atom_site_label
_atom_site_fract_x
_atom_site_fract_y
_atom_site_fract_z
Si Si1 0.772822 0.105292 0.655037
Si Si2 0.251473 0.559881 0.500000
Si Si3 0.157452 0.306953 0.599777
Si Si4 0.216782 0.507734 0.849815
Si Si5 0.689304 0.624187 0.144402
Si Si6 0.086317 0.785171 0.898305
O O1 0.638607 0.144951 0.634819
O O2 0.733438 0.057544 0.624087
O O3 0.781636 0.105843 0.759741
O O4 0.975868 0.115565 0.619386
O O5 0.295352 0.524407 0.578150
O O6 0.204108 0.596325 0.424785
O O7 0.090217 0.307512 0.500000
O O8 0.088497 0.262560 0.641676
O O9 0.375842 0.298956 0.601229
O O10 0.284013 0.500000 0.750000
O O11 0.000000 0.500000 0.849810
O O12 0.702328 0.676160 0.144252
O O13 0.147901 0.782292 0.000000
#
# Coordination Sequence:
#
# PCOD9527959 Si02
#       6
#    16   8  16  16  16  16
#     4  10  22  41  60  91 125 161 204 263 316 367
#     4  12  23  43  66  94 115 175 206 258 323 370
#     4   9  19  35  58  87 121 163 200 253 315 371
#     4  11  25  45  62  89 131 166 211 263 309 377
#     4  10  21  38  65  92 123 156 207 265 312 371
#     4   9  17  35  56  86 122 155 204 252 304 375
#
# _framework density 25.294032999999999
#
# number of rings (size 3 to 8) (size 9 to 14) (size 15 to 20)
#    0.000    2.000    2.727    0.273    2.545    2.182 
#    3.273    0.000    0.000    0.000    0.000    0.000 
#    0.000    0.000    0.000    0.000    0.000    0.000 
#
# Total GULP energy -245020.701997 kJ/mol
# GULP energy per Si atom -5568.652318 kJ/mol
# Density = 2.523646 g / cm^3
# Si number density = 25.294033 Si / 1000 Ang^3
#
#
#
# Elastic Constant Matrix: (Units=GPa)
#
#
# Indices 1 2 3 4 5 6 
#
# 1 40.7864 33.0805 8.7961 0.0000 0.0000 0.0000
# 2 33.0805 249.2624 29.9973 -0.0001 0.0000 0.0000
# 3 8.7961 29.9973 63.1744 -0.0001 0.0000 0.0000
# 4 0.0000 -0.0001 -0.0001 19.4776 0.0000 0.0000
# 5 0.0000 0.0000 0.0000 0.0000 -0.9980 0.0000
# 6 0.0000 0.0000 0.0000 0.0000 0.0000 33.7962
#
#
#
# Elastic Compliance Matrix: (Units=1/GPa)
#
#
# Indices 1 2 3 4 5 6 
#
# 1 0.027772 -0.003416 -0.002245 0.000000 0.000000 0.000000
# 2 -0.003416 0.004675 -0.001744 0.000000 0.000000 0.000000
# 3 -0.002245 -0.001744 0.016970 0.000000 -0.000001 0.000000
# 4 0.000000 0.000000 0.000000 0.051341 -0.000001 0.000000
# 5 0.000000 0.000000 -0.000001 -0.000001 -1.001980 0.000000
# 6 0.000000 0.000000 0.000000 0.000000 0.000000 0.029589
#
#
# Mechanical properties :
#
#
# Convention : Reuss Voigt Hill
#
# Bulk Modulus (GPa) = 28.89539 55.21902 42.05720
# Shear Modulus (GPa) = -5.91515 29.21177 11.64831
#
# Velocity S-wave (km/s) = -1.53089 3.40205 2.14829
# Velocity P-wave (km/s) = 2.88509 6.10821 4.77671
#
# Compressibility (1/GPa) = 0.03460760
#
# Stress axis : x y z
#
# Youngs Moduli (GPa) = 36.00691 213.90153 58.92741
#
# Poissons Ratio (x) = 0.73060 0.13230
# Poissons Ratio (y) = 0.12299 0.10279
# Poissons Ratio (z) = 0.08084 0.37311
#
# Static dielectric constant tensor:
#      x y z
#    x 2.081760 0.000000 0.000000 
#    y 0.000000 2.030530 0.000000 
#    z 0.000000 0.000000 1.943680 
# 
# From -- ./inp_files/28365.got.cif
#   From: 2010.05.17/outbox.cif.g08.bks.cpg/sg72_15_cif.got.tgz:28365.got - 2010.06.03 17:03:01.
