data_PCOD9527855
_publ_section_title
;
Structure prediction by ZEFSAII (Michael W. Deem and Ramdas Pophale) SiO2 
 PCOD9527855
Probable space group: I B A M
;
_chemical_formula_sum "Si O2"
_cell_formula_units_Z 96
_cell_length_a 19.250445
_cell_length_b 28.349568
_cell_length_c 9.517737
_cell_angle_alpha 90.000000
_cell_angle_beta 90.000000
_cell_angle_gamma 90.000000
_cell_volume 5194.226918
_symmetry_space_group_name_H-M "I B A M"
_symmetry_group_IT_number 72
_symmetry_cell_setting 'orthorhombic'
loop_
_space_group_symop_operation_xyz
x,y,z
-x,-y,z
x,-y,1/2-z
-x,y,1/2-z
-x,-y,-z
x,y,-z
-x,y,1/2+z
x,-y,1/2+z
1/2+x,1/2+y,1/2+z
1/2-x,1/2-y,1/2+z
1/2+x,1/2-y,-z
1/2-x,1/2+y,-z
1/2-x,1/2-y,1/2-z
1/2+x,1/2+y,1/2-z
1/2-x,1/2+y,z
1/2+x,1/2-y,z
loop_
_atom_site_type_symbol
_atom_site_label
_atom_site_fract_x
_atom_site_fract_y
_atom_site_fract_z
Si Si1 0.220274 0.792697 0.658916
Si Si2 0.427972 0.826409 0.337229
Si Si3 0.800447 0.048401 0.166566
Si Si4 0.418517 0.280968 0.220206
Si Si5 0.300105 0.131018 0.331437
Si Si6 0.430934 0.612767 0.342809
O O1 0.247036 0.794764 0.500000
O O2 0.250000 0.750000 0.750000
O O3 0.137351 0.785627 0.656071
O O4 0.243805 0.837172 0.749882
O O5 0.500000 0.828713 0.250000
O O6 0.435184 0.841938 0.500000
O O7 0.405168 0.770990 0.342356
O O8 0.371200 0.855711 0.248322
O O9 0.729649 0.078386 0.185430
O O10 0.866357 0.081234 0.208377
O O11 0.800201 0.000000 0.250000
O O12 0.807353 0.039692 0.000000
O O13 0.500000 0.279727 0.250000
O O14 0.409596 0.331933 0.148317
O O15 0.303449 0.141574 0.500000
O O16 0.500000 0.609009 0.250000
O O17 0.448254 0.596949 0.500000
#
# Coordination Sequence:
#
# PCOD9527855 Si02
#       6
#    16  16  16  16  16  16
#     4  12  24  37  58  87 120 161 206 250 299 354
#     4  11  23  38  61  91 125 165 203 240 290 352
#     4  10  23  42  63  87 115 151 195 253 311 364
#     4  10  22  37  55  83 125 163 210 240 293 339
#     4  11  23  41  62  86 121 157 198 249 303 358
#     4  10  21  38  57  83 118 160 204 249 297 347
#
# _framework density 18.482057999999999
#
# number of rings (size 3 to 8) (size 9 to 14) (size 15 to 20)
#    0.000    1.333    3.333    2.000    0.000    9.000 
#    0.000    1.667    0.000    0.500    0.000    3.500 
#    0.000    0.000    0.000    0.000    0.000    0.000 
#
# Total GULP energy -267378.988355 kJ/mol
# GULP energy per Si atom -5570.395591 kJ/mol
# Density = 1.843999 g / cm^3
# Si number density = 18.482058 Si / 1000 Ang^3
#
#
#
# Elastic Constant Matrix: (Units=GPa)
#
#
# Indices 1 2 3 4 5 6 
#
# 1 135.6271 52.2929 69.0928 0.0000 0.0000 0.0000
# 2 52.2929 120.3831 60.8604 0.0000 0.0000 0.0000
# 3 69.0928 60.8604 138.7106 0.0000 0.0000 0.0000
# 4 0.0000 0.0000 0.0000 5.7190 0.0000 0.0000
# 5 0.0000 0.0000 0.0000 0.0000 27.1026 0.0000
# 6 0.0000 0.0000 0.0000 0.0000 0.0000 21.5328
#
#
#
# Elastic Compliance Matrix: (Units=1/GPa)
#
#
# Indices 1 2 3 4 5 6 
#
# 1 0.010411 -0.002442 -0.004114 0.000000 0.000000 0.000000
# 2 -0.002442 0.011248 -0.003718 0.000000 0.000000 0.000000
# 3 -0.004114 -0.003718 0.010890 0.000000 0.000000 0.000000
# 4 0.000000 0.000000 0.000000 0.174855 0.000000 0.000000
# 5 0.000000 0.000000 0.000000 0.000000 0.036897 0.000000
# 6 0.000000 0.000000 0.000000 0.000000 0.000000 0.046441
#
#
# Mechanical properties :
#
#
# Convention : Reuss Voigt Hill
#
# Bulk Modulus (GPa) = 83.34298 84.35701 83.84999
# Shear Modulus (GPa) = 15.85841 25.03588 20.44715
#
# Velocity S-wave (km/s) = 2.93242 3.68449 3.32975
# Velocity P-wave (km/s) = 7.52710 7.99014 7.76208
#
# Compressibility (1/GPa) = 0.01199861
#
# Stress axis : x y z
#
# Youngs Moduli (GPa) = 96.05537 88.90766 91.82775
#
# Poissons Ratio (x) = 0.21715 0.37778
# Poissons Ratio (y) = 0.23461 0.34145
# Poissons Ratio (z) = 0.39517 0.33060
#
# Static dielectric constant tensor:
#      x y z
#    x 1.729530 0.000000 0.000000 
#    y 0.000000 1.654310 0.000000 
#    z 0.000000 0.000000 1.650140 
# 
# From -- ./inp_files/5952.got.cif
#   From: 2010.05.17/outbox.cif.g08.bks.cpg/sg72_3_cif.got.tgz:5952.got - 2010.06.03 17:03:01.
