data_PCOD9527391
_publ_section_title
;
Structure prediction by ZEFSAII (Michael W. Deem and Ramdas Pophale) SiO2 
 PCOD9527391
Probable space group: I B A M
;
_chemical_formula_sum "Si O2"
_cell_formula_units_Z 104
_cell_length_a 22.611795
_cell_length_b 8.256231
_cell_length_c 27.458187
_cell_angle_alpha 90.000000
_cell_angle_beta 90.000000
_cell_angle_gamma 90.000000
_cell_volume 5126.119584
_symmetry_space_group_name_H-M "I B A M"
_symmetry_group_IT_number 72
_symmetry_cell_setting 'orthorhombic'
loop_
_space_group_symop_operation_xyz
x,y,z
-x,-y,z
x,-y,1/2-z
-x,y,1/2-z
-x,-y,-z
x,y,-z
-x,y,1/2+z
x,-y,1/2+z
1/2+x,1/2+y,1/2+z
1/2-x,1/2-y,1/2+z
1/2+x,1/2-y,-z
1/2-x,1/2+y,-z
1/2-x,1/2-y,1/2-z
1/2+x,1/2+y,1/2-z
1/2-x,1/2+y,z
1/2+x,1/2-y,z
loop_
_atom_site_type_symbol
_atom_site_label
_atom_site_fract_x
_atom_site_fract_y
_atom_site_fract_z
Si Si1 0.219988 0.330929 0.442814
Si Si2 0.567101 0.563358 0.665753
Si Si3 0.325065 0.502431 0.101930
Si Si4 0.174351 0.500499 0.354211
Si Si5 0.652941 0.500000 0.250000
Si Si6 0.565721 0.935354 0.697907
Si Si7 0.232867 0.813527 0.809213
O O1 0.218578 0.358704 0.500000
O O2 0.287427 0.353269 0.422936
O O3 0.188292 0.159940 0.430001
O O4 0.188434 0.469859 0.410470
O O5 0.500000 0.500000 0.660126
O O6 0.608005 0.548065 0.617046
O O7 0.606352 0.471847 0.706426
O O8 0.565020 0.743809 0.688452
O O9 0.294405 0.447942 0.152670
O O10 0.105508 0.491594 0.344409
O O11 0.204216 0.351459 0.326082
O O12 0.199486 0.658067 0.325930
O O13 0.702661 0.358311 0.257715
O O14 0.500000 0.000000 0.695313
O O15 0.589967 0.000000 0.750000
#
# Coordination Sequence:
#
# PCOD9527391 Si02
#       7
#    16  16  16  16   8  16  16
#     4  10  20  38  68  97 127 162 206 266 334 403
#     4  11  25  41  64  87 127 178 222 269 314 379
#     4   9  21  37  60  96 126 161 211 260 333 386
#     4  10  22  38  58  90 131 157 207 260 327 380
#     4  10  21  34  60  84 117 164 224 252 310 364
#     4  11  27  42  61  91 128 177 226 264 308 379
#     4   9  20  33  55  84 122 161 194 256 317 372
#
# _framework density 20.288250000000001
#
# number of rings (size 3 to 8) (size 9 to 14) (size 15 to 20)
#    0.000    2.000    0.000    1.615   22.615    0.615 
#    0.000    0.000    0.000    2.308    0.000    0.000 
#    0.000    0.000    0.000    0.000    0.000    0.000 
#
# Total GULP energy -289567.698160 kJ/mol
# GULP energy per Si atom -5568.609580 kJ/mol
# Density = 2.024207 g / cm^3
# Si number density = 20.288250 Si / 1000 Ang^3
#
#
#
# Elastic Constant Matrix: (Units=GPa)
#
#
# Indices 1 2 3 4 5 6 
#
# 1 125.8750 19.1297 47.7367 0.0000 0.0000 0.0000
# 2 19.1297 90.3620 22.8342 0.0000 0.0000 0.0000
# 3 47.7367 22.8342 121.1475 0.0000 0.0000 0.0000
# 4 0.0000 0.0000 0.0000 13.9463 0.0000 0.0000
# 5 0.0000 0.0000 0.0000 0.0000 18.4776 0.0000
# 6 0.0000 0.0000 0.0000 0.0000 0.0000 24.8642
#
#
#
# Elastic Compliance Matrix: (Units=1/GPa)
#
#
# Indices 1 2 3 4 5 6 
#
# 1 0.009445 -0.001112 -0.003512 0.000000 0.000000 0.000000
# 2 -0.001112 0.011751 -0.001777 0.000000 0.000000 0.000000
# 3 -0.003512 -0.001777 0.009973 0.000000 0.000000 0.000000
# 4 0.000000 0.000000 0.000000 0.071704 0.000000 0.000000
# 5 0.000000 0.000000 0.000000 0.000000 0.054119 0.000000
# 6 0.000000 0.000000 0.000000 0.000000 0.000000 0.040219
#
#
# Mechanical properties :
#
#
# Convention : Reuss Voigt Hill
#
# Bulk Modulus (GPa) = 54.44351 57.42064 55.93207
# Shear Modulus (GPa) = 23.13362 27.96988 25.55175
#
# Velocity S-wave (km/s) = 3.38042 3.71701 3.55270
# Velocity P-wave (km/s) = 6.49073 6.83999 6.66764
#
# Compressibility (1/GPa) = 0.01836766
#
# Stress axis : x y z
#
# Youngs Moduli (GPa) = 105.87197 85.09929 100.26849
#
# Poissons Ratio (x) = 0.09464 0.35217
# Poissons Ratio (y) = 0.11774 0.17814
# Poissons Ratio (z) = 0.37185 0.15119
#
# Static dielectric constant tensor:
#      x y z
#    x 1.778940 0.000000 0.000000 
#    y 0.000000 1.833520 0.000000 
#    z 0.000000 0.000000 1.779070 
# 
# From -- ./inp_files/52403.got.cif
#   From: 2010.05.17/outbox.cif.g08.bks.cpg/sg72_27_cif.got.tgz:52403.got - 2010.06.03 17:03:01.
