data_PCOD9527526
_publ_section_title
;
Structure prediction by ZEFSAII (Michael W. Deem and Ramdas Pophale) SiO2 
 PCOD9527526
Probable space group: I B A M
;
_chemical_formula_sum "Si O2"
_cell_formula_units_Z 96
_cell_length_a 18.406706
_cell_length_b 26.307491
_cell_length_c 13.659272
_cell_angle_alpha 90.000000
_cell_angle_beta 90.000000
_cell_angle_gamma 90.000000
_cell_volume 6614.287366
_symmetry_space_group_name_H-M "I B A M"
_symmetry_group_IT_number 72
_symmetry_cell_setting 'orthorhombic'
loop_
_space_group_symop_operation_xyz
x,y,z
-x,-y,z
x,-y,1/2-z
-x,y,1/2-z
-x,-y,-z
x,y,-z
-x,y,1/2+z
x,-y,1/2+z
1/2+x,1/2+y,1/2+z
1/2-x,1/2-y,1/2+z
1/2+x,1/2-y,-z
1/2-x,1/2+y,-z
1/2-x,1/2-y,1/2-z
1/2+x,1/2+y,1/2-z
1/2-x,1/2+y,z
1/2+x,1/2-y,z
loop_
_atom_site_type_symbol
_atom_site_label
_atom_site_fract_x
_atom_site_fract_y
_atom_site_fract_z
Si Si1 0.586631 0.587159 0.500000
Si Si2 0.075667 0.251603 0.000000
Si Si3 0.917771 0.947878 0.212566
Si Si4 0.953059 0.832137 0.500000
Si Si5 0.707327 0.672062 0.500000
Si Si6 0.081878 0.269215 0.783302
Si Si7 0.727123 0.806262 0.786618
Si Si8 0.866789 0.159642 0.796399
O O1 0.583542 0.553756 0.596341
O O2 0.516234 0.624768 0.500000
O O3 0.661438 0.619737 0.500000
O O4 0.083570 0.280355 0.101548
O O5 0.999980 0.219956 0.000000
O O6 0.142996 0.213000 0.000000
O O7 0.888585 0.893781 0.249396
O O8 0.000000 0.948367 0.250000
O O9 0.881801 0.000000 0.250000
O O10 0.902779 0.835896 0.596439
O O11 0.751576 0.680886 0.398901
O O12 0.140984 0.304135 0.729121
O O13 0.102369 0.209138 0.763344
O O14 0.000000 0.276249 0.750000
O O15 0.750000 0.750000 0.750000
O O16 0.779540 0.838665 0.715616
#
# Coordination Sequence:
#
# PCOD9527526 Si02
#       8
#     8   8  16   8   8  16  16  16
#     4  11  20  34  54  68  95 141 169 199 253 294
#     4  11  18  28  47  67  89 131 161 203 247 286
#     4  11  22  33  50  71  98 127 172 209 245 286
#     4  11  20  27  53  66  92 136 174 197 251 295
#     4  11  18  32  51  66  93 134 172 199 242 295
#     4  11  21  33  48  69  98 126 168 205 249 296
#     4  10  21  31  49  69  94 125 170 209 245 288
#     4  11  19  34  46  70  94 131 167 210 239 290
#
# _framework density 14.514035
#
# number of rings (size 3 to 8) (size 9 to 14) (size 15 to 20)
#    0.000    1.167    8.333    1.500    0.000    6.000 
#    0.000    0.000    0.000    0.000    0.000    0.000 
#    0.000    0.667    0.000    1.500    0.000    0.000 
#
# Total GULP energy -267279.483438 kJ/mol
# GULP energy per Si atom -5568.322572 kJ/mol
# Density = 1.448100 g / cm^3
# Si number density = 14.514035 Si / 1000 Ang^3
#
#
#
# Elastic Constant Matrix: (Units=GPa)
#
#
# Indices 1 2 3 4 5 6 
#
# 1 107.0692 31.4104 44.2205 0.0000 0.0000 0.0000
# 2 31.4104 48.9531 31.8741 0.0000 0.0000 0.0000
# 3 44.2205 31.8741 142.0246 0.0000 0.0000 0.0000
# 4 0.0000 0.0000 0.0000 173.5056 0.0000 0.0000
# 5 0.0000 0.0000 0.0000 0.0000 12.8853 0.0000
# 6 0.0000 0.0000 0.0000 0.0000 0.0000 -0.7933
#
#
#
# Elastic Compliance Matrix: (Units=1/GPa)
#
#
# Indices 1 2 3 4 5 6 
#
# 1 0.012157 -0.006249 -0.002383 0.000000 0.000000 0.000000
# 2 -0.006249 0.027136 -0.004144 0.000000 0.000000 0.000000
# 3 -0.002383 -0.004144 0.008713 0.000000 0.000000 0.000000
# 4 0.000000 0.000000 0.000000 0.005764 0.000000 0.000000
# 5 0.000000 0.000000 0.000000 0.000000 0.077608 0.000000
# 6 0.000000 0.000000 0.000000 0.000000 0.000000 -1.260491
#
#
# Mechanical properties :
#
#
# Convention : Reuss Voigt Hill
#
# Bulk Modulus (GPa) = 44.53612 57.00631 50.77121
# Shear Modulus (GPa) = -4.56172 49.82231 22.63029
#
# Velocity S-wave (km/s) = -1.77477 5.86528 3.95296
# Velocity P-wave (km/s) = 5.15284 9.23204 7.47604
#
# Compressibility (1/GPa) = 0.02245369
#
# Stress axis : x y z
#
# Youngs Moduli (GPa) = 82.25636 36.85164 114.77079
#
# Poissons Ratio (x) = 0.23029 0.27347
# Poissons Ratio (y) = 0.51403 0.47565
# Poissons Ratio (z) = 0.19600 0.15272
#
# Static dielectric constant tensor:
#      x y z
#    x 1.504280 0.000000 0.000000 
#    y 0.000000 1.508620 0.000000 
#    z 0.000000 0.000000 1.533630 
# 
# From -- ./inp_files/13953.got.cif
#   From: 2010.05.17/outbox.cif.g08.bks.cpg/sg72_7_cif.got.tgz:13953.got - 2010.06.03 17:03:01.
