data_PCOD9527953
_publ_section_title
;
Structure prediction by ZEFSAII (Michael W. Deem and Ramdas Pophale) SiO2 
 PCOD9527953
Probable space group: I B A M
;
_chemical_formula_sum "Si O2"
_cell_formula_units_Z 112
_cell_length_a 12.155764
_cell_length_b 28.403401
_cell_length_c 15.204078
_cell_angle_alpha 90.000000
_cell_angle_beta 90.000000
_cell_angle_gamma 90.000000
_cell_volume 5249.436589
_symmetry_space_group_name_H-M "I B A M"
_symmetry_group_IT_number 72
_symmetry_cell_setting 'orthorhombic'
loop_
_space_group_symop_operation_xyz
x,y,z
-x,-y,z
x,-y,1/2-z
-x,y,1/2-z
-x,-y,-z
x,y,-z
-x,y,1/2+z
x,-y,1/2+z
1/2+x,1/2+y,1/2+z
1/2-x,1/2-y,1/2+z
1/2+x,1/2-y,-z
1/2-x,1/2+y,-z
1/2-x,1/2-y,1/2-z
1/2+x,1/2+y,1/2-z
1/2-x,1/2+y,z
1/2+x,1/2-y,z
loop_
_atom_site_type_symbol
_atom_site_label
_atom_site_fract_x
_atom_site_fract_y
_atom_site_fract_z
Si Si1 0.123381 0.336006 0.268314
Si Si2 0.748290 0.179766 0.904390
Si Si3 0.122317 0.559562 0.217146
Si Si4 0.717853 0.290295 0.095810
Si Si5 0.535003 0.548735 0.099204
Si Si6 0.290987 0.025505 0.601196
Si Si7 0.995640 0.156751 0.852601
O O1 0.185281 0.342734 0.176288
O O2 0.118786 0.386871 0.314335
O O3 0.198021 0.303048 0.327571
O O4 0.000000 0.318773 0.250000
O O5 0.708705 0.233936 0.903252
O O6 0.879768 0.175099 0.891193
O O7 0.721823 0.158798 0.000000
O O8 0.175426 0.525780 0.142931
O O9 0.180629 0.555730 0.311763
O O10 0.000000 0.547391 0.250000
O O11 0.602399 0.317620 0.107315
O O12 0.763784 0.303532 0.000000
O O13 0.500000 0.500000 0.145342
O O14 0.664392 0.539995 0.091551
O O15 0.504747 0.599733 0.137382
O O16 0.486020 0.549170 0.000000
O O17 0.337336 0.029725 0.500000
O O18 0.000000 0.168040 0.750000
#
# Coordination Sequence:
#
# PCOD9527953 Si02
#       7
#    16  16  16  16  16  16  16
#     4  11  25  43  67  97 135 172 224 284 335 410
#     4  11  25  45  69  97 133 176 224 282 346 413
#     4  10  23  40  59  92 127 166 217 271 321 379
#     4  11  26  44  69  98 132 178 225 282 348 413
#     4  10  23  40  61  95 133 170 215 271 328 399
#     4  10  21  38  64  88 123 171 216 262 320 389
#     4  12  25  42  71 102 137 180 227 286 346 413
#
# _framework density 21.335622000000001
#
# number of rings (size 3 to 8) (size 9 to 14) (size 15 to 20)
#    0.000    1.286    1.429    3.429    4.000    5.429 
#    0.000    2.857    0.000    0.000    0.000    0.000 
#    0.000    0.000    0.000    0.000    0.000    0.000 
#
# Total GULP energy -312091.167602 kJ/mol
# GULP energy per Si atom -5573.056564 kJ/mol
# Density = 2.128706 g / cm^3
# Si number density = 21.335622 Si / 1000 Ang^3
#
#
#
# Elastic Constant Matrix: (Units=GPa)
#
#
# Indices 1 2 3 4 5 6 
#
# 1 84.4571 19.8531 8.0069 0.0001 0.0000 0.0000
# 2 19.8531 94.3826 0.3094 0.0001 0.0000 0.0000
# 3 8.0069 0.3094 115.1991 0.0000 0.0002 0.0000
# 4 0.0001 0.0001 0.0000 43.0667 0.0001 0.0001
# 5 0.0000 0.0000 0.0002 0.0001 0.1685 0.0000
# 6 0.0000 0.0000 0.0000 0.0001 0.0000 28.5606
#
#
#
# Elastic Compliance Matrix: (Units=1/GPa)
#
#
# Indices 1 2 3 4 5 6 
#
# 1 0.012542 -0.002635 -0.000865 0.000000 0.000001 0.000000
# 2 -0.002635 0.011149 0.000153 0.000000 -0.000002 0.000000
# 3 -0.000865 0.000153 0.008740 0.000000 -0.000008 0.000000
# 4 0.000000 0.000000 0.000000 0.023220 -0.000018 0.000000
# 5 0.000001 -0.000002 -0.000008 -0.000018 5.933761 0.000002
# 6 0.000000 0.000000 0.000000 0.000000 0.000002 0.035013
#
#
# Mechanical properties :
#
#
# Convention : Reuss Voigt Hill
#
# Bulk Modulus (GPa) = 38.85356 38.93085 38.89221
# Shear Modulus (GPa) = 0.82786 32.08379 16.45582
#
# Velocity S-wave (km/s) = 0.62358 3.88205 2.78021
# Velocity P-wave (km/s) = 4.33228 6.19518 5.34551
#
# Compressibility (1/GPa) = 0.02573766
#
# Stress axis : x y z
#
# Youngs Moduli (GPa) = 79.73355 89.69414 114.41248
#
# Poissons Ratio (x) = 0.23637 0.09892
# Poissons Ratio (y) = 0.21012 -0.01753
# Poissons Ratio (z) = 0.06894 -0.01374
#
# Static dielectric constant tensor:
#      x y z
#    x 1.728400 0.000000 0.000000 
#    y 0.000000 1.864740 0.000000 
#    z 0.000000 0.000000 1.782040 
# 
# From -- ./inp_files/20674.got.cif
#   From: 2010.05.17/outbox.cif.g08.bks.cpg/sg72_11_cif.got.tgz:20674.got - 2010.06.03 17:03:01.
