data_PCOD9527268
_publ_section_title
;
Structure prediction by ZEFSAII (Michael W. Deem and Ramdas Pophale) SiO2 
 PCOD9527268
Probable space group: I B A M
;
_chemical_formula_sum "Si O2"
_cell_formula_units_Z 88
_cell_length_a 24.212003
_cell_length_b 11.369860
_cell_length_c 14.752445
_cell_angle_alpha 90.000000
_cell_angle_beta 90.000000
_cell_angle_gamma 90.000000
_cell_volume 4061.157572
_symmetry_space_group_name_H-M "I B A M"
_symmetry_group_IT_number 72
_symmetry_cell_setting 'orthorhombic'
loop_
_space_group_symop_operation_xyz
x,y,z
-x,-y,z
x,-y,1/2-z
-x,y,1/2-z
-x,-y,-z
x,y,-z
-x,y,1/2+z
x,-y,1/2+z
1/2+x,1/2+y,1/2+z
1/2-x,1/2-y,1/2+z
1/2+x,1/2-y,-z
1/2-x,1/2+y,-z
1/2-x,1/2-y,1/2-z
1/2+x,1/2+y,1/2-z
1/2-x,1/2+y,z
1/2+x,1/2-y,z
loop_
_atom_site_type_symbol
_atom_site_label
_atom_site_fract_x
_atom_site_fract_y
_atom_site_fract_z
Si Si1 0.327794 0.377786 0.105778
Si Si2 0.786177 0.685728 0.826601
Si Si3 0.412597 0.818006 0.389608
Si Si4 0.626491 0.000000 0.250000
Si Si5 0.130384 0.124195 0.107964
Si Si6 0.009475 0.136055 0.110120
O O1 0.262290 0.376753 0.117130
O O2 0.358295 0.259356 0.136288
O O3 0.354357 0.495655 0.145474
O O4 0.340951 0.380433 0.000000
O O5 0.750000 0.750000 0.750000
O O6 0.831735 0.593148 0.795394
O O7 0.819841 0.788049 0.875365
O O8 0.413147 0.840558 0.500000
O O9 0.463636 0.732067 0.365264
O O10 0.408758 0.934030 0.327953
O O11 0.071068 0.168026 0.142253
O O12 0.123798 0.112991 0.000000
O O13 0.007249 0.134649 0.000000
O O14 0.000000 0.000000 0.138196
#
# Coordination Sequence:
#
# PCOD9527268 Si02
#       6
#    16  16  16   8  16  16
#     4  10  20  37  63  94 126 167 224 284 343 405
#     4  12  24  41  58  85 131 180 226 281 339 397
#     4  10  21  40  67  99 136 180 227 282 345 410
#     4  12  26  44  63  92 138 193 228 276 342 422
#     4  10  21  38  66  98 125 163 219 280 342 408
#     4   9  16  35  67 101 131 161 213 286 352 406
#
# _framework density 21.668700000000001
#
# number of rings (size 3 to 8) (size 9 to 14) (size 15 to 20)
#    0.000    1.636    3.636    1.636    0.000    1.455 
#    0.000    2.727    0.000    4.364    0.000    0.000 
#    0.000    0.727    0.000    0.000    0.000    0.000 
#
# Total GULP energy -245666.794133 kJ/mol
# GULP energy per Si atom -5583.336230 kJ/mol
# Density = 2.161938 g / cm^3
# Si number density = 21.668700 Si / 1000 Ang^3
#
#
#
# Elastic Constant Matrix: (Units=GPa)
#
#
# Indices 1 2 3 4 5 6 
#
# 1 140.9299 51.9169 38.3912 0.0000 0.0000 0.0000
# 2 51.9169 116.8400 53.6831 0.0000 0.0000 0.0000
# 3 38.3912 53.6831 70.5886 0.0000 0.0000 0.0000
# 4 0.0000 0.0000 0.0000 -19.4281 0.0000 0.0000
# 5 0.0000 0.0000 0.0000 0.0000 4.8875 0.0000
# 6 0.0000 0.0000 0.0000 0.0000 0.0000 41.9774
#
#
#
# Elastic Compliance Matrix: (Units=1/GPa)
#
#
# Indices 1 2 3 4 5 6 
#
# 1 0.008829 -0.002639 -0.002795 0.000000 0.000000 0.000000
# 2 -0.002639 0.013944 -0.009169 0.000000 0.000000 0.000000
# 3 -0.002795 -0.009169 0.022660 0.000000 0.000000 0.000000
# 4 0.000000 0.000000 0.000000 -0.051472 0.000000 0.000000
# 5 0.000000 0.000000 0.000000 0.000000 0.204603 0.000000
# 6 0.000000 0.000000 0.000000 0.000000 0.000000 0.023822
#
#
# Mechanical properties :
#
#
# Convention : Reuss Voigt Hill
#
# Bulk Modulus (GPa) = 61.62651 68.48233 65.05442
# Shear Modulus (GPa) = 19.45498 17.77852 18.61675
#
# Velocity S-wave (km/s) = 2.99965 2.86749 2.93431
# Velocity P-wave (km/s) = 6.36390 6.52964 6.44730
#
# Compressibility (1/GPa) = 0.01622678
#
# Stress axis : x y z
#
# Youngs Moduli (GPa) = 113.25901 71.71372 44.13029
#
# Poissons Ratio (x) = 0.18926 0.12335
# Poissons Ratio (y) = 0.29890 0.40465
# Poissons Ratio (z) = 0.31656 0.65758
#
# Static dielectric constant tensor:
#      x y z
#    x 2.678040 0.000000 0.000000 
#    y 0.000000 1.815560 0.000000 
#    z 0.000000 0.000000 1.636900 
# 
# From -- ./inp_files/32468.got.cif
#   From: 2010.05.17/outbox.cif.g08.bks.cpg/sg72_17_cif.got.tgz:32468.got - 2010.06.03 17:03:01.
