data_PCOD9527019
_publ_section_title
;
Structure prediction by ZEFSAII (Michael W. Deem and Ramdas Pophale) SiO2 
 PCOD9527019
Probable space group: I B A M
;
_chemical_formula_sum "Si O2"
_cell_formula_units_Z 112
_cell_length_a 31.038260
_cell_length_b 14.509309
_cell_length_c 14.397562
_cell_angle_alpha 90.000000
_cell_angle_beta 90.000000
_cell_angle_gamma 90.000000
_cell_volume 6483.851416
_symmetry_space_group_name_H-M "I B A M"
_symmetry_group_IT_number 72
_symmetry_cell_setting 'orthorhombic'
loop_
_space_group_symop_operation_xyz
x,y,z
-x,-y,z
x,-y,1/2-z
-x,y,1/2-z
-x,-y,-z
x,y,-z
-x,y,1/2+z
x,-y,1/2+z
1/2+x,1/2+y,1/2+z
1/2-x,1/2-y,1/2+z
1/2+x,1/2-y,-z
1/2-x,1/2+y,-z
1/2-x,1/2-y,1/2-z
1/2+x,1/2+y,1/2-z
1/2-x,1/2+y,z
1/2+x,1/2-y,z
loop_
_atom_site_type_symbol
_atom_site_label
_atom_site_fract_x
_atom_site_fract_y
_atom_site_fract_z
Si Si1 0.326125 0.898044 0.750000
Si Si2 0.615213 0.795543 0.610594
Si Si3 0.449299 0.888724 0.750000
Si Si4 0.655370 0.604449 0.110219
Si Si5 0.384787 0.204457 0.110594
Si Si6 0.344630 0.395551 0.389781
Si Si7 0.730753 0.647779 0.250000
O O1 0.343881 0.843949 0.839706
O O2 0.343881 0.843949 0.660294
O O3 0.275182 0.906157 0.750000
O O4 0.345477 0.000000 0.750000
O O5 0.614438 0.809071 0.500000
O O6 0.574787 0.842262 0.661993
O O7 0.621637 0.686477 0.630856
O O8 0.500000 0.868920 0.750000
O O9 0.425213 0.842262 0.661993
O O10 0.444344 0.000000 0.750000
O O11 0.621637 0.686477 0.130856
O O12 0.641795 0.500000 0.134777
O O13 0.699551 0.626987 0.163641
O O14 0.662838 0.607393 0.000000
O O15 0.385562 0.190929 0.000000
O O16 0.337162 0.392607 0.500000
O O17 0.300449 0.373013 0.336359
O O18 0.750000 0.750000 0.250000
#
# Coordination Sequence:
#
# PCOD9527019 Si02
#       7
#    16  16  16  16  16  16  16
#     4  11  22  33  47  74 107 140 180 223 263 306
#     4  10  20  36  57  78 104 138 174 216 263 311
#     4  10  22  39  58  83 111 135 166 207 254 320
#     4  10  21  36  55  78 104 141 186 224 262 310
#     4  10  20  36  57  78 104 138 174 216 263 311
#     4  10  21  36  55  78 104 141 186 224 262 310
#     4  12  20  34  52  71 106 147 183 225 269 305
#
# _framework density 17.273683999999999
#
# number of rings (size 3 to 8) (size 9 to 14) (size 15 to 20)
#    0.000    1.571    2.857    3.857    0.000    4.571 
#    0.000    1.429    0.000    1.714    0.000    4.000 
#    0.000    0.000    0.000    0.000    0.000    0.000 
#
# Total GULP energy -312122.122549 kJ/mol
# GULP energy per Si atom -5573.609331 kJ/mol
# Density = 1.723437 g / cm^3
# Si number density = 17.273684 Si / 1000 Ang^3
#
#
#
# Elastic Constant Matrix: (Units=GPa)
#
#
# Indices 1 2 3 4 5 6 
#
# 1 124.3734 53.5440 49.0763 0.0000 0.0000 0.0000
# 2 53.5440 177.1207 57.6426 0.0000 0.0000 0.0000
# 3 49.0763 57.6426 124.3001 0.0000 0.0000 0.0000
# 4 0.0000 0.0000 0.0000 31.1008 0.0000 0.0000
# 5 0.0000 0.0000 0.0000 0.0000 -4.1989 0.0000
# 6 0.0000 0.0000 0.0000 0.0000 0.0000 27.4400
#
#
#
# Elastic Compliance Matrix: (Units=1/GPa)
#
#
# Indices 1 2 3 4 5 6 
#
# 1 0.010132 -0.002074 -0.003039 0.000000 0.000000 0.000000
# 2 -0.002074 0.007074 -0.002462 0.000000 0.000000 0.000000
# 3 -0.003039 -0.002462 0.010386 0.000000 0.000000 0.000000
# 4 0.000000 0.000000 0.000000 0.032154 0.000000 0.000000
# 5 0.000000 0.000000 0.000000 0.000000 -0.238157 0.000000
# 6 0.000000 0.000000 0.000000 0.000000 0.000000 0.036443
#
#
# Mechanical properties :
#
#
# Convention : Reuss Voigt Hill
#
# Bulk Modulus (GPa) = 80.36029 82.92444 81.64237
# Shear Modulus (GPa) = -40.75921 28.57047 -6.09437
#
# Velocity S-wave (km/s) = -4.86285 4.07134 -1.88037
# Velocity P-wave (km/s) = 3.88497 8.37923 6.53087
#
# Compressibility (1/GPa) = 0.01244396
#
# Stress axis : x y z
#
# Youngs Moduli (GPa) = 98.69506 141.36324 96.28115
#
# Poissons Ratio (x) = 0.29320 0.29256
# Poissons Ratio (y) = 0.20471 0.23700
# Poissons Ratio (z) = 0.29989 0.34797
#
# Static dielectric constant tensor:
#      x y z
#    x 1.554460 0.000000 0.000000 
#    y 0.000000 1.672510 0.000000 
#    z 0.000000 0.000000 1.654850 
# 
# From -- ./inp_files/26525.got.cif
#   From: 2010.05.17/outbox.cif.g08.bks.cpg/sg72_14_cif.got.tgz:26525.got - 2010.06.03 17:03:01.
