data_PCOD9527902
_publ_section_title
;
Structure prediction by ZEFSAII (Michael W. Deem and Ramdas Pophale) SiO2 
 PCOD9527902
Probable space group: I B A M
;
_chemical_formula_sum "Si O2"
_cell_formula_units_Z 92
_cell_length_a 24.445702
_cell_length_b 8.840480
_cell_length_c 22.071292
_cell_angle_alpha 90.000000
_cell_angle_beta 90.000000
_cell_angle_gamma 90.000000
_cell_volume 4769.865310
_symmetry_space_group_name_H-M "I B A M"
_symmetry_group_IT_number 72
_symmetry_cell_setting 'orthorhombic'
loop_
_space_group_symop_operation_xyz
x,y,z
-x,-y,z
x,-y,1/2-z
-x,y,1/2-z
-x,-y,-z
x,y,-z
-x,y,1/2+z
x,-y,1/2+z
1/2+x,1/2+y,1/2+z
1/2-x,1/2-y,1/2+z
1/2+x,1/2-y,-z
1/2-x,1/2+y,-z
1/2-x,1/2-y,1/2-z
1/2+x,1/2+y,1/2-z
1/2-x,1/2+y,z
1/2+x,1/2-y,z
loop_
_atom_site_type_symbol
_atom_site_label
_atom_site_fract_x
_atom_site_fract_y
_atom_site_fract_z
Si Si1 0.425220 0.246461 0.731926
Si Si2 0.669075 0.878620 0.070559
Si Si3 0.769731 0.500000 0.750000
Si Si4 0.814525 0.217317 0.311108
Si Si5 0.438632 0.955955 0.649979
Si Si6 0.775197 0.705781 0.930127
Si Si7 0.000000 0.000000 0.750000
O O1 0.365655 0.318497 0.730772
O O2 0.442315 0.169215 0.795662
O O3 0.463443 0.384301 0.712766
O O4 0.423333 0.111561 0.683862
O O5 0.612380 0.904340 0.107671
O O6 0.712384 0.745818 0.089072
O O7 0.706289 0.031030 0.072709
O O8 0.654371 0.853341 0.000000
O O9 0.802883 0.391530 0.706133
O O10 0.734033 0.388641 0.790011
O O11 0.815692 0.209846 0.383477
O O12 0.500000 0.000000 0.625080
O O13 0.780422 0.755042 0.000000
#
# Coordination Sequence:
#
# PCOD9527902 Si02
#       7
#    16  16   8  16  16  16   4
#     4  11  22  37  59  85 119 152 199 241 307 353
#     4  10  22  40  63  90 120 160 206 250 305 361
#     4  10  23  32  52  86 122 148 187 240 302 354
#     4  11  21  36  54  86 120 156 190 245 295 372
#     4  11  21  41  61  87 117 165 200 255 294 370
#     4  10  21  38  60  87 122 160 203 250 296 359
#     4  12  22  42  56  88 110 154 198 248 298 360
#
# _framework density 19.287756999999999
#
# number of rings (size 3 to 8) (size 9 to 14) (size 15 to 20)
#    0.000    1.391    3.478    3.130    4.870    0.348 
#    3.130    0.000    0.000    0.000    0.000    3.043 
#    0.000    0.000    0.000    0.000    0.000    0.000 
#
# Total GULP energy -256094.885489 kJ/mol
# GULP energy per Si atom -5567.280119 kJ/mol
# Density = 1.924386 g / cm^3
# Si number density = 19.287757 Si / 1000 Ang^3
#
#
#
# Elastic Constant Matrix: (Units=GPa)
#
#
# Indices 1 2 3 4 5 6 
#
# 1 125.7208 44.0620 27.7058 0.0000 0.0000 0.0000
# 2 44.0620 74.4503 22.4477 0.0000 0.0000 0.0000
# 3 27.7058 22.4477 68.7353 0.0000 0.0000 0.0000
# 4 0.0000 0.0000 0.0000 12.2329 0.0000 0.0000
# 5 0.0000 0.0000 0.0000 0.0000 5.8539 0.0000
# 6 0.0000 0.0000 0.0000 0.0000 0.0000 12.6574
#
#
#
# Elastic Compliance Matrix: (Units=1/GPa)
#
#
# Indices 1 2 3 4 5 6 
#
# 1 0.010386 -0.005418 -0.002417 0.000000 0.000000 0.000000
# 2 -0.005418 0.017725 -0.003605 0.000000 0.000000 0.000000
# 3 -0.002417 -0.003605 0.016700 0.000000 0.000000 0.000000
# 4 0.000000 0.000000 0.000000 0.081747 0.000000 0.000000
# 5 0.000000 0.000000 0.000000 0.000000 0.170825 0.000000
# 6 0.000000 0.000000 0.000000 0.000000 0.000000 0.079005
#
#
# Mechanical properties :
#
#
# Convention : Reuss Voigt Hill
#
# Bulk Modulus (GPa) = 45.59623 50.81526 48.20575
# Shear Modulus (GPa) = 12.29777 17.79491 15.04634
#
# Velocity S-wave (km/s) = 2.52780 3.04073 2.79605
# Velocity P-wave (km/s) = 5.67548 6.22343 5.95576
#
# Compressibility (1/GPa) = 0.02193164
#
# Stress axis : x y z
#
# Youngs Moduli (GPa) = 96.28768 56.41710 59.88012
#
# Poissons Ratio (x) = 0.30566 0.14472
# Poissons Ratio (y) = 0.52167 0.21586
# Poissons Ratio (z) = 0.23271 0.20338
#
# Static dielectric constant tensor:
#      x y z
#    x 1.794860 0.000000 0.000000 
#    y 0.000000 1.682130 0.000000 
#    z 0.000000 0.000000 1.733480 
# 
# From -- ./inp_files/40720.got.cif
#   From: 2010.05.17/outbox.cif.g08.bks.cpg/sg72_21_cif.got.tgz:40720.got - 2010.06.03 17:03:01.
