data_PCOD9527856
_publ_section_title
;
Structure prediction by ZEFSAII (Michael W. Deem and Ramdas Pophale) SiO2 
 PCOD9527856
Probable space group: I B A M
;
_chemical_formula_sum "Si O2"
_cell_formula_units_Z 64
_cell_length_a 5.401517
_cell_length_b 16.890663
_cell_length_c 27.986533
_cell_angle_alpha 90.000000
_cell_angle_beta 90.000000
_cell_angle_gamma 90.000000
_cell_volume 2553.357029
_symmetry_space_group_name_H-M "I B A M"
_symmetry_group_IT_number 72
_symmetry_cell_setting 'orthorhombic'
loop_
_space_group_symop_operation_xyz
x,y,z
-x,-y,z
x,-y,1/2-z
-x,y,1/2-z
-x,-y,-z
x,y,-z
-x,y,1/2+z
x,-y,1/2+z
1/2+x,1/2+y,1/2+z
1/2-x,1/2-y,1/2+z
1/2+x,1/2-y,-z
1/2-x,1/2+y,-z
1/2-x,1/2-y,1/2-z
1/2+x,1/2+y,1/2-z
1/2-x,1/2+y,z
1/2+x,1/2-y,z
loop_
_atom_site_type_symbol
_atom_site_label
_atom_site_fract_x
_atom_site_fract_y
_atom_site_fract_z
Si Si1 0.927376 0.219410 0.305274
Si Si2 0.247957 0.957931 0.318793
Si Si3 0.278274 0.297173 0.942083
Si Si4 0.249715 0.475668 0.074972
O O1 0.708527 0.275726 0.326016
O O2 0.796175 0.133966 0.308385
O O3 0.000000 0.237623 0.250000
O O4 0.500000 0.000000 0.301587
O O5 0.250795 0.973992 0.375795
O O6 0.000000 0.000000 0.300972
O O7 0.540666 0.256786 0.930632
O O8 0.253182 0.382214 0.917716
O O9 0.273484 0.309982 0.000000
O O10 0.500000 0.500000 0.049972
O O11 0.000000 0.500000 0.049887
#
# Coordination Sequence:
#
# PCOD9527856 Si02
#       4
#    16  16  16  16
#     4  10  21  39  62  87 116 152 194 241 293 350
#     4  10  21  39  58  86 122 155 197 243 297 358
#     4  10  21  38  60  86 117 155 200 249 299 353
#     4  10  21  38  57  85 120 155 198 244 298 358
#
# _framework density 25.065041999999998
#
# number of rings (size 3 to 8) (size 9 to 14) (size 15 to 20)
#    0.000    2.000    0.000    3.000    0.000    1.500 
#    0.000   31.250    0.000    0.000    0.000    0.000 
#    0.000    0.000    0.000    0.000    0.000    0.000 
#
# Total GULP energy -178909.759220 kJ/mol
# GULP energy per Si atom -5590.929976 kJ/mol
# Density = 2.500799 g / cm^3
# Si number density = 25.065042 Si / 1000 Ang^3
#
#
#
# Elastic Constant Matrix: (Units=GPa)
#
#
# Indices 1 2 3 4 5 6 
#
# 1 298.2485 82.7968 26.5375 0.0000 0.0000 0.0000
# 2 82.7968 159.7586 8.9848 0.0000 0.0000 0.0000
# 3 26.5375 8.9848 110.2040 0.0000 0.0000 0.0000
# 4 0.0000 0.0000 0.0000 101.9040 0.0000 0.0000
# 5 0.0000 0.0000 0.0000 0.0000 -15.5624 0.0000
# 6 0.0000 0.0000 0.0000 0.0000 0.0000 56.9323
#
#
#
# Elastic Compliance Matrix: (Units=1/GPa)
#
#
# Indices 1 2 3 4 5 6 
#
# 1 0.003984 -0.002020 -0.000795 0.000000 0.000000 0.000000
# 2 -0.002020 0.007313 -0.000110 0.000000 0.000000 0.000000
# 3 -0.000795 -0.000110 0.009274 0.000000 0.000000 0.000000
# 4 0.000000 0.000000 0.000000 0.009813 0.000000 0.000000
# 5 0.000000 0.000000 0.000000 0.000000 -0.064257 0.000000
# 6 0.000000 0.000000 0.000000 0.000000 0.000000 0.017565
#
#
# Mechanical properties :
#
#
# Convention : Reuss Voigt Hill
#
# Bulk Modulus (GPa) = 67.92549 89.42771 78.67660
# Shear Modulus (GPa) = -900.71350 58.64758 -421.03296
#
# Velocity S-wave (km/s) = -18.97711 4.84241 -12.97462
# Velocity P-wave (km/s) = 21.28416 8.18663 13.89235
#
# Compressibility (1/GPa) = 0.01472201
#
# Stress axis : x y z
#
# Youngs Moduli (GPa) = 250.97354 136.74909 107.82366
#
# Poissons Ratio (x) = 0.27628 0.08569
# Poissons Ratio (y) = 0.50704 0.01183
# Poissons Ratio (z) = 0.19947 0.01500
#
# Static dielectric constant tensor:
#      x y z
#    x 1.986160 0.000000 0.000000 
#    y 0.000000 1.927450 0.000000 
#    z 0.000000 0.000000 2.051320 
# 
# From -- ./inp_files/50151.got.cif
#   From: 2010.05.17/outbox.cif.g08.bks.cpg/sg72_26_cif.got.tgz:50151.got - 2010.06.03 17:03:01.
