data_PCOD9527054
_publ_section_title
;
Structure prediction by ZEFSAII (Michael W. Deem and Ramdas Pophale) SiO2 
 PCOD9527054
Probable space group: I B A M
;
_chemical_formula_sum "Si O2"
_cell_formula_units_Z 116
_cell_length_a 11.943655
_cell_length_b 26.557659
_cell_length_c 18.395139
_cell_angle_alpha 90.000000
_cell_angle_beta 90.000000
_cell_angle_gamma 90.000000
_cell_volume 5834.855620
_symmetry_space_group_name_H-M "I B A M"
_symmetry_group_IT_number 72
_symmetry_cell_setting 'orthorhombic'
loop_
_space_group_symop_operation_xyz
x,y,z
-x,-y,z
x,-y,1/2-z
-x,y,1/2-z
-x,-y,-z
x,y,-z
-x,y,1/2+z
x,-y,1/2+z
1/2+x,1/2+y,1/2+z
1/2-x,1/2-y,1/2+z
1/2+x,1/2-y,-z
1/2-x,1/2+y,-z
1/2-x,1/2-y,1/2-z
1/2+x,1/2+y,1/2-z
1/2-x,1/2+y,z
1/2+x,1/2-y,z
loop_
_atom_site_type_symbol
_atom_site_label
_atom_site_fract_x
_atom_site_fract_y
_atom_site_fract_z
Si Si1 0.881276 0.418469 0.675271
Si Si2 0.874905 0.565240 0.653259
Si Si3 0.861986 0.695128 0.194575
Si Si4 0.167888 0.781653 0.918037
Si Si5 0.959569 0.803540 0.170609
Si Si6 0.000000 0.000000 0.000000
Si Si7 0.769890 0.978007 0.419741
Si Si8 0.291270 0.824176 0.640582
O O1 0.863177 0.435079 0.758710
O O2 0.911478 0.359390 0.678461
O O3 0.770202 0.431551 0.630199
O O4 0.992542 0.443400 0.641905
O O5 0.791744 0.525456 0.617292
O O6 0.841333 0.621119 0.626766
O O7 0.758891 0.701599 0.140437
O O8 0.936562 0.743830 0.181313
O O9 0.823214 0.693650 0.277823
O O10 0.167436 0.720681 0.911205
O O11 0.053401 0.806224 0.890617
O O12 0.195427 0.796028 0.000000
O O13 0.843590 0.826928 0.143458
O O14 0.000000 0.822629 0.250000
O O15 0.098924 0.987928 0.937127
O O16 0.719677 0.969923 0.500000
#
# Coordination Sequence:
#
# PCOD9527054 Si02
#       8
#    16  16  16  16  16   4  16  16
#     4  10  21  37  65  96 125 150 202 260 310 373
#     4  10  21  38  63  98 124 151 201 261 312 364
#     4  10  20  36  59  83 116 160 202 251 307 369
#     4  11  22  35  52  82 120 159 205 261 309 360
#     4  11  18  34  60  81 115 169 216 248 308 375
#     4   8  24  48  64  80 124 164 206 234 308 376
#     4  10  22  44  65  85 121 164 196 245 313 372
#     4  10  20  37  58  84 118 160 205 252 309 377
#
# _framework density 19.880526
#
# number of rings (size 3 to 8) (size 9 to 14) (size 15 to 20)
#    0.414    1.379    2.759    2.483    1.931    5.517 
#    2.483    2.759    0.000    0.000    0.000    0.000 
#    0.000    0.000    0.000    0.000    0.000    0.000 
#
# Total GULP energy -323028.161483 kJ/mol
# GULP energy per Si atom -5569.451060 kJ/mol
# Density = 1.983528 g / cm^3
# Si number density = 19.880526 Si / 1000 Ang^3
#
#
#
# Elastic Constant Matrix: (Units=GPa)
#
#
# Indices 1 2 3 4 5 6 
#
# 1 108.9504 -0.2568 11.3802 0.0000 0.0000 0.0000
# 2 -0.2568 35.4257 0.1497 0.0000 0.0000 0.0000
# 3 11.3802 0.1497 42.8668 0.0000 0.0000 0.0000
# 4 0.0000 0.0000 0.0000 7.7259 0.0000 0.0000
# 5 0.0000 0.0000 0.0000 0.0000 29.1526 0.0000
# 6 0.0000 0.0000 0.0000 0.0000 0.0000 11.9092
#
#
#
# Elastic Compliance Matrix: (Units=1/GPa)
#
#
# Indices 1 2 3 4 5 6 
#
# 1 0.009440 0.000079 -0.002507 0.000000 0.000000 0.000000
# 2 0.000079 0.028229 -0.000120 0.000000 0.000000 0.000000
# 3 -0.002507 -0.000120 0.023994 0.000000 0.000000 0.000000
# 4 0.000000 0.000000 0.000000 0.129435 0.000000 0.000000
# 5 0.000000 0.000000 0.000000 0.000000 0.034302 0.000000
# 6 0.000000 0.000000 0.000000 0.000000 0.000000 0.083969
#
#
# Mechanical properties :
#
#
# Convention : Reuss Voigt Hill
#
# Bulk Modulus (GPa) = 17.67738 23.30989 20.49364
# Shear Modulus (GPa) = 15.00061 21.48887 18.24474
#
# Velocity S-wave (km/s) = 2.74987 3.29127 3.03267
# Velocity P-wave (km/s) = 4.35815 5.11798 4.75327
#
# Compressibility (1/GPa) = 0.05656945
#
# Stress axis : x y z
#
# Youngs Moduli (GPa) = 105.92678 35.42439 41.67718
#
# Poissons Ratio (x) = -0.00280 0.10446
# Poissons Ratio (y) = -0.00837 0.00498
# Poissons Ratio (z) = 0.26551 0.00424
#
# Static dielectric constant tensor:
#      x y z
#    x 1.727450 0.000000 0.000000 
#    y 0.000000 1.752460 0.000000 
#    z 0.000000 0.000000 1.679110 
# 
# From -- ./inp_files/29691.got.cif
#   From: 2010.05.17/outbox.cif.g08.bks.cpg/sg72_15_cif.got.tgz:29691.got - 2010.06.03 17:03:01.
