data_PCOD9527802
_publ_section_title
;
Structure prediction by ZEFSAII (Michael W. Deem and Ramdas Pophale) SiO2 
 PCOD9527802
Probable space group: I B A M
;
_chemical_formula_sum "Si O2"
_cell_formula_units_Z 92
_cell_length_a 23.733046
_cell_length_b 22.838483
_cell_length_c 7.946738
_cell_angle_alpha 90.000000
_cell_angle_beta 90.000000
_cell_angle_gamma 90.000000
_cell_volume 4307.344711
_symmetry_space_group_name_H-M "I B A M"
_symmetry_group_IT_number 72
_symmetry_cell_setting 'orthorhombic'
loop_
_space_group_symop_operation_xyz
x,y,z
-x,-y,z
x,-y,1/2-z
-x,y,1/2-z
-x,-y,-z
x,y,-z
-x,y,1/2+z
x,-y,1/2+z
1/2+x,1/2+y,1/2+z
1/2-x,1/2-y,1/2+z
1/2+x,1/2-y,-z
1/2-x,1/2+y,-z
1/2-x,1/2-y,1/2-z
1/2+x,1/2+y,1/2-z
1/2-x,1/2+y,z
1/2+x,1/2-y,z
loop_
_atom_site_type_symbol
_atom_site_label
_atom_site_fract_x
_atom_site_fract_y
_atom_site_fract_z
Si Si1 0.908420 0.553252 0.500000
Si Si2 0.235848 0.183889 0.301971
Si Si3 0.153237 0.605048 0.690823
Si Si4 0.887595 0.818617 0.804610
Si Si5 0.000000 0.500000 0.750000
Si Si6 0.935222 0.303605 0.193451
Si Si7 0.564877 0.561548 0.699363
O O1 0.861851 0.564429 0.652456
O O2 0.957889 0.540187 0.356813
O O3 0.222499 0.182969 0.500000
O O4 0.250000 0.250000 0.250000
O O5 0.288442 0.140350 0.278009
O O6 0.178982 0.171241 0.202714
O O7 0.153132 0.579208 0.500000
O O8 0.103823 0.654153 0.697508
O O9 0.908822 0.761116 0.708334
O O10 0.912725 0.877881 0.728913
O O11 0.905151 0.810111 0.000000
O O12 0.000000 0.302546 0.250000
O O13 0.931254 0.326204 0.000000
O O14 0.592396 0.500000 0.750000
O O15 0.500000 0.558750 0.750000
O O16 0.569727 0.565539 0.500000
#
# Coordination Sequence:
#
# PCOD9527802 Si02
#       7
#     8  16  16  16   4  16  16
#     4  11  26  48  76 106 138 172 234 282 362 413
#     4  11  23  39  63  93 131 177 224 264 327 399
#     4  11  25  42  67 101 137 181 224 278 336 420
#     4  11  23  38  60  88 129 171 216 274 327 399
#     4  10  28  50  78 108 134 182 228 306 346 432
#     4  12  24  37  56  91 132 175 216 269 338 402
#     4  10  21  37  60  87 117 162 214 265 323 385
#
# _framework density 21.358867
#
# number of rings (size 3 to 8) (size 9 to 14) (size 15 to 20)
#    0.000    1.043    2.609    4.174    6.087    4.174 
#    0.000    0.000    1.913    0.000    0.000    0.000 
#    0.000    0.000    0.000    0.000    0.000    0.000 
#
# Total GULP energy -256076.241695 kJ/mol
# GULP energy per Si atom -5566.874819 kJ/mol
# Density = 2.131025 g / cm^3
# Si number density = 21.358867 Si / 1000 Ang^3
#
#
#
# Elastic Constant Matrix: (Units=GPa)
#
#
# Indices 1 2 3 4 5 6 
#
# 1 77.9742 3.5143 -2.6126 0.0000 0.0000 0.0000
# 2 3.5143 47.6010 4.3568 0.0000 0.0000 0.0000
# 3 -2.6126 4.3568 89.6696 0.0000 0.0000 0.0000
# 4 0.0000 0.0000 0.0000 33.6788 0.0000 0.0000
# 5 0.0000 0.0000 0.0000 0.0000 23.5531 0.0000
# 6 0.0000 0.0000 0.0000 0.0000 0.0000 -80.2092
#
#
#
# Elastic Compliance Matrix: (Units=1/GPa)
#
#
# Indices 1 2 3 4 5 6 
#
# 1 0.012884 -0.000990 0.000423 0.000000 0.000000 0.000000
# 2 -0.000990 0.021178 -0.001058 0.000000 0.000000 0.000000
# 3 0.000423 -0.001058 0.011216 0.000000 0.000000 0.000000
# 4 0.000000 0.000000 0.000000 0.029692 0.000000 0.000000
# 5 0.000000 0.000000 0.000000 0.000000 0.042457 0.000000
# 6 0.000000 0.000000 0.000000 0.000000 0.000000 -0.012467
#
#
# Mechanical properties :
#
#
# Convention : Reuss Voigt Hill
#
# Bulk Modulus (GPa) = 23.79330 25.08465 24.43897
# Shear Modulus (GPa) = 40.91067 9.40362 25.15714
#
# Velocity S-wave (km/s) = 4.38127 2.10053 3.43568
# Velocity P-wave (km/s) = 6.06284 4.20153 5.21588
#
# Compressibility (1/GPa) = 0.04202865
#
# Stress axis : x y z
#
# Youngs Moduli (GPa) = 77.61834 47.21911 89.16001
#
# Poissons Ratio (x) = 0.04674 -0.03776
# Poissons Ratio (y) = 0.07684 0.09432
# Poissons Ratio (z) = -0.03287 0.04995
#
# Static dielectric constant tensor:
#      x y z
#    x 1.418440 0.000000 0.000000 
#    y 0.000000 2.020190 0.000000 
#    z 0.000000 0.000000 1.775530 
# 
# From -- ./inp_files/6111.got.cif
#   From: 2010.05.17/outbox.cif.g08.bks.cpg/sg72_4_cif.got.tgz:6111.got - 2010.06.03 17:03:01.
