data_PCOD9527830
_publ_section_title
;
Structure prediction by ZEFSAII (Michael W. Deem and Ramdas Pophale) SiO2 
 PCOD9527830
Probable space group: I B A M
;
_chemical_formula_sum "Si O2"
_cell_formula_units_Z 56
_cell_length_a 13.913482
_cell_length_b 5.241638
_cell_length_c 31.960497
_cell_angle_alpha 90.000000
_cell_angle_beta 90.000000
_cell_angle_gamma 90.000000
_cell_volume 2330.861019
_symmetry_space_group_name_H-M "I B A M"
_symmetry_group_IT_number 72
_symmetry_cell_setting 'orthorhombic'
loop_
_space_group_symop_operation_xyz
x,y,z
-x,-y,z
x,-y,1/2-z
-x,y,1/2-z
-x,-y,-z
x,y,-z
-x,y,1/2+z
x,-y,1/2+z
1/2+x,1/2+y,1/2+z
1/2-x,1/2-y,1/2+z
1/2+x,1/2-y,-z
1/2-x,1/2+y,-z
1/2-x,1/2-y,1/2-z
1/2+x,1/2+y,1/2-z
1/2-x,1/2+y,z
1/2+x,1/2-y,z
loop_
_atom_site_type_symbol
_atom_site_label
_atom_site_fract_x
_atom_site_fract_y
_atom_site_fract_z
Si Si1 0.106827 0.308422 0.868178
Si Si2 0.815266 0.536580 0.953560
Si Si3 0.891874 0.811913 0.664512
Si Si4 0.182930 0.000000 0.250000
O O1 0.114651 0.416477 0.914692
O O2 0.150874 0.526544 0.837998
O O3 0.999590 0.249387 0.851486
O O4 0.151759 0.025737 0.866190
O O5 0.763927 0.262457 0.950866
O O6 0.859922 0.557537 0.000000
O O7 0.882145 0.944381 0.709377
O O8 0.250000 0.250000 0.250000
#
# Coordination Sequence:
#
# PCOD9527830 Si02
#       4
#    16  16  16   8
#     4  10  21  40  64  89 126 169 212 259 312 384
#     4  10  21  37  61  95 132 168 208 259 317 375
#     4  10  23  41  61  90 122 165 211 261 324 387
#     4  12  26  43  64  93 126 160 210 274 336 395
#
# _framework density 24.025455000000001
#
# number of rings (size 3 to 8) (size 9 to 14) (size 15 to 20)
#    0.000    1.714    0.000    3.429    0.000    9.143 
#    0.000   11.429    0.000    0.000    0.000    0.000 
#    0.000    0.000    0.000    0.000    0.000    0.000 
#
# Total GULP energy -156273.492699 kJ/mol
# GULP energy per Si atom -5581.196168 kJ/mol
# Density = 2.397077 g / cm^3
# Si number density = 24.025455 Si / 1000 Ang^3
#
#
#
# Elastic Constant Matrix: (Units=GPa)
#
#
# Indices 1 2 3 4 5 6 
#
# 1 105.4405 9.6018 45.1720 0.0000 0.0000 0.0000
# 2 9.6018 222.9693 40.6721 0.0000 0.0000 0.0000
# 3 45.1720 40.6721 207.8969 0.0000 0.0000 0.0000
# 4 0.0000 0.0000 0.0000 40.5978 0.0000 0.0000
# 5 0.0000 0.0000 0.0000 0.0000 44.5510 0.0000
# 6 0.0000 0.0000 0.0000 0.0000 0.0000 19.5057
#
#
#
# Elastic Compliance Matrix: (Units=1/GPa)
#
#
# Indices 1 2 3 4 5 6 
#
# 1 0.010458 -0.000037 -0.002265 0.000000 0.000000 0.000000
# 2 -0.000037 0.004651 -0.000902 0.000000 0.000000 0.000000
# 3 -0.002265 -0.000902 0.005479 0.000000 0.000000 0.000000
# 4 0.000000 0.000000 0.000000 0.024632 0.000000 0.000000
# 5 0.000000 0.000000 0.000000 0.000000 0.022446 0.000000
# 6 0.000000 0.000000 0.000000 0.000000 0.000000 0.051267
#
#
# Mechanical properties :
#
#
# Convention : Reuss Voigt Hill
#
# Bulk Modulus (GPa) = 70.52475 80.79981 75.66228
# Shear Modulus (GPa) = 38.44169 50.32163 44.38166
#
# Velocity S-wave (km/s) = 4.00439 4.58155 4.30266
# Velocity P-wave (km/s) = 7.12728 7.85439 7.49965
#
# Compressibility (1/GPa) = 0.01417942
#
# Stress axis : x y z
#
# Youngs Moduli (GPa) = 95.62277 215.00628 182.52684
#
# Poissons Ratio (x) = 0.00799 0.41342
# Poissons Ratio (y) = 0.00356 0.16461
# Poissons Ratio (z) = 0.21659 0.19390
#
# Static dielectric constant tensor:
#      x y z
#    x 2.199100 0.000000 0.000000 
#    y 0.000000 2.105140 0.000000 
#    z 0.000000 0.000000 1.958090 
# 
# From -- ./inp_files/48856.got.cif
#   From: 2010.05.17/outbox.cif.g08.bks.cpg/sg72_25_cif.got.tgz:48856.got - 2010.06.03 17:03:01.
