data_PCOD9527988
_publ_section_title
;
Structure prediction by ZEFSAII (Michael W. Deem and Ramdas Pophale) SiO2 
 PCOD9527988
Probable space group: I B A M
;
_chemical_formula_sum "Si O2"
_cell_formula_units_Z 60
_cell_length_a 4.954315
_cell_length_b 24.768074
_cell_length_c 24.346032
_cell_angle_alpha 90.000000
_cell_angle_beta 90.000000
_cell_angle_gamma 90.000000
_cell_volume 2987.473358
_symmetry_space_group_name_H-M "I B A M"
_symmetry_group_IT_number 72
_symmetry_cell_setting 'orthorhombic'
loop_
_space_group_symop_operation_xyz
x,y,z
-x,-y,z
x,-y,1/2-z
-x,y,1/2-z
-x,-y,-z
x,y,-z
-x,y,1/2+z
x,-y,1/2+z
1/2+x,1/2+y,1/2+z
1/2-x,1/2-y,1/2+z
1/2+x,1/2-y,-z
1/2-x,1/2+y,-z
1/2-x,1/2-y,1/2-z
1/2+x,1/2+y,1/2-z
1/2-x,1/2+y,z
1/2+x,1/2-y,z
loop_
_atom_site_type_symbol
_atom_site_label
_atom_site_fract_x
_atom_site_fract_y
_atom_site_fract_z
Si Si1 0.922254 0.918255 0.191643
Si Si2 0.500000 0.209960 0.750000
Si Si3 0.500000 0.000000 0.250000
Si Si4 0.071348 0.629220 0.352403
Si Si5 0.712829 0.715057 0.065559
O O1 0.732729 0.891945 0.145540
O O2 0.000000 0.889252 0.250000
O O3 0.217422 0.918352 0.163953
O O4 0.718717 0.964591 0.214945
O O5 0.750000 0.250000 0.750000
O O6 0.540010 0.171575 0.802347
O O7 0.187830 0.662448 0.402966
O O8 0.415684 0.735797 0.080293
O O9 0.728316 0.707305 0.000000
#
# Coordination Sequence:
#
# PCOD9527988 Si02
#       5
#    16   8   4  16  16
#     4  12  22  38  57  82 120 147 186 239 291 368
#     4  12  21  30  48  73 116 157 184 216 279 344
#     4  12  24  40  62  84 120 152 190 232 312 382
#     4  12  22  36  54  85 118 153 192 244 284 338
#     4  10  21  39  60  83 116 161 209 246 277 326
#
# _framework density 20.083860999999999
#
# number of rings (size 3 to 8) (size 9 to 14) (size 15 to 20)
#    0.000    0.533    5.333    5.200    0.000    0.000 
#    0.000    0.000    0.000    0.000    0.000    5.600 
#    0.000    0.000    0.000    0.000    0.000    0.000 
#
# Total GULP energy -167059.295374 kJ/mol
# GULP energy per Si atom -5568.643179 kJ/mol
# Density = 2.003815 g / cm^3
# Si number density = 20.083861 Si / 1000 Ang^3
#
#
#
# Elastic Constant Matrix: (Units=GPa)
#
#
# Indices 1 2 3 4 5 6 
#
# 1 151.1410 27.7268 5.7371 0.0000 0.0000 0.0000
# 2 27.7268 58.7900 12.9812 0.0000 0.0000 0.0000
# 3 5.7371 12.9812 29.9670 0.0000 0.0000 0.0000
# 4 0.0000 0.0000 0.0000 21.1515 0.0000 0.0000
# 5 0.0000 0.0000 0.0000 0.0000 19.8756 0.0000
# 6 0.0000 0.0000 0.0000 0.0000 0.0000 22.9651
#
#
#
# Elastic Compliance Matrix: (Units=1/GPa)
#
#
# Indices 1 2 3 4 5 6 
#
# 1 0.007243 -0.003439 0.000103 0.000000 0.000000 0.000000
# 2 -0.003439 0.020441 -0.008196 0.000000 0.000000 0.000000
# 3 0.000103 -0.008196 0.036901 0.000000 0.000000 0.000000
# 4 0.000000 0.000000 0.000000 0.047278 0.000000 0.000000
# 5 0.000000 0.000000 0.000000 0.000000 0.050313 0.000000
# 6 0.000000 0.000000 0.000000 0.000000 0.000000 0.043544
#
#
# Mechanical properties :
#
#
# Convention : Reuss Voigt Hill
#
# Bulk Modulus (GPa) = 24.08430 36.97645 30.53037
# Shear Modulus (GPa) = 20.60787 25.69530 23.15158
#
# Velocity S-wave (km/s) = 3.20674 3.58075 3.39889
# Velocity P-wave (km/s) = 5.07236 5.96211 5.53514
#
# Compressibility (1/GPa) = 0.04152083
#
# Stress axis : x y z
#
# Youngs Moduli (GPa) = 138.05887 48.92045 27.09957
#
# Poissons Ratio (x) = 0.16823 -0.00279
# Poissons Ratio (y) = 0.47476 0.22212
# Poissons Ratio (z) = -0.01421 0.40097
#
# Static dielectric constant tensor:
#      x y z
#    x 1.701080 0.000000 0.000000 
#    y 0.000000 1.676810 0.000000 
#    z 0.000000 0.000000 1.694080 
# 
# From -- ./inp_files/41433.got.cif
#   From: 2010.05.17/outbox.cif.g08.bks.cpg/sg72_21_cif.got.tgz:41433.got - 2010.06.03 17:03:01.
