data_PCOD9527681
_publ_section_title
;
Structure prediction by ZEFSAII (Michael W. Deem and Ramdas Pophale) SiO2 
 PCOD9527681
Probable space group: I B A M
;
_chemical_formula_sum "Si O2"
_cell_formula_units_Z 80
_cell_length_a 20.399468
_cell_length_b 8.259337
_cell_length_c 24.230452
_cell_angle_alpha 90.000000
_cell_angle_beta 90.000000
_cell_angle_gamma 90.000000
_cell_volume 4082.493894
_symmetry_space_group_name_H-M "I B A M"
_symmetry_group_IT_number 72
_symmetry_cell_setting 'orthorhombic'
loop_
_space_group_symop_operation_xyz
x,y,z
-x,-y,z
x,-y,1/2-z
-x,y,1/2-z
-x,-y,-z
x,y,-z
-x,y,1/2+z
x,-y,1/2+z
1/2+x,1/2+y,1/2+z
1/2-x,1/2-y,1/2+z
1/2+x,1/2-y,-z
1/2-x,1/2+y,-z
1/2-x,1/2-y,1/2-z
1/2+x,1/2+y,1/2-z
1/2-x,1/2+y,z
1/2+x,1/2-y,z
loop_
_atom_site_type_symbol
_atom_site_label
_atom_site_fract_x
_atom_site_fract_y
_atom_site_fract_z
Si Si1 0.548430 0.320649 0.438112
Si Si2 0.072835 0.442601 0.186878
Si Si3 0.415083 0.354024 0.386973
Si Si4 0.218055 0.269086 0.936387
Si Si5 0.839578 0.602897 0.402339
O O1 0.555188 0.388949 0.500000
O O2 0.473065 0.279477 0.425320
O O3 0.569250 0.454795 0.392177
O O4 0.597864 0.173404 0.433623
O O5 0.077865 0.500000 0.250000
O O6 0.079903 0.252496 0.169242
O O7 0.129889 0.534745 0.153843
O O8 0.000000 0.500000 0.168734
O O9 0.343717 0.329234 0.412787
O O10 0.195138 0.453452 0.932021
O O11 0.283044 0.237281 0.900770
O O12 0.231491 0.228653 0.000000
#
# Coordination Sequence:
#
# PCOD9527681 Si02
#       5
#    16  16  16  16  16
#     4  11  20  35  58  89 129 161 199 253 307 375
#     4  10  21  43  67  87 118 163 216 277 320 350
#     4  10  21  36  58  90 119 159 203 251 309 368
#     4  11  21  35  55  86 127 165 197 243 309 379
#     4  11  23  38  60  91 123 168 214 251 307 378
#
# _framework density 19.595863999999999
#
# number of rings (size 3 to 8) (size 9 to 14) (size 15 to 20)
#    0.000    1.400    2.000    5.400    0.000    0.000 
#    0.000    8.000    0.000    0.000    0.000    0.000 
#    0.000    0.000    0.000    0.000    0.000    0.000 
#
# Total GULP energy -222945.071752 kJ/mol
# GULP energy per Si atom -5573.626794 kJ/mol
# Density = 1.955126 g / cm^3
# Si number density = 19.595864 Si / 1000 Ang^3
#
#
#
# Elastic Constant Matrix: (Units=GPa)
#
#
# Indices 1 2 3 4 5 6 
#
# 1 116.5802 -0.9368 22.1575 0.0000 0.0000 0.0000
# 2 -0.9368 20.2070 29.1521 0.0000 0.0000 0.0000
# 3 22.1575 29.1521 94.9276 0.0000 0.0000 0.0000
# 4 0.0000 0.0000 0.0000 20.7236 0.0000 0.0000
# 5 0.0000 0.0000 0.0000 0.0000 21.7499 0.0000
# 6 0.0000 0.0000 0.0000 0.0000 0.0000 43.1412
#
#
#
# Elastic Compliance Matrix: (Units=1/GPa)
#
#
# Indices 1 2 3 4 5 6 
#
# 1 0.009427 0.006484 -0.004192 0.000000 0.000000 0.000000
# 2 0.006484 0.093314 -0.030170 0.000000 0.000000 0.000000
# 3 -0.004192 -0.030170 0.020778 0.000000 0.000000 0.000000
# 4 0.000000 0.000000 0.000000 0.048254 0.000000 0.000000
# 5 0.000000 0.000000 0.000000 0.000000 0.045977 0.000000
# 6 0.000000 0.000000 0.000000 0.000000 0.000000 0.023180
#
#
# Mechanical properties :
#
#
# Convention : Reuss Voigt Hill
#
# Bulk Modulus (GPa) = 14.75724 36.94003 25.84864
# Shear Modulus (GPa) = 15.66063 29.21242 22.43653
#
# Velocity S-wave (km/s) = 2.83004 3.86520 3.38740
# Velocity P-wave (km/s) = 4.26919 6.22989 5.34030
#
# Compressibility (1/GPa) = 0.06776333
#
# Stress axis : x y z
#
# Youngs Moduli (GPa) = 106.08354 10.71652 48.12823
#
# Poissons Ratio (x) = -0.06949 0.20173
# Poissons Ratio (y) = -0.68785 1.45203
# Poissons Ratio (z) = 0.44465 0.32332
#
# Static dielectric constant tensor:
#      x y z
#    x 1.694860 0.000000 0.000000 
#    y 0.000000 1.782390 0.000000 
#    z 0.000000 0.000000 1.664930 
# 
# From -- ./inp_files/48936.got.cif
#   From: 2010.05.17/outbox.cif.g08.bks.cpg/sg72_25_cif.got.tgz:48936.got - 2010.06.03 17:03:01.
