data_PCOD9527174
_publ_section_title
;
Structure prediction by ZEFSAII (Michael W. Deem and Ramdas Pophale) SiO2 
 PCOD9527174
Probable space group: I B A M
;
_chemical_formula_sum "Si O2"
_cell_formula_units_Z 96
_cell_length_a 25.060932
_cell_length_b 22.272596
_cell_length_c 10.180738
_cell_angle_alpha 90.000000
_cell_angle_beta 90.000000
_cell_angle_gamma 90.000000
_cell_volume 5682.603032
_symmetry_space_group_name_H-M "I B A M"
_symmetry_group_IT_number 72
_symmetry_cell_setting 'orthorhombic'
loop_
_space_group_symop_operation_xyz
x,y,z
-x,-y,z
x,-y,1/2-z
-x,y,1/2-z
-x,-y,-z
x,y,-z
-x,y,1/2+z
x,-y,1/2+z
1/2+x,1/2+y,1/2+z
1/2-x,1/2-y,1/2+z
1/2+x,1/2-y,-z
1/2-x,1/2+y,-z
1/2-x,1/2-y,1/2-z
1/2+x,1/2+y,1/2-z
1/2-x,1/2+y,z
1/2+x,1/2-y,z
loop_
_atom_site_type_symbol
_atom_site_label
_atom_site_fract_x
_atom_site_fract_y
_atom_site_fract_z
Si Si1 0.250357 0.149737 0.266834
Si Si2 0.943073 0.386218 0.271549
Si Si3 0.266914 0.920385 0.500000
Si Si4 0.671275 0.746666 0.341357
Si Si5 0.954131 0.749304 0.150161
Si Si6 0.240384 0.441830 0.000000
Si Si7 0.605659 0.908618 0.000000
Si Si8 0.887247 0.455521 0.500000
O O1 0.303860 0.188283 0.302014
O O2 0.204088 0.199183 0.246353
O O3 0.243017 0.098706 0.376271
O O4 0.251837 0.115282 0.129841
O O5 0.955568 0.323057 0.340484
O O6 0.915318 0.377418 0.131175
O O7 0.906821 0.423621 0.368566
O O8 0.000000 0.417187 0.250000
O O9 0.331100 0.916860 0.500000
O O10 0.243312 0.988012 0.500000
O O11 0.680391 0.739926 0.500000
O O12 0.608131 0.738057 0.318042
O O13 0.000000 0.771630 0.250000
O O14 0.964711 0.768038 0.000000
O O15 0.176349 0.449639 0.000000
O O16 0.588199 0.978037 0.000000
#
# Coordination Sequence:
#
# PCOD9527174 Si02
#       8
#    16  16   8  16  16   8   8   8
#     4  11  21  36  56  83 107 145 183 216 280 319
#     4  11  22  34  48  66  91 131 174 222 267 309
#     4  11  22  36  53  79 106 140 180 224 264 330
#     4  10  20  37  58  80 114 143 176 228 272 322
#     4  10  21  37  55  76 102 136 170 210 266 320
#     4  11  22  36  55  75 110 142 176 222 268 330
#     4  11  23  32  48  68  91 128 182 220 260 308
#     4  11  21  36  48  64  93 134 170 222 278 300
#
# _framework density 16.893667000000001
#
# number of rings (size 3 to 8) (size 9 to 14) (size 15 to 20)
#    0.000    1.333    2.500    4.500    3.500    4.667 
#    3.000    0.000    0.000    0.000    0.000    0.000 
#    0.000    4.000    0.000    0.000    0.000    0.000 
#
# Total GULP energy -267720.376358 kJ/mol
# GULP energy per Si atom -5577.507841 kJ/mol
# Density = 1.685522 g / cm^3
# Si number density = 16.893667 Si / 1000 Ang^3
#
#
#
# Elastic Constant Matrix: (Units=GPa)
#
#
# Indices 1 2 3 4 5 6 
#
# 1 74.8579 17.9116 33.8874 0.0000 0.0000 0.0000
# 2 17.9116 57.5713 23.7284 0.0000 0.0000 0.0000
# 3 33.8874 23.7284 114.4777 0.0000 0.0000 0.0000
# 4 0.0000 0.0000 0.0000 10.6136 0.0000 0.0000
# 5 0.0000 0.0000 0.0000 0.0000 27.3585 0.0000
# 6 0.0000 0.0000 0.0000 0.0000 0.0000 7.9510
#
#
#
# Elastic Compliance Matrix: (Units=1/GPa)
#
#
# Indices 1 2 3 4 5 6 
#
# 1 0.015981 -0.003304 -0.004046 0.000000 0.000000 0.000000
# 2 -0.003304 0.019676 -0.003100 0.000000 0.000000 0.000000
# 3 -0.004046 -0.003100 0.010575 0.000000 0.000000 0.000000
# 4 0.000000 0.000000 0.000000 0.094219 0.000000 0.000000
# 5 0.000000 0.000000 0.000000 0.000000 0.036552 0.000000
# 6 0.000000 0.000000 0.000000 0.000000 0.000000 0.125771
#
#
# Mechanical properties :
#
#
# Convention : Reuss Voigt Hill
#
# Bulk Modulus (GPa) = 39.47670 44.21795 41.84733
# Shear Modulus (GPa) = 15.05493 20.60992 17.83243
#
# Velocity S-wave (km/s) = 2.98847 3.49661 3.25248
# Velocity P-wave (km/s) = 5.94360 6.52172 6.23936
#
# Compressibility (1/GPa) = 0.02533140
#
# Stress axis : x y z
#
# Youngs Moduli (GPa) = 62.57535 50.82440 94.55837
#
# Poissons Ratio (x) = 0.16795 0.38255
# Poissons Ratio (y) = 0.20678 0.29314
# Poissons Ratio (z) = 0.25316 0.15756
#
# Static dielectric constant tensor:
#      x y z
#    x 1.591440 0.000000 0.000000 
#    y 0.000000 1.581970 0.000000 
#    z 0.000000 0.000000 1.590970 
# 
# From -- ./inp_files/7022.got.cif
#   From: 2010.05.17/outbox.cif.g08.bks.cpg/sg72_4_cif.got.tgz:7022.got - 2010.06.03 17:03:01.
