data_PCOD9527848
_publ_section_title
;
Structure prediction by ZEFSAII (Michael W. Deem and Ramdas Pophale) SiO2 
 PCOD9527848
Probable space group: I B A M
;
_chemical_formula_sum "Si O2"
_cell_formula_units_Z 96
_cell_length_a 20.525210
_cell_length_b 14.937948
_cell_length_c 18.133350
_cell_angle_alpha 90.000000
_cell_angle_beta 90.000000
_cell_angle_gamma 90.000000
_cell_volume 5559.767067
_symmetry_space_group_name_H-M "I B A M"
_symmetry_group_IT_number 72
_symmetry_cell_setting 'orthorhombic'
loop_
_space_group_symop_operation_xyz
x,y,z
-x,-y,z
x,-y,1/2-z
-x,y,1/2-z
-x,-y,-z
x,y,-z
-x,y,1/2+z
x,-y,1/2+z
1/2+x,1/2+y,1/2+z
1/2-x,1/2-y,1/2+z
1/2+x,1/2-y,-z
1/2-x,1/2+y,-z
1/2-x,1/2-y,1/2-z
1/2+x,1/2+y,1/2-z
1/2-x,1/2+y,z
1/2+x,1/2-y,z
loop_
_atom_site_type_symbol
_atom_site_label
_atom_site_fract_x
_atom_site_fract_y
_atom_site_fract_z
Si Si1 0.698680 0.093134 0.912991
Si Si2 0.950682 0.760135 0.183048
Si Si3 0.953409 0.583655 0.087445
Si Si4 0.062994 0.062450 0.914203
Si Si5 0.806706 0.027204 0.664386
Si Si6 0.698652 0.265591 0.185413
O O1 0.623477 0.063262 0.901516
O O2 0.706369 0.191853 0.878270
O O3 0.749251 0.028891 0.872400
O O4 0.711064 0.094483 0.000000
O O5 0.967126 0.670762 0.136875
O O6 0.950408 0.845473 0.128935
O O7 0.876155 0.754377 0.211830
O O8 0.000000 0.772207 0.250000
O O9 0.000000 0.500000 0.105772
O O10 0.962045 0.603711 0.000000
O O11 0.124595 0.014148 0.876616
O O12 0.077468 0.081006 0.000000
O O13 0.000000 0.000000 0.909562
O O14 0.793081 0.133045 0.658462
O O15 0.812418 0.000000 0.750000
O O16 0.750000 0.250000 0.250000
#
# Coordination Sequence:
#
# PCOD9527848 Si02
#       6
#    16  16  16  16  16  16
#     4  10  21  38  60  85 115 151 193 237 284 342
#     4  10  22  35  57  84 111 148 186 233 281 337
#     4   9  19  38  59  81 112 151 189 231 281 337
#     4  10  23  39  58  83 114 151 190 232 279 338
#     4  11  22  36  61  87 115 151 189 241 284 341
#     4  10  21  38  56  81 115 151 186 231 290 338
#
# _framework density 17.266909999999999
#
# number of rings (size 3 to 8) (size 9 to 14) (size 15 to 20)
#    0.000    2.000    1.667    1.000    4.667    6.333 
#    0.000    0.000    0.000    5.000    0.000    0.000 
#    0.000    0.000    0.000    0.000    0.000    0.000 
#
# Total GULP energy -267883.624482 kJ/mol
# GULP energy per Si atom -5580.908843 kJ/mol
# Density = 1.722761 g / cm^3
# Si number density = 17.266910 Si / 1000 Ang^3
#
#
#
# Elastic Constant Matrix: (Units=GPa)
#
#
# Indices 1 2 3 4 5 6 
#
# 1 106.4841 68.0212 93.2706 0.0000 0.0000 0.0000
# 2 68.0212 105.5651 55.2088 0.0000 0.0000 0.0000
# 3 93.2706 55.2088 135.1563 0.0000 0.0000 0.0000
# 4 0.0000 0.0000 0.0000 15.6323 0.0000 0.0000
# 5 0.0000 0.0000 0.0000 0.0000 31.2380 0.0000
# 6 0.0000 0.0000 0.0000 0.0000 0.0000 29.9805
#
#
#
# Elastic Compliance Matrix: (Units=1/GPa)
#
#
# Indices 1 2 3 4 5 6 
#
# 1 0.031915 -0.011504 -0.017325 0.000000 0.000000 0.000000
# 2 -0.011504 0.016193 0.001324 0.000000 0.000000 0.000000
# 3 -0.017325 0.001324 0.018814 0.000000 0.000000 0.000000
# 4 0.000000 0.000000 0.000000 0.063970 0.000000 0.000000
# 5 0.000000 0.000000 0.000000 0.000000 0.032012 0.000000
# 6 0.000000 0.000000 0.000000 0.000000 0.000000 0.033355
#
#
# Mechanical properties :
#
#
# Convention : Reuss Voigt Hill
#
# Bulk Modulus (GPa) = 83.94785 86.68965 85.31875
# Shear Modulus (GPa) = 19.58946 24.08382 21.83664
#
# Velocity S-wave (km/s) = 3.37190 3.73875 3.56005
# Velocity P-wave (km/s) = 7.99268 8.30375 8.14970
#
# Compressibility (1/GPa) = 0.01191216
#
# Stress axis : x y z
#
# Youngs Moduli (GPa) = 31.33324 61.75613 53.15173
#
# Poissons Ratio (x) = 0.71042 0.92087
# Poissons Ratio (y) = 0.36045 -0.07038
# Poissons Ratio (z) = 0.54286 -0.08178
#
# Static dielectric constant tensor:
#      x y z
#    x 1.580060 0.000000 0.000000 
#    y 0.000000 1.569660 0.000000 
#    z 0.000000 0.000000 1.565620 
# 
# From -- ./inp_files/21783.got.cif
#   From: 2010.05.17/outbox.cif.g08.bks.cpg/sg72_11_cif.got.tgz:21783.got - 2010.06.03 17:03:01.
