data_PCOD9527038
_publ_section_title
;
Structure prediction by ZEFSAII (Michael W. Deem and Ramdas Pophale) SiO2 
 PCOD9527038
Probable space group: I B A M
;
_chemical_formula_sum "Si O2"
_cell_formula_units_Z 80
_cell_length_a 9.022113
_cell_length_b 14.036336
_cell_length_c 31.111607
_cell_angle_alpha 90.000000
_cell_angle_beta 90.000000
_cell_angle_gamma 90.000000
_cell_volume 3939.893316
_symmetry_space_group_name_H-M "I B A M"
_symmetry_group_IT_number 72
_symmetry_cell_setting 'orthorhombic'
loop_
_space_group_symop_operation_xyz
x,y,z
-x,-y,z
x,-y,1/2-z
-x,y,1/2-z
-x,-y,-z
x,y,-z
-x,y,1/2+z
x,-y,1/2+z
1/2+x,1/2+y,1/2+z
1/2-x,1/2-y,1/2+z
1/2+x,1/2-y,-z
1/2-x,1/2+y,-z
1/2-x,1/2-y,1/2-z
1/2+x,1/2+y,1/2-z
1/2-x,1/2+y,z
1/2+x,1/2-y,z
loop_
_atom_site_type_symbol
_atom_site_label
_atom_site_fract_x
_atom_site_fract_y
_atom_site_fract_z
Si Si1 0.945645 0.659439 0.796345
Si Si2 0.633504 0.138001 0.376333
Si Si3 0.926748 0.606018 0.951725
Si Si4 0.135952 0.821363 0.829390
Si Si5 0.651172 0.532389 0.903123
O O1 0.770201 0.650378 0.798803
O O2 0.000000 0.627846 0.750000
O O3 0.024948 0.608515 0.836851
O O4 0.002758 0.768826 0.804596
O O5 0.529085 0.159052 0.417170
O O6 0.701987 0.235947 0.359244
O O7 0.751598 0.057900 0.387734
O O8 0.762412 0.592486 0.932946
O O9 0.000000 0.500000 0.953052
O O10 0.927831 0.644845 0.000000
O O11 0.101758 0.906268 0.861688
O O12 0.500000 0.500000 0.925607
#
# Coordination Sequence:
#
# PCOD9527038 Si02
#       5
#    16  16  16  16  16
#     4  10  20  36  61  80 114 154 198 235 292 342
#     4   9  21  36  60  82 115 157 192 230 288 351
#     4   9  18  36  59  81 111 152 190 230 283 342
#     4  10  20  36  58  82 117 155 188 241 288 345
#     4  11  20  35  59  86 118 152 193 241 290 338
#
# _framework density 20.305119000000001
#
# number of rings (size 3 to 8) (size 9 to 14) (size 15 to 20)
#    1.200    1.000    2.000    1.800    0.000    0.400 
#    0.000    3.000    0.000    2.400    0.000    0.000 
#    0.000    0.000    0.000    0.000    0.000    0.000 
#
# Total GULP energy -222853.513511 kJ/mol
# GULP energy per Si atom -5571.337838 kJ/mol
# Density = 2.025890 g / cm^3
# Si number density = 20.305119 Si / 1000 Ang^3
#
#
#
# Elastic Constant Matrix: (Units=GPa)
#
#
# Indices 1 2 3 4 5 6 
#
# 1 72.8240 -10.9942 13.7364 0.0000 0.0000 0.0000
# 2 -10.9942 35.0780 -3.5861 0.0000 0.0000 0.0000
# 3 13.7364 -3.5861 102.0446 0.0000 0.0000 0.0000
# 4 0.0000 0.0000 0.0000 16.6676 0.0000 0.0000
# 5 0.0000 0.0000 0.0000 0.0000 16.4052 0.0000
# 6 0.0000 0.0000 0.0000 0.0000 0.0000 20.5594
#
#
#
# Elastic Compliance Matrix: (Units=1/GPa)
#
#
# Indices 1 2 3 4 5 6 
#
# 1 0.014746 0.004435 -0.001829 0.000000 0.000000 0.000000
# 2 0.004435 0.029944 0.000455 0.000000 0.000000 0.000000
# 3 -0.001829 0.000455 0.010062 0.000000 0.000000 0.000000
# 4 0.000000 0.000000 0.000000 0.059997 0.000000 0.000000
# 5 0.000000 0.000000 0.000000 0.000000 0.060956 0.000000
# 6 0.000000 0.000000 0.000000 0.000000 0.000000 0.048640
#
#
# Mechanical properties :
#
#
# Convention : Reuss Voigt Hill
#
# Bulk Modulus (GPa) = 16.42727 23.13989 19.78358
# Shear Modulus (GPa) = 20.96305 24.77912 22.87108
#
# Velocity S-wave (km/s) = 3.21659 3.49712 3.35979
# Velocity P-wave (km/s) = 4.68007 5.26567 4.98148
#
# Compressibility (1/GPa) = 0.06087439
#
# Stress axis : x y z
#
# Youngs Moduli (GPa) = 67.81368 33.39527 99.38510
#
# Poissons Ratio (x) = -0.14810 0.18179
# Poissons Ratio (y) = -0.30074 -0.04525
# Poissons Ratio (z) = 0.12404 -0.01521
#
# Static dielectric constant tensor:
#      x y z
#    x 1.701130 0.000000 0.000000 
#    y 0.000000 1.731330 0.000000 
#    z 0.000000 0.000000 1.724480 
# 
# From -- ./inp_files/48941.got.cif
#   From: 2010.05.17/outbox.cif.g08.bks.cpg/sg72_25_cif.got.tgz:48941.got - 2010.06.03 17:03:01.
