data_PCOD9527323
_publ_section_title
;
Structure prediction by ZEFSAII (Michael W. Deem and Ramdas Pophale) SiO2 
 PCOD9527323
Probable space group: I B A M
;
_chemical_formula_sum "Si O2"
_cell_formula_units_Z 72
_cell_length_a 17.544940
_cell_length_b 16.756682
_cell_length_c 11.432556
_cell_angle_alpha 90.000000
_cell_angle_beta 90.000000
_cell_angle_gamma 90.000000
_cell_volume 3361.114076
_symmetry_space_group_name_H-M "I B A M"
_symmetry_group_IT_number 72
_symmetry_cell_setting 'orthorhombic'
loop_
_space_group_symop_operation_xyz
x,y,z
-x,-y,z
x,-y,1/2-z
-x,y,1/2-z
-x,-y,-z
x,y,-z
-x,y,1/2+z
x,-y,1/2+z
1/2+x,1/2+y,1/2+z
1/2-x,1/2-y,1/2+z
1/2+x,1/2-y,-z
1/2-x,1/2+y,-z
1/2-x,1/2-y,1/2-z
1/2+x,1/2+y,1/2-z
1/2-x,1/2+y,z
1/2+x,1/2-y,z
loop_
_atom_site_type_symbol
_atom_site_label
_atom_site_fract_x
_atom_site_fract_y
_atom_site_fract_z
Si Si1 0.913903 0.965413 0.371850
Si Si2 0.000000 0.313129 0.750000
Si Si3 0.589747 0.947261 0.866755
Si Si4 0.235068 0.656065 0.873806
Si Si5 0.367760 0.702405 0.705705
O O1 0.879316 0.985189 0.500000
O O2 0.910896 0.869424 0.358634
O O3 0.880269 0.000000 0.250000
O O4 0.000000 0.000000 0.374585
O O5 0.032030 0.372265 0.649876
O O6 0.071079 0.255374 0.777428
O O7 0.675808 0.915146 0.856848
O O8 0.578941 0.000000 0.750000
O O9 0.581507 0.979887 0.000000
O O10 0.301677 0.663068 0.782080
O O11 0.180356 0.733961 0.869001
O O12 0.271367 0.650769 0.000000
#
# Coordination Sequence:
#
# PCOD9527323 Si02
#       5
#    16   8  16  16  16
#     4  10  21  37  57  84 120 160 197 239 295 357
#     4  10  21  36  61  94 122 154 198 254 313 362
#     4  10  22  41  62  89 125 162 203 251 302 360
#     4   9  20  39  62  86 116 158 204 251 301 356
#     4  10  20  38  61  88 121 156 200 251 305 363
#
# _framework density 21.421467
#
# number of rings (size 3 to 8) (size 9 to 14) (size 15 to 20)
#    0.000    2.222    0.000    2.333    0.000    5.333 
#    0.000   14.444    0.000    0.000    0.000    0.000 
#    0.000    0.000    0.000    0.000    0.000    0.000 
#
# Total GULP energy -200441.582397 kJ/mol
# GULP energy per Si atom -5567.821733 kJ/mol
# Density = 2.137271 g / cm^3
# Si number density = 21.421467 Si / 1000 Ang^3
#
#
#
# Elastic Constant Matrix: (Units=GPa)
#
#
# Indices 1 2 3 4 5 6 
#
# 1 90.2646 33.6335 33.0539 0.0000 0.0000 0.0000
# 2 33.6335 96.8034 46.1940 0.0000 0.0000 0.0000
# 3 33.0539 46.1940 161.0321 0.0000 0.0000 0.0000
# 4 0.0000 0.0000 0.0000 6.1168 0.0000 0.0000
# 5 0.0000 0.0000 0.0000 0.0000 -23.9427 0.0000
# 6 0.0000 0.0000 0.0000 0.0000 0.0000 42.4069
#
#
#
# Elastic Compliance Matrix: (Units=1/GPa)
#
#
# Indices 1 2 3 4 5 6 
#
# 1 0.013072 -0.003779 -0.001599 0.000000 0.000000 0.000000
# 2 -0.003779 0.013061 -0.002971 0.000000 0.000000 0.000000
# 3 -0.001599 -0.002971 0.007390 0.000000 0.000000 0.000000
# 4 0.000000 0.000000 0.000000 0.163485 0.000000 0.000000
# 5 0.000000 0.000000 0.000000 0.000000 -0.041766 0.000000
# 6 0.000000 0.000000 0.000000 0.000000 0.000000 0.023581
#
#
# Mechanical properties :
#
#
# Convention : Reuss Voigt Hill
#
# Bulk Modulus (GPa) = 59.43342 63.76256 61.59799
# Shear Modulus (GPa) = 24.85960 20.59744 22.72852
#
# Velocity S-wave (km/s) = 3.41031 3.10422 3.26086
# Velocity P-wave (km/s) = 6.58118 6.53289 6.55708
#
# Compressibility (1/GPa) = 0.01682555
#
# Stress axis : x y z
#
# Youngs Moduli (GPa) = 76.49865 76.56478 135.30888
#
# Poissons Ratio (x) = 0.28931 0.21640
# Poissons Ratio (y) = 0.28906 0.40201
# Poissons Ratio (z) = 0.12234 0.22748
#
# Static dielectric constant tensor:
#      x y z
#    x 1.750190 0.000000 0.000000 
#    y 0.000000 1.838210 0.000000 
#    z 0.000000 0.000000 1.792460 
# 
# From -- ./inp_files/13602.got.cif
#   From: 2010.05.17/outbox.cif.g08.bks.cpg/sg72_7_cif.got.tgz:13602.got - 2010.06.03 17:03:01.
