data_PCOD9527429
_publ_section_title
;
Structure prediction by ZEFSAII (Michael W. Deem and Ramdas Pophale) SiO2 
 PCOD9527429
Probable space group: I B A M
;
_chemical_formula_sum "Si O2"
_cell_formula_units_Z 48
_cell_length_a 9.794817
_cell_length_b 14.862599
_cell_length_c 15.571636
_cell_angle_alpha 90.000000
_cell_angle_beta 90.000000
_cell_angle_gamma 90.000000
_cell_volume 2266.863293
_symmetry_space_group_name_H-M "I B A M"
_symmetry_group_IT_number 72
_symmetry_cell_setting 'orthorhombic'
loop_
_space_group_symop_operation_xyz
x,y,z
-x,-y,z
x,-y,1/2-z
-x,y,1/2-z
-x,-y,-z
x,y,-z
-x,y,1/2+z
x,-y,1/2+z
1/2+x,1/2+y,1/2+z
1/2-x,1/2-y,1/2+z
1/2+x,1/2-y,-z
1/2-x,1/2+y,-z
1/2-x,1/2-y,1/2-z
1/2+x,1/2+y,1/2-z
1/2-x,1/2+y,z
1/2+x,1/2-y,z
loop_
_atom_site_type_symbol
_atom_site_label
_atom_site_fract_x
_atom_site_fract_y
_atom_site_fract_z
Si Si1 0.365315 0.804764 0.304999
Si Si2 0.717842 0.538460 0.597164
Si Si3 0.055329 0.875532 0.848762
O O1 0.500000 0.824374 0.250000
O O2 0.250000 0.750000 0.250000
O O3 0.310441 0.894742 0.347807
O O4 0.409082 0.726372 0.371145
O O5 0.767022 0.526376 0.500000
O O6 0.570339 0.587617 0.596902
O O7 0.682839 0.442407 0.640008
O O8 0.000000 0.879163 0.750000
#
# Coordination Sequence:
#
# PCOD9527429 Si02
#       3
#    16  16  16
#     4  11  22  41  66  92 126 171 222 262 317 391
#     4  11  22  37  65  99 127 167 215 271 327 380
#     4  10  20  39  68  93 127 175 224 255 318 401
#
# _framework density 21.174633
#
# number of rings (size 3 to 8) (size 9 to 14) (size 15 to 20)
#    0.000    1.333    6.667    4.000    0.000    2.667 
#    0.000    3.333    0.000    2.000    0.000    0.000 
#    0.000    0.000    0.000    0.000    0.000    0.000 
#
# Total GULP energy -133972.037895 kJ/mol
# GULP energy per Si atom -5582.168246 kJ/mol
# Density = 2.112644 g / cm^3
# Si number density = 21.174633 Si / 1000 Ang^3
#
#
#
# Elastic Constant Matrix: (Units=GPa)
#
#
# Indices 1 2 3 4 5 6 
#
# 1 98.8512 56.6998 34.8207 0.0000 0.0000 0.0000
# 2 56.6998 153.2615 38.7553 0.0000 0.0000 0.0000
# 3 34.8207 38.7553 97.4720 0.0000 0.0000 0.0000
# 4 0.0000 0.0000 0.0000 -14.8246 0.0000 0.0000
# 5 0.0000 0.0000 0.0000 0.0000 20.0347 0.0000
# 6 0.0000 0.0000 0.0000 0.0000 0.0000 53.5373
#
#
#
# Elastic Compliance Matrix: (Units=1/GPa)
#
#
# Indices 1 2 3 4 5 6 
#
# 1 0.013682 -0.004253 -0.003197 0.000000 0.000000 0.000000
# 2 -0.004253 0.008576 -0.001891 0.000000 0.000000 0.000000
# 3 -0.003197 -0.001891 0.012153 0.000000 0.000000 0.000000
# 4 0.000000 0.000000 0.000000 -0.067455 0.000000 0.000000
# 5 0.000000 0.000000 0.000000 0.000000 0.049913 0.000000
# 6 0.000000 0.000000 0.000000 0.000000 0.000000 0.018679
#
#
# Mechanical properties :
#
#
# Convention : Reuss Voigt Hill
#
# Bulk Modulus (GPa) = 63.57132 67.79291 65.68211
# Shear Modulus (GPa) = 84.07283 26.37007 55.22145
#
# Velocity S-wave (km/s) = 6.30799 3.53280 5.11231
# Velocity P-wave (km/s) = 9.11821 6.98043 8.11998
#
# Compressibility (1/GPa) = 0.01573036
#
# Stress axis : x y z
#
# Youngs Moduli (GPa) = 73.08936 116.59880 82.28438
#
# Poissons Ratio (x) = 0.49594 0.26302
# Poissons Ratio (y) = 0.31088 0.15556
# Poissons Ratio (z) = 0.23363 0.22044
#
# Static dielectric constant tensor:
#      x y z
#    x 1.806620 0.000000 0.000000 
#    y 0.000000 1.796550 0.000000 
#    z 0.000000 0.000000 1.828770 
# 
# From -- ./inp_files/18100.got.cif
#   From: 2010.05.17/outbox.cif.g08.bks.cpg/sg72_10_cif.got.tgz:18100.got - 2010.06.03 17:03:01.
