data_PCOD9527435
_publ_section_title
;
Structure prediction by ZEFSAII (Michael W. Deem and Ramdas Pophale) SiO2 
 PCOD9527435
Probable space group: I B A M
;
_chemical_formula_sum "Si O2"
_cell_formula_units_Z 76
_cell_length_a 7.524460
_cell_length_b 26.368166
_cell_length_c 16.947434
_cell_angle_alpha 90.000000
_cell_angle_beta 90.000000
_cell_angle_gamma 90.000000
_cell_volume 3362.476155
_symmetry_space_group_name_H-M "I B A M"
_symmetry_group_IT_number 72
_symmetry_cell_setting 'orthorhombic'
loop_
_space_group_symop_operation_xyz
x,y,z
-x,-y,z
x,-y,1/2-z
-x,y,1/2-z
-x,-y,-z
x,y,-z
-x,y,1/2+z
x,-y,1/2+z
1/2+x,1/2+y,1/2+z
1/2-x,1/2-y,1/2+z
1/2+x,1/2-y,-z
1/2-x,1/2+y,-z
1/2-x,1/2-y,1/2-z
1/2+x,1/2+y,1/2-z
1/2-x,1/2+y,z
1/2+x,1/2-y,z
loop_
_atom_site_type_symbol
_atom_site_label
_atom_site_fract_x
_atom_site_fract_y
_atom_site_fract_z
Si Si1 0.500000 0.259663 0.750000
Si Si2 0.747942 0.293874 0.633156
Si Si3 0.693810 0.472517 0.135798
Si Si4 0.093792 0.643884 0.500000
Si Si5 0.000000 0.500000 0.750000
Si Si6 0.925889 0.897671 0.000000
Si Si7 0.200926 0.546094 0.500000
Si Si8 0.238393 0.791656 0.500000
O O1 0.562065 0.295141 0.678013
O O2 0.630298 0.220471 0.793150
O O3 0.805919 0.340605 0.580464
O O4 0.759150 0.246012 0.574103
O O5 0.500000 0.500000 0.157856
O O6 0.851460 0.466820 0.200764
O O7 0.651965 0.423499 0.080599
O O8 0.782915 0.512308 0.076059
O O9 0.041680 0.585336 0.500000
O O10 0.921542 0.678515 0.500000
O O11 0.905800 0.836714 0.000000
O O12 0.127303 0.917466 0.000000
#
# Coordination Sequence:
#
# PCOD9527435 Si02
#       8
#     8  16  16   8   4   8   8   8
#     4  10  20  40  57  76 114 162 188 232 299 362
#     4  10  22  38  58  80 118 156 192 240 302 338
#     4   9  21  43  62  90 120 159 197 249 292 364
#     4  11  22  36  60  91 112 150 206 254 276 356
#     4  12  22  34  70  90 124 166 182 240 322 352
#     4   9  21  40  66  83 114 153 205 245 292 337
#     4   9  21  40  66  83 114 153 205 245 292 337
#     4  11  22  36  60  91 112 150 206 254 276 356
#
# _framework density 22.602392999999999
#
# number of rings (size 3 to 8) (size 9 to 14) (size 15 to 20)
#    0.000    2.105    2.105    1.579    5.895    0.842 
#    0.000    6.316    0.000    0.000    0.000    0.000 
#    0.000    0.000    0.000    0.000    0.000    0.000 
#
# Total GULP energy -211707.755833 kJ/mol
# GULP energy per Si atom -5571.256732 kJ/mol
# Density = 2.255095 g / cm^3
# Si number density = 22.602393 Si / 1000 Ang^3
#
#
#
# Elastic Constant Matrix: (Units=GPa)
#
#
# Indices 1 2 3 4 5 6 
#
# 1 77.2030 -5.1900 30.4398 0.0000 0.0000 0.0000
# 2 -5.1900 70.2902 15.2223 0.0000 0.0000 0.0000
# 3 30.4398 15.2223 99.7172 0.0000 0.0000 0.0000
# 4 0.0000 0.0000 0.0000 14.0850 0.0000 0.0000
# 5 0.0000 0.0000 0.0000 0.0000 51.1845 0.0000
# 6 0.0000 0.0000 0.0000 0.0000 0.0000 18.7494
#
#
#
# Elastic Compliance Matrix: (Units=1/GPa)
#
#
# Indices 1 2 3 4 5 6 
#
# 1 0.015040 0.002177 -0.004924 0.000000 0.000000 0.000000
# 2 0.002177 0.015028 -0.002959 0.000000 0.000000 0.000000
# 3 -0.004924 -0.002959 0.011983 0.000000 0.000000 0.000000
# 4 0.000000 0.000000 0.000000 0.070998 0.000000 0.000000
# 5 0.000000 0.000000 0.000000 0.000000 0.019537 0.000000
# 6 0.000000 0.000000 0.000000 0.000000 0.000000 0.053335
#
#
# Mechanical properties :
#
#
# Convention : Reuss Voigt Hill
#
# Bulk Modulus (GPa) = 32.63613 36.46161 34.54887
# Shear Modulus (GPa) = 24.09104 30.58632 27.33868
#
# Velocity S-wave (km/s) = 3.26830 3.68262 3.48163
# Velocity P-wave (km/s) = 5.35844 5.85227 5.61079
#
# Compressibility (1/GPa) = 0.03064089
#
# Stress axis : x y z
#
# Youngs Moduli (GPa) = 66.48719 66.54159 83.45161
#
# Poissons Ratio (x) = -0.14485 0.41088
# Poissons Ratio (y) = -0.14473 0.24690
# Poissons Ratio (z) = 0.32735 0.19687
#
# Static dielectric constant tensor:
#      x y z
#    x 2.078300 0.000000 0.000000 
#    y 0.000000 1.835100 0.000000 
#    z 0.000000 0.000000 1.781650 
# 
# From -- ./inp_files/28350.got.cif
#   From: 2010.05.17/outbox.cif.g08.bks.cpg/sg72_15_cif.got.tgz:28350.got - 2010.06.03 17:03:01.
