data_PCOD9527653
_publ_section_title
;
Structure prediction by ZEFSAII (Michael W. Deem and Ramdas Pophale) SiO2 
 PCOD9527653
Probable space group: I B A M
;
_chemical_formula_sum "Si O2"
_cell_formula_units_Z 108
_cell_length_a 5.098538
_cell_length_b 30.292243
_cell_length_c 31.472932
_cell_angle_alpha 90.000000
_cell_angle_beta 90.000000
_cell_angle_gamma 90.000000
_cell_volume 4860.873241
_symmetry_space_group_name_H-M "I B A M"
_symmetry_group_IT_number 72
_symmetry_cell_setting 'orthorhombic'
loop_
_space_group_symop_operation_xyz
x,y,z
-x,-y,z
x,-y,1/2-z
-x,y,1/2-z
-x,-y,-z
x,y,-z
-x,y,1/2+z
x,-y,1/2+z
1/2+x,1/2+y,1/2+z
1/2-x,1/2-y,1/2+z
1/2+x,1/2-y,-z
1/2-x,1/2+y,-z
1/2-x,1/2-y,1/2-z
1/2+x,1/2+y,1/2-z
1/2-x,1/2+y,z
1/2+x,1/2-y,z
loop_
_atom_site_type_symbol
_atom_site_label
_atom_site_fract_x
_atom_site_fract_y
_atom_site_fract_z
Si Si1 0.718448 0.658555 0.922067
Si Si2 0.784540 0.660157 0.629637
Si Si3 0.798955 0.947416 0.422938
Si Si4 0.248283 0.048697 0.770125
Si Si5 0.514649 0.778233 0.700652
Si Si6 0.565787 0.280086 0.500000
Si Si7 0.500000 0.000000 0.000000
Si Si8 0.192911 0.444691 0.368080
O O1 0.514293 0.668299 0.883928
O O2 0.708592 0.605771 0.932232
O O3 0.620975 0.688639 0.960061
O O4 0.013720 0.670492 0.908753
O O5 0.901715 0.684815 0.669847
O O6 0.802883 0.608070 0.635827
O O7 0.597611 0.955842 0.384192
O O8 0.090638 0.955924 0.404224
O O9 0.680939 0.974405 0.462698
O O10 0.500000 0.071786 0.750000
O O11 0.245914 0.040958 0.820339
O O12 0.000000 0.072599 0.750000
O O13 0.248943 0.000000 0.750000
O O14 0.500000 0.791032 0.750000
O O15 0.811592 0.762394 0.693307
O O16 0.277182 0.259456 0.500000
#
# Coordination Sequence:
#
# PCOD9527653 Si02
#       8
#    16  16  16  16  16   8   4  16
#     4  10  22  42  60  86 123 158 195 251 309 355
#     4  10  21  38  63  83 112 162 204 238 296 367
#     4  10  24  42  65  88 122 160 205 262 310 368
#     4  10  21  36  58  86 118 156 193 234 297 363
#     4  10  21  36  55  85 121 155 197 253 303 347
#     4  12  25  38  60  93 124 155 196 246 301 368
#     4  12  26  42  68  98 114 162 220 254 318 394
#     4  10  22  42  60  88 123 159 201 253 310 361
#
# _framework density 22.218229999999998
#
# number of rings (size 3 to 8) (size 9 to 14) (size 15 to 20)
#    0.000    1.778    0.000    3.111    0.000    9.481 
#    0.000    6.667    0.000    0.000    0.000    0.000 
#    0.000    0.000    0.000    0.000    0.000    0.000 
#
# Total GULP energy -301130.732729 kJ/mol
# GULP energy per Si atom -5576.495051 kJ/mol
# Density = 2.216766 g / cm^3
# Si number density = 22.218230 Si / 1000 Ang^3
#
#
#
# Elastic Constant Matrix: (Units=GPa)
#
#
# Indices 1 2 3 4 5 6 
#
# 1 128.3370 3.4576 32.8154 0.0000 0.0000 0.0000
# 2 3.4576 50.9570 43.3074 0.0000 0.0000 0.0000
# 3 32.8154 43.3074 144.5301 0.0000 0.0000 0.0000
# 4 0.0000 0.0000 0.0000 -10.4021 0.0000 0.0000
# 5 0.0000 0.0000 0.0000 0.0000 44.4304 0.0000
# 6 0.0000 0.0000 0.0000 0.0000 0.0000 20.1370
#
#
#
# Elastic Compliance Matrix: (Units=1/GPa)
#
#
# Indices 1 2 3 4 5 6 
#
# 1 0.008346 0.001401 -0.002315 0.000000 0.000000 0.000000
# 2 0.001401 0.026565 -0.008278 0.000000 0.000000 0.000000
# 3 -0.002315 -0.008278 0.009925 0.000000 0.000000 0.000000
# 4 0.000000 0.000000 0.000000 -0.096135 0.000000 0.000000
# 5 0.000000 0.000000 0.000000 0.000000 0.022507 0.000000
# 6 0.000000 0.000000 0.000000 0.000000 0.000000 0.049660
#
#
# Mechanical properties :
#
#
# Convention : Reuss Voigt Hill
#
# Bulk Modulus (GPa) = 37.80412 53.66500 45.73456
# Shear Modulus (GPa) = 104.01680 27.11596 65.56638
#
# Velocity S-wave (km/s) = 6.84964 3.49727 5.43822
# Velocity P-wave (km/s) = 8.92237 6.36505 7.74992
#
# Compressibility (1/GPa) = 0.02645214
#
# Stress axis : x y z
#
# Youngs Moduli (GPa) = 119.81613 37.64404 100.75585
#
# Poissons Ratio (x) = -0.05274 0.23323
# Poissons Ratio (y) = -0.16786 0.83406
# Poissons Ratio (z) = 0.27735 0.31162
#
# Static dielectric constant tensor:
#      x y z
#    x 1.773960 0.000000 0.000000 
#    y 0.000000 1.822470 0.000000 
#    z 0.000000 0.000000 1.838010 
# 
# From -- ./inp_files/50472.got.cif
#   From: 2010.05.17/outbox.cif.g08.bks.cpg/sg72_26_cif.got.tgz:50472.got - 2010.06.03 17:03:01.
