data_PCOD9527626
_publ_section_title
;
Structure prediction by ZEFSAII (Michael W. Deem and Ramdas Pophale) SiO2 
 PCOD9527626
Probable space group: I B A M
;
_chemical_formula_sum "Si O2"
_cell_formula_units_Z 76
_cell_length_a 13.867661
_cell_length_b 10.597574
_cell_length_c 25.561334
_cell_angle_alpha 90.000000
_cell_angle_beta 90.000000
_cell_angle_gamma 90.000000
_cell_volume 3756.584736
_symmetry_space_group_name_H-M "I B A M"
_symmetry_group_IT_number 72
_symmetry_cell_setting 'orthorhombic'
loop_
_space_group_symop_operation_xyz
x,y,z
-x,-y,z
x,-y,1/2-z
-x,y,1/2-z
-x,-y,-z
x,y,-z
-x,y,1/2+z
x,-y,1/2+z
1/2+x,1/2+y,1/2+z
1/2-x,1/2-y,1/2+z
1/2+x,1/2-y,-z
1/2-x,1/2+y,-z
1/2-x,1/2-y,1/2-z
1/2+x,1/2+y,1/2-z
1/2-x,1/2+y,z
1/2+x,1/2-y,z
loop_
_atom_site_type_symbol
_atom_site_label
_atom_site_fract_x
_atom_site_fract_y
_atom_site_fract_z
Si Si1 0.000000 0.000000 0.250000
Si Si2 0.872134 0.453198 0.000000
Si Si3 0.846314 0.366640 0.406955
Si Si4 0.670300 0.673242 0.500000
Si Si5 0.056523 0.169812 0.500000
Si Si6 0.546070 0.669107 0.342902
Si Si7 0.365522 0.426097 0.109262
O O1 0.941353 0.097924 0.287212
O O2 0.891234 0.530113 0.053503
O O3 0.927395 0.320713 0.000000
O O4 0.756459 0.426894 0.000000
O O5 0.815570 0.259026 0.448705
O O6 0.912009 0.301960 0.362323
O O7 0.747689 0.417562 0.382190
O O8 0.557111 0.639055 0.500000
O O9 0.106710 0.116750 0.551369
O O10 0.431482 0.661981 0.353671
O O11 0.595913 0.566442 0.381017
#
# Coordination Sequence:
#
# PCOD9527626 Si02
#       7
#     4   8  16   8   8  16  16
#     4   8  20  44  72  86 110 138 200 276 304 368
#     4  11  24  35  49  86 131 169 199 235 283 342
#     4  11  21  36  56  84 126 164 192 246 284 362
#     4  11  21  36  51  81 128 169 204 221 274 339
#     4  12  21  35  54  84 123 167 206 232 274 334
#     4  10  22  41  61  89 108 149 205 250 316 346
#     4  10  21  35  59  81 118 161 201 243 274 361
#
# _framework density 20.231141000000001
#
# number of rings (size 3 to 8) (size 9 to 14) (size 15 to 20)
#    0.000    1.684    4.211    1.895    2.947    5.053 
#    0.000    4.211    0.000    0.000    0.000    5.895 
#    0.000    0.000    0.000    0.000    0.000    0.000 
#
# Total GULP energy -212036.996071 kJ/mol
# GULP energy per Si atom -5579.920949 kJ/mol
# Density = 2.018509 g / cm^3
# Si number density = 20.231141 Si / 1000 Ang^3
#
#
#
# Elastic Constant Matrix: (Units=GPa)
#
#
# Indices 1 2 3 4 5 6 
#
# 1 98.0056 27.6391 10.6527 0.0000 0.0000 0.0000
# 2 27.6391 89.9241 41.5621 0.0000 0.0000 0.0000
# 3 10.6527 41.5621 91.8230 0.0000 0.0000 0.0000
# 4 0.0000 0.0000 0.0000 17.3315 0.0000 0.0000
# 5 0.0000 0.0000 0.0000 0.0000 6.6369 0.0000
# 6 0.0000 0.0000 0.0000 0.0000 0.0000 33.4747
#
#
#
# Elastic Compliance Matrix: (Units=1/GPa)
#
#
# Indices 1 2 3 4 5 6 
#
# 1 0.011180 -0.003587 0.000327 0.000000 0.000000 0.000000
# 2 -0.003587 0.015213 -0.006470 0.000000 0.000000 0.000000
# 3 0.000327 -0.006470 0.013781 0.000000 0.000000 0.000000
# 4 0.000000 0.000000 0.000000 0.057698 0.000000 0.000000
# 5 0.000000 0.000000 0.000000 0.000000 0.150672 0.000000
# 6 0.000000 0.000000 0.000000 0.000000 0.000000 0.029873
#
#
# Mechanical properties :
#
#
# Convention : Reuss Voigt Hill
#
# Bulk Modulus (GPa) = 48.27814 48.82898 48.55356
# Shear Modulus (GPa) = 16.40510 24.81521 20.61016
#
# Velocity S-wave (km/s) = 2.85069 3.50606 3.19522
# Velocity P-wave (km/s) = 5.89494 6.37008 6.13711
#
# Compressibility (1/GPa) = 0.02071331
#
# Stress axis : x y z
#
# Youngs Moduli (GPa) = 89.44845 65.73164 72.56307
#
# Poissons Ratio (x) = 0.23579 -0.02370
# Poissons Ratio (y) = 0.32087 0.46948
# Poissons Ratio (z) = -0.02922 0.42528
#
# Static dielectric constant tensor:
#      x y z
#    x 1.762290 0.000000 0.000000 
#    y 0.000000 1.788020 0.000000 
#    z 0.000000 0.000000 1.741360 
# 
# From -- ./inp_files/49001.got.cif
#   From: 2010.05.17/outbox.cif.g08.bks.cpg/sg72_25_cif.got.tgz:49001.got - 2010.06.03 17:03:01.
