data_PCOD9527289
_publ_section_title
;
Structure prediction by ZEFSAII (Michael W. Deem and Ramdas Pophale) SiO2 
 PCOD9527289
Probable space group: I B A M
;
_chemical_formula_sum "Si O2"
_cell_formula_units_Z 72
_cell_length_a 5.032932
_cell_length_b 23.600788
_cell_length_c 30.367947
_cell_angle_alpha 90.000000
_cell_angle_beta 90.000000
_cell_angle_gamma 90.000000
_cell_volume 3607.140006
_symmetry_space_group_name_H-M "I B A M"
_symmetry_group_IT_number 72
_symmetry_cell_setting 'orthorhombic'
loop_
_space_group_symop_operation_xyz
x,y,z
-x,-y,z
x,-y,1/2-z
-x,y,1/2-z
-x,-y,-z
x,y,-z
-x,y,1/2+z
x,-y,1/2+z
1/2+x,1/2+y,1/2+z
1/2-x,1/2-y,1/2+z
1/2+x,1/2-y,-z
1/2-x,1/2+y,-z
1/2-x,1/2-y,1/2-z
1/2+x,1/2+y,1/2-z
1/2-x,1/2+y,z
1/2+x,1/2-y,z
loop_
_atom_site_type_symbol
_atom_site_label
_atom_site_fract_x
_atom_site_fract_y
_atom_site_fract_z
Si Si1 0.010080 0.786514 0.802453
Si Si2 0.130311 0.562432 0.596796
Si Si3 0.608547 0.624538 0.625543
Si Si4 0.246572 0.458345 0.000000
Si Si5 0.438965 0.288250 0.050022
O O1 0.802016 0.736439 0.813710
O O2 0.924815 0.841408 0.829361
O O3 0.000000 0.796025 0.750000
O O4 0.401102 0.572482 0.623360
O O5 0.214077 0.574059 0.545895
O O6 0.000000 0.500000 0.598876
O O7 0.903690 0.604214 0.614420
O O8 0.515845 0.667790 0.587405
O O9 0.500000 0.500000 0.000000
O O10 0.000000 0.500000 0.000000
O O11 0.641116 0.235172 0.054535
O O12 0.477466 0.310291 0.000000
#
# Coordination Sequence:
#
# PCOD9527289 Si02
#       5
#    16  16  16   8  16
#     4  10  21  39  64  93 121 148 190 246 300 360
#     4  11  24  38  57  83 117 155 202 255 291 338
#     4  12  22  36  62  84 114 156 197 241 294 363
#     4  10  20  38  56  76 110 154 206 254 294 328
#     4  10  21  35  51  77 114 147 182 227 282 353
#
# _framework density 19.960411000000001
#
# number of rings (size 3 to 8) (size 9 to 14) (size 15 to 20)
#    0.000    1.333    0.000    7.333    3.111    0.000 
#    0.000    0.000    0.000    4.000    0.000    0.000 
#    0.000    0.000    0.000    0.000    0.000    0.000 
#
# Total GULP energy -201225.249391 kJ/mol
# GULP energy per Si atom -5589.590261 kJ/mol
# Density = 1.991498 g / cm^3
# Si number density = 19.960411 Si / 1000 Ang^3
#
#
#
# Elastic Constant Matrix: (Units=GPa)
#
#
# Indices 1 2 3 4 5 6 
#
# 1 106.9028 5.1140 25.8046 0.0000 0.0000 0.0000
# 2 5.1140 38.7021 33.3184 0.0000 0.0000 0.0000
# 3 25.8046 33.3184 66.3409 0.0000 0.0000 0.0000
# 4 0.0000 0.0000 0.0000 29.3610 0.0000 0.0000
# 5 0.0000 0.0000 0.0000 0.0000 21.0100 0.0000
# 6 0.0000 0.0000 0.0000 0.0000 0.0000 43.1581
#
#
#
# Elastic Compliance Matrix: (Units=1/GPa)
#
#
# Indices 1 2 3 4 5 6 
#
# 1 0.010631 0.003797 -0.006042 0.000000 0.000000 0.000000
# 2 0.003797 0.046876 -0.025019 0.000000 0.000000 0.000000
# 3 -0.006042 -0.025019 0.029989 0.000000 0.000000 0.000000
# 4 0.000000 0.000000 0.000000 0.034059 0.000000 0.000000
# 5 0.000000 0.000000 0.000000 0.000000 0.047596 0.000000
# 6 0.000000 0.000000 0.000000 0.000000 0.000000 0.023171
#
#
# Mechanical properties :
#
#
# Convention : Reuss Voigt Hill
#
# Bulk Modulus (GPa) = 30.33332 37.82444 34.07888
# Shear Modulus (GPa) = 19.39189 28.55306 23.97248
#
# Velocity S-wave (km/s) = 3.12030 3.78628 3.46931
# Velocity P-wave (km/s) = 5.31144 6.17296 5.75833
#
# Compressibility (1/GPa) = 0.03296704
#
# Stress axis : x y z
#
# Youngs Moduli (GPa) = 94.06343 21.33308 33.34529
#
# Poissons Ratio (x) = -0.08100 0.20147
# Poissons Ratio (y) = -0.35714 0.83427
# Poissons Ratio (z) = 0.56834 0.53374
#
# Static dielectric constant tensor:
#      x y z
#    x 1.681400 0.000000 0.000000 
#    y 0.000000 1.714380 0.000000 
#    z 0.000000 0.000000 1.725810 
# 
# From -- ./inp_files/46641.got.cif
#   From: 2010.05.17/outbox.cif.g08.bks.cpg/sg72_24_cif.got.tgz:46641.got - 2010.06.03 17:03:01.
