data_PCOD9527783
_publ_section_title
;
Structure prediction by ZEFSAII (Michael W. Deem and Ramdas Pophale) SiO2 
 PCOD9527783
Probable space group: I B A M
;
_chemical_formula_sum "Si O2"
_cell_formula_units_Z 52
_cell_length_a 5.377814
_cell_length_b 19.102538
_cell_length_c 18.721508
_cell_angle_alpha 90.000000
_cell_angle_beta 90.000000
_cell_angle_gamma 90.000000
_cell_volume 1923.258575
_symmetry_space_group_name_H-M "I B A M"
_symmetry_group_IT_number 72
_symmetry_cell_setting 'orthorhombic'
loop_
_space_group_symop_operation_xyz
x,y,z
-x,-y,z
x,-y,1/2-z
-x,y,1/2-z
-x,-y,-z
x,y,-z
-x,y,1/2+z
x,-y,1/2+z
1/2+x,1/2+y,1/2+z
1/2-x,1/2-y,1/2+z
1/2+x,1/2-y,-z
1/2-x,1/2+y,-z
1/2-x,1/2-y,1/2-z
1/2+x,1/2+y,1/2-z
1/2-x,1/2+y,z
1/2+x,1/2-y,z
loop_
_atom_site_type_symbol
_atom_site_label
_atom_site_fract_x
_atom_site_fract_y
_atom_site_fract_z
Si Si1 0.050463 0.582598 0.581257
Si Si2 0.242228 0.868733 0.226402
Si Si3 0.221546 0.786475 0.584585
Si Si4 0.500000 0.500000 0.750000
O O1 0.145936 0.597422 0.500000
O O2 0.233510 0.604231 0.645353
O O3 0.000000 0.500000 0.584549
O O4 0.811191 0.633320 0.590711
O O5 0.500000 0.837220 0.250000
O O6 0.000000 0.827301 0.250000
O O7 0.198146 0.940477 0.273633
O O8 0.202704 0.773451 0.500000
O O9 0.456598 0.740949 0.612060
#
# Coordination Sequence:
#
# PCOD9527783 Si02
#       4
#    16  16  16   4
#     4  10  21  39  65 102 131 156 211 284 321 348
#     4  10  21  37  59  84 124 170 206 242 310 395
#     4   9  19  38  60  84 123 173 208 240 311 398
#     4   8  18  32  56  76 110 168 196 220 300 392
#
# _framework density 27.037448999999999
#
# number of rings (size 3 to 8) (size 9 to 14) (size 15 to 20)
#    0.923    1.538    0.000    2.308    0.000    2.462 
#    0.000    5.385    0.000    5.538    0.000    0.000 
#    0.000    0.000    0.000    0.000    0.000    0.000 
#
# Total GULP energy -144992.163083 kJ/mol
# GULP energy per Si atom -5576.621657 kJ/mol
# Density = 2.697591 g / cm^3
# Si number density = 27.037449 Si / 1000 Ang^3
#
#
#
# Elastic Constant Matrix: (Units=GPa)
#
#
# Indices 1 2 3 4 5 6 
#
# 1 154.0028 19.4589 40.4022 0.0000 0.0000 0.0000
# 2 19.4589 171.6437 29.3886 0.0000 0.0000 0.0000
# 3 40.4022 29.3886 225.9514 0.0000 0.0000 0.0000
# 4 0.0000 0.0000 0.0000 41.7684 0.0000 0.0000
# 5 0.0000 0.0000 0.0000 0.0000 10.3287 0.0000
# 6 0.0000 0.0000 0.0000 0.0000 0.0000 13.0361
#
#
#
# Elastic Compliance Matrix: (Units=1/GPa)
#
#
# Indices 1 2 3 4 5 6 
#
# 1 0.006869 -0.000581 -0.001153 0.000000 0.000000 0.000000
# 2 -0.000581 0.006008 -0.000677 0.000000 0.000000 0.000000
# 3 -0.001153 -0.000677 0.004720 0.000000 0.000000 0.000000
# 4 0.000000 0.000000 0.000000 0.023942 0.000000 0.000000
# 5 0.000000 0.000000 0.000000 0.000000 0.096818 0.000000
# 6 0.000000 0.000000 0.000000 0.000000 0.000000 0.076710
#
#
# Mechanical properties :
#
#
# Convention : Reuss Voigt Hill
#
# Bulk Modulus (GPa) = 78.28358 81.12193 79.70276
# Shear Modulus (GPa) = 22.30676 43.84985 33.07830
#
# Velocity S-wave (km/s) = 2.87545 4.03155 3.50154
# Velocity P-wave (km/s) = 6.32779 7.19304 6.77425
#
# Compressibility (1/GPa) = 0.01277407
#
# Stress axis : x y z
#
# Youngs Moduli (GPa) = 145.57633 166.44671 211.86645
#
# Poissons Ratio (x) = 0.09677 0.24421
# Poissons Ratio (y) = 0.08464 0.14353
# Poissons Ratio (z) = 0.16780 0.11276
#
# Static dielectric constant tensor:
#      x y z
#    x 2.337590 0.000000 0.000000 
#    y 0.000000 2.071400 0.000000 
#    z 0.000000 0.000000 2.192520 
# 
# From -- ./inp_files/34597.got.cif
#   From: 2010.05.17/outbox.cif.g08.bks.cpg/sg72_18_cif.got.tgz:34597.got - 2010.06.03 17:03:01.
