data_PCOD9527659
_publ_section_title
;
Structure prediction by ZEFSAII (Michael W. Deem and Ramdas Pophale) SiO2 
 PCOD9527659
Probable space group: I B A M
;
_chemical_formula_sum "Si O2"
_cell_formula_units_Z 104
_cell_length_a 26.420514
_cell_length_b 24.437746
_cell_length_c 8.289144
_cell_angle_alpha 90.000000
_cell_angle_beta 90.000000
_cell_angle_gamma 90.000000
_cell_volume 5351.950564
_symmetry_space_group_name_H-M "I B A M"
_symmetry_group_IT_number 72
_symmetry_cell_setting 'orthorhombic'
loop_
_space_group_symop_operation_xyz
x,y,z
-x,-y,z
x,-y,1/2-z
-x,y,1/2-z
-x,-y,-z
x,y,-z
-x,y,1/2+z
x,-y,1/2+z
1/2+x,1/2+y,1/2+z
1/2-x,1/2-y,1/2+z
1/2+x,1/2-y,-z
1/2-x,1/2+y,-z
1/2-x,1/2-y,1/2-z
1/2+x,1/2+y,1/2-z
1/2-x,1/2+y,z
1/2+x,1/2-y,z
loop_
_atom_site_type_symbol
_atom_site_label
_atom_site_fract_x
_atom_site_fract_y
_atom_site_fract_z
Si Si1 0.080636 0.778467 0.690435
Si Si2 0.379042 0.836751 0.807530
Si Si3 0.557188 0.061080 0.691435
Si Si4 0.233583 0.689664 0.809071
Si Si5 0.417947 0.561969 0.692750
Si Si6 0.166439 0.852282 0.188264
Si Si7 0.500000 0.357816 0.750000
O O1 0.065355 0.784111 0.500000
O O2 0.086193 0.715540 0.737301
O O3 0.135149 0.807007 0.711929
O O4 0.042044 0.812630 0.802388
O O5 0.404555 0.892729 0.752090
O O6 0.322963 0.826118 0.741302
O O7 0.375721 0.836037 0.000000
O O8 0.500000 0.072926 0.750000
O O9 0.556908 0.061077 0.500000
O O10 0.570496 0.000000 0.750000
O O11 0.250000 0.750000 0.750000
O O12 0.275564 0.648584 0.738548
O O13 0.236781 0.689348 0.000000
O O14 0.418054 0.500000 0.750000
O O15 0.431971 0.566710 0.500000
O O16 0.363681 0.591095 0.711129
O O17 0.457605 0.597159 0.799427
O O18 0.162630 0.837288 0.000000
#
# Coordination Sequence:
#
# PCOD9527659 Si02
#       7
#    16  16  16  16  16  16   8
#     4  10  21  36  56  84 119 158 199 245 301 358
#     4  11  23  39  61  94 127 160 204 250 299 362
#     4  11  23  43  68  94 125 164 205 251 304 362
#     4  12  23  38  61  90 123 161 200 245 303 367
#     4  10  22  38  58  83 115 156 204 253 299 352
#     4  10  21  38  59  84 116 154 199 252 304 358
#     4  10  21  36  56  86 119 158 204 250 300 350
#
# _framework density 19.432168999999998
#
# number of rings (size 3 to 8) (size 9 to 14) (size 15 to 20)
#    0.000    1.385    1.538    4.846    1.077    5.538 
#    0.000    0.769    0.000    1.846    0.000    0.000 
#    0.000    0.000    0.000    0.000    0.000    0.000 
#
# Total GULP energy -289858.570453 kJ/mol
# GULP energy per Si atom -5574.203278 kJ/mol
# Density = 1.938794 g / cm^3
# Si number density = 19.432169 Si / 1000 Ang^3
#
#
#
# Elastic Constant Matrix: (Units=GPa)
#
#
# Indices 1 2 3 4 5 6 
#
# 1 115.2143 82.4363 26.1654 0.0000 0.0000 0.0000
# 2 82.4363 130.6938 26.4248 0.0000 0.0000 0.0000
# 3 26.1654 26.4248 69.9980 0.0000 0.0000 0.0000
# 4 0.0000 0.0000 0.0000 17.8169 0.0000 0.0000
# 5 0.0000 0.0000 0.0000 0.0000 12.1245 0.0000
# 6 0.0000 0.0000 0.0000 0.0000 0.0000 26.0302
#
#
#
# Elastic Compliance Matrix: (Units=1/GPa)
#
#
# Indices 1 2 3 4 5 6 
#
# 1 0.016176 -0.009722 -0.002376 0.000000 0.000000 0.000000
# 2 -0.009722 0.014128 -0.001699 0.000000 0.000000 0.000000
# 3 -0.002376 -0.001699 0.015816 0.000000 0.000000 0.000000
# 4 0.000000 0.000000 0.000000 0.056127 0.000000 0.000000
# 5 0.000000 0.000000 0.000000 0.000000 0.082478 0.000000
# 6 0.000000 0.000000 0.000000 0.000000 0.000000 0.038417
#
#
# Mechanical properties :
#
#
# Convention : Reuss Voigt Hill
#
# Bulk Modulus (GPa) = 53.98514 65.10658 59.54586
# Shear Modulus (GPa) = 19.46210 23.25295 21.35753
#
# Velocity S-wave (km/s) = 3.16815 3.46297 3.31884
# Velocity P-wave (km/s) = 6.42063 7.04037 6.73763
#
# Compressibility (1/GPa) = 0.01852361
#
# Stress axis : x y z
#
# Youngs Moduli (GPa) = 61.82162 70.78385 63.22829
#
# Poissons Ratio (x) = 0.68819 0.15024
# Poissons Ratio (y) = 0.60106 0.10742
# Poissons Ratio (z) = 0.14690 0.12026
#
# Static dielectric constant tensor:
#      x y z
#    x 1.832560 0.000000 0.000000 
#    y 0.000000 1.666990 0.000000 
#    z 0.000000 0.000000 1.741430 
# 
# From -- ./inp_files/8191.got.cif
#   From: 2010.05.17/outbox.cif.g08.bks.cpg/sg72_5_cif.got.tgz:8191.got - 2010.06.03 17:03:01.
