data_PCOD9527755
_publ_section_title
;
Structure prediction by ZEFSAII (Michael W. Deem and Ramdas Pophale) SiO2 
 PCOD9527755
Probable space group: I B A M
;
_chemical_formula_sum "Si O2"
_cell_formula_units_Z 68
_cell_length_a 27.252606
_cell_length_b 5.098943
_cell_length_c 22.263240
_cell_angle_alpha 90.000000
_cell_angle_beta 90.000000
_cell_angle_gamma 90.000000
_cell_volume 3093.688356
_symmetry_space_group_name_H-M "I B A M"
_symmetry_group_IT_number 72
_symmetry_cell_setting 'orthorhombic'
loop_
_space_group_symop_operation_xyz
x,y,z
-x,-y,z
x,-y,1/2-z
-x,y,1/2-z
-x,-y,-z
x,y,-z
-x,y,1/2+z
x,-y,1/2+z
1/2+x,1/2+y,1/2+z
1/2-x,1/2-y,1/2+z
1/2+x,1/2-y,-z
1/2-x,1/2+y,-z
1/2-x,1/2-y,1/2-z
1/2+x,1/2+y,1/2-z
1/2-x,1/2+y,z
1/2+x,1/2-y,z
loop_
_atom_site_type_symbol
_atom_site_label
_atom_site_fract_x
_atom_site_fract_y
_atom_site_fract_z
Si Si1 0.907812 0.138505 0.826348
Si Si2 0.967112 0.740762 0.432955
Si Si3 0.000000 0.000000 0.750000
Si Si4 0.216780 0.670661 0.433150
Si Si5 0.658563 0.875392 0.691463
O O1 0.920108 0.165340 0.896218
O O2 0.883048 0.407793 0.810608
O O3 0.960824 0.133425 0.794269
O O4 0.871213 0.901260 0.808970
O O5 0.953210 0.655730 0.500000
O O6 0.000000 0.500000 0.407048
O O7 0.000000 0.000000 0.435541
O O8 0.192996 0.635044 0.500000
O O9 0.261412 0.463078 0.431286
O O10 0.187151 0.622841 0.371748
O O11 0.687944 0.000000 0.750000
#
# Coordination Sequence:
#
# PCOD9527755 Si02
#       5
#    16  16   4  16  16
#     4  12  25  39  63  88 129 175 225 271 325 373
#     4  10  21  37  57  83 115 159 217 271 324 382
#     4  12  24  42  62  86 124 190 228 272 308 394
#     4  10  23  45  73 100 129 168 209 256 332 420
#     4  12  25  42  62 100 132 164 218 277 325 387
#
# _framework density 21.980236999999999
#
# number of rings (size 3 to 8) (size 9 to 14) (size 15 to 20)
#    0.000    0.941    3.529    2.824    0.000    3.765 
#    0.000    0.000    0.000    0.000    0.000    0.000 
#    0.000    0.000    0.000    0.000    0.000    0.000 
#
# Total GULP energy -189361.897561 kJ/mol
# GULP energy per Si atom -5569.467575 kJ/mol
# Density = 2.193021 g / cm^3
# Si number density = 21.980237 Si / 1000 Ang^3
#
#
#
# Elastic Constant Matrix: (Units=GPa)
#
#
# Indices 1 2 3 4 5 6 
#
# 1 40.7681 9.4904 51.8423 0.0000 0.0000 0.0000
# 2 9.4904 89.9734 28.6209 0.0000 0.0000 0.0000
# 3 51.8423 28.6209 182.9555 0.0000 0.0000 0.0000
# 4 0.0000 0.0000 0.0000 53.9156 0.0000 0.0000
# 5 0.0000 0.0000 0.0000 0.0000 39.8874 0.0000
# 6 0.0000 0.0000 0.0000 0.0000 0.0000 18.7032
#
#
#
# Elastic Compliance Matrix: (Units=1/GPa)
#
#
# Indices 1 2 3 4 5 6 
#
# 1 0.038379 -0.000620 -0.010778 0.000000 0.000000 0.000000
# 2 -0.000620 0.011706 -0.001656 0.000000 0.000000 0.000000
# 3 -0.010778 -0.001656 0.008779 0.000000 0.000000 0.000000
# 4 0.000000 0.000000 0.000000 0.018548 0.000000 0.000000
# 5 0.000000 0.000000 0.000000 0.000000 0.025071 0.000000
# 6 0.000000 0.000000 0.000000 0.000000 0.000000 0.053467
#
#
# Mechanical properties :
#
#
# Convention : Reuss Voigt Hill
#
# Bulk Modulus (GPa) = 30.52746 54.84492 42.68619
# Shear Modulus (GPa) = 25.91002 37.41746 31.66374
#
# Velocity S-wave (km/s) = 3.43707 4.13040 3.79958
# Velocity P-wave (km/s) = 5.44702 6.91036 6.22186
#
# Compressibility (1/GPa) = 0.03275739
#
# Stress axis : x y z
#
# Youngs Moduli (GPa) = 26.05585 85.42299 113.90918
#
# Poissons Ratio (x) = 0.05293 1.22773
# Poissons Ratio (y) = 0.01615 0.18860
# Poissons Ratio (z) = 0.28083 0.14144
#
# Static dielectric constant tensor:
#      x y z
#    x 1.788840 0.000000 0.000000 
#    y 0.000000 1.747510 0.000000 
#    z 0.000000 0.000000 2.069320 
# 
# From -- ./inp_files/40597.got.cif
#   From: 2010.05.17/outbox.cif.g08.bks.cpg/sg72_21_cif.got.tgz:40597.got - 2010.06.03 17:03:01.
