data_PCOD9527230
_publ_section_title
;
Structure prediction by ZEFSAII (Michael W. Deem and Ramdas Pophale) SiO2 
 PCOD9527230
Probable space group: I B A M
;
_chemical_formula_sum "Si O2"
_cell_formula_units_Z 96
_cell_length_a 8.588158
_cell_length_b 19.732514
_cell_length_c 26.364007
_cell_angle_alpha 90.000000
_cell_angle_beta 90.000000
_cell_angle_gamma 90.000000
_cell_volume 4467.801439
_symmetry_space_group_name_H-M "I B A M"
_symmetry_group_IT_number 72
_symmetry_cell_setting 'orthorhombic'
loop_
_space_group_symop_operation_xyz
x,y,z
-x,-y,z
x,-y,1/2-z
-x,y,1/2-z
-x,-y,-z
x,y,-z
-x,y,1/2+z
x,-y,1/2+z
1/2+x,1/2+y,1/2+z
1/2-x,1/2-y,1/2+z
1/2+x,1/2-y,-z
1/2-x,1/2+y,-z
1/2-x,1/2-y,1/2-z
1/2+x,1/2+y,1/2-z
1/2-x,1/2+y,z
1/2+x,1/2-y,z
loop_
_atom_site_type_symbol
_atom_site_label
_atom_site_fract_x
_atom_site_fract_y
_atom_site_fract_z
Si Si1 0.537891 0.854728 0.309494
Si Si2 0.752352 0.040155 0.442246
Si Si3 0.581317 0.089552 0.912369
Si Si4 0.403290 0.336516 0.391388
Si Si5 0.746618 0.262362 0.809582
Si Si6 0.220595 0.215170 0.440619
O O1 0.500000 0.872545 0.250000
O O2 0.535904 0.911383 0.352543
O O3 0.696293 0.813839 0.323479
O O4 0.407666 0.798496 0.322146
O O5 0.811269 0.041129 0.500000
O O6 0.577478 0.070696 0.440650
O O7 0.858778 0.087322 0.406741
O O8 0.718525 0.963909 0.423811
O O9 0.640032 0.162025 0.931398
O O10 0.377388 0.315961 0.332632
O O11 0.277330 0.286636 0.418345
O O12 0.568816 0.313765 0.412692
O O13 0.750000 0.250000 0.750000
O O14 0.187599 0.221386 0.500000
#
# Coordination Sequence:
#
# PCOD9527230 Si02
#       6
#    16  16  16  16  16  16
#     4  10  20  37  63  93 122 156 205 259 323 375
#     4  11  23  41  62  86 123 173 216 257 314 379
#     4  11  22  40  62  86 125 166 211 258 316 385
#     4  12  23  40  62  91 126 163 209 263 317 374
#     4  10  20  37  61  90 122 153 200 257 318 372
#     4  12  24  38  61  93 126 163 208 261 315 378
#
# _framework density 21.487079000000001
#
# number of rings (size 3 to 8) (size 9 to 14) (size 15 to 20)
#    0.000    1.000    3.333    5.500    0.000    0.667 
#    0.000    3.333    0.000    0.000    0.000    0.000 
#    0.000    0.000    0.000    0.000    0.000    0.000 
#
# Total GULP energy -267769.084165 kJ/mol
# GULP energy per Si atom -5578.522587 kJ/mol
# Density = 2.143817 g / cm^3
# Si number density = 21.487079 Si / 1000 Ang^3
#
#
#
# Elastic Constant Matrix: (Units=GPa)
#
#
# Indices 1 2 3 4 5 6 
#
# 1 56.9961 -12.0526 6.3476 0.0000 0.0000 0.0000
# 2 -12.0526 56.9688 16.1386 0.0000 0.0000 0.0000
# 3 6.3476 16.1386 116.8475 0.0000 0.0000 0.0000
# 4 0.0000 0.0000 0.0000 27.9420 0.0000 0.0000
# 5 0.0000 0.0000 0.0000 0.0000 11.4998 0.0000
# 6 0.0000 0.0000 0.0000 0.0000 0.0000 35.1884
#
#
#
# Elastic Compliance Matrix: (Units=1/GPa)
#
#
# Indices 1 2 3 4 5 6 
#
# 1 0.018658 0.004407 -0.001622 0.000000 0.000000 0.000000
# 2 0.004407 0.019309 -0.002906 0.000000 0.000000 0.000000
# 3 -0.001622 -0.002906 0.009048 0.000000 0.000000 0.000000
# 4 0.000000 0.000000 0.000000 0.035788 0.000000 0.000000
# 5 0.000000 0.000000 0.000000 0.000000 0.086958 0.000000
# 6 0.000000 0.000000 0.000000 0.000000 0.000000 0.028418
#
#
# Mechanical properties :
#
#
# Convention : Reuss Voigt Hill
#
# Bulk Modulus (GPa) = 21.38075 27.96440 24.67258
# Shear Modulus (GPa) = 23.36303 29.61796 26.49049
#
# Velocity S-wave (km/s) = 3.30101 3.71672 3.51502
# Velocity P-wave (km/s) = 4.94985 5.60905 5.28973
#
# Compressibility (1/GPa) = 0.04677105
#
# Stress axis : x y z
#
# Youngs Moduli (GPa) = 53.59748 51.78906 110.52544
#
# Poissons Ratio (x) = -0.22823 0.17929
# Poissons Ratio (y) = -0.23619 0.32122
# Poissons Ratio (z) = 0.08695 0.15051
#
# Static dielectric constant tensor:
#      x y z
#    x 1.823440 0.000000 0.000000 
#    y 0.000000 1.797440 0.000000 
#    z 0.000000 0.000000 1.900210 
# 
# From -- ./inp_files/47328.got.cif
#   From: 2010.05.17/outbox.cif.g08.bks.cpg/sg72_24_cif.got.tgz:47328.got - 2010.06.03 17:03:01.
