data_PCOD9527971
_publ_section_title
;
Structure prediction by ZEFSAII (Michael W. Deem and Ramdas Pophale) SiO2 
 PCOD9527971
Probable space group: I B A M
;
_chemical_formula_sum "Si O2"
_cell_formula_units_Z 80
_cell_length_a 8.783128
_cell_length_b 25.881980
_cell_length_c 15.734518
_cell_angle_alpha 90.000000
_cell_angle_beta 90.000000
_cell_angle_gamma 90.000000
_cell_volume 3576.845264
_symmetry_space_group_name_H-M "I B A M"
_symmetry_group_IT_number 72
_symmetry_cell_setting 'orthorhombic'
loop_
_space_group_symop_operation_xyz
x,y,z
-x,-y,z
x,-y,1/2-z
-x,y,1/2-z
-x,-y,-z
x,y,-z
-x,y,1/2+z
x,-y,1/2+z
1/2+x,1/2+y,1/2+z
1/2-x,1/2-y,1/2+z
1/2+x,1/2-y,-z
1/2-x,1/2+y,-z
1/2-x,1/2-y,1/2-z
1/2+x,1/2+y,1/2-z
1/2-x,1/2+y,z
1/2+x,1/2-y,z
loop_
_atom_site_type_symbol
_atom_site_label
_atom_site_fract_x
_atom_site_fract_y
_atom_site_fract_z
Si Si1 0.782146 0.734830 0.348402
Si Si2 0.902106 0.862813 0.166293
Si Si3 0.911300 0.321939 0.597340
Si Si4 0.159008 0.581749 0.721086
Si Si5 0.390854 0.450926 0.906389
O O1 0.750000 0.750000 0.250000
O O2 0.666470 0.688692 0.373217
O O3 0.738234 0.785960 0.399201
O O4 0.949217 0.712144 0.365225
O O5 0.759051 0.895718 0.201755
O O6 0.000000 0.848445 0.250000
O O7 0.008762 0.899764 0.111119
O O8 0.944784 0.336549 0.500000
O O9 0.882068 0.370138 0.658812
O O10 0.266062 0.545070 0.666414
O O11 0.000000 0.559447 0.750000
O O12 0.500000 0.500000 0.902713
O O13 0.321319 0.447554 0.000000
#
# Coordination Sequence:
#
# PCOD9527971 Si02
#       5
#    16  16  16  16  16
#     4  12  22  41  62  89 132 181 228 275 331 399
#     4  10  21  38  67  93 125 176 227 267 330 403
#     4  12  25  38  59  95 134 176 224 280 336 393
#     4  11  21  43  68  97 130 174 225 275 331 397
#     4  10  24  46  71 101 137 172 215 280 349 408
#
# _framework density 22.366078000000002
#
# number of rings (size 3 to 8) (size 9 to 14) (size 15 to 20)
#    0.000    1.000    4.000    3.000    2.800    5.200 
#    0.000    2.000    0.000    2.400    0.000    0.000 
#    0.000    0.000    0.000    0.000    0.000    0.000 
#
# Total GULP energy -223951.719598 kJ/mol
# GULP energy per Si atom -5598.792990 kJ/mol
# Density = 2.231517 g / cm^3
# Si number density = 22.366078 Si / 1000 Ang^3
#
#
#
# Elastic Constant Matrix: (Units=GPa)
#
#
# Indices 1 2 3 4 5 6 
#
# 1 85.2852 5.3899 3.7419 0.0000 0.0000 0.0000
# 2 5.3899 63.4421 12.5947 0.0000 0.0000 0.0000
# 3 3.7419 12.5947 67.6057 0.0001 -0.0001 0.0000
# 4 0.0000 0.0000 0.0001 19.6322 0.0000 0.0000
# 5 0.0000 0.0000 -0.0001 0.0000 18.2982 0.0000
# 6 0.0000 0.0000 0.0000 0.0000 0.0000 19.7922
#
#
#
# Elastic Compliance Matrix: (Units=1/GPa)
#
#
# Indices 1 2 3 4 5 6 
#
# 1 0.011804 -0.000907 -0.000484 0.000000 0.000000 0.000000
# 2 -0.000907 0.016437 -0.003012 0.000000 0.000000 0.000000
# 3 -0.000484 -0.003012 0.015380 0.000000 0.000000 0.000000
# 4 0.000000 0.000000 0.000000 0.050937 0.000000 0.000000
# 5 0.000000 0.000000 0.000000 0.000000 0.054650 0.000000
# 6 0.000000 0.000000 0.000000 0.000000 0.000000 0.050525
#
#
# Mechanical properties :
#
#
# Convention : Reuss Voigt Hill
#
# Bulk Modulus (GPa) = 28.72355 28.86511 28.79433
# Shear Modulus (GPa) = 22.71242 24.51829 23.61535
#
# Velocity S-wave (km/s) = 3.19012 3.31452 3.25292
# Velocity P-wave (km/s) = 5.14194 5.25184 5.19718
#
# Compressibility (1/GPa) = 0.03481464
#
# Stress axis : x y z
#
# Youngs Moduli (GPa) = 84.71762 60.83694 65.02119
#
# Poissons Ratio (x) = 0.05516 0.03150
# Poissons Ratio (y) = 0.07681 0.19585
# Poissons Ratio (z) = 0.04104 0.18324
#
# Static dielectric constant tensor:
#      x y z
#    x 1.837940 0.000000 0.000000 
#    y 0.000000 1.817380 0.000000 
#    z 0.000000 0.000000 1.834070 
# 
# From -- ./inp_files/28116.got.cif
#   From: 2010.05.17/outbox.cif.g08.bks.cpg/sg72_15_cif.got.tgz:28116.got - 2010.06.03 17:03:01.
