data_PCOD9527421
_publ_section_title
;
Structure prediction by ZEFSAII (Michael W. Deem and Ramdas Pophale) SiO2 
 PCOD9527421
Probable space group: I B A M
;
_chemical_formula_sum "Si O2"
_cell_formula_units_Z 104
_cell_length_a 8.628837
_cell_length_b 29.087902
_cell_length_c 20.865355
_cell_angle_alpha 90.000000
_cell_angle_beta 90.000000
_cell_angle_gamma 90.000000
_cell_volume 5237.094875
_symmetry_space_group_name_H-M "I B A M"
_symmetry_group_IT_number 72
_symmetry_cell_setting 'orthorhombic'
loop_
_space_group_symop_operation_xyz
x,y,z
-x,-y,z
x,-y,1/2-z
-x,y,1/2-z
-x,-y,-z
x,y,-z
-x,y,1/2+z
x,-y,1/2+z
1/2+x,1/2+y,1/2+z
1/2-x,1/2-y,1/2+z
1/2+x,1/2-y,-z
1/2-x,1/2+y,-z
1/2-x,1/2-y,1/2-z
1/2+x,1/2+y,1/2-z
1/2-x,1/2+y,z
1/2+x,1/2-y,z
loop_
_atom_site_type_symbol
_atom_site_label
_atom_site_fract_x
_atom_site_fract_y
_atom_site_fract_z
Si Si1 0.792335 0.449482 0.219307
Si Si2 0.044265 0.597522 0.662039
Si Si3 0.318514 0.242623 0.680016
Si Si4 0.666130 0.649401 0.127884
Si Si5 0.343332 0.786504 0.500000
Si Si6 0.603584 0.808430 0.861943
Si Si7 0.500000 0.603769 0.250000
Si Si8 0.019509 0.815010 0.000000
O O1 0.793106 0.500000 0.250000
O O2 0.861768 0.417539 0.275469
O O3 0.621353 0.429407 0.212845
O O4 0.910555 0.442076 0.159557
O O5 0.187291 0.614144 0.617041
O O6 0.940196 0.643309 0.667566
O O7 0.250000 0.250000 0.750000
O O8 0.239979 0.198893 0.645625
O O9 0.496689 0.229531 0.672443
O O10 0.277413 0.290440 0.646176
O O11 0.576665 0.633416 0.192608
O O12 0.564951 0.656639 0.064102
O O13 0.423702 0.807301 0.562726
O O14 0.377366 0.731950 0.500000
O O15 0.160846 0.799300 0.500000
#
# Coordination Sequence:
#
# PCOD9527421 Si02
#       8
#    16  16  16  16   8  16   8   8
#     4  10  20  39  65  96 130 154 193 255 341 407
#     4   9  21  35  58  87 119 156 199 260 311 382
#     4  11  24  34  54  82 119 166 209 257 322 363
#     4  10  24  39  57  87 131 172 219 269 314 373
#     4  12  26  40  60  78 117 179 241 272 299 363
#     4  11  24  38  54  82 117 166 217 262 303 366
#     4  10  23  38  64 102 130 166 202 266 329 396
#     4  12  26  44  58  86 128 187 235 277 315 368
#
# _framework density 19.858339000000001
#
# number of rings (size 3 to 8) (size 9 to 14) (size 15 to 20)
#    0.000    1.538    1.538    2.538   17.231    0.000 
#    0.000    0.000    0.000    0.000    0.000   30.154 
#    0.000    0.000    0.000    0.000    0.000    0.000 
#
# Total GULP energy -289559.002632 kJ/mol
# GULP energy per Si atom -5568.442358 kJ/mol
# Density = 1.981314 g / cm^3
# Si number density = 19.858339 Si / 1000 Ang^3
#
#
#
# Elastic Constant Matrix: (Units=GPa)
#
#
# Indices 1 2 3 4 5 6 
#
# 1 103.6781 36.5327 27.2669 0.0000 0.0000 0.0000
# 2 36.5327 86.6277 25.0230 0.0000 0.0000 0.0000
# 3 27.2669 25.0230 96.3122 0.0001 0.0000 0.0000
# 4 0.0000 0.0000 0.0001 -1.4889 0.0000 0.0000
# 5 0.0000 0.0000 0.0000 0.0000 28.6795 0.0000
# 6 0.0000 0.0000 0.0000 0.0000 0.0000 5.5366
#
#
#
# Elastic Compliance Matrix: (Units=1/GPa)
#
#
# Indices 1 2 3 4 5 6 
#
# 1 0.011746 -0.004317 -0.002204 0.000000 0.000000 0.000000
# 2 -0.004317 0.014067 -0.002433 0.000000 0.000000 0.000000
# 3 -0.002204 -0.002433 0.011639 0.000001 0.000000 0.000000
# 4 0.000000 0.000000 0.000001 -0.671631 0.000000 0.000002
# 5 0.000000 0.000000 0.000000 0.000000 0.034868 0.000000
# 6 0.000000 0.000000 0.000000 0.000002 0.000000 0.180615
#
#
# Mechanical properties :
#
#
# Convention : Reuss Voigt Hill
#
# Bulk Modulus (GPa) = 51.16387 51.58480 51.37433
# Shear Modulus (GPa) = -12.68154 19.73181 3.52513
#
# Velocity S-wave (km/s) = -2.52980 3.15561 1.33379
# Velocity P-wave (km/s) = 4.15779 6.26976 5.31964
#
# Compressibility (1/GPa) = 0.01954504
#
# Stress axis : x y z
#
# Youngs Moduli (GPa) = 85.13548 71.08910 85.91929
#
# Poissons Ratio (x) = 0.30689 0.18935
# Poissons Ratio (y) = 0.36753 0.20900
# Poissons Ratio (z) = 0.18762 0.17293
#
# Static dielectric constant tensor:
#      x y z
#    x 1.846570 0.000000 0.000000 
#    y 0.000000 1.706800 0.000000 
#    z 0.000000 0.000000 0.975620 
# 
# From -- ./inp_files/36195.got.cif
#   From: 2010.05.17/outbox.cif.g08.bks.cpg/sg72_19_cif.got.tgz:36195.got - 2010.06.03 17:03:01.
