data_PCOD9527779
_publ_section_title
;
Structure prediction by ZEFSAII (Michael W. Deem and Ramdas Pophale) SiO2 
 PCOD9527779
Probable space group: I B A M
;
_chemical_formula_sum "Si O2"
_cell_formula_units_Z 56
_cell_length_a 18.045880
_cell_length_b 5.400238
_cell_length_c 24.932591
_cell_angle_alpha 90.000000
_cell_angle_beta 90.000000
_cell_angle_gamma 90.000000
_cell_volume 2429.732028
_symmetry_space_group_name_H-M "I B A M"
_symmetry_group_IT_number 72
_symmetry_cell_setting 'orthorhombic'
loop_
_space_group_symop_operation_xyz
x,y,z
-x,-y,z
x,-y,1/2-z
-x,y,1/2-z
-x,-y,-z
x,y,-z
-x,y,1/2+z
x,-y,1/2+z
1/2+x,1/2+y,1/2+z
1/2-x,1/2-y,1/2+z
1/2+x,1/2-y,-z
1/2-x,1/2+y,-z
1/2-x,1/2-y,1/2-z
1/2+x,1/2+y,1/2-z
1/2-x,1/2+y,z
1/2+x,1/2-y,z
loop_
_atom_site_type_symbol
_atom_site_label
_atom_site_fract_x
_atom_site_fract_y
_atom_site_fract_z
Si Si1 0.084482 0.586528 0.109684
Si Si2 0.086167 0.751925 0.772473
Si Si3 0.296395 0.775173 0.936726
Si Si4 0.548616 0.745860 0.000000
O O1 0.094241 0.737825 0.163836
O O2 0.134814 0.344499 0.101122
O O3 0.000000 0.500000 0.112487
O O4 0.094169 0.741907 0.054918
O O5 0.119668 0.500000 0.750000
O O6 0.000000 0.751559 0.750000
O O7 0.120719 0.000000 0.750000
O O8 0.242536 0.012592 0.927533
O O9 0.318713 0.781490 0.000000
O O10 0.500000 0.500000 0.000000
O O11 0.500000 0.000000 0.000000
#
# Coordination Sequence:
#
# PCOD9527779 Si02
#       4
#    16  16  16   8
#     4  11  22  42  68  99 131 166 224 276 323 389
#     4  10  21  37  58  91 125 166 205 265 321 378
#     4  10  23  43  63  92 135 178 211 257 334 406
#     4  10  24  34  54  96 130 152 193 274 327 360
#
# _framework density 23.047809000000001
#
# number of rings (size 3 to 8) (size 9 to 14) (size 15 to 20)
#    0.000    1.714    4.286    0.000    4.000    6.857 
#    0.000    0.000    0.000    5.143    0.000    0.000 
#    0.000    0.000    0.000    0.000    0.000    0.000 
#
# Total GULP energy -156528.594109 kJ/mol
# GULP energy per Si atom -5590.306932 kJ/mol
# Density = 2.299535 g / cm^3
# Si number density = 23.047809 Si / 1000 Ang^3
#
#
#
# Elastic Constant Matrix: (Units=GPa)
#
#
# Indices 1 2 3 4 5 6 
#
# 1 78.8259 27.0426 5.0559 0.0000 0.0000 0.0000
# 2 27.0426 165.7402 48.9941 0.0000 0.0000 0.0000
# 3 5.0559 48.9941 185.7594 0.0000 0.0000 0.0000
# 4 0.0000 0.0000 0.0000 38.4504 0.0000 0.0000
# 5 0.0000 0.0000 0.0000 0.0000 -9.0004 0.0000
# 6 0.0000 0.0000 0.0000 0.0000 0.0000 19.0447
#
#
#
# Elastic Compliance Matrix: (Units=1/GPa)
#
#
# Indices 1 2 3 4 5 6 
#
# 1 0.013448 -0.002262 0.000231 0.000000 0.000000 0.000000
# 2 -0.002262 0.006924 -0.001765 0.000000 0.000000 0.000000
# 3 0.000231 -0.001765 0.005842 0.000000 0.000000 0.000000
# 4 0.000000 0.000000 0.000000 0.026008 0.000000 0.000000
# 5 0.000000 0.000000 0.000000 0.000000 -0.111106 0.000000
# 6 0.000000 0.000000 0.000000 0.000000 0.000000 0.052508
#
#
# Mechanical properties :
#
#
# Convention : Reuss Voigt Hill
#
# Bulk Modulus (GPa) = 53.70109 65.83453 59.76781
# Shear Modulus (GPa) = 673.50214 32.98112 353.24163
#
# Velocity S-wave (km/s) = 17.11298 3.78694 12.39344
# Velocity P-wave (km/s) = 20.34263 6.90996 15.19161
#
# Compressibility (1/GPa) = 0.01862160
#
# Stress axis : x y z
#
# Youngs Moduli (GPa) = 74.36316 144.41826 171.16033
#
# Poissons Ratio (x) = 0.32672 -0.03948
# Poissons Ratio (y) = 0.16823 0.30205
# Poissons Ratio (z) = -0.01715 0.25486
#
# Static dielectric constant tensor:
#      x y z
#    x 1.906370 0.000000 0.000000 
#    y 0.000000 1.913720 0.000000 
#    z 0.000000 0.000000 1.895600 
# 
# From -- ./inp_files/41303.got.cif
#   From: 2010.05.17/outbox.cif.g08.bks.cpg/sg72_21_cif.got.tgz:41303.got - 2010.06.03 17:03:01.
