data_PCOD9527996
_publ_section_title
;
Structure prediction by ZEFSAII (Michael W. Deem and Ramdas Pophale) SiO2 
 PCOD9527996
Probable space group: I B A M
;
_chemical_formula_sum "Si O2"
_cell_formula_units_Z 116
_cell_length_a 24.460319
_cell_length_b 26.942604
_cell_length_c 8.992200
_cell_angle_alpha 90.000000
_cell_angle_beta 90.000000
_cell_angle_gamma 90.000000
_cell_volume 5926.081804
_symmetry_space_group_name_H-M "I B A M"
_symmetry_group_IT_number 72
_symmetry_cell_setting 'orthorhombic'
loop_
_space_group_symop_operation_xyz
x,y,z
-x,-y,z
x,-y,1/2-z
-x,y,1/2-z
-x,-y,-z
x,y,-z
-x,y,1/2+z
x,-y,1/2+z
1/2+x,1/2+y,1/2+z
1/2-x,1/2-y,1/2+z
1/2+x,1/2-y,-z
1/2-x,1/2+y,-z
1/2-x,1/2-y,1/2-z
1/2+x,1/2+y,1/2-z
1/2-x,1/2+y,z
1/2+x,1/2-y,z
loop_
_atom_site_type_symbol
_atom_site_label
_atom_site_fract_x
_atom_site_fract_y
_atom_site_fract_z
Si Si1 0.439768 0.271381 0.822583
Si Si2 0.711827 0.091160 0.675522
Si Si3 0.059471 0.674613 0.674846
Si Si4 0.245818 0.302665 0.668972
Si Si5 0.500000 0.000000 0.250000
Si Si6 0.865925 0.852296 0.828009
Si Si7 0.679815 0.447722 0.322538
Si Si8 0.909885 0.420818 0.164987
O O1 0.500000 0.274475 0.750000
O O2 0.412525 0.221148 0.756264
O O3 0.406104 0.318073 0.765722
O O4 0.443142 0.268576 0.000000
O O5 0.728707 0.091178 0.500000
O O6 0.709431 0.149852 0.721477
O O7 0.758150 0.065364 0.772423
O O8 0.653353 0.064099 0.682585
O O9 0.056498 0.683987 0.500000
O O10 0.082160 0.620577 0.710341
O O11 0.000000 0.672501 0.750000
O O12 0.228626 0.292278 0.500000
O O13 0.250000 0.250000 0.750000
O O14 0.306690 0.325764 0.671267
O O15 0.543350 0.037337 0.327807
O O16 0.857015 0.904797 0.749450
O O17 0.883504 0.856994 0.000000
O O18 0.665410 0.500000 0.250000
O O19 0.675849 0.448554 0.500000
O O20 0.914112 0.397186 0.000000
#
# Coordination Sequence:
#
# PCOD9527996 Si02
#       8
#    16  16  16  16   4  16  16  16
#     4  11  22  38  62  92 126 165 205 249 299 358
#     4   9  21  40  58  82 115 156 200 252 310 374
#     4  11  22  38  59  83 113 152 199 247 300 363
#     4   9  19  34  54  82 118 155 193 241 301 364
#     4  12  26  40  64  90 118 156 210 280 338 384
#     4  10  21  39  60  89 125 162 202 250 301 362
#     4  11  22  39  63  91 120 158 202 249 303 362
#     4  11  24  42  61  83 115 154 201 260 324 383
#
# _framework density 19.574484999999999
#
# number of rings (size 3 to 8) (size 9 to 14) (size 15 to 20)
#    0.000    1.655    0.690    6.000    2.897    3.862 
#    0.000    0.000    0.000    0.414    0.000    2.897 
#    0.000    0.000    0.000    0.000    0.000    0.000 
#
# Total GULP energy -323642.034309 kJ/mol
# GULP energy per Si atom -5580.035074 kJ/mol
# Density = 1.952993 g / cm^3
# Si number density = 19.574485 Si / 1000 Ang^3
#
#
#
# Elastic Constant Matrix: (Units=GPa)
#
#
# Indices 1 2 3 4 5 6 
#
# 1 49.3579 19.3216 20.6402 0.0000 0.0000 0.0000
# 2 19.3216 122.3551 60.7333 0.0000 0.0000 0.0000
# 3 20.6402 60.7333 160.5802 0.0000 0.0000 0.0000
# 4 0.0000 0.0000 0.0000 23.3041 0.0000 0.0000
# 5 0.0000 0.0000 0.0000 0.0000 21.7966 0.0000
# 6 0.0000 0.0000 0.0000 0.0000 0.0000 21.7199
#
#
#
# Elastic Compliance Matrix: (Units=1/GPa)
#
#
# Indices 1 2 3 4 5 6 
#
# 1 0.022041 -0.002554 -0.001867 0.000000 0.000000 0.000000
# 2 -0.002554 0.010358 -0.003589 0.000000 0.000000 0.000000
# 3 -0.001867 -0.003589 0.007825 0.000000 0.000000 0.000000
# 4 0.000000 0.000000 0.000000 0.042911 0.000000 0.000000
# 5 0.000000 0.000000 0.000000 0.000000 0.045879 0.000000
# 6 0.000000 0.000000 0.000000 0.000000 0.000000 0.046041
#
#
# Mechanical properties :
#
#
# Convention : Reuss Voigt Hill
#
# Bulk Modulus (GPa) = 41.31688 59.29813 50.30750
# Shear Modulus (GPa) = 25.10776 28.80398 26.95587
#
# Velocity S-wave (km/s) = 3.58533 3.84018 3.71495
# Velocity P-wave (km/s) = 6.18812 7.07263 6.64511
#
# Compressibility (1/GPa) = 0.02420318
#
# Stress axis : x y z
#
# Youngs Moduli (GPa) = 45.37070 96.54594 127.79743
#
# Poissons Ratio (x) = 0.24655 0.23862
# Poissons Ratio (y) = 0.11586 0.45869
# Poissons Ratio (z) = 0.08471 0.34652
#
# Static dielectric constant tensor:
#      x y z
#    x 1.740800 0.000000 0.000000 
#    y 0.000000 1.739510 0.000000 
#    z 0.000000 0.000000 1.675870 
# 
# From -- ./inp_files/8378.got.cif
#   From: 2010.05.17/outbox.cif.g08.bks.cpg/sg72_5_cif.got.tgz:8378.got - 2010.06.03 17:03:01.
