data_PCOD9527979
_publ_section_title
;
Structure prediction by ZEFSAII (Michael W. Deem and Ramdas Pophale) SiO2 
 PCOD9527979
Probable space group: I B A M
;
_chemical_formula_sum "Si O2"
_cell_formula_units_Z 68
_cell_length_a 5.607490
_cell_length_b 36.382612
_cell_length_c 14.499765
_cell_angle_alpha 90.000000
_cell_angle_beta 90.000000
_cell_angle_gamma 90.000000
_cell_volume 2958.171484
_symmetry_space_group_name_H-M "I B A M"
_symmetry_group_IT_number 72
_symmetry_cell_setting 'orthorhombic'
loop_
_space_group_symop_operation_xyz
x,y,z
-x,-y,z
x,-y,1/2-z
-x,y,1/2-z
-x,-y,-z
x,y,-z
-x,y,1/2+z
x,-y,1/2+z
1/2+x,1/2+y,1/2+z
1/2-x,1/2-y,1/2+z
1/2+x,1/2-y,-z
1/2-x,1/2+y,-z
1/2-x,1/2-y,1/2-z
1/2+x,1/2+y,1/2-z
1/2-x,1/2+y,z
1/2+x,1/2-y,z
loop_
_atom_site_type_symbol
_atom_site_label
_atom_site_fract_x
_atom_site_fract_y
_atom_site_fract_z
Si Si1 0.106997 0.120452 0.395080
Si Si2 0.787453 0.736513 0.644789
Si Si3 0.614072 0.537445 0.148402
Si Si4 0.500000 0.000000 0.750000
Si Si5 0.889809 0.348214 0.112245
O O1 0.105436 0.135018 0.500000
O O2 0.100858 0.076296 0.398760
O O3 0.358179 0.134787 0.354483
O O4 0.854576 0.132850 0.352964
O O5 0.750000 0.750000 0.750000
O O6 0.518928 0.741876 0.605203
O O7 0.865090 0.694326 0.638022
O O8 0.500000 0.500000 0.107375
O O9 0.500000 0.541384 0.250000
O O10 0.877848 0.527093 0.177357
O O11 0.892103 0.351899 0.000000
#
# Coordination Sequence:
#
# PCOD9527979 Si02
#       5
#    16  16  16   4  16
#     4  10  22  40  60  88 121 156 200 244 295 355
#     4  10  21  39  58  85 118 147 190 246 284 347
#     4   9  20  37  58  86 119 159 202 244 294 347
#     4   8  18  36  54  78 120 148 202 246 290 348
#     4  10  22  40  60  84 120 156 192 242 300 357
#
# _framework density 22.987172000000001
#
# number of rings (size 3 to 8) (size 9 to 14) (size 15 to 20)
#    0.000    2.588    0.000    1.412    6.588    1.412 
#   12.706    0.588    0.000    0.000    0.000    0.000 
#    0.000    0.000    0.000    0.000    0.000    0.000 
#
# Total GULP energy -189439.096078 kJ/mol
# GULP energy per Si atom -5571.738120 kJ/mol
# Density = 2.293485 g / cm^3
# Si number density = 22.987172 Si / 1000 Ang^3
#
#
#
# Elastic Constant Matrix: (Units=GPa)
#
#
# Indices 1 2 3 4 5 6 
#
# 1 200.6679 82.5205 31.5199 0.0000 0.0000 0.0000
# 2 82.5205 148.0236 -0.1354 0.0000 0.0000 0.0000
# 3 31.5199 -0.1354 65.5014 0.0000 0.0000 0.0000
# 4 0.0000 0.0000 0.0000 32.2009 0.0000 0.0000
# 5 0.0000 0.0000 0.0000 0.0000 -0.5195 0.0000
# 6 0.0000 0.0000 0.0000 0.0000 0.0000 70.1031
#
#
#
# Elastic Compliance Matrix: (Units=1/GPa)
#
#
# Indices 1 2 3 4 5 6 
#
# 1 0.007172 -0.004002 -0.003460 0.000000 0.000000 0.000000
# 2 -0.004002 0.008988 0.001944 0.000000 0.000000 0.000000
# 3 -0.003460 0.001944 0.016936 0.000000 0.000000 0.000000
# 4 0.000000 0.000000 0.000000 0.031055 0.000000 0.000000
# 5 0.000000 0.000000 0.000000 0.000000 -1.924762 0.000000
# 6 0.000000 0.000000 0.000000 0.000000 0.000000 0.014265
#
#
# Mechanical properties :
#
#
# Convention : Reuss Voigt Hill
#
# Bulk Modulus (GPa) = 45.32653 71.33367 58.33010
# Shear Modulus (GPa) = -2.73529 40.37610 18.82040
#
# Velocity S-wave (km/s) = -1.09202 4.19556 2.86446
# Velocity P-wave (km/s) = 4.26274 7.38713 6.03078
#
# Compressibility (1/GPa) = 0.02206213
#
# Stress axis : x y z
#
# Youngs Moduli (GPa) = 139.42384 111.25584 59.04684
#
# Poissons Ratio (x) = 0.44520 0.20428
# Poissons Ratio (y) = 0.55792 -0.11480
# Poissons Ratio (z) = 0.48236 -0.21630
#
# Static dielectric constant tensor:
#      x y z
#    x 1.907950 0.000000 0.000000 
#    y 0.000000 1.771280 0.000000 
#    z 0.000000 0.000000 1.930700 
# 
# From -- ./inp_files/34829.got.cif
#   From: 2010.05.17/outbox.cif.g08.bks.cpg/sg72_18_cif.got.tgz:34829.got - 2010.06.03 17:03:01.
