data_PCOD9527300
_publ_section_title
;
Structure prediction by ZEFSAII (Michael W. Deem and Ramdas Pophale) SiO2 
 PCOD9527300
Probable space group: I B A M
;
_chemical_formula_sum "Si O2"
_cell_formula_units_Z 112
_cell_length_a 12.199676
_cell_length_b 28.837568
_cell_length_c 17.088642
_cell_angle_alpha 90.000000
_cell_angle_beta 90.000000
_cell_angle_gamma 90.000000
_cell_volume 6011.937818
_symmetry_space_group_name_H-M "I B A M"
_symmetry_group_IT_number 72
_symmetry_cell_setting 'orthorhombic'
loop_
_space_group_symop_operation_xyz
x,y,z
-x,-y,z
x,-y,1/2-z
-x,y,1/2-z
-x,-y,-z
x,y,-z
-x,y,1/2+z
x,-y,1/2+z
1/2+x,1/2+y,1/2+z
1/2-x,1/2-y,1/2+z
1/2+x,1/2-y,-z
1/2-x,1/2+y,-z
1/2-x,1/2-y,1/2-z
1/2+x,1/2+y,1/2-z
1/2-x,1/2+y,z
1/2+x,1/2-y,z
loop_
_atom_site_type_symbol
_atom_site_label
_atom_site_fract_x
_atom_site_fract_y
_atom_site_fract_z
Si Si1 0.891885 0.167547 0.594532
Si Si2 0.872019 0.503087 0.591204
Si Si3 0.700794 0.086939 0.830399
Si Si4 0.204863 0.397634 0.355128
Si Si5 0.830734 0.268610 0.594119
Si Si6 0.007300 0.656774 0.656475
Si Si7 0.355247 0.660072 0.405254
O O1 0.889180 0.167548 0.500000
O O2 0.820632 0.124463 0.623116
O O3 0.839515 0.216050 0.622880
O O4 0.018972 0.166004 0.618237
O O5 0.865355 0.489920 0.500000
O O6 0.807063 0.465650 0.642057
O O7 0.826468 0.554685 0.602647
O O8 0.000000 0.500000 0.614937
O O9 0.701657 0.091872 0.737239
O O10 0.591579 0.114345 0.858750
O O11 0.801670 0.114463 0.868080
O O12 0.110922 0.359386 0.373268
O O13 0.828600 0.267445 0.500000
O O14 0.723125 0.297132 0.619881
O O15 0.937017 0.298216 0.619309
O O16 0.000000 0.663354 0.750000
O O17 0.350081 0.657170 0.500000
#
# Coordination Sequence:
#
# PCOD9527300 Si02
#       7
#    16  16  16  16  16  16  16
#     4  10  22  38  56  83 118 153 195 247 294 338
#     4  11  22  36  60  92 119 150 191 238 294 353
#     4  10  20  38  59  82 116 155 193 232 289 353
#     4  11  22  36  57  87 125 152 186 242 296 347
#     4   9  19  35  58  82 109 154 201 239 287 346
#     4   9  19  35  53  84 119 150 187 233 289 342
#     4   9  19  38  58  79 113 154 200 244 286 344
#
# _framework density 18.629601000000001
#
# number of rings (size 3 to 8) (size 9 to 14) (size 15 to 20)
#    0.000    2.143    1.429    1.286    2.000    2.857 
#    2.571    2.857    0.000    4.286    0.000    0.000 
#    0.000    0.000    0.000    0.000    0.000    0.000 
#
# Total GULP energy -312639.023568 kJ/mol
# GULP energy per Si atom -5582.839707 kJ/mol
# Density = 1.858720 g / cm^3
# Si number density = 18.629601 Si / 1000 Ang^3
#
#
#
# Elastic Constant Matrix: (Units=GPa)
#
#
# Indices 1 2 3 4 5 6 
#
# 1 121.5555 60.1713 24.3280 0.0000 0.0000 0.0000
# 2 60.1713 110.1792 18.0580 0.0000 0.0000 0.0000
# 3 24.3280 18.0580 13.9849 0.0004 -0.0001 0.0000
# 4 0.0000 0.0000 0.0004 -29.7659 -0.0001 0.0000
# 5 0.0000 0.0000 -0.0001 -0.0001 19.4802 0.0000
# 6 0.0000 0.0000 0.0000 0.0000 0.0000 19.0153
#
#
#
# Elastic Compliance Matrix: (Units=1/GPa)
#
#
# Indices 1 2 3 4 5 6 
#
# 1 0.014344 -0.004749 -0.018821 0.000000 0.000000 0.000000
# 2 -0.004749 0.013085 -0.008634 0.000000 0.000000 0.000000
# 3 -0.018821 -0.008634 0.115395 0.000001 0.000000 0.000000
# 4 0.000000 0.000000 0.000001 -0.033596 0.000000 0.000000
# 5 0.000000 0.000000 0.000000 0.000000 0.051334 0.000000
# 6 0.000000 0.000000 0.000000 0.000000 0.000000 0.052589
#
#
# Mechanical properties :
#
#
# Convention : Reuss Voigt Hill
#
# Bulk Modulus (GPa) = 12.75256 50.09269 31.42262
# Shear Modulus (GPa) = 16.46364 11.29010 13.87687
#
# Velocity S-wave (km/s) = 2.97599 2.46444 2.73222
# Velocity P-wave (km/s) = 4.32075 5.91989 5.18237
#
# Compressibility (1/GPa) = 0.07841565
#
# Stress axis : x y z
#
# Youngs Moduli (GPa) = 69.71380 76.42447 8.66587
#
# Poissons Ratio (x) = 0.36294 0.16310
# Poissons Ratio (y) = 0.33108 0.07482
# Poissons Ratio (z) = 1.31209 0.65987
#
# Static dielectric constant tensor:
#      x y z
#    x 1.635610 0.000000 0.000000 
#    y 0.000000 1.626730 0.000000 
#    z 0.000000 0.000000 1.633920 
# 
# From -- ./inp_files/20670.got.cif
#   From: 2010.05.17/outbox.cif.g08.bks.cpg/sg72_11_cif.got.tgz:20670.got - 2010.06.03 17:03:01.
