data_PCOD9527142
_publ_section_title
;
Structure prediction by ZEFSAII (Michael W. Deem and Ramdas Pophale) SiO2 
 PCOD9527142
Probable space group: I B A M
;
_chemical_formula_sum "Si O2"
_cell_formula_units_Z 96
_cell_length_a 12.991917
_cell_length_b 20.810026
_cell_length_c 16.670022
_cell_angle_alpha 90.000000
_cell_angle_beta 90.000000
_cell_angle_gamma 90.000000
_cell_volume 4506.942664
_symmetry_space_group_name_H-M "I B A M"
_symmetry_group_IT_number 72
_symmetry_cell_setting 'orthorhombic'
loop_
_space_group_symop_operation_xyz
x,y,z
-x,-y,z
x,-y,1/2-z
-x,y,1/2-z
-x,-y,-z
x,y,-z
-x,y,1/2+z
x,-y,1/2+z
1/2+x,1/2+y,1/2+z
1/2-x,1/2-y,1/2+z
1/2+x,1/2-y,-z
1/2-x,1/2+y,-z
1/2-x,1/2-y,1/2-z
1/2+x,1/2+y,1/2-z
1/2-x,1/2+y,z
1/2+x,1/2-y,z
loop_
_atom_site_type_symbol
_atom_site_label
_atom_site_fract_x
_atom_site_fract_y
_atom_site_fract_z
Si Si1 0.851288 0.832318 0.093920
Si Si2 0.392692 0.123942 0.586479
Si Si3 0.115174 0.653550 0.872955
Si Si4 0.390908 0.523633 0.156382
Si Si5 0.351864 0.779050 0.211448
Si Si6 0.335239 0.994944 0.653904
O O1 0.725898 0.823584 0.093618
O O2 0.878817 0.900325 0.136872
O O3 0.894499 0.776453 0.152348
O O4 0.884243 0.830821 0.000000
O O5 0.343513 0.129850 0.500000
O O6 0.505612 0.155869 0.584146
O O7 0.329489 0.160695 0.654173
O O8 0.400933 0.050036 0.612370
O O9 0.095298 0.690321 0.789473
O O10 0.134126 0.577517 0.863900
O O11 0.500000 0.500000 0.122160
O O12 0.391844 0.500000 0.250000
O O13 0.283041 0.494986 0.125480
O O14 0.250000 0.750000 0.250000
O O15 0.341237 0.000000 0.750000
#
# Coordination Sequence:
#
# PCOD9527142 Si02
#       6
#    16  16  16  16  16  16
#     4  10  21  40  65  91 126 165 209 266 321 361
#     4  12  24  38  61  98 134 160 207 266 311 367
#     4  10  21  39  63  91 126 173 207 244 314 389
#     4   9  20  40  63  91 122 160 212 260 309 381
#     4  10  22  40  62  85 118 173 217 251 302 379
#     4  10  20  36  63  88 126 166 208 253 315 376
#
# _framework density 21.300471000000002
#
# number of rings (size 3 to 8) (size 9 to 14) (size 15 to 20)
#    0.000    1.833    1.667    2.000    2.333    5.000 
#    6.000    0.000    0.000    0.000    0.000    0.000 
#    0.000    0.000    0.000    0.000    0.000    0.000 
#
# Total GULP energy -267368.546763 kJ/mol
# GULP energy per Si atom -5570.178058 kJ/mol
# Density = 2.125199 g / cm^3
# Si number density = 21.300471 Si / 1000 Ang^3
#
#
#
# Elastic Constant Matrix: (Units=GPa)
#
#
# Indices 1 2 3 4 5 6 
#
# 1 87.3429 14.7537 12.1457 0.0000 0.0000 0.0000
# 2 14.7537 105.6086 55.2850 0.0000 0.0000 0.0000
# 3 12.1457 55.2850 137.5403 0.0000 0.0000 0.0000
# 4 0.0000 0.0000 0.0000 -14.5703 0.0000 0.0000
# 5 0.0000 0.0000 0.0000 0.0000 15.2817 0.0000
# 6 0.0000 0.0000 0.0000 0.0000 0.0000 27.5456
#
#
#
# Elastic Compliance Matrix: (Units=1/GPa)
#
#
# Indices 1 2 3 4 5 6 
#
# 1 0.011751 -0.001391 -0.000478 0.000000 0.000000 0.000000
# 2 -0.001391 0.012157 -0.004764 0.000000 0.000000 0.000000
# 3 -0.000478 -0.004764 0.009228 0.000000 0.000000 0.000000
# 4 0.000000 0.000000 0.000000 -0.068633 0.000000 0.000000
# 5 0.000000 0.000000 0.000000 0.000000 0.065438 0.000000
# 6 0.000000 0.000000 0.000000 0.000000 0.000000 0.036303
#
#
# Mechanical properties :
#
#
# Convention : Reuss Voigt Hill
#
# Bulk Modulus (GPa) = 50.33048 54.98450 52.65749
# Shear Modulus (GPa) = 58.04949 22.20523 40.12736
#
# Velocity S-wave (km/s) = 5.22607 3.23224 4.34507
# Velocity P-wave (km/s) = 7.75215 6.30870 7.06737
#
# Compressibility (1/GPa) = 0.01986868
#
# Stress axis : x y z
#
# Youngs Moduli (GPa) = 85.10176 82.25695 108.36985
#
# Poissons Ratio (x) = 0.11443 0.05185
# Poissons Ratio (y) = 0.11838 0.51625
# Poissons Ratio (z) = 0.04072 0.39185
#
# Static dielectric constant tensor:
#      x y z
#    x 1.925910 0.000000 0.000000 
#    y 0.000000 1.809950 0.000000 
#    z 0.000000 0.000000 1.791600 
# 
# From -- ./inp_files/21865.got.cif
#   From: 2010.05.17/outbox.cif.g08.bks.cpg/sg72_11_cif.got.tgz:21865.got - 2010.06.03 17:03:01.
