data_PCOD9527146
_publ_section_title
;
Structure prediction by ZEFSAII (Michael W. Deem and Ramdas Pophale) SiO2 
 PCOD9527146
Probable space group: I B A M
;
_chemical_formula_sum "Si O2"
_cell_formula_units_Z 88
_cell_length_a 8.823642
_cell_length_b 18.341167
_cell_length_c 27.023486
_cell_angle_alpha 90.000000
_cell_angle_beta 90.000000
_cell_angle_gamma 90.000000
_cell_volume 4373.369947
_symmetry_space_group_name_H-M "I B A M"
_symmetry_group_IT_number 72
_symmetry_cell_setting 'orthorhombic'
loop_
_space_group_symop_operation_xyz
x,y,z
-x,-y,z
x,-y,1/2-z
-x,y,1/2-z
-x,-y,-z
x,y,-z
-x,y,1/2+z
x,-y,1/2+z
1/2+x,1/2+y,1/2+z
1/2-x,1/2-y,1/2+z
1/2+x,1/2-y,-z
1/2-x,1/2+y,-z
1/2-x,1/2-y,1/2-z
1/2+x,1/2+y,1/2-z
1/2-x,1/2+y,z
1/2+x,1/2-y,z
loop_
_atom_site_type_symbol
_atom_site_label
_atom_site_fract_x
_atom_site_fract_y
_atom_site_fract_z
Si Si1 0.769005 0.230544 0.914602
Si Si2 0.933231 0.150986 0.445650
Si Si3 0.737255 0.178635 0.316000
Si Si4 0.217177 0.554442 0.893857
Si Si5 0.605354 0.915581 0.441361
Si Si6 0.000000 0.236388 0.750000
O O1 0.716454 0.298489 0.947510
O O2 0.744370 0.262857 0.860273
O O3 0.662254 0.164830 0.930631
O O4 0.937257 0.199456 0.920648
O O5 0.987885 0.131468 0.500000
O O6 0.875824 0.081125 0.416392
O O7 0.709216 0.099759 0.342106
O O8 0.886325 0.186301 0.282128
O O9 0.598496 0.209884 0.284359
O O10 0.197364 0.468269 0.903229
O O11 0.070345 0.579026 0.926076
O O12 0.625796 0.933506 0.500000
#
# Coordination Sequence:
#
# PCOD9527146 Si02
#       6
#    16  16  16  16  16   8
#     4  11  22  34  55  81 115 145 190 231 282 334
#     4  11  20  33  51  79 113 153 193 237 270 323
#     4  10  20  37  58  86 105 143 179 241 293 336
#     4  10  21  36  56  79 116 150 193 230 279 332
#     4  11  21  36  56  84 119 164 193 220 262 332
#     4  10  20  36  64  82 106 130 190 238 298 356
#
# _framework density 20.121783000000001
#
# number of rings (size 3 to 8) (size 9 to 14) (size 15 to 20)
#    0.000    1.455    0.000    9.273    0.000    0.727 
#    0.000    1.818    0.000   17.455    0.000    0.000 
#    0.000    0.000    0.000    0.000    0.000    0.000 
#
# Total GULP energy -245266.214298 kJ/mol
# GULP energy per Si atom -5574.232143 kJ/mol
# Density = 2.007598 g / cm^3
# Si number density = 20.121783 Si / 1000 Ang^3
#
#
#
# Elastic Constant Matrix: (Units=GPa)
#
#
# Indices 1 2 3 4 5 6 
#
# 1 39.7397 -24.2675 2.9349 0.0000 0.0000 0.0000
# 2 -24.2675 46.5372 2.2792 0.0000 0.0000 0.0000
# 3 2.9349 2.2792 107.6453 0.0000 0.0000 0.0000
# 4 0.0000 0.0000 0.0000 13.4040 0.0000 0.0000
# 5 0.0000 0.0000 0.0000 0.0000 24.1175 0.0000
# 6 0.0000 0.0000 0.0000 0.0000 0.0000 36.6074
#
#
#
# Elastic Compliance Matrix: (Units=1/GPa)
#
#
# Indices 1 2 3 4 5 6 
#
# 1 0.037137 0.019436 -0.001424 0.000000 0.000000 0.000000
# 2 0.019436 0.031682 -0.001201 0.000000 0.000000 0.000000
# 3 -0.001424 -0.001201 0.009354 0.000000 0.000000 0.000000
# 4 0.000000 0.000000 0.000000 0.074605 0.000000 0.000000
# 5 0.000000 0.000000 0.000000 0.000000 0.041464 0.000000
# 6 0.000000 0.000000 0.000000 0.000000 0.000000 0.027317
#
#
# Mechanical properties :
#
#
# Convention : Reuss Voigt Hill
#
# Bulk Modulus (GPa) = 8.94494 17.31284 13.12889
# Shear Modulus (GPa) = 22.20228 29.02415 25.61322
#
# Velocity S-wave (km/s) = 3.32534 3.80205 3.57166
# Velocity P-wave (km/s) = 4.38166 5.28174 4.85261
#
# Compressibility (1/GPa) = 0.11179503
#
# Stress axis : x y z
#
# Youngs Moduli (GPa) = 26.92700 31.56373 106.90587
#
# Poissons Ratio (x) = -0.61346 0.15224
# Poissons Ratio (y) = -0.52334 0.12836
# Poissons Ratio (z) = 0.03835 0.03790
#
# Static dielectric constant tensor:
#      x y z
#    x 1.753090 0.000000 0.000000 
#    y 0.000000 1.726210 0.000000 
#    z 0.000000 0.000000 1.757920 
# 
# From -- ./inp_files/50795.got.cif
#   From: 2010.05.17/outbox.cif.g08.bks.cpg/sg72_26_cif.got.tgz:50795.got - 2010.06.03 17:03:01.
