data_PCOD9527509
_publ_section_title
;
Structure prediction by ZEFSAII (Michael W. Deem and Ramdas Pophale) SiO2 
 PCOD9527509
Probable space group: I B A M
;
_chemical_formula_sum "Si O2"
_cell_formula_units_Z 112
_cell_length_a 10.964307
_cell_length_b 27.439467
_cell_length_c 18.220653
_cell_angle_alpha 90.000000
_cell_angle_beta 90.000000
_cell_angle_gamma 90.000000
_cell_volume 5481.769823
_symmetry_space_group_name_H-M "I B A M"
_symmetry_group_IT_number 72
_symmetry_cell_setting 'orthorhombic'
loop_
_space_group_symop_operation_xyz
x,y,z
-x,-y,z
x,-y,1/2-z
-x,y,1/2-z
-x,-y,-z
x,y,-z
-x,y,1/2+z
x,-y,1/2+z
1/2+x,1/2+y,1/2+z
1/2-x,1/2-y,1/2+z
1/2+x,1/2-y,-z
1/2-x,1/2+y,-z
1/2-x,1/2-y,1/2-z
1/2+x,1/2+y,1/2-z
1/2-x,1/2+y,z
1/2+x,1/2-y,z
loop_
_atom_site_type_symbol
_atom_site_label
_atom_site_fract_x
_atom_site_fract_y
_atom_site_fract_z
Si Si1 0.917350 0.197528 0.317746
Si Si2 0.632419 0.523320 0.587224
Si Si3 0.733873 0.062426 0.840270
Si Si4 0.270643 0.397056 0.318156
Si Si5 0.860855 0.287617 0.584431
Si Si6 0.999184 0.626245 0.662198
Si Si7 0.381185 0.647397 0.583392
O O1 0.822264 0.155638 0.293795
O O2 0.857732 0.241633 0.361805
O O3 0.000000 0.214975 0.250000
O O4 0.009654 0.170726 0.372413
O O5 0.500000 0.500000 0.601860
O O6 0.650816 0.524868 0.500000
O O7 0.734916 0.489741 0.626201
O O8 0.642639 0.575901 0.624556
O O9 0.758219 0.069247 0.753847
O O10 0.597659 0.083406 0.852366
O O11 0.826637 0.099215 0.880258
O O12 0.138359 0.389321 0.353910
O O13 0.891759 0.274502 0.500000
O O14 0.956245 0.326920 0.616977
O O15 0.730570 0.314257 0.584026
O O16 0.000000 0.636737 0.750000
O O17 0.416154 0.636764 0.500000
#
# Coordination Sequence:
#
# PCOD9527509 Si02
#       7
#    16  16  16  16  16  16  16
#     4  12  24  38  61  90 125 162 211 260 313 371
#     4  11  25  41  63  93 127 165 205 254 314 373
#     4  10  20  42  66  89 121 163 203 254 307 375
#     4  11  24  40  63  95 125 159 208 262 310 365
#     4  10  23  40  61  88 122 170 211 256 315 372
#     4   9  21  42  65  91 125 162 208 257 309 368
#     4  10  21  39  61  87 119 161 208 253 310 370
#
# _framework density 20.431357999999999
#
# number of rings (size 3 to 8) (size 9 to 14) (size 15 to 20)
#    0.000    1.571    1.429    2.571    2.000    5.143 
#    0.000    2.857    0.000    0.000    0.000    0.000 
#    0.000    0.000    0.000    0.000    0.000    0.000 
#
# Total GULP energy -313080.530878 kJ/mol
# GULP energy per Si atom -5590.723766 kJ/mol
# Density = 2.038486 g / cm^3
# Si number density = 20.431358 Si / 1000 Ang^3
#
#
#
# Elastic Constant Matrix: (Units=GPa)
#
#
# Indices 1 2 3 4 5 6 
#
# 1 46.4700 -4.3647 12.3638 0.0000 0.0000 0.0000
# 2 -4.3647 72.8066 26.0404 0.0000 0.0000 0.0000
# 3 12.3638 26.0404 52.8875 0.0001 0.0000 0.0000
# 4 0.0000 0.0000 0.0001 25.7443 0.0000 0.0000
# 5 0.0000 0.0000 0.0000 0.0000 26.2966 0.0000
# 6 0.0000 0.0000 0.0000 0.0000 0.0000 11.2275
#
#
#
# Elastic Compliance Matrix: (Units=1/GPa)
#
#
# Indices 1 2 3 4 5 6 
#
# 1 0.023947 0.004173 -0.007653 0.000000 0.000000 0.000000
# 2 0.004173 0.017398 -0.009542 0.000000 0.000000 0.000000
# 3 -0.007653 -0.009542 0.025395 0.000000 0.000000 0.000000
# 4 0.000000 0.000000 0.000000 0.038844 0.000000 0.000000
# 5 0.000000 0.000000 0.000000 0.000000 0.038028 0.000000
# 6 0.000000 0.000000 0.000000 0.000000 0.000000 0.089067
#
#
# Mechanical properties :
#
#
# Convention : Reuss Voigt Hill
#
# Bulk Modulus (GPa) = 24.57197 26.69369 25.63283
# Shear Modulus (GPa) = 18.36288 21.86197 20.11243
#
# Velocity S-wave (km/s) = 3.00118 3.27467 3.14090
# Velocity P-wave (km/s) = 4.90532 5.23367 5.07216
#
# Compressibility (1/GPa) = 0.04069677
#
# Stress axis : x y z
#
# Youngs Moduli (GPa) = 41.75828 57.47802 39.37745
#
# Poissons Ratio (x) = -0.23984 0.30135
# Poissons Ratio (y) = -0.17425 0.37573
# Poissons Ratio (z) = 0.31957 0.54844
#
# Static dielectric constant tensor:
#      x y z
#    x 1.701110 0.000000 0.000000 
#    y 0.000000 1.727360 0.000000 
#    z 0.000000 0.000000 1.705310 
# 
# From -- ./inp_files/20669.got.cif
#   From: 2010.05.17/outbox.cif.g08.bks.cpg/sg72_11_cif.got.tgz:20669.got - 2010.06.03 17:03:01.
