data_PCOD9527062
_publ_section_title
;
Structure prediction by ZEFSAII (Michael W. Deem and Ramdas Pophale) SiO2 
 PCOD9527062
Probable space group: I B A M
;
_chemical_formula_sum "Si O2"
_cell_formula_units_Z 96
_cell_length_a 9.715905
_cell_length_b 21.450748
_cell_length_c 25.424023
_cell_angle_alpha 90.000000
_cell_angle_beta 90.000000
_cell_angle_gamma 90.000000
_cell_volume 5298.707831
_symmetry_space_group_name_H-M "I B A M"
_symmetry_group_IT_number 72
_symmetry_cell_setting 'orthorhombic'
loop_
_space_group_symop_operation_xyz
x,y,z
-x,-y,z
x,-y,1/2-z
-x,y,1/2-z
-x,-y,-z
x,y,-z
-x,y,1/2+z
x,-y,1/2+z
1/2+x,1/2+y,1/2+z
1/2-x,1/2-y,1/2+z
1/2+x,1/2-y,-z
1/2-x,1/2+y,-z
1/2-x,1/2-y,1/2-z
1/2+x,1/2+y,1/2-z
1/2-x,1/2+y,z
1/2+x,1/2-y,z
loop_
_atom_site_type_symbol
_atom_site_label
_atom_site_fract_x
_atom_site_fract_y
_atom_site_fract_z
Si Si1 0.162937 0.484629 0.060775
Si Si2 0.780195 0.370646 0.365351
Si Si3 0.057566 0.698079 0.122596
Si Si4 0.861975 0.210220 0.782847
Si Si5 0.061023 0.186094 0.561011
Si Si6 0.215518 0.121571 0.938646
O O1 0.213344 0.437955 0.106417
O O2 0.244995 0.549341 0.064635
O O3 0.000000 0.500000 0.066589
O O4 0.180806 0.460331 0.000000
O O5 0.704750 0.351080 0.310763
O O6 0.698013 0.328829 0.407422
O O7 0.936370 0.347891 0.361569
O O8 0.094129 0.742063 0.171230
O O9 0.008085 0.745976 0.077626
O O10 0.185844 0.660682 0.099217
O O11 0.750000 0.250000 0.750000
O O12 0.000000 0.195361 0.750000
O O13 0.088216 0.183155 0.500000
O O14 0.942041 0.136649 0.574760
O O15 0.236629 0.140830 0.000000
#
# Coordination Sequence:
#
# PCOD9527062 Si02
#       6
#    16  16  16  16  16  16
#     4  10  20  36  59  87 122 166 204 236 285 364
#     4  11  22  36  58  87 113 154 204 243 296 356
#     4  11  21  35  59  89 114 152 194 243 303 366
#     4  11  23  41  62  90 115 149 196 257 317 367
#     4  10  21  33  51  85 125 156 188 238 297 354
#     4  10  21  36  56  87 127 164 197 237 288 360
#
# _framework density 18.117625
#
# number of rings (size 3 to 8) (size 9 to 14) (size 15 to 20)
#    0.000    1.500    3.333    3.000    2.333    4.000 
#    0.000    2.500    0.000    1.000    4.333    0.000 
#    0.000    0.000    0.000    0.000    0.000    0.000 
#
# Total GULP energy -267647.757191 kJ/mol
# GULP energy per Si atom -5575.994941 kJ/mol
# Density = 1.807639 g / cm^3
# Si number density = 18.117625 Si / 1000 Ang^3
#
#
#
# Elastic Constant Matrix: (Units=GPa)
#
#
# Indices 1 2 3 4 5 6 
#
# 1 44.8300 -4.7045 35.2065 0.0000 0.0000 0.0000
# 2 -4.7045 53.7924 26.1577 0.0000 0.0000 0.0000
# 3 35.2065 26.1577 72.3847 0.0000 0.0000 0.0000
# 4 0.0000 0.0000 0.0000 32.2637 0.0000 0.0000
# 5 0.0000 0.0000 0.0000 0.0000 146.2168 0.0000
# 6 0.0000 0.0000 0.0000 0.0000 0.0000 24.6161
#
#
#
# Elastic Compliance Matrix: (Units=1/GPa)
#
#
# Indices 1 2 3 4 5 6 
#
# 1 0.047946 0.018845 -0.030130 0.000000 0.000000 0.000000
# 2 0.018845 0.029960 -0.019992 0.000000 0.000000 0.000000
# 3 -0.030130 -0.019992 0.035694 0.000000 0.000000 0.000000
# 4 0.000000 0.000000 0.000000 0.030995 0.000000 0.000000
# 5 0.000000 0.000000 0.000000 0.000000 0.006839 0.000000
# 6 0.000000 0.000000 0.000000 0.000000 0.000000 0.040624
#
#
# Mechanical properties :
#
#
# Convention : Reuss Voigt Hill
#
# Bulk Modulus (GPa) = 19.59058 31.59182 25.59120
# Shear Modulus (GPa) = 18.40754 48.24248 33.32501
#
# Velocity S-wave (km/s) = 3.19094 5.16577 4.29344
# Velocity P-wave (km/s) = 4.94091 7.28390 6.22365
#
# Compressibility (1/GPa) = 0.05104495
#
# Stress axis : x y z
#
# Youngs Moduli (GPa) = 20.85672 33.37824 28.01570
#
# Poissons Ratio (x) = -0.62900 0.84411
# Poissons Ratio (y) = -0.39303 0.56009
# Poissons Ratio (z) = 0.62841 0.66730
#
# Static dielectric constant tensor:
#      x y z
#    x 1.633860 0.000000 0.000000 
#    y 0.000000 1.630160 0.000000 
#    z 0.000000 0.000000 1.640470 
# 
# From -- ./inp_files/42401.got.cif
#   From: 2010.05.17/outbox.cif.g08.bks.cpg/sg72_22_cif.got.tgz:42401.got - 2010.06.03 17:03:01.
