data_PCOD9527664
_publ_section_title
;
Structure prediction by ZEFSAII (Michael W. Deem and Ramdas Pophale) SiO2 
 PCOD9527664
Probable space group: I B A M
;
_chemical_formula_sum "Si O2"
_cell_formula_units_Z 56
_cell_length_a 33.435886
_cell_length_b 5.067292
_cell_length_c 15.042406
_cell_angle_alpha 90.000000
_cell_angle_beta 90.000000
_cell_angle_gamma 90.000000
_cell_volume 2548.625788
_symmetry_space_group_name_H-M "I B A M"
_symmetry_group_IT_number 72
_symmetry_cell_setting 'orthorhombic'
loop_
_space_group_symop_operation_xyz
x,y,z
-x,-y,z
x,-y,1/2-z
-x,y,1/2-z
-x,-y,-z
x,y,-z
-x,y,1/2+z
x,-y,1/2+z
1/2+x,1/2+y,1/2+z
1/2-x,1/2-y,1/2+z
1/2+x,1/2-y,-z
1/2-x,1/2+y,-z
1/2-x,1/2-y,1/2-z
1/2+x,1/2+y,1/2-z
1/2-x,1/2+y,z
1/2+x,1/2-y,z
loop_
_atom_site_type_symbol
_atom_site_label
_atom_site_fract_x
_atom_site_fract_y
_atom_site_fract_z
Si Si1 0.028758 0.753313 0.000000
Si Si2 0.135777 0.433829 0.101530
Si Si3 0.726772 0.014146 0.857341
Si Si4 0.911367 0.091963 0.154714
O O1 0.056105 0.787549 0.912416
O O2 0.000000 0.500000 0.000000
O O3 0.000000 0.000000 0.000000
O O4 0.182905 0.397454 0.114071
O O5 0.120847 0.672845 0.163661
O O6 0.110982 0.166135 0.116492
O O7 0.128839 0.521420 0.000000
O O8 0.759663 0.225800 0.887613
O O9 0.726564 0.000000 0.750000
O O10 0.927900 0.000000 0.250000
#
# Coordination Sequence:
#
# PCOD9527664 Si02
#       4
#     8  16  16  16
#     4  12  26  48  76 106 144 174 218 286 344 416
#     4  12  23  42  68  99 139 183 239 294 342 406
#     4  10  21  36  56  89 133 181 235 292 347 401
#     4  12  25  46  73 104 139 185 232 277 346 419
#
# _framework density 21.972625000000001
#
# number of rings (size 3 to 8) (size 9 to 14) (size 15 to 20)
#    0.000    0.571    2.857    6.000    0.000    4.000 
#    0.000    1.429    0.000    0.000    0.000    0.000 
#    0.000    0.000    0.000    0.000    0.000    0.000 
#
# Total GULP energy -156649.463528 kJ/mol
# GULP energy per Si atom -5594.623697 kJ/mol
# Density = 2.192261 g / cm^3
# Si number density = 21.972625 Si / 1000 Ang^3
#
#
#
# Elastic Constant Matrix: (Units=GPa)
#
#
# Indices 1 2 3 4 5 6 
#
# 1 115.3699 35.3074 37.4291 0.0000 0.0000 0.0000
# 2 35.3074 130.2193 24.4675 0.0000 0.0000 0.0000
# 3 37.4291 24.4675 118.6604 0.0000 0.0000 0.0000
# 4 0.0000 0.0000 0.0000 24.9628 0.0000 0.0000
# 5 0.0000 0.0000 0.0000 0.0000 23.0223 0.0000
# 6 0.0000 0.0000 0.0000 0.0000 0.0000 45.0206
#
#
#
# Elastic Compliance Matrix: (Units=1/GPa)
#
#
# Indices 1 2 3 4 5 6 
#
# 1 0.010258 -0.002261 -0.002770 0.000000 0.000000 0.000000
# 2 -0.002261 0.008487 -0.001037 0.000000 0.000000 0.000000
# 3 -0.002770 -0.001037 0.009515 0.000000 0.000000 0.000000
# 4 0.000000 0.000000 0.000000 0.040060 0.000000 0.000000
# 5 0.000000 0.000000 0.000000 0.000000 0.043436 0.000000
# 6 0.000000 0.000000 0.000000 0.000000 0.000000 0.022212
#
#
# Mechanical properties :
#
#
# Convention : Reuss Voigt Hill
#
# Bulk Modulus (GPa) = 62.01381 62.07307 62.04344
# Shear Modulus (GPa) = 33.00809 36.40418 34.70614
#
# Velocity S-wave (km/s) = 3.88008 4.07479 3.97863
# Velocity P-wave (km/s) = 6.95398 7.10282 7.02879
#
# Compressibility (1/GPa) = 0.01612544
#
# Stress axis : x y z
#
# Youngs Moduli (GPa) = 97.48256 117.82420 105.09938
#
# Poissons Ratio (x) = 0.26640 0.29108
# Poissons Ratio (y) = 0.22041 0.10897
# Poissons Ratio (z) = 0.26998 0.12217
#
# Static dielectric constant tensor:
#      x y z
#    x 1.775510 0.000000 0.000000 
#    y 0.000000 1.767560 0.000000 
#    z 0.000000 0.000000 1.871550 
# 
# From -- ./inp_files/17570.got.cif
#   From: 2010.05.17/outbox.cif.g08.bks.cpg/sg72_9_cif.got.tgz:17570.got - 2010.06.03 17:03:01.
