data_PCOD9527565
_publ_section_title
;
Structure prediction by ZEFSAII (Michael W. Deem and Ramdas Pophale) SiO2 
 PCOD9527565
Probable space group: I B A M
;
_chemical_formula_sum "Si O2"
_cell_formula_units_Z 96
_cell_length_a 13.675601
_cell_length_b 24.612141
_cell_length_c 16.029189
_cell_angle_alpha 90.000000
_cell_angle_beta 90.000000
_cell_angle_gamma 90.000000
_cell_volume 5395.197725
_symmetry_space_group_name_H-M "I B A M"
_symmetry_group_IT_number 72
_symmetry_cell_setting 'orthorhombic'
loop_
_space_group_symop_operation_xyz
x,y,z
-x,-y,z
x,-y,1/2-z
-x,y,1/2-z
-x,-y,-z
x,y,-z
-x,y,1/2+z
x,-y,1/2+z
1/2+x,1/2+y,1/2+z
1/2-x,1/2-y,1/2+z
1/2+x,1/2-y,-z
1/2-x,1/2+y,-z
1/2-x,1/2-y,1/2-z
1/2+x,1/2+y,1/2-z
1/2-x,1/2+y,z
1/2+x,1/2-y,z
loop_
_atom_site_type_symbol
_atom_site_label
_atom_site_fract_x
_atom_site_fract_y
_atom_site_fract_z
Si Si1 0.366827 0.735652 0.096099
Si Si2 0.565305 0.722545 0.166053
Si Si3 0.320392 0.823073 0.400887
Si Si4 0.252465 0.160927 0.399528
Si Si5 0.895360 0.562799 0.351754
Si Si6 0.378680 0.940437 0.849462
O O1 0.477404 0.717991 0.101312
O O2 0.288665 0.692532 0.128952
O O3 0.335293 0.794927 0.129224
O O4 0.343108 0.740427 0.000000
O O5 0.500000 0.718018 0.250000
O O6 0.610618 0.782513 0.151664
O O7 0.653316 0.680525 0.147430
O O8 0.335641 0.811457 0.500000
O O9 0.339155 0.885912 0.386732
O O10 0.235207 0.163899 0.500000
O O11 0.298874 0.102535 0.379779
O O12 0.860324 0.502648 0.376993
O O13 0.884956 0.562714 0.251222
O O14 0.009246 0.570847 0.376485
#
# Coordination Sequence:
#
# PCOD9527565 Si02
#       6
#    16  16  16  16  16  16
#     4   9  19  35  51  73 109 144 172 217 276 323
#     4  11  23  33  53  84 109 144 183 227 272 331
#     4  10  21  34  53  78 109 144 180 225 274 333
#     4  10  21  36  56  80 113 148 184 228 277 333
#     4   9  19  34  54  80 113 141 180 227 275 332
#     4   9  19  34  54  81 110 146 177 226 283 324
#
# _framework density 17.793603000000001
#
# number of rings (size 3 to 8) (size 9 to 14) (size 15 to 20)
#    0.000    2.333    0.000    4.500    7.000    4.000 
#    0.000    1.667    0.000    1.000    0.000    3.500 
#    0.000    0.000    0.000    0.000    0.000    0.000 
#
# Total GULP energy -267204.430406 kJ/mol
# GULP energy per Si atom -5566.758967 kJ/mol
# Density = 1.775310 g / cm^3
# Si number density = 17.793603 Si / 1000 Ang^3
#
#
#
# Elastic Constant Matrix: (Units=GPa)
#
#
# Indices 1 2 3 4 5 6 
#
# 1 109.8973 75.0919 17.5359 0.0000 0.0000 0.0000
# 2 75.0919 136.7521 22.3827 0.0002 0.0000 0.0000
# 3 17.5359 22.3827 45.8519 0.0003 0.0000 0.0000
# 4 0.0000 0.0002 0.0003 23.6739 0.0000 0.0000
# 5 0.0000 0.0000 0.0000 0.0000 24.7090 0.0000
# 6 0.0000 0.0000 0.0000 0.0000 0.0000 23.3280
#
#
#
# Elastic Compliance Matrix: (Units=1/GPa)
#
#
# Indices 1 2 3 4 5 6 
#
# 1 0.014703 -0.007775 -0.001828 0.000000 0.000000 0.000000
# 2 -0.007775 0.012058 -0.002913 0.000000 0.000000 0.000000
# 3 -0.001828 -0.002913 0.023930 0.000000 0.000000 0.000000
# 4 0.000000 0.000000 0.000000 0.042241 0.000000 0.000000
# 5 0.000000 0.000000 0.000000 0.000000 0.040471 0.000000
# 6 0.000000 0.000000 0.000000 0.000000 0.000000 0.042867
#
#
# Mechanical properties :
#
#
# Convention : Reuss Voigt Hill
#
# Bulk Modulus (GPa) = 38.96964 58.05803 48.51383
# Shear Modulus (GPa) = 23.82590 26.17492 25.00041
#
# Velocity S-wave (km/s) = 3.66323 3.83956 3.75243
# Velocity P-wave (km/s) = 6.31195 7.23573 6.78957
#
# Compressibility (1/GPa) = 0.02566100
#
# Stress axis : x y z
#
# Youngs Moduli (GPa) = 68.01145 82.92996 41.78772
#
# Poissons Ratio (x) = 0.64474 0.07639
# Poissons Ratio (y) = 0.52876 0.12173
# Poissons Ratio (z) = 0.12433 0.24157
#
# Static dielectric constant tensor:
#      x y z
#    x 1.614650 0.000000 0.000000 
#    y 0.000000 1.610630 0.000000 
#    z 0.000000 0.000000 1.825060 
# 
# From -- ./inp_files/29471.got.cif
#   From: 2010.05.17/outbox.cif.g08.bks.cpg/sg72_15_cif.got.tgz:29471.got - 2010.06.03 17:03:01.
