data_PCOD9527194
_publ_section_title
;
Structure prediction by ZEFSAII (Michael W. Deem and Ramdas Pophale) SiO2 
 PCOD9527194
Probable space group: I B A M
;
_chemical_formula_sum "Si O2"
_cell_formula_units_Z 104
_cell_length_a 19.366676
_cell_length_b 13.569201
_cell_length_c 18.099442
_cell_angle_alpha 90.000000
_cell_angle_beta 90.000000
_cell_angle_gamma 90.000000
_cell_volume 4756.358143
_symmetry_space_group_name_H-M "I B A M"
_symmetry_group_IT_number 72
_symmetry_cell_setting 'orthorhombic'
loop_
_space_group_symop_operation_xyz
x,y,z
-x,-y,z
x,-y,1/2-z
-x,y,1/2-z
-x,-y,-z
x,y,-z
-x,y,1/2+z
x,-y,1/2+z
1/2+x,1/2+y,1/2+z
1/2-x,1/2-y,1/2+z
1/2+x,1/2-y,-z
1/2-x,1/2+y,-z
1/2-x,1/2-y,1/2-z
1/2+x,1/2+y,1/2-z
1/2-x,1/2+y,z
1/2+x,1/2-y,z
loop_
_atom_site_type_symbol
_atom_site_label
_atom_site_fract_x
_atom_site_fract_y
_atom_site_fract_z
Si Si1 0.571867 0.216953 0.141272
Si Si2 0.075934 0.290187 0.583906
Si Si3 0.871506 0.893368 0.672466
Si Si4 0.236496 0.024260 0.085113
Si Si5 0.294506 0.687157 0.808053
Si Si6 0.500000 0.635860 0.250000
Si Si7 0.606887 0.983540 0.586387
O O1 0.506252 0.234814 0.087251
O O2 0.651447 0.253166 0.139895
O O3 0.548073 0.284935 0.208535
O O4 0.576049 0.098772 0.140219
O O5 0.100698 0.280708 0.500000
O O6 0.117360 0.213747 0.634701
O O7 0.086618 0.404500 0.605468
O O8 0.832852 0.885386 0.750515
O O9 0.949916 0.921705 0.694018
O O10 0.826728 0.961617 0.618779
O O11 0.246897 0.120372 0.135197
O O12 0.310396 0.971174 0.088089
O O13 0.222005 0.048801 0.000000
O O14 0.250000 0.750000 0.750000
O O15 0.585143 0.966140 0.500000
#
# Coordination Sequence:
#
# PCOD9527194 Si02
#       7
#    16  16  16  16  16   8  16
#     4  10  20  37  59  86 120 162 210 258 319 384
#     4  10  20  37  61  90 126 166 212 268 329 389
#     4  10  20  40  63  87 121 163 208 258 320 383
#     4  11  24  41  64  94 125 163 214 265 317 384
#     4  11  23  41  63  88 123 164 208 263 322 387
#     4   8  20  38  58  86 120 162 208 262 324 382
#     4  10  21  36  57  87 123 162 204 257 320 383
#
# _framework density 21.865468
#
# number of rings (size 3 to 8) (size 9 to 14) (size 15 to 20)
#    0.000    1.846    0.000    3.692    0.000    2.462 
#    0.000   33.077    0.000    9.231    0.000    0.000 
#    0.000    0.000    0.000    0.000    0.000    0.000 
#
# Total GULP energy -289624.508252 kJ/mol
# GULP energy per Si atom -5569.702082 kJ/mol
# Density = 2.181570 g / cm^3
# Si number density = 21.865468 Si / 1000 Ang^3
#
#
#
# Elastic Constant Matrix: (Units=GPa)
#
#
# Indices 1 2 3 4 5 6 
#
# 1 95.2393 34.6196 33.1642 0.0000 0.0000 0.0000
# 2 34.6196 64.7978 33.2165 0.0000 0.0000 0.0000
# 3 33.1642 33.2165 86.0662 0.0000 0.0000 0.0000
# 4 0.0000 0.0000 0.0000 26.8317 0.0000 0.0000
# 5 0.0000 0.0000 0.0000 0.0000 12.0026 0.0000
# 6 0.0000 0.0000 0.0000 0.0000 0.0000 34.7370
#
#
#
# Elastic Compliance Matrix: (Units=1/GPa)
#
#
# Indices 1 2 3 4 5 6 
#
# 1 0.013643 -0.005727 -0.003047 0.000000 0.000000 0.000000
# 2 -0.005727 0.021643 -0.006146 0.000000 0.000000 0.000000
# 3 -0.003047 -0.006146 0.015165 0.000000 0.000000 0.000000
# 4 0.000000 0.000000 0.000000 0.037269 0.000000 0.000000
# 5 0.000000 0.000000 0.000000 0.000000 0.083316 0.000000
# 6 0.000000 0.000000 0.000000 0.000000 0.000000 0.028788
#
#
# Mechanical properties :
#
#
# Convention : Reuss Voigt Hill
#
# Bulk Modulus (GPa) = 48.51787 49.78931 49.15359
# Shear Modulus (GPa) = 21.13869 24.38780 22.76325
#
# Velocity S-wave (km/s) = 3.11265 3.34332 3.23005
# Velocity P-wave (km/s) = 5.92921 6.14198 6.03653
#
# Compressibility (1/GPa) = 0.02061096
#
# Stress axis : x y z
#
# Youngs Moduli (GPa) = 73.30005 46.20425 65.94149
#
# Poissons Ratio (x) = 0.26461 0.20090
# Poissons Ratio (y) = 0.41979 0.40528
# Poissons Ratio (z) = 0.22332 0.28398
#
# Static dielectric constant tensor:
#      x y z
#    x 1.951610 0.000000 0.000000 
#    y 0.000000 1.856460 0.000000 
#    z 0.000000 0.000000 1.764940 
# 
# From -- ./inp_files/32667.got.cif
#   From: 2010.05.17/outbox.cif.g08.bks.cpg/sg72_17_cif.got.tgz:32667.got - 2010.06.03 17:03:01.
