data_PCOD9527488
_publ_section_title
;
Structure prediction by ZEFSAII (Michael W. Deem and Ramdas Pophale) SiO2 
 PCOD9527488
Probable space group: I B A M
;
_chemical_formula_sum "Si O2"
_cell_formula_units_Z 112
_cell_length_a 32.120481
_cell_length_b 10.418836
_cell_length_c 15.386381
_cell_angle_alpha 90.000000
_cell_angle_beta 90.000000
_cell_angle_gamma 90.000000
_cell_volume 5149.175859
_symmetry_space_group_name_H-M "I B A M"
_symmetry_group_IT_number 72
_symmetry_cell_setting 'orthorhombic'
loop_
_space_group_symop_operation_xyz
x,y,z
-x,-y,z
x,-y,1/2-z
-x,y,1/2-z
-x,-y,-z
x,y,-z
-x,y,1/2+z
x,-y,1/2+z
1/2+x,1/2+y,1/2+z
1/2-x,1/2-y,1/2+z
1/2+x,1/2-y,-z
1/2-x,1/2+y,-z
1/2-x,1/2-y,1/2-z
1/2+x,1/2+y,1/2-z
1/2-x,1/2+y,z
1/2+x,1/2-y,z
loop_
_atom_site_type_symbol
_atom_site_label
_atom_site_fract_x
_atom_site_fract_y
_atom_site_fract_z
Si Si1 0.427650 0.226015 0.096234
Si Si2 0.288487 0.065898 0.843864
Si Si3 0.149913 0.778623 0.597478
Si Si4 0.088929 0.858192 0.728357
Si Si5 0.516172 0.353450 0.099800
Si Si6 0.745397 0.191551 0.901328
Si Si7 0.120044 0.497064 0.855014
O O1 0.405398 0.284939 0.181111
O O2 0.475704 0.264032 0.106038
O O3 0.416986 0.076673 0.103174
O O4 0.414594 0.273671 0.000000
O O5 0.272544 0.211513 0.843472
O O6 0.335370 0.060774 0.880225
O O7 0.291846 0.000000 0.750000
O O8 0.257539 0.962659 0.889490
O O9 0.144335 0.828716 0.500000
O O10 0.130975 0.865852 0.672243
O O11 0.197857 0.740057 0.609366
O O12 0.124503 0.646712 0.611362
O O13 0.051459 0.810016 0.666879
O O14 0.075175 0.000000 0.750000
O O15 0.500000 0.500000 0.115451
O O16 0.531947 0.351212 0.000000
O O17 0.758795 0.217813 0.000000
O O18 0.115940 0.500000 0.750000
#
# Coordination Sequence:
#
# PCOD9527488 Si02
#       7
#    16  16  16  16  16  16  16
#     4  11  23  38  62  93 121 155 209 260 305 376
#     4  10  21  38  65  90 125 163 212 260 312 374
#     4  10  22  40  63  87 124 169 210 255 312 375
#     4  12  23  38  63  90 124 166 205 253 314 375
#     4  10  21  39  62  90 123 158 202 254 314 375
#     4  10  21  39  61  91 124 165 210 257 315 374
#     4  10  20  41  65  90 118 166 209 256 318 374
#
# _framework density 21.751054
#
# number of rings (size 3 to 8) (size 9 to 14) (size 15 to 20)
#    0.000    1.571    2.857    2.143    0.000    2.857 
#    2.571    0.714    0.000    2.571    0.000    0.000 
#    0.000    0.000    0.000    0.000    0.000    0.000 
#
# Total GULP energy -312554.545050 kJ/mol
# GULP energy per Si atom -5581.331162 kJ/mol
# Density = 2.170155 g / cm^3
# Si number density = 21.751054 Si / 1000 Ang^3
#
#
#
# Elastic Constant Matrix: (Units=GPa)
#
#
# Indices 1 2 3 4 5 6 
#
# 1 27.4217 22.3617 -3.1435 0.0000 0.0000 0.0000
# 2 22.3617 50.1287 -7.7660 0.0000 0.0000 0.0000
# 3 -3.1435 -7.7660 98.3313 0.0000 0.0000 0.0000
# 4 0.0000 0.0000 0.0000 28.3401 0.0000 0.0000
# 5 0.0000 0.0000 0.0000 0.0000 2.6339 0.0000
# 6 0.0000 0.0000 0.0000 0.0000 0.0000 35.2422
#
#
#
# Elastic Compliance Matrix: (Units=1/GPa)
#
#
# Indices 1 2 3 4 5 6 
#
# 1 0.057322 -0.025600 -0.000189 0.000000 0.000000 0.000000
# 2 -0.025600 0.031629 0.001680 0.000000 0.000000 0.000000
# 3 -0.000189 0.001680 0.010296 0.000000 0.000000 0.000000
# 4 0.000000 0.000000 0.000000 0.035286 0.000000 0.000000
# 5 0.000000 0.000000 0.000000 0.000000 0.379666 0.000000
# 6 0.000000 0.000000 0.000000 0.000000 0.000000 0.028375
#
#
# Mechanical properties :
#
#
# Convention : Reuss Voigt Hill
#
# Bulk Modulus (GPa) = 19.59724 22.08733 20.84228
# Shear Modulus (GPa) = 8.22637 24.20521 16.21579
#
# Velocity S-wave (km/s) = 1.94686 3.33953 2.73338
# Velocity P-wave (km/s) = 3.75274 5.00466 4.42321
#
# Compressibility (1/GPa) = 0.05102760
#
# Stress axis : x y z
#
# Youngs Moduli (GPa) = 17.44538 31.61702 97.12228
#
# Poissons Ratio (x) = 0.80939 0.01839
# Poissons Ratio (y) = 0.44660 -0.16312
# Poissons Ratio (z) = 0.00330 -0.05310
#
# Static dielectric constant tensor:
#      x y z
#    x 1.772740 0.000000 0.000000 
#    y 0.000000 1.827780 0.000000 
#    z 0.000000 0.000000 1.916090 
# 
# From -- ./inp_files/26340.got.cif
#   From: 2010.05.17/outbox.cif.g08.bks.cpg/sg72_14_cif.got.tgz:26340.got - 2010.06.03 17:03:01.
