data_PCOD9527916
_publ_section_title
;
Structure prediction by ZEFSAII (Michael W. Deem and Ramdas Pophale) SiO2 
 PCOD9527916
Probable space group: I B A M
;
_chemical_formula_sum "Si O2"
_cell_formula_units_Z 64
_cell_length_a 26.857555
_cell_length_b 7.490999
_cell_length_c 17.262406
_cell_angle_alpha 90.000000
_cell_angle_beta 90.000000
_cell_angle_gamma 90.000000
_cell_volume 3473.022042
_symmetry_space_group_name_H-M "I B A M"
_symmetry_group_IT_number 72
_symmetry_cell_setting 'orthorhombic'
loop_
_space_group_symop_operation_xyz
x,y,z
-x,-y,z
x,-y,1/2-z
-x,y,1/2-z
-x,-y,-z
x,y,-z
-x,y,1/2+z
x,-y,1/2+z
1/2+x,1/2+y,1/2+z
1/2-x,1/2-y,1/2+z
1/2+x,1/2-y,-z
1/2-x,1/2+y,-z
1/2-x,1/2-y,1/2-z
1/2+x,1/2+y,1/2-z
1/2-x,1/2+y,z
1/2+x,1/2-y,z
loop_
_atom_site_type_symbol
_atom_site_label
_atom_site_fract_x
_atom_site_fract_y
_atom_site_fract_z
Si Si1 0.601420 0.390805 0.676529
Si Si2 0.131812 0.772859 0.410854
Si Si3 0.692434 0.791485 0.736960
Si Si4 0.443221 0.943518 0.591417
O O1 0.579618 0.500000 0.750000
O O2 0.607735 0.536360 0.609201
O O3 0.654941 0.317856 0.707350
O O4 0.571648 0.221259 0.645601
O O5 0.146733 0.762496 0.500000
O O6 0.176593 0.752940 0.350560
O O7 0.092824 0.612959 0.394613
O O8 0.750000 0.750000 0.750000
O O9 0.683529 0.000000 0.750000
O O10 0.437843 0.895322 0.500000
O O11 0.500000 0.000000 0.604518
#
# Coordination Sequence:
#
# PCOD9527916 Si02
#       4
#    16  16  16  16
#     4  10  21  38  61  87 123 163 200 256 306 360
#     4  10  21  39  62  90 121 157 205 252 302 365
#     4  11  21  40  62  86 120 160 200 251 311 361
#     4  10  21  39  63  89 125 168 207 255 310 361
#
# _framework density 18.427755999999999
#
# number of rings (size 3 to 8) (size 9 to 14) (size 15 to 20)
#    0.000    1.750    2.500    3.000    0.000    1.000 
#    0.000   23.750    0.000    0.000    0.000    0.000 
#    0.000    0.000    0.000    0.000    0.000    0.000 
#
# Total GULP energy -178646.383763 kJ/mol
# GULP energy per Si atom -5582.699493 kJ/mol
# Density = 1.838581 g / cm^3
# Si number density = 18.427756 Si / 1000 Ang^3
#
#
#
# Elastic Constant Matrix: (Units=GPa)
#
#
# Indices 1 2 3 4 5 6 
#
# 1 107.9270 48.2300 75.9288 0.0000 0.0000 0.0000
# 2 48.2300 147.6370 61.4353 0.0000 0.0000 0.0000
# 3 75.9288 61.4353 102.2384 0.0000 0.0000 0.0000
# 4 0.0000 0.0000 0.0000 34.9345 0.0000 0.0000
# 5 0.0000 0.0000 0.0000 0.0000 23.4867 0.0000
# 6 0.0000 0.0000 0.0000 0.0000 0.0000 23.2682
#
#
#
# Elastic Compliance Matrix: (Units=1/GPa)
#
#
# Indices 1 2 3 4 5 6 
#
# 1 0.019426 -0.000457 -0.014153 0.000000 0.000000 0.000000
# 2 -0.000457 0.009043 -0.005094 0.000000 0.000000 0.000000
# 3 -0.014153 -0.005094 0.023353 0.000000 0.000000 0.000000
# 4 0.000000 0.000000 0.000000 0.028625 0.000000 0.000000
# 5 0.000000 0.000000 0.000000 0.000000 0.042577 0.000000
# 6 0.000000 0.000000 0.000000 0.000000 0.000000 0.042977
#
#
# Mechanical properties :
#
#
# Convention : Reuss Voigt Hill
#
# Bulk Modulus (GPa) = 80.55460 80.99897 80.77679
# Shear Modulus (GPa) = 23.86093 27.81842 25.83968
#
# Velocity S-wave (km/s) = 3.60229 3.88956 3.74868
# Velocity P-wave (km/s) = 7.81733 8.01386 7.91620
#
# Compressibility (1/GPa) = 0.01241394
#
# Stress axis : x y z
#
# Youngs Moduli (GPa) = 51.47613 110.58879 42.82097
#
# Poissons Ratio (x) = 0.05053 0.60604
# Poissons Ratio (y) = 0.02352 0.21814
# Poissons Ratio (z) = 0.72853 0.56338
#
# Static dielectric constant tensor:
#      x y z
#    x 1.613590 0.000000 0.000000 
#    y 0.000000 1.643490 0.000000 
#    z 0.000000 0.000000 1.635180 
# 
# From -- ./inp_files/24735.got.cif
#   From: 2010.05.17/outbox.cif.g08.bks.cpg/sg72_13_cif.got.tgz:24735.got - 2010.06.03 17:03:01.
