data_PCOD9527985
_publ_section_title
;
Structure prediction by ZEFSAII (Michael W. Deem and Ramdas Pophale) SiO2 
 PCOD9527985
Probable space group: I B A M
;
_chemical_formula_sum "Si O2"
_cell_formula_units_Z 84
_cell_length_a 19.362897
_cell_length_b 8.199943
_cell_length_c 25.114918
_cell_angle_alpha 90.000000
_cell_angle_beta 90.000000
_cell_angle_gamma 90.000000
_cell_volume 3987.612358
_symmetry_space_group_name_H-M "I B A M"
_symmetry_group_IT_number 72
_symmetry_cell_setting 'orthorhombic'
loop_
_space_group_symop_operation_xyz
x,y,z
-x,-y,z
x,-y,1/2-z
-x,y,1/2-z
-x,-y,-z
x,y,-z
-x,y,1/2+z
x,-y,1/2+z
1/2+x,1/2+y,1/2+z
1/2-x,1/2-y,1/2+z
1/2+x,1/2-y,-z
1/2-x,1/2+y,-z
1/2-x,1/2-y,1/2-z
1/2+x,1/2+y,1/2-z
1/2-x,1/2+y,z
1/2+x,1/2-y,z
loop_
_atom_site_type_symbol
_atom_site_label
_atom_site_fract_x
_atom_site_fract_y
_atom_site_fract_z
Si Si1 0.320834 0.936770 0.691782
Si Si2 0.390093 0.586749 0.917280
Si Si3 0.075255 0.452568 0.103242
Si Si4 0.000000 0.000000 0.500000
Si Si5 0.785265 0.791136 0.000000
Si Si6 0.143014 0.565952 0.000000
Si Si7 0.337311 0.450367 0.808834
O O1 0.331934 0.744049 0.688182
O O2 0.341665 0.000000 0.750000
O O3 0.365914 0.024337 0.647106
O O4 0.239990 0.976970 0.685906
O O5 0.424419 0.765932 0.915408
O O6 0.317710 0.619214 0.948249
O O7 0.379688 0.518208 0.858562
O O8 0.439946 0.481929 0.953857
O O9 0.096037 0.561529 0.052278
O O10 0.000000 0.500000 0.123541
O O11 0.814698 0.607119 0.000000
O O12 0.702986 0.800404 0.000000
O O13 0.363251 0.500000 0.750000
#
# Coordination Sequence:
#
# PCOD9527985 Si02
#       7
#    16  16  16   4   8   8  16
#     4  11  23  41  67 100 131 172 214 274 334 388
#     4  10  22  42  63  92 130 169 217 265 330 384
#     4  11  24  41  62  89 131 177 219 266 320 398
#     4  10  24  42  68  86 136 170 218 266 316 388
#     4   9  20  37  59  87 122 159 205 272 316 385
#     4  10  21  39  59  92 120 164 214 268 330 374
#     4  11  22  41  70 100 131 165 217 277 335 391
#
# _framework density 21.065237
#
# number of rings (size 3 to 8) (size 9 to 14) (size 15 to 20)
#    0.000    1.524    0.000    6.571    2.667    4.952 
#    3.429    0.476    0.000    0.000    0.000    0.000 
#    0.000    0.000    0.000    0.000    0.000    0.000 
#
# Total GULP energy -234450.755021 kJ/mol
# GULP energy per Si atom -5582.160834 kJ/mol
# Density = 2.101729 g / cm^3
# Si number density = 21.065237 Si / 1000 Ang^3
#
#
#
# Elastic Constant Matrix: (Units=GPa)
#
#
# Indices 1 2 3 4 5 6 
#
# 1 50.6805 -2.4111 35.3372 0.0000 0.0000 0.0000
# 2 -2.4111 51.7585 -13.2723 0.0000 0.0000 0.0000
# 3 35.3372 -13.2723 141.7105 0.0000 0.0000 0.0000
# 4 0.0000 0.0000 0.0000 -21.7925 0.0000 0.0000
# 5 0.0000 0.0000 0.0000 0.0000 102.2085 0.0000
# 6 0.0000 0.0000 0.0000 0.0000 0.0000 9.9375
#
#
#
# Elastic Compliance Matrix: (Units=1/GPa)
#
#
# Indices 1 2 3 4 5 6 
#
# 1 0.023893 -0.000425 -0.005998 0.000000 0.000000 0.000000
# 2 -0.000425 0.019804 0.001961 0.000000 0.000000 0.000000
# 3 -0.005998 0.001961 0.008736 0.000000 0.000000 0.000000
# 4 0.000000 0.000000 0.000000 -0.045887 0.000000 0.000000
# 5 0.000000 0.000000 0.000000 0.000000 0.009784 0.000000
# 6 0.000000 0.000000 0.000000 0.000000 0.000000 0.100629
#
#
# Mechanical properties :
#
#
# Convention : Reuss Voigt Hill
#
# Bulk Modulus (GPa) = 22.98404 31.49523 27.23963
# Shear Modulus (GPa) = 35.61629 33.03708 34.32668
#
# Velocity S-wave (km/s) = 4.11635 3.96450 4.04114
# Velocity P-wave (km/s) = 5.79025 5.99501 5.89352
#
# Compressibility (1/GPa) = 0.04350845
#
# Stress axis : x y z
#
# Youngs Moduli (GPa) = 41.85275 50.49611 114.46983
#
# Poissons Ratio (x) = 0.02146 0.68658
# Poissons Ratio (y) = 0.01779 -0.22444
# Poissons Ratio (z) = 0.25103 -0.09901
#
# Static dielectric constant tensor:
#      x y z
#    x 1.723320 0.000000 0.000000 
#    y 0.000000 1.801400 0.000000 
#    z 0.000000 0.000000 1.739560 
# 
# From -- ./inp_files/42236.got.cif
#   From: 2010.05.17/outbox.cif.g08.bks.cpg/sg72_22_cif.got.tgz:42236.got - 2010.06.03 17:03:01.
