data_PCOD9527745
_publ_section_title
;
Structure prediction by ZEFSAII (Michael W. Deem and Ramdas Pophale) SiO2 
 PCOD9527745
Probable space group: I B A M
;
_chemical_formula_sum "Si O2"
_cell_formula_units_Z 88
_cell_length_a 17.866175
_cell_length_b 27.731334
_cell_length_c 9.104867
_cell_angle_alpha 90.000000
_cell_angle_beta 90.000000
_cell_angle_gamma 90.000000
_cell_volume 4511.032452
_symmetry_space_group_name_H-M "I B A M"
_symmetry_group_IT_number 72
_symmetry_cell_setting 'orthorhombic'
loop_
_space_group_symop_operation_xyz
x,y,z
-x,-y,z
x,-y,1/2-z
-x,y,1/2-z
-x,-y,-z
x,y,-z
-x,y,1/2+z
x,-y,1/2+z
1/2+x,1/2+y,1/2+z
1/2-x,1/2-y,1/2+z
1/2+x,1/2-y,-z
1/2-x,1/2+y,-z
1/2-x,1/2-y,1/2-z
1/2+x,1/2+y,1/2-z
1/2-x,1/2+y,z
1/2+x,1/2-y,z
loop_
_atom_site_type_symbol
_atom_site_label
_atom_site_fract_x
_atom_site_fract_y
_atom_site_fract_z
Si Si1 0.794606 0.000000 0.250000
Si Si2 0.707017 0.903438 0.828470
Si Si3 0.070438 0.936784 0.837877
Si Si4 0.169473 0.740313 0.824819
Si Si5 0.918122 0.651365 0.822686
Si Si6 0.839920 0.848164 0.324798
O O1 0.742825 0.042994 0.312159
O O2 0.856027 0.029641 0.155932
O O3 0.632826 0.893319 0.733721
O O4 0.766945 0.864616 0.765616
O O5 0.692733 0.894546 0.000000
O O6 0.098271 0.886093 0.775245
O O7 0.000000 0.953989 0.750000
O O8 0.042507 0.928787 0.000000
O O9 0.250000 0.750000 0.750000
O O10 0.123583 0.698957 0.741934
O O11 0.134061 0.793533 0.808826
O O12 0.176401 0.729829 0.000000
O O13 0.000000 0.648845 0.750000
O O14 0.921329 0.652959 0.000000
O O15 0.824015 0.855829 0.500000
#
# Coordination Sequence:
#
# PCOD9527745 Si02
#       6
#     8  16  16  16  16  16
#     4  10  23  40  63  90 118 156 204 256 311 376
#     4  11  22  39  65  93 120 156 206 257 309 375
#     4  10  21  37  56  84 123 163 202 249 302 357
#     4  11  21  37  63  95 128 168 213 257 305 365
#     4  12  26  44  65  92 128 166 205 259 315 372
#     4   9  20  37  58  86 125 167 206 251 302 360
#
# _framework density 19.507729000000001
#
# number of rings (size 3 to 8) (size 9 to 14) (size 15 to 20)
#    0.000    1.455    1.818    3.545    0.000    8.000 
#    0.000    2.273    0.000    2.182    0.000    0.000 
#    0.000    0.000    0.000    0.000    0.000    0.000 
#
# Total GULP energy -245254.226178 kJ/mol
# GULP energy per Si atom -5573.959686 kJ/mol
# Density = 1.946333 g / cm^3
# Si number density = 19.507729 Si / 1000 Ang^3
#
#
#
# Elastic Constant Matrix: (Units=GPa)
#
#
# Indices 1 2 3 4 5 6 
#
# 1 134.5233 51.5620 65.2405 0.0000 0.0000 0.0000
# 2 51.5620 116.4455 36.5402 0.0000 0.0000 0.0000
# 3 65.2405 36.5402 124.1026 0.0001 0.0001 0.0001
# 4 0.0000 0.0000 0.0001 14.1134 0.0000 0.0000
# 5 0.0000 0.0000 0.0001 0.0000 24.8284 0.0000
# 6 0.0000 0.0000 0.0001 0.0000 0.0000 37.1597
#
#
#
# Elastic Compliance Matrix: (Units=1/GPa)
#
#
# Indices 1 2 3 4 5 6 
#
# 1 0.011071 -0.003389 -0.004822 0.000000 0.000000 0.000000
# 2 -0.003389 0.010499 -0.001310 0.000000 0.000000 0.000000
# 3 -0.004822 -0.001310 0.010979 0.000000 0.000000 0.000000
# 4 0.000000 0.000000 0.000000 0.070855 0.000000 0.000000
# 5 0.000000 0.000000 0.000000 0.000000 0.040276 0.000000
# 6 0.000000 0.000000 0.000000 0.000000 0.000000 0.026911
#
#
# Mechanical properties :
#
#
# Convention : Reuss Voigt Hill
#
# Bulk Modulus (GPa) = 74.03597 75.75076 74.89336
# Shear Modulus (GPa) = 25.75512 30.00223 27.87868
#
# Velocity S-wave (km/s) = 3.63747 3.92595 3.78446
# Velocity P-wave (km/s) = 7.46164 7.71143 7.58756
#
# Compressibility (1/GPa) = 0.01350695
#
# Stress axis : x y z
#
# Youngs Moduli (GPa) = 90.32261 95.24335 91.08662
#
# Poissons Ratio (x) = 0.32280 0.43925
# Poissons Ratio (y) = 0.30612 0.11930
# Poissons Ratio (z) = 0.43557 0.12474
#
# Static dielectric constant tensor:
#      x y z
#    x 1.661260 0.000000 0.000000 
#    y 0.000000 1.743750 0.000000 
#    z 0.000000 0.000000 1.676540 
# 
# From -- ./inp_files/5146.got.cif
#   From: 2010.05.17/outbox.cif.g08.bks.cpg/sg72_3_cif.got.tgz:5146.got - 2010.06.03 17:03:01.
