data_PCOD9527656
_publ_section_title
;
Structure prediction by ZEFSAII (Michael W. Deem and Ramdas Pophale) SiO2 
 PCOD9527656
Probable space group: I B A M
;
_chemical_formula_sum "Si O2"
_cell_formula_units_Z 68
_cell_length_a 25.359549
_cell_length_b 9.930335
_cell_length_c 13.444837
_cell_angle_alpha 90.000000
_cell_angle_beta 90.000000
_cell_angle_gamma 90.000000
_cell_volume 3385.797397
_symmetry_space_group_name_H-M "I B A M"
_symmetry_group_IT_number 72
_symmetry_cell_setting 'orthorhombic'
loop_
_space_group_symop_operation_xyz
x,y,z
-x,-y,z
x,-y,1/2-z
-x,y,1/2-z
-x,-y,-z
x,y,-z
-x,y,1/2+z
x,-y,1/2+z
1/2+x,1/2+y,1/2+z
1/2-x,1/2-y,1/2+z
1/2+x,1/2-y,-z
1/2-x,1/2+y,-z
1/2-x,1/2-y,1/2-z
1/2+x,1/2+y,1/2-z
1/2-x,1/2+y,z
1/2+x,1/2-y,z
loop_
_atom_site_type_symbol
_atom_site_label
_atom_site_fract_x
_atom_site_fract_y
_atom_site_fract_z
Si Si1 0.000000 0.000000 0.750000
Si Si2 0.080531 0.169210 0.115918
Si Si3 0.156656 0.705406 0.247718
Si Si4 0.677170 0.540438 0.111285
Si Si5 0.704565 0.983846 0.614553
O O1 0.035028 0.092250 0.823627
O O2 0.102771 0.286104 0.188528
O O3 0.130271 0.066683 0.111516
O O4 0.067826 0.203543 0.000000
O O5 0.166155 0.845037 0.191751
O O6 0.165147 0.589647 0.165283
O O7 0.198935 0.658555 0.329908
O O8 0.734507 0.474756 0.126601
O O9 0.679179 0.602346 0.000000
O O10 0.692225 0.968679 0.500000
#
# Coordination Sequence:
#
# PCOD9527656 Si02
#       5
#     4  16  16  16  16
#     4  12  22  44  68  88 116 144 190 248 318 364
#     4  11  24  40  62  91 118 148 192 248 302 356
#     4  11  21  36  58  81 126 163 198 240 289 349
#     4  10  21  36  55  87 125 159 200 243 289 349
#     4  10  23  35  55  88 123 168 205 234 282 349
#
# _framework density 20.083894999999998
#
# number of rings (size 3 to 8) (size 9 to 14) (size 15 to 20)
#    0.000    1.412    2.353    2.471    9.882    0.000 
#    0.000    0.000    0.000    2.824    0.000    8.235 
#    0.000    0.000    0.000    0.000    0.000    0.000 
#
# Total GULP energy -189679.770508 kJ/mol
# GULP energy per Si atom -5578.816780 kJ/mol
# Density = 2.003818 g / cm^3
# Si number density = 20.083895 Si / 1000 Ang^3
#
#
#
# Elastic Constant Matrix: (Units=GPa)
#
#
# Indices 1 2 3 4 5 6 
#
# 1 74.9413 -0.3443 30.4350 0.0000 0.0000 0.0000
# 2 -0.3443 41.3890 27.1533 0.0000 0.0000 0.0000
# 3 30.4350 27.1533 193.0784 0.0000 0.0000 0.0000
# 4 0.0000 0.0000 0.0000 29.4496 0.0000 0.0000
# 5 0.0000 0.0000 0.0000 0.0000 21.8269 0.0000
# 6 0.0000 0.0000 0.0000 0.0000 0.0000 31.2651
#
#
#
# Elastic Compliance Matrix: (Units=1/GPa)
#
#
# Indices 1 2 3 4 5 6 
#
# 1 0.014373 0.001769 -0.002514 0.000000 0.000000 0.000000
# 2 0.001769 0.026835 -0.004053 0.000000 0.000000 0.000000
# 3 -0.002514 -0.004053 0.006146 0.000000 0.000000 0.000000
# 4 0.000000 0.000000 0.000000 0.033956 0.000000 0.000000
# 5 0.000000 0.000000 0.000000 0.000000 0.045815 0.000000
# 6 0.000000 0.000000 0.000000 0.000000 0.000000 0.031985
#
#
# Mechanical properties :
#
#
# Convention : Reuss Voigt Hill
#
# Bulk Modulus (GPa) = 26.48505 47.09964 36.79234
# Shear Modulus (GPa) = 27.58002 33.31929 30.44966
#
# Velocity S-wave (km/s) = 3.70975 4.07751 3.89797
# Velocity P-wave (km/s) = 5.61831 6.75799 6.21433
#
# Compressibility (1/GPa) = 0.03775715
#
# Stress axis : x y z
#
# Youngs Moduli (GPa) = 69.57455 37.26546 162.71957
#
# Poissons Ratio (x) = -0.06593 0.40915
# Poissons Ratio (y) = -0.12309 0.65945
# Poissons Ratio (z) = 0.17494 0.15103
#
# Static dielectric constant tensor:
#      x y z
#    x 1.706750 0.000000 0.000000 
#    y 0.000000 1.757580 0.000000 
#    z 0.000000 0.000000 1.778840 
# 
# From -- ./inp_files/19957.got.cif
#   From: 2010.05.17/outbox.cif.g08.bks.cpg/sg72_10_cif.got.tgz:19957.got - 2010.06.03 17:03:01.
