data_PCOD9527630
_publ_section_title
;
Structure prediction by ZEFSAII (Michael W. Deem and Ramdas Pophale) SiO2 
 PCOD9527630
Probable space group: I B A M
;
_chemical_formula_sum "Si O2"
_cell_formula_units_Z 88
_cell_length_a 10.003404
_cell_length_b 19.731340
_cell_length_c 22.628636
_cell_angle_alpha 90.000000
_cell_angle_beta 90.000000
_cell_angle_gamma 90.000000
_cell_volume 4466.452970
_symmetry_space_group_name_H-M "I B A M"
_symmetry_group_IT_number 72
_symmetry_cell_setting 'orthorhombic'
loop_
_space_group_symop_operation_xyz
x,y,z
-x,-y,z
x,-y,1/2-z
-x,y,1/2-z
-x,-y,-z
x,y,-z
-x,y,1/2+z
x,-y,1/2+z
1/2+x,1/2+y,1/2+z
1/2-x,1/2-y,1/2+z
1/2+x,1/2-y,-z
1/2-x,1/2+y,-z
1/2-x,1/2-y,1/2-z
1/2+x,1/2+y,1/2-z
1/2-x,1/2+y,z
1/2+x,1/2-y,z
loop_
_atom_site_type_symbol
_atom_site_label
_atom_site_fract_x
_atom_site_fract_y
_atom_site_fract_z
Si Si1 0.380847 0.294971 0.500000
Si Si2 0.817789 0.591388 0.500000
Si Si3 0.245817 0.388272 0.869618
Si Si4 0.965020 0.164655 0.372729
Si Si5 0.630780 0.218716 0.789533
Si Si6 0.646063 0.527800 0.605530
Si Si7 0.123395 0.632636 0.500000
O O1 0.235084 0.330546 0.500000
O O2 0.451177 0.324181 0.557598
O O3 0.384931 0.214390 0.500000
O O4 0.748987 0.553519 0.555486
O O5 0.977758 0.596369 0.500000
O O6 0.379382 0.343682 0.860971
O O7 0.150426 0.353127 0.822322
O O8 0.287007 0.465985 0.860015
O O9 0.196321 0.385016 0.937962
O O10 0.897119 0.226850 0.340810
O O11 0.892065 0.094226 0.357310
O O12 0.500000 0.215362 0.750000
O O13 0.750000 0.250000 0.750000
O O14 0.500000 0.500000 0.582386
#
# Coordination Sequence:
#
# PCOD9527630 Si02
#       7
#     8   8  16  16  16  16   8
#     4  10  21  35  62  97 128 167 205 261 327 388
#     4  10  22  36  57  95 144 171 205 263 326 410
#     4  11  23  40  66  96 130 166 218 269 321 398
#     4  10  21  41  67  94 129 166 218 271 320 396
#     4  12  25  43  68  96 129 174 222 277 332 376
#     4   9  20  40  65  91 125 174 216 258 330 398
#     4  12  24  33  62 100 134 171 207 265 341 389
#
# _framework density 19.702435999999999
#
# number of rings (size 3 to 8) (size 9 to 14) (size 15 to 20)
#    0.000    1.455    3.636    1.364    2.545    7.273 
#    0.000    0.909    0.000    1.091    0.000    0.000 
#    0.000    0.000    0.000    0.000    0.000    0.000 
#
# Total GULP energy -245478.182059 kJ/mol
# GULP energy per Si atom -5579.049592 kJ/mol
# Density = 1.965759 g / cm^3
# Si number density = 19.702436 Si / 1000 Ang^3
#
#
#
# Elastic Constant Matrix: (Units=GPa)
#
#
# Indices 1 2 3 4 5 6 
#
# 1 83.0504 31.6242 22.5788 0.0000 0.0000 0.0000
# 2 31.6242 113.5821 22.8346 0.0000 0.0000 0.0000
# 3 22.5788 22.8346 65.6647 0.0000 0.0000 0.0000
# 4 0.0000 0.0000 0.0000 0.5002 0.0000 0.0000
# 5 0.0000 0.0000 0.0000 0.0000 26.3564 0.0000
# 6 0.0000 0.0000 0.0000 0.0000 0.0000 25.4260
#
#
#
# Elastic Compliance Matrix: (Units=1/GPa)
#
#
# Indices 1 2 3 4 5 6 
#
# 1 0.014299 -0.003218 -0.003798 0.000000 0.000000 0.000000
# 2 -0.003218 0.010190 -0.002437 0.000000 0.000000 0.000000
# 3 -0.003798 -0.002437 0.017382 0.000000 0.000000 0.000000
# 4 0.000000 0.000000 0.000000 1.999164 0.000000 0.000000
# 5 0.000000 0.000000 0.000000 0.000000 0.037941 0.000000
# 6 0.000000 0.000000 0.000000 0.000000 0.000000 0.039330
#
#
# Mechanical properties :
#
#
# Convention : Reuss Voigt Hill
#
# Bulk Modulus (GPa) = 43.54268 46.26360 44.90314
# Shear Modulus (GPa) = 2.33115 22.80716 12.56915
#
# Velocity S-wave (km/s) = 1.08892 3.40601 2.52851
# Velocity P-wave (km/s) = 4.87125 6.24500 5.60041
#
# Compressibility (1/GPa) = 0.02296597
#
# Stress axis : x y z
#
# Youngs Moduli (GPa) = 69.93712 98.13509 57.53001
#
# Poissons Ratio (x) = 0.31576 0.21848
# Poissons Ratio (y) = 0.22503 0.14021
# Poissons Ratio (z) = 0.26560 0.23917
#
# Static dielectric constant tensor:
#      x y z
#    x 1.726820 0.000000 0.000000 
#    y 0.000000 1.723910 0.000000 
#    z 0.000000 0.000000 1.686210 
# 
# From -- ./inp_files/36917.got.cif
#   From: 2010.05.17/outbox.cif.g08.bks.cpg/sg72_19_cif.got.tgz:36917.got - 2010.06.03 17:03:01.
