data_PCOD9527876
_publ_section_title
;
Structure prediction by ZEFSAII (Michael W. Deem and Ramdas Pophale) SiO2 
 PCOD9527876
Probable space group: I B A M
;
_chemical_formula_sum "Si O2"
_cell_formula_units_Z 96
_cell_length_a 21.992143
_cell_length_b 13.850552
_cell_length_c 15.790567
_cell_angle_alpha 90.000000
_cell_angle_beta 90.000000
_cell_angle_gamma 90.000000
_cell_volume 4809.859136
_symmetry_space_group_name_H-M "I B A M"
_symmetry_group_IT_number 72
_symmetry_cell_setting 'orthorhombic'
loop_
_space_group_symop_operation_xyz
x,y,z
-x,-y,z
x,-y,1/2-z
-x,y,1/2-z
-x,-y,-z
x,y,-z
-x,y,1/2+z
x,-y,1/2+z
1/2+x,1/2+y,1/2+z
1/2-x,1/2-y,1/2+z
1/2+x,1/2-y,-z
1/2-x,1/2+y,-z
1/2-x,1/2-y,1/2-z
1/2+x,1/2+y,1/2-z
1/2-x,1/2+y,z
1/2+x,1/2-y,z
loop_
_atom_site_type_symbol
_atom_site_label
_atom_site_fract_x
_atom_site_fract_y
_atom_site_fract_z
Si Si1 0.360078 0.337732 0.908843
Si Si2 0.747234 0.604510 0.790695
Si Si3 0.998915 0.112159 0.399846
Si Si4 0.343494 0.843554 0.329671
Si Si5 0.557745 0.794740 0.306574
Si Si6 0.362791 0.944099 0.100740
O O1 0.315445 0.371735 0.835469
O O2 0.430930 0.355818 0.893575
O O3 0.349294 0.223349 0.910118
O O4 0.344346 0.382337 0.000000
O O5 0.740473 0.500000 0.750000
O O6 0.776460 0.660786 0.711061
O O7 0.800747 0.602728 0.861622
O O8 0.981365 0.113604 0.500000
O O9 0.958967 0.191296 0.348985
O O10 0.000000 0.000000 0.371133
O O11 0.387421 0.795528 0.260198
O O12 0.364115 0.952214 0.351360
O O13 0.500000 0.825095 0.250000
O O14 0.580724 0.875003 0.373755
O O15 0.359792 0.956341 0.000000
#
# Coordination Sequence:
#
# PCOD9527876 Si02
#       6
#    16  16  16  16  16  16
#     4  11  21  37  59  86 120 156 198 246 300 360
#     4   9  20  37  60  86 117 156 202 252 299 358
#     4  10  23  42  61  86 122 158 200 253 301 357
#     4  10  21  38  58  88 123 156 198 251 298 357
#     4  11  21  39  59  87 119 156 202 243 297 363
#     4  10  21  39  63  88 122 161 199 250 307 361
#
# _framework density 19.959004
#
# number of rings (size 3 to 8) (size 9 to 14) (size 15 to 20)
#    0.000    1.833    1.667    3.500    0.000    3.000 
#    0.000    2.500    0.000    8.000    0.000    0.000 
#    0.000    0.000    0.000    0.000    0.000    0.000 
#
# Total GULP energy -267430.090329 kJ/mol
# GULP energy per Si atom -5571.460215 kJ/mol
# Density = 1.991358 g / cm^3
# Si number density = 19.959004 Si / 1000 Ang^3
#
#
#
# Elastic Constant Matrix: (Units=GPa)
#
#
# Indices 1 2 3 4 5 6 
#
# 1 33.3301 12.9783 22.6208 0.0000 0.0000 0.0000
# 2 12.9783 85.6770 38.5496 0.0000 0.0000 0.0000
# 3 22.6208 38.5496 110.7380 0.0000 0.0000 0.0000
# 4 0.0000 0.0000 0.0000 62.2386 0.0000 0.0000
# 5 0.0000 0.0000 0.0000 0.0000 -17.0348 0.0000
# 6 0.0000 0.0000 0.0000 0.0000 0.0000 20.5960
#
#
#
# Elastic Compliance Matrix: (Units=1/GPa)
#
#
# Indices 1 2 3 4 5 6 
#
# 1 0.035275 -0.002492 -0.006338 0.000000 0.000000 0.000000
# 2 -0.002492 0.014015 -0.004370 0.000000 0.000000 0.000000
# 3 -0.006338 -0.004370 0.011846 0.000000 0.000000 0.000000
# 4 0.000000 0.000000 0.000000 0.016067 0.000000 0.000000
# 5 0.000000 0.000000 0.000000 0.000000 -0.058703 0.000000
# 6 0.000000 0.000000 0.000000 0.000000 0.000000 0.048553
#
#
# Mechanical properties :
#
#
# Convention : Reuss Voigt Hill
#
# Bulk Modulus (GPa) = 28.78791 42.00472 35.39631
# Shear Modulus (GPa) = 47.60435 23.53305 35.56870
#
# Velocity S-wave (km/s) = 4.88905 3.43748 4.22606
# Velocity P-wave (km/s) = 6.80627 6.07011 6.44870
#
# Compressibility (1/GPa) = 0.03473681
#
# Stress axis : x y z
#
# Youngs Moduli (GPa) = 28.34878 71.35000 84.41411
#
# Poissons Ratio (x) = 0.17777 0.53505
# Poissons Ratio (y) = 0.07063 0.36889
# Poissons Ratio (z) = 0.17969 0.31180
#
# Static dielectric constant tensor:
#      x y z
#    x 1.701450 0.000000 0.000000 
#    y 0.000000 1.768080 0.000000 
#    z 0.000000 0.000000 1.739550 
# 
# From -- ./inp_files/24101.got.cif
#   From: 2010.05.17/outbox.cif.g08.bks.cpg/sg72_13_cif.got.tgz:24101.got - 2010.06.03 17:03:01.
