data_PCOD9527107
_publ_section_title
;
Structure prediction by ZEFSAII (Michael W. Deem and Ramdas Pophale) SiO2 
 PCOD9527107
Probable space group: I B A M
;
_chemical_formula_sum "Si O2"
_cell_formula_units_Z 92
_cell_length_a 9.275860
_cell_length_b 18.874603
_cell_length_c 27.978268
_cell_angle_alpha 90.000000
_cell_angle_beta 90.000000
_cell_angle_gamma 90.000000
_cell_volume 4898.384101
_symmetry_space_group_name_H-M "I B A M"
_symmetry_group_IT_number 72
_symmetry_cell_setting 'orthorhombic'
loop_
_space_group_symop_operation_xyz
x,y,z
-x,-y,z
x,-y,1/2-z
-x,y,1/2-z
-x,-y,-z
x,y,-z
-x,y,1/2+z
x,-y,1/2+z
1/2+x,1/2+y,1/2+z
1/2-x,1/2-y,1/2+z
1/2+x,1/2-y,-z
1/2-x,1/2+y,-z
1/2-x,1/2-y,1/2-z
1/2+x,1/2+y,1/2-z
1/2-x,1/2+y,z
1/2+x,1/2-y,z
loop_
_atom_site_type_symbol
_atom_site_label
_atom_site_fract_x
_atom_site_fract_y
_atom_site_fract_z
Si Si1 0.451133 0.847746 0.500000
Si Si2 0.735284 0.235740 0.000000
Si Si3 0.789899 0.816708 0.603929
Si Si4 0.000000 0.726725 0.250000
Si Si5 0.905290 0.804526 0.844834
Si Si6 0.154912 0.615322 0.188192
Si Si7 0.000000 0.500000 0.250000
Si Si8 0.464589 0.083134 0.399572
O O1 0.565504 0.782305 0.500000
O O2 0.290626 0.816239 0.500000
O O3 0.484454 0.890726 0.451788
O O4 0.796856 0.201266 0.048041
O O5 0.695797 0.752949 0.627877
O O6 0.698872 0.889638 0.608029
O O7 0.947286 0.817890 0.626935
O O8 0.056600 0.772092 0.293612
O O9 0.121612 0.676671 0.226630
O O10 0.812767 0.874616 0.833275
O O11 0.103691 0.545791 0.215957
O O12 0.051363 0.622584 0.142381
O O13 0.500000 0.000000 0.395337
#
# Coordination Sequence:
#
# PCOD9527107 Si02
#       8
#     8   8  16   8  16  16   4  16
#     4  10  21  36  64  94 117 158 201 257 314 375
#     4  10  20  36  60  92 128 147 194 264 319 364
#     4  11  22  38  62  97 125 160 205 263 321 377
#     4  11  22  37  62  91 126 153 210 262 326 359
#     4  12  22  37  63  94 125 158 209 268 325 362
#     4  11  22  40  64  87 124 168 206 261 308 379
#     4  10  24  40  64  84 124 178 218 238 324 376
#     4  11  22  41  61  85 125 168 211 247 308 383
#
# _framework density 18.781703
#
# number of rings (size 3 to 8) (size 9 to 14) (size 15 to 20)
#    0.000    1.043    4.348    3.913    0.000    0.000 
#    0.000    0.870    0.000    0.000    0.000    8.522 
#    0.000    0.000    0.000    0.000    0.000    0.000 
#
# Total GULP energy -256732.353423 kJ/mol
# GULP energy per Si atom -5581.138118 kJ/mol
# Density = 1.873896 g / cm^3
# Si number density = 18.781703 Si / 1000 Ang^3
#
#
#
# Elastic Constant Matrix: (Units=GPa)
#
#
# Indices 1 2 3 4 5 6 
#
# 1 121.9650 54.8142 55.4981 0.0000 0.0000 0.0000
# 2 54.8142 75.0285 22.9925 0.0000 0.0000 0.0000
# 3 55.4981 22.9925 146.6113 0.0000 0.0000 0.0000
# 4 0.0000 0.0000 0.0000 16.2710 0.0000 0.0000
# 5 0.0000 0.0000 0.0000 0.0000 15.2187 0.0000
# 6 0.0000 0.0000 0.0000 0.0000 0.0000 16.0221
#
#
#
# Elastic Compliance Matrix: (Units=1/GPa)
#
#
# Indices 1 2 3 4 5 6 
#
# 1 0.014047 -0.009069 -0.003895 0.000000 0.000000 0.000000
# 2 -0.009069 0.019856 0.000319 0.000000 0.000000 0.000000
# 3 -0.003895 0.000319 0.008245 0.000000 0.000000 0.000000
# 4 0.000000 0.000000 0.000000 0.061459 0.000000 0.000000
# 5 0.000000 0.000000 0.000000 0.000000 0.065709 0.000000
# 6 0.000000 0.000000 0.000000 0.000000 0.000000 0.062414
#
#
# Mechanical properties :
#
#
# Convention : Reuss Voigt Hill
#
# Bulk Modulus (GPa) = 59.31802 67.80161 63.55981
# Shear Modulus (GPa) = 19.03748 23.52238 21.27993
#
# Velocity S-wave (km/s) = 3.18719 3.54278 3.36968
# Velocity P-wave (km/s) = 6.72277 7.27415 7.00389
#
# Compressibility (1/GPa) = 0.01685828
#
# Stress axis : x y z
#
# Youngs Moduli (GPa) = 71.18761 50.36227 121.28236
#
# Poissons Ratio (x) = 0.45674 0.47242
# Poissons Ratio (y) = 0.64560 -0.03869
# Poissons Ratio (z) = 0.27729 -0.01607
#
# Static dielectric constant tensor:
#      x y z
#    x 1.688690 0.000000 0.000000 
#    y 0.000000 1.672580 0.000000 
#    z 0.000000 0.000000 1.631840 
# 
# From -- ./inp_files/42341.got.cif
#   From: 2010.05.17/outbox.cif.g08.bks.cpg/sg72_22_cif.got.tgz:42341.got - 2010.06.03 17:03:01.
