data_PCOD9527923
_publ_section_title
;
Structure prediction by ZEFSAII (Michael W. Deem and Ramdas Pophale) SiO2 
 PCOD9527923
Probable space group: I B A M
;
_chemical_formula_sum "Si O2"
_cell_formula_units_Z 116
_cell_length_a 28.947485
_cell_length_b 23.455202
_cell_length_c 8.724011
_cell_angle_alpha 90.000000
_cell_angle_beta 90.000000
_cell_angle_gamma 90.000000
_cell_volume 5923.333967
_symmetry_space_group_name_H-M "I B A M"
_symmetry_group_IT_number 72
_symmetry_cell_setting 'orthorhombic'
loop_
_space_group_symop_operation_xyz
x,y,z
-x,-y,z
x,-y,1/2-z
-x,y,1/2-z
-x,-y,-z
x,y,-z
-x,y,1/2+z
x,-y,1/2+z
1/2+x,1/2+y,1/2+z
1/2-x,1/2-y,1/2+z
1/2+x,1/2-y,-z
1/2-x,1/2+y,-z
1/2-x,1/2-y,1/2-z
1/2+x,1/2+y,1/2-z
1/2-x,1/2+y,z
1/2+x,1/2-y,z
loop_
_atom_site_type_symbol
_atom_site_label
_atom_site_fract_x
_atom_site_fract_y
_atom_site_fract_z
Si Si1 0.361187 0.560188 0.816478
Si Si2 0.199191 0.246047 0.319758
Si Si3 0.258950 0.440581 0.819148
Si Si4 0.617895 0.317868 0.182083
Si Si5 0.323459 0.875772 0.320270
Si Si6 0.000000 0.500000 0.750000
Si Si7 0.450624 0.224981 0.182617
Si Si8 0.426777 0.094227 0.813547
O O1 0.377698 0.500000 0.750000
O O2 0.308617 0.568677 0.758329
O O3 0.389314 0.616539 0.769943
O O4 0.360335 0.556934 0.000000
O O5 0.201482 0.232201 0.500000
O O6 0.250000 0.250000 0.250000
O O7 0.169468 0.199803 0.230331
O O8 0.173621 0.307337 0.304992
O O9 0.241006 0.500000 0.750000
O O10 0.220125 0.395033 0.777994
O O11 0.265630 0.444936 0.000000
O O12 0.585302 0.271372 0.258344
O O13 0.613013 0.314275 0.000000
O O14 0.313937 0.887343 0.500000
O O15 0.371710 0.907027 0.281569
O O16 0.040425 0.450477 0.774507
O O17 0.500000 0.240149 0.250000
O O18 0.440181 0.159273 0.225876
O O19 0.450647 0.226217 0.000000
O O20 0.433544 0.085209 0.000000
#
# Coordination Sequence:
#
# PCOD9527923 Si02
#       8
#    16  16  16  16  16   4  16  16
#     4  10  21  38  61  89 123 160 200 245 294 355
#     4  11  22  36  57  85 121 163 203 253 309 371
#     4  11  22  36  55  82 114 157 206 249 300 359
#     4  11  23  39  61  92 123 159 204 251 305 372
#     4  10  21  39  55  76 115 158 200 251 308 364
#     4  12  22  40  64  94 116 152 208 268 322 376
#     4  11  22  42  66  92 123 160 202 253 312 372
#     4  10  22  40  60  84 116 154 198 253 316 370
#
# _framework density 19.583565
#
# number of rings (size 3 to 8) (size 9 to 14) (size 15 to 20)
#    0.000    1.379    2.069    4.759    0.966    6.621 
#    0.000    0.690    0.000    0.414    0.000    2.897 
#    0.000    0.000    0.000    0.000    0.000    0.000 
#
# Total GULP energy -323540.334485 kJ/mol
# GULP energy per Si atom -5578.281629 kJ/mol
# Density = 1.953899 g / cm^3
# Si number density = 19.583565 Si / 1000 Ang^3
#
#
#
# Elastic Constant Matrix: (Units=GPa)
#
#
# Indices 1 2 3 4 5 6 
#
# 1 63.6381 38.3388 9.1049 0.0000 0.0000 0.0000
# 2 38.3388 134.9172 37.3430 0.0000 0.0000 0.0000
# 3 9.1049 37.3430 41.4557 0.0000 0.0000 0.0000
# 4 0.0000 0.0000 0.0000 20.4825 0.0000 0.0000
# 5 0.0000 0.0000 0.0000 0.0000 14.3398 0.0000
# 6 0.0000 0.0000 0.0000 0.0000 0.0000 48.0655
#
#
#
# Elastic Compliance Matrix: (Units=1/GPa)
#
#
# Indices 1 2 3 4 5 6 
#
# 1 0.018986 -0.005650 0.000919 0.000000 0.000000 0.000000
# 2 -0.005650 0.011555 -0.009168 0.000000 0.000000 0.000000
# 3 0.000919 -0.009168 0.032178 0.000000 0.000000 0.000000
# 4 0.000000 0.000000 0.000000 0.048822 0.000000 0.000000
# 5 0.000000 0.000000 0.000000 0.000000 0.069736 0.000000
# 6 0.000000 0.000000 0.000000 0.000000 0.000000 0.020805
#
#
# Mechanical properties :
#
#
# Convention : Reuss Voigt Hill
#
# Bulk Modulus (GPa) = 28.63435 45.50937 37.07186
# Shear Modulus (GPa) = 20.70228 26.92586 23.81407
#
# Velocity S-wave (km/s) = 3.25487 3.71202 3.49094
# Velocity P-wave (km/s) = 5.36460 6.45454 5.93465
#
# Compressibility (1/GPa) = 0.03492309
#
# Stress axis : x y z
#
# Youngs Moduli (GPa) = 52.67062 86.54383 31.07671
#
# Poissons Ratio (x) = 0.48893 -0.02857
# Poissons Ratio (y) = 0.29757 0.28490
# Poissons Ratio (z) = -0.04842 0.79341
#
# Static dielectric constant tensor:
#      x y z
#    x 1.659750 0.000000 0.000000 
#    y 0.000000 1.730410 0.000000 
#    z 0.000000 0.000000 1.670770 
# 
# From -- ./inp_files/7333.got.cif
#   From: 2010.05.17/outbox.cif.g08.bks.cpg/sg72_4_cif.got.tgz:7333.got - 2010.06.03 17:03:01.
