data_PCOD9527183
_publ_section_title
;
Structure prediction by ZEFSAII (Michael W. Deem and Ramdas Pophale) SiO2 
 PCOD9527183
Probable space group: I B A M
;
_chemical_formula_sum "Si O2"
_cell_formula_units_Z 80
_cell_length_a 17.371981
_cell_length_b 9.243734
_cell_length_c 19.864902
_cell_angle_alpha 90.000000
_cell_angle_beta 90.000000
_cell_angle_gamma 90.000000
_cell_volume 3189.945125
_symmetry_space_group_name_H-M "I B A M"
_symmetry_group_IT_number 72
_symmetry_cell_setting 'orthorhombic'
loop_
_space_group_symop_operation_xyz
x,y,z
-x,-y,z
x,-y,1/2-z
-x,y,1/2-z
-x,-y,-z
x,y,-z
-x,y,1/2+z
x,-y,1/2+z
1/2+x,1/2+y,1/2+z
1/2-x,1/2-y,1/2+z
1/2+x,1/2-y,-z
1/2-x,1/2+y,-z
1/2-x,1/2-y,1/2-z
1/2+x,1/2+y,1/2-z
1/2-x,1/2+y,z
1/2+x,1/2-y,z
loop_
_atom_site_type_symbol
_atom_site_label
_atom_site_fract_x
_atom_site_fract_y
_atom_site_fract_z
Si Si1 0.062056 0.606825 0.633308
Si Si2 0.043440 0.168389 0.676572
Si Si3 0.171738 0.669530 0.743577
Si Si4 0.841994 0.056076 0.080057
Si Si5 0.310450 0.900887 0.576631
O O1 0.128921 0.684945 0.673864
O O2 0.111739 0.495091 0.589287
O O3 0.000000 0.500000 0.669865
O O4 0.006521 0.743214 0.621185
O O5 0.112404 0.271789 0.701930
O O6 0.087611 0.044069 0.634292
O O7 0.000000 0.144676 0.750000
O O8 0.182453 0.500000 0.750000
O O9 0.250000 0.750000 0.750000
O O10 0.819116 0.227552 0.081173
O O11 0.768279 0.965844 0.108404
O O12 0.861073 0.023273 0.000000
O O13 0.293190 0.933141 0.500000
#
# Coordination Sequence:
#
# PCOD9527183 Si02
#       5
#    16  16  16  16  16
#     4  11  19  33  56  84 113 150 203 255 310 369
#     4  10  21  34  56  86 117 157 206 259 316 375
#     4  11  21  34  56  83 112 152 202 253 310 375
#     4  10  20  37  58  88 123 162 206 259 318 379
#     4  10  21  35  58  88 121 158 205 259 315 380
#
# _framework density 25.078800999999999
#
# number of rings (size 3 to 8) (size 9 to 14) (size 15 to 20)
#    0.000    1.600    4.000    1.200    0.000    1.200 
#    0.000    0.000    0.000   11.400    0.000    7.000 
#    0.000    0.000    0.000    0.000    0.000    0.000 
#
# Total GULP energy -222677.893623 kJ/mol
# GULP energy per Si atom -5566.947341 kJ/mol
# Density = 2.502172 g / cm^3
# Si number density = 25.078801 Si / 1000 Ang^3
#
#
#
# Elastic Constant Matrix: (Units=GPa)
#
#
# Indices 1 2 3 4 5 6 
#
# 1 137.4248 39.6557 21.4798 0.0000 0.0000 0.0000
# 2 39.6557 92.4271 -6.7364 0.0000 0.0000 0.0000
# 3 21.4798 -6.7364 79.3320 0.0000 0.0000 0.0000
# 4 0.0000 0.0000 0.0000 11.0592 0.0000 0.0000
# 5 0.0000 0.0000 0.0000 0.0000 23.2705 0.0000
# 6 0.0000 0.0000 0.0000 0.0000 0.0000 35.5831
#
#
#
# Elastic Compliance Matrix: (Units=1/GPa)
#
#
# Indices 1 2 3 4 5 6 
#
# 1 0.008859 -0.004001 -0.002738 0.000000 0.000000 0.000000
# 2 -0.004001 0.012693 0.002161 0.000000 0.000000 0.000000
# 3 -0.002738 0.002161 0.013530 0.000000 0.000000 0.000000
# 4 0.000000 0.000000 0.000000 0.090422 0.000000 0.000000
# 5 0.000000 0.000000 0.000000 0.000000 0.042973 0.000000
# 6 0.000000 0.000000 0.000000 0.000000 0.000000 0.028103
#
#
# Mechanical properties :
#
#
# Convention : Reuss Voigt Hill
#
# Bulk Modulus (GPa) = 38.57026 46.44247 42.50636
# Shear Modulus (GPa) = 23.32315 30.96821 27.14568
#
# Velocity S-wave (km/s) = 3.05289 3.51784 3.29358
# Velocity P-wave (km/s) = 5.27635 5.92107 5.60798
#
# Compressibility (1/GPa) = 0.02592671
#
# Stress axis : x y z
#
# Youngs Moduli (GPa) = 112.87768 78.78182 73.90882
#
# Poissons Ratio (x) = 0.31517 0.20239
# Poissons Ratio (y) = 0.45158 -0.15972
# Poissons Ratio (z) = 0.30910 -0.17025
#
# Static dielectric constant tensor:
#      x y z
#    x 2.013660 0.000000 0.000000 
#    y 0.000000 2.013370 0.000000 
#    z 0.000000 0.000000 2.157260 
# 
# From -- ./inp_files/44045.got.cif
#   From: 2010.05.17/outbox.cif.g08.bks.cpg/sg72_23_cif.got.tgz:44045.got - 2010.06.03 17:03:01.
