data_PCOD9527214
_publ_section_title
;
Structure prediction by ZEFSAII (Michael W. Deem and Ramdas Pophale) SiO2 
 PCOD9527214
Probable space group: I B A M
;
_chemical_formula_sum "Si O2"
_cell_formula_units_Z 80
_cell_length_a 7.713060
_cell_length_b 20.644086
_cell_length_c 23.305678
_cell_angle_alpha 90.000000
_cell_angle_beta 90.000000
_cell_angle_gamma 90.000000
_cell_volume 3710.941526
_symmetry_space_group_name_H-M "I B A M"
_symmetry_group_IT_number 72
_symmetry_cell_setting 'orthorhombic'
loop_
_space_group_symop_operation_xyz
x,y,z
-x,-y,z
x,-y,1/2-z
-x,y,1/2-z
-x,-y,-z
x,y,-z
-x,y,1/2+z
x,-y,1/2+z
1/2+x,1/2+y,1/2+z
1/2-x,1/2-y,1/2+z
1/2+x,1/2-y,-z
1/2-x,1/2+y,-z
1/2-x,1/2-y,1/2-z
1/2+x,1/2+y,1/2-z
1/2-x,1/2+y,z
1/2+x,1/2-y,z
loop_
_atom_site_type_symbol
_atom_site_label
_atom_site_fract_x
_atom_site_fract_y
_atom_site_fract_z
Si Si1 0.201249 0.839028 0.767030
Si Si2 0.153908 0.053250 0.563572
Si Si3 0.401399 0.063320 0.670704
Si Si4 0.551134 0.313221 0.612935
Si Si5 0.155164 0.318287 0.649017
O O1 0.289575 0.908404 0.776594
O O2 0.315264 0.803641 0.718071
O O3 0.000000 0.841690 0.750000
O O4 0.186754 0.818209 0.833540
O O5 0.230015 0.043962 0.500000
O O6 0.280716 0.044821 0.616881
O O7 0.096920 0.129207 0.569569
O O8 0.000000 0.000000 0.569091
O O9 0.536364 0.118596 0.650271
O O10 0.500000 0.000000 0.687325
O O11 0.352722 0.327940 0.629495
O O12 0.568514 0.235559 0.607370
#
# Coordination Sequence:
#
# PCOD9527214 Si02
#       5
#    16  16  16  16  16
#     4   9  20  36  57  83 120 165 204 241 289 351
#     4  10  22  43  67  88 114 152 199 253 311 360
#     4  11  23  39  59  88 123 158 203 251 297 355
#     4  10  20  37  60  88 119 157 203 248 292 351
#     4  11  21  36  58  88 124 161 196 238 295 353
#
# _framework density 21.557872
#
# number of rings (size 3 to 8) (size 9 to 14) (size 15 to 20)
#    0.000    1.800    0.000    4.800    0.000    5.200 
#    0.000   12.000    0.000    0.000    0.000    0.000 
#    0.000    0.000    0.000    0.000    0.000    0.000 
#
# Total GULP energy -222791.490406 kJ/mol
# GULP energy per Si atom -5569.787260 kJ/mol
# Density = 2.150881 g / cm^3
# Si number density = 21.557872 Si / 1000 Ang^3
#
#
#
# Elastic Constant Matrix: (Units=GPa)
#
#
# Indices 1 2 3 4 5 6 
#
# 1 71.0562 15.2254 10.2310 0.0000 0.0000 0.0000
# 2 15.2254 107.6143 12.5643 0.0000 0.0000 0.0000
# 3 10.2310 12.5643 79.1542 0.0000 0.0000 0.0000
# 4 0.0000 0.0000 0.0000 13.1818 0.0000 0.0000
# 5 0.0000 0.0000 0.0000 0.0000 12.3722 0.0000
# 6 0.0000 0.0000 0.0000 0.0000 0.0000 41.6305
#
#
#
# Elastic Compliance Matrix: (Units=1/GPa)
#
#
# Indices 1 2 3 4 5 6 
#
# 1 0.014710 -0.001894 -0.001601 0.000000 0.000000 0.000000
# 2 -0.001894 0.009712 -0.001297 0.000000 0.000000 0.000000
# 3 -0.001601 -0.001297 0.013046 0.000000 0.000000 0.000000
# 4 0.000000 0.000000 0.000000 0.075862 0.000000 0.000000
# 5 0.000000 0.000000 0.000000 0.000000 0.080827 0.000000
# 6 0.000000 0.000000 0.000000 0.000000 0.000000 0.024021
#
#
# Mechanical properties :
#
#
# Convention : Reuss Voigt Hill
#
# Bulk Modulus (GPa) = 35.86207 37.09623 36.47915
# Shear Modulus (GPa) = 21.09208 28.09050 24.59129
#
# Velocity S-wave (km/s) = 3.13132 3.61366 3.38110
# Velocity P-wave (km/s) = 5.45389 5.88698 5.67457
#
# Compressibility (1/GPa) = 0.02788462
#
# Stress axis : x y z
#
# Youngs Moduli (GPa) = 67.98231 102.96700 76.65019
#
# Poissons Ratio (x) = 0.19505 0.12269
# Poissons Ratio (y) = 0.12878 0.09940
# Poissons Ratio (z) = 0.10881 0.13352
#
# Static dielectric constant tensor:
#      x y z
#    x 1.785460 0.000000 0.000000 
#    y 0.000000 1.917760 0.000000 
#    z 0.000000 0.000000 1.780570 
# 
# From -- ./inp_files/47164.got.cif
#   From: 2010.05.17/outbox.cif.g08.bks.cpg/sg72_24_cif.got.tgz:47164.got - 2010.06.03 17:03:01.
