data_PCOD9527253
_publ_section_title
;
Structure prediction by ZEFSAII (Michael W. Deem and Ramdas Pophale) SiO2 
 PCOD9527253
Probable space group: I B A M
;
_chemical_formula_sum "Si O2"
_cell_formula_units_Z 96
_cell_length_a 20.619774
_cell_length_b 13.998508
_cell_length_c 17.401377
_cell_angle_alpha 90.000000
_cell_angle_beta 90.000000
_cell_angle_gamma 90.000000
_cell_volume 5022.839106
_symmetry_space_group_name_H-M "I B A M"
_symmetry_group_IT_number 72
_symmetry_cell_setting 'orthorhombic'
loop_
_space_group_symop_operation_xyz
x,y,z
-x,-y,z
x,-y,1/2-z
-x,y,1/2-z
-x,-y,-z
x,y,-z
-x,y,1/2+z
x,-y,1/2+z
1/2+x,1/2+y,1/2+z
1/2-x,1/2-y,1/2+z
1/2+x,1/2-y,-z
1/2-x,1/2+y,-z
1/2-x,1/2-y,1/2-z
1/2+x,1/2+y,1/2-z
1/2-x,1/2+y,z
1/2+x,1/2-y,z
loop_
_atom_site_type_symbol
_atom_site_label
_atom_site_fract_x
_atom_site_fract_y
_atom_site_fract_z
Si Si1 0.319866 0.104673 0.911831
Si Si2 0.937613 0.059831 0.406801
Si Si3 0.888471 0.268076 0.593215
Si Si4 0.428508 0.028640 0.660095
Si Si5 0.698637 0.533553 0.909767
Si Si6 0.244524 0.226159 0.660959
O O1 0.311142 0.204474 0.870303
O O2 0.373890 0.035234 0.879238
O O3 0.251063 0.050681 0.905282
O O4 0.333905 0.122948 0.000000
O O5 0.940516 0.060466 0.500000
O O6 0.927768 0.171344 0.385634
O O7 0.871589 0.004599 0.386344
O O8 0.000000 0.000000 0.378870
O O9 0.891483 0.281644 0.500000
O O10 0.914510 0.361387 0.637965
O O11 0.813114 0.256431 0.617807
O O12 0.500000 0.000000 0.632234
O O13 0.425517 0.000000 0.750000
O O14 0.723811 0.618701 0.857232
O O15 0.696561 0.564323 0.000000
O O16 0.250000 0.250000 0.750000
#
# Coordination Sequence:
#
# PCOD9527253 Si02
#       6
#    16  16  16  16  16  16
#     4  11  22  38  63  92 120 159 218 268 310 376
#     4   9  19  37  64  96 127 159 202 259 314 372
#     4  11  21  40  67  93 126 170 216 261 324 384
#     4  11  25  43  63  91 132 169 209 265 328 393
#     4  10  20  37  62  91 121 158 211 263 309 373
#     4  12  24  37  61  92 129 169 212 264 327 383
#
# _framework density 19.112696
#
# number of rings (size 3 to 8) (size 9 to 14) (size 15 to 20)
#    0.000    1.333    3.333    3.000    0.000    2.667 
#    0.000    1.667    0.000    1.000    0.000    0.000 
#    0.000    0.000    0.000    0.000    0.000    0.167 
#
# Total GULP energy -268044.072722 kJ/mol
# GULP energy per Si atom -5584.251515 kJ/mol
# Density = 1.906919 g / cm^3
# Si number density = 19.112696 Si / 1000 Ang^3
#
#
#
# Elastic Constant Matrix: (Units=GPa)
#
#
# Indices 1 2 3 4 5 6 
#
# 1 108.7523 22.2869 18.3843 0.0000 0.0000 0.0000
# 2 22.2869 104.1953 34.2787 0.0000 0.0000 0.0000
# 3 18.3843 34.2787 67.4821 0.0000 0.0000 0.0000
# 4 0.0000 0.0000 0.0000 68.7411 0.0000 0.0000
# 5 0.0000 0.0000 0.0000 0.0000 12.4378 0.0000
# 6 0.0000 0.0000 0.0000 0.0000 0.0000 30.8628
#
#
#
# Elastic Compliance Matrix: (Units=1/GPa)
#
#
# Indices 1 2 3 4 5 6 
#
# 1 0.009822 -0.001465 -0.001931 0.000000 0.000000 0.000000
# 2 -0.001465 0.011742 -0.005565 0.000000 0.000000 0.000000
# 3 -0.001931 -0.005565 0.018172 0.000000 0.000000 0.000000
# 4 0.000000 0.000000 0.000000 0.014547 0.000000 0.000000
# 5 0.000000 0.000000 0.000000 0.000000 0.080400 0.000000
# 6 0.000000 0.000000 0.000000 0.000000 0.000000 0.032401
#
#
# Mechanical properties :
#
#
# Convention : Reuss Voigt Hill
#
# Bulk Modulus (GPa) = 45.84747 47.81438 46.83092
# Shear Modulus (GPa) = 26.00389 36.10701 31.05545
#
# Velocity S-wave (km/s) = 3.69257 4.35117 4.03533
# Velocity P-wave (km/s) = 6.49770 7.09330 6.80202
#
# Compressibility (1/GPa) = 0.02181146
#
# Stress axis : x y z
#
# Youngs Moduli (GPa) = 101.81192 85.16680 55.03018
#
# Poissons Ratio (x) = 0.12481 0.10629
# Poissons Ratio (y) = 0.14920 0.30625
# Poissons Ratio (z) = 0.19664 0.47397
#
# Static dielectric constant tensor:
#      x y z
#    x 1.673620 0.000000 0.000000 
#    y 0.000000 1.659930 0.000000 
#    z 0.000000 0.000000 1.597630 
# 
# From -- ./inp_files/24122.got.cif
#   From: 2010.05.17/outbox.cif.g08.bks.cpg/sg72_13_cif.got.tgz:24122.got - 2010.06.03 17:03:01.
