data_PCOD9527160
_publ_section_title
;
Structure prediction by ZEFSAII (Michael W. Deem and Ramdas Pophale) SiO2 
 PCOD9527160
Probable space group: I B A M
;
_chemical_formula_sum "Si O2"
_cell_formula_units_Z 116
_cell_length_a 23.465976
_cell_length_b 28.890448
_cell_length_c 9.164353
_cell_angle_alpha 90.000000
_cell_angle_beta 90.000000
_cell_angle_gamma 90.000000
_cell_volume 6212.904928
_symmetry_space_group_name_H-M "I B A M"
_symmetry_group_IT_number 72
_symmetry_cell_setting 'orthorhombic'
loop_
_space_group_symop_operation_xyz
x,y,z
-x,-y,z
x,-y,1/2-z
-x,y,1/2-z
-x,-y,-z
x,y,-z
-x,y,1/2+z
x,-y,1/2+z
1/2+x,1/2+y,1/2+z
1/2-x,1/2-y,1/2+z
1/2+x,1/2-y,-z
1/2-x,1/2+y,-z
1/2-x,1/2-y,1/2-z
1/2+x,1/2+y,1/2-z
1/2-x,1/2+y,z
1/2+x,1/2-y,z
loop_
_atom_site_type_symbol
_atom_site_label
_atom_site_fract_x
_atom_site_fract_y
_atom_site_fract_z
Si Si1 0.900629 0.074143 0.326520
Si Si2 0.754850 0.200891 0.171425
Si Si3 0.183085 0.385747 0.827498
Si Si4 0.441532 0.866729 0.175526
Si Si5 0.866593 0.827194 0.823917
Si Si6 0.500000 0.500000 0.250000
Si Si7 0.941991 0.740838 0.825133
Si Si8 0.772456 0.952016 0.824111
O O1 0.896791 0.075333 0.500000
O O2 0.904527 0.128161 0.279899
O O3 0.837894 0.058037 0.274391
O O4 0.952020 0.038769 0.296793
O O5 0.750000 0.250000 0.250000
O O6 0.699437 0.168527 0.185987
O O7 0.806386 0.172402 0.243702
O O8 0.765205 0.208021 0.000000
O O9 0.117151 0.392318 0.785403
O O10 0.227638 0.414437 0.732900
O O11 0.189991 0.397147 0.000000
O O12 0.500000 0.882812 0.250000
O O13 0.433059 0.812552 0.217339
O O14 0.447430 0.868594 0.000000
O O15 0.894386 0.778052 0.785667
O O16 0.858376 0.828514 0.000000
O O17 0.000000 0.756415 0.750000
O O18 0.947682 0.741962 0.000000
O O19 0.755663 0.000000 0.750000
O O20 0.771776 0.954221 0.000000
#
# Coordination Sequence:
#
# PCOD9527160 Si02
#       8
#    16  16  16  16  16   4  16  16
#     4  10  22  38  57  81 111 150 196 251 309 359
#     4  11  22  35  55  84 117 155 196 242 297 357
#     4  10  21  38  59  86 116 153 195 239 292 353
#     4   9  18  34  55  82 115 150 188 229 279 339
#     4  10  20  37  54  75 111 152 195 247 301 350
#     4  12  22  40  60  86 116 152 208 260 322 376
#     4   9  18  32  52  75 109 151 192 238 285 340
#     4  11  22  40  63  89 118 151 193 244 300 357
#
# _framework density 18.670815000000001
#
# number of rings (size 3 to 8) (size 9 to 14) (size 15 to 20)
#    0.000    1.931    2.069    1.862    0.966    3.862 
#    0.000    4.138    0.000    0.414    0.000    2.897 
#    0.000    0.000    0.000    0.000    0.000    0.000 
#
# Total GULP energy -323037.943726 kJ/mol
# GULP energy per Si atom -5569.619719 kJ/mol
# Density = 1.862832 g / cm^3
# Si number density = 18.670815 Si / 1000 Ang^3
#
#
#
# Elastic Constant Matrix: (Units=GPa)
#
#
# Indices 1 2 3 4 5 6 
#
# 1 110.9339 20.8566 32.2462 0.0000 0.0000 0.0000
# 2 20.8566 66.7344 21.8136 0.0000 0.0000 0.0000
# 3 32.2462 21.8136 28.7420 0.0000 0.0000 0.0000
# 4 0.0000 0.0000 0.0000 22.9811 0.0000 0.0000
# 5 0.0000 0.0000 0.0000 0.0000 21.3810 0.0000
# 6 0.0000 0.0000 0.0000 0.0000 0.0000 27.8768
#
#
#
# Elastic Compliance Matrix: (Units=1/GPa)
#
#
# Indices 1 2 3 4 5 6 
#
# 1 0.013424 0.000967 -0.015794 0.000000 0.000000 0.000000
# 2 0.000967 0.019998 -0.016263 0.000000 0.000000 0.000000
# 3 -0.015794 -0.016263 0.064855 0.000000 0.000000 0.000000
# 4 0.000000 0.000000 0.000000 0.043514 0.000000 0.000000
# 5 0.000000 0.000000 0.000000 0.000000 0.046770 0.000000
# 6 0.000000 0.000000 0.000000 0.000000 0.000000 0.035872
#
#
# Mechanical properties :
#
#
# Convention : Reuss Voigt Hill
#
# Bulk Modulus (GPa) = 27.70317 39.58256 33.64286
# Shear Modulus (GPa) = 16.74225 23.21406 19.97815
#
# Velocity S-wave (km/s) = 2.99775 3.52992 3.27467
# Velocity P-wave (km/s) = 5.18189 6.15305 5.68823
#
# Compressibility (1/GPa) = 0.03609695
#
# Stress axis : x y z
#
# Youngs Moduli (GPa) = 74.49579 50.00414 15.41902
#
# Poissons Ratio (x) = -0.04838 0.24353
# Poissons Ratio (y) = -0.07207 0.25076
# Poissons Ratio (z) = 1.17661 0.81322
#
# Static dielectric constant tensor:
#      x y z
#    x 1.669170 0.000000 0.000000 
#    y 0.000000 1.674640 0.000000 
#    z 0.000000 0.000000 1.622360 
# 
# From -- ./inp_files/7566.got.cif
#   From: 2010.05.17/outbox.cif.g08.bks.cpg/sg72_4_cif.got.tgz:7566.got - 2010.06.03 17:03:01.
