data_PCOD9527616
_publ_section_title
;
Structure prediction by ZEFSAII (Michael W. Deem and Ramdas Pophale) SiO2 
 PCOD9527616
Probable space group: I B A M
;
_chemical_formula_sum "Si O2"
_cell_formula_units_Z 104
_cell_length_a 19.375639
_cell_length_b 27.102697
_cell_length_c 9.755560
_cell_angle_alpha 90.000000
_cell_angle_beta 90.000000
_cell_angle_gamma 90.000000
_cell_volume 5122.957446
_symmetry_space_group_name_H-M "I B A M"
_symmetry_group_IT_number 72
_symmetry_cell_setting 'orthorhombic'
loop_
_space_group_symop_operation_xyz
x,y,z
-x,-y,z
x,-y,1/2-z
-x,y,1/2-z
-x,-y,-z
x,y,-z
-x,y,1/2+z
x,-y,1/2+z
1/2+x,1/2+y,1/2+z
1/2-x,1/2-y,1/2+z
1/2+x,1/2-y,-z
1/2-x,1/2+y,-z
1/2-x,1/2-y,1/2-z
1/2+x,1/2+y,1/2-z
1/2-x,1/2+y,z
1/2+x,1/2-y,z
loop_
_atom_site_type_symbol
_atom_site_label
_atom_site_fract_x
_atom_site_fract_y
_atom_site_fract_z
Si Si1 0.219546 0.206098 0.342289
Si Si2 0.281288 0.045785 0.841349
Si Si3 0.905272 0.696206 0.500000
Si Si4 0.846352 0.354373 0.259209
Si Si5 0.883577 0.952827 0.161165
Si Si6 0.982172 0.227285 0.500000
Si Si7 0.555082 0.836359 0.500000
Si Si8 0.396704 0.657152 0.156912
O O1 0.206328 0.220587 0.500000
O O2 0.250000 0.250000 0.250000
O O3 0.280396 0.165764 0.340266
O O4 0.154641 0.182180 0.263867
O O5 0.324236 0.094122 0.805647
O O6 0.199184 0.054060 0.816970
O O7 0.303351 0.000000 0.750000
O O8 0.289104 0.033502 0.000000
O O9 0.864725 0.683479 0.362838
O O10 0.942331 0.749460 0.500000
O O11 0.972622 0.659912 0.500000
O O12 0.909602 0.357071 0.364393
O O13 0.914392 0.899017 0.195368
O O14 0.905890 0.000000 0.250000
O O15 0.895444 0.962831 0.000000
O O16 0.934192 0.276441 0.500000
O O17 0.960701 0.192995 0.626026
O O18 0.363924 0.653943 0.000000
#
# Coordination Sequence:
#
# PCOD9527616 Si02
#       8
#    16  16   8  16  16   8   8  16
#     4  12  25  36  55  89 122 163 202 248 317 394
#     4  10  21  35  56  86 119 160 210 258 320 379
#     4  10  24  39  66  82 110 157 221 265 312 382
#     4  12  22  40  61  87 119 159 211 259 319 376
#     4   9  17  30  50  82 119 166 203 238 297 375
#     4   8  20  39  61  83 114 162 214 257 323 353
#     4  10  22  40  55  85 111 155 194 272 310 369
#     4   9  18  36  58  79 128 161 199 253 312 375
#
# _framework density 20.300773
#
# number of rings (size 3 to 8) (size 9 to 14) (size 15 to 20)
#    0.923    0.923    3.077    1.846    3.231    0.615 
#    0.000    0.000    0.000    2.769    0.000    0.000 
#    0.000    0.000    0.000   24.923    0.308    0.000 
#
# Total GULP energy -290243.890754 kJ/mol
# GULP energy per Si atom -5581.613284 kJ/mol
# Density = 2.025457 g / cm^3
# Si number density = 20.300773 Si / 1000 Ang^3
#
#
#
# Elastic Constant Matrix: (Units=GPa)
#
#
# Indices 1 2 3 4 5 6 
#
# 1 62.2670 33.1395 39.9655 0.0000 0.0000 0.0000
# 2 33.1395 129.2803 48.8976 0.0000 0.0000 0.0000
# 3 39.9655 48.8976 125.6944 0.0000 0.0000 0.0000
# 4 0.0000 0.0000 0.0000 37.5492 0.0000 0.0000
# 5 0.0000 0.0000 0.0000 0.0000 17.2895 0.0000
# 6 0.0000 0.0000 0.0000 0.0000 0.0000 11.9515
#
#
#
# Elastic Compliance Matrix: (Units=1/GPa)
#
#
# Indices 1 2 3 4 5 6 
#
# 1 0.021389 -0.003413 -0.005473 0.000000 0.000000 0.000000
# 2 -0.003413 0.009614 -0.002655 0.000000 0.000000 0.000000
# 3 -0.005473 -0.002655 0.010729 0.000000 0.000000 0.000000
# 4 0.000000 0.000000 0.000000 0.026632 0.000000 0.000000
# 5 0.000000 0.000000 0.000000 0.000000 0.057839 0.000000
# 6 0.000000 0.000000 0.000000 0.000000 0.000000 0.083672
#
#
# Mechanical properties :
#
#
# Convention : Reuss Voigt Hill
#
# Bulk Modulus (GPa) = 53.61843 62.36077 57.98960
# Shear Modulus (GPa) = 20.90536 26.37396 23.63966
#
# Velocity S-wave (km/s) = 3.21250 3.60830 3.41614
# Velocity P-wave (km/s) = 6.34268 6.93865 6.64735
#
# Compressibility (1/GPa) = 0.01865030
#
# Stress axis : x y z
#
# Youngs Moduli (GPa) = 46.75272 104.01347 93.20620
#
# Poissons Ratio (x) = 0.35497 0.51014
# Poissons Ratio (y) = 0.15955 0.24746
# Poissons Ratio (z) = 0.25589 0.27615
#
# Static dielectric constant tensor:
#      x y z
#    x 1.725130 0.000000 0.000000 
#    y 0.000000 1.719130 0.000000 
#    z 0.000000 0.000000 1.717140 
# 
# From -- ./inp_files/7230.got.cif
#   From: 2010.05.17/outbox.cif.g08.bks.cpg/sg72_4_cif.got.tgz:7230.got - 2010.06.03 17:03:01.
