data_PCOD9527321
_publ_section_title
;
Structure prediction by ZEFSAII (Michael W. Deem and Ramdas Pophale) SiO2 
 PCOD9527321
Probable space group: I B A M
;
_chemical_formula_sum "Si O2"
_cell_formula_units_Z 112
_cell_length_a 11.243885
_cell_length_b 30.886818
_cell_length_c 16.772141
_cell_angle_alpha 90.000000
_cell_angle_beta 90.000000
_cell_angle_gamma 90.000000
_cell_volume 5824.760446
_symmetry_space_group_name_H-M "I B A M"
_symmetry_group_IT_number 72
_symmetry_cell_setting 'orthorhombic'
loop_
_space_group_symop_operation_xyz
x,y,z
-x,-y,z
x,-y,1/2-z
-x,y,1/2-z
-x,-y,-z
x,y,-z
-x,y,1/2+z
x,-y,1/2+z
1/2+x,1/2+y,1/2+z
1/2-x,1/2-y,1/2+z
1/2+x,1/2-y,-z
1/2-x,1/2+y,-z
1/2-x,1/2-y,1/2-z
1/2+x,1/2+y,1/2-z
1/2-x,1/2+y,z
1/2+x,1/2-y,z
loop_
_atom_site_type_symbol
_atom_site_label
_atom_site_fract_x
_atom_site_fract_y
_atom_site_fract_z
Si Si1 0.958477 0.069124 0.340511
Si Si2 0.158125 0.011695 0.591082
Si Si3 0.279640 0.361278 0.403445
Si Si4 0.927074 0.459268 0.406777
Si Si5 0.525356 0.127401 0.658100
Si Si6 0.752076 0.263764 0.841725
Si Si7 0.988281 0.721788 0.907403
O O1 0.892737 0.110376 0.377581
O O2 0.000000 0.076261 0.250000
O O3 0.071105 0.051523 0.389965
O O4 0.870884 0.027671 0.349502
O O5 0.139122 0.996021 0.500000
O O6 0.290892 0.027687 0.597524
O O7 0.271057 0.358484 0.500000
O O8 0.161402 0.382991 0.366001
O O9 0.278154 0.313584 0.364303
O O10 0.961926 0.453486 0.500000
O O11 0.000000 0.500000 0.374028
O O12 0.950584 0.414606 0.363330
O O13 0.500000 0.138255 0.750000
O O14 0.494066 0.170438 0.609067
O O15 0.750000 0.250000 0.750000
O O16 0.890615 0.258328 0.868726
O O17 0.641194 0.237960 0.879812
O O18 0.999329 0.730879 0.000000
#
# Coordination Sequence:
#
# PCOD9527321 Si02
#       7
#    16  16  16  16  16  16  16
#     4  11  23  38  61  88 126 166 214 267 320 369
#     4  10  20  38  61  85 123 170 216 263 322 390
#     4  11  23  43  67  92 125 173 219 255 319 407
#     4  10  21  38  60  87 120 160 208 258 313 379
#     4  11  23  39  62  92 127 160 205 262 321 376
#     4  11  23  42  67  95 131 167 216 270 332 387
#     4  11  22  42  67  94 128 172 215 261 321 395
#
# _framework density 19.228258
#
# number of rings (size 3 to 8) (size 9 to 14) (size 15 to 20)
#    0.000    1.286    0.000    9.000    2.000    2.571 
#    5.143    0.000    0.000    0.000    0.000    0.000 
#    0.000    0.000    0.000    0.000    0.000    0.000 
#
# Total GULP energy -312581.039115 kJ/mol
# GULP energy per Si atom -5581.804270 kJ/mol
# Density = 1.918449 g / cm^3
# Si number density = 19.228258 Si / 1000 Ang^3
#
#
#
# Elastic Constant Matrix: (Units=GPa)
#
#
# Indices 1 2 3 4 5 6 
#
# 1 87.0450 41.9884 30.0850 0.0000 0.0000 0.0000
# 2 41.9884 53.6950 23.4562 0.0000 0.0000 0.0000
# 3 30.0850 23.4562 128.0249 0.0001 -0.0001 0.0000
# 4 0.0000 0.0000 0.0001 28.6849 0.0000 0.0000
# 5 0.0000 0.0000 -0.0001 0.0000 25.7962 0.0000
# 6 0.0000 0.0000 0.0000 0.0000 0.0000 29.9421
#
#
#
# Elastic Compliance Matrix: (Units=1/GPa)
#
#
# Indices 1 2 3 4 5 6 
#
# 1 0.018854 -0.013922 -0.001880 0.000000 0.000000 0.000000
# 2 -0.013922 0.030524 -0.002321 0.000000 0.000000 0.000000
# 3 -0.001880 -0.002321 0.008678 0.000000 0.000000 0.000000
# 4 0.000000 0.000000 0.000000 0.034862 0.000000 0.000000
# 5 0.000000 0.000000 0.000000 0.000000 0.038765 0.000000
# 6 0.000000 0.000000 0.000000 0.000000 0.000000 0.033398
#
#
# Mechanical properties :
#
#
# Convention : Reuss Voigt Hill
#
# Bulk Modulus (GPa) = 45.84952 51.09156 48.47054
# Shear Modulus (GPa) = 23.96972 28.43364 26.20168
#
# Velocity S-wave (km/s) = 3.53454 3.84961 3.69543
# Velocity P-wave (km/s) = 6.36819 6.81088 6.59325
#
# Compressibility (1/GPa) = 0.02181048
#
# Stress axis : x y z
#
# Youngs Moduli (GPa) = 53.04004 32.76069 115.23469
#
# Poissons Ratio (x) = 0.45610 0.21661
# Poissons Ratio (y) = 0.73843 0.26745
# Poissons Ratio (z) = 0.09970 0.07604
#
# Static dielectric constant tensor:
#      x y z
#    x 1.720120 0.000000 0.000000 
#    y 0.000000 1.651120 0.000000 
#    z 0.000000 0.000000 1.684230 
# 
# From -- ./inp_files/20698.got.cif
#   From: 2010.05.17/outbox.cif.g08.bks.cpg/sg72_11_cif.got.tgz:20698.got - 2010.06.03 17:03:01.
