data_PCOD9527504
_publ_section_title
;
Structure prediction by ZEFSAII (Michael W. Deem and Ramdas Pophale) SiO2 
 PCOD9527504
Probable space group: I B A M
;
_chemical_formula_sum "Si O2"
_cell_formula_units_Z 48
_cell_length_a 26.267230
_cell_length_b 7.063216
_cell_length_c 10.667228
_cell_angle_alpha 90.000000
_cell_angle_beta 90.000000
_cell_angle_gamma 90.000000
_cell_volume 1979.102750
_symmetry_space_group_name_H-M "I B A M"
_symmetry_group_IT_number 72
_symmetry_cell_setting 'orthorhombic'
loop_
_space_group_symop_operation_xyz
x,y,z
-x,-y,z
x,-y,1/2-z
-x,y,1/2-z
-x,-y,-z
x,y,-z
-x,y,1/2+z
x,-y,1/2+z
1/2+x,1/2+y,1/2+z
1/2-x,1/2-y,1/2+z
1/2+x,1/2-y,-z
1/2-x,1/2+y,-z
1/2-x,1/2-y,1/2-z
1/2+x,1/2+y,1/2-z
1/2-x,1/2+y,z
1/2+x,1/2-y,z
loop_
_atom_site_type_symbol
_atom_site_label
_atom_site_fract_x
_atom_site_fract_y
_atom_site_fract_z
Si Si1 0.294467 0.835054 0.500000
Si Si2 0.472044 0.295556 0.864683
Si Si3 0.823504 0.773367 0.000000
Si Si4 0.361232 0.771985 0.269849
O O1 0.233921 0.849569 0.500000
O O2 0.316144 0.744117 0.371781
O O3 0.316639 0.046325 0.500000
O O4 0.500000 0.500000 0.873648
O O5 0.500000 0.198383 0.750000
O O6 0.413018 0.304500 0.829727
O O7 0.477063 0.203952 0.000000
O O8 0.850529 0.814984 0.867515
O O9 0.366927 0.000000 0.250000
#
# Coordination Sequence:
#
# PCOD9527504 Si02
#       4
#     8  16   8  16
#     4  10  20  42  60  93 129 165 217 268 316 385
#     4  10  22  42  63  90 128 161 213 265 316 384
#     4  10  22  38  64  93 127 167 215 266 320 383
#     4  10  21  40  64  89 129 172 214 262 324 382
#
# _framework density 24.253416000000001
#
# number of rings (size 3 to 8) (size 9 to 14) (size 15 to 20)
#    0.000    2.000    1.667    1.000    2.333    0.667 
#   12.000    1.667    0.000    0.000    0.000    0.000 
#    0.000    0.000    0.000    0.000    0.000    0.000 
#
# Total GULP energy -134216.693691 kJ/mol
# GULP energy per Si atom -5592.362237 kJ/mol
# Density = 2.419821 g / cm^3
# Si number density = 24.253416 Si / 1000 Ang^3
#
#
#
# Elastic Constant Matrix: (Units=GPa)
#
#
# Indices 1 2 3 4 5 6 
#
# 1 134.6820 23.0112 86.4036 0.0000 0.0000 0.0000
# 2 23.0112 98.8777 21.1787 0.0000 0.0000 0.0000
# 3 86.4036 21.1787 279.7676 0.0000 0.0000 0.0000
# 4 0.0000 0.0000 0.0000 -48.6591 0.0000 0.0000
# 5 0.0000 0.0000 0.0000 0.0000 65.4189 0.0000
# 6 0.0000 0.0000 0.0000 0.0000 0.0000 -43.7147
#
#
#
# Elastic Compliance Matrix: (Units=1/GPa)
#
#
# Indices 1 2 3 4 5 6 
#
# 1 0.009505 -0.001609 -0.002814 0.000000 0.000000 0.000000
# 2 -0.001609 0.010553 -0.000302 0.000000 0.000000 0.000000
# 3 -0.002814 -0.000302 0.004466 0.000000 0.000000 0.000000
# 4 0.000000 0.000000 0.000000 -0.020551 0.000000 0.000000
# 5 0.000000 0.000000 0.000000 0.000000 0.015286 0.000000
# 6 0.000000 0.000000 0.000000 0.000000 0.000000 -0.022876
#
#
# Mechanical properties :
#
#
# Convention : Reuss Voigt Hill
#
# Bulk Modulus (GPa) = 66.33878 86.05714 76.19796
# Shear Modulus (GPa) = 460.50391 20.12460 240.31425
#
# Velocity S-wave (km/s) = 13.79435 2.88369 9.96493
# Velocity P-wave (km/s) = 16.76674 6.82986 12.80177
#
# Compressibility (1/GPa) = 0.01507414
#
# Stress axis : x y z
#
# Youngs Moduli (GPa) = 105.20834 94.76259 223.90286
#
# Poissons Ratio (x) = 0.15251 0.62999
# Poissons Ratio (y) = 0.16932 0.06758
# Poissons Ratio (z) = 0.29602 0.02860
#
# Static dielectric constant tensor:
#      x y z
#    x 1.865610 0.000000 0.000000 
#    y 0.000000 1.991280 0.000000 
#    z 0.000000 0.000000 1.952710 
# 
# From -- ./inp_files/10220.got.cif
#   From: 2010.05.17/outbox.cif.g08.bks.cpg/sg72_6_cif.got.tgz:10220.got - 2010.06.03 17:03:01.
