data_PCOD9527316
_publ_section_title
;
Structure prediction by ZEFSAII (Michael W. Deem and Ramdas Pophale) SiO2 
 PCOD9527316
Probable space group: I B A M
;
_chemical_formula_sum "Si O2"
_cell_formula_units_Z 88
_cell_length_a 14.919344
_cell_length_b 12.552061
_cell_length_c 21.787232
_cell_angle_alpha 90.000000
_cell_angle_beta 90.000000
_cell_angle_gamma 90.000000
_cell_volume 4080.062604
_symmetry_space_group_name_H-M "I B A M"
_symmetry_group_IT_number 72
_symmetry_cell_setting 'orthorhombic'
loop_
_space_group_symop_operation_xyz
x,y,z
-x,-y,z
x,-y,1/2-z
-x,y,1/2-z
-x,-y,-z
x,y,-z
-x,y,1/2+z
x,-y,1/2+z
1/2+x,1/2+y,1/2+z
1/2-x,1/2-y,1/2+z
1/2+x,1/2-y,-z
1/2-x,1/2+y,-z
1/2-x,1/2-y,1/2-z
1/2+x,1/2+y,1/2-z
1/2-x,1/2+y,z
1/2+x,1/2-y,z
loop_
_atom_site_type_symbol
_atom_site_label
_atom_site_fract_x
_atom_site_fract_y
_atom_site_fract_z
Si Si1 0.793101 0.519251 0.124977
Si Si2 0.926327 0.647498 0.649793
Si Si3 0.000000 0.000000 0.611010
Si Si4 0.353522 0.660377 0.432122
Si Si5 0.616020 0.170345 0.211197
Si Si6 0.356125 0.410515 0.302563
O O1 0.885297 0.454435 0.113236
O O2 0.738856 0.594235 0.077951
O O3 0.808677 0.600423 0.180551
O O4 0.725030 0.430830 0.150783
O O5 0.880039 0.750668 0.618542
O O6 0.901294 0.626651 0.721018
O O7 0.032772 0.664527 0.662345
O O8 0.055687 0.924791 0.656392
O O9 0.930971 0.928905 0.573312
O O10 0.353400 0.709207 0.500000
O O11 0.642937 0.291879 0.221836
O O12 0.357581 0.500000 0.250000
#
# Coordination Sequence:
#
# PCOD9527316 Si02
#       6
#    16  16   8  16  16  16
#     4  11  24  39  61  94 133 169 210 264 332 398
#     4  11  23  40  65  96 129 172 215 267 334 401
#     4  10  20  38  60  92 116 161 217 274 322 378
#     4  11  24  43  65  89 124 172 226 273 318 380
#     4  11  22  40  64  98 135 166 209 268 342 404
#     4  11  21  33  61  93 130 165 209 264 327 394
#
# _framework density 21.568294999999999
#
# number of rings (size 3 to 8) (size 9 to 14) (size 15 to 20)
#    0.000    1.091    1.818    6.000    2.545    4.364 
#    0.000    0.909    0.000    2.182    0.000    0.000 
#    0.000    0.000    0.000    0.000    0.000    0.000 
#
# Total GULP energy -245461.114605 kJ/mol
# GULP energy per Si atom -5578.661696 kJ/mol
# Density = 2.151921 g / cm^3
# Si number density = 21.568295 Si / 1000 Ang^3
#
#
#
# Elastic Constant Matrix: (Units=GPa)
#
#
# Indices 1 2 3 4 5 6 
#
# 1 64.1508 31.5094 21.3680 0.0000 0.0000 0.0000
# 2 31.5094 102.7481 15.8516 0.0000 0.0000 0.0000
# 3 21.3680 15.8516 70.3197 0.0000 0.0000 0.0000
# 4 0.0000 0.0000 0.0000 12.1124 0.0000 0.0000
# 5 0.0000 0.0000 0.0000 0.0000 7.8573 0.0000
# 6 0.0000 0.0000 0.0000 0.0000 0.0000 28.0228
#
#
#
# Elastic Compliance Matrix: (Units=1/GPa)
#
#
# Indices 1 2 3 4 5 6 
#
# 1 0.019812 -0.005332 -0.004818 0.000000 0.000000 0.000000
# 2 -0.005332 0.011518 -0.000976 0.000000 0.000000 0.000000
# 3 -0.004818 -0.000976 0.015905 0.000000 0.000000 0.000000
# 4 0.000000 0.000000 0.000000 0.082560 0.000000 0.000000
# 5 0.000000 0.000000 0.000000 0.000000 0.127270 0.000000
# 6 0.000000 0.000000 0.000000 0.000000 0.000000 0.035685
#
#
# Mechanical properties :
#
#
# Convention : Reuss Voigt Hill
#
# Bulk Modulus (GPa) = 40.02891 41.63073 40.82982
# Shear Modulus (GPa) = 15.46399 20.83115 18.14757
#
# Velocity S-wave (km/s) = 2.68055 3.11114 2.90384
# Velocity P-wave (km/s) = 5.30847 5.67885 5.49678
#
# Compressibility (1/GPa) = 0.02498194
#
# Stress axis : x y z
#
# Youngs Moduli (GPa) = 50.47346 86.81745 62.87345
#
# Poissons Ratio (x) = 0.46295 0.30295
# Poissons Ratio (y) = 0.26915 0.06137
# Poissons Ratio (z) = 0.24320 0.08475
#
# Static dielectric constant tensor:
#      x y z
#    x 1.915770 0.000000 0.000000 
#    y 0.000000 1.802630 0.000000 
#    z 0.000000 0.000000 1.738580 
# 
# From -- ./inp_files/44163.got.cif
#   From: 2010.05.17/outbox.cif.g08.bks.cpg/sg72_23_cif.got.tgz:44163.got - 2010.06.03 17:03:01.
