data_PCOD9527047
_publ_section_title
;
Structure prediction by ZEFSAII (Michael W. Deem and Ramdas Pophale) SiO2 
 PCOD9527047
Probable space group: I B A M
;
_chemical_formula_sum "Si O2"
_cell_formula_units_Z 116
_cell_length_a 28.097402
_cell_length_b 9.755410
_cell_length_c 22.352348
_cell_angle_alpha 90.000000
_cell_angle_beta 90.000000
_cell_angle_gamma 90.000000
_cell_volume 6126.816059
_symmetry_space_group_name_H-M "I B A M"
_symmetry_group_IT_number 72
_symmetry_cell_setting 'orthorhombic'
loop_
_space_group_symop_operation_xyz
x,y,z
-x,-y,z
x,-y,1/2-z
-x,y,1/2-z
-x,-y,-z
x,y,-z
-x,y,1/2+z
x,-y,1/2+z
1/2+x,1/2+y,1/2+z
1/2-x,1/2-y,1/2+z
1/2+x,1/2-y,-z
1/2-x,1/2+y,-z
1/2-x,1/2-y,1/2-z
1/2+x,1/2+y,1/2-z
1/2-x,1/2+y,z
1/2+x,1/2-y,z
loop_
_atom_site_type_symbol
_atom_site_label
_atom_site_fract_x
_atom_site_fract_y
_atom_site_fract_z
Si Si1 0.279175 0.785917 0.570886
Si Si2 0.074230 0.812943 0.179046
Si Si3 0.879931 0.352616 0.722779
Si Si4 0.500000 0.500000 0.750000
Si Si5 0.326433 0.270982 0.610297
Si Si6 0.948217 0.515368 0.643447
Si Si7 0.644791 0.005267 0.565579
Si Si8 0.637165 0.567436 0.070988
O O1 0.267104 0.805849 0.500000
O O2 0.230298 0.779997 0.606379
O O3 0.313880 0.655121 0.575388
O O4 0.311591 0.911721 0.593611
O O5 0.113335 0.765866 0.228149
O O6 0.049522 0.665911 0.171046
O O7 0.099032 0.868276 0.118131
O O8 0.035693 0.913905 0.207693
O O9 0.863434 0.500000 0.750000
O O10 0.845859 0.290604 0.672416
O O11 0.929973 0.399357 0.690381
O O12 0.342021 0.152807 0.564467
O O13 0.350649 0.413973 0.592580
O O14 0.904505 0.521578 0.598455
O O15 0.000000 0.500000 0.615976
O O16 0.639685 0.066241 0.500000
O O17 0.623114 0.569645 0.000000
#
# Coordination Sequence:
#
# PCOD9527047 Si02
#       8
#    16  16  16   4  16  16  16  16
#     4  10  20  37  61  88 122 169 214 254 307 371
#     4  11  22  41  61  86 123 157 200 253 310 374
#     4   9  21  40  63  88 122 160 207 262 308 359
#     4  12  24  36  64  88 112 164 212 248 300 384
#     4  11  21  36  62  92 122 163 213 256 299 369
#     4  10  20  36  62  87 114 155 208 260 309 365
#     4  10  20  36  58  87 122 160 207 261 309 368
#     4  11  23  39  62  91 129 165 196 254 319 363
#
# _framework density 18.933160999999998
#
# number of rings (size 3 to 8) (size 9 to 14) (size 15 to 20)
#    0.000    1.655    1.379    3.724    0.000    5.517 
#    0.000    1.034    1.517    0.000    0.000    0.000 
#    0.000    0.000    0.000    0.000    0.000    0.000 
#
# Total GULP energy -323217.711643 kJ/mol
# GULP energy per Si atom -5572.719166 kJ/mol
# Density = 1.889007 g / cm^3
# Si number density = 18.933161 Si / 1000 Ang^3
#
#
#
# Elastic Constant Matrix: (Units=GPa)
#
#
# Indices 1 2 3 4 5 6 
#
# 1 113.5897 38.4839 66.0677 0.0000 0.0000 0.0000
# 2 38.4839 94.2284 38.9042 0.0000 0.0000 0.0000
# 3 66.0677 38.9042 117.0889 0.0000 0.0000 0.0000
# 4 0.0000 0.0000 0.0000 27.8002 0.0000 0.0000
# 5 0.0000 0.0000 0.0000 0.0000 101.7319 0.0000
# 6 0.0000 0.0000 0.0000 0.0000 0.0000 7.2377
#
#
#
# Elastic Compliance Matrix: (Units=1/GPa)
#
#
# Indices 1 2 3 4 5 6 
#
# 1 0.013708 -0.002787 -0.006809 0.000000 0.000000 0.000000
# 2 -0.002787 0.012867 -0.002702 0.000000 0.000000 0.000000
# 3 -0.006809 -0.002702 0.013280 0.000000 0.000000 0.000000
# 4 0.000000 0.000000 0.000000 0.035971 0.000000 0.000000
# 5 0.000000 0.000000 0.000000 0.000000 0.009830 0.000000
# 6 0.000000 0.000000 0.000000 0.000000 0.000000 0.138165
#
#
# Mechanical properties :
#
#
# Convention : Reuss Voigt Hill
#
# Bulk Modulus (GPa) = 65.53869 67.97984 66.75926
# Shear Modulus (GPa) = 19.72358 39.45070 29.58714
#
# Velocity S-wave (km/s) = 3.23111 4.56969 3.95741
# Velocity P-wave (km/s) = 6.97217 7.98911 7.49790
#
# Compressibility (1/GPa) = 0.01525816
#
# Stress axis : x y z
#
# Youngs Moduli (GPa) = 72.94912 77.72049 75.30003
#
# Poissons Ratio (x) = 0.21664 0.51270
# Poissons Ratio (y) = 0.20334 0.20348
# Poissons Ratio (z) = 0.49669 0.21002
#
# Static dielectric constant tensor:
#      x y z
#    x 1.685050 0.000000 0.000000 
#    y 0.000000 1.687530 0.000000 
#    z 0.000000 0.000000 1.743130 
# 
# From -- ./inp_files/45996.got.cif
#   From: 2010.05.17/outbox.cif.g08.bks.cpg/sg72_23_cif.got.tgz:45996.got - 2010.06.03 17:03:01.
