data_PCOD9527023
_publ_section_title
;
Structure prediction by ZEFSAII (Michael W. Deem and Ramdas Pophale) SiO2 
 PCOD9527023
Probable space group: I B A M
;
_chemical_formula_sum "Si O2"
_cell_formula_units_Z 116
_cell_length_a 22.480219
_cell_length_b 33.307601
_cell_length_c 8.446351
_cell_angle_alpha 90.000000
_cell_angle_beta 90.000000
_cell_angle_gamma 90.000000
_cell_volume 6324.308060
_symmetry_space_group_name_H-M "I B A M"
_symmetry_group_IT_number 72
_symmetry_cell_setting 'orthorhombic'
loop_
_space_group_symop_operation_xyz
x,y,z
-x,-y,z
x,-y,1/2-z
-x,y,1/2-z
-x,-y,-z
x,y,-z
-x,y,1/2+z
x,-y,1/2+z
1/2+x,1/2+y,1/2+z
1/2-x,1/2-y,1/2+z
1/2+x,1/2-y,-z
1/2-x,1/2+y,-z
1/2-x,1/2-y,1/2-z
1/2+x,1/2+y,1/2-z
1/2-x,1/2+y,z
1/2+x,1/2-y,z
loop_
_atom_site_type_symbol
_atom_site_label
_atom_site_fract_x
_atom_site_fract_y
_atom_site_fract_z
Si Si1 0.713542 0.896075 0.811629
Si Si2 0.157180 0.230411 0.815824
Si Si3 0.776054 0.692577 0.187061
Si Si4 0.064459 0.170796 0.315474
Si Si5 0.384798 0.960345 0.690876
Si Si6 0.567192 0.583630 0.312951
Si Si7 0.000000 0.500000 0.750000
Si Si8 0.184954 0.044623 0.687597
O O1 0.712851 0.853527 0.725481
O O2 0.654204 0.921733 0.775391
O O3 0.769954 0.923066 0.762783
O O4 0.715773 0.889550 0.000000
O O5 0.169997 0.276897 0.775995
O O6 0.219694 0.208019 0.785877
O O7 0.109276 0.206948 0.713651
O O8 0.140498 0.227297 0.000000
O O9 0.762880 0.697612 0.000000
O O10 0.060488 0.160548 0.500000
O O11 0.082939 0.130130 0.225044
O O12 0.000000 0.182031 0.250000
O O13 0.396418 0.962591 0.500000
O O14 0.447404 0.966725 0.783168
O O15 0.349568 0.000000 0.750000
O O16 0.500000 0.577103 0.250000
O O17 0.568198 0.576972 0.500000
O O18 0.617488 0.556735 0.232065
O O19 0.192453 0.045761 0.500000
O O20 0.197113 0.000000 0.750000
#
# Coordination Sequence:
#
# PCOD9527023 Si02
#       8
#    16  16  16  16  16  16   4  16
#     4  11  22  37  56  83 115 148 185 230 282 333
#     4  10  20  36  57  81 111 144 184 229 276 331
#     4  10  21  36  56  83 111 145 184 225 277 332
#     4  11  21  35  57  84 113 146 186 231 278 329
#     4   9  19  33  55  81 108 140 180 223 269 321
#     4  11  22  39  60  84 113 149 191 235 280 331
#     4   8  18  36  58  84 110 140 184 224 266 320
#     4  12  25  41  58  82 113 149 190 234 285 336
#
# _framework density 18.341927999999999
#
# number of rings (size 3 to 8) (size 9 to 14) (size 15 to 20)
#    0.414    1.103    0.000    7.241    0.000    4.138 
#    0.000    1.379    1.517    0.000    0.000    0.000 
#    0.000    0.000    0.000    0.000    0.000    0.000 
#
# Total GULP energy -323308.355627 kJ/mol
# GULP energy per Si atom -5574.281994 kJ/mol
# Density = 1.830018 g / cm^3
# Si number density = 18.341928 Si / 1000 Ang^3
#
#
#
# Elastic Constant Matrix: (Units=GPa)
#
#
# Indices 1 2 3 4 5 6 
#
# 1 57.2488 28.3272 -3.8328 0.0000 0.0000 0.0000
# 2 28.3272 88.6958 -6.5935 0.0000 0.0000 0.0000
# 3 -3.8328 -6.5935 37.5169 0.0000 0.0000 0.0000
# 4 0.0000 0.0000 0.0000 26.5917 0.0000 0.0000
# 5 0.0000 0.0000 0.0000 0.0000 8.5859 0.0000
# 6 0.0000 0.0000 0.0000 0.0000 0.0000 30.4432
#
#
#
# Elastic Compliance Matrix: (Units=1/GPa)
#
#
# Indices 1 2 3 4 5 6 
#
# 1 0.020781 -0.006565 0.000969 0.000000 0.000000 0.000000
# 2 -0.006565 0.013498 0.001701 0.000000 0.000000 0.000000
# 3 0.000969 0.001701 0.027053 0.000000 0.000000 0.000000
# 4 0.000000 0.000000 0.000000 0.037606 0.000000 0.000000
# 5 0.000000 0.000000 0.000000 0.000000 0.116470 0.000000
# 6 0.000000 0.000000 0.000000 0.000000 0.000000 0.032848
#
#
# Mechanical properties :
#
#
# Convention : Reuss Voigt Hill
#
# Bulk Modulus (GPa) = 18.67658 24.36261 21.51959
# Shear Modulus (GPa) = 18.25546 24.16152 21.20849
#
# Velocity S-wave (km/s) = 3.15824 3.63338 3.40411
# Velocity P-wave (km/s) = 4.84808 5.55997 5.21618
#
# Compressibility (1/GPa) = 0.05354300
#
# Stress axis : x y z
#
# Youngs Moduli (GPa) = 48.12121 74.08713 36.96485
#
# Poissons Ratio (x) = 0.48637 -0.03583
# Poissons Ratio (y) = 0.31591 -0.06290
# Poissons Ratio (z) = -0.04664 -0.12606
#
# Static dielectric constant tensor:
#      x y z
#    x 1.622730 0.000000 0.000000 
#    y 0.000000 1.631020 0.000000 
#    z 0.000000 0.000000 1.631560 
# 
# From -- ./inp_files/7364.got.cif
#   From: 2010.05.17/outbox.cif.g08.bks.cpg/sg72_4_cif.got.tgz:7364.got - 2010.06.03 17:03:01.
