data_PCOD9527211
_publ_section_title
;
Structure prediction by ZEFSAII (Michael W. Deem and Ramdas Pophale) SiO2 
 PCOD9527211
Probable space group: I B A M
;
_chemical_formula_sum "Si O2"
_cell_formula_units_Z 80
_cell_length_a 12.899066
_cell_length_b 12.161638
_cell_length_c 23.953700
_cell_angle_alpha 90.000000
_cell_angle_beta 90.000000
_cell_angle_gamma 90.000000
_cell_volume 3757.707254
_symmetry_space_group_name_H-M "I B A M"
_symmetry_group_IT_number 72
_symmetry_cell_setting 'orthorhombic'
loop_
_space_group_symop_operation_xyz
x,y,z
-x,-y,z
x,-y,1/2-z
-x,y,1/2-z
-x,-y,-z
x,y,-z
-x,y,1/2+z
x,-y,1/2+z
1/2+x,1/2+y,1/2+z
1/2-x,1/2-y,1/2+z
1/2+x,1/2-y,-z
1/2-x,1/2+y,-z
1/2-x,1/2-y,1/2-z
1/2+x,1/2+y,1/2-z
1/2-x,1/2+y,z
1/2+x,1/2-y,z
loop_
_atom_site_type_symbol
_atom_site_label
_atom_site_fract_x
_atom_site_fract_y
_atom_site_fract_z
Si Si1 0.246514 0.962550 0.366988
Si Si2 0.429097 0.099272 0.664567
Si Si3 0.947176 0.151003 0.307646
Si Si4 0.427341 0.153206 0.063245
Si Si5 0.425594 0.406311 0.917188
O O1 0.162837 0.899471 0.328339
O O2 0.328503 0.885345 0.399655
O O3 0.314617 0.050591 0.333691
O O4 0.183711 0.034325 0.411819
O O5 0.436309 0.216955 0.692877
O O6 0.472458 0.120272 0.600917
O O7 0.500000 0.000000 0.686595
O O8 0.000000 0.117395 0.250000
O O9 0.028568 0.117405 0.355438
O O10 0.424201 0.285202 0.058420
O O11 0.426997 0.108531 0.000000
O O12 0.500000 0.500000 0.941524
#
# Coordination Sequence:
#
# PCOD9527211 Si02
#       5
#    16  16  16  16  16
#     4  10  20  37  60  87 121 156 200 254 300 352
#     4   9  20  39  59  86 125 159 197 251 297 352
#     4  10  21  40  63  88 120 160 201 244 301 363
#     4  10  21  38  61  89 122 163 205 245 297 357
#     4   9  20  38  57  84 123 157 198 254 298 351
#
# _framework density 21.289579
#
# number of rings (size 3 to 8) (size 9 to 14) (size 15 to 20)
#    0.000    2.400    0.000    1.200    0.000    8.800 
#    0.000   36.000    0.000    0.000    0.000    0.000 
#    0.000    0.000    0.000    0.000    0.000    0.000 
#
# Total GULP energy -223077.293024 kJ/mol
# GULP energy per Si atom -5576.932326 kJ/mol
# Density = 2.124112 g / cm^3
# Si number density = 21.289579 Si / 1000 Ang^3
#
#
#
# Elastic Constant Matrix: (Units=GPa)
#
#
# Indices 1 2 3 4 5 6 
#
# 1 88.0561 23.4691 32.0754 0.0000 0.0000 0.0000
# 2 23.4691 163.9485 22.9198 0.0000 0.0000 0.0000
# 3 32.0754 22.9198 143.0854 0.0000 0.0000 0.0000
# 4 0.0000 0.0000 0.0000 -13.3806 0.0000 0.0000
# 5 0.0000 0.0000 0.0000 0.0000 15.8404 0.0000
# 6 0.0000 0.0000 0.0000 0.0000 0.0000 21.4832
#
#
#
# Elastic Compliance Matrix: (Units=1/GPa)
#
#
# Indices 1 2 3 4 5 6 
#
# 1 0.012695 -0.001452 -0.002613 0.000000 0.000000 0.000000
# 2 -0.001452 0.006405 -0.000701 0.000000 0.000000 0.000000
# 3 -0.002613 -0.000701 0.007687 0.000000 0.000000 0.000000
# 4 0.000000 0.000000 0.000000 -0.074735 0.000000 0.000000
# 5 0.000000 0.000000 0.000000 0.000000 0.063130 0.000000
# 6 0.000000 0.000000 0.000000 0.000000 0.000000 0.046548
#
#
# Mechanical properties :
#
#
# Convention : Reuss Voigt Hill
#
# Bulk Modulus (GPa) = 57.95156 61.33541 59.64348
# Shear Modulus (GPa) = 64.92340 25.89698 45.41019
#
# Velocity S-wave (km/s) = 5.52825 3.49150 4.62343
# Velocity P-wave (km/s) = 8.24794 6.71764 7.52181
#
# Compressibility (1/GPa) = 0.01725579
#
# Stress axis : x y z
#
# Youngs Moduli (GPa) = 78.76921 156.12175 130.09196
#
# Poissons Ratio (x) = 0.22669 0.33997
# Poissons Ratio (y) = 0.11437 0.09113
# Poissons Ratio (z) = 0.20585 0.10937
#
# Static dielectric constant tensor:
#      x y z
#    x -0.445860 0.000000 0.000000 
#    y 0.000000 1.784130 0.000000 
#    z 0.000000 0.000000 1.882460 
# 
# From -- ./inp_files/44056.got.cif
#   From: 2010.05.17/outbox.cif.g08.bks.cpg/sg72_23_cif.got.tgz:44056.got - 2010.06.03 17:03:01.
