data_PCOD9527008
_publ_section_title
;
Structure prediction by ZEFSAII (Michael W. Deem and Ramdas Pophale) SiO2 
 PCOD9527008
Probable space group: I B A M
;
_chemical_formula_sum "Si O2"
_cell_formula_units_Z 96
_cell_length_a 26.988932
_cell_length_b 20.797214
_cell_length_c 8.712009
_cell_angle_alpha 90.000000
_cell_angle_beta 90.000000
_cell_angle_gamma 90.000000
_cell_volume 4890.003558
_symmetry_space_group_name_H-M "I B A M"
_symmetry_group_IT_number 72
_symmetry_cell_setting 'orthorhombic'
loop_
_space_group_symop_operation_xyz
x,y,z
-x,-y,z
x,-y,1/2-z
-x,y,1/2-z
-x,-y,-z
x,y,-z
-x,y,1/2+z
x,-y,1/2+z
1/2+x,1/2+y,1/2+z
1/2-x,1/2-y,1/2+z
1/2+x,1/2-y,-z
1/2-x,1/2+y,-z
1/2-x,1/2-y,1/2-z
1/2+x,1/2+y,1/2-z
1/2-x,1/2+y,z
1/2+x,1/2-y,z
loop_
_atom_site_type_symbol
_atom_site_label
_atom_site_fract_x
_atom_site_fract_y
_atom_site_fract_z
Si Si1 0.885428 0.433368 0.680087
Si Si2 0.054062 0.686556 0.816843
Si Si3 0.110236 0.197590 0.180206
Si Si4 0.698983 0.766215 0.828032
Si Si5 0.717083 0.915634 0.826646
Si Si6 0.667207 0.430637 0.185484
O O1 0.906367 0.500000 0.750000
O O2 0.894624 0.430849 0.500000
O O3 0.909200 0.369468 0.755434
O O4 0.826338 0.436867 0.713110
O O5 0.069165 0.759087 0.764504
O O6 0.000000 0.672479 0.750000
O O7 0.054957 0.684361 0.000000
O O8 0.157936 0.241685 0.212076
O O9 0.130085 0.127220 0.233727
O O10 0.098372 0.193474 0.000000
O O11 0.750000 0.750000 0.750000
O O12 0.702313 0.841785 0.844408
O O13 0.691593 0.738451 0.000000
O O14 0.774327 0.920350 0.771831
O O15 0.714208 0.944441 0.000000
O O16 0.652295 0.500000 0.250000
O O17 0.666687 0.430588 0.000000
#
# Coordination Sequence:
#
# PCOD9527008 Si02
#       6
#    16  16  16  16  16  16
#     4  12  25  41  62  90 125 168 209 253 301 355
#     4  12  26  46  69  95 120 151 198 253 311 373
#     4  11  22  40  62  88 121 159 202 254 310 365
#     4  11  20  32  54  84 120 159 204 251 299 356
#     4  10  20  36  55  84 124 167 210 252 293 350
#     4  10  22  38  57  86 126 166 207 249 297 358
#
# _framework density 19.631888
#
# number of rings (size 3 to 8) (size 9 to 14) (size 15 to 20)
#    0.000    1.000    3.333    4.500    0.000    4.333 
#    0.000    1.667    0.000    0.500    0.000    3.500 
#    0.000    0.000    0.000    0.000    0.000    0.000 
#
# Total GULP energy -267644.274178 kJ/mol
# GULP energy per Si atom -5575.922379 kJ/mol
# Density = 1.958720 g / cm^3
# Si number density = 19.631888 Si / 1000 Ang^3
#
#
#
# Elastic Constant Matrix: (Units=GPa)
#
#
# Indices 1 2 3 4 5 6 
#
# 1 65.5500 33.9639 33.8234 0.0000 0.0000 0.0000
# 2 33.9639 147.4006 50.7466 0.0000 0.0000 0.0000
# 3 33.8234 50.7466 105.8015 0.0000 0.0000 0.0000
# 4 0.0000 0.0000 0.0000 30.2461 0.0000 0.0000
# 5 0.0000 0.0000 0.0000 0.0000 23.8698 0.0000
# 6 0.0000 0.0000 0.0000 0.0000 0.0000 11.8347
#
#
#
# Elastic Compliance Matrix: (Units=1/GPa)
#
#
# Indices 1 2 3 4 5 6 
#
# 1 0.019165 -0.002763 -0.004802 0.000000 0.000000 0.000000
# 2 -0.002763 0.008524 -0.003205 0.000000 0.000000 0.000000
# 3 -0.004802 -0.003205 0.012524 0.000000 0.000000 0.000000
# 4 0.000000 0.000000 0.000000 0.033062 0.000000 0.000000
# 5 0.000000 0.000000 0.000000 0.000000 0.041894 0.000000
# 6 0.000000 0.000000 0.000000 0.000000 0.000000 0.084497
#
#
# Mechanical properties :
#
#
# Convention : Reuss Voigt Hill
#
# Bulk Modulus (GPa) = 53.55158 61.75777 57.65468
# Shear Modulus (GPa) = 21.98474 26.53800 24.26137
#
# Velocity S-wave (km/s) = 3.35004 3.68065 3.51923
# Velocity P-wave (km/s) = 6.50391 7.04195 6.77827
#
# Compressibility (1/GPa) = 0.01867358
#
# Stress axis : x y z
#
# Youngs Moduli (GPa) = 52.17952 117.31060 79.84621
#
# Poissons Ratio (x) = 0.32411 0.38338
# Poissons Ratio (y) = 0.14416 0.25594
# Poissons Ratio (z) = 0.25054 0.37603
#
# Static dielectric constant tensor:
#      x y z
#    x 1.622430 0.000000 0.000000 
#    y 0.000000 1.729830 0.000000 
#    z 0.000000 0.000000 1.706270 
# 
# From -- ./inp_files/8060.got.cif
#   From: 2010.05.17/outbox.cif.g08.bks.cpg/sg72_5_cif.got.tgz:8060.got - 2010.06.03 17:03:01.
