data_PCOD9527033
_publ_section_title
;
Structure prediction by ZEFSAII (Michael W. Deem and Ramdas Pophale) SiO2 
 PCOD9527033
Probable space group: I B A M
;
_chemical_formula_sum "Si O2"
_cell_formula_units_Z 96
_cell_length_a 12.122758
_cell_length_b 18.875429
_cell_length_c 19.927940
_cell_angle_alpha 90.000000
_cell_angle_beta 90.000000
_cell_angle_gamma 90.000000
_cell_volume 4559.956226
_symmetry_space_group_name_H-M "I B A M"
_symmetry_group_IT_number 72
_symmetry_cell_setting 'orthorhombic'
loop_
_space_group_symop_operation_xyz
x,y,z
-x,-y,z
x,-y,1/2-z
-x,y,1/2-z
-x,-y,-z
x,y,-z
-x,y,1/2+z
x,-y,1/2+z
1/2+x,1/2+y,1/2+z
1/2-x,1/2-y,1/2+z
1/2+x,1/2-y,-z
1/2-x,1/2+y,-z
1/2-x,1/2-y,1/2-z
1/2+x,1/2+y,1/2-z
1/2-x,1/2+y,z
1/2+x,1/2-y,z
loop_
_atom_site_type_symbol
_atom_site_label
_atom_site_fract_x
_atom_site_fract_y
_atom_site_fract_z
Si Si1 0.734729 0.882230 0.161377
Si Si2 0.572202 0.569823 0.927913
Si Si3 0.288665 0.370441 0.188465
Si Si4 0.121918 0.480888 0.829547
Si Si5 0.936540 0.733854 0.680366
Si Si6 0.593718 0.701537 0.574567
O O1 0.800035 0.884296 0.232129
O O2 0.705555 0.961397 0.138503
O O3 0.620490 0.842169 0.177553
O O4 0.800322 0.833296 0.109627
O O5 0.500000 0.500000 0.924119
O O6 0.637439 0.581820 0.859859
O O7 0.489869 0.635881 0.931117
O O8 0.634912 0.568791 0.000000
O O9 0.167117 0.400253 0.168067
O O10 0.335081 0.291197 0.176638
O O11 0.123707 0.500000 0.750000
O O12 0.000000 0.500000 0.854395
O O13 0.000000 0.745416 0.750000
O O14 0.025999 0.745576 0.622109
O O15 0.618157 0.729416 0.500000
#
# Coordination Sequence:
#
# PCOD9527033 Si02
#       6
#    16  16  16  16  16  16
#     4  11  22  36  60  88 119 159 201 254 308 366
#     4   9  18  34  58  85 120 162 202 254 311 365
#     4  10  20  36  57  88 119 154 207 249 307 360
#     4   9  20  35  56  87 122 159 197 248 301 358
#     4  11  23  37  62  88 119 156 204 256 308 367
#     4  10  22  39  57  85 118 155 201 253 313 371
#
# _framework density 21.052834000000001
#
# number of rings (size 3 to 8) (size 9 to 14) (size 15 to 20)
#    0.000    2.000    1.667    1.500    4.667    0.667 
#    0.000    0.833    0.000    2.000    0.000    0.000 
#    0.000    0.000    0.000    0.000    0.000    0.000 
#
# Total GULP energy -267580.463370 kJ/mol
# GULP energy per Si atom -5574.592987 kJ/mol
# Density = 2.100492 g / cm^3
# Si number density = 21.052834 Si / 1000 Ang^3
#
#
#
# Elastic Constant Matrix: (Units=GPa)
#
#
# Indices 1 2 3 4 5 6 
#
# 1 69.4943 19.9210 35.1899 0.0000 0.0000 0.0000
# 2 19.9210 84.9074 17.8157 0.0000 0.0000 0.0000
# 3 35.1899 17.8157 130.9606 0.0000 0.0000 0.0000
# 4 0.0000 0.0000 0.0000 14.5048 0.0000 0.0000
# 5 0.0000 0.0000 0.0000 0.0000 -36.7805 0.0000
# 6 0.0000 0.0000 0.0000 0.0000 0.0000 22.4517
#
#
#
# Elastic Compliance Matrix: (Units=1/GPa)
#
#
# Indices 1 2 3 4 5 6 
#
# 1 0.017464 -0.003204 -0.004257 0.000000 0.000000 0.000000
# 2 -0.003204 0.012711 -0.000868 0.000000 0.000000 0.000000
# 3 -0.004257 -0.000868 0.008898 0.000000 0.000000 0.000000
# 4 0.000000 0.000000 0.000000 0.068943 0.000000 0.000000
# 5 0.000000 0.000000 0.000000 0.000000 -0.027188 0.000000
# 6 0.000000 0.000000 0.000000 0.000000 0.000000 0.044540
#
#
# Mechanical properties :
#
#
# Convention : Reuss Voigt Hill
#
# Bulk Modulus (GPa) = 44.61366 47.91283 46.26324
# Shear Modulus (GPa) = 33.44542 14.19756 23.82149
#
# Velocity S-wave (km/s) = 3.99010 2.59970 3.36744
# Velocity P-wave (km/s) = 6.51653 5.64083 6.09443
#
# Compressibility (1/GPa) = 0.02241466
#
# Stress axis : x y z
#
# Youngs Moduli (GPa) = 57.26188 78.66903 112.38726
#
# Poissons Ratio (x) = 0.25207 0.47840
# Poissons Ratio (y) = 0.18348 0.09758
# Poissons Ratio (z) = 0.24375 0.06831
#
# Static dielectric constant tensor:
#      x y z
#    x 2.275100 0.000000 0.000000 
#    y 0.000000 1.755630 0.000000 
#    z 0.000000 0.000000 1.780130 
# 
# From -- ./inp_files/37114.got.cif
#   From: 2010.05.17/outbox.cif.g08.bks.cpg/sg72_19_cif.got.tgz:37114.got - 2010.06.03 17:03:01.
