data_PCOD9527085
_publ_section_title
;
Structure prediction by ZEFSAII (Michael W. Deem and Ramdas Pophale) SiO2 
 PCOD9527085
Probable space group: I B A M
;
_chemical_formula_sum "Si O2"
_cell_formula_units_Z 96
_cell_length_a 13.337001
_cell_length_b 20.836632
_cell_length_c 17.004978
_cell_angle_alpha 90.000000
_cell_angle_beta 90.000000
_cell_angle_gamma 90.000000
_cell_volume 4725.652468
_symmetry_space_group_name_H-M "I B A M"
_symmetry_group_IT_number 72
_symmetry_cell_setting 'orthorhombic'
loop_
_space_group_symop_operation_xyz
x,y,z
-x,-y,z
x,-y,1/2-z
-x,y,1/2-z
-x,-y,-z
x,y,-z
-x,y,1/2+z
x,-y,1/2+z
1/2+x,1/2+y,1/2+z
1/2-x,1/2-y,1/2+z
1/2+x,1/2-y,-z
1/2-x,1/2+y,-z
1/2-x,1/2-y,1/2-z
1/2+x,1/2+y,1/2-z
1/2-x,1/2+y,z
1/2+x,1/2-y,z
loop_
_atom_site_type_symbol
_atom_site_label
_atom_site_fract_x
_atom_site_fract_y
_atom_site_fract_z
Si Si1 0.746478 0.058522 0.688393
Si Si2 0.413727 0.874561 0.592995
Si Si3 0.180551 0.952935 0.091135
Si Si4 0.692064 0.261659 0.591972
Si Si5 0.395837 0.637105 0.708815
Si Si6 0.639219 0.148462 0.093349
O O1 0.640263 0.078015 0.652934
O O2 0.809203 0.115555 0.729391
O O3 0.739087 0.000000 0.750000
O O4 0.803547 0.026127 0.615032
O O5 0.415787 0.895637 0.500000
O O6 0.344290 0.810949 0.595393
O O7 0.526706 0.860884 0.622511
O O8 0.098571 0.922231 0.147863
O O9 0.281543 0.909424 0.108966
O O10 0.158916 0.945246 0.000000
O O11 0.676344 0.282132 0.500000
O O12 0.630040 0.302565 0.654507
O O13 0.805356 0.284408 0.612857
O O14 0.500000 0.646985 0.750000
O O15 0.626486 0.149197 0.000000
#
# Coordination Sequence:
#
# PCOD9527085 Si02
#       6
#    16  16  16  16  16  16
#     4  10  22  37  53  81 118 148 182 233 284 330
#     4  10  20  36  60  87 113 144 188 235 275 324
#     4   9  18  37  60  79 107 149 195 231 268 330
#     4   9  19  38  61  83 110 147 191 230 270 332
#     4  10  21  38  57  80 113 150 184 230 290 337
#     4   8  16  33  58  84 110 143 180 226 278 322
#
# _framework density 20.314655999999999
#
# number of rings (size 3 to 8) (size 9 to 14) (size 15 to 20)
#    0.000    2.667    0.000    2.000    0.000    5.667 
#    0.000   23.333    0.000    0.000    0.000    0.000 
#    0.000    0.000    0.000    0.000    0.000    0.000 
#
# Total GULP energy -267366.400525 kJ/mol
# GULP energy per Si atom -5570.133344 kJ/mol
# Density = 2.026842 g / cm^3
# Si number density = 20.314656 Si / 1000 Ang^3
#
#
#
# Elastic Constant Matrix: (Units=GPa)
#
#
# Indices 1 2 3 4 5 6 
#
# 1 65.3047 -7.5183 36.2464 0.0000 0.0000 0.0000
# 2 -7.5183 17.5312 7.2689 -0.0001 0.0000 0.0000
# 3 36.2464 7.2689 52.8496 -0.0001 0.0000 0.0000
# 4 0.0000 -0.0001 -0.0001 23.4835 0.0000 0.0000
# 5 0.0000 0.0000 0.0000 0.0000 31.3622 0.0000
# 6 0.0000 0.0000 0.0000 0.0000 0.0000 3.2861
#
#
#
# Elastic Compliance Matrix: (Units=1/GPa)
#
#
# Indices 1 2 3 4 5 6 
#
# 1 0.032270 0.024408 -0.025489 0.000000 0.000000 0.000000
# 2 0.024408 0.078952 -0.027599 0.000000 0.000000 0.000000
# 3 -0.025489 -0.027599 0.040199 0.000000 0.000000 0.000000
# 4 0.000000 0.000000 0.000000 0.042583 0.000000 0.000000
# 5 0.000000 0.000000 0.000000 0.000000 0.031886 0.000000
# 6 0.000000 0.000000 0.000000 0.000000 0.000000 0.304310
#
#
# Mechanical properties :
#
#
# Convention : Reuss Voigt Hill
#
# Bulk Modulus (GPa) = 10.63143 23.07550 16.85346
# Shear Modulus (GPa) = 8.07866 18.27226 13.17546
#
# Velocity S-wave (km/s) = 1.99635 3.00236 2.54946
# Velocity P-wave (km/s) = 3.24940 4.83762 4.12075
#
# Compressibility (1/GPa) = 0.09406076
#
# Stress axis : x y z
#
# Youngs Moduli (GPa) = 30.98812 12.66591 24.87604
#
# Poissons Ratio (x) = -0.30915 0.63408
# Poissons Ratio (y) = -0.75636 0.68656
# Poissons Ratio (z) = 0.78987 0.34957
#
# Static dielectric constant tensor:
#      x y z
#    x 1.749600 0.000000 0.000000 
#    y 0.000000 1.754870 0.000000 
#    z 0.000000 0.000000 1.739340 
# 
# From -- ./inp_files/29442.got.cif
#   From: 2010.05.17/outbox.cif.g08.bks.cpg/sg72_15_cif.got.tgz:29442.got - 2010.06.03 17:03:01.
