data_PCOD9527981
_publ_section_title
;
Structure prediction by ZEFSAII (Michael W. Deem and Ramdas Pophale) SiO2 
 PCOD9527981
Probable space group: I B A M
;
_chemical_formula_sum "Si O2"
_cell_formula_units_Z 104
_cell_length_a 27.206792
_cell_length_b 21.591955
_cell_length_c 9.305506
_cell_angle_alpha 90.000000
_cell_angle_beta 90.000000
_cell_angle_gamma 90.000000
_cell_volume 5466.499293
_symmetry_space_group_name_H-M "I B A M"
_symmetry_group_IT_number 72
_symmetry_cell_setting 'orthorhombic'
loop_
_space_group_symop_operation_xyz
x,y,z
-x,-y,z
x,-y,1/2-z
-x,y,1/2-z
-x,-y,-z
x,y,-z
-x,y,1/2+z
x,-y,1/2+z
1/2+x,1/2+y,1/2+z
1/2-x,1/2-y,1/2+z
1/2+x,1/2-y,-z
1/2-x,1/2+y,-z
1/2-x,1/2-y,1/2-z
1/2+x,1/2+y,1/2-z
1/2-x,1/2+y,z
1/2+x,1/2-y,z
loop_
_atom_site_type_symbol
_atom_site_label
_atom_site_fract_x
_atom_site_fract_y
_atom_site_fract_z
Si Si1 0.948648 0.603894 0.332025
Si Si2 0.621069 0.316073 0.336576
Si Si3 0.182365 0.062133 0.328378
Si Si4 0.372857 0.000000 0.750000
Si Si5 0.447425 0.227985 0.327278
Si Si6 0.705729 0.097533 0.162115
Si Si7 0.292238 0.783306 0.660550
O O1 0.958281 0.619373 0.500000
O O2 0.909775 0.547984 0.326910
O O3 0.928403 0.663570 0.244509
O O4 0.000000 0.587513 0.250000
O O5 0.600539 0.322715 0.500000
O O6 0.647753 0.379646 0.293194
O O7 0.583265 0.287219 0.224362
O O8 0.663440 0.264604 0.345387
O O9 0.180570 0.054057 0.500000
O O10 0.239711 0.075295 0.292715
O O11 0.166562 0.000000 0.250000
O O12 0.334813 0.043726 0.664416
O O13 0.500000 0.233868 0.250000
O O14 0.449519 0.223076 0.500000
O O15 0.691928 0.153134 0.266250
O O16 0.710419 0.122056 0.000000
O O17 0.274390 0.796140 0.500000
O O18 0.250000 0.750000 0.750000
#
# Coordination Sequence:
#
# PCOD9527981 Si02
#       7
#    16  16  16   8  16  16  16
#     4  11  24  42  63  87 119 160 205 257 311 363
#     4  10  21  39  61  87 121 159 197 246 305 359
#     4  10  21  39  59  83 119 161 201 243 291 353
#     4  12  25  38  60  88 120 164 213 260 302 354
#     4  11  23  41  67  96 123 155 197 251 307 368
#     4  11  23  39  56  82 118 159 206 253 301 354
#     4  11  22  37  58  84 116 156 202 253 307 358
#
# _framework density 19.024972999999999
#
# number of rings (size 3 to 8) (size 9 to 14) (size 15 to 20)
#    0.000    1.231    2.308    4.846    0.000    9.231 
#    0.000    0.000    0.000    0.462    0.000    3.231 
#    0.000    0.000    0.000    0.000    0.000    0.000 
#
# Total GULP energy -290305.380218 kJ/mol
# GULP energy per Si atom -5582.795773 kJ/mol
# Density = 1.898167 g / cm^3
# Si number density = 19.024973 Si / 1000 Ang^3
#
#
#
# Elastic Constant Matrix: (Units=GPa)
#
#
# Indices 1 2 3 4 5 6 
#
# 1 79.2808 54.2432 47.1464 0.0000 0.0000 0.0000
# 2 54.2432 152.8977 66.9579 0.0000 0.0000 0.0000
# 3 47.1464 66.9579 133.8520 0.0000 0.0000 0.0000
# 4 0.0000 0.0000 0.0000 23.5603 0.0000 0.0000
# 5 0.0000 0.0000 0.0000 0.0000 19.4717 0.0000
# 6 0.0000 0.0000 0.0000 0.0000 0.0000 39.6837
#
#
#
# Elastic Compliance Matrix: (Units=1/GPa)
#
#
# Indices 1 2 3 4 5 6 
#
# 1 0.018247 -0.004685 -0.004083 0.000000 0.000000 0.000000
# 2 -0.004685 0.009578 -0.003141 0.000000 0.000000 0.000000
# 3 -0.004083 -0.003141 0.010481 0.000000 0.000000 0.000000
# 4 0.000000 0.000000 0.000000 0.042444 0.000000 0.000000
# 5 0.000000 0.000000 0.000000 0.000000 0.051356 0.000000
# 6 0.000000 0.000000 0.000000 0.000000 0.000000 0.025199
#
#
# Mechanical properties :
#
#
# Convention : Reuss Voigt Hill
#
# Bulk Modulus (GPa) = 69.03048 78.08061 73.55554
# Shear Modulus (GPa) = 26.88831 29.72200 28.30516
#
# Velocity S-wave (km/s) = 3.76349 3.95683 3.86137
# Velocity P-wave (km/s) = 7.43290 7.87436 7.65682
#
# Compressibility (1/GPa) = 0.01448635
#
# Stress axis : x y z
#
# Youngs Moduli (GPa) = 54.80234 104.40532 95.41528
#
# Poissons Ratio (x) = 0.48917 0.38962
# Poissons Ratio (y) = 0.25677 0.29970
# Poissons Ratio (z) = 0.22378 0.32794
#
# Static dielectric constant tensor:
#      x y z
#    x 1.686220 0.000000 0.000000 
#    y 0.000000 1.665890 0.000000 
#    z 0.000000 0.000000 1.667330 
# 
# From -- ./inp_files/8174.got.cif
#   From: 2010.05.17/outbox.cif.g08.bks.cpg/sg72_5_cif.got.tgz:8174.got - 2010.06.03 17:03:01.
