data_PCOD9527414
_publ_section_title
;
Structure prediction by ZEFSAII (Michael W. Deem and Ramdas Pophale) SiO2 
 PCOD9527414
Probable space group: I B A M
;
_chemical_formula_sum "Si O2"
_cell_formula_units_Z 116
_cell_length_a 11.839461
_cell_length_b 29.117533
_cell_length_c 18.557097
_cell_angle_alpha 90.000000
_cell_angle_beta 90.000000
_cell_angle_gamma 90.000000
_cell_volume 6397.297468
_symmetry_space_group_name_H-M "I B A M"
_symmetry_group_IT_number 72
_symmetry_cell_setting 'orthorhombic'
loop_
_space_group_symop_operation_xyz
x,y,z
-x,-y,z
x,-y,1/2-z
-x,y,1/2-z
-x,-y,-z
x,y,-z
-x,y,1/2+z
x,-y,1/2+z
1/2+x,1/2+y,1/2+z
1/2-x,1/2-y,1/2+z
1/2+x,1/2-y,-z
1/2-x,1/2+y,-z
1/2-x,1/2-y,1/2-z
1/2+x,1/2+y,1/2-z
1/2-x,1/2+y,z
1/2+x,1/2-y,z
loop_
_atom_site_type_symbol
_atom_site_label
_atom_site_fract_x
_atom_site_fract_y
_atom_site_fract_z
Si Si1 0.848266 0.614594 0.826224
Si Si2 0.889210 0.373172 0.157791
Si Si3 0.500000 0.500000 0.250000
Si Si4 0.714756 0.477358 0.321731
Si Si5 0.944910 0.848224 0.087305
Si Si6 0.299817 0.567280 0.085387
Si Si7 0.276285 0.791227 0.413737
Si Si8 0.305619 0.683395 0.413255
O O1 0.845930 0.622627 0.739987
O O2 0.783080 0.567270 0.843036
O O3 0.786242 0.654497 0.869947
O O4 0.980200 0.613419 0.845620
O O5 0.813330 0.406358 0.108945
O O6 0.866708 0.322081 0.128317
O O7 0.586111 0.468816 0.295568
O O8 0.770619 0.500000 0.250000
O O9 0.702788 0.517455 0.379616
O O10 0.900293 0.898427 0.110739
O O11 0.846919 0.811649 0.106802
O O12 0.069481 0.833450 0.110175
O O13 0.947387 0.848997 0.000000
O O14 0.306869 0.563618 0.000000
O O15 0.289775 0.798457 0.500000
O O16 0.290000 0.737513 0.399623
O O17 0.294729 0.676272 0.500000
#
# Coordination Sequence:
#
# PCOD9527414 Si02
#       8
#    16  16   4  16  16  16  16  16
#     4  11  24  38  59  87 125 155 195 252 302 351
#     4  10  21  41  59  85 119 160 200 244 302 354
#     4   8  20  36  62  78 116 156 206 228 286 380
#     4  10  21  39  60  87 116 159 199 243 300 362
#     4   8  17  34  56  84 116 150 195 245 293 343
#     4  10  20  39  64  89 116 158 207 246 293 363
#     4   9  19  37  62  85 115 160 201 241 294 353
#     4  10  22  36  57  89 122 156 197 247 301 352
#
# _framework density 18.132657999999999
#
# number of rings (size 3 to 8) (size 9 to 14) (size 15 to 20)
#    0.414    1.931    1.379    1.241    3.862    2.759 
#    0.000    1.034    0.000    0.000    0.000    0.000 
#    0.000    0.000    0.000    0.000    0.000    0.000 
#
# Total GULP energy -323321.456535 kJ/mol
# GULP energy per Si atom -5574.507871 kJ/mol
# Density = 1.809139 g / cm^3
# Si number density = 18.132658 Si / 1000 Ang^3
#
#
#
# Elastic Constant Matrix: (Units=GPa)
#
#
# Indices 1 2 3 4 5 6 
#
# 1 104.7438 68.2467 37.3596 0.0000 0.0000 0.0000
# 2 68.2467 146.3573 57.7992 0.0000 0.0000 0.0000
# 3 37.3596 57.7992 50.6318 0.0002 0.0000 0.0003
# 4 0.0000 0.0000 0.0002 28.5537 0.0000 0.0001
# 5 0.0000 0.0000 0.0000 0.0000 23.9293 0.0000
# 6 0.0000 0.0000 0.0003 0.0001 0.0000 5.4237
#
#
#
# Elastic Compliance Matrix: (Units=1/GPa)
#
#
# Indices 1 2 3 4 5 6 
#
# 1 0.014488 -0.004614 -0.005423 0.000000 0.000000 0.000000
# 2 -0.004614 0.013911 -0.012476 0.000000 0.000000 0.000001
# 3 -0.005423 -0.012476 0.037993 0.000000 0.000000 -0.000002
# 4 0.000000 0.000000 0.000000 0.035022 0.000000 -0.000001
# 5 0.000000 0.000000 0.000000 0.000000 0.041790 0.000000
# 6 0.000000 0.000001 -0.000002 -0.000001 0.000000 0.184376
#
#
# Mechanical properties :
#
#
# Convention : Reuss Voigt Hill
#
# Bulk Modulus (GPa) = 46.80090 69.83823 58.31957
# Shear Modulus (GPa) = 13.16735 20.80317 16.98526
#
# Velocity S-wave (km/s) = 2.69767 3.39082 3.06391
# Velocity P-wave (km/s) = 5.96402 7.34364 6.68949
#
# Compressibility (1/GPa) = 0.02136711
#
# Stress axis : x y z
#
# Youngs Moduli (GPa) = 69.02467 71.88539 26.32038
#
# Poissons Ratio (x) = 0.33168 0.14273
# Poissons Ratio (y) = 0.31849 0.32837
# Poissons Ratio (z) = 0.37430 0.89682
#
# Static dielectric constant tensor:
#      x y z
#    x 1.619730 0.000000 0.000000 
#    y 0.000000 1.613040 0.000000 
#    z 0.000000 0.000000 1.627720 
# 
# From -- ./inp_files/29699.got.cif
#   From: 2010.05.17/outbox.cif.g08.bks.cpg/sg72_15_cif.got.tgz:29699.got - 2010.06.03 17:03:01.
