data_PCOD9527508
_publ_section_title
;
Structure prediction by ZEFSAII (Michael W. Deem and Ramdas Pophale) SiO2 
 PCOD9527508
Probable space group: I B A M
;
_chemical_formula_sum "Si O2"
_cell_formula_units_Z 80
_cell_length_a 16.935895
_cell_length_b 24.232889
_cell_length_c 10.122666
_cell_angle_alpha 90.000000
_cell_angle_beta 90.000000
_cell_angle_gamma 90.000000
_cell_volume 4154.399458
_symmetry_space_group_name_H-M "I B A M"
_symmetry_group_IT_number 72
_symmetry_cell_setting 'orthorhombic'
loop_
_space_group_symop_operation_xyz
x,y,z
-x,-y,z
x,-y,1/2-z
-x,y,1/2-z
-x,-y,-z
x,y,-z
-x,y,1/2+z
x,-y,1/2+z
1/2+x,1/2+y,1/2+z
1/2-x,1/2-y,1/2+z
1/2+x,1/2-y,-z
1/2-x,1/2+y,-z
1/2-x,1/2-y,1/2-z
1/2+x,1/2+y,1/2-z
1/2-x,1/2+y,z
1/2+x,1/2-y,z
loop_
_atom_site_type_symbol
_atom_site_label
_atom_site_fract_x
_atom_site_fract_y
_atom_site_fract_z
Si Si1 0.422318 0.648044 0.840617
Si Si2 0.211794 0.063345 0.246146
Si Si3 0.913582 0.684339 0.500000
Si Si4 0.171815 0.431417 0.500000
Si Si5 0.157733 0.263230 0.764455
Si Si6 0.322492 0.942199 0.000000
Si Si7 0.401872 0.833658 0.000000
O O1 0.500000 0.643515 0.750000
O O2 0.359464 0.604721 0.781065
O O3 0.386220 0.708703 0.816698
O O4 0.434156 0.639841 0.000000
O O5 0.264866 0.068764 0.376405
O O6 0.182429 0.000000 0.250000
O O7 0.272152 0.072833 0.126662
O O8 0.887322 0.620018 0.500000
O O9 0.878571 0.715107 0.627674
O O10 0.008077 0.686169 0.500000
O O11 0.144677 0.495290 0.500000
O O12 0.250000 0.250000 0.750000
O O13 0.142302 0.309980 0.872595
O O14 0.393429 0.899167 0.000000
#
# Coordination Sequence:
#
# PCOD9527508 Si02
#       7
#    16  16   8   8  16   8   8
#     4  12  26  44  66  96 135 169 213 272 331 390
#     4  10  22  42  67  93 127 172 219 267 317 383
#     4  12  25  40  68  94 134 171 212 273 334 379
#     4  10  20  42  65  95 126 177 215 268 323 375
#     4  12  26  43  67  93 127 175 222 264 322 393
#     4  10  22  38  67  95 132 167 225 264 313 393
#     4  12  23  42  60 100 132 167 216 273 328 389
#
# _framework density 19.256692999999999
#
# number of rings (size 3 to 8) (size 9 to 14) (size 15 to 20)
#    0.000    0.800    2.000    6.000    2.800    0.800 
#    0.000    1.000    0.000    6.000    0.000    0.000 
#    0.000    0.000    0.000    0.000    0.000    0.000 
#
# Total GULP energy -223567.871718 kJ/mol
# GULP energy per Si atom -5589.196793 kJ/mol
# Density = 1.921286 g / cm^3
# Si number density = 19.256693 Si / 1000 Ang^3
#
#
#
# Elastic Constant Matrix: (Units=GPa)
#
#
# Indices 1 2 3 4 5 6 
#
# 1 96.4777 36.5633 28.5618 0.0000 0.0000 0.0000
# 2 36.5633 99.8162 18.1077 0.0000 0.0000 0.0000
# 3 28.5618 18.1077 142.1078 0.0000 0.0000 0.0000
# 4 0.0000 0.0000 0.0000 35.6326 0.0000 0.0000
# 5 0.0000 0.0000 0.0000 0.0000 22.5408 0.0000
# 6 0.0000 0.0000 0.0000 0.0000 0.0000 22.2828
#
#
#
# Elastic Compliance Matrix: (Units=1/GPa)
#
#
# Indices 1 2 3 4 5 6 
#
# 1 0.012560 -0.004241 -0.001984 0.000000 0.000000 0.000000
# 2 -0.004241 0.011687 -0.000637 0.000000 0.000000 0.000000
# 3 -0.001984 -0.000637 0.007517 0.000000 0.000000 0.000000
# 4 0.000000 0.000000 0.000000 0.028064 0.000000 0.000000
# 5 0.000000 0.000000 0.000000 0.000000 0.044364 0.000000
# 6 0.000000 0.000000 0.000000 0.000000 0.000000 0.044878
#
#
# Mechanical properties :
#
#
# Convention : Reuss Voigt Hill
#
# Bulk Modulus (GPa) = 55.43057 56.09637 55.76347
# Shear Modulus (GPa) = 29.61974 33.10250 31.36112
#
# Velocity S-wave (km/s) = 3.92618 4.15060 4.03995
# Velocity P-wave (km/s) = 7.02857 7.22247 7.12618
#
# Compressibility (1/GPa) = 0.01804059
#
# Stress axis : x y z
#
# Youngs Moduli (GPa) = 79.62032 85.56241 133.03512
#
# Poissons Ratio (x) = 0.36285 0.26393
# Poissons Ratio (y) = 0.33765 0.08473
# Poissons Ratio (z) = 0.15796 0.05449
#
# Static dielectric constant tensor:
#      x y z
#    x 1.629830 0.000000 0.000000 
#    y 0.000000 1.708840 0.000000 
#    z 0.000000 0.000000 1.511850 
# 
# From -- ./inp_files/12986.got.cif
#   From: 2010.05.17/outbox.cif.g08.bks.cpg/sg72_7_cif.got.tgz:12986.got - 2010.06.03 17:03:01.
