data_PCOD9527201
_publ_section_title
;
Structure prediction by ZEFSAII (Michael W. Deem and Ramdas Pophale) SiO2 
 PCOD9527201
Probable space group: I B A M
;
_chemical_formula_sum "Si O2"
_cell_formula_units_Z 52
_cell_length_a 15.500196
_cell_length_b 15.321958
_cell_length_c 9.586143
_cell_angle_alpha 90.000000
_cell_angle_beta 90.000000
_cell_angle_gamma 90.000000
_cell_volume 2276.645235
_symmetry_space_group_name_H-M "I B A M"
_symmetry_group_IT_number 72
_symmetry_cell_setting 'orthorhombic'
loop_
_space_group_symop_operation_xyz
x,y,z
-x,-y,z
x,-y,1/2-z
-x,y,1/2-z
-x,-y,-z
x,y,-z
-x,y,1/2+z
x,-y,1/2+z
1/2+x,1/2+y,1/2+z
1/2-x,1/2-y,1/2+z
1/2+x,1/2-y,-z
1/2-x,1/2+y,-z
1/2-x,1/2-y,1/2-z
1/2+x,1/2+y,1/2-z
1/2-x,1/2+y,z
1/2+x,1/2-y,z
loop_
_atom_site_type_symbol
_atom_site_label
_atom_site_fract_x
_atom_site_fract_y
_atom_site_fract_z
Si Si1 0.892152 0.190420 0.500000
Si Si2 0.110080 0.011914 0.500000
Si Si3 0.721496 0.093827 0.000000
Si Si4 0.809603 0.723919 0.500000
Si Si5 0.406259 0.164343 0.723843
Si Si6 0.500000 0.500000 0.750000
O O1 0.788490 0.191654 0.500000
O O2 0.921124 0.247943 0.368030
O O3 0.916003 0.090357 0.500000
O O4 0.213394 0.014251 0.500000
O O5 0.066995 0.047051 0.356905
O O6 0.659093 0.105858 0.867785
O O7 0.792343 0.172260 0.000000
O O8 0.859743 0.691711 0.364983
O O9 0.500000 0.123817 0.750000
#
# Coordination Sequence:
#
# PCOD9527201 Si02
#       6
#     8   8   8   8  16   4
#     4  10  22  37  62  92 126 175 206 272 341 391
#     4  11  26  43  64  93 139 173 223 261 342 411
#     4  10  22  41  61  92 136 175 214 268 337 405
#     4  10  20  37  59  93 119 168 222 274 326 394
#     4  10  21  38  65  97 129 167 224 280 330 385
#     4  10  28  42  60  98 130 178 212 268 328 406
#
# _framework density 22.840627000000001
#
# number of rings (size 3 to 8) (size 9 to 14) (size 15 to 20)
#    0.000    2.154    0.000    5.538   10.769    2.462 
#    0.000    0.000    0.000    5.538    0.000    0.000 
#    0.000    0.000    0.000    0.000    0.000    0.000 
#
# Total GULP energy -145176.039545 kJ/mol
# GULP energy per Si atom -5583.693829 kJ/mol
# Density = 2.278864 g / cm^3
# Si number density = 22.840627 Si / 1000 Ang^3
#
#
#
# Elastic Constant Matrix: (Units=GPa)
#
#
# Indices 1 2 3 4 5 6 
#
# 1 146.5524 3.2510 64.7197 0.0000 0.0000 0.0000
# 2 3.2510 36.6479 0.2411 0.0000 0.0000 0.0000
# 3 64.7197 0.2411 180.1135 0.0000 0.0000 0.0000
# 4 0.0000 0.0000 0.0000 8.1135 0.0000 0.0000
# 5 0.0000 0.0000 0.0000 0.0000 23.0357 0.0000
# 6 0.0000 0.0000 0.0000 0.0000 0.0000 21.8493
#
#
#
# Elastic Compliance Matrix: (Units=1/GPa)
#
#
# Indices 1 2 3 4 5 6 
#
# 1 0.008129 -0.000702 -0.002920 0.000000 0.000000 0.000000
# 2 -0.000702 0.027348 0.000216 0.000000 0.000000 0.000000
# 3 -0.002920 0.000216 0.006601 0.000000 0.000000 0.000000
# 4 0.000000 0.000000 0.000000 0.123252 0.000000 0.000000
# 5 0.000000 0.000000 0.000000 0.000000 0.043411 0.000000
# 6 0.000000 0.000000 0.000000 0.000000 0.000000 0.045768
#
#
# Mechanical properties :
#
#
# Convention : Reuss Voigt Hill
#
# Bulk Modulus (GPa) = 28.35692 55.52637 41.94164
# Shear Modulus (GPa) = 18.30999 30.27316 24.29157
#
# Velocity S-wave (km/s) = 2.83440 3.64457 3.26471
# Velocity P-wave (km/s) = 4.81184 6.48642 5.71084
#
# Compressibility (1/GPa) = 0.03526476
#
# Stress axis : x y z
#
# Youngs Moduli (GPa) = 123.02363 36.56634 151.49334
#
# Poissons Ratio (x) = 0.02567 0.44234
# Poissons Ratio (y) = 0.08635 -0.03266
# Poissons Ratio (z) = 0.35921 -0.00788
#
# Static dielectric constant tensor:
#      x y z
#    x 1.864690 0.000000 0.000000 
#    y 0.000000 2.020310 0.000000 
#    z 0.000000 0.000000 1.104620 
# 
# From -- ./inp_files/3186.got.cif
#   From: 2010.05.17/outbox.cif.g08.bks.cpg/sg72_2_cif.got.tgz:3186.got - 2010.06.03 17:03:01.
