data_PCOD9527390
_publ_section_title
;
Structure prediction by ZEFSAII (Michael W. Deem and Ramdas Pophale) SiO2 
 PCOD9527390
Probable space group: I B A M
;
_chemical_formula_sum "Si O2"
_cell_formula_units_Z 60
_cell_length_a 5.228141
_cell_length_b 21.869056
_cell_length_c 22.375847
_cell_angle_alpha 90.000000
_cell_angle_beta 90.000000
_cell_angle_gamma 90.000000
_cell_volume 2558.331465
_symmetry_space_group_name_H-M "I B A M"
_symmetry_group_IT_number 72
_symmetry_cell_setting 'orthorhombic'
loop_
_space_group_symop_operation_xyz
x,y,z
-x,-y,z
x,-y,1/2-z
-x,y,1/2-z
-x,-y,-z
x,y,-z
-x,y,1/2+z
x,-y,1/2+z
1/2+x,1/2+y,1/2+z
1/2-x,1/2-y,1/2+z
1/2+x,1/2-y,-z
1/2-x,1/2+y,-z
1/2-x,1/2-y,1/2-z
1/2+x,1/2+y,1/2-z
1/2-x,1/2+y,z
1/2+x,1/2-y,z
loop_
_atom_site_type_symbol
_atom_site_label
_atom_site_fract_x
_atom_site_fract_y
_atom_site_fract_z
Si Si1 0.656024 0.083612 0.433029
Si Si2 0.849897 0.078201 0.142531
Si Si3 0.819876 0.293097 0.000000
Si Si4 0.979576 0.215390 0.821963
Si Si5 0.500000 0.500000 0.750000
O O1 0.667112 0.057258 0.500000
O O2 0.395535 0.070002 0.398757
O O3 0.673410 0.157041 0.446135
O O4 0.892257 0.062316 0.393358
O O5 0.888440 0.149557 0.156968
O O6 0.838067 0.042306 0.205089
O O7 0.564840 0.251705 0.000000
O O8 0.258585 0.237762 0.841161
O O9 0.000000 0.213700 0.750000
#
# Coordination Sequence:
#
# PCOD9527390 Si02
#       5
#    16  16   8  16   4
#     4  10  25  43  70  99 145 181 231 287 355 417
#     4  12  24  48  70 102 146 182 241 299 345 429
#     4  10  20  38  68 109 146 185 234 278 352 438
#     4  10  21  38  63  97 136 180 224 280 358 431
#     4  12  32  50  78 106 132 198 252 306 364 402
#
# _framework density 23.452787000000001
#
# number of rings (size 3 to 8) (size 9 to 14) (size 15 to 20)
#    0.800    0.533    1.333    4.000    0.000    9.600 
#    0.000    4.000    0.000    0.000    0.000    0.000 
#    0.000    0.000    0.000    0.000    0.000    0.000 
#
# Total GULP energy -167932.448136 kJ/mol
# GULP energy per Si atom -5597.748271 kJ/mol
# Density = 2.339941 g / cm^3
# Si number density = 23.452787 Si / 1000 Ang^3
#
#
#
# Elastic Constant Matrix: (Units=GPa)
#
#
# Indices 1 2 3 4 5 6 
#
# 1 190.1247 27.5619 74.6135 0.0000 0.0000 0.0000
# 2 27.5619 91.7249 42.9683 0.0000 0.0000 0.0000
# 3 74.6135 42.9683 158.0198 0.0000 0.0000 0.0000
# 4 0.0000 0.0000 0.0000 51.1916 0.0000 0.0000
# 5 0.0000 0.0000 0.0000 0.0000 20.3862 0.0000
# 6 0.0000 0.0000 0.0000 0.0000 0.0000 28.4020
#
#
#
# Elastic Compliance Matrix: (Units=1/GPa)
#
#
# Indices 1 2 3 4 5 6 
#
# 1 0.006484 -0.000589 -0.002901 0.000000 0.000000 0.000000
# 2 -0.000589 0.012547 -0.003134 0.000000 0.000000 0.000000
# 3 -0.002901 -0.003134 0.008550 0.000000 0.000000 0.000000
# 4 0.000000 0.000000 0.000000 0.019534 0.000000 0.000000
# 5 0.000000 0.000000 0.000000 0.000000 0.049053 0.000000
# 6 0.000000 0.000000 0.000000 0.000000 0.000000 0.035209
#
#
# Mechanical properties :
#
#
# Convention : Reuss Voigt Hill
#
# Bulk Modulus (GPa) = 69.76853 81.12853 75.44853
# Shear Modulus (GPa) = 33.46654 39.64433 36.55543
#
# Velocity S-wave (km/s) = 3.78163 4.11589 3.95230
# Velocity P-wave (km/s) = 6.99148 7.56669 7.28476
#
# Compressibility (1/GPa) = 0.01433311
#
# Stress axis : x y z
#
# Youngs Moduli (GPa) = 154.23296 79.69953 116.95483
#
# Poissons Ratio (x) = 0.04696 0.33932
# Poissons Ratio (y) = 0.09087 0.36649
# Poissons Ratio (z) = 0.44747 0.24975
#
# Static dielectric constant tensor:
#      x y z
#    x 1.789370 0.000000 0.000000 
#    y 0.000000 1.921400 0.000000 
#    z 0.000000 0.000000 1.938270 
# 
# From -- ./inp_files/41338.got.cif
#   From: 2010.05.17/outbox.cif.g08.bks.cpg/sg72_21_cif.got.tgz:41338.got - 2010.06.03 17:03:01.
