data_PCOD9527549
_publ_section_title
;
Structure prediction by ZEFSAII (Michael W. Deem and Ramdas Pophale) SiO2 
 PCOD9527549
Probable space group: I B A M
;
_chemical_formula_sum "Si O2"
_cell_formula_units_Z 100
_cell_length_a 27.635678
_cell_length_b 20.368825
_cell_length_c 7.639120
_cell_angle_alpha 90.000000
_cell_angle_beta 90.000000
_cell_angle_gamma 90.000000
_cell_volume 4300.108690
_symmetry_space_group_name_H-M "I B A M"
_symmetry_group_IT_number 72
_symmetry_cell_setting 'orthorhombic'
loop_
_space_group_symop_operation_xyz
x,y,z
-x,-y,z
x,-y,1/2-z
-x,y,1/2-z
-x,-y,-z
x,y,-z
-x,y,1/2+z
x,-y,1/2+z
1/2+x,1/2+y,1/2+z
1/2-x,1/2-y,1/2+z
1/2+x,1/2-y,-z
1/2-x,1/2+y,-z
1/2-x,1/2-y,1/2-z
1/2+x,1/2+y,1/2-z
1/2-x,1/2+y,z
1/2+x,1/2-y,z
loop_
_atom_site_type_symbol
_atom_site_label
_atom_site_fract_x
_atom_site_fract_y
_atom_site_fract_z
Si Si1 0.768667 0.321523 0.195307
Si Si2 0.445148 0.884288 0.289643
Si Si3 0.657109 0.927549 0.789109
Si Si4 0.555211 0.736107 0.208322
Si Si5 0.806566 0.071791 0.207610
Si Si6 0.500000 0.500000 0.750000
Si Si7 0.416010 0.404028 0.214975
O O1 0.750000 0.250000 0.250000
O O2 0.811096 0.366253 0.281682
O O3 0.723374 0.370915 0.202168
O O4 0.786715 0.309906 0.000000
O O5 0.500000 0.906078 0.250000
O O6 0.442886 0.882932 0.500000
O O7 0.398491 0.923452 0.225144
O O8 0.437789 0.809460 0.221998
O O9 0.676470 0.000000 0.750000
O O10 0.657094 0.922330 0.000000
O O11 0.500000 0.719294 0.250000
O O12 0.583900 0.672434 0.267723
O O13 0.562458 0.740223 0.000000
O O14 0.862794 0.071492 0.259523
O O15 0.786670 0.000000 0.250000
O O16 0.804243 0.083805 0.000000
O O17 0.541125 0.554229 0.696247
O O18 0.423696 0.409112 0.000000
#
# Coordination Sequence:
#
# PCOD9527549 Si02
#       7
#    16  16  16  16  16   4  16
#     4  11  25  45  69  98 127 164 211 267 326 388
#     4   9  19  36  60  89 123 160 201 249 301 368
#     4  10  23  42  66  93 127 167 208 255 314 376
#     4   9  17  32  52  75 107 151 198 243 299 357
#     4  11  23  41  63  90 126 169 213 265 324 385
#     4  12  18  36  52  82 124 160 216 264 312 384
#     4  10  21  33  53  80 115 162 206 257 318 374
#
# _framework density 23.255224999999999
#
# number of rings (size 3 to 8) (size 9 to 14) (size 15 to 20)
#    0.000    1.920    1.600    1.680    2.240    3.520 
#    0.000    3.200    0.000    0.000    0.000    0.000 
#    0.000    0.000    0.000    0.000    0.000    0.000 
#
# Total GULP energy -278726.989790 kJ/mol
# GULP energy per Si atom -5574.539796 kJ/mol
# Density = 2.320230 g / cm^3
# Si number density = 23.255225 Si / 1000 Ang^3
#
#
#
# Elastic Constant Matrix: (Units=GPa)
#
#
# Indices 1 2 3 4 5 6 
#
# 1 151.3791 68.0444 4.0470 0.0000 0.0000 0.0000
# 2 68.0444 154.4738 2.7722 0.0000 0.0000 0.0000
# 3 4.0470 2.7722 51.2147 0.0000 0.0000 0.0000
# 4 0.0000 0.0000 0.0000 -17.6847 0.0000 0.0000
# 5 0.0000 0.0000 0.0000 0.0000 4.2023 0.0000
# 6 0.0000 0.0000 0.0000 0.0000 0.0000 30.9380
#
#
#
# Elastic Compliance Matrix: (Units=1/GPa)
#
#
# Indices 1 2 3 4 5 6 
#
# 1 0.008247 -0.003625 -0.000456 0.000000 0.000000 0.000000
# 2 -0.003625 0.008073 -0.000151 0.000000 0.000000 0.000000
# 3 -0.000456 -0.000151 0.019570 0.000000 0.000000 0.000000
# 4 0.000000 0.000000 0.000000 -0.056546 0.000000 0.000000
# 5 0.000000 0.000000 0.000000 0.000000 0.237962 0.000000
# 6 0.000000 0.000000 0.000000 0.000000 0.000000 0.032323
#
#
# Mechanical properties :
#
#
# Convention : Reuss Voigt Hill
#
# Bulk Modulus (GPa) = 36.45838 56.31055 46.38446
# Shear Modulus (GPa) = 18.71023 22.30474 20.50748
#
# Velocity S-wave (km/s) = 2.83955 3.10034 2.97281
# Velocity P-wave (km/s) = 5.14415 6.08957 5.63672
#
# Compressibility (1/GPa) = 0.02742854
#
# Stress axis : x y z
#
# Youngs Moduli (GPa) = 121.25005 123.87029 51.09921
#
# Poissons Ratio (x) = 0.44900 0.02328
# Poissons Ratio (y) = 0.43950 0.00769
# Poissons Ratio (z) = 0.05523 0.01865
#
# Static dielectric constant tensor:
#      x y z
#    x 1.861120 0.000000 0.000000 
#    y 0.000000 1.880660 0.000000 
#    z 0.000000 0.000000 1.831760 
# 
# From -- ./inp_files/8185.got.cif
#   From: 2010.05.17/outbox.cif.g08.bks.cpg/sg72_5_cif.got.tgz:8185.got - 2010.06.03 17:03:01.
