data_PCOD9527749
_publ_section_title
;
Structure prediction by ZEFSAII (Michael W. Deem and Ramdas Pophale) SiO2 
 PCOD9527749
Probable space group: I B A M
;
_chemical_formula_sum "Si O2"
_cell_formula_units_Z 112
_cell_length_a 11.797853
_cell_length_b 32.149740
_cell_length_c 14.410318
_cell_angle_alpha 90.000000
_cell_angle_beta 90.000000
_cell_angle_gamma 90.000000
_cell_volume 5465.803450
_symmetry_space_group_name_H-M "I B A M"
_symmetry_group_IT_number 72
_symmetry_cell_setting 'orthorhombic'
loop_
_space_group_symop_operation_xyz
x,y,z
-x,-y,z
x,-y,1/2-z
-x,y,1/2-z
-x,-y,-z
x,y,-z
-x,y,1/2+z
x,-y,1/2+z
1/2+x,1/2+y,1/2+z
1/2-x,1/2-y,1/2+z
1/2+x,1/2-y,-z
1/2-x,1/2+y,-z
1/2-x,1/2-y,1/2-z
1/2+x,1/2+y,1/2-z
1/2-x,1/2+y,z
1/2+x,1/2-y,z
loop_
_atom_site_type_symbol
_atom_site_label
_atom_site_fract_x
_atom_site_fract_y
_atom_site_fract_z
Si Si1 0.484540 0.366854 0.109659
Si Si2 0.416563 0.722433 0.835369
Si Si3 0.206972 0.091879 0.894083
Si Si4 0.729974 0.884036 0.387561
Si Si5 0.697473 0.184883 0.608343
Si Si6 0.133072 0.450244 0.245982
Si Si7 0.054769 0.313877 0.892537
O O1 0.526515 0.319311 0.121733
O O2 0.580418 0.398905 0.144490
O O3 0.357683 0.373603 0.145249
O O4 0.481081 0.374075 0.000000
O O5 0.500000 0.730530 0.750000
O O6 0.285351 0.709428 0.827075
O O7 0.411540 0.765700 0.889742
O O8 0.260661 0.137827 0.897642
O O9 0.290285 0.065587 0.830979
O O10 0.200493 0.075891 0.000000
O O11 0.730123 0.886002 0.500000
O O12 0.685542 0.926675 0.342993
O O13 0.647182 0.846415 0.356555
O O14 0.700536 0.201310 0.500000
O O15 0.571369 0.184667 0.647932
O O16 0.138560 0.500000 0.250000
O O17 0.000000 0.438325 0.250000
O O18 0.038538 0.326411 0.000000
#
# Coordination Sequence:
#
# PCOD9527749 Si02
#       7
#    16  16  16  16  16  16  16
#     4   9  20  40  63  87 120 166 214 260 311 371
#     4  11  23  33  51  84 120 159 208 261 313 362
#     4   9  19  39  66  90 119 165 209 250 311 382
#     4  10  23  42  65  92 125 169 214 263 324 381
#     4   9  19  36  57  78 107 154 208 252 300 370
#     4  11  25  42  65  97 128 160 203 263 327 388
#     4  10  21  37  57  80 115 164 209 258 310 361
#
# _framework density 20.491040999999999
#
# number of rings (size 3 to 8) (size 9 to 14) (size 15 to 20)
#    0.000    2.143    0.000    3.000    6.000    4.571 
#    0.000    2.857    0.000    2.571    0.000    0.000 
#    0.000    0.000    0.000    0.000    0.000    0.000 
#
# Total GULP energy -312401.960339 kJ/mol
# GULP energy per Si atom -5578.606435 kJ/mol
# Density = 2.044440 g / cm^3
# Si number density = 20.491041 Si / 1000 Ang^3
#
#
#
# Elastic Constant Matrix: (Units=GPa)
#
#
# Indices 1 2 3 4 5 6 
#
# 1 203.5259 69.5364 44.2095 0.0000 0.0000 0.0000
# 2 69.5364 80.6494 24.0439 -0.0003 -0.0001 0.0000
# 3 44.2095 24.0439 72.1003 -0.0013 -0.0002 0.0001
# 4 0.0000 -0.0003 -0.0013 35.5570 0.0000 0.0002
# 5 0.0000 -0.0001 -0.0002 0.0000 17.5043 -0.0001
# 6 0.0000 0.0000 0.0001 0.0002 -0.0001 19.5856
#
#
#
# Elastic Compliance Matrix: (Units=1/GPa)
#
#
# Indices 1 2 3 4 5 6 
#
# 1 0.007403 -0.005585 -0.002677 0.000000 0.000000 0.000000
# 2 -0.005585 0.017981 -0.002572 0.000000 0.000000 0.000000
# 3 -0.002677 -0.002572 0.016369 0.000001 0.000000 0.000000
# 4 0.000000 0.000000 0.000001 0.028124 0.000000 0.000000
# 5 0.000000 0.000000 0.000000 0.000000 0.057129 0.000000
# 6 0.000000 0.000000 0.000000 0.000000 0.000000 0.051058
#
#
# Mechanical properties :
#
#
# Convention : Reuss Voigt Hill
#
# Bulk Modulus (GPa) = 49.78667 70.20613 59.99640
# Shear Modulus (GPa) = 24.22174 29.09510 26.65842
#
# Velocity S-wave (km/s) = 3.44185 3.77224 3.61082
# Velocity P-wave (km/s) = 6.33598 7.30132 6.83571
#
# Compressibility (1/GPa) = 0.02008570
#
# Stress axis : x y z
#
# Youngs Moduli (GPa) = 135.08155 55.61306 61.09259
#
# Poissons Ratio (x) = 0.31059 0.16353
# Poissons Ratio (y) = 0.75441 0.15713
# Poissons Ratio (z) = 0.36159 0.14304
#
# Static dielectric constant tensor:
#      x y z
#    x 1.771630 0.000000 0.000000 
#    y 0.000000 1.688230 0.000000 
#    z 0.000000 0.000000 1.806120 
# 
# From -- ./inp_files/20750.got.cif
#   From: 2010.05.17/outbox.cif.g08.bks.cpg/sg72_11_cif.got.tgz:20750.got - 2010.06.03 17:03:01.
