data_PCOD9527678
_publ_section_title
;
Structure prediction by ZEFSAII (Michael W. Deem and Ramdas Pophale) SiO2 
 PCOD9527678
Probable space group: I B A M
;
_chemical_formula_sum "Si O2"
_cell_formula_units_Z 88
_cell_length_a 20.955526
_cell_length_b 23.200556
_cell_length_c 9.532463
_cell_angle_alpha 90.000000
_cell_angle_beta 90.000000
_cell_angle_gamma 90.000000
_cell_volume 4634.491474
_symmetry_space_group_name_H-M "I B A M"
_symmetry_group_IT_number 72
_symmetry_cell_setting 'orthorhombic'
loop_
_space_group_symop_operation_xyz
x,y,z
-x,-y,z
x,-y,1/2-z
-x,y,1/2-z
-x,-y,-z
x,y,-z
-x,y,1/2+z
x,-y,1/2+z
1/2+x,1/2+y,1/2+z
1/2-x,1/2-y,1/2+z
1/2+x,1/2-y,-z
1/2-x,1/2+y,-z
1/2-x,1/2-y,1/2-z
1/2+x,1/2+y,1/2-z
1/2-x,1/2+y,z
1/2+x,1/2-y,z
loop_
_atom_site_type_symbol
_atom_site_label
_atom_site_fract_x
_atom_site_fract_y
_atom_site_fract_z
Si Si1 0.346802 0.335011 0.336635
Si Si2 0.000000 0.647943 0.750000
Si Si3 0.608702 0.231125 0.652356
Si Si4 0.292402 0.127466 0.836501
Si Si5 0.105318 0.443020 0.836906
Si Si6 0.433858 0.446742 0.666131
O O1 0.336896 0.320793 0.500000
O O2 0.379185 0.280422 0.264436
O O3 0.277518 0.355336 0.282421
O O4 0.392741 0.389518 0.324485
O O5 0.045976 0.691530 0.833308
O O6 0.049220 0.605062 0.672049
O O7 0.608196 0.259418 0.500000
O O8 0.666469 0.185918 0.661418
O O9 0.332373 0.083463 0.740483
O O10 0.288266 0.106882 0.000000
O O11 0.086388 0.500000 0.750000
O O12 0.117014 0.456441 0.000000
O O13 0.402437 0.500000 0.750000
O O14 0.500000 0.437888 0.750000
O O15 0.442790 0.459343 0.500000
#
# Coordination Sequence:
#
# PCOD9527678 Si02
#       6
#    16   8  16  16  16  16
#     4  10  22  38  59  86 117 151 189 236 291 350
#     4  10  23  40  58  86 121 160 202 244 294 350
#     4  10  21  36  58  85 115 153 196 240 286 341
#     4   9  20  40  59  82 118 155 194 240 289 344
#     4  11  23  39  62  89 120 158 202 249 298 353
#     4  10  21  38  58  81 109 143 181 228 282 338
#
# _framework density 18.988059
#
# number of rings (size 3 to 8) (size 9 to 14) (size 15 to 20)
#    0.000    2.000    0.000    3.000    1.273    9.455 
#    0.000    1.818    0.000    0.000    0.000    0.000 
#    0.000    0.000    0.000    0.000    0.000    0.000 
#
# Total GULP energy -245358.539345 kJ/mol
# GULP energy per Si atom -5576.330440 kJ/mol
# Density = 1.894484 g / cm^3
# Si number density = 18.988059 Si / 1000 Ang^3
#
#
#
# Elastic Constant Matrix: (Units=GPa)
#
#
# Indices 1 2 3 4 5 6 
#
# 1 76.8812 58.0033 40.9353 0.0000 0.0000 0.0000
# 2 58.0033 69.8918 48.1874 0.0000 0.0000 0.0000
# 3 40.9353 48.1874 118.3600 0.0000 0.0000 0.0000
# 4 0.0000 0.0000 0.0000 28.5982 0.0000 0.0000
# 5 0.0000 0.0000 0.0000 0.0000 7.9185 0.0000
# 6 0.0000 0.0000 0.0000 0.0000 0.0000 14.6929
#
#
#
# Elastic Compliance Matrix: (Units=1/GPa)
#
#
# Indices 1 2 3 4 5 6 
#
# 1 0.034802 -0.028616 -0.000386 0.000000 0.000000 0.000000
# 2 -0.028616 0.043421 -0.007781 0.000000 0.000000 0.000000
# 3 -0.000386 -0.007781 0.011750 0.000000 0.000000 0.000000
# 4 0.000000 0.000000 0.000000 0.034967 0.000000 0.000000
# 5 0.000000 0.000000 0.000000 0.000000 0.126286 0.000000
# 6 0.000000 0.000000 0.000000 0.000000 0.000000 0.068060
#
#
# Mechanical properties :
#
#
# Convention : Reuss Voigt Hill
#
# Bulk Modulus (GPa) = 60.94909 62.15389 61.55149
# Shear Modulus (GPa) = 12.55263 18.10906 15.33085
#
# Velocity S-wave (km/s) = 2.57394 3.09157 2.84455
# Velocity P-wave (km/s) = 6.40327 6.74892 6.57837
#
# Compressibility (1/GPa) = 0.01640714
#
# Stress axis : x y z
#
# Youngs Moduli (GPa) = 28.73357 23.03020 85.10585
#
# Poissons Ratio (x) = 0.65904 0.03286
# Poissons Ratio (y) = 0.82225 0.66219
# Poissons Ratio (z) = 0.01109 0.17919
#
# Static dielectric constant tensor:
#      x y z
#    x 1.673850 0.000000 0.000000 
#    y 0.000000 1.628760 0.000000 
#    z 0.000000 0.000000 1.663770 
# 
# From -- ./inp_files/6853.got.cif
#   From: 2010.05.17/outbox.cif.g08.bks.cpg/sg72_4_cif.got.tgz:6853.got - 2010.06.03 17:03:01.
