data_PCOD9527875
_publ_section_title
;
Structure prediction by ZEFSAII (Michael W. Deem and Ramdas Pophale) SiO2 
 PCOD9527875
Probable space group: I B A M
;
_chemical_formula_sum "Si O2"
_cell_formula_units_Z 80
_cell_length_a 9.027403
_cell_length_b 13.900504
_cell_length_c 27.592615
_cell_angle_alpha 90.000000
_cell_angle_beta 90.000000
_cell_angle_gamma 90.000000
_cell_volume 3462.471752
_symmetry_space_group_name_H-M "I B A M"
_symmetry_group_IT_number 72
_symmetry_cell_setting 'orthorhombic'
loop_
_space_group_symop_operation_xyz
x,y,z
-x,-y,z
x,-y,1/2-z
-x,y,1/2-z
-x,-y,-z
x,y,-z
-x,y,1/2+z
x,-y,1/2+z
1/2+x,1/2+y,1/2+z
1/2-x,1/2-y,1/2+z
1/2+x,1/2-y,-z
1/2-x,1/2+y,-z
1/2-x,1/2-y,1/2-z
1/2+x,1/2+y,1/2-z
1/2-x,1/2+y,z
1/2+x,1/2-y,z
loop_
_atom_site_type_symbol
_atom_site_label
_atom_site_fract_x
_atom_site_fract_y
_atom_site_fract_z
Si Si1 0.028220 0.630232 0.000000
Si Si2 0.114973 0.206031 0.651857
Si Si3 0.883268 0.422325 0.108462
Si Si4 0.880663 0.288243 0.284292
Si Si5 0.295784 0.262939 0.500000
Si Si6 0.571236 0.407641 0.077532
O O1 0.075547 0.585553 0.050877
O O2 0.120024 0.730492 0.000000
O O3 0.857101 0.656189 0.000000
O O4 0.110701 0.317576 0.633802
O O5 0.276816 0.175644 0.671349
O O6 0.986813 0.206556 0.692879
O O7 0.055385 0.141594 0.608956
O O8 0.709555 0.446572 0.109332
O O9 0.000000 0.500000 0.128845
O O10 0.750000 0.250000 0.250000
O O11 0.000000 0.344768 0.250000
O O12 0.356761 0.323495 0.454644
O O13 0.500000 0.500000 0.052343
#
# Coordination Sequence:
#
# PCOD9527875 Si02
#       6
#     8  16  16  16   8  16
#     4  10  21  38  58  87 129 171 215 261 313 370
#     4  11  20  39  66  93 125 160 215 260 314 382
#     4  11  24  38  60  93 129 172 215 260 315 374
#     4   9  20  38  66  96 118 158 199 253 328 393
#     4  10  21  38  58  87 129 171 215 259 315 366
#     4  11  24  38  60  93 129 172 215 261 312 372
#
# _framework density 23.104883999999998
#
# number of rings (size 3 to 8) (size 9 to 14) (size 15 to 20)
#    0.000    1.600    4.000    0.600    2.800    1.600 
#    0.000    0.000    0.000   18.000    0.000    0.000 
#    0.000    0.000    0.000    0.000    0.000    0.000 
#
# Total GULP energy -222832.618329 kJ/mol
# GULP energy per Si atom -5570.815458 kJ/mol
# Density = 2.305230 g / cm^3
# Si number density = 23.104884 Si / 1000 Ang^3
#
#
#
# Elastic Constant Matrix: (Units=GPa)
#
#
# Indices 1 2 3 4 5 6 
#
# 1 156.2358 39.0819 26.8385 0.0000 0.0000 0.0000
# 2 39.0819 71.1890 16.7772 0.0000 0.0000 0.0000
# 3 26.8385 16.7772 76.7934 0.0000 0.0000 0.0000
# 4 0.0000 0.0000 0.0000 260.0852 0.0000 0.0000
# 5 0.0000 0.0000 0.0000 0.0000 41.6933 0.0000
# 6 0.0000 0.0000 0.0000 0.0000 0.0000 29.9529
#
#
#
# Elastic Compliance Matrix: (Units=1/GPa)
#
#
# Indices 1 2 3 4 5 6 
#
# 1 0.007662 -0.003769 -0.001854 0.000000 0.000000 0.000000
# 2 -0.003769 0.016664 -0.002323 0.000000 0.000000 0.000000
# 3 -0.001854 -0.002323 0.014178 0.000000 0.000000 0.000000
# 4 0.000000 0.000000 0.000000 0.003845 0.000000 0.000000
# 5 0.000000 0.000000 0.000000 0.000000 0.023985 0.000000
# 6 0.000000 0.000000 0.000000 0.000000 0.000000 0.033386
#
#
# Mechanical properties :
#
#
# Convention : Reuss Voigt Hill
#
# Bulk Modulus (GPa) = 44.22871 52.17925 48.20398
# Shear Modulus (GPa) = 40.60114 81.11432 60.85773
#
# Velocity S-wave (km/s) = 4.19651 5.93154 5.13780
# Velocity P-wave (km/s) = 6.53185 8.33928 7.49028
#
# Compressibility (1/GPa) = 0.02260975
#
# Stress axis : x y z
#
# Youngs Moduli (GPa) = 130.51409 60.00973 70.53395
#
# Poissons Ratio (x) = 0.22620 0.13079
# Poissons Ratio (y) = 0.49195 0.16387
# Poissons Ratio (z) = 0.24201 0.13942
#
# Static dielectric constant tensor:
#      x y z
#    x 1.884760 0.000000 0.000000 
#    y 0.000000 1.855250 0.000000 
#    z 0.000000 0.000000 2.027150 
# 
# From -- ./inp_files/47209.got.cif
#   From: 2010.05.17/outbox.cif.g08.bks.cpg/sg72_24_cif.got.tgz:47209.got - 2010.06.03 17:03:01.
