data_PCOD9527081
_publ_section_title
;
Structure prediction by ZEFSAII (Michael W. Deem and Ramdas Pophale) SiO2 
 PCOD9527081
Probable space group: I B A M
;
_chemical_formula_sum "Si O2"
_cell_formula_units_Z 96
_cell_length_a 19.090740
_cell_length_b 31.427301
_cell_length_c 8.755687
_cell_angle_alpha 90.000000
_cell_angle_beta 90.000000
_cell_angle_gamma 90.000000
_cell_volume 5253.153314
_symmetry_space_group_name_H-M "I B A M"
_symmetry_group_IT_number 72
_symmetry_cell_setting 'orthorhombic'
loop_
_space_group_symop_operation_xyz
x,y,z
-x,-y,z
x,-y,1/2-z
-x,y,1/2-z
-x,-y,-z
x,y,-z
-x,y,1/2+z
x,-y,1/2+z
1/2+x,1/2+y,1/2+z
1/2-x,1/2-y,1/2+z
1/2+x,1/2-y,-z
1/2-x,1/2+y,-z
1/2-x,1/2-y,1/2-z
1/2+x,1/2+y,1/2-z
1/2-x,1/2+y,z
1/2+x,1/2-y,z
loop_
_atom_site_type_symbol
_atom_site_label
_atom_site_fract_x
_atom_site_fract_y
_atom_site_fract_z
Si Si1 0.166754 0.953830 0.183480
Si Si2 0.169781 0.794546 0.683478
Si Si3 0.667048 0.797161 0.182290
Si Si4 0.577768 0.376434 0.183510
Si Si5 0.577736 0.126143 0.183366
Si Si6 0.829586 0.454240 0.316389
O O1 0.118692 0.917057 0.251272
O O2 0.248374 0.946059 0.226576
O O3 0.147445 0.000000 0.250000
O O4 0.161731 0.954425 0.000000
O O5 0.166718 0.788792 0.500000
O O6 0.250945 0.804031 0.723343
O O7 0.149157 0.750419 0.762707
O O8 0.120699 0.833871 0.726107
O O9 0.619129 0.832376 0.260246
O O10 0.660294 0.800152 0.000000
O O11 0.500000 0.374795 0.250000
O O12 0.575492 0.378977 0.000000
O O13 0.500000 0.125484 0.250000
O O14 0.621025 0.084293 0.233820
O O15 0.574852 0.126272 0.000000
O O16 0.850304 0.500000 0.250000
O O17 0.832140 0.456662 0.500000
#
# Coordination Sequence:
#
# PCOD9527081 Si02
#       6
#    16  16  16  16  16  16
#     4  10  20  37  60  85 111 142 182 227 275 325
#     4   9  20  38  59  83 112 146 185 229 276 328
#     4  10  20  36  60  86 110 143 186 231 278 326
#     4  11  23  38  56  81 113 148 184 224 273 327
#     4  11  23  38  55  80 114 150 186 226 276 331
#     4   9  20  37  59  84 110 143 183 228 275 325
#
# _framework density 18.274737999999999
#
# number of rings (size 3 to 8) (size 9 to 14) (size 15 to 20)
#    0.000    2.000    0.000    3.000    0.000    5.333 
#    0.000    5.000    0.000    0.000    0.000    0.000 
#    0.000    0.000    0.000    0.000    0.000    0.000 
#
# Total GULP energy -268181.373707 kJ/mol
# GULP energy per Si atom -5587.111952 kJ/mol
# Density = 1.823314 g / cm^3
# Si number density = 18.274738 Si / 1000 Ang^3
#
#
#
# Elastic Constant Matrix: (Units=GPa)
#
#
# Indices 1 2 3 4 5 6 
#
# 1 131.8001 133.6044 55.9058 0.0003 -0.0011 -0.0001
# 2 133.6044 195.1728 67.2107 -0.0008 0.0015 0.0000
# 3 55.9058 67.2107 53.5845 -0.0137 -0.0183 0.0001
# 4 0.0003 -0.0008 -0.0137 34.6189 0.0038 0.0003
# 5 -0.0011 0.0015 -0.0183 0.0038 7.2425 0.0027
# 6 -0.0001 0.0000 0.0001 0.0003 0.0027 -13.7870
#
#
#
# Elastic Compliance Matrix: (Units=1/GPa)
#
#
# Indices 1 2 3 4 5 6 
#
# 1 0.026937 -0.015423 -0.008758 -0.000004 -0.000015 0.000000
# 2 -0.015423 0.017851 -0.006298 -0.000002 -0.000022 0.000000
# 3 -0.008758 -0.006298 0.035700 0.000014 0.000090 0.000000
# 4 -0.000004 -0.000002 0.000014 0.028886 -0.000015 0.000001
# 5 -0.000015 -0.000022 0.000090 -0.000015 0.138074 0.000028
# 6 0.000000 0.000000 0.000000 0.000001 0.000028 -0.072532
#
#
# Mechanical properties :
#
#
# Convention : Reuss Voigt Hill
#
# Bulk Modulus (GPa) = 51.21058 99.33324 75.27191
# Shear Modulus (GPa) = 20.62840 13.87065 17.24952
#
# Velocity S-wave (km/s) = 3.36340 2.75800 3.07563
# Velocity P-wave (km/s) = 6.57014 8.03838 7.34106
#
# Compressibility (1/GPa) = 0.01952721
#
# Stress axis : x y z
#
# Youngs Moduli (GPa) = 37.12408 56.02060 28.01134
#
# Poissons Ratio (x) = 0.86402 0.24533
# Poissons Ratio (y) = 0.57258 0.17643
# Poissons Ratio (z) = 0.32514 0.35284
#
# Static dielectric constant tensor:
#      x y z
#    x 1.606860 0.000000 0.000000 
#    y 0.000000 1.594680 0.000000 
#    z 0.000000 0.000000 1.615830 
# 
# From -- ./inp_files/5998.got.cif
#   From: 2010.05.17/outbox.cif.g08.bks.cpg/sg72_3_cif.got.tgz:5998.got - 2010.06.03 17:03:01.
