data_PCOD9527134
_publ_section_title
;
Structure prediction by ZEFSAII (Michael W. Deem and Ramdas Pophale) SiO2 
 PCOD9527134
Probable space group: I B A M
;
_chemical_formula_sum "Si O2"
_cell_formula_units_Z 72
_cell_length_a 8.228314
_cell_length_b 13.725142
_cell_length_c 28.602273
_cell_angle_alpha 90.000000
_cell_angle_beta 90.000000
_cell_angle_gamma 90.000000
_cell_volume 3230.191354
_symmetry_space_group_name_H-M "I B A M"
_symmetry_group_IT_number 72
_symmetry_cell_setting 'orthorhombic'
loop_
_space_group_symop_operation_xyz
x,y,z
-x,-y,z
x,-y,1/2-z
-x,y,1/2-z
-x,-y,-z
x,y,-z
-x,y,1/2+z
x,-y,1/2+z
1/2+x,1/2+y,1/2+z
1/2-x,1/2-y,1/2+z
1/2+x,1/2-y,-z
1/2-x,1/2+y,-z
1/2-x,1/2-y,1/2-z
1/2+x,1/2+y,1/2-z
1/2-x,1/2+y,z
1/2+x,1/2-y,z
loop_
_atom_site_type_symbol
_atom_site_label
_atom_site_fract_x
_atom_site_fract_y
_atom_site_fract_z
Si Si1 0.000000 0.000000 0.750000
Si Si2 0.692532 0.135343 0.500000
Si Si3 0.000000 0.500000 0.750000
Si Si4 0.199465 0.637186 0.101555
Si Si5 0.408533 0.638972 0.601787
Si Si6 0.242088 0.504150 0.321651
Si Si7 0.915724 0.138927 0.000000
O O1 0.124375 0.952523 0.712470
O O2 0.639583 0.098456 0.550948
O O3 0.636754 0.248263 0.500000
O O4 0.888938 0.132490 0.500000
O O5 0.880139 0.444819 0.714705
O O6 0.396341 0.634046 0.102844
O O7 0.143561 0.748672 0.105419
O O8 0.151004 0.573178 0.145687
O O9 0.328715 0.577451 0.642887
O O10 0.357575 0.599472 0.550058
#
# Coordination Sequence:
#
# PCOD9527134 Si02
#       7
#     4   8   4  16  16  16   8
#     4  10  20  42  62  76 108 148 188 250 298 328
#     4   8  16  31  53  88 123 149 181 224 274 336
#     4  10  28  42  62  80 112 152 192 266 294 332
#     4  10  20  36  62  90 120 154 188 229 282 349
#     4  10  20  36  62  90 120 154 188 229 282 349
#     4  11  22  43  61  80 115 150 196 244 300 335
#     4   8  16  31  53  88 123 149 181 224 274 336
#
# _framework density 22.289701999999998
#
# number of rings (size 3 to 8) (size 9 to 14) (size 15 to 20)
#    0.000    2.222    2.222    0.000    3.111    0.889 
#    0.000   10.000    0.000    1.333    0.000    0.000 
#    0.000    0.000    0.000    0.000    0.000    0.000 
#
# Total GULP energy -200542.443287 kJ/mol
# GULP energy per Si atom -5570.623425 kJ/mol
# Density = 2.223897 g / cm^3
# Si number density = 22.289702 Si / 1000 Ang^3
#
#
#
# Elastic Constant Matrix: (Units=GPa)
#
#
# Indices 1 2 3 4 5 6 
#
# 1 51.6550 15.8282 55.0023 0.0000 0.0000 0.0000
# 2 15.8282 67.4109 43.2271 0.0000 0.0000 0.0000
# 3 55.0023 43.2271 214.7100 0.0000 0.0000 0.0000
# 4 0.0000 0.0000 0.0000 22.8082 0.0000 0.0000
# 5 0.0000 0.0000 0.0000 0.0000 -2.5071 0.0000
# 6 0.0000 0.0000 0.0000 0.0000 0.0000 29.4374
#
#
#
# Elastic Compliance Matrix: (Units=1/GPa)
#
#
# Indices 1 2 3 4 5 6 
#
# 1 0.026896 -0.002178 -0.006451 0.000000 0.000000 0.000000
# 2 -0.002178 0.017210 -0.002907 0.000000 0.000000 0.000000
# 3 -0.006451 -0.002907 0.006895 0.000000 0.000000 0.000000
# 4 0.000000 0.000000 0.000000 0.043844 0.000000 0.000000
# 5 0.000000 0.000000 0.000000 0.000000 -0.398865 0.000000
# 6 0.000000 0.000000 0.000000 0.000000 0.000000 0.033970
#
#
# Mechanical properties :
#
#
# Convention : Reuss Voigt Hill
#
# Bulk Modulus (GPa) = 35.80599 62.43236 49.11918
# Shear Modulus (GPa) = -21.03788 24.59559 1.77885
#
# Velocity S-wave (km/s) = -3.07553 3.32543 0.89431
# Velocity P-wave (km/s) = 1.86734 6.54331 4.81154
#
# Compressibility (1/GPa) = 0.02792828
#
# Stress axis : x y z
#
# Youngs Moduli (GPa) = 37.17994 58.10627 145.02552
#
# Poissons Ratio (x) = 0.12657 0.93563
# Poissons Ratio (y) = 0.08099 0.42156
# Poissons Ratio (z) = 0.23986 0.16890
#
# Static dielectric constant tensor:
#      x y z
#    x 1.878850 0.000000 0.000000 
#    y 0.000000 1.888120 0.000000 
#    z 0.000000 0.000000 1.877790 
# 
# From -- ./inp_files/50733.got.cif
#   From: 2010.05.17/outbox.cif.g08.bks.cpg/sg72_26_cif.got.tgz:50733.got - 2010.06.03 17:03:01.
