data_PCOD9527448
_publ_section_title
;
Structure prediction by ZEFSAII (Michael W. Deem and Ramdas Pophale) SiO2 
 PCOD9527448
Probable space group: I B A M
;
_chemical_formula_sum "Si O2"
_cell_formula_units_Z 116
_cell_length_a 18.879746
_cell_length_b 19.473740
_cell_length_c 15.209020
_cell_angle_alpha 90.000000
_cell_angle_beta 90.000000
_cell_angle_gamma 90.000000
_cell_volume 5591.737113
_symmetry_space_group_name_H-M "I B A M"
_symmetry_group_IT_number 72
_symmetry_cell_setting 'orthorhombic'
loop_
_space_group_symop_operation_xyz
x,y,z
-x,-y,z
x,-y,1/2-z
-x,y,1/2-z
-x,-y,-z
x,y,-z
-x,y,1/2+z
x,-y,1/2+z
1/2+x,1/2+y,1/2+z
1/2-x,1/2-y,1/2+z
1/2+x,1/2-y,-z
1/2-x,1/2+y,-z
1/2-x,1/2-y,1/2-z
1/2+x,1/2+y,1/2-z
1/2-x,1/2+y,z
1/2+x,1/2-y,z
loop_
_atom_site_type_symbol
_atom_site_label
_atom_site_fract_x
_atom_site_fract_y
_atom_site_fract_z
Si Si1 0.500000 0.500000 0.000000
Si Si2 0.871460 0.994252 0.641474
Si Si3 0.254522 0.599534 0.872323
Si Si4 0.115835 0.361353 0.098176
Si Si5 0.329492 0.233308 0.900200
Si Si6 0.966408 0.645659 0.393010
Si Si7 0.618125 0.014917 0.352807
Si Si8 0.272078 0.632078 0.329365
O O1 0.439287 0.487483 0.079008
O O2 0.818482 0.929055 0.628837
O O3 0.884355 0.000000 0.750000
O O4 0.827614 0.061336 0.607852
O O5 0.231801 0.675159 0.903167
O O6 0.188405 0.549863 0.892929
O O7 0.258089 0.607521 0.768226
O O8 0.103504 0.443421 0.100496
O O9 0.193849 0.352990 0.134643
O O10 0.043828 0.333146 0.141552
O O11 0.117903 0.333671 0.000000
O O12 0.401501 0.195593 0.871541
O O13 0.312522 0.296288 0.837643
O O14 0.338117 0.259670 0.000000
O O15 0.969429 0.642588 0.500000
O O16 0.943397 0.570772 0.360389
O O17 0.630650 0.000000 0.250000
#
# Coordination Sequence:
#
# PCOD9527448 Si02
#       8
#     4  16  16  16  16  16  16  16
#     4  12  26  40  72  98 128 170 218 270 348 382
#     4  10  23  43  68 100 133 161 216 279 329 388
#     4  10  20  40  63  91 130 162 204 264 322 380
#     4  11  21  33  56  87 123 155 205 256 307 371
#     4  10  22  38  61  87 125 173 220 257 315 388
#     4   9  21  37  50  80 127 169 197 254 316 369
#     4  11  18  33  54  89 119 160 199 248 306 375
#     4  11  21  40  65  93 122 169 213 265 317 375
#
# _framework density 20.744895
#
# number of rings (size 3 to 8) (size 9 to 14) (size 15 to 20)
#    0.000    1.655    2.759    2.276    2.897    2.759 
#    0.000    1.379    3.034    3.310    0.000    0.000 
#    0.000    0.000    0.000    0.000    0.000    0.000 
#
# Total GULP energy -323040.903925 kJ/mol
# GULP energy per Si atom -5569.670757 kJ/mol
# Density = 2.069768 g / cm^3
# Si number density = 20.744895 Si / 1000 Ang^3
#
#
#
# Elastic Constant Matrix: (Units=GPa)
#
#
# Indices 1 2 3 4 5 6 
#
# 1 122.2775 33.1500 33.2963 0.0000 0.0000 0.0000
# 2 33.1500 65.5647 1.5489 0.0000 0.0000 0.0000
# 3 33.2963 1.5489 56.7697 0.0000 0.0000 0.0000
# 4 0.0000 0.0000 0.0000 6.3736 0.0000 0.0000
# 5 0.0000 0.0000 0.0000 0.0000 29.0098 0.0000
# 6 0.0000 0.0000 0.0000 0.0000 0.0000 11.4223
#
#
#
# Elastic Compliance Matrix: (Units=1/GPa)
#
#
# Indices 1 2 3 4 5 6 
#
# 1 0.011510 -0.005664 -0.006596 0.000000 0.000000 0.000000
# 2 -0.005664 0.018049 0.002829 0.000000 0.000000 0.000000
# 3 -0.006596 0.002829 0.021406 0.000000 0.000000 0.000000
# 4 0.000000 0.000000 0.000000 0.156898 0.000000 0.000000
# 5 0.000000 0.000000 0.000000 0.000000 0.034471 0.000000
# 6 0.000000 0.000000 0.000000 0.000000 0.000000 0.087548
#
#
# Mechanical properties :
#
#
# Convention : Reuss Voigt Hill
#
# Bulk Modulus (GPa) = 31.14843 42.28916 36.71879
# Shear Modulus (GPa) = 13.91039 21.13560 17.52300
#
# Velocity S-wave (km/s) = 2.59230 3.19538 2.90951
# Velocity P-wave (km/s) = 4.89975 5.83468 5.38754
#
# Compressibility (1/GPa) = 0.03210435
#
# Stress axis : x y z
#
# Youngs Moduli (GPa) = 86.88376 55.40540 46.71480
#
# Poissons Ratio (x) = 0.31379 0.30813
# Poissons Ratio (y) = 0.49207 -0.13217
# Poissons Ratio (z) = 0.57309 -0.15676
#
# Static dielectric constant tensor:
#      x y z
#    x 1.784310 0.000000 0.000000 
#    y 0.000000 1.724470 0.000000 
#    z 0.000000 0.000000 1.795660 
# 
# From -- ./inp_files/31723.got.cif
#   From: 2010.05.17/outbox.cif.g08.bks.cpg/sg72_16_cif.got.tgz:31723.got - 2010.06.03 17:03:01.
