data_PCOD9527774
_publ_section_title
;
Structure prediction by ZEFSAII (Michael W. Deem and Ramdas Pophale) SiO2 
 PCOD9527774
Probable space group: I B A M
;
_chemical_formula_sum "Si O2"
_cell_formula_units_Z 80
_cell_length_a 16.535818
_cell_length_b 9.942228
_cell_length_c 26.259783
_cell_angle_alpha 90.000000
_cell_angle_beta 90.000000
_cell_angle_gamma 90.000000
_cell_volume 4317.183762
_symmetry_space_group_name_H-M "I B A M"
_symmetry_group_IT_number 72
_symmetry_cell_setting 'orthorhombic'
loop_
_space_group_symop_operation_xyz
x,y,z
-x,-y,z
x,-y,1/2-z
-x,y,1/2-z
-x,-y,-z
x,y,-z
-x,y,1/2+z
x,-y,1/2+z
1/2+x,1/2+y,1/2+z
1/2-x,1/2-y,1/2+z
1/2+x,1/2-y,-z
1/2-x,1/2+y,-z
1/2-x,1/2-y,1/2-z
1/2+x,1/2+y,1/2-z
1/2-x,1/2+y,z
1/2+x,1/2-y,z
loop_
_atom_site_type_symbol
_atom_site_label
_atom_site_fract_x
_atom_site_fract_y
_atom_site_fract_z
Si Si1 0.596104 0.971889 0.857223
Si Si2 0.233488 0.624403 0.214091
Si Si3 0.906423 0.973195 0.056438
Si Si4 0.673713 0.261909 0.119025
Si Si5 0.660675 0.236477 0.439217
O O1 0.643900 0.901034 0.809988
O O2 0.613240 0.875116 0.905939
O O3 0.500000 0.000000 0.850095
O O4 0.642696 0.114082 0.866104
O O5 0.253811 0.500000 0.250000
O O6 0.250000 0.750000 0.250000
O O7 0.290887 0.653581 0.166157
O O8 0.895572 0.849017 0.093462
O O9 0.867857 0.112864 0.074433
O O10 0.872430 0.943479 0.000000
O O11 0.000000 0.000000 0.051583
O O12 0.746297 0.263377 0.078126
O O13 0.650511 0.216544 0.500000
#
# Coordination Sequence:
#
# PCOD9527774 Si02
#       5
#    16  16  16  16  16
#     4  11  24  40  63  93 125 161 203 263 319 369
#     4  11  23  44  65  88 117 158 205 257 314 372
#     4  10  21  37  58  86 124 162 195 242 302 361
#     4  11  22  38  62  89 119 159 206 255 300 368
#     4  10  21  37  60  90 124 164 206 244 296 369
#
# _framework density 18.530598000000001
#
# number of rings (size 3 to 8) (size 9 to 14) (size 15 to 20)
#    0.000    1.400    2.000    4.200    2.800    4.000 
#    0.000    0.000    0.000    0.000    0.000    0.000 
#    0.000    0.000    0.000    0.000    0.000    0.000 
#
# Total GULP energy -223031.374480 kJ/mol
# GULP energy per Si atom -5575.784362 kJ/mol
# Density = 1.848842 g / cm^3
# Si number density = 18.530598 Si / 1000 Ang^3
#
#
#
# Elastic Constant Matrix: (Units=GPa)
#
#
# Indices 1 2 3 4 5 6 
#
# 1 74.8069 25.9699 16.5568 0.0000 0.0000 0.0000
# 2 25.9699 105.4462 55.3477 0.0000 0.0000 0.0000
# 3 16.5568 55.3477 68.4577 0.0000 0.0000 0.0000
# 4 0.0000 0.0000 0.0000 45.3912 0.0000 0.0000
# 5 0.0000 0.0000 0.0000 0.0000 26.6719 0.0000
# 6 0.0000 0.0000 0.0000 0.0000 0.0000 35.5895
#
#
#
# Elastic Compliance Matrix: (Units=1/GPa)
#
#
# Indices 1 2 3 4 5 6 
#
# 1 0.014664 -0.003040 -0.001089 0.000000 0.000000 0.000000
# 2 -0.003040 0.017105 -0.013094 0.000000 0.000000 0.000000
# 3 -0.001089 -0.013094 0.025458 0.000000 0.000000 0.000000
# 4 0.000000 0.000000 0.000000 0.022031 0.000000 0.000000
# 5 0.000000 0.000000 0.000000 0.000000 0.037493 0.000000
# 6 0.000000 0.000000 0.000000 0.000000 0.000000 0.028098
#
#
# Mechanical properties :
#
#
# Convention : Reuss Voigt Hill
#
# Bulk Modulus (GPa) = 43.89660 49.38438 46.64049
# Shear Modulus (GPa) = 26.75397 31.58629 29.17013
#
# Velocity S-wave (km/s) = 3.80382 4.13310 3.97187
# Velocity P-wave (km/s) = 6.55990 7.03453 6.80136
#
# Compressibility (1/GPa) = 0.02278081
#
# Stress axis : x y z
#
# Youngs Moduli (GPa) = 68.19369 58.46133 39.28113
#
# Poissons Ratio (x) = 0.17773 0.04276
# Poissons Ratio (y) = 0.20732 0.51436
# Poissons Ratio (z) = 0.07424 0.76551
#
# Static dielectric constant tensor:
#      x y z
#    x 1.655640 0.000000 0.000000 
#    y 0.000000 1.569210 0.000000 
#    z 0.000000 0.000000 1.677260 
# 
# From -- ./inp_files/47167.got.cif
#   From: 2010.05.17/outbox.cif.g08.bks.cpg/sg72_24_cif.got.tgz:47167.got - 2010.06.03 17:03:01.
