data_PCOD9527548
_publ_section_title
;
Structure prediction by ZEFSAII (Michael W. Deem and Ramdas Pophale) SiO2 
 PCOD9527548
Probable space group: I B A M
;
_chemical_formula_sum "Si O2"
_cell_formula_units_Z 72
_cell_length_a 23.820299
_cell_length_b 16.199063
_cell_length_c 10.372178
_cell_angle_alpha 90.000000
_cell_angle_beta 90.000000
_cell_angle_gamma 90.000000
_cell_volume 4002.276273
_symmetry_space_group_name_H-M "I B A M"
_symmetry_group_IT_number 72
_symmetry_cell_setting 'orthorhombic'
loop_
_space_group_symop_operation_xyz
x,y,z
-x,-y,z
x,-y,1/2-z
-x,y,1/2-z
-x,-y,-z
x,y,-z
-x,y,1/2+z
x,-y,1/2+z
1/2+x,1/2+y,1/2+z
1/2-x,1/2-y,1/2+z
1/2+x,1/2-y,-z
1/2-x,1/2+y,-z
1/2-x,1/2-y,1/2-z
1/2+x,1/2+y,1/2-z
1/2-x,1/2+y,z
1/2+x,1/2-y,z
loop_
_atom_site_type_symbol
_atom_site_label
_atom_site_fract_x
_atom_site_fract_y
_atom_site_fract_z
Si Si1 0.358306 0.500000 0.250000
Si Si2 0.544826 0.609540 0.857930
Si Si3 0.294162 0.347769 0.353411
Si Si4 0.170672 0.291251 0.650847
Si Si5 0.952039 0.308167 0.148131
O O1 0.399225 0.442594 0.164912
O O2 0.320426 0.437119 0.330407
O O3 0.500000 0.588252 0.750000
O O4 0.553955 0.708038 0.847048
O O5 0.521833 0.593690 0.000000
O O6 0.306707 0.320276 0.500000
O O7 0.226808 0.345887 0.337459
O O8 0.319581 0.284033 0.249519
O O9 0.167728 0.263366 0.500000
O O10 0.111586 0.336162 0.678022
O O11 0.000000 0.332142 0.250000
O O12 0.966642 0.330025 0.000000
#
# Coordination Sequence:
#
# PCOD9527548 Si02
#       5
#     8  16  16  16  16
#     4  12  21  32  48  74 101 130 170 206 240 290
#     4  10  21  34  46  65  97 135 168 201 238 279
#     4  10  21  33  52  74  96 132 172 205 246 296
#     4   9  18  36  53  71  99 130 164 209 254 291
#     4   9  17  31  50  71  96 127 161 201 244 288
#
# _framework density 17.989763
#
# number of rings (size 3 to 8) (size 9 to 14) (size 15 to 20)
#    0.000    2.222    2.222    1.000    0.000    4.444 
#    0.000    0.000    0.000    0.000    0.000    0.778 
#    0.000    5.333    0.000    0.000    0.000    0.000 
#
# Total GULP energy -200667.463530 kJ/mol
# GULP energy per Si atom -5574.096209 kJ/mol
# Density = 1.794882 g / cm^3
# Si number density = 17.989763 Si / 1000 Ang^3
#
#
#
# Elastic Constant Matrix: (Units=GPa)
#
#
# Indices 1 2 3 4 5 6 
#
# 1 138.0603 13.8715 81.4953 0.0000 0.0000 0.0000
# 2 13.8715 15.3154 8.7220 0.0000 0.0000 0.0000
# 3 81.4953 8.7220 118.2831 0.0000 0.0000 0.0000
# 4 0.0000 0.0000 0.0000 -49.1628 0.0000 0.0000
# 5 0.0000 0.0000 0.0000 0.0000 28.9832 0.0000
# 6 0.0000 0.0000 0.0000 0.0000 0.0000 29.0930
#
#
#
# Elastic Compliance Matrix: (Units=1/GPa)
#
#
# Indices 1 2 3 4 5 6 
#
# 1 0.012870 -0.006897 -0.008359 0.000000 0.000000 0.000000
# 2 -0.006897 0.071852 -0.000546 0.000000 0.000000 0.000000
# 3 -0.008359 -0.000546 0.014254 0.000000 0.000000 0.000000
# 4 0.000000 0.000000 0.000000 -0.020341 0.000000 0.000000
# 5 0.000000 0.000000 0.000000 0.000000 0.034503 0.000000
# 6 0.000000 0.000000 0.000000 0.000000 0.000000 0.034373
#
#
# Mechanical properties :
#
#
# Convention : Reuss Voigt Hill
#
# Bulk Modulus (GPa) = 14.84307 53.31516 34.07912
# Shear Modulus (GPa) = 24.80507 12.95400 18.87953
#
# Velocity S-wave (km/s) = 3.71731 2.68633 3.24305
# Velocity P-wave (km/s) = 5.16655 6.27077 5.74525
#
# Compressibility (1/GPa) = 0.06737150
#
# Stress axis : x y z
#
# Youngs Moduli (GPa) = 77.69817 13.91758 70.15694
#
# Poissons Ratio (x) = 0.09598 0.58644
# Poissons Ratio (y) = 0.53586 0.03834
# Poissons Ratio (z) = 0.64947 0.00761
#
# Static dielectric constant tensor:
#      x y z
#    x 1.650020 0.000000 0.000000 
#    y 0.000000 1.611460 0.000000 
#    z 0.000000 0.000000 1.626420 
# 
# From -- ./inp_files/6714.got.cif
#   From: 2010.05.17/outbox.cif.g08.bks.cpg/sg72_4_cif.got.tgz:6714.got - 2010.06.03 17:03:01.
