data_PCOD9527677
_publ_section_title
;
Structure prediction by ZEFSAII (Michael W. Deem and Ramdas Pophale) SiO2 
 PCOD9527677
Probable space group: I B A M
;
_chemical_formula_sum "Si O2"
_cell_formula_units_Z 112
_cell_length_a 11.439265
_cell_length_b 36.118670
_cell_length_c 15.514725
_cell_angle_alpha 90.000000
_cell_angle_beta 90.000000
_cell_angle_gamma 90.000000
_cell_volume 6410.235026
_symmetry_space_group_name_H-M "I B A M"
_symmetry_group_IT_number 72
_symmetry_cell_setting 'orthorhombic'
loop_
_space_group_symop_operation_xyz
x,y,z
-x,-y,z
x,-y,1/2-z
-x,y,1/2-z
-x,-y,-z
x,y,-z
-x,y,1/2+z
x,-y,1/2+z
1/2+x,1/2+y,1/2+z
1/2-x,1/2-y,1/2+z
1/2+x,1/2-y,-z
1/2-x,1/2+y,-z
1/2-x,1/2-y,1/2-z
1/2+x,1/2+y,1/2-z
1/2-x,1/2+y,z
1/2+x,1/2-y,z
loop_
_atom_site_type_symbol
_atom_site_label
_atom_site_fract_x
_atom_site_fract_y
_atom_site_fract_z
Si Si1 0.638861 0.722265 0.250000
Si Si2 0.500000 0.456191 0.146204
Si Si3 0.136244 0.162705 0.400021
Si Si4 0.363756 0.337295 0.400021
Si Si5 0.361772 0.041847 0.750000
Si Si6 0.237702 0.916188 0.401440
Si Si7 0.262298 0.583812 0.401440
O O1 0.500000 0.735704 0.250000
O O2 0.750000 0.750000 0.250000
O O3 0.652122 0.696049 0.166144
O O4 0.652122 0.696049 0.333857
O O5 0.500000 0.500000 0.129506
O O6 0.500000 0.450582 0.250000
O O7 0.614036 0.437062 0.107534
O O8 0.385964 0.437062 0.107534
O O9 0.156357 0.173287 0.500000
O O10 0.214029 0.126843 0.379840
O O11 0.000000 0.151014 0.392905
O O12 0.343643 0.326713 0.500000
O O13 0.285971 0.373157 0.379841
O O14 0.500000 0.039244 0.750000
O O15 0.320129 0.063890 0.833653
O O16 0.320129 0.063890 0.666347
O O17 0.310796 0.000000 0.750000
O O18 0.278626 0.918620 0.500000
O O19 0.221374 0.581380 0.500000
#
# Coordination Sequence:
#
# PCOD9527677 Si02
#       7
#    16  16  16  16  16  16  16
#     4  10  21  36  58  85 114 149 184 224 277 340
#     4  11  21  31  51  86 123 147 170 223 295 344
#     4   9  18  34  57  85 113 143 178 219 273 342
#     4   9  18  34  57  85 113 143 178 219 273 342
#     4  11  25  41  53  70 104 154 204 243 280 327
#     4  11  21  36  59  84 109 141 186 235 284 338
#     4  11  21  36  59  84 109 141 186 235 284 338
#
# _framework density 17.472059000000002
#
# number of rings (size 3 to 8) (size 9 to 14) (size 15 to 20)
#    0.000    1.714    2.857    2.143    0.000    4.000 
#    0.000    4.286    0.000    1.714    0.000    0.000 
#    0.000    0.000    0.000    0.000    0.000    0.000 
#
# Total GULP energy -312515.770260 kJ/mol
# GULP energy per Si atom -5580.638755 kJ/mol
# Density = 1.743229 g / cm^3
# Si number density = 17.472059 Si / 1000 Ang^3
#
#
#
# Elastic Constant Matrix: (Units=GPa)
#
#
# Indices 1 2 3 4 5 6 
#
# 1 78.1478 50.6583 47.6418 0.0002 0.0011 -0.0002
# 2 50.6583 100.3442 69.4126 0.0002 0.0009 -0.0001
# 3 47.6418 69.4126 103.0923 0.0020 0.0048 -0.0007
# 4 0.0002 0.0002 0.0020 -10.3470 0.0032 -0.0004
# 5 0.0011 0.0009 0.0048 0.0032 -196.6459 0.0007
# 6 -0.0002 -0.0001 -0.0007 -0.0004 0.0007 104.0094
#
#
#
# Elastic Compliance Matrix: (Units=1/GPa)
#
#
# Indices 1 2 3 4 5 6 
#
# 1 0.020124 -0.006975 -0.004604 -0.000001 0.000000 0.000000
# 2 -0.006975 0.021071 -0.010964 -0.000002 0.000000 0.000000
# 3 -0.004604 -0.010964 0.019210 0.000003 0.000000 0.000000
# 4 -0.000001 -0.000002 0.000003 -0.096647 -0.000002 0.000000
# 5 0.000000 0.000000 0.000000 -0.000002 -0.005085 0.000000
# 6 0.000000 0.000000 0.000000 0.000000 0.000000 0.009615
#
#
# Mechanical properties :
#
#
# Convention : Reuss Voigt Hill
#
# Bulk Modulus (GPa) = 65.27523 68.55662 66.91593
# Shear Modulus (GPa) = 270.55676 -13.00525 128.77576
#
# Velocity S-wave (km/s) = 12.45742 -2.73123 8.59441
# Velocity P-wave (km/s) = 15.63193 5.42005 11.69902
#
# Compressibility (1/GPa) = 0.01531975
#
# Stress axis : x y z
#
# Youngs Moduli (GPa) = 49.69104 47.45760 52.05707
#
# Poissons Ratio (x) = 0.33102 0.23965
# Poissons Ratio (y) = 0.34660 0.57076
# Poissons Ratio (z) = 0.22876 0.52033
#
# Static dielectric constant tensor:
#      x y z
#    x 1.583280 0.000000 0.000000 
#    y 0.000000 1.579940 0.000000 
#    z 0.000000 0.000000 1.607310 
# 
# From -- ./inp_files/20731.got.cif
#   From: 2010.05.17/outbox.cif.g08.bks.cpg/sg72_11_cif.got.tgz:20731.got - 2010.06.03 17:03:01.
