data_PCOD9527439
_publ_section_title
;
Structure prediction by ZEFSAII (Michael W. Deem and Ramdas Pophale) SiO2 
 PCOD9527439
Probable space group: I B A M
;
_chemical_formula_sum "Si O2"
_cell_formula_units_Z 72
_cell_length_a 31.165682
_cell_length_b 9.215566
_cell_length_c 14.123713
_cell_angle_alpha 90.000000
_cell_angle_beta 90.000000
_cell_angle_gamma 90.000000
_cell_volume 4056.463128
_symmetry_space_group_name_H-M "I B A M"
_symmetry_group_IT_number 72
_symmetry_cell_setting 'orthorhombic'
loop_
_space_group_symop_operation_xyz
x,y,z
-x,-y,z
x,-y,1/2-z
-x,y,1/2-z
-x,-y,-z
x,y,-z
-x,y,1/2+z
x,-y,1/2+z
1/2+x,1/2+y,1/2+z
1/2-x,1/2-y,1/2+z
1/2+x,1/2-y,-z
1/2-x,1/2+y,-z
1/2-x,1/2-y,1/2-z
1/2+x,1/2+y,1/2-z
1/2-x,1/2+y,z
1/2+x,1/2-y,z
loop_
_atom_site_type_symbol
_atom_site_label
_atom_site_fract_x
_atom_site_fract_y
_atom_site_fract_z
Si Si1 0.563232 0.328649 0.500000
Si Si2 0.563232 0.671351 0.500000
Si Si3 1.000000 0.327176 0.362077
Si Si4 0.771433 1.000000 0.000000
Si Si5 0.161290 0.740463 0.000000
Si Si6 0.161290 0.259537 0.000000
Si Si7 0.307774 0.000000 0.862520
O O1 0.553579 0.500000 0.500000
O O2 0.540773 0.249651 0.589069
O O3 0.613976 0.305250 0.500000
O O4 0.540773 0.750348 0.589069
O O5 0.613976 0.694749 0.500000
O O6 0.000000 0.500000 0.382206
O O7 0.000000 0.307323 0.250000
O O8 0.801910 0.861119 0.000000
O O9 0.739630 0.000000 0.090272
O O10 0.801910 0.138880 0.000000
O O11 0.168719 0.638732 0.908489
O O12 0.168719 0.361268 0.091511
O O13 0.307079 0.000000 0.750000
#
# Coordination Sequence:
#
# PCOD9527439 Si02
#       7
#     8   8  16   8   8   8  16
#     4  11  22  39  62  85 118 156 188 236 291 336
#     4  11  22  39  62  85 118 156 188 236 291 336
#     4  10  23  40  63  89 116 150 189 233 286 349
#     4  10  20  40  60  85 118 153 192 240 292 340
#     4  10  22  38  60  87 117 151 196 240 284 341
#     4  10  22  38  60  87 117 151 196 240 284 341
#     4  10  22  38  60  84 116 157 196 239 286 340
#
# _framework density 17.749454
#
# number of rings (size 3 to 8) (size 9 to 14) (size 15 to 20)
#    0.000    2.000    1.111    5.333    6.222    7.111 
#    0.000    0.000    0.000    0.000    0.000    0.000 
#    0.000    0.000    0.000    0.000    0.000    0.000 
#
# Total GULP energy -200966.120716 kJ/mol
# GULP energy per Si atom -5582.392242 kJ/mol
# Density = 1.770906 g / cm^3
# Si number density = 17.749454 Si / 1000 Ang^3
#
#
#
# Elastic Constant Matrix: (Units=GPa)
#
#
# Indices 1 2 3 4 5 6 
#
# 1 124.3138 50.6846 46.5444 0.0000 0.0000 0.0000
# 2 50.6846 152.4455 67.6924 0.0000 0.0000 0.0000
# 3 46.5444 67.6924 180.3737 0.0000 0.0000 0.0000
# 4 0.0000 0.0000 0.0000 1.7383 0.0000 0.0000
# 5 0.0000 0.0000 0.0000 0.0000 -0.7688 0.0000
# 6 0.0000 0.0000 0.0000 0.0000 0.0000 52.1644
#
#
#
# Elastic Compliance Matrix: (Units=1/GPa)
#
#
# Indices 1 2 3 4 5 6 
#
# 1 0.009651 -0.002523 -0.001543 0.000000 0.000000 0.000000
# 2 -0.002523 0.008531 -0.002551 0.000000 0.000000 0.000000
# 3 -0.001543 -0.002551 0.006899 0.000000 0.000000 0.000000
# 4 0.000000 0.000000 0.000000 0.575283 0.000000 0.000000
# 5 0.000000 0.000000 0.000000 0.000000 -1.300662 0.000000
# 6 0.000000 0.000000 0.000000 0.000000 0.000000 0.019170
#
#
# Mechanical properties :
#
#
# Convention : Reuss Voigt Hill
#
# Bulk Modulus (GPa) = 84.40930 87.44175 85.92553
# Shear Modulus (GPa) = -7.53075 30.10754 11.28839
#
# Velocity S-wave (km/s) = -2.06204 4.12303 2.52461
# Velocity P-wave (km/s) = 6.47996 8.48747 7.55073
#
# Compressibility (1/GPa) = 0.01184704
#
# Stress axis : x y z
#
# Youngs Moduli (GPa) = 103.61813 117.21638 144.93820
#
# Poissons Ratio (x) = 0.29578 0.22369
# Poissons Ratio (y) = 0.26147 0.36967
# Poissons Ratio (z) = 0.15992 0.29897
#
# Static dielectric constant tensor:
#      x y z
#    x 1.591490 0.000000 0.000000 
#    y 0.000000 1.620970 0.000000 
#    z 0.000000 0.000000 1.574250 
# 
# From -- ./inp_files/26236.got.cif
#   From: 2010.05.17/outbox.cif.g08.bks.cpg/sg72_14_cif.got.tgz:26236.got - 2010.06.03 17:03:01.
