data_PCOD9527080
_publ_section_title
;
Structure prediction by ZEFSAII (Michael W. Deem and Ramdas Pophale) SiO2 
 PCOD9527080
Probable space group: I B A M
;
_chemical_formula_sum "Si O2"
_cell_formula_units_Z 112
_cell_length_a 14.469887
_cell_length_b 16.193321
_cell_length_c 24.245580
_cell_angle_alpha 90.000000
_cell_angle_beta 90.000000
_cell_angle_gamma 90.000000
_cell_volume 5681.115807
_symmetry_space_group_name_H-M "I B A M"
_symmetry_group_IT_number 72
_symmetry_cell_setting 'orthorhombic'
loop_
_space_group_symop_operation_xyz
x,y,z
-x,-y,z
x,-y,1/2-z
-x,y,1/2-z
-x,-y,-z
x,y,-z
-x,y,1/2+z
x,-y,1/2+z
1/2+x,1/2+y,1/2+z
1/2-x,1/2-y,1/2+z
1/2+x,1/2-y,-z
1/2-x,1/2+y,-z
1/2-x,1/2-y,1/2-z
1/2+x,1/2+y,1/2-z
1/2-x,1/2+y,z
1/2+x,1/2-y,z
loop_
_atom_site_type_symbol
_atom_site_label
_atom_site_fract_x
_atom_site_fract_y
_atom_site_fract_z
Si Si1 0.558637 0.262981 0.059990
Si Si2 0.287998 0.966533 0.367484
Si Si3 0.404028 0.289503 0.147712
Si Si4 0.103828 0.973417 0.186346
Si Si5 0.442280 0.924459 0.911472
Si Si6 0.725739 0.199040 0.564110
Si Si7 0.938804 0.616160 0.696700
O O1 0.496612 0.293258 0.110534
O O2 0.556328 0.163244 0.059423
O O3 0.664684 0.288264 0.066892
O O4 0.525545 0.293500 0.000000
O O5 0.295954 0.890151 0.409783
O O6 0.347320 0.938156 0.313734
O O7 0.184017 0.985506 0.350199
O O8 0.340839 0.042951 0.395801
O O9 0.387637 0.375065 0.178264
O O10 0.325677 0.264425 0.103307
O O11 0.412838 0.212565 0.189719
O O12 0.115908 0.000000 0.250000
O O13 0.000000 0.000000 0.169880
O O14 0.496733 0.906422 0.854891
O O15 0.500000 0.000000 0.937682
O O16 0.696727 0.204487 0.500000
O O17 0.000000 0.601073 0.750000
#
# Coordination Sequence:
#
# PCOD9527080 Si02
#       7
#    16  16  16  16  16  16  16
#     4  10  20  36  60  85 114 156 200 246 295 353
#     4  10  21  38  58  88 120 157 195 249 301 353
#     4  10  21  40  60  84 119 156 199 245 295 357
#     4  11  25  40  57  81 122 167 205 248 290 345
#     4   9  19  33  55  86 119 144 184 247 307 357
#     4  10  21  39  61  87 117 155 199 247 302 361
#     4   9  20  35  60  87 113 148 191 241 297 360
#
# _framework density 19.714437
#
# number of rings (size 3 to 8) (size 9 to 14) (size 15 to 20)
#    0.000    2.143    0.000    3.000    4.000    2.857 
#    0.000    2.857    0.000    3.857    0.000    0.000 
#    0.000    0.000    0.000    0.000    0.000    0.000 
#
# Total GULP energy -312662.895201 kJ/mol
# GULP energy per Si atom -5583.265986 kJ/mol
# Density = 1.966957 g / cm^3
# Si number density = 19.714437 Si / 1000 Ang^3
#
#
#
# Elastic Constant Matrix: (Units=GPa)
#
#
# Indices 1 2 3 4 5 6 
#
# 1 89.8497 1.8079 29.4935 0.0000 0.0000 0.0000
# 2 1.8079 93.4958 34.0354 0.0000 0.0000 0.0000
# 3 29.4935 34.0354 80.3831 0.0000 0.0000 0.0000
# 4 0.0000 0.0000 0.0000 10.3722 0.0000 0.0000
# 5 0.0000 0.0000 0.0000 0.0000 -173.5425 0.0000
# 6 0.0000 0.0000 0.0000 0.0000 0.0000 28.8364
#
#
#
# Elastic Compliance Matrix: (Units=1/GPa)
#
#
# Indices 1 2 3 4 5 6 
#
# 1 0.012889 0.001741 -0.005466 0.000000 0.000000 0.000000
# 2 0.001741 0.012880 -0.006092 0.000000 0.000000 0.000000
# 3 -0.005466 -0.006092 0.017025 0.000000 0.000000 0.000000
# 4 0.000000 0.000000 0.000000 0.096412 0.000000 0.000000
# 5 0.000000 0.000000 0.000000 0.000000 -0.005762 0.000000
# 6 0.000000 0.000000 0.000000 0.000000 0.000000 0.034678
#
#
# Mechanical properties :
#
#
# Convention : Reuss Voigt Hill
#
# Bulk Modulus (GPa) = 43.17988 43.82248 43.50118
# Shear Modulus (GPa) = 25.57849 -13.64066 5.96892
#
# Velocity S-wave (km/s) = 3.60592 -2.63328 1.74191
# Velocity P-wave (km/s) = 6.26794 3.60990 5.11461
#
# Compressibility (1/GPa) = 0.02315893
#
# Stress axis : x y z
#
# Youngs Moduli (GPa) = 77.58591 77.64139 58.73544
#
# Poissons Ratio (x) = -0.13514 0.32105
# Poissons Ratio (y) = -0.13505 0.35782
# Poissons Ratio (z) = 0.42409 0.47300
#
# Static dielectric constant tensor:
#      x y z
#    x 1.699520 0.000000 0.000000 
#    y 0.000000 1.707050 0.000000 
#    z 0.000000 0.000000 1.688380 
# 
# From -- ./inp_files/44347.got.cif
#   From: 2010.05.17/outbox.cif.g08.bks.cpg/sg72_23_cif.got.tgz:44347.got - 2010.06.03 17:03:01.
