data_PCOD9527308
_publ_section_title
;
Structure prediction by ZEFSAII (Michael W. Deem and Ramdas Pophale) SiO2 
 PCOD9527308
Probable space group: I B A M
;
_chemical_formula_sum "Si O2"
_cell_formula_units_Z 72
_cell_length_a 17.408933
_cell_length_b 13.925737
_cell_length_c 14.526045
_cell_angle_alpha 90.000000
_cell_angle_beta 90.000000
_cell_angle_gamma 90.000000
_cell_volume 3521.581372
_symmetry_space_group_name_H-M "I B A M"
_symmetry_group_IT_number 72
_symmetry_cell_setting 'orthorhombic'
loop_
_space_group_symop_operation_xyz
x,y,z
-x,-y,z
x,-y,1/2-z
-x,y,1/2-z
-x,-y,-z
x,y,-z
-x,y,1/2+z
x,-y,1/2+z
1/2+x,1/2+y,1/2+z
1/2-x,1/2-y,1/2+z
1/2+x,1/2-y,-z
1/2-x,1/2+y,-z
1/2-x,1/2-y,1/2-z
1/2+x,1/2+y,1/2-z
1/2-x,1/2+y,z
1/2+x,1/2-y,z
loop_
_atom_site_type_symbol
_atom_site_label
_atom_site_fract_x
_atom_site_fract_y
_atom_site_fract_z
Si Si1 0.159282 0.689416 0.793001
Si Si2 0.715680 0.534830 0.351711
Si Si3 0.255432 0.825686 0.896967
Si Si4 0.500000 0.758413 0.750000
Si Si5 0.546688 0.597004 0.395315
O O1 0.214473 0.609117 0.837208
O O2 0.176692 0.782475 0.855372
O O3 0.187036 0.700712 0.686618
O O4 0.069047 0.676750 0.787788
O O5 0.692759 0.500000 0.250000
O O6 0.746898 0.439853 0.400133
O O7 0.638028 0.576197 0.393680
O O8 0.272426 0.789420 0.000000
O O9 0.529114 0.685525 0.671212
O O10 0.500000 0.500000 0.367752
O O11 0.522914 0.618854 0.500000
#
# Coordination Sequence:
#
# PCOD9527308 Si02
#       5
#    16  16  16   8  16
#     4  10  23  38  58  87 119 157 199 243 293 352
#     4  10  20  38  60  85 116 151 193 241 298 354
#     4  10  20  38  63  88 114 148 194 244 297 356
#     4  12  23  38  55  80 122 160 194 240 290 350
#     4  11  22  35  57  89 119 150 191 245 308 363
#
# _framework density 20.445360999999998
#
# number of rings (size 3 to 8) (size 9 to 14) (size 15 to 20)
#    0.000    1.556    0.000    7.667    0.000    7.111 
#    0.000    5.000    0.000    1.333    0.000    0.000 
#    0.000    0.000    0.000    0.000    0.000    0.000 
#
# Total GULP energy -200954.836772 kJ/mol
# GULP energy per Si atom -5582.078799 kJ/mol
# Density = 2.039883 g / cm^3
# Si number density = 20.445361 Si / 1000 Ang^3
#
#
#
# Elastic Constant Matrix: (Units=GPa)
#
#
# Indices 1 2 3 4 5 6 
#
# 1 139.7549 49.1543 10.6623 0.0000 0.0000 0.0000
# 2 49.1543 63.1738 38.1602 0.0000 0.0000 0.0000
# 3 10.6623 38.1602 111.4329 0.0000 0.0000 0.0000
# 4 0.0000 0.0000 0.0000 14.9066 0.0000 0.0000
# 5 0.0000 0.0000 0.0000 0.0000 -14.0918 0.0000
# 6 0.0000 0.0000 0.0000 0.0000 0.0000 25.9450
#
#
#
# Elastic Compliance Matrix: (Units=1/GPa)
#
#
# Indices 1 2 3 4 5 6 
#
# 1 0.010266 -0.009323 0.002210 0.000000 0.000000 0.000000
# 2 -0.009323 0.028424 -0.008842 0.000000 0.000000 0.000000
# 3 0.002210 -0.008842 0.011790 0.000000 0.000000 0.000000
# 4 0.000000 0.000000 0.000000 0.067084 0.000000 0.000000
# 5 0.000000 0.000000 0.000000 0.000000 -0.070963 0.000000
# 6 0.000000 0.000000 0.000000 0.000000 0.000000 0.038543
#
#
# Mechanical properties :
#
#
# Convention : Reuss Voigt Hill
#
# Bulk Modulus (GPa) = 53.84512 56.70170 55.27341
# Shear Modulus (GPa) = 40.57006 19.77760 30.17383
#
# Velocity S-wave (km/s) = 4.45940 3.11358 3.84582
# Velocity P-wave (km/s) = 7.27381 6.38117 6.84206
#
# Compressibility (1/GPa) = 0.01857179
#
# Stress axis : x y z
#
# Youngs Moduli (GPa) = 97.41163 35.18144 84.81471
#
# Poissons Ratio (x) = 0.32799 -0.18747
# Poissons Ratio (y) = 0.90814 0.74992
# Poissons Ratio (z) = -0.21531 0.31107
#
# Static dielectric constant tensor:
#      x y z
#    x 1.737150 0.000000 0.000000 
#    y 0.000000 1.763480 0.000000 
#    z 0.000000 0.000000 1.738950 
# 
# From -- ./inp_files/21433.got.cif
#   From: 2010.05.17/outbox.cif.g08.bks.cpg/sg72_11_cif.got.tgz:21433.got - 2010.06.03 17:03:01.
