data_PCOD9527539
_publ_section_title
;
Structure prediction by ZEFSAII (Michael W. Deem and Ramdas Pophale) SiO2 
 PCOD9527539
Probable space group: I B A M
;
_chemical_formula_sum "Si O2"
_cell_formula_units_Z 60
_cell_length_a 14.078405
_cell_length_b 11.020341
_cell_length_c 15.709234
_cell_angle_alpha 90.000000
_cell_angle_beta 90.000000
_cell_angle_gamma 90.000000
_cell_volume 2437.269178
_symmetry_space_group_name_H-M "I B A M"
_symmetry_group_IT_number 72
_symmetry_cell_setting 'orthorhombic'
loop_
_space_group_symop_operation_xyz
x,y,z
-x,-y,z
x,-y,1/2-z
-x,y,1/2-z
-x,-y,-z
x,y,-z
-x,y,1/2+z
x,-y,1/2+z
1/2+x,1/2+y,1/2+z
1/2-x,1/2-y,1/2+z
1/2+x,1/2-y,-z
1/2-x,1/2+y,-z
1/2-x,1/2-y,1/2-z
1/2+x,1/2+y,1/2-z
1/2-x,1/2+y,z
1/2+x,1/2-y,z
loop_
_atom_site_type_symbol
_atom_site_label
_atom_site_fract_x
_atom_site_fract_y
_atom_site_fract_z
Si Si1 0.381828 0.274256 0.817675
Si Si2 0.162678 0.661183 0.650277
Si Si3 0.771316 0.465886 0.500000
Si Si4 0.892285 0.838659 0.000000
Si Si5 0.000000 0.000000 0.750000
Si Si6 0.904274 0.785257 0.500000
O O1 0.271698 0.312366 0.824705
O O2 0.391917 0.182094 0.738753
O O3 0.435840 0.403282 0.802269
O O4 0.409435 0.220201 0.909317
O O5 0.169155 0.545531 0.587176
O O6 0.123289 0.762012 0.585722
O O7 0.695401 0.571125 0.500000
O O8 0.697634 0.351335 0.500000
O O9 0.003285 0.871482 0.000000
#
# Coordination Sequence:
#
# PCOD9527539 Si02
#       6
#    16  16   8   8   4   8
#     4  10  22  37  54  92 131 166 201 265 328 388
#     4   9  21  38  53  86 141 168 204 256 339 392
#     4   9  20  35  59  88 124 171 213 261 324 391
#     4  11  20  35  63  94 126 169 213 271 326 389
#     4  12  24  34  68 100 122 160 216 278 344 352
#     4  10  21  32  58  92 125 158 211 272 322 364
#
# _framework density 24.617716000000001
#
# number of rings (size 3 to 8) (size 9 to 14) (size 15 to 20)
#    0.000    2.133    0.000    2.800   14.933    0.000 
#    0.000    0.000    0.000    0.000    0.000  102.667 
#    0.000    0.000    0.000    0.000    0.000    0.000 
#
# Total GULP energy -167220.188177 kJ/mol
# GULP energy per Si atom -5574.006273 kJ/mol
# Density = 2.456168 g / cm^3
# Si number density = 24.617716 Si / 1000 Ang^3
#
#
#
# Elastic Constant Matrix: (Units=GPa)
#
#
# Indices 1 2 3 4 5 6 
#
# 1 95.1801 32.3200 48.8871 0.0000 0.0000 0.0000
# 2 32.3200 47.7380 66.8434 0.0000 0.0000 0.0000
# 3 48.8871 66.8434 253.3487 0.0000 0.0000 0.0000
# 4 0.0000 0.0000 0.0000 -36.6462 0.0000 0.0000
# 5 0.0000 0.0000 0.0000 0.0000 26.6824 0.0000
# 6 0.0000 0.0000 0.0000 0.0000 0.0000 8.3695
#
#
#
# Elastic Compliance Matrix: (Units=1/GPa)
#
#
# Indices 1 2 3 4 5 6 
#
# 1 0.013658 -0.008812 -0.000311 0.000000 0.000000 0.000000
# 2 -0.008812 0.038906 -0.008564 0.000000 0.000000 0.000000
# 3 -0.000311 -0.008564 0.006267 0.000000 0.000000 0.000000
# 4 0.000000 0.000000 0.000000 -0.027288 0.000000 0.000000
# 5 0.000000 0.000000 0.000000 0.000000 0.037478 0.000000
# 6 0.000000 0.000000 0.000000 0.000000 0.000000 0.119482
#
#
# Mechanical properties :
#
#
# Convention : Reuss Voigt Hill
#
# Bulk Modulus (GPa) = 42.63236 76.92976 59.78106
# Shear Modulus (GPa) = 21.58003 16.22889 18.90446
#
# Velocity S-wave (km/s) = 2.96396 2.57035 2.77415
# Velocity P-wave (km/s) = 5.39155 6.33455 5.88198
#
# Compressibility (1/GPa) = 0.02345636
#
# Stress axis : x y z
#
# Youngs Moduli (GPa) = 73.21594 25.70308 159.57380
#
# Poissons Ratio (x) = 0.22650 0.04955
# Poissons Ratio (y) = 0.64519 1.36666
# Poissons Ratio (z) = 0.02274 0.22013
#
# Static dielectric constant tensor:
#      x y z
#    x 1.949300 0.000000 0.000000 
#    y 0.000000 1.970510 0.000000 
#    z 0.000000 0.000000 2.031840 
# 
# From -- ./inp_files/21279.got.cif
#   From: 2010.05.17/outbox.cif.g08.bks.cpg/sg72_11_cif.got.tgz:21279.got - 2010.06.03 17:03:01.
