data_PCOD9527083
_publ_section_title
;
Structure prediction by ZEFSAII (Michael W. Deem and Ramdas Pophale) SiO2 
 PCOD9527083
Probable space group: I B A M
;
_chemical_formula_sum "Si O2"
_cell_formula_units_Z 116
_cell_length_a 26.292941
_cell_length_b 13.981410
_cell_length_c 15.118153
_cell_angle_alpha 90.000000
_cell_angle_beta 90.000000
_cell_angle_gamma 90.000000
_cell_volume 5557.620330
_symmetry_space_group_name_H-M "I B A M"
_symmetry_group_IT_number 72
_symmetry_cell_setting 'orthorhombic'
loop_
_space_group_symop_operation_xyz
x,y,z
-x,-y,z
x,-y,1/2-z
-x,y,1/2-z
-x,-y,-z
x,y,-z
-x,y,1/2+z
x,-y,1/2+z
1/2+x,1/2+y,1/2+z
1/2-x,1/2-y,1/2+z
1/2+x,1/2-y,-z
1/2-x,1/2+y,-z
1/2-x,1/2-y,1/2-z
1/2+x,1/2+y,1/2-z
1/2-x,1/2+y,z
1/2+x,1/2-y,z
loop_
_atom_site_type_symbol
_atom_site_label
_atom_site_fract_x
_atom_site_fract_y
_atom_site_fract_z
Si Si1 0.901516 0.196040 0.849091
Si Si2 0.896841 0.219018 0.360947
Si Si3 0.998747 0.677200 0.359215
Si Si4 0.299280 0.170419 0.656729
Si Si5 0.500000 0.000000 0.500000
Si Si6 0.254796 0.988840 0.398475
Si Si7 0.297269 0.782721 0.635845
Si Si8 0.138321 0.994245 0.396818
O O1 0.898485 0.215938 0.745015
O O2 0.952925 0.248062 0.878034
O O3 0.852098 0.245505 0.892771
O O4 0.894147 0.081966 0.858544
O O5 0.848421 0.283396 0.387917
O O6 0.887126 0.109687 0.388183
O O7 0.949001 0.269707 0.386510
O O8 0.000000 0.658929 0.250000
O O9 0.993496 0.583650 0.420685
O O10 0.299619 0.204821 0.757906
O O11 0.246822 0.207638 0.615168
O O12 0.293387 0.057305 0.652895
O O13 0.253605 0.021156 0.500000
O O14 0.277342 0.883166 0.398044
O O15 0.196810 0.989850 0.361595
O O16 0.142890 0.014959 0.500000
#
# Coordination Sequence:
#
# PCOD9527083 Si02
#       8
#    16  16  16  16   4  16  16  16
#     4  10  22  42  66  91 126 168 212 268 320 377
#     4  10  22  42  66  91 126 168 212 268 320 377
#     4  10  25  48  72 101 132 169 221 269 322 390
#     4  10  20  36  60  86 117 162 215 261 308 377
#     4  12  26  48  80  96 128 176 218 276 336 366
#     4  11  23  36  53  88 128 169 202 258 329 380
#     4  10  20  36  60  86 117 162 215 261 308 377
#     4  11  23  36  61  94 134 169 206 256 321 394
#
# _framework density 20.872243999999998
#
# number of rings (size 3 to 8) (size 9 to 14) (size 15 to 20)
#    0.000    1.655    2.759    1.034    1.931    4.414 
#    2.483    6.897    0.000    0.000    0.000    0.000 
#    0.000    0.000    0.000    0.000    0.000    0.000 
#
# Total GULP energy -323137.759888 kJ/mol
# GULP energy per Si atom -5571.340688 kJ/mol
# Density = 2.082474 g / cm^3
# Si number density = 20.872244 Si / 1000 Ang^3
#
#
#
# Elastic Constant Matrix: (Units=GPa)
#
#
# Indices 1 2 3 4 5 6 
#
# 1 118.6707 39.9153 37.6638 0.0000 0.0000 0.0000
# 2 39.9153 119.2872 17.4053 0.0000 0.0000 0.0000
# 3 37.6638 17.4053 48.9853 0.0000 0.0000 0.0000
# 4 0.0000 0.0000 0.0000 34.9373 0.0000 0.0000
# 5 0.0000 0.0000 0.0000 0.0000 4.8353 0.0000
# 6 0.0000 0.0000 0.0000 0.0000 0.0000 17.0385
#
#
#
# Elastic Compliance Matrix: (Units=1/GPa)
#
#
# Indices 1 2 3 4 5 6 
#
# 1 0.011978 -0.002810 -0.008211 0.000000 0.000000 0.000000
# 2 -0.002810 0.009501 -0.001215 0.000000 0.000000 0.000000
# 3 -0.008211 -0.001215 0.027159 0.000000 0.000000 0.000000
# 4 0.000000 0.000000 0.000000 0.028623 0.000000 0.000000
# 5 0.000000 0.000000 0.000000 0.000000 0.206814 0.000000
# 6 0.000000 0.000000 0.000000 0.000000 0.000000 0.058691
#
#
# Mechanical properties :
#
#
# Convention : Reuss Voigt Hill
#
# Bulk Modulus (GPa) = 41.38150 52.99024 47.18587
# Shear Modulus (GPa) = 13.32291 24.15946 18.74118
#
# Velocity S-wave (km/s) = 2.52922 3.40588 2.99975
# Velocity P-wave (km/s) = 5.32901 6.39607 5.88677
#
# Compressibility (1/GPa) = 0.02416539
#
# Stress axis : x y z
#
# Youngs Moduli (GPa) = 83.48744 105.25559 36.81957
#
# Poissons Ratio (x) = 0.29576 0.30233
# Poissons Ratio (y) = 0.23459 0.04475
# Poissons Ratio (z) = 0.68553 0.12792
#
# Static dielectric constant tensor:
#      x y z
#    x 1.754030 0.000000 0.000000 
#    y 0.000000 1.755090 0.000000 
#    z 0.000000 0.000000 1.746080 
# 
# From -- ./inp_files/33968.got.cif
#   From: 2010.05.17/outbox.cif.g08.bks.cpg/sg72_17_cif.got.tgz:33968.got - 2010.06.03 17:03:01.
