data_PCOD9527771
_publ_section_title
;
Structure prediction by ZEFSAII (Michael W. Deem and Ramdas Pophale) SiO2 
 PCOD9527771
Probable space group: I B A M
;
_chemical_formula_sum "Si O2"
_cell_formula_units_Z 56
_cell_length_a 5.154409
_cell_length_b 18.702620
_cell_length_c 25.746220
_cell_angle_alpha 90.000000
_cell_angle_beta 90.000000
_cell_angle_gamma 90.000000
_cell_volume 2481.960140
_symmetry_space_group_name_H-M "I B A M"
_symmetry_group_IT_number 72
_symmetry_cell_setting 'orthorhombic'
loop_
_space_group_symop_operation_xyz
x,y,z
-x,-y,z
x,-y,1/2-z
-x,y,1/2-z
-x,-y,-z
x,y,-z
-x,y,1/2+z
x,-y,1/2+z
1/2+x,1/2+y,1/2+z
1/2-x,1/2-y,1/2+z
1/2+x,1/2-y,-z
1/2-x,1/2+y,-z
1/2-x,1/2-y,1/2-z
1/2+x,1/2+y,1/2-z
1/2-x,1/2+y,z
1/2+x,1/2-y,z
loop_
_atom_site_type_symbol
_atom_site_label
_atom_site_fract_x
_atom_site_fract_y
_atom_site_fract_z
Si Si1 0.035448 0.578085 0.156094
Si Si2 0.175263 0.278362 0.807507
Si Si3 0.038889 0.801019 0.500000
Si Si4 0.464021 0.419767 0.087295
O O1 0.943082 0.643204 0.191466
O O2 0.829538 0.582686 0.108659
O O3 0.000000 0.500000 0.180477
O O4 0.325528 0.583491 0.134137
O O5 0.250000 0.250000 0.750000
O O6 0.454791 0.270135 0.833965
O O7 0.302495 0.755338 0.500000
O O8 0.018396 0.855075 0.548667
O O9 0.500000 0.500000 0.064401
#
# Coordination Sequence:
#
# PCOD9527771 Si02
#       4
#    16  16   8  16
#     4  10  21  38  62  87 115 158 208 248 290 357
#     4  10  21  37  58  86 118 153 190 240 306 360
#     4  12  25  38  57  90 124 156 200 254 307 360
#     4  10  22  40  60  84 118 162 203 247 301 355
#
# _framework density 22.562811
#
# number of rings (size 3 to 8) (size 9 to 14) (size 15 to 20)
#    0.000    1.714    0.000    3.857    0.000    6.857 
#    0.000    8.571    0.000    6.857    0.000    0.000 
#    0.000    0.000    0.000    0.000    0.000    0.000 
#
# Total GULP energy -156333.130594 kJ/mol
# GULP energy per Si atom -5583.326093 kJ/mol
# Density = 2.251146 g / cm^3
# Si number density = 22.562811 Si / 1000 Ang^3
#
#
#
# Elastic Constant Matrix: (Units=GPa)
#
#
# Indices 1 2 3 4 5 6 
#
# 1 135.7245 26.5159 -8.7688 0.0000 0.0000 0.0000
# 2 26.5159 208.1462 43.5120 0.0000 0.0000 0.0000
# 3 -8.7688 43.5120 40.6389 0.0000 0.0000 0.0000
# 4 0.0000 0.0000 0.0000 300.3194 0.0000 0.0000
# 5 0.0000 0.0000 0.0000 0.0000 18.3808 0.0000
# 6 0.0000 0.0000 0.0000 0.0000 0.0000 44.3146
#
#
#
# Elastic Compliance Matrix: (Units=1/GPa)
#
#
# Indices 1 2 3 4 5 6 
#
# 1 0.007946 -0.001766 0.003605 0.000000 0.000000 0.000000
# 2 -0.001766 0.006582 -0.007429 0.000000 0.000000 0.000000
# 3 0.003605 -0.007429 0.033339 0.000000 0.000000 0.000000
# 4 0.000000 0.000000 0.000000 0.003330 0.000000 0.000000
# 5 0.000000 0.000000 0.000000 0.000000 0.054405 0.000000
# 6 0.000000 0.000000 0.000000 0.000000 0.000000 0.022566
#
#
# Mechanical properties :
#
#
# Convention : Reuss Voigt Hill
#
# Bulk Modulus (GPa) = 27.25679 56.33641 41.79660
# Shear Modulus (GPa) = 32.98705 94.15299 63.57002
#
# Velocity S-wave (km/s) = 3.82777 6.46683 5.31374
# Velocity P-wave (km/s) = 5.62516 8.98792 7.49750
#
# Compressibility (1/GPa) = 0.03668811
#
# Stress axis : x y z
#
# Youngs Moduli (GPa) = 125.85296 151.92556 29.99530
#
# Poissons Ratio (x) = 0.26828 -0.10814
# Poissons Ratio (y) = 0.22224 0.22282
# Poissons Ratio (z) = -0.45373 1.12858
#
# Static dielectric constant tensor:
#      x y z
#    x 1.976450 0.000000 0.000000 
#    y 0.000000 1.882040 0.000000 
#    z 0.000000 0.000000 1.947690 
# 
# From -- ./inp_files/46457.got.cif
#   From: 2010.05.17/outbox.cif.g08.bks.cpg/sg72_24_cif.got.tgz:46457.got - 2010.06.03 17:03:01.
