data_PCOD9527750
_publ_section_title
;
Structure prediction by ZEFSAII (Michael W. Deem and Ramdas Pophale) SiO2 
 PCOD9527750
Probable space group: I B A M
;
_chemical_formula_sum "Si O2"
_cell_formula_units_Z 96
_cell_length_a 24.544458
_cell_length_b 24.720372
_cell_length_c 8.470959
_cell_angle_alpha 90.000000
_cell_angle_beta 90.000000
_cell_angle_gamma 90.000000
_cell_volume 5139.738552
_symmetry_space_group_name_H-M "I B A M"
_symmetry_group_IT_number 72
_symmetry_cell_setting 'orthorhombic'
loop_
_space_group_symop_operation_xyz
x,y,z
-x,-y,z
x,-y,1/2-z
-x,y,1/2-z
-x,-y,-z
x,y,-z
-x,y,1/2+z
x,-y,1/2+z
1/2+x,1/2+y,1/2+z
1/2-x,1/2-y,1/2+z
1/2+x,1/2-y,-z
1/2-x,1/2+y,-z
1/2-x,1/2-y,1/2-z
1/2+x,1/2+y,1/2-z
1/2-x,1/2+y,z
1/2+x,1/2-y,z
loop_
_atom_site_type_symbol
_atom_site_label
_atom_site_fract_x
_atom_site_fract_y
_atom_site_fract_z
Si Si1 0.357219 0.144218 0.315050
Si Si2 0.441584 0.354924 0.187864
Si Si3 0.228946 0.559865 0.811660
Si Si4 0.939894 0.732824 0.189376
Si Si5 0.061516 0.442517 0.309973
Si Si6 0.144572 0.059299 0.810523
O O1 0.345956 0.151086 0.500000
O O2 0.306193 0.111828 0.241729
O O3 0.386426 0.199339 0.254497
O O4 0.405608 0.102596 0.280796
O O5 0.500000 0.375485 0.250000
O O6 0.434291 0.295039 0.259649
O O7 0.393980 0.394867 0.240500
O O8 0.443617 0.350315 0.000000
O O9 0.211703 0.500000 0.750000
O O10 0.292097 0.567099 0.763299
O O11 0.225562 0.557152 0.000000
O O12 0.000000 0.713819 0.250000
O O13 0.941567 0.728612 0.000000
O O14 0.083030 0.500000 0.250000
O O15 0.065133 0.438019 0.500000
O O16 0.000000 0.439357 0.250000
O O17 0.127897 0.000000 0.750000
O O18 0.141707 0.060637 0.000000
#
# Coordination Sequence:
#
# PCOD9527750 Si02
#       6
#    16  16  16  16  16  16
#     4  11  22  35  53  77 106 143 189 234 277 330
#     4  11  22  38  62  89 118 150 183 223 273 331
#     4  10  21  37  58  82 112 149 188 234 283 332
#     4  10  21  37  57  81 111 148 188 234 283 332
#     4  11  21  33  48  68  98 133 175 228 286 339
#     4  10  21  39  62  89 119 149 184 225 274 331
#
# _framework density 18.677992
#
# number of rings (size 3 to 8) (size 9 to 14) (size 15 to 20)
#    0.000    1.500    0.000    7.500    0.000    6.333 
#    0.000    2.500    0.000    0.000    0.000    0.000 
#    0.000    0.000    0.000    0.000    0.000    0.000 
#
# Total GULP energy -267846.034969 kJ/mol
# GULP energy per Si atom -5580.125729 kJ/mol
# Density = 1.863548 g / cm^3
# Si number density = 18.677992 Si / 1000 Ang^3
#
#
#
# Elastic Constant Matrix: (Units=GPa)
#
#
# Indices 1 2 3 4 5 6 
#
# 1 109.2447 62.8925 20.2762 0.0000 0.0000 0.0000
# 2 62.8925 86.6832 11.4157 0.0000 0.0000 0.0000
# 3 20.2762 11.4157 39.9447 0.0000 0.0000 0.0000
# 4 0.0000 0.0000 0.0000 28.5263 0.0000 0.0000
# 5 0.0000 0.0000 0.0000 0.0000 29.0154 0.0000
# 6 0.0000 0.0000 0.0000 0.0000 0.0000 37.2864
#
#
#
# Elastic Compliance Matrix: (Units=1/GPa)
#
#
# Indices 1 2 3 4 5 6 
#
# 1 0.016702 -0.011432 -0.005211 0.000000 0.000000 0.000000
# 2 -0.011432 0.019812 0.000141 0.000000 0.000000 0.000000
# 3 -0.005211 0.000141 0.027640 0.000000 0.000000 0.000000
# 4 0.000000 0.000000 0.000000 0.035055 0.000000 0.000000
# 5 0.000000 0.000000 0.000000 0.000000 0.034465 0.000000
# 6 0.000000 0.000000 0.000000 0.000000 0.000000 0.026819
#
#
# Mechanical properties :
#
#
# Convention : Reuss Voigt Hill
#
# Bulk Modulus (GPa) = 32.10314 47.22681 39.66497
# Shear Modulus (GPa) = 24.52408 28.38483 26.45445
#
# Velocity S-wave (km/s) = 3.62746 3.90255 3.76752
# Velocity P-wave (km/s) = 5.89657 6.75620 6.34097
#
# Compressibility (1/GPa) = 0.03114960
#
# Stress axis : x y z
#
# Youngs Moduli (GPa) = 59.87141 50.47394 36.18008
#
# Poissons Ratio (x) = 0.57702 0.18854
# Poissons Ratio (y) = 0.68446 -0.00510
# Poissons Ratio (z) = 0.31200 -0.00711
#
# Static dielectric constant tensor:
#      x y z
#    x 1.643320 0.000000 0.000000 
#    y 0.000000 1.627350 0.000000 
#    z 0.000000 0.000000 1.629960 
# 
# From -- ./inp_files/8274.got.cif
#   From: 2010.05.17/outbox.cif.g08.bks.cpg/sg72_5_cif.got.tgz:8274.got - 2010.06.03 17:03:01.
