data_PCOD9527573
_publ_section_title
;
Structure prediction by ZEFSAII (Michael W. Deem and Ramdas Pophale) SiO2 
 PCOD9527573
Probable space group: I B A M
;
_chemical_formula_sum "Si O2"
_cell_formula_units_Z 96
_cell_length_a 24.122718
_cell_length_b 12.288134
_cell_length_c 15.779604
_cell_angle_alpha 90.000000
_cell_angle_beta 90.000000
_cell_angle_gamma 90.000000
_cell_volume 4677.440574
_symmetry_space_group_name_H-M "I B A M"
_symmetry_group_IT_number 72
_symmetry_cell_setting 'orthorhombic'
loop_
_space_group_symop_operation_xyz
x,y,z
-x,-y,z
x,-y,1/2-z
-x,y,1/2-z
-x,-y,-z
x,y,-z
-x,y,1/2+z
x,-y,1/2+z
1/2+x,1/2+y,1/2+z
1/2-x,1/2-y,1/2+z
1/2+x,1/2-y,-z
1/2-x,1/2+y,-z
1/2-x,1/2-y,1/2-z
1/2+x,1/2+y,1/2-z
1/2-x,1/2+y,z
1/2+x,1/2-y,z
loop_
_atom_site_type_symbol
_atom_site_label
_atom_site_fract_x
_atom_site_fract_y
_atom_site_fract_z
Si Si1 0.570271 0.208234 0.145035
Si Si2 0.056406 0.703770 0.852224
Si Si3 0.847856 0.110516 0.353597
Si Si4 0.146899 0.866884 0.848657
Si Si5 0.634601 0.007021 0.648074
Si Si6 0.774146 0.671925 0.400364
O O1 0.562906 0.204657 0.248646
O O2 0.506583 0.199455 0.117705
O O3 0.600572 0.317713 0.115509
O O4 0.611044 0.109314 0.119706
O O5 0.090511 0.809828 0.879948
O O6 0.089622 0.596829 0.879671
O O7 0.855304 0.114062 0.252092
O O8 0.789066 0.165505 0.371999
O O9 0.845129 0.986766 0.385946
O O10 0.194101 0.776104 0.862299
O O11 0.693084 0.059899 0.621794
O O12 0.636196 0.000000 0.750000
O O13 0.776528 0.685046 0.500000
#
# Coordination Sequence:
#
# PCOD9527573 Si02
#       6
#    16  16  16  16  16  16
#     4   9  16  29  53  85 115 141 188 237 279 340
#     4   8  15  30  53  84 115 145 180 235 292 328
#     4  10  21  34  56  84 109 151 191 230 285 340
#     4   9  20  37  56  79 112 147 190 234 286 341
#     4   9  18  32  56  85 112 152 188 235 284 335
#     4  11  24  38  56  80 114 156 194 240 288 336
#
# _framework density 20.524045999999998
#
# number of rings (size 3 to 8) (size 9 to 14) (size 15 to 20)
#    0.000    2.667    0.000    2.000    4.667    3.333 
#    0.000    3.333    0.000   12.000    0.000    5.833 
#    0.000    0.000    0.000    0.000    0.000    0.000 
#
# Total GULP energy -267621.376052 kJ/mol
# GULP energy per Si atom -5575.445334 kJ/mol
# Density = 2.047733 g / cm^3
# Si number density = 20.524046 Si / 1000 Ang^3
#
#
#
# Elastic Constant Matrix: (Units=GPa)
#
#
# Indices 1 2 3 4 5 6 
#
# 1 68.4364 11.8540 -0.6360 0.0000 0.0000 0.0000
# 2 11.8540 102.9172 10.6002 0.0000 0.0000 0.0000
# 3 -0.6360 10.6002 20.8530 0.0000 0.0000 0.0000
# 4 0.0000 0.0000 0.0000 -4.6140 0.0000 0.0000
# 5 0.0000 0.0000 0.0000 0.0000 -25.1278 0.0000
# 6 0.0000 0.0000 0.0000 0.0000 0.0000 10.9772
#
#
#
# Elastic Compliance Matrix: (Units=1/GPa)
#
#
# Indices 1 2 3 4 5 6 
#
# 1 0.014948 -0.001866 0.001405 0.000000 0.000000 0.000000
# 2 -0.001866 0.010486 -0.005387 0.000000 0.000000 0.000000
# 3 0.001405 -0.005387 0.050736 0.000000 0.000000 0.000000
# 4 0.000000 0.000000 0.000000 -0.216731 0.000000 0.000000
# 5 0.000000 0.000000 0.000000 0.000000 -0.039797 0.000000
# 6 0.000000 0.000000 0.000000 0.000000 0.000000 0.091098
#
#
# Mechanical properties :
#
#
# Convention : Reuss Voigt Hill
#
# Bulk Modulus (GPa) = 15.51047 26.20476 20.85762
# Shear Modulus (GPa) = -89.17618 7.60629 -40.78495
#
# Velocity S-wave (km/s) = -6.59878 1.92720 -4.46261
# Velocity P-wave (km/s) = 7.10528 4.21280 4.04582
#
# Compressibility (1/GPa) = 0.06447258
#
# Stress axis : x y z
#
# Youngs Moduli (GPa) = 66.89655 95.36143 19.70980
#
# Poissons Ratio (x) = 0.17799 -0.02769
# Poissons Ratio (y) = 0.12486 0.10619
# Poissons Ratio (z) = -0.09397 0.51376
#
# Static dielectric constant tensor:
#      x y z
#    x 1.719290 0.000000 0.000000 
#    y 0.000000 1.754100 0.000000 
#    z 0.000000 0.000000 1.757430 
# 
# From -- ./inp_files/33300.got.cif
#   From: 2010.05.17/outbox.cif.g08.bks.cpg/sg72_17_cif.got.tgz:33300.got - 2010.06.03 17:03:01.
