data_PCOD9527564
_publ_section_title
;
Structure prediction by ZEFSAII (Michael W. Deem and Ramdas Pophale) SiO2 
 PCOD9527564
Probable space group: I B A M
;
_chemical_formula_sum "Si O2"
_cell_formula_units_Z 64
_cell_length_a 10.070105
_cell_length_b 20.181969
_cell_length_c 17.455207
_cell_angle_alpha 90.000000
_cell_angle_beta 90.000000
_cell_angle_gamma 90.000000
_cell_volume 3547.501086
_symmetry_space_group_name_H-M "I B A M"
_symmetry_group_IT_number 72
_symmetry_cell_setting 'orthorhombic'
loop_
_space_group_symop_operation_xyz
x,y,z
-x,-y,z
x,-y,1/2-z
-x,y,1/2-z
-x,-y,-z
x,y,-z
-x,y,1/2+z
x,-y,1/2+z
1/2+x,1/2+y,1/2+z
1/2-x,1/2-y,1/2+z
1/2+x,1/2-y,-z
1/2-x,1/2+y,-z
1/2-x,1/2-y,1/2-z
1/2+x,1/2+y,1/2-z
1/2-x,1/2+y,z
1/2+x,1/2-y,z
loop_
_atom_site_type_symbol
_atom_site_label
_atom_site_fract_x
_atom_site_fract_y
_atom_site_fract_z
Si Si1 0.846390 0.000668 0.590352
Si Si2 0.134220 0.438121 0.189502
Si Si3 0.360940 0.799250 0.721681
Si Si4 0.619101 0.108914 0.409330
O O1 0.845567 0.986078 0.500000
O O2 0.756003 0.067025 0.600422
O O3 0.761642 0.947911 0.636978
O O4 0.000000 0.000000 0.615438
O O5 0.131752 0.500000 0.250000
O O6 0.149602 0.370644 0.236633
O O7 0.005321 0.427077 0.134115
O O8 0.500000 0.770353 0.750000
O O9 0.250000 0.750000 0.750000
O O10 0.363933 0.820481 0.632695
O O11 0.591955 0.112717 0.500000
#
# Coordination Sequence:
#
# PCOD9527564 Si02
#       4
#    16  16  16  16
#     4  10  21  34  52  87 124 152 187 244 305 352
#     4  11  21  37  62  91 118 153 205 250 299 366
#     4  10  23  40  59  83 119 155 200 246 295 363
#     4  10  21  38  62  87 118 158 201 250 301 357
#
# _framework density 18.040868
#
# number of rings (size 3 to 8) (size 9 to 14) (size 15 to 20)
#    0.000    1.750    2.500    1.500    7.000    4.500 
#    0.000    6.250    0.000    0.000    0.000    0.000 
#    0.000    0.000    0.000    0.000    0.000    0.000 
#
# Total GULP energy -178266.049189 kJ/mol
# GULP energy per Si atom -5570.814037 kJ/mol
# Density = 1.799981 g / cm^3
# Si number density = 18.040868 Si / 1000 Ang^3
#
#
#
# Elastic Constant Matrix: (Units=GPa)
#
#
# Indices 1 2 3 4 5 6 
#
# 1 186.7777 53.9711 69.9179 0.0000 0.0000 0.0000
# 2 53.9711 76.9516 43.7571 0.0000 0.0000 0.0000
# 3 69.9179 43.7571 113.2441 0.0000 0.0000 0.0000
# 4 0.0000 0.0000 0.0000 12.4240 0.0000 0.0000
# 5 0.0000 0.0000 0.0000 0.0000 31.8914 0.0000
# 6 0.0000 0.0000 0.0000 0.0000 0.0000 26.4673
#
#
#
# Elastic Compliance Matrix: (Units=1/GPa)
#
#
# Indices 1 2 3 4 5 6 
#
# 1 0.007604 -0.003414 -0.003376 0.000000 0.000000 0.000000
# 2 -0.003414 0.018187 -0.004920 0.000000 0.000000 0.000000
# 3 -0.003376 -0.004920 0.012816 0.000000 0.000000 0.000000
# 4 0.000000 0.000000 0.000000 0.080489 0.000000 0.000000
# 5 0.000000 0.000000 0.000000 0.000000 0.031356 0.000000
# 6 0.000000 0.000000 0.000000 0.000000 0.000000 0.037782
#
#
# Mechanical properties :
#
#
# Convention : Reuss Voigt Hill
#
# Bulk Modulus (GPa) = 65.84013 79.14063 72.49038
# Shear Modulus (GPa) = 23.07168 28.11171 25.59169
#
# Velocity S-wave (km/s) = 3.57999 3.95172 3.77044
# Velocity P-wave (km/s) = 7.32548 8.04886 7.69567
#
# Compressibility (1/GPa) = 0.01518831
#
# Stress axis : x y z
#
# Youngs Moduli (GPa) = 131.50909 54.98469 78.02935
#
# Poissons Ratio (x) = 0.18770 0.26341
# Poissons Ratio (y) = 0.44892 0.38388
# Poissons Ratio (z) = 0.44395 0.27051
#
# Static dielectric constant tensor:
#      x y z
#    x 1.650120 0.000000 0.000000 
#    y 0.000000 1.628520 0.000000 
#    z 0.000000 0.000000 1.656780 
# 
# From -- ./inp_files/27664.got.cif
#   From: 2010.05.17/outbox.cif.g08.bks.cpg/sg72_14_cif.got.tgz:27664.got - 2010.06.03 17:03:01.
