data_PCOD9527793
_publ_section_title
;
Structure prediction by ZEFSAII (Michael W. Deem and Ramdas Pophale) SiO2 
 PCOD9527793
Probable space group: I B A M
;
_chemical_formula_sum "Si O2"
_cell_formula_units_Z 96
_cell_length_a 14.339173
_cell_length_b 14.876894
_cell_length_c 22.890127
_cell_angle_alpha 90.000000
_cell_angle_beta 90.000000
_cell_angle_gamma 90.000000
_cell_volume 4882.975838
_symmetry_space_group_name_H-M "I B A M"
_symmetry_group_IT_number 72
_symmetry_cell_setting 'orthorhombic'
loop_
_space_group_symop_operation_xyz
x,y,z
-x,-y,z
x,-y,1/2-z
-x,y,1/2-z
-x,-y,-z
x,y,-z
-x,y,1/2+z
x,-y,1/2+z
1/2+x,1/2+y,1/2+z
1/2-x,1/2-y,1/2+z
1/2+x,1/2-y,-z
1/2-x,1/2+y,-z
1/2-x,1/2-y,1/2-z
1/2+x,1/2+y,1/2-z
1/2-x,1/2+y,z
1/2+x,1/2-y,z
loop_
_atom_site_type_symbol
_atom_site_label
_atom_site_fract_x
_atom_site_fract_y
_atom_site_fract_z
Si Si1 0.608152 0.176683 0.249735
Si Si2 0.193697 0.948990 0.876558
Si Si3 0.752529 0.118027 0.431904
Si Si4 0.500000 0.500000 0.148801
Si Si5 0.124923 0.242213 0.624219
Si Si6 0.764255 0.500000 0.750000
Si Si7 0.923715 0.183689 0.648381
O O1 0.500000 0.147158 0.250000
O O2 0.629226 0.234034 0.307289
O O3 0.672771 0.089461 0.253300
O O4 0.614162 0.243446 0.194424
O O5 0.087003 0.972971 0.890708
O O6 0.193490 0.842766 0.885060
O O7 0.207166 0.980226 0.809153
O O8 0.258504 0.013282 0.914307
O O9 0.770931 0.127236 0.500000
O O10 0.663203 0.175148 0.412655
O O11 0.839440 0.154922 0.393507
O O12 0.466200 0.592687 0.179140
O O13 0.015158 0.221510 0.615009
#
# Coordination Sequence:
#
# PCOD9527793 Si02
#       7
#    16  16  16   8  16   8  16
#     4  10  21  37  59  90 124 152 193 244 296 358
#     4  10  22  35  57  86 115 153 197 239 299 350
#     4  11  23  40  59  84 121 157 203 247 287 352
#     4   8  18  37  51  84 122 150 185 235 298 354
#     4  10  21  40  60  88 118 157 196 243 305 351
#     4  12  21  33  58  86 122 158 188 243 293 354
#     4   9  20  38  60  88 120 156 197 243 298 355
#
# _framework density 19.660143000000001
#
# number of rings (size 3 to 8) (size 9 to 14) (size 15 to 20)
#    0.000    2.000    1.667    1.250    4.667    3.000 
#    0.000   14.167    0.000    0.000    0.000    4.667 
#    0.000    0.000    0.000    0.000    0.000    0.000 
#
# Total GULP energy -267510.334176 kJ/mol
# GULP energy per Si atom -5573.131962 kJ/mol
# Density = 1.961540 g / cm^3
# Si number density = 19.660143 Si / 1000 Ang^3
#
#
#
# Elastic Constant Matrix: (Units=GPa)
#
#
# Indices 1 2 3 4 5 6 
#
# 1 45.1019 9.7734 -7.2402 0.0000 0.0000 0.0000
# 2 9.7734 73.0739 -23.9389 0.0000 0.0000 0.0000
# 3 -7.2402 -23.9389 37.1614 0.0000 0.0000 0.0000
# 4 0.0000 0.0000 0.0000 12.0365 0.0000 0.0000
# 5 0.0000 0.0000 0.0000 0.0000 4.2404 0.0000
# 6 0.0000 0.0000 0.0000 0.0000 0.0000 27.4440
#
#
#
# Elastic Compliance Matrix: (Units=1/GPa)
#
#
# Indices 1 2 3 4 5 6 
#
# 1 0.023128 -0.002050 0.003186 0.000000 0.000000 0.000000
# 2 -0.002050 0.017527 0.010891 0.000000 0.000000 0.000000
# 3 0.003186 0.010891 0.034546 0.000000 0.000000 0.000000
# 4 0.000000 0.000000 0.000000 0.083081 0.000000 0.000000
# 5 0.000000 0.000000 0.000000 0.000000 0.235828 0.000000
# 6 0.000000 0.000000 0.000000 0.000000 0.000000 0.036438
#
#
# Mechanical properties :
#
#
# Convention : Reuss Voigt Hill
#
# Bulk Modulus (GPa) = 10.07506 12.50289 11.28897
# Shear Modulus (GPa) = 11.37454 20.52702 15.95078
#
# Velocity S-wave (km/s) = 2.40793 3.23475 2.85147
# Velocity P-wave (km/s) = 3.58700 4.50830 4.07378
#
# Compressibility (1/GPa) = 0.09925503
#
# Stress axis : x y z
#
# Youngs Moduli (GPa) = 43.23847 57.05526 28.94666
#
# Poissons Ratio (x) = 0.11694 -0.09221
# Poissons Ratio (y) = 0.08862 -0.31527
# Poissons Ratio (z) = -0.13774 -0.62140
#
# Static dielectric constant tensor:
#      x y z
#    x 1.720510 0.000000 0.000000 
#    y 0.000000 1.760470 0.000000 
#    z 0.000000 0.000000 1.674000 
# 
# From -- ./inp_files/38067.got.cif
#   From: 2010.05.17/outbox.cif.g08.bks.cpg/sg72_20_cif.got.tgz:38067.got - 2010.06.03 17:03:01.
