data_PCOD9527324
_publ_section_title
;
Structure prediction by ZEFSAII (Michael W. Deem and Ramdas Pophale) SiO2 
 PCOD9527324
Probable space group: I B A M
;
_chemical_formula_sum "Si O2"
_cell_formula_units_Z 116
_cell_length_a 17.673127
_cell_length_b 11.893216
_cell_length_c 26.683666
_cell_angle_alpha 90.000000
_cell_angle_beta 90.000000
_cell_angle_gamma 90.000000
_cell_volume 5608.648210
_symmetry_space_group_name_H-M "I B A M"
_symmetry_group_IT_number 72
_symmetry_cell_setting 'orthorhombic'
loop_
_space_group_symop_operation_xyz
x,y,z
-x,-y,z
x,-y,1/2-z
-x,y,1/2-z
-x,-y,-z
x,y,-z
-x,y,1/2+z
x,-y,1/2+z
1/2+x,1/2+y,1/2+z
1/2-x,1/2-y,1/2+z
1/2+x,1/2-y,-z
1/2-x,1/2+y,-z
1/2-x,1/2-y,1/2-z
1/2+x,1/2+y,1/2-z
1/2-x,1/2+y,z
1/2+x,1/2-y,z
loop_
_atom_site_type_symbol
_atom_site_label
_atom_site_fract_x
_atom_site_fract_y
_atom_site_fract_z
Si Si1 0.681036 0.885972 0.223095
Si Si2 0.875889 0.639001 0.057765
Si Si3 0.161577 0.136969 0.101063
Si Si4 0.500000 0.500000 0.250000
Si Si5 0.827601 0.437174 0.890931
Si Si6 0.361332 0.665749 0.215468
Si Si7 0.539692 0.814145 0.940506
Si Si8 0.078502 0.933572 0.057089
O O1 0.655634 0.902599 0.165836
O O2 0.643673 0.778645 0.250744
O O3 0.774246 0.880662 0.223905
O O4 0.658649 0.000000 0.250000
O O5 0.863421 0.772580 0.060483
O O6 0.822896 0.569235 0.095465
O O7 0.961898 0.631120 0.077021
O O8 0.866973 0.602019 0.000000
O O9 0.250599 0.125260 0.097409
O O10 0.137193 0.182269 0.155473
O O11 0.129489 0.012886 0.091188
O O12 0.435419 0.587045 0.226710
O O13 0.892135 0.393789 0.927314
O O14 0.560134 0.689389 0.921526
O O15 0.529799 0.801142 0.000000
O O16 0.109732 0.923484 0.000000
O O17 0.000000 0.000000 0.053589
#
# Coordination Sequence:
#
# PCOD9527324 Si02
#       8
#    16  16  16   4  16  16  16  16
#     4  10  21  47  67  90 128 177 210 265 333 405
#     4  11  23  41  63  91 131 170 211 263 316 378
#     4  11  24  40  60  97 126 167 212 262 317 385
#     4  12  24  44  66 112 126 162 216 286 320 388
#     4  11  25  39  65  93 123 167 217 257 318 381
#     4  10  24  40  69  95 132 166 215 272 333 379
#     4  10  22  41  63  90 127 171 212 256 315 376
#     4  10  20  38  61  88 125 167 206 255 316 374
#
# _framework density 20.682345000000002
#
# number of rings (size 3 to 8) (size 9 to 14) (size 15 to 20)
#    0.000    1.517    2.069    2.069    2.897    5.517 
#    0.000    1.724    0.000    0.000    0.000    0.000 
#    0.000    0.000    0.000    0.000    0.000    0.000 
#
# Total GULP energy -323207.433421 kJ/mol
# GULP energy per Si atom -5572.541956 kJ/mol
# Density = 2.063527 g / cm^3
# Si number density = 20.682345 Si / 1000 Ang^3
#
#
#
# Elastic Constant Matrix: (Units=GPa)
#
#
# Indices 1 2 3 4 5 6 
#
# 1 69.0482 9.7536 29.5008 0.0000 0.0000 0.0000
# 2 9.7536 92.5748 30.5875 0.0000 0.0000 0.0000
# 3 29.5008 30.5875 63.6676 0.0000 0.0000 0.0000
# 4 0.0000 0.0000 0.0000 19.3603 0.0000 0.0000
# 5 0.0000 0.0000 0.0000 0.0000 1.7192 0.0000
# 6 0.0000 0.0000 0.0000 0.0000 0.0000 26.5923
#
#
#
# Elastic Compliance Matrix: (Units=1/GPa)
#
#
# Indices 1 2 3 4 5 6 
#
# 1 0.018140 0.001029 -0.008900 0.000000 0.000000 0.000000
# 2 0.001029 0.012899 -0.006674 0.000000 0.000000 0.000000
# 3 -0.008900 -0.006674 0.023037 0.000000 0.000000 0.000000
# 4 0.000000 0.000000 0.000000 0.051652 0.000000 0.000000
# 5 0.000000 0.000000 0.000000 0.000000 0.581671 0.000000
# 6 0.000000 0.000000 0.000000 0.000000 0.000000 0.037605
#
#
# Mechanical properties :
#
#
# Convention : Reuss Voigt Hill
#
# Bulk Modulus (GPa) = 40.02136 40.55270 40.28703
# Shear Modulus (GPa) = 6.55807 19.89760 13.22783
#
# Velocity S-wave (km/s) = 1.78262 3.10507 2.53172
# Velocity P-wave (km/s) = 4.86102 5.70134 5.29786
#
# Compressibility (1/GPa) = 0.02498666
#
# Stress axis : x y z
#
# Youngs Moduli (GPa) = 55.12802 77.52716 43.40932
#
# Poissons Ratio (x) = -0.07980 0.38633
# Poissons Ratio (y) = -0.05675 0.28971
# Poissons Ratio (z) = 0.49062 0.51740
#
# Static dielectric constant tensor:
#      x y z
#    x 1.752600 0.000000 0.000000 
#    y 0.000000 1.848240 0.000000 
#    z 0.000000 0.000000 1.781600 
# 
# From -- ./inp_files/49124.got.cif
#   From: 2010.05.17/outbox.cif.g08.bks.cpg/sg72_25_cif.got.tgz:49124.got - 2010.06.03 17:03:01.
