data_PCOD9527478
_publ_section_title
;
Structure prediction by ZEFSAII (Michael W. Deem and Ramdas Pophale) SiO2 
 PCOD9527478
Probable space group: I B A M
;
_chemical_formula_sum "Si O2"
_cell_formula_units_Z 64
_cell_length_a 11.604471
_cell_length_b 10.609069
_cell_length_c 23.159877
_cell_angle_alpha 90.000000
_cell_angle_beta 90.000000
_cell_angle_gamma 90.000000
_cell_volume 2851.273450
_symmetry_space_group_name_H-M "I B A M"
_symmetry_group_IT_number 72
_symmetry_cell_setting 'orthorhombic'
loop_
_space_group_symop_operation_xyz
x,y,z
-x,-y,z
x,-y,1/2-z
-x,y,1/2-z
-x,-y,-z
x,y,-z
-x,y,1/2+z
x,-y,1/2+z
1/2+x,1/2+y,1/2+z
1/2-x,1/2-y,1/2+z
1/2+x,1/2-y,-z
1/2-x,1/2+y,-z
1/2-x,1/2-y,1/2-z
1/2+x,1/2+y,1/2-z
1/2-x,1/2+y,z
1/2+x,1/2-y,z
loop_
_atom_site_type_symbol
_atom_site_label
_atom_site_fract_x
_atom_site_fract_y
_atom_site_fract_z
Si Si1 0.098341 0.586261 0.890161
Si Si2 0.341609 0.523761 0.123381
Si Si3 0.995884 0.806197 0.318372
Si Si4 0.101042 0.138299 0.000000
Si Si5 0.159477 0.749118 0.000000
O O1 0.206504 0.504994 0.870089
O O2 0.043655 0.670315 0.839780
O O3 0.000000 0.500000 0.915949
O O4 0.144029 0.676145 0.940188
O O5 0.381195 0.649832 0.156780
O O6 0.409885 0.407350 0.151218
O O7 0.372121 0.554068 0.056811
O O8 0.000000 0.818874 0.250000
O O9 0.965565 0.175632 0.000000
O O10 0.195923 0.255897 0.000000
#
# Coordination Sequence:
#
# PCOD9527478 Si02
#       5
#    16  16  16   8   8
#     4  11  25  43  69 100 136 176 225 277 345 410
#     4  10  23  43  69 100 133 173 224 281 343 404
#     4  11  25  46  67  94 136 181 230 281 332 395
#     4  10  20  40  72 106 132 181 219 282 353 421
#     4  10  21  41  67 101 143 174 218 286 348 415
#
# _framework density 22.446110999999998
#
# number of rings (size 3 to 8) (size 9 to 14) (size 15 to 20)
#    0.000    1.500    2.500    1.875    3.500    4.500 
#    4.500    0.000    0.000    0.000    0.000    0.000 
#    0.000    0.000    0.000    0.000    0.000    0.000 
#
# Total GULP energy -178504.777722 kJ/mol
# GULP energy per Si atom -5578.274304 kJ/mol
# Density = 2.239502 g / cm^3
# Si number density = 22.446111 Si / 1000 Ang^3
#
#
#
# Elastic Constant Matrix: (Units=GPa)
#
#
# Indices 1 2 3 4 5 6 
#
# 1 117.1010 13.2076 -6.1220 0.0000 0.0000 0.0000
# 2 13.2076 22.7320 2.9413 0.0000 0.0000 0.0000
# 3 -6.1220 2.9413 149.5088 0.0000 0.0000 0.0000
# 4 0.0000 0.0000 0.0000 -42.1843 0.0000 0.0000
# 5 0.0000 0.0000 0.0000 0.0000 -205.6222 0.0000
# 6 0.0000 0.0000 0.0000 0.0000 0.0000 10.5154
#
#
#
# Elastic Compliance Matrix: (Units=1/GPa)
#
#
# Indices 1 2 3 4 5 6 
#
# 1 0.009173 -0.005392 0.000482 0.000000 0.000000 0.000000
# 2 -0.005392 0.047272 -0.001151 0.000000 0.000000 0.000000
# 3 0.000482 -0.001151 0.006731 0.000000 0.000000 0.000000
# 4 0.000000 0.000000 0.000000 -0.023705 0.000000 0.000000
# 5 0.000000 0.000000 0.000000 0.000000 -0.004863 0.000000
# 6 0.000000 0.000000 0.000000 0.000000 0.000000 0.095098
#
#
# Mechanical properties :
#
#
# Convention : Reuss Voigt Hill
#
# Bulk Modulus (GPa) = 19.58698 34.37728 26.98213
# Shear Modulus (GPa) = 31.47702 -28.83723 1.31990
#
# Velocity S-wave (km/s) = 3.74884 -3.58820 0.76766
# Velocity P-wave (km/s) = 5.24248 1.34841 3.58227
#
# Compressibility (1/GPa) = 0.05105432
#
# Stress axis : x y z
#
# Youngs Moduli (GPa) = 109.01609 21.15399 148.56779
#
# Poissons Ratio (x) = 0.11406 -0.07156
# Poissons Ratio (y) = 0.58780 0.17097
# Poissons Ratio (z) = -0.05251 0.02434
#
# Static dielectric constant tensor:
#      x y z
#    x 1.895320 0.000000 0.000000 
#    y 0.000000 1.916380 0.000000 
#    z 0.000000 0.000000 1.774390 
# 
# From -- ./inp_files/42956.got.cif
#   From: 2010.05.17/outbox.cif.g08.bks.cpg/sg72_22_cif.got.tgz:42956.got - 2010.06.03 17:03:01.
