data_PCOD9527845
_publ_section_title
;
Structure prediction by ZEFSAII (Michael W. Deem and Ramdas Pophale) SiO2 
 PCOD9527845
Probable space group: I B A M
;
_chemical_formula_sum "Si O2"
_cell_formula_units_Z 64
_cell_length_a 10.035998
_cell_length_b 15.786639
_cell_length_c 17.256693
_cell_angle_alpha 90.000000
_cell_angle_beta 90.000000
_cell_angle_gamma 90.000000
_cell_volume 2734.058589
_symmetry_space_group_name_H-M "I B A M"
_symmetry_group_IT_number 72
_symmetry_cell_setting 'orthorhombic'
loop_
_space_group_symop_operation_xyz
x,y,z
-x,-y,z
x,-y,1/2-z
-x,y,1/2-z
-x,-y,-z
x,y,-z
-x,y,1/2+z
x,-y,1/2+z
1/2+x,1/2+y,1/2+z
1/2-x,1/2-y,1/2+z
1/2+x,1/2-y,-z
1/2-x,1/2+y,-z
1/2-x,1/2-y,1/2-z
1/2+x,1/2+y,1/2-z
1/2-x,1/2+y,z
1/2+x,1/2-y,z
loop_
_atom_site_type_symbol
_atom_site_label
_atom_site_fract_x
_atom_site_fract_y
_atom_site_fract_z
Si Si1 0.779614 0.775740 0.500000
Si Si2 0.831346 0.912212 0.795487
Si Si3 0.086861 0.819023 0.846326
Si Si4 0.489316 0.855067 0.000000
Si Si5 0.044256 0.379788 0.663413
O O1 0.829971 0.823778 0.575970
O O2 0.620041 0.778626 0.500000
O O3 0.863019 0.687942 0.500000
O O4 0.822184 0.843087 0.726661
O O5 0.696682 0.909827 0.842997
O O6 0.960878 0.882074 0.842470
O O7 0.847009 0.000000 0.750000
O O8 0.038949 0.722640 0.837346
O O9 0.472740 0.902646 0.082219
O O10 0.000000 0.406930 0.750000
#
# Coordination Sequence:
#
# PCOD9527845 Si02
#       5
#     8  16  16   8  16
#     4  10  22  36  62  97 136 175 224 295 337 403
#     4  11  23  40  62  96 133 177 229 283 345 420
#     4  10  21  37  66  90 130 173 235 276 345 402
#     4  10  24  36  61 103 141 171 239 281 350 409
#     4  11  22  38  68  93 134 178 233 284 350 396
#
# _framework density 23.408424
#
# number of rings (size 3 to 8) (size 9 to 14) (size 15 to 20)
#    0.000    1.500    2.500    3.750   14.000    0.500 
#    0.000    3.750    0.000    3.000    0.000    0.000 
#    0.000    0.000    0.000    0.000    0.000    0.000 
#
# Total GULP energy -178723.750998 kJ/mol
# GULP energy per Si atom -5585.117219 kJ/mol
# Density = 2.335514 g / cm^3
# Si number density = 23.408424 Si / 1000 Ang^3
#
#
#
# Elastic Constant Matrix: (Units=GPa)
#
#
# Indices 1 2 3 4 5 6 
#
# 1 98.3883 20.6323 17.7744 0.0000 0.0000 0.0000
# 2 20.6323 108.9137 -2.7127 0.0000 0.0000 0.0000
# 3 17.7744 -2.7127 159.9996 0.0000 0.0000 0.0000
# 4 0.0000 0.0000 0.0000 -5.9509 0.0000 0.0000
# 5 0.0000 0.0000 0.0000 0.0000 25.2866 0.0000
# 6 0.0000 0.0000 0.0000 0.0000 0.0000 16.8170
#
#
#
# Elastic Compliance Matrix: (Units=1/GPa)
#
#
# Indices 1 2 3 4 5 6 
#
# 1 0.010824 -0.002081 -0.001238 0.000000 0.000000 0.000000
# 2 -0.002081 0.009586 0.000394 0.000000 0.000000 0.000000
# 3 -0.001238 0.000394 0.006394 0.000000 0.000000 0.000000
# 4 0.000000 0.000000 0.000000 -0.168042 0.000000 0.000000
# 5 0.000000 0.000000 0.000000 0.000000 0.039547 0.000000
# 6 0.000000 0.000000 0.000000 0.000000 0.000000 0.059463
#
#
# Mechanical properties :
#
#
# Convention : Reuss Voigt Hill
#
# Bulk Modulus (GPa) = 47.72540 48.74328 48.23434
# Shear Modulus (GPa) = -170.10654 29.33772 -70.38441
#
# Velocity S-wave (km/s) = -8.53386 3.54404 -5.48938
# Velocity P-wave (km/s) = 8.75613 6.13311 4.41898
#
# Compressibility (1/GPa) = 0.02095320
#
# Stress axis : x y z
#
# Youngs Moduli (GPa) = 92.38849 104.32259 156.39198
#
# Poissons Ratio (x) = 0.21712 0.19357
# Poissons Ratio (y) = 0.19228 -0.06158
# Poissons Ratio (z) = 0.11435 -0.04107
#
# Static dielectric constant tensor:
#      x y z
#    x 1.897430 0.000000 0.000000 
#    y 0.000000 1.870540 0.000000 
#    z 0.000000 0.000000 1.937080 
# 
# From -- ./inp_files/28819.got.cif
#   From: 2010.05.17/outbox.cif.g08.bks.cpg/sg72_15_cif.got.tgz:28819.got - 2010.06.03 17:03:01.
