data_PCOD9527207
_publ_section_title
;
Structure prediction by ZEFSAII (Michael W. Deem and Ramdas Pophale) SiO2 
 PCOD9527207
Probable space group: I B A M
;
_chemical_formula_sum "Si O2"
_cell_formula_units_Z 68
_cell_length_a 13.663430
_cell_length_b 8.966528
_cell_length_c 28.817528
_cell_angle_alpha 90.000000
_cell_angle_beta 90.000000
_cell_angle_gamma 90.000000
_cell_volume 3530.537014
_symmetry_space_group_name_H-M "I B A M"
_symmetry_group_IT_number 72
_symmetry_cell_setting 'orthorhombic'
loop_
_space_group_symop_operation_xyz
x,y,z
-x,-y,z
x,-y,1/2-z
-x,y,1/2-z
-x,-y,-z
x,y,-z
-x,y,1/2+z
x,-y,1/2+z
1/2+x,1/2+y,1/2+z
1/2-x,1/2-y,1/2+z
1/2+x,1/2-y,-z
1/2-x,1/2+y,-z
1/2-x,1/2-y,1/2-z
1/2+x,1/2+y,1/2-z
1/2-x,1/2+y,z
1/2+x,1/2-y,z
loop_
_atom_site_type_symbol
_atom_site_label
_atom_site_fract_x
_atom_site_fract_y
_atom_site_fract_z
Si Si1 0.058746 0.789128 0.000000
Si Si2 0.161718 0.888931 0.500000
Si Si3 0.321459 0.321592 0.709889
Si Si4 0.000000 0.000000 0.250000
Si Si5 0.181874 0.314897 0.420205
Si Si6 0.724664 0.071395 0.144731
O O1 0.090735 0.707631 0.953495
O O2 0.943910 0.813486 0.000000
O O3 0.128861 0.937401 0.000000
O O4 0.225724 0.844160 0.545045
O O5 0.250000 0.250000 0.750000
O O6 0.424260 0.387625 0.725678
O O7 0.337232 0.191424 0.672710
O O8 0.272200 0.460831 0.682825
O O9 0.202357 0.172933 0.386792
O O10 0.169706 0.460945 0.389413
#
# Coordination Sequence:
#
# PCOD9527207 Si02
#       6
#     8   8  16   4  16  16
#     4  10  20  37  60  85 128 168 209 256 316 379
#     4  10  20  37  60  89 120 169 214 249 316 388
#     4  11  22  45  68  96 129 169 214 271 330 397
#     4  12  24  44  74  94 128 182 206 260 356 390
#     4  10  20  39  60  91 124 168 206 263 323 368
#     4  10  21  40  66  90 132 162 210 274 317 379
#
# _framework density 19.260527
#
# number of rings (size 3 to 8) (size 9 to 14) (size 15 to 20)
#    0.000    1.647    4.706    0.000    0.000    0.000 
#    8.471    7.059    0.000    0.000    0.000    0.000 
#    0.000    0.000    0.000    0.000    0.000    0.000 
#
# Total GULP energy -189480.936900 kJ/mol
# GULP energy per Si atom -5572.968732 kJ/mol
# Density = 1.921669 g / cm^3
# Si number density = 19.260527 Si / 1000 Ang^3
#
#
#
# Elastic Constant Matrix: (Units=GPa)
#
#
# Indices 1 2 3 4 5 6 
#
# 1 86.0284 44.0346 48.2023 0.0000 0.0000 0.0000
# 2 44.0346 139.2680 68.9115 0.0000 0.0000 0.0000
# 3 48.2023 68.9115 119.7521 0.0000 0.0000 0.0000
# 4 0.0000 0.0000 0.0000 45.9056 0.0000 0.0000
# 5 0.0000 0.0000 0.0000 0.0000 3.4197 0.0000
# 6 0.0000 0.0000 0.0000 0.0000 0.0000 19.1649
#
#
#
# Elastic Compliance Matrix: (Units=1/GPa)
#
#
# Indices 1 2 3 4 5 6 
#
# 1 0.015635 -0.002558 -0.004821 0.000000 0.000000 0.000000
# 2 -0.002558 0.010457 -0.004988 0.000000 0.000000 0.000000
# 3 -0.004821 -0.004988 0.013162 0.000000 0.000000 0.000000
# 4 0.000000 0.000000 0.000000 0.021784 0.000000 0.000000
# 5 0.000000 0.000000 0.000000 0.000000 0.292426 0.000000
# 6 0.000000 0.000000 0.000000 0.000000 0.000000 0.052179
#
#
# Mechanical properties :
#
#
# Convention : Reuss Voigt Hill
#
# Bulk Modulus (GPa) = 68.87443 74.14948 71.51196
# Shear Modulus (GPa) = 11.48853 25.95805 18.72329
#
# Velocity S-wave (km/s) = 2.44494 3.67513 3.12125
# Velocity P-wave (km/s) = 6.61871 7.52267 7.08512
#
# Compressibility (1/GPa) = 0.01451918
#
# Stress axis : x y z
#
# Youngs Moduli (GPa) = 63.96003 95.62669 75.97814
#
# Poissons Ratio (x) = 0.24460 0.36632
# Poissons Ratio (y) = 0.16360 0.37899
# Poissons Ratio (z) = 0.30837 0.47700
#
# Static dielectric constant tensor:
#      x y z
#    x 1.652010 0.000000 0.000000 
#    y 0.000000 1.672450 0.000000 
#    z 0.000000 0.000000 1.716420 
# 
# From -- ./inp_files/48460.got.cif
#   From: 2010.05.17/outbox.cif.g08.bks.cpg/sg72_25_cif.got.tgz:48460.got - 2010.06.03 17:03:01.
