data_PCOD9527199
_publ_section_title
;
Structure prediction by ZEFSAII (Michael W. Deem and Ramdas Pophale) SiO2 
 PCOD9527199
Probable space group: I B A M
;
_chemical_formula_sum "Si O2"
_cell_formula_units_Z 96
_cell_length_a 20.237915
_cell_length_b 9.951096
_cell_length_c 26.516867
_cell_angle_alpha 90.000000
_cell_angle_beta 90.000000
_cell_angle_gamma 90.000000
_cell_volume 5340.216863
_symmetry_space_group_name_H-M "I B A M"
_symmetry_group_IT_number 72
_symmetry_cell_setting 'orthorhombic'
loop_
_space_group_symop_operation_xyz
x,y,z
-x,-y,z
x,-y,1/2-z
-x,y,1/2-z
-x,-y,-z
x,y,-z
-x,y,1/2+z
x,-y,1/2+z
1/2+x,1/2+y,1/2+z
1/2-x,1/2-y,1/2+z
1/2+x,1/2-y,-z
1/2-x,1/2+y,-z
1/2-x,1/2-y,1/2-z
1/2+x,1/2+y,1/2-z
1/2-x,1/2+y,z
1/2+x,1/2-y,z
loop_
_atom_site_type_symbol
_atom_site_label
_atom_site_fract_x
_atom_site_fract_y
_atom_site_fract_z
Si Si1 0.004575 0.659379 0.144413
Si Si2 0.541104 0.363051 0.558997
Si Si3 0.763368 0.207330 0.383548
Si Si4 0.854653 0.652736 0.693033
Si Si5 0.865274 0.330559 0.694031
Si Si6 0.693893 0.562760 0.059546
O O1 0.010059 0.749409 0.094536
O O2 0.072084 0.686202 0.174220
O O3 0.000000 0.500000 0.132360
O O4 0.941624 0.691333 0.179304
O O5 0.500000 0.500000 0.565633
O O6 0.537563 0.324219 0.500000
O O7 0.618126 0.393593 0.570853
O O8 0.700769 0.196316 0.346203
O O9 0.822227 0.261324 0.348819
O O10 0.742045 0.315181 0.425515
O O11 0.783863 0.066890 0.408653
O O12 0.852444 0.490522 0.693868
O O13 0.846802 0.711822 0.749170
O O14 0.697430 0.533545 0.000000
#
# Coordination Sequence:
#
# PCOD9527199 Si02
#       6
#    16  16  16  16  16  16
#     4  10  20  37  61  87 117 154 197 246 292 350
#     4  10  21  39  60  84 119 159 195 242 306 362
#     4  12  21  40  61  89 119 159 202 250 302 362
#     4  10  20  37  59  87 120 158 198 243 297 350
#     4  10  21  36  60  88 119 156 199 243 296 358
#     4  11  24  40  62  88 120 160 201 254 308 361
#
# _framework density 17.976799
#
# number of rings (size 3 to 8) (size 9 to 14) (size 15 to 20)
#    0.000    1.500    3.333    2.500    0.000    2.333 
#    0.000    0.833    0.000    1.000    0.000    0.000 
#    0.000    0.000    0.000    0.000    0.000    0.000 
#
# Total GULP energy -267929.925581 kJ/mol
# GULP energy per Si atom -5581.873450 kJ/mol
# Density = 1.793588 g / cm^3
# Si number density = 17.976799 Si / 1000 Ang^3
#
#
#
# Elastic Constant Matrix: (Units=GPa)
#
#
# Indices 1 2 3 4 5 6 
#
# 1 72.9091 10.0948 29.4304 0.0000 0.0000 0.0000
# 2 10.0948 38.5770 27.9686 0.0000 0.0000 0.0000
# 3 29.4304 27.9686 93.9118 0.0000 0.0000 0.0000
# 4 0.0000 0.0000 0.0000 13.3722 0.0000 0.0000
# 5 0.0000 0.0000 0.0000 0.0000 -21.2101 0.0000
# 6 0.0000 0.0000 0.0000 0.0000 0.0000 25.7885
#
#
#
# Elastic Compliance Matrix: (Units=1/GPa)
#
#
# Indices 1 2 3 4 5 6 
#
# 1 0.015716 -0.000691 -0.004719 0.000000 0.000000 0.000000
# 2 -0.000691 0.033091 -0.009639 0.000000 0.000000 0.000000
# 3 -0.004719 -0.009639 0.014998 0.000000 0.000000 0.000000
# 4 0.000000 0.000000 0.000000 0.074782 0.000000 0.000000
# 5 0.000000 0.000000 0.000000 0.000000 -0.047147 0.000000
# 6 0.000000 0.000000 0.000000 0.000000 0.000000 0.038777
#
#
# Mechanical properties :
#
#
# Convention : Reuss Voigt Hill
#
# Bulk Modulus (GPa) = 29.66723 37.82060 33.74391
# Shear Modulus (GPa) = 29.14589 12.78373 20.96481
#
# Velocity S-wave (km/s) = 4.03091 2.66958 3.41869
# Velocity P-wave (km/s) = 6.18088 5.53050 5.86471
#
# Compressibility (1/GPa) = 0.03370723
#
# Stress axis : x y z
#
# Youngs Moduli (GPa) = 63.62766 30.21969 66.67637
#
# Poissons Ratio (x) = 0.02088 0.31468
# Poissons Ratio (y) = 0.04397 0.64266
# Poissons Ratio (z) = 0.30029 0.29127
#
# Static dielectric constant tensor:
#      x y z
#    x 1.605450 0.000000 0.000000 
#    y 0.000000 1.591920 0.000000 
#    z 0.000000 0.000000 1.610610 
# 
# From -- ./inp_files/43334.got.cif
#   From: 2010.05.17/outbox.cif.g08.bks.cpg/sg72_22_cif.got.tgz:43334.got - 2010.06.03 17:03:01.
