data_PCOD9527933
_publ_section_title
;
Structure prediction by ZEFSAII (Michael W. Deem and Ramdas Pophale) SiO2 
 PCOD9527933
Probable space group: I B A M
;
_chemical_formula_sum "Si O2"
_cell_formula_units_Z 100
_cell_length_a 15.597148
_cell_length_b 22.424878
_cell_length_c 14.293921
_cell_angle_alpha 90.000000
_cell_angle_beta 90.000000
_cell_angle_gamma 90.000000
_cell_volume 4999.501001
_symmetry_space_group_name_H-M "I B A M"
_symmetry_group_IT_number 72
_symmetry_cell_setting 'orthorhombic'
loop_
_space_group_symop_operation_xyz
x,y,z
-x,-y,z
x,-y,1/2-z
-x,y,1/2-z
-x,-y,-z
x,y,-z
-x,y,1/2+z
x,-y,1/2+z
1/2+x,1/2+y,1/2+z
1/2-x,1/2-y,1/2+z
1/2+x,1/2-y,-z
1/2-x,1/2+y,-z
1/2-x,1/2-y,1/2-z
1/2+x,1/2+y,1/2-z
1/2-x,1/2+y,z
1/2+x,1/2-y,z
loop_
_atom_site_type_symbol
_atom_site_label
_atom_site_fract_x
_atom_site_fract_y
_atom_site_fract_z
Si Si1 0.313076 0.512557 0.893358
Si Si2 0.628604 0.037468 0.835321
Si Si3 0.070935 0.883876 0.390936
Si Si4 0.500000 0.000000 0.500000
Si Si5 0.287572 0.163301 0.710337
Si Si6 0.714198 0.285182 0.892467
Si Si7 0.619062 0.619340 0.108493
O O1 0.219672 0.495953 0.856270
O O2 0.371509 0.563317 0.846554
O O3 0.365433 0.451483 0.893611
O O4 0.297604 0.533009 0.000000
O O5 0.653799 0.105571 0.808973
O O6 0.593251 0.000000 0.750000
O O7 0.563172 0.029965 0.919532
O O8 0.053909 0.902254 0.500000
O O9 0.130582 0.826553 0.391953
O O10 0.976427 0.870591 0.354790
O O11 0.310853 0.220975 0.648865
O O12 0.279572 0.183911 0.818486
O O13 0.192346 0.147223 0.672658
O O14 0.745462 0.281585 0.000000
O O15 0.628856 0.640590 0.000000
#
# Coordination Sequence:
#
# PCOD9527933 Si02
#       7
#    16  16  16   4  16  16  16
#     4   9  16  31  57  91 124 165 200 248 320 384
#     4  11  23  42  68  95 127 163 221 277 342 406
#     4   9  17  30  54  87 132 163 199 246 301 374
#     4  12  26  44  72  94 122 176 210 292 346 392
#     4  10  22  39  66  93 124 171 219 263 322 402
#     4  10  21  38  62  89 126 173 217 264 321 386
#     4   9  17  30  55  91 127 165 200 249 303 374
#
# _framework density 20.001996999999999
#
# number of rings (size 3 to 8) (size 9 to 14) (size 15 to 20)
#    0.000    2.240    0.800    2.160    2.240    2.560 
#    1.440    0.000   17.600    2.880    0.000    0.000 
#    0.000    0.000    0.000    0.000    0.000    0.000 
#
# Total GULP energy -278435.145274 kJ/mol
# GULP energy per Si atom -5568.702905 kJ/mol
# Density = 1.995647 g / cm^3
# Si number density = 20.001997 Si / 1000 Ang^3
#
#
#
# Elastic Constant Matrix: (Units=GPa)
#
#
# Indices 1 2 3 4 5 6 
#
# 1 58.2276 35.6696 28.2856 0.0000 0.0000 0.0000
# 2 35.6696 91.5241 41.2201 0.0000 -0.0003 0.0000
# 3 28.2856 41.2201 158.6060 0.0001 -0.0004 0.0000
# 4 0.0000 0.0000 0.0001 19.6871 -0.0002 0.0000
# 5 0.0000 -0.0003 -0.0004 -0.0002 -178.3402 0.0000
# 6 0.0000 0.0000 0.0000 0.0000 0.0000 -6.2492
#
#
#
# Elastic Compliance Matrix: (Units=1/GPa)
#
#
# Indices 1 2 3 4 5 6 
#
# 1 0.023116 -0.008101 -0.002017 0.000000 0.000000 0.000000
# 2 -0.008101 0.015213 -0.002509 0.000000 0.000000 0.000000
# 3 -0.002017 -0.002509 0.007317 0.000000 0.000000 0.000000
# 4 0.000000 0.000000 0.000000 0.050795 0.000000 0.000000
# 5 0.000000 0.000000 0.000000 0.000000 -0.005607 0.000000
# 6 0.000000 0.000000 0.000000 0.000000 0.000000 -0.160020
#
#
# Mechanical properties :
#
#
# Convention : Reuss Voigt Hill
#
# Bulk Modulus (GPa) = 49.03808 57.63425 53.33617
# Shear Modulus (GPa) = -134.64492 -19.43498 -77.03995
#
# Velocity S-wave (km/s) = -8.21352 -3.12051 -6.21287
# Velocity P-wave (km/s) = 8.08575 3.98664 4.97424
#
# Compressibility (1/GPa) = 0.02039232
#
# Stress axis : x y z
#
# Youngs Moduli (GPa) = 43.25969 65.73269 136.67213
#
# Poissons Ratio (x) = 0.53247 0.27571
# Poissons Ratio (y) = 0.35043 0.34292
# Poissons Ratio (z) = 0.08727 0.16493
#
# Static dielectric constant tensor:
#      x y z
#    x 1.724810 0.000000 0.000000 
#    y 0.000000 1.702010 0.000000 
#    z 0.000000 0.000000 1.872380 
# 
# From -- ./inp_files/22051.got.cif
#   From: 2010.05.17/outbox.cif.g08.bks.cpg/sg72_12_cif.got.tgz:22051.got - 2010.06.03 17:03:01.
