data_PCOD9527477
_publ_section_title
;
Structure prediction by ZEFSAII (Michael W. Deem and Ramdas Pophale) SiO2 
 PCOD9527477
Probable space group: I B A M
;
_chemical_formula_sum "Si O2"
_cell_formula_units_Z 64
_cell_length_a 17.475435
_cell_length_b 10.624689
_cell_length_c 15.038814
_cell_angle_alpha 90.000000
_cell_angle_beta 90.000000
_cell_angle_gamma 90.000000
_cell_volume 2792.272567
_symmetry_space_group_name_H-M "I B A M"
_symmetry_group_IT_number 72
_symmetry_cell_setting 'orthorhombic'
loop_
_space_group_symop_operation_xyz
x,y,z
-x,-y,z
x,-y,1/2-z
-x,y,1/2-z
-x,-y,-z
x,y,-z
-x,y,1/2+z
x,-y,1/2+z
1/2+x,1/2+y,1/2+z
1/2-x,1/2-y,1/2+z
1/2+x,1/2-y,-z
1/2-x,1/2+y,-z
1/2-x,1/2-y,1/2-z
1/2+x,1/2+y,1/2-z
1/2-x,1/2+y,z
1/2+x,1/2-y,z
loop_
_atom_site_type_symbol
_atom_site_label
_atom_site_fract_x
_atom_site_fract_y
_atom_site_fract_z
Si Si1 0.409452 0.757323 0.598294
Si Si2 0.056151 0.890907 0.397681
Si Si3 0.912293 0.458447 0.395699
Si Si4 0.662826 0.260571 0.778555
O O1 0.388781 0.707803 0.500000
O O2 0.501203 0.733385 0.604870
O O3 0.378669 0.899802 0.603022
O O4 0.378468 0.699803 0.687687
O O5 0.071835 0.919001 0.500000
O O6 0.134494 0.865200 0.348032
O O7 0.000000 0.000000 0.363335
O O8 0.908181 0.415173 0.500000
O O9 0.869984 0.367885 0.325425
O O10 0.000000 0.500000 0.373303
O O11 0.750000 0.250000 0.750000
#
# Coordination Sequence:
#
# PCOD9527477 Si02
#       4
#    16  16  16  16
#     4  10  22  41  65  95 132 185 243 290 342 423
#     4  10  22  44  72  99 134 187 243 292 349 428
#     4  10  20  40  72 100 130 180 243 297 346 412
#     4  12  25  40  66 105 146 177 225 298 371 432
#
# _framework density 22.920397999999999
#
# number of rings (size 3 to 8) (size 9 to 14) (size 15 to 20)
#    0.000    1.500    2.500    2.250    0.000    5.000 
#    9.000    0.000    0.000    0.000    0.000    0.000 
#    0.000    0.000    0.000    0.000    0.000    0.000 
#
# Total GULP energy -178339.676603 kJ/mol
# GULP energy per Si atom -5573.114894 kJ/mol
# Density = 2.286823 g / cm^3
# Si number density = 22.920398 Si / 1000 Ang^3
#
#
#
# Elastic Constant Matrix: (Units=GPa)
#
#
# Indices 1 2 3 4 5 6 
#
# 1 128.6928 39.8767 83.6298 0.0000 0.0000 0.0000
# 2 39.8767 111.1474 32.2424 0.0000 0.0000 0.0000
# 3 83.6298 32.2424 148.7935 0.0000 0.0000 0.0000
# 4 0.0000 0.0000 0.0000 5.6267 0.0000 0.0000
# 5 0.0000 0.0000 0.0000 0.0000 -176.3136 0.0000
# 6 0.0000 0.0000 0.0000 0.0000 0.0000 21.3288
#
#
#
# Elastic Compliance Matrix: (Units=1/GPa)
#
#
# Indices 1 2 3 4 5 6 
#
# 1 0.012963 -0.002707 -0.006699 0.000000 0.000000 0.000000
# 2 -0.002707 0.010166 -0.000681 0.000000 0.000000 0.000000
# 3 -0.006699 -0.000681 0.010634 0.000000 0.000000 0.000000
# 4 0.000000 0.000000 0.000000 0.177723 0.000000 0.000000
# 5 0.000000 0.000000 0.000000 0.000000 -0.005672 0.000000
# 6 0.000000 0.000000 0.000000 0.000000 0.000000 0.046885
#
#
# Mechanical properties :
#
#
# Convention : Reuss Voigt Hill
#
# Bulk Modulus (GPa) = 73.59981 77.79241 75.69611
# Shear Modulus (GPa) = 18.02436 -14.34596 1.83920
#
# Velocity S-wave (km/s) = 2.80731 -2.50452 0.89676
# Velocity P-wave (km/s) = 6.53366 5.06463 5.84548
#
# Compressibility (1/GPa) = 0.01358699
#
# Stress axis : x y z
#
# Youngs Moduli (GPa) = 77.14475 98.36708 94.04200
#
# Poissons Ratio (x) = 0.26631 0.62999
# Poissons Ratio (y) = 0.20886 0.06406
# Poissons Ratio (z) = 0.51680 0.06701
#
# Static dielectric constant tensor:
#      x y z
#    x 1.881150 0.000000 0.000000 
#    y 0.000000 2.067690 0.000000 
#    z 0.000000 0.000000 1.858010 
# 
# From -- ./inp_files/19732.got.cif
#   From: 2010.05.17/outbox.cif.g08.bks.cpg/sg72_10_cif.got.tgz:19732.got - 2010.06.03 17:03:01.
