data_PCOD9527639
_publ_section_title
;
Structure prediction by ZEFSAII (Michael W. Deem and Ramdas Pophale) SiO2 
 PCOD9527639
Probable space group: I B A M
;
_chemical_formula_sum "Si O2"
_cell_formula_units_Z 80
_cell_length_a 9.141922
_cell_length_b 26.186806
_cell_length_c 17.164082
_cell_angle_alpha 90.000000
_cell_angle_beta 90.000000
_cell_angle_gamma 90.000000
_cell_volume 4109.042404
_symmetry_space_group_name_H-M "I B A M"
_symmetry_group_IT_number 72
_symmetry_cell_setting 'orthorhombic'
loop_
_space_group_symop_operation_xyz
x,y,z
-x,-y,z
x,-y,1/2-z
-x,y,1/2-z
-x,-y,-z
x,y,-z
-x,y,1/2+z
x,-y,1/2+z
1/2+x,1/2+y,1/2+z
1/2-x,1/2-y,1/2+z
1/2+x,1/2-y,-z
1/2-x,1/2+y,-z
1/2-x,1/2-y,1/2-z
1/2+x,1/2+y,1/2-z
1/2-x,1/2+y,z
1/2+x,1/2-y,z
loop_
_atom_site_type_symbol
_atom_site_label
_atom_site_fract_x
_atom_site_fract_y
_atom_site_fract_z
Si Si1 0.101909 0.348542 0.826931
Si Si2 0.593604 0.221968 0.591765
Si Si3 0.295545 0.623776 0.093979
Si Si4 0.453922 0.944584 0.342455
Si Si5 0.925940 0.830083 0.669513
O O1 0.270855 0.354794 0.809621
O O2 0.000000 0.343734 0.750000
O O3 0.060357 0.299494 0.877012
O O4 0.052041 0.398413 0.874384
O O5 0.592942 0.225256 0.500000
O O6 0.710759 0.177456 0.612781
O O7 0.610999 0.278047 0.625096
O O8 0.208069 0.577302 0.137123
O O9 0.460690 0.633887 0.123095
O O10 0.289927 0.616493 0.000000
O O11 0.500000 0.945923 0.250000
O O12 0.500000 0.000000 0.373185
O O13 0.000000 0.815175 0.750000
#
# Coordination Sequence:
#
# PCOD9527639 Si02
#       5
#    16  16  16  16  16
#     4  10  21  37  55  79 108 142 189 232 276 342
#     4  10  21  36  53  76 110 151 189 226 278 343
#     4  10  22  38  56  84 119 150 188 240 290 337
#     4   9  18  37  63  84 107 147 195 235 279 340
#     4  12  22  33  54  81 113 150 186 234 285 333
#
# _framework density 19.469256000000001
#
# number of rings (size 3 to 8) (size 9 to 14) (size 15 to 20)
#    0.000    1.800    0.000    6.000    0.000    6.800 
#    0.000    1.000    0.000    7.200    0.000    0.000 
#    0.000    0.000    0.000    0.000    0.000    0.000 
#
# Total GULP energy -222869.274588 kJ/mol
# GULP energy per Si atom -5571.731865 kJ/mol
# Density = 1.942494 g / cm^3
# Si number density = 19.469256 Si / 1000 Ang^3
#
#
#
# Elastic Constant Matrix: (Units=GPa)
#
#
# Indices 1 2 3 4 5 6 
#
# 1 153.6676 37.7520 31.8995 -0.0001 0.0000 0.0000
# 2 37.7520 99.9291 17.1956 -0.0001 0.0000 0.0000
# 3 31.8995 17.1956 63.1056 -0.0003 0.0000 0.0000
# 4 -0.0001 -0.0001 -0.0003 6.3924 0.0000 0.0000
# 5 0.0000 0.0000 0.0000 0.0000 18.2474 0.0000
# 6 0.0000 0.0000 0.0000 0.0000 0.0000 7.3374
#
#
#
# Elastic Compliance Matrix: (Units=1/GPa)
#
#
# Indices 1 2 3 4 5 6 
#
# 1 0.007771 -0.002371 -0.003282 0.000000 0.000000 0.000000
# 2 -0.002371 0.011223 -0.001860 0.000000 0.000000 0.000000
# 3 -0.003282 -0.001860 0.018012 0.000001 0.000000 0.000000
# 4 0.000000 0.000000 0.000001 0.156435 0.000000 0.000000
# 5 0.000000 0.000000 0.000000 0.000000 0.054802 0.000000
# 6 0.000000 0.000000 0.000000 0.000000 0.000000 0.136288
#
#
# Mechanical properties :
#
#
# Convention : Reuss Voigt Hill
#
# Bulk Modulus (GPa) = 45.49440 54.48850 49.99145
# Shear Modulus (GPa) = 12.28850 21.71912 17.00381
#
# Velocity S-wave (km/s) = 2.51504 3.34362 2.95848
# Velocity P-wave (km/s) = 5.64375 6.55394 6.11580
#
# Compressibility (1/GPa) = 0.02198073
#
# Stress axis : x y z
#
# Youngs Moduli (GPa) = 128.67613 89.10376 55.51751
#
# Poissons Ratio (x) = 0.21128 0.18223
# Poissons Ratio (y) = 0.30511 0.10323
# Poissons Ratio (z) = 0.42236 0.16569
#
# Static dielectric constant tensor:
#      x y z
#    x 1.745280 0.000000 0.000000 
#    y 0.000000 1.722670 0.000000 
#    z 0.000000 0.000000 1.735640 
# 
# From -- ./inp_files/28146.got.cif
#   From: 2010.05.17/outbox.cif.g08.bks.cpg/sg72_15_cif.got.tgz:28146.got - 2010.06.03 17:03:01.
