data_PCOD9527025
_publ_section_title
;
Structure prediction by ZEFSAII (Michael W. Deem and Ramdas Pophale) SiO2 
 PCOD9527025
Probable space group: I B A M
;
_chemical_formula_sum "Si O2"
_cell_formula_units_Z 112
_cell_length_a 11.277091
_cell_length_b 29.022112
_cell_length_c 15.672556
_cell_angle_alpha 90.000000
_cell_angle_beta 90.000000
_cell_angle_gamma 90.000000
_cell_volume 5129.392460
_symmetry_space_group_name_H-M "I B A M"
_symmetry_group_IT_number 72
_symmetry_cell_setting 'orthorhombic'
loop_
_space_group_symop_operation_xyz
x,y,z
-x,-y,z
x,-y,1/2-z
-x,y,1/2-z
-x,-y,-z
x,y,-z
-x,y,1/2+z
x,-y,1/2+z
1/2+x,1/2+y,1/2+z
1/2-x,1/2-y,1/2+z
1/2+x,1/2-y,-z
1/2-x,1/2+y,-z
1/2-x,1/2-y,1/2-z
1/2+x,1/2+y,1/2-z
1/2-x,1/2+y,z
1/2+x,1/2-y,z
loop_
_atom_site_type_symbol
_atom_site_label
_atom_site_fract_x
_atom_site_fract_y
_atom_site_fract_z
Si Si1 0.905587 0.613416 0.820374
Si Si2 0.389727 0.283345 0.186380
Si Si3 0.566770 0.813172 0.900698
Si Si4 0.774998 0.850442 0.197734
Si Si5 0.014450 0.128005 0.600217
Si Si6 0.615495 0.472388 0.603484
Si Si7 0.378452 0.978942 0.901251
O O1 0.784883 0.617857 0.768356
O O2 0.894167 0.576163 0.893958
O O3 0.000000 0.596878 0.750000
O O4 0.956274 0.662544 0.852781
O O5 0.500000 0.278767 0.250000
O O6 0.394926 0.236963 0.132437
O O7 0.289949 0.301699 0.251802
O O8 0.410697 0.326640 0.123566
O O9 0.679774 0.844665 0.877316
O O10 0.541615 0.811725 0.000000
O O11 0.897941 0.867943 0.159556
O O12 0.982010 0.128369 0.500000
O O13 0.085628 0.081258 0.617607
O O14 0.500000 0.500000 0.635114
O O15 0.619924 0.478347 0.500000
O O16 0.746023 0.488050 0.635323
O O17 0.500000 0.000000 0.863554
O O18 0.374926 0.993915 0.000000
#
# Coordination Sequence:
#
# PCOD9527025 Si02
#       7
#    16  16  16  16  16  16  16
#     4  10  22  39  58  83 119 158 198 248 311 370
#     4  10  20  36  57  81 116 155 195 248 312 370
#     4  11  22  37  57  84 116 154 206 258 306 369
#     4  10  21  37  58  83 117 161 201 249 312 374
#     4  10  20  36  59  87 118 156 204 252 303 369
#     4   9  19  36  59  88 120 153 194 249 308 362
#     4  10  21  39  64  91 119 157 206 256 308 370
#
# _framework density 21.834945000000001
#
# number of rings (size 3 to 8) (size 9 to 14) (size 15 to 20)
#    0.000    2.000    0.000    3.857    0.000    3.714 
#    0.000    9.286    0.000    9.857    0.000    0.000 
#    0.000    0.000    0.000    0.000    0.000    0.000 
#
# Total GULP energy -312301.652534 kJ/mol
# GULP energy per Si atom -5576.815224 kJ/mol
# Density = 2.178525 g / cm^3
# Si number density = 21.834945 Si / 1000 Ang^3
#
#
#
# Elastic Constant Matrix: (Units=GPa)
#
#
# Indices 1 2 3 4 5 6 
#
# 1 136.6754 39.0860 38.2267 0.0000 0.0000 0.0000
# 2 39.0860 75.8310 18.2464 -0.0001 0.0000 0.0000
# 3 38.2267 18.2464 79.8701 -0.0001 -0.0001 0.0000
# 4 0.0000 -0.0001 -0.0001 12.4600 0.0000 0.0000
# 5 0.0000 0.0000 -0.0001 0.0000 13.8180 0.0000
# 6 0.0000 0.0000 0.0000 0.0000 0.0000 14.6103
#
#
#
# Elastic Compliance Matrix: (Units=1/GPa)
#
#
# Indices 1 2 3 4 5 6 
#
# 1 0.009477 -0.004014 -0.003619 0.000000 0.000000 0.000000
# 2 -0.004014 0.015654 -0.001655 0.000000 0.000000 0.000000
# 3 -0.003619 -0.001655 0.014630 0.000000 0.000000 0.000000
# 4 0.000000 0.000000 0.000000 0.080257 0.000000 0.000000
# 5 0.000000 0.000000 0.000000 0.000000 0.072369 0.000000
# 6 0.000000 0.000000 0.000000 0.000000 0.000000 0.068445
#
#
# Mechanical properties :
#
#
# Convention : Reuss Voigt Hill
#
# Bulk Modulus (GPa) = 47.20101 53.72166 50.46134
# Shear Modulus (GPa) = 17.45384 21.29880 19.37632
#
# Velocity S-wave (km/s) = 2.83035 3.12660 2.98216
# Velocity P-wave (km/s) = 5.68729 6.13931 5.91762
#
# Compressibility (1/GPa) = 0.02118599
#
# Stress axis : x y z
#
# Youngs Moduli (GPa) = 105.52342 63.87991 68.35094
#
# Poissons Ratio (x) = 0.25640 0.24734
# Poissons Ratio (y) = 0.42356 0.11313
# Poissons Ratio (z) = 0.38185 0.10573
#
# Static dielectric constant tensor:
#      x y z
#    x 1.864620 0.000000 0.000000 
#    y 0.000000 1.812990 0.000000 
#    z 0.000000 0.000000 1.779560 
# 
# From -- ./inp_files/20656.got.cif
#   From: 2010.05.17/outbox.cif.g08.bks.cpg/sg72_11_cif.got.tgz:20656.got - 2010.06.03 17:03:01.
