data_PCOD9527410
_publ_section_title
;
Structure prediction by ZEFSAII (Michael W. Deem and Ramdas Pophale) SiO2 
 PCOD9527410
Probable space group: I B A M
;
_chemical_formula_sum "Si O2"
_cell_formula_units_Z 96
_cell_length_a 11.101661
_cell_length_b 16.133413
_cell_length_c 20.468473
_cell_angle_alpha 90.000000
_cell_angle_beta 90.000000
_cell_angle_gamma 90.000000
_cell_volume 3666.060751
_symmetry_space_group_name_H-M "I B A M"
_symmetry_group_IT_number 72
_symmetry_cell_setting 'orthorhombic'
loop_
_space_group_symop_operation_xyz
x,y,z
-x,-y,z
x,-y,1/2-z
-x,y,1/2-z
-x,-y,-z
x,y,-z
-x,y,1/2+z
x,-y,1/2+z
1/2+x,1/2+y,1/2+z
1/2-x,1/2-y,1/2+z
1/2+x,1/2-y,-z
1/2-x,1/2+y,-z
1/2-x,1/2-y,1/2-z
1/2+x,1/2+y,1/2-z
1/2-x,1/2+y,z
1/2+x,1/2-y,z
loop_
_atom_site_type_symbol
_atom_site_label
_atom_site_fract_x
_atom_site_fract_y
_atom_site_fract_z
Si Si1 0.959624 0.182443 0.500000
Si Si2 0.592851 0.186775 0.500000
Si Si3 0.855619 0.685707 0.770565
Si Si4 0.241225 0.567797 0.379514
Si Si5 0.632897 0.892585 0.864084
Si Si6 0.404200 0.337643 0.647606
Si Si7 0.272599 0.805533 0.000000
Si Si8 0.500000 0.500000 0.650392
O O1 0.949086 0.150425 0.427151
O O2 0.927292 0.280970 0.500000
O O3 0.106323 0.209089 0.500000
O O4 0.576877 0.143242 0.569914
O O5 0.751436 0.201185 0.500000
O O6 0.750000 0.750000 0.750000
O O7 0.786622 0.617661 0.813711
O O8 0.910411 0.635839 0.707798
O O9 0.929759 0.750538 0.817843
O O10 0.150463 0.490117 0.376401
O O11 0.226966 0.635003 0.436168
O O12 0.374862 0.528031 0.384230
O O13 0.763869 0.851099 0.859801
O O14 0.458586 0.415863 0.685054
#
# Coordination Sequence:
#
# PCOD9527410 Si02
#       8
#     8   8  16  16  16  16   8   8
#     4  12  22  38  67  99 128 182 239 281 339 440
#     4  12  23  41  66  96 129 172 232 287 345 423
#     4  10  20  39  65  88 127 189 219 260 353 439
#     4  11  22  40  66  99 136 181 223 291 354 417
#     4  10  21  40  62  92 130 178 222 278 351 414
#     4  10  20  39  63  92 140 171 227 280 352 421
#     4  12  21  39  66  95 141 183 226 284 361 422
#     4  10  24  39  65 112 142 175 237 308 354 411
#
# _framework density 26.186146000000001
#
# number of rings (size 3 to 8) (size 9 to 14) (size 15 to 20)
#    0.000    1.333    3.333    3.000    0.000    2.667 
#    0.000   20.833    0.000    0.000    4.333    0.000 
#    0.000    0.000    0.000    0.000    0.000    0.000 
#
# Total GULP energy -267504.555251 kJ/mol
# GULP energy per Si atom -5573.011568 kJ/mol
# Density = 2.612655 g / cm^3
# Si number density = 26.186146 Si / 1000 Ang^3
#
#
#
# Elastic Constant Matrix: (Units=GPa)
#
#
# Indices 1 2 3 4 5 6 
#
# 1 83.8806 64.3880 62.2714 0.0000 0.0000 0.0000
# 2 64.3880 140.6392 74.8314 0.0000 0.0000 0.0000
# 3 62.2714 74.8314 199.3043 0.0000 0.0000 0.0000
# 4 0.0000 0.0000 0.0000 3.0207 0.0000 0.0000
# 5 0.0000 0.0000 0.0000 0.0000 9.3412 0.0000
# 6 0.0000 0.0000 0.0000 0.0000 0.0000 60.0331
#
#
#
# Elastic Compliance Matrix: (Units=1/GPa)
#
#
# Indices 1 2 3 4 5 6 
#
# 1 0.020209 -0.007364 -0.003549 0.000000 0.000000 0.000000
# 2 -0.007364 0.011569 -0.002043 0.000000 0.000000 0.000000
# 3 -0.003549 -0.002043 0.006893 0.000000 0.000000 0.000000
# 4 0.000000 0.000000 0.000000 0.331052 0.000000 0.000000
# 5 0.000000 0.000000 0.000000 0.000000 0.107053 0.000000
# 6 0.000000 0.000000 0.000000 0.000000 0.000000 0.016657
#
#
# Mechanical properties :
#
#
# Convention : Reuss Voigt Hill
#
# Bulk Modulus (GPa) = 78.37391 91.86730 85.12061
# Shear Modulus (GPa) = 9.54931 29.30122 19.42526
#
# Velocity S-wave (km/s) = 1.91171 3.34871 2.72658
# Velocity P-wave (km/s) = 5.90486 7.07887 6.51835
#
# Compressibility (1/GPa) = 0.01275935
#
# Stress axis : x y z
#
# Youngs Moduli (GPa) = 49.48239 86.44072 145.06467
#
# Poissons Ratio (x) = 0.63652 0.51490
# Poissons Ratio (y) = 0.36437 0.29635
# Poissons Ratio (z) = 0.17564 0.17659
#
# Static dielectric constant tensor:
#      x y z
#    x 2.108010 0.000000 0.000000 
#    y 0.000000 2.013270 0.000000 
#    z 0.000000 0.000000 3.783560 
# 
# From -- ./inp_files/38102.got.cif
#   From: 2010.05.17/outbox.cif.g08.bks.cpg/sg72_20_cif.got.tgz:38102.got - 2010.06.03 17:03:01.
