data_PCOD9527275
_publ_section_title
;
Structure prediction by ZEFSAII (Michael W. Deem and Ramdas Pophale) SiO2 
 PCOD9527275
Probable space group: I B A M
;
_chemical_formula_sum "Si O2"
_cell_formula_units_Z 52
_cell_length_a 14.602648
_cell_length_b 7.180902
_cell_length_c 22.579874
_cell_angle_alpha 90.000000
_cell_angle_beta 90.000000
_cell_angle_gamma 90.000000
_cell_volume 2367.729747
_symmetry_space_group_name_H-M "I B A M"
_symmetry_group_IT_number 72
_symmetry_cell_setting 'orthorhombic'
loop_
_space_group_symop_operation_xyz
x,y,z
-x,-y,z
x,-y,1/2-z
-x,y,1/2-z
-x,-y,-z
x,y,-z
-x,y,1/2+z
x,-y,1/2+z
1/2+x,1/2+y,1/2+z
1/2-x,1/2-y,1/2+z
1/2+x,1/2-y,-z
1/2-x,1/2+y,-z
1/2-x,1/2-y,1/2-z
1/2+x,1/2+y,1/2-z
1/2-x,1/2+y,z
1/2+x,1/2-y,z
loop_
_atom_site_type_symbol
_atom_site_label
_atom_site_fract_x
_atom_site_fract_y
_atom_site_fract_z
Si Si1 0.613443 0.686210 0.933868
Si Si2 0.177542 0.760319 0.566326
Si Si3 0.961443 0.306996 0.339763
Si Si4 0.000000 0.000000 0.250000
O O1 0.713815 0.773844 0.924872
O O2 0.633721 0.465669 0.933148
O O3 0.540576 0.737665 0.884666
O O4 0.579577 0.735107 0.000000
O O5 0.163939 0.679802 0.500000
O O6 0.126801 0.656655 0.619346
O O7 0.000000 0.500000 0.314625
O O8 0.945208 0.143371 0.292213
#
# Coordination Sequence:
#
# PCOD9527275 Si02
#       4
#    16  16  16   4
#     4  10  20  37  64  99 133 162 200 258 325 387
#     4  10  20  37  64  99 133 162 200 258 325 387
#     4  12  24  42  68  89 127 168 214 262 317 363
#     4  12  26  48  62  86 124 174 226 270 284 370
#
# _framework density 21.961966
#
# number of rings (size 3 to 8) (size 9 to 14) (size 15 to 20)
#    0.000    1.231    3.077    3.231    0.000    7.385 
#    0.000    1.538    0.000    0.000    0.000    0.000 
#    0.000    0.000    0.000    0.000    0.000    0.000 
#
# Total GULP energy -145396.085196 kJ/mol
# GULP energy per Si atom -5592.157123 kJ/mol
# Density = 2.191198 g / cm^3
# Si number density = 21.961966 Si / 1000 Ang^3
#
#
#
# Elastic Constant Matrix: (Units=GPa)
#
#
# Indices 1 2 3 4 5 6 
#
# 1 73.8411 11.9586 52.6320 0.0000 0.0000 0.0000
# 2 11.9586 104.1499 37.7608 0.0000 0.0000 0.0000
# 3 52.6320 37.7608 129.4851 0.0000 0.0000 0.0000
# 4 0.0000 0.0000 0.0000 198.3709 0.0000 0.0000
# 5 0.0000 0.0000 0.0000 0.0000 14.5078 0.0000
# 6 0.0000 0.0000 0.0000 0.0000 0.0000 30.9779
#
#
#
# Elastic Compliance Matrix: (Units=1/GPa)
#
#
# Indices 1 2 3 4 5 6 
#
# 1 0.019112 0.000696 -0.007971 0.000000 0.000000 0.000000
# 2 0.000696 0.010762 -0.003421 0.000000 0.000000 0.000000
# 3 -0.007971 -0.003421 0.011961 0.000000 0.000000 0.000000
# 4 0.000000 0.000000 0.000000 0.005041 0.000000 0.000000
# 5 0.000000 0.000000 0.000000 0.000000 0.068929 0.000000
# 6 0.000000 0.000000 0.000000 0.000000 0.000000 0.032281
#
#
# Mechanical properties :
#
#
# Convention : Reuss Voigt Hill
#
# Bulk Modulus (GPa) = 48.92179 56.90877 52.91528
# Shear Modulus (GPa) = 28.36199 62.44628 45.40414
#
# Velocity S-wave (km/s) = 3.59752 5.33812 4.55180
# Velocity P-wave (km/s) = 6.29129 7.99767 7.19524
#
# Compressibility (1/GPa) = 0.02044079
#
# Stress axis : x y z
#
# Youngs Moduli (GPa) = 52.32428 92.91885 83.60741
#
# Poissons Ratio (x) = -0.06464 0.66645
# Poissons Ratio (y) = -0.03640 0.28604
# Poissons Ratio (z) = 0.41709 0.31790
#
# Static dielectric constant tensor:
#      x y z
#    x 1.777570 0.000000 0.000000 
#    y 0.000000 1.882880 0.000000 
#    z 0.000000 0.000000 1.818240 
# 
# From -- ./inp_files/27436.got.cif
#   From: 2010.05.17/outbox.cif.g08.bks.cpg/sg72_14_cif.got.tgz:27436.got - 2010.06.03 17:03:01.
