data_PCOD9527286
_publ_section_title
;
Structure prediction by ZEFSAII (Michael W. Deem and Ramdas Pophale) SiO2 
 PCOD9527286
Probable space group: I B A M
;
_chemical_formula_sum "Si O2"
_cell_formula_units_Z 96
_cell_length_a 9.021583
_cell_length_b 25.528130
_cell_length_c 21.337437
_cell_angle_alpha 90.000000
_cell_angle_beta 90.000000
_cell_angle_gamma 90.000000
_cell_volume 4914.100156
_symmetry_space_group_name_H-M "I B A M"
_symmetry_group_IT_number 72
_symmetry_cell_setting 'orthorhombic'
loop_
_space_group_symop_operation_xyz
x,y,z
-x,-y,z
x,-y,1/2-z
-x,y,1/2-z
-x,-y,-z
x,y,-z
-x,y,1/2+z
x,-y,1/2+z
1/2+x,1/2+y,1/2+z
1/2-x,1/2-y,1/2+z
1/2+x,1/2-y,-z
1/2-x,1/2+y,-z
1/2-x,1/2-y,1/2-z
1/2+x,1/2+y,1/2-z
1/2-x,1/2+y,z
1/2+x,1/2-y,z
loop_
_atom_site_type_symbol
_atom_site_label
_atom_site_fract_x
_atom_site_fract_y
_atom_site_fract_z
Si Si1 0.313982 0.294168 0.204022
Si Si2 0.172907 0.377705 0.373699
Si Si3 0.452090 0.748743 0.500000
Si Si4 0.516067 0.219122 0.862560
Si Si5 0.807465 0.829373 0.000000
Si Si6 0.164195 0.088621 0.752319
Si Si7 0.559030 0.058902 0.183833
O O1 0.250000 0.250000 0.250000
O O2 0.462111 0.271851 0.171730
O O3 0.177706 0.299537 0.155979
O O4 0.339479 0.350404 0.233037
O O5 0.255359 0.362002 0.438191
O O6 0.271979 0.409111 0.323333
O O7 0.111896 0.322729 0.346422
O O8 0.017745 0.410613 0.373513
O O9 0.512997 0.772319 0.563966
O O10 0.285194 0.773798 0.500000
O O11 0.519854 0.689315 0.500000
O O12 0.268101 0.060992 0.700169
O O13 0.000000 0.066739 0.750000
O O14 0.500000 0.083879 0.250000
O O15 0.500000 0.000000 0.181201
#
# Coordination Sequence:
#
# PCOD9527286 Si02
#       7
#    16  16   8  16   8  16  16
#     4  12  22  30  51  81 116 155 190 230 286 339
#     4  10  20  38  55  79 114 152 197 237 289 346
#     4  10  22  36  50  74 107 161 207 228 281 333
#     4  11  21  35  49  75 114 155 196 237 273 344
#     4  10  22  38  55  76 114 162 201 246 274 348
#     4  11  22  35  57  92 120 144 192 242 293 354
#     4   9  19  39  64  85 110 148 188 245 304 348
#
# _framework density 19.535620999999999
#
# number of rings (size 3 to 8) (size 9 to 14) (size 15 to 20)
#    0.000    1.500    3.333    3.500    2.333    0.000 
#    0.000    7.083    0.000    0.000    0.000    1.167 
#    0.000    0.000    0.000    0.000    0.000    0.000 
#
# Total GULP energy -267344.351211 kJ/mol
# GULP energy per Si atom -5569.673984 kJ/mol
# Density = 1.949116 g / cm^3
# Si number density = 19.535621 Si / 1000 Ang^3
#
#
#
# Elastic Constant Matrix: (Units=GPa)
#
#
# Indices 1 2 3 4 5 6 
#
# 1 111.1607 19.0865 27.5553 0.0000 0.0000 0.0000
# 2 19.0865 64.5851 26.5415 0.0000 0.0000 0.0000
# 3 27.5553 26.5415 56.3297 0.0000 0.0000 0.0000
# 4 0.0000 0.0000 0.0000 12.4095 0.0000 0.0000
# 5 0.0000 0.0000 0.0000 0.0000 8.5436 0.0000
# 6 0.0000 0.0000 0.0000 0.0000 0.0000 16.1353
#
#
#
# Elastic Compliance Matrix: (Units=1/GPa)
#
#
# Indices 1 2 3 4 5 6 
#
# 1 0.010313 -0.001209 -0.004475 0.000000 0.000000 0.000000
# 2 -0.001209 0.019343 -0.008523 0.000000 0.000000 0.000000
# 3 -0.004475 -0.008523 0.023958 0.000000 0.000000 0.000000
# 4 0.000000 0.000000 0.000000 0.080583 0.000000 0.000000
# 5 0.000000 0.000000 0.000000 0.000000 0.117046 0.000000
# 6 0.000000 0.000000 0.000000 0.000000 0.000000 0.061976
#
#
# Mechanical properties :
#
#
# Convention : Reuss Voigt Hill
#
# Bulk Modulus (GPa) = 39.68251 42.04912 40.86582
# Shear Modulus (GPa) = 14.28437 18.01050 16.14743
#
# Velocity S-wave (km/s) = 2.70700 3.03963 2.87812
# Velocity P-wave (km/s) = 5.48885 5.82153 5.65763
#
# Compressibility (1/GPa) = 0.02520002
#
# Stress axis : x y z
#
# Youngs Moduli (GPa) = 96.96607 51.69790 41.74016
#
# Poissons Ratio (x) = 0.06248 0.18680
# Poissons Ratio (y) = 0.11719 0.35575
# Poissons Ratio (z) = 0.43396 0.44062
#
# Static dielectric constant tensor:
#      x y z
#    x 1.819630 0.000000 0.000000 
#    y 0.000000 1.726300 0.000000 
#    z 0.000000 0.000000 1.683460 
# 
# From -- ./inp_files/42587.got.cif
#   From: 2010.05.17/outbox.cif.g08.bks.cpg/sg72_22_cif.got.tgz:42587.got - 2010.06.03 17:03:01.
