data_PCOD9527851
_publ_section_title
;
Structure prediction by ZEFSAII (Michael W. Deem and Ramdas Pophale) SiO2 
 PCOD9527851
Probable space group: I B A M
;
_chemical_formula_sum "Si O2"
_cell_formula_units_Z 88
_cell_length_a 17.033358
_cell_length_b 13.262483
_cell_length_c 20.333910
_cell_angle_alpha 90.000000
_cell_angle_beta 90.000000
_cell_angle_gamma 90.000000
_cell_volume 4593.524230
_symmetry_space_group_name_H-M "I B A M"
_symmetry_group_IT_number 72
_symmetry_cell_setting 'orthorhombic'
loop_
_space_group_symop_operation_xyz
x,y,z
-x,-y,z
x,-y,1/2-z
-x,y,1/2-z
-x,-y,-z
x,y,-z
-x,y,1/2+z
x,-y,1/2+z
1/2+x,1/2+y,1/2+z
1/2-x,1/2-y,1/2+z
1/2+x,1/2-y,-z
1/2-x,1/2+y,-z
1/2-x,1/2-y,1/2-z
1/2+x,1/2+y,1/2-z
1/2-x,1/2+y,z
1/2+x,1/2-y,z
loop_
_atom_site_type_symbol
_atom_site_label
_atom_site_fract_x
_atom_site_fract_y
_atom_site_fract_z
Si Si1 0.971749 0.604432 0.884914
Si Si2 0.313811 0.354844 0.113784
Si Si3 0.328383 0.101653 0.288818
Si Si4 0.380434 0.194886 0.500000
Si Si5 0.427109 0.751841 0.702072
Si Si6 0.228271 0.299021 0.500000
Si Si7 0.745147 0.476167 0.500000
O O1 0.904708 0.575681 0.832509
O O2 0.000000 0.500000 0.916272
O O3 0.039075 0.662336 0.846060
O O4 0.933552 0.680118 0.936705
O O5 0.240380 0.363447 0.162931
O O6 0.390247 0.336709 0.158063
O O7 0.303540 0.259421 0.064214
O O8 0.306106 0.450181 0.064621
O O9 0.357876 0.193345 0.243006
O O10 0.305765 0.000000 0.250000
O O11 0.323358 0.289917 0.500000
O O12 0.316002 0.104869 0.500000
O O13 0.500000 0.723748 0.750000
O O14 0.213663 0.416619 0.500000
#
# Coordination Sequence:
#
# PCOD9527851 Si02
#       7
#    16  16  16   8  16   8   8
#     4  11  20  35  56  92 129 151 193 252 320 373
#     4  10  22  41  60  92 123 159 212 248 302 369
#     4  11  20  36  59  91 126 160 195 239 306 378
#     4  10  21  38  56  93 118 158 203 251 308 380
#     4  10  23  35  58  89 125 162 196 248 309 362
#     4  10  22  38  65  85 122 160 205 265 303 356
#     4  10  22  40  65  88 120 154 220 255 298 359
#
# _framework density 19.157404
#
# number of rings (size 3 to 8) (size 9 to 14) (size 15 to 20)
#    0.000    1.818    5.455    0.818    5.091    1.455 
#    0.000    0.000    0.000    4.909    0.000    0.000 
#    0.000    0.000    0.000    0.000    0.000    0.000 
#
# Total GULP energy -245430.221320 kJ/mol
# GULP energy per Si atom -5577.959575 kJ/mol
# Density = 1.911380 g / cm^3
# Si number density = 19.157404 Si / 1000 Ang^3
#
#
#
# Elastic Constant Matrix: (Units=GPa)
#
#
# Indices 1 2 3 4 5 6 
#
# 1 51.4930 -0.3126 22.8851 0.0000 0.0000 0.0000
# 2 -0.3126 30.1679 6.0950 0.0000 0.0000 0.0000
# 3 22.8851 6.0950 92.0443 0.0000 0.0000 0.0000
# 4 0.0000 0.0000 0.0000 12.4160 0.0000 0.0000
# 5 0.0000 0.0000 0.0000 0.0000 18.1869 0.0000
# 6 0.0000 0.0000 0.0000 0.0000 0.0000 6.4603
#
#
#
# Elastic Compliance Matrix: (Units=1/GPa)
#
#
# Indices 1 2 3 4 5 6 
#
# 1 0.021886 0.001344 -0.005531 0.000000 0.000000 0.000000
# 2 0.001344 0.033680 -0.002564 0.000000 0.000000 0.000000
# 3 -0.005531 -0.002564 0.012409 0.000000 0.000000 0.000000
# 4 0.000000 0.000000 0.000000 0.080541 0.000000 0.000000
# 5 0.000000 0.000000 0.000000 0.000000 0.054985 0.000000
# 6 0.000000 0.000000 0.000000 0.000000 0.000000 0.154790
#
#
# Mechanical properties :
#
#
# Convention : Reuss Voigt Hill
#
# Bulk Modulus (GPa) = 18.35754 25.67115 22.01434
# Shear Modulus (GPa) = 12.82211 17.08183 14.95197
#
# Velocity S-wave (km/s) = 2.58990 2.98930 2.79674
# Velocity P-wave (km/s) = 4.30659 5.03426 4.68457
#
# Compressibility (1/GPa) = 0.05447354
#
# Stress axis : x y z
#
# Youngs Moduli (GPa) = 45.69082 29.69137 80.58519
#
# Poissons Ratio (x) = -0.03991 0.44569
# Poissons Ratio (y) = -0.06142 0.20665
# Poissons Ratio (z) = 0.25270 0.07614
#
# Static dielectric constant tensor:
#      x y z
#    x 1.670970 0.000000 0.000000 
#    y 0.000000 1.652720 0.000000 
#    z 0.000000 0.000000 1.697570 
# 
# From -- ./inp_files/31504.got.cif
#   From: 2010.05.17/outbox.cif.g08.bks.cpg/sg72_16_cif.got.tgz:31504.got - 2010.06.03 17:03:01.
