data_PCOD9527310
_publ_section_title
;
Structure prediction by ZEFSAII (Michael W. Deem and Ramdas Pophale) SiO2 
 PCOD9527310
Probable space group: I B A M
;
_chemical_formula_sum "Si O2"
_cell_formula_units_Z 80
_cell_length_a 15.178941
_cell_length_b 16.131157
_cell_length_c 13.894944
_cell_angle_alpha 90.000000
_cell_angle_beta 90.000000
_cell_angle_gamma 90.000000
_cell_volume 3402.230956
_symmetry_space_group_name_H-M "I B A M"
_symmetry_group_IT_number 72
_symmetry_cell_setting 'orthorhombic'
loop_
_space_group_symop_operation_xyz
x,y,z
-x,-y,z
x,-y,1/2-z
-x,y,1/2-z
-x,-y,-z
x,y,-z
-x,y,1/2+z
x,-y,1/2+z
1/2+x,1/2+y,1/2+z
1/2-x,1/2-y,1/2+z
1/2+x,1/2-y,-z
1/2-x,1/2+y,-z
1/2-x,1/2-y,1/2-z
1/2+x,1/2+y,1/2-z
1/2-x,1/2+y,z
1/2+x,1/2-y,z
loop_
_atom_site_type_symbol
_atom_site_label
_atom_site_fract_x
_atom_site_fract_y
_atom_site_fract_z
Si Si1 0.680940 0.588629 0.767400
Si Si2 0.552319 0.693759 0.105431
Si Si3 0.053742 0.393920 0.393120
Si Si4 0.366391 0.894099 0.814103
Si Si5 0.651599 0.293286 0.112042
O O1 0.638029 0.500000 0.750000
O O2 0.614221 0.649753 0.819555
O O3 0.769186 0.570504 0.828241
O O4 0.707164 0.639615 0.671146
O O5 0.556118 0.793171 0.110789
O O6 0.449101 0.673834 0.114466
O O7 0.583026 0.667848 0.000000
O O8 0.084799 0.417895 0.500000
O O9 0.103354 0.415584 0.294689
O O10 0.950241 0.417341 0.379576
O O11 0.350825 0.795759 0.835405
O O12 0.677437 0.283151 0.000000
#
# Coordination Sequence:
#
# PCOD9527310 Si02
#       5
#    16  16  16  16  16
#     4  12  25  38  55  87 129 165 194 238 305 376
#     4   9  19  36  59  85 114 151 196 244 299 349
#     4   9  18  36  64  89 109 144 201 258 299 347
#     4  10  20  38  60  88 118 150 199 255 306 347
#     4  10  21  39  61  87 117 157 209 257 294 347
#
# _framework density 23.513984000000001
#
# number of rings (size 3 to 8) (size 9 to 14) (size 15 to 20)
#    0.000    2.000    2.000    3.000    0.000    4.800 
#    0.000    4.000    0.000    1.200    0.000    0.000 
#    0.000    0.000    0.000    0.000    0.000    0.000 
#
# Total GULP energy -223606.858932 kJ/mol
# GULP energy per Si atom -5590.171473 kJ/mol
# Density = 2.346046 g / cm^3
# Si number density = 23.513984 Si / 1000 Ang^3
#
#
#
# Elastic Constant Matrix: (Units=GPa)
#
#
# Indices 1 2 3 4 5 6 
#
# 1 49.5851 17.5975 15.8434 0.0000 0.0000 0.0000
# 2 17.5975 87.8250 41.1142 0.0000 0.0000 0.0000
# 3 15.8434 41.1142 146.4871 0.0000 0.0000 0.0000
# 4 0.0000 0.0000 0.0000 18.2480 0.0000 0.0000
# 5 0.0000 0.0000 0.0000 0.0000 9.2008 0.0000
# 6 0.0000 0.0000 0.0000 0.0000 0.0000 26.1736
#
#
#
# Elastic Compliance Matrix: (Units=1/GPa)
#
#
# Indices 1 2 3 4 5 6 
#
# 1 0.021928 -0.003780 -0.001311 0.000000 0.000000 0.000000
# 2 -0.003780 0.013760 -0.003453 0.000000 0.000000 0.000000
# 3 -0.001311 -0.003453 0.007938 0.000000 0.000000 0.000000
# 4 0.000000 0.000000 0.000000 0.054801 0.000000 0.000000
# 5 0.000000 0.000000 0.000000 0.000000 0.108686 0.000000
# 6 0.000000 0.000000 0.000000 0.000000 0.000000 0.038206
#
#
# Mechanical properties :
#
#
# Convention : Reuss Voigt Hill
#
# Bulk Modulus (GPa) = 37.68248 48.11194 42.89721
# Shear Modulus (GPa) = 18.43304 24.68062 21.55683
#
# Velocity S-wave (km/s) = 2.80289 3.24329 3.03110
# Velocity P-wave (km/s) = 5.15124 5.87628 5.52566
#
# Compressibility (1/GPa) = 0.02653753
#
# Stress axis : x y z
#
# Youngs Moduli (GPa) = 45.60447 72.67293 125.98413
#
# Poissons Ratio (x) = 0.27471 0.16512
# Poissons Ratio (y) = 0.17239 0.43505
# Poissons Ratio (z) = 0.05977 0.25096
#
# Static dielectric constant tensor:
#      x y z
#    x 1.860030 0.000000 0.000000 
#    y 0.000000 1.908050 0.000000 
#    z 0.000000 0.000000 1.929620 
# 
# From -- ./inp_files/23105.got.cif
#   From: 2010.05.17/outbox.cif.g08.bks.cpg/sg72_12_cif.got.tgz:23105.got - 2010.06.03 17:03:01.
