data_PCOD9527806
_publ_section_title
;
Structure prediction by ZEFSAII (Michael W. Deem and Ramdas Pophale) SiO2 
 PCOD9527806
Probable space group: I B A M
;
_chemical_formula_sum "Si O2"
_cell_formula_units_Z 112
_cell_length_a 12.385596
_cell_length_b 28.848031
_cell_length_c 15.886312
_cell_angle_alpha 90.000000
_cell_angle_beta 90.000000
_cell_angle_gamma 90.000000
_cell_volume 5676.180189
_symmetry_space_group_name_H-M "I B A M"
_symmetry_group_IT_number 72
_symmetry_cell_setting 'orthorhombic'
loop_
_space_group_symop_operation_xyz
x,y,z
-x,-y,z
x,-y,1/2-z
-x,y,1/2-z
-x,-y,-z
x,y,-z
-x,y,1/2+z
x,-y,1/2+z
1/2+x,1/2+y,1/2+z
1/2-x,1/2-y,1/2+z
1/2+x,1/2-y,-z
1/2-x,1/2+y,-z
1/2-x,1/2-y,1/2-z
1/2+x,1/2+y,1/2-z
1/2-x,1/2+y,z
1/2+x,1/2-y,z
loop_
_atom_site_type_symbol
_atom_site_label
_atom_site_fract_x
_atom_site_fract_y
_atom_site_fract_z
Si Si1 0.886368 0.659391 0.398362
Si Si2 0.274385 0.582845 0.100162
Si Si3 0.628362 0.169894 0.099320
Si Si4 0.673483 0.612789 0.897940
Si Si5 0.119702 0.991290 0.151271
Si Si6 0.951546 0.158371 0.397601
Si Si7 0.710404 0.733160 0.659286
O O1 0.891549 0.657450 0.500000
O O2 0.827836 0.612254 0.367132
O O3 0.807243 0.701948 0.377346
O O4 0.007422 0.666631 0.365364
O O5 0.294876 0.529727 0.121666
O O6 0.380640 0.612747 0.123262
O O7 0.267018 0.585204 0.000000
O O8 0.714605 0.133575 0.135162
O O9 0.679601 0.220474 0.109780
O O10 0.620331 0.160165 0.000000
O O11 0.652780 0.561083 0.866910
O O12 0.574254 0.646676 0.875060
O O13 0.674485 0.611473 0.000000
O O14 0.111392 0.000000 0.250000
O O15 0.000000 0.000000 0.113103
O O16 0.943806 0.166430 0.500000
O O17 0.895126 0.200380 0.348803
O O18 0.750000 0.750000 0.750000
#
# Coordination Sequence:
#
# PCOD9527806 Si02
#       7
#    16  16  16  16  16  16  16
#     4   9  20  40  63  84 111 152 202 244 292 350
#     4   9  17  34  61  85 106 146 193 239 287 345
#     4  10  22  40  60  83 114 153 199 248 291 340
#     4  10  21  37  60  89 116 149 199 253 295 341
#     4  11  22  35  54  87 123 154 187 232 304 361
#     4   9  18  35  59  84 110 147 198 244 293 343
#     4  11  23  37  56  87 119 155 195 240 293 365
#
# _framework density 19.731580000000001
#
# number of rings (size 3 to 8) (size 9 to 14) (size 15 to 20)
#    0.000    2.143    1.429    2.571    2.000    3.429 
#    0.000    0.714    0.000    4.286    0.000    0.000 
#    0.000    0.000    0.000    0.000    0.000    0.000 
#
# Total GULP energy -312501.502516 kJ/mol
# GULP energy per Si atom -5580.383973 kJ/mol
# Density = 1.968667 g / cm^3
# Si number density = 19.731580 Si / 1000 Ang^3
#
#
#
# Elastic Constant Matrix: (Units=GPa)
#
#
# Indices 1 2 3 4 5 6 
#
# 1 173.0041 89.2065 22.5491 0.0000 0.0000 0.0000
# 2 89.2065 141.0779 9.7773 -0.0001 0.0000 0.0000
# 3 22.5491 9.7773 19.4890 0.0006 -0.0003 -0.0001
# 4 0.0000 -0.0001 0.0006 -84.1837 -0.0002 -0.0001
# 5 0.0000 0.0000 -0.0003 -0.0002 1.2164 0.0000
# 6 0.0000 0.0000 -0.0001 -0.0001 0.0000 49.6148
#
#
#
# Elastic Compliance Matrix: (Units=1/GPa)
#
#
# Indices 1 2 3 4 5 6 
#
# 1 0.009770 -0.005588 -0.008500 0.000000 -0.000002 0.000000
# 2 -0.005588 0.010540 0.001178 0.000000 0.000001 0.000000
# 3 -0.008500 0.001178 0.060555 0.000000 0.000015 0.000000
# 4 0.000000 0.000000 0.000000 -0.011879 -0.000001 0.000000
# 5 -0.000002 0.000001 0.000015 -0.000001 0.822076 -0.000001
# 6 0.000000 0.000000 0.000000 0.000000 -0.000001 0.020155
#
#
# Mechanical properties :
#
#
# Convention : Reuss Voigt Hill
#
# Bulk Modulus (GPa) = 18.16739 64.07074 41.11907
# Shear Modulus (GPa) = 5.23349 7.46539 6.34944
#
# Velocity S-wave (km/s) = 1.63037 1.94723 1.79580
# Velocity P-wave (km/s) = 3.57371 6.13166 5.01840
#
# Compressibility (1/GPa) = 0.05504368
#
# Stress axis : x y z
#
# Youngs Moduli (GPa) = 102.35730 94.87345 16.51404
#
# Poissons Ratio (x) = 0.53020 0.14037
# Poissons Ratio (y) = 0.57202 -0.01945
# Poissons Ratio (z) = 0.87004 -0.11177
#
# Static dielectric constant tensor:
#      x y z
#    x 1.734610 0.000000 0.000000 
#    y 0.000000 1.691620 0.000000 
#    z 0.000000 0.000000 1.714120 
# 
# From -- ./inp_files/20680.got.cif
#   From: 2010.05.17/outbox.cif.g08.bks.cpg/sg72_11_cif.got.tgz:20680.got - 2010.06.03 17:03:01.
