data_PCOD9527378
_publ_section_title
;
Structure prediction by ZEFSAII (Michael W. Deem and Ramdas Pophale) SiO2 
 PCOD9527378
Probable space group: I B A M
;
_chemical_formula_sum "Si O2"
_cell_formula_units_Z 52
_cell_length_a 14.522919
_cell_length_b 8.448155
_cell_length_c 18.508493
_cell_angle_alpha 90.000000
_cell_angle_beta 90.000000
_cell_angle_gamma 90.000000
_cell_volume 2270.841631
_symmetry_space_group_name_H-M "I B A M"
_symmetry_group_IT_number 72
_symmetry_cell_setting 'orthorhombic'
loop_
_space_group_symop_operation_xyz
x,y,z
-x,-y,z
x,-y,1/2-z
-x,y,1/2-z
-x,-y,-z
x,y,-z
-x,y,1/2+z
x,-y,1/2+z
1/2+x,1/2+y,1/2+z
1/2-x,1/2-y,1/2+z
1/2+x,1/2-y,-z
1/2-x,1/2+y,-z
1/2-x,1/2-y,1/2-z
1/2+x,1/2+y,1/2-z
1/2-x,1/2+y,z
1/2+x,1/2-y,z
loop_
_atom_site_type_symbol
_atom_site_label
_atom_site_fract_x
_atom_site_fract_y
_atom_site_fract_z
Si Si1 0.615028 0.834367 0.628554
Si Si2 0.500000 0.000000 0.250000
Si Si3 0.719950 0.150510 0.413745
Si Si4 0.050157 0.149147 0.417951
O O1 0.685939 0.688007 0.627593
O O2 0.527355 0.784721 0.580970
O O3 0.566953 0.891050 0.701956
O O4 0.674709 0.980006 0.598443
O O5 0.736133 0.170183 0.500000
O O6 0.642590 0.275714 0.387503
O O7 0.074319 0.100550 0.500000
O O8 0.000000 0.000000 0.381700
#
# Coordination Sequence:
#
# PCOD9527378 Si02
#       4
#    16   4  16  16
#     4  12  24  45  67 102 141 189 238 281 348 422
#     4  12  28  48  68  92 150 208 238 266 332 436
#     4  11  22  39  70 103 132 173 231 307 363 395
#     4  10  20  38  66 102 137 171 226 298 364 410
#
# _framework density 22.898999
#
# number of rings (size 3 to 8) (size 9 to 14) (size 15 to 20)
#    0.000    0.923    3.077    4.615    0.000    6.154 
#    0.000    0.769    0.000    0.000    0.000    0.000 
#    0.000    0.000    0.000    0.000    0.000    0.000 
#
# Total GULP energy -145271.679613 kJ/mol
# GULP energy per Si atom -5587.372293 kJ/mol
# Density = 2.284688 g / cm^3
# Si number density = 22.898999 Si / 1000 Ang^3
#
#
#
# Elastic Constant Matrix: (Units=GPa)
#
#
# Indices 1 2 3 4 5 6 
#
# 1 169.9799 31.0536 29.8590 0.0000 0.0000 0.0000
# 2 31.0536 73.8816 18.8415 0.0000 0.0000 0.0000
# 3 29.8590 18.8415 63.2461 0.0000 0.0000 0.0000
# 4 0.0000 0.0000 0.0000 22.0783 0.0000 0.0000
# 5 0.0000 0.0000 0.0000 0.0000 -162.0964 0.0000
# 6 0.0000 0.0000 0.0000 0.0000 0.0000 55.8830
#
#
#
# Elastic Compliance Matrix: (Units=1/GPa)
#
#
# Indices 1 2 3 4 5 6 
#
# 1 0.006725 -0.002183 -0.002525 0.000000 0.000000 0.000000
# 2 -0.002183 0.015357 -0.003544 0.000000 0.000000 0.000000
# 3 -0.002525 -0.003544 0.018059 0.000000 0.000000 0.000000
# 4 0.000000 0.000000 0.000000 0.045293 0.000000 0.000000
# 5 0.000000 0.000000 0.000000 0.000000 -0.006169 0.000000
# 6 0.000000 0.000000 0.000000 0.000000 0.000000 0.017895
#
#
# Mechanical properties :
#
#
# Convention : Reuss Voigt Hill
#
# Bulk Modulus (GPa) = 42.30639 51.84618 47.07628
# Shear Modulus (GPa) = 41.13783 -1.67012 19.73386
#
# Velocity S-wave (km/s) = 4.24310 -0.85494 2.93879
# Velocity P-wave (km/s) = 6.52078 4.66002 5.66729
#
# Compressibility (1/GPa) = 0.02363709
#
# Stress axis : x y z
#
# Youngs Moduli (GPa) = 148.69109 65.11886 55.37375
#
# Poissons Ratio (x) = 0.14215 0.13981
# Poissons Ratio (y) = 0.32458 0.19626
# Poissons Ratio (z) = 0.37541 0.23080
#
# Static dielectric constant tensor:
#      x y z
#    x 1.840240 0.000000 0.000000 
#    y 0.000000 1.956530 0.000000 
#    z 0.000000 0.000000 1.839870 
# 
# From -- ./inp_files/35165.got.cif
#   From: 2010.05.17/outbox.cif.g08.bks.cpg/sg72_18_cif.got.tgz:35165.got - 2010.06.03 17:03:01.
