data_PCOD9527636
_publ_section_title
;
Structure prediction by ZEFSAII (Michael W. Deem and Ramdas Pophale) SiO2 
 PCOD9527636
Probable space group: I B A M
;
_chemical_formula_sum "Si O2"
_cell_formula_units_Z 96
_cell_length_a 27.493615
_cell_length_b 10.594779
_cell_length_c 18.904674
_cell_angle_alpha 90.000000
_cell_angle_beta 90.000000
_cell_angle_gamma 90.000000
_cell_volume 5506.719328
_symmetry_space_group_name_H-M "I B A M"
_symmetry_group_IT_number 72
_symmetry_cell_setting 'orthorhombic'
loop_
_space_group_symop_operation_xyz
x,y,z
-x,-y,z
x,-y,1/2-z
-x,y,1/2-z
-x,-y,-z
x,y,-z
-x,y,1/2+z
x,-y,1/2+z
1/2+x,1/2+y,1/2+z
1/2-x,1/2-y,1/2+z
1/2+x,1/2-y,-z
1/2-x,1/2+y,-z
1/2-x,1/2-y,1/2-z
1/2+x,1/2+y,1/2-z
1/2-x,1/2+y,z
1/2+x,1/2-y,z
loop_
_atom_site_type_symbol
_atom_site_label
_atom_site_fract_x
_atom_site_fract_y
_atom_site_fract_z
Si Si1 0.500168 0.649996 0.577777
Si Si2 0.701723 0.301170 0.914371
Si Si3 0.281753 0.991093 0.084680
Si Si4 0.125548 0.515045 0.171876
Si Si5 0.902363 0.230259 0.351027
Si Si6 0.450061 0.229403 0.789540
O O1 0.500000 0.500000 0.576011
O O2 0.485584 0.698480 0.500000
O O3 0.554796 0.692273 0.596419
O O4 0.466395 0.693263 0.642182
O O5 0.721155 0.158879 0.896077
O O6 0.738136 0.414721 0.894695
O O7 0.649879 0.318337 0.876136
O O8 0.695108 0.303319 0.000000
O O9 0.331601 0.043693 0.117816
O O10 0.284718 0.995063 0.000000
O O11 0.148560 0.500000 0.250000
O O12 0.102427 0.381936 0.150185
O O13 0.083314 0.616270 0.182773
O O14 0.919756 0.197001 0.271244
O O15 0.500000 0.187211 0.750000
#
# Coordination Sequence:
#
# PCOD9527636 Si02
#       6
#    16  16  16  16  16  16
#     4  10  21  36  52  73 105 141 176 218 261 309
#     4   9  17  33  55  79 106 141 178 218 267 319
#     4   9  18  33  54  78 108 140 176 222 269 317
#     4   9  18  34  54  78 106 137 169 216 265 312
#     4   9  18  33  55  76 102 141 174 207 262 320
#     4   9  19  34  54  77 104 136 174 215 259 310
#
# _framework density 17.433247999999999
#
# number of rings (size 3 to 8) (size 9 to 14) (size 15 to 20)
#    0.000    2.833    0.000    0.500    0.000   12.000 
#    3.000    8.333    0.000    0.000    0.000    0.000 
#    0.000    0.000    0.000    0.000    0.000    0.000 
#
# Total GULP energy -267289.738567 kJ/mol
# GULP energy per Si atom -5568.536220 kJ/mol
# Density = 1.739357 g / cm^3
# Si number density = 17.433248 Si / 1000 Ang^3
#
#
#
# Elastic Constant Matrix: (Units=GPa)
#
#
# Indices 1 2 3 4 5 6 
#
# 1 101.6390 43.7813 55.5599 0.0000 0.0000 0.0000
# 2 43.7813 37.7735 37.2732 0.0000 0.0000 0.0000
# 3 55.5599 37.2732 81.9445 0.0000 0.0000 0.0000
# 4 0.0000 0.0000 0.0000 13.0017 0.0000 0.0000
# 5 0.0000 0.0000 0.0000 0.0000 64.9183 0.0000
# 6 0.0000 0.0000 0.0000 0.0000 0.0000 17.3133
#
#
#
# Elastic Compliance Matrix: (Units=1/GPa)
#
#
# Indices 1 2 3 4 5 6 
#
# 1 0.021047 -0.018712 -0.005759 0.000000 0.000000 0.000000
# 2 -0.018712 0.064668 -0.016728 0.000000 0.000000 0.000000
# 3 -0.005759 -0.016728 0.023717 0.000000 0.000000 0.000000
# 4 0.000000 0.000000 0.000000 0.076913 0.000000 0.000000
# 5 0.000000 0.000000 0.000000 0.000000 0.015404 0.000000
# 6 0.000000 0.000000 0.000000 0.000000 0.000000 0.057759
#
#
# Mechanical properties :
#
#
# Convention : Reuss Voigt Hill
#
# Bulk Modulus (GPa) = 36.98987 54.95399 45.97193
# Shear Modulus (GPa) = 14.24842 24.69615 19.47229
#
# Velocity S-wave (km/s) = 2.86197 3.76787 3.34572
# Velocity P-wave (km/s) = 5.67320 7.10775 6.43060
#
# Compressibility (1/GPa) = 0.02703443
#
# Stress axis : x y z
#
# Youngs Moduli (GPa) = 47.51269 15.46372 42.16401
#
# Poissons Ratio (x) = 0.28935 0.24283
# Poissons Ratio (y) = 0.88904 0.70531
# Poissons Ratio (z) = 0.27363 0.25867
#
# Static dielectric constant tensor:
#      x y z
#    x 1.587120 0.000000 0.000000 
#    y 0.000000 1.589690 0.000000 
#    z 0.000000 0.000000 1.620050 
# 
# From -- ./inp_files/33239.got.cif
#   From: 2010.05.17/outbox.cif.g08.bks.cpg/sg72_17_cif.got.tgz:33239.got - 2010.06.03 17:03:01.
