data_PCOD9527239
_publ_section_title
;
Structure prediction by ZEFSAII (Michael W. Deem and Ramdas Pophale) SiO2 
 PCOD9527239
Probable space group: I B A M
;
_chemical_formula_sum "Si O2"
_cell_formula_units_Z 68
_cell_length_a 15.537052
_cell_length_b 22.819026
_cell_length_c 8.928162
_cell_angle_alpha 90.000000
_cell_angle_beta 90.000000
_cell_angle_gamma 90.000000
_cell_volume 3165.394069
_symmetry_space_group_name_H-M "I B A M"
_symmetry_group_IT_number 72
_symmetry_cell_setting 'orthorhombic'
loop_
_space_group_symop_operation_xyz
x,y,z
-x,-y,z
x,-y,1/2-z
-x,y,1/2-z
-x,-y,-z
x,y,-z
-x,y,1/2+z
x,-y,1/2+z
1/2+x,1/2+y,1/2+z
1/2-x,1/2-y,1/2+z
1/2+x,1/2-y,-z
1/2-x,1/2+y,-z
1/2-x,1/2-y,1/2-z
1/2+x,1/2+y,1/2-z
1/2-x,1/2+y,z
1/2+x,1/2-y,z
loop_
_atom_site_type_symbol
_atom_site_label
_atom_site_fract_x
_atom_site_fract_y
_atom_site_fract_z
Si Si1 0.593384 0.710465 0.824668
Si Si2 0.595608 0.173185 0.820937
Si Si3 0.156146 0.920844 0.835050
Si Si4 0.322342 0.059286 0.825428
Si Si5 0.500000 0.500000 0.250000
O O1 0.500000 0.701355 0.750000
O O2 0.634595 0.765491 0.738800
O O3 0.640585 0.648396 0.816824
O O4 0.583309 0.725691 0.000000
O O5 0.500000 0.171483 0.750000
O O6 0.643775 0.116647 0.758501
O O7 0.592670 0.172859 0.000000
O O8 0.219703 0.940467 0.704152
O O9 0.066380 0.955937 0.831152
O O10 0.196465 0.930870 0.000000
O O11 0.357161 0.000000 0.750000
O O12 0.342644 0.061508 0.000000
#
# Coordination Sequence:
#
# PCOD9527239 Si02
#       5
#    16  16  16  16   4
#     4  10  20  37  61  93 129 168 216 265 317 376
#     4  11  23  43  69  96 127 165 212 263 321 383
#     4  11  24  40  63  96 133 174 218 263 314 376
#     4  12  26  44  66  94 129 167 211 265 322 381
#     4  12  22  40  68  98 136 176 220 256 306 376
#
# _framework density 21.482317999999999
#
# number of rings (size 3 to 8) (size 9 to 14) (size 15 to 20)
#    0.000    0.941    2.353    6.706    0.000    4.235 
#    0.000    2.353    0.000    0.000    0.000    0.000 
#    0.000    0.000    0.000    0.000    0.000    0.000 
#
# Total GULP energy -190073.854666 kJ/mol
# GULP energy per Si atom -5590.407490 kJ/mol
# Density = 2.143342 g / cm^3
# Si number density = 21.482318 Si / 1000 Ang^3
#
#
#
# Elastic Constant Matrix: (Units=GPa)
#
#
# Indices 1 2 3 4 5 6 
#
# 1 35.3794 20.9279 13.2779 0.0000 0.0000 0.0000
# 2 20.9279 171.0856 76.4687 0.0000 0.0000 0.0000
# 3 13.2779 76.4687 192.1399 0.0000 0.0000 0.0000
# 4 0.0000 0.0000 0.0000 18.7986 0.0000 0.0000
# 5 0.0000 0.0000 0.0000 0.0000 28.5690 0.0000
# 6 0.0000 0.0000 0.0000 0.0000 0.0000 27.1615
#
#
#
# Elastic Compliance Matrix: (Units=1/GPa)
#
#
# Indices 1 2 3 4 5 6 
#
# 1 0.030561 -0.003399 -0.000759 0.000000 0.000000 0.000000
# 2 -0.003399 0.007488 -0.002745 0.000000 0.000000 0.000000
# 3 -0.000759 -0.002745 0.006350 0.000000 0.000000 0.000000
# 4 0.000000 0.000000 0.000000 0.053195 0.000000 0.000000
# 5 0.000000 0.000000 0.000000 0.000000 0.035003 0.000000
# 6 0.000000 0.000000 0.000000 0.000000 0.000000 0.036817
#
#
# Mechanical properties :
#
#
# Convention : Reuss Voigt Hill
#
# Bulk Modulus (GPa) = 32.68904 68.88377 50.78640
# Shear Modulus (GPa) = 25.85093 34.10118 29.97606
#
# Velocity S-wave (km/s) = 3.47271 3.98855 3.73953
# Velocity P-wave (km/s) = 5.59726 7.30386 6.50675
#
# Compressibility (1/GPa) = 0.03059129
#
# Stress axis : x y z
#
# Youngs Moduli (GPa) = 32.72195 133.55100 157.49211
#
# Poissons Ratio (x) = 0.45394 0.11956
# Poissons Ratio (y) = 0.11122 0.43234
# Poissons Ratio (z) = 0.02484 0.36662
#
# Static dielectric constant tensor:
#      x y z
#    x 1.800280 0.000000 0.000000 
#    y 0.000000 1.814460 0.000000 
#    z 0.000000 0.000000 1.742840 
# 
# From -- ./inp_files/4407.got.cif
#   From: 2010.05.17/outbox.cif.g08.bks.cpg/sg72_3_cif.got.tgz:4407.got - 2010.06.03 17:03:01.
