data_PCOD9527727
_publ_section_title
;
Structure prediction by ZEFSAII (Michael W. Deem and Ramdas Pophale) SiO2 
 PCOD9527727
Probable space group: I B A M
;
_chemical_formula_sum "Si O2"
_cell_formula_units_Z 96
_cell_length_a 7.025949
_cell_length_b 22.177695
_cell_length_c 24.254144
_cell_angle_alpha 90.000000
_cell_angle_beta 90.000000
_cell_angle_gamma 90.000000
_cell_volume 3779.265050
_symmetry_space_group_name_H-M "I B A M"
_symmetry_group_IT_number 72
_symmetry_cell_setting 'orthorhombic'
loop_
_space_group_symop_operation_xyz
x,y,z
-x,-y,z
x,-y,1/2-z
-x,y,1/2-z
-x,-y,-z
x,y,-z
-x,y,1/2+z
x,-y,1/2+z
1/2+x,1/2+y,1/2+z
1/2-x,1/2-y,1/2+z
1/2+x,1/2-y,-z
1/2-x,1/2+y,-z
1/2-x,1/2-y,1/2-z
1/2+x,1/2+y,1/2-z
1/2-x,1/2+y,z
1/2+x,1/2-y,z
loop_
_atom_site_type_symbol
_atom_site_label
_atom_site_fract_x
_atom_site_fract_y
_atom_site_fract_z
Si Si1 0.903068 0.690716 0.437490
Si Si2 0.244216 0.868397 0.793321
Si Si3 0.340389 0.326219 0.909656
Si Si4 0.196312 0.368172 0.326002
Si Si5 0.668475 0.452288 0.558199
Si Si6 0.212172 0.505673 0.327970
O O1 0.840461 0.675500 0.500000
O O2 0.912031 0.762997 0.431454
O O3 0.787892 0.666379 0.384085
O O4 0.118999 0.668999 0.428253
O O5 0.147393 0.832598 0.843365
O O6 0.469381 0.868327 0.810534
O O7 0.217028 0.844164 0.731601
O O8 0.190198 0.940015 0.794488
O O9 0.423651 0.386699 0.935135
O O10 0.274474 0.436473 0.332629
O O11 0.500000 0.500000 0.559594
O O12 0.771710 0.456525 0.500000
O O13 0.794927 0.466387 0.610815
O O14 0.000000 0.500000 0.306461
#
# Coordination Sequence:
#
# PCOD9527727 Si02
#       6
#    16  16  16  16  16  16
#     4  11  22  36  56  81 115 154 191 235 281 337
#     4   8  16  33  54  78 110 145 183 230 282 333
#     4  10  22  39  58  80 109 149 193 236 284 335
#     4   9  17  30  53  83 110 142 185 230 280 333
#     4  10  21  37  56  78 111 151 185 224 280 342
#     4   9  17  30  54  84 110 140 182 233 280 327
#
# _framework density 25.401765999999999
#
# number of rings (size 3 to 8) (size 9 to 14) (size 15 to 20)
#    0.000    2.500    0.000    3.000    0.000    5.000 
#    0.000    1.667    0.000   12.000    0.000    0.000 
#    0.000    0.000    0.000    0.000    0.000    0.000 
#
# Total GULP energy -268317.975486 kJ/mol
# GULP energy per Si atom -5589.957823 kJ/mol
# Density = 2.534395 g / cm^3
# Si number density = 25.401766 Si / 1000 Ang^3
#
#
#
# Elastic Constant Matrix: (Units=GPa)
#
#
# Indices 1 2 3 4 5 6 
#
# 1 62.9026 18.9631 23.0847 0.0000 0.0000 0.0000
# 2 18.9631 103.2197 68.5349 0.0000 0.0000 0.0000
# 3 23.0847 68.5349 275.0762 0.0000 0.0000 0.0000
# 4 0.0000 0.0000 0.0000 -3.8450 0.0000 0.0000
# 5 0.0000 0.0000 0.0000 0.0000 22.2221 0.0000
# 6 0.0000 0.0000 0.0000 0.0000 0.0000 22.8403
#
#
#
# Elastic Compliance Matrix: (Units=1/GPa)
#
#
# Indices 1 2 3 4 5 6 
#
# 1 0.016967 -0.002602 -0.000776 0.000000 0.000000 0.000000
# 2 -0.002602 0.012007 -0.002773 0.000000 0.000000 0.000000
# 3 -0.000776 -0.002773 0.004391 0.000000 0.000000 0.000000
# 4 0.000000 0.000000 0.000000 -0.260081 0.000000 0.000000
# 5 0.000000 0.000000 0.000000 0.000000 0.045000 0.000000
# 6 0.000000 0.000000 0.000000 0.000000 0.000000 0.043782
#
#
# Mechanical properties :
#
#
# Convention : Reuss Voigt Hill
#
# Bulk Modulus (GPa) = 47.47506 73.59600 60.53553
# Shear Modulus (GPa) = -42.15488 30.28455 -5.93517
#
# Velocity S-wave (km/s) = -4.07815 3.45660 -1.53023
# Velocity P-wave (km/s) = 1.85602 6.70571 4.55641
#
# Compressibility (1/GPa) = 0.02106369
#
# Stress axis : x y z
#
# Youngs Moduli (GPa) = 58.93915 83.28132 227.71771
#
# Poissons Ratio (x) = 0.21671 0.17661
# Poissons Ratio (y) = 0.15337 0.63153
# Poissons Ratio (z) = 0.04571 0.23096
#
# Static dielectric constant tensor:
#      x y z
#    x 2.082570 0.000000 0.000000 
#    y 0.000000 1.991230 0.000000 
#    z 0.000000 0.000000 2.019400 
# 
# From -- ./inp_files/42421.got.cif
#   From: 2010.05.17/outbox.cif.g08.bks.cpg/sg72_22_cif.got.tgz:42421.got - 2010.06.03 17:03:01.
