data_PCOD9527815
_publ_section_title
;
Structure prediction by ZEFSAII (Michael W. Deem and Ramdas Pophale) SiO2 
 PCOD9527815
Probable space group: I B A M
;
_chemical_formula_sum "Si O2"
_cell_formula_units_Z 112
_cell_length_a 13.623240
_cell_length_b 18.096260
_cell_length_c 23.708168
_cell_angle_alpha 90.000000
_cell_angle_beta 90.000000
_cell_angle_gamma 90.000000
_cell_volume 5844.767381
_symmetry_space_group_name_H-M "I B A M"
_symmetry_group_IT_number 72
_symmetry_cell_setting 'orthorhombic'
loop_
_space_group_symop_operation_xyz
x,y,z
-x,-y,z
x,-y,1/2-z
-x,y,1/2-z
-x,-y,-z
x,y,-z
-x,y,1/2+z
x,-y,1/2+z
1/2+x,1/2+y,1/2+z
1/2-x,1/2-y,1/2+z
1/2+x,1/2-y,-z
1/2-x,1/2+y,-z
1/2-x,1/2-y,1/2-z
1/2+x,1/2+y,1/2-z
1/2-x,1/2+y,z
1/2+x,1/2-y,z
loop_
_atom_site_type_symbol
_atom_site_label
_atom_site_fract_x
_atom_site_fract_y
_atom_site_fract_z
Si Si1 0.276355 0.158690 0.064379
Si Si2 0.368034 0.839221 0.857367
Si Si3 0.177763 0.173089 0.434246
Si Si4 0.641657 0.668696 0.670752
Si Si5 0.547933 0.420424 0.647333
Si Si6 0.736669 0.418631 0.728828
Si Si7 0.523420 0.914008 0.064814
O O1 0.330764 0.238031 0.072367
O O2 0.193906 0.149258 0.111300
O O3 0.360584 0.098208 0.070741
O O4 0.237880 0.158109 0.000000
O O5 0.280952 0.842836 0.903815
O O6 0.374297 0.756395 0.833054
O O7 0.327722 0.889505 0.807208
O O8 0.464451 0.867169 0.889094
O O9 0.182244 0.155956 0.500000
O O10 0.092521 0.126118 0.404688
O O11 0.538604 0.627220 0.674830
O O12 0.709261 0.638761 0.721428
O O13 0.500000 0.500000 0.633495
O O14 0.639463 0.427174 0.689892
O O15 0.759169 0.500000 0.750000
O O16 0.500000 0.000000 0.071173
O O17 0.497735 0.891371 0.000000
#
# Coordination Sequence:
#
# PCOD9527815 Si02
#       7
#    16  16  16  16  16  16  16
#     4   9  20  38  59  87 119 156 195 242 296 356
#     4  10  22  39  61  89 114 157 204 248 295 353
#     4   9  19  36  58  86 122 152 191 245 299 353
#     4  11  22  38  63  87 117 156 203 246 296 365
#     4  11  22  36  59  89 117 159 198 245 301 364
#     4  11  23  40  63  84 120 157 200 249 306 360
#     4  10  21  37  61  87 120 161 200 240 296 364
#
# _framework density 19.162438999999999
#
# number of rings (size 3 to 8) (size 9 to 14) (size 15 to 20)
#    0.000    1.857    1.429    2.143    2.000    1.429 
#    0.000    3.571    0.000    0.000    0.000    0.000 
#    0.000    0.000    0.000    0.000    0.000    0.000 
#
# Total GULP energy -312643.734037 kJ/mol
# GULP energy per Si atom -5582.923822 kJ/mol
# Density = 1.911882 g / cm^3
# Si number density = 19.162439 Si / 1000 Ang^3
#
#
#
# Elastic Constant Matrix: (Units=GPa)
#
#
# Indices 1 2 3 4 5 6 
#
# 1 18.5745 -0.2819 -15.1260 0.0000 0.0000 0.0000
# 2 -0.2819 57.6783 8.0517 0.0000 0.0000 0.0000
# 3 -15.1260 8.0517 38.8653 0.0000 0.0000 0.0000
# 4 0.0000 0.0000 0.0000 18.9866 0.0000 0.0000
# 5 0.0000 0.0000 0.0000 0.0000 2.2605 0.0000
# 6 0.0000 0.0000 0.0000 0.0000 0.0000 20.1405
#
#
#
# Elastic Compliance Matrix: (Units=1/GPa)
#
#
# Indices 1 2 3 4 5 6 
#
# 1 0.079729 -0.004059 0.031871 0.000000 0.000000 0.000000
# 2 -0.004059 0.018061 -0.005321 0.000000 0.000000 0.000000
# 3 0.031871 -0.005321 0.039236 0.000000 0.000000 0.000000
# 4 0.000000 0.000000 0.000000 0.052669 0.000000 0.000000
# 5 0.000000 0.000000 0.000000 0.000000 0.442380 0.000000
# 6 0.000000 0.000000 0.000000 0.000000 0.000000 0.049651
#
#
# Mechanical properties :
#
#
# Convention : Reuss Voigt Hill
#
# Bulk Modulus (GPa) = 5.49433 11.15620 8.32527
# Shear Modulus (GPa) = 7.16933 16.44246 11.80590
#
# Velocity S-wave (km/s) = 1.93635 2.93244 2.48482
# Velocity P-wave (km/s) = 2.80584 4.15934 3.54774
#
# Compressibility (1/GPa) = 0.18200565
#
# Stress axis : x y z
#
# Youngs Moduli (GPa) = 12.54245 55.36923 25.48675
#
# Poissons Ratio (x) = 0.22476 -0.81228
# Poissons Ratio (y) = 0.05091 0.13563
# Poissons Ratio (z) = -0.39974 0.29465
#
# Static dielectric constant tensor:
#      x y z
#    x 1.635380 0.000000 0.000000 
#    y 0.000000 1.681720 0.000000 
#    z 0.000000 0.000000 1.669000 
# 
# From -- ./inp_files/44356.got.cif
#   From: 2010.05.17/outbox.cif.g08.bks.cpg/sg72_23_cif.got.tgz:44356.got - 2010.06.03 17:03:01.
