data_PCOD9527132
_publ_section_title
;
Structure prediction by ZEFSAII (Michael W. Deem and Ramdas Pophale) SiO2 
 PCOD9527132
Probable space group: I B A M
;
_chemical_formula_sum "Si O2"
_cell_formula_units_Z 120
_cell_length_a 28.701768
_cell_length_b 13.596300
_cell_length_c 15.781699
_cell_angle_alpha 90.000000
_cell_angle_beta 90.000000
_cell_angle_gamma 90.000000
_cell_volume 6158.616260
_symmetry_space_group_name_H-M "I B A M"
_symmetry_group_IT_number 72
_symmetry_cell_setting 'orthorhombic'
loop_
_space_group_symop_operation_xyz
x,y,z
-x,-y,z
x,-y,1/2-z
-x,y,1/2-z
-x,-y,-z
x,y,-z
-x,y,1/2+z
x,-y,1/2+z
1/2+x,1/2+y,1/2+z
1/2-x,1/2-y,1/2+z
1/2+x,1/2-y,-z
1/2-x,1/2+y,-z
1/2-x,1/2-y,1/2-z
1/2+x,1/2+y,1/2-z
1/2-x,1/2+y,z
1/2+x,1/2-y,z
loop_
_atom_site_type_symbol
_atom_site_label
_atom_site_fract_x
_atom_site_fract_y
_atom_site_fract_z
Si Si1 0.058922 0.276716 0.902804
Si Si2 0.297728 0.188791 0.320464
Si Si3 0.884928 0.793289 0.742256
Si Si4 0.338844 0.500000 0.750000
Si Si5 0.428956 0.998655 0.346458
Si Si6 0.829853 0.502355 0.403883
Si Si7 0.240908 0.890327 0.333411
Si Si8 0.951123 0.708963 0.595598
O O1 0.087558 0.219750 0.830971
O O2 0.065913 0.393596 0.886001
O O3 0.003998 0.254807 0.892631
O O4 0.072600 0.255252 0.000000
O O5 0.337741 0.230797 0.258123
O O6 0.318587 0.111039 0.384931
O O7 0.260583 0.132570 0.261321
O O8 0.275121 0.283378 0.364586
O O9 0.869528 0.905439 0.726152
O O10 0.916747 0.750762 0.667109
O O11 0.303808 0.539856 0.823085
O O12 0.374026 0.971747 0.346779
O O13 0.445524 0.000000 0.250000
O O14 0.453148 0.909417 0.394585
O O15 0.844405 0.518013 0.500000
O O16 0.783502 0.562758 0.383236
O O17 0.935548 0.732657 0.500000
#
# Coordination Sequence:
#
# PCOD9527132 Si02
#       8
#    16  16  16   8  16  16  16  16
#     4  11  23  39  61  89 122 158 198 243 296 365
#     4  10  20  36  62  80 110 154 197 238 288 345
#     4  11  22  40  64  90 116 160 199 248 299 356
#     4  10  22  40  67  86 112 154 207 254 304 340
#     4  12  22  36  59  89 123 162 196 239 296 358
#     4  12  22  34  54  86 123 154 194 242 287 350
#     4  10  20  38  60  82 112 151 196 240 290 350
#     4  11  23  39  60  89 125 157 194 245 299 361
#
# _framework density 19.484897
#
# number of rings (size 3 to 8) (size 9 to 14) (size 15 to 20)
#    0.000    1.067    4.000    3.600    0.000    2.133 
#    0.000    4.667    0.000    1.600    0.000    0.000 
#    0.000    0.000    0.000    0.000    0.000    0.000 
#
# Total GULP energy -335228.820824 kJ/mol
# GULP energy per Si atom -5587.147014 kJ/mol
# Density = 1.944055 g / cm^3
# Si number density = 19.484897 Si / 1000 Ang^3
#
#
#
# Elastic Constant Matrix: (Units=GPa)
#
#
# Indices 1 2 3 4 5 6 
#
# 1 89.2290 35.5143 36.1429 0.0000 0.0000 0.0000
# 2 35.5143 88.3393 28.8658 0.0000 0.0000 0.0000
# 3 36.1429 28.8658 95.7593 0.0000 0.0000 0.0000
# 4 0.0000 0.0000 0.0000 12.7102 0.0000 0.0000
# 5 0.0000 0.0000 0.0000 0.0000 -3.8287 0.0000
# 6 0.0000 0.0000 0.0000 0.0000 0.0000 25.9224
#
#
#
# Elastic Compliance Matrix: (Units=1/GPa)
#
#
# Indices 1 2 3 4 5 6 
#
# 1 0.014711 -0.004548 -0.004182 0.000000 0.000000 0.000000
# 2 -0.004548 0.013963 -0.002492 0.000000 0.000000 0.000000
# 3 -0.004182 -0.002492 0.012772 0.000000 0.000000 0.000000
# 4 0.000000 0.000000 0.000000 0.078677 0.000000 0.000000
# 5 0.000000 0.000000 0.000000 0.000000 -0.261188 0.000000
# 6 0.000000 0.000000 0.000000 0.000000 0.000000 0.038577
#
#
# Mechanical properties :
#
#
# Convention : Reuss Voigt Hill
#
# Bulk Modulus (GPa) = 52.62437 52.70816 52.66627
# Shear Modulus (GPa) = -67.83360 18.48109 -24.67626
#
# Velocity S-wave (km/s) = -5.90669 3.08309 -3.56255
# Velocity P-wave (km/s) = 4.41047 6.30741 3.18835
#
# Compressibility (1/GPa) = 0.01900260
#
# Stress axis : x y z
#
# Youngs Moduli (GPa) = 67.97659 71.61932 78.29356
#
# Poissons Ratio (x) = 0.32571 0.32739
# Poissons Ratio (y) = 0.30914 0.19514
# Poissons Ratio (z) = 0.28425 0.17851
#
# Static dielectric constant tensor:
#      x y z
#    x 1.713310 0.000000 0.000000 
#    y 0.000000 1.690110 0.000000 
#    z 0.000000 0.000000 1.663200 
# 
# From -- ./inp_files/26549.got.cif
#   From: 2010.05.17/outbox.cif.g08.bks.cpg/sg72_14_cif.got.tgz:26549.got - 2010.06.03 17:03:01.
