data_PCOD9527219
_publ_section_title
;
Structure prediction by ZEFSAII (Michael W. Deem and Ramdas Pophale) SiO2 
 PCOD9527219
Probable space group: I B A M
;
_chemical_formula_sum "Si O2"
_cell_formula_units_Z 96
_cell_length_a 23.865666
_cell_length_b 11.179024
_cell_length_c 15.646348
_cell_angle_alpha 90.000000
_cell_angle_beta 90.000000
_cell_angle_gamma 90.000000
_cell_volume 4174.365114
_symmetry_space_group_name_H-M "I B A M"
_symmetry_group_IT_number 72
_symmetry_cell_setting 'orthorhombic'
loop_
_space_group_symop_operation_xyz
x,y,z
-x,-y,z
x,-y,1/2-z
-x,y,1/2-z
-x,-y,-z
x,y,-z
-x,y,1/2+z
x,-y,1/2+z
1/2+x,1/2+y,1/2+z
1/2-x,1/2-y,1/2+z
1/2+x,1/2-y,-z
1/2-x,1/2+y,-z
1/2-x,1/2-y,1/2-z
1/2+x,1/2+y,1/2-z
1/2-x,1/2+y,z
1/2+x,1/2-y,z
loop_
_atom_site_type_symbol
_atom_site_label
_atom_site_fract_x
_atom_site_fract_y
_atom_site_fract_z
Si Si1 0.514630 0.180306 0.595144
Si Si2 0.193372 0.214033 0.397459
Si Si3 0.083994 0.907174 0.135419
Si Si4 0.420941 0.664294 0.168476
Si Si5 0.321119 0.192582 0.395925
Si Si6 0.122588 0.442383 0.604312
O O1 0.495464 0.145050 0.500000
O O2 0.552829 0.300367 0.587766
O O3 0.461766 0.226264 0.647315
O O4 0.558499 0.083559 0.631315
O O5 0.196737 0.224856 0.500000
O O6 0.150472 0.106898 0.378617
O O7 0.256654 0.197464 0.367499
O O8 0.162388 0.333984 0.365168
O O9 0.073117 0.873266 0.233858
O O10 0.065341 0.042136 0.117416
O O11 0.358579 0.704340 0.145211
O O12 0.323533 0.202526 0.500000
O O13 0.350084 0.067267 0.371767
O O14 0.120896 0.437189 0.500000
#
# Coordination Sequence:
#
# PCOD9527219 Si02
#       6
#    16  16  16  16  16  16
#     4  10  20  37  61  84 114 153 196 247 299 353
#     4   9  19  36  60  83 112 155 199 244 292 349
#     4  10  22  39  56  81 119 157 192 243 296 352
#     4  11  23  36  55  86 118 153 196 243 300 357
#     4  10  21  35  58  89 118 154 200 246 291 352
#     4   8  17  35  55  83 118 151 190 244 304 342
#
# _framework density 22.997508
#
# number of rings (size 3 to 8) (size 9 to 14) (size 15 to 20)
#    0.000    2.333    0.000    3.000    2.333    6.000 
#    0.000    5.833    0.000    4.000    0.000    0.000 
#    0.000    0.000    0.000    0.000    0.000    0.000 
#
# Total GULP energy -268279.194114 kJ/mol
# GULP energy per Si atom -5589.149877 kJ/mol
# Density = 2.294517 g / cm^3
# Si number density = 22.997508 Si / 1000 Ang^3
#
#
#
# Elastic Constant Matrix: (Units=GPa)
#
#
# Indices 1 2 3 4 5 6 
#
# 1 149.3320 20.2070 11.6027 0.0000 0.0000 0.0000
# 2 20.2070 83.3585 8.3427 0.0000 0.0000 0.0000
# 3 11.6027 8.3427 31.7037 0.0000 0.0000 0.0000
# 4 0.0000 0.0000 0.0000 17.9865 0.0000 0.0000
# 5 0.0000 0.0000 0.0000 0.0000 -0.4027 0.0000
# 6 0.0000 0.0000 0.0000 0.0000 0.0000 28.6684
#
#
#
# Elastic Compliance Matrix: (Units=1/GPa)
#
#
# Indices 1 2 3 4 5 6 
#
# 1 0.007069 -0.001494 -0.002194 0.000000 0.000000 0.000000
# 2 -0.001494 0.012637 -0.002778 0.000000 0.000000 0.000000
# 3 -0.002194 -0.002778 0.033076 0.000000 0.000000 0.000000
# 4 0.000000 0.000000 0.000000 0.055597 0.000000 0.000000
# 5 0.000000 0.000000 0.000000 0.000000 -2.482941 0.000000
# 6 0.000000 0.000000 0.000000 0.000000 0.000000 0.034882
#
#
# Mechanical properties :
#
#
# Convention : Reuss Voigt Hill
#
# Bulk Modulus (GPa) = 25.09482 38.29990 31.69736
# Shear Modulus (GPa) = -2.16126 24.19989 11.01932
#
# Velocity S-wave (km/s) = -0.97047 3.24741 2.19133
# Velocity P-wave (km/s) = 3.11125 5.54536 4.49616
#
# Compressibility (1/GPa) = 0.03984886
#
# Stress axis : x y z
#
# Youngs Moduli (GPa) = 141.46031 79.13505 30.23330
#
# Poissons Ratio (x) = 0.11823 0.06633
# Poissons Ratio (y) = 0.21135 0.08400
# Poissons Ratio (z) = 0.31036 0.21988
#
# Static dielectric constant tensor:
#      x y z
#    x 1.860460 0.000000 0.000000 
#    y 0.000000 1.865770 0.000000 
#    z 0.000000 0.000000 1.906010 
# 
# From -- ./inp_files/33235.got.cif
#   From: 2010.05.17/outbox.cif.g08.bks.cpg/sg72_17_cif.got.tgz:33235.got - 2010.06.03 17:03:01.
