data_PCOD9527105
_publ_section_title
;
Structure prediction by ZEFSAII (Michael W. Deem and Ramdas Pophale) SiO2 
 PCOD9527105
Probable space group: I B A M
;
_chemical_formula_sum "Si O2"
_cell_formula_units_Z 116
_cell_length_a 22.957144
_cell_length_b 26.805000
_cell_length_c 9.100959
_cell_angle_alpha 90.000000
_cell_angle_beta 90.000000
_cell_angle_gamma 90.000000
_cell_volume 5600.422965
_symmetry_space_group_name_H-M "I B A M"
_symmetry_group_IT_number 72
_symmetry_cell_setting 'orthorhombic'
loop_
_space_group_symop_operation_xyz
x,y,z
-x,-y,z
x,-y,1/2-z
-x,y,1/2-z
-x,-y,-z
x,y,-z
-x,y,1/2+z
x,-y,1/2+z
1/2+x,1/2+y,1/2+z
1/2-x,1/2-y,1/2+z
1/2+x,1/2-y,-z
1/2-x,1/2+y,-z
1/2-x,1/2-y,1/2-z
1/2+x,1/2+y,1/2-z
1/2-x,1/2+y,z
1/2+x,1/2-y,z
loop_
_atom_site_type_symbol
_atom_site_label
_atom_site_fract_x
_atom_site_fract_y
_atom_site_fract_z
Si Si1 0.789310 0.591882 0.322074
Si Si2 0.439030 0.812860 0.324174
Si Si3 0.407196 0.083284 0.669363
Si Si4 0.387528 0.722998 0.170430
Si Si5 0.162017 0.051670 0.176460
Si Si6 0.256435 0.301739 0.668828
Si Si7 0.000000 0.500000 0.750000
Si Si8 0.941931 0.123492 0.676845
O O1 0.797565 0.590681 0.500000
O O2 0.844997 0.569343 0.240609
O O3 0.728474 0.565507 0.285548
O O4 0.777919 0.649757 0.276568
O O5 0.500000 0.797090 0.250000
O O6 0.442384 0.813903 0.500000
O O7 0.426678 0.868310 0.262864
O O8 0.392048 0.772177 0.269171
O O9 0.399681 0.098093 0.500000
O O10 0.454879 0.038944 0.674496
O O11 0.326420 0.692986 0.172451
O O12 0.433313 0.681335 0.218756
O O13 0.397089 0.737804 0.000000
O O14 0.114655 0.092402 0.222563
O O15 0.146438 0.000000 0.250000
O O16 0.159992 0.048436 0.000000
O O17 0.238796 0.295553 0.500000
O O18 0.250000 0.250000 0.750000
O O19 0.945840 0.121884 0.500000
O O20 0.000000 0.103195 0.750000
#
# Coordination Sequence:
#
# PCOD9527105 Si02
#       8
#    16  16  16  16  16  16   4  16
#     4  10  22  43  68  96 134 175 216 269 335 399
#     4  12  25  42  64  94 132 173 219 272 331 397
#     4  12  27  47  72 100 130 170 221 276 334 398
#     4  10  20  38  63  91 130 175 219 268 324 389
#     4  10  22  42  65  92 129 173 219 273 334 396
#     4  10  20  36  60  91 129 173 213 260 320 387
#     4  12  30  52  76  98 138 176 228 276 344 396
#     4  10  21  39  63  92 129 173 220 270 328 389
#
# _framework density 20.712720999999998
#
# number of rings (size 3 to 8) (size 9 to 14) (size 15 to 20)
#    0.000    1.379    2.069    3.103    0.966    8.000 
#    0.000    1.379    0.000    0.000    0.000    0.000 
#    0.000    0.000    0.000    0.000    0.000    0.000 
#
# Total GULP energy -323867.758737 kJ/mol
# GULP energy per Si atom -5583.926875 kJ/mol
# Density = 2.066558 g / cm^3
# Si number density = 20.712721 Si / 1000 Ang^3
#
#
#
# Elastic Constant Matrix: (Units=GPa)
#
#
# Indices 1 2 3 4 5 6 
#
# 1 106.5408 36.1765 36.9522 0.0000 0.0000 0.0000
# 2 36.1765 113.2510 42.5751 0.0000 0.0000 0.0000
# 3 36.9522 42.5751 75.6056 0.0000 0.0000 0.0000
# 4 0.0000 0.0000 0.0000 20.7029 0.0000 0.0000
# 5 0.0000 0.0000 0.0000 0.0000 20.9318 0.0000
# 6 0.0000 0.0000 0.0000 0.0000 0.0000 33.2914
#
#
#
# Elastic Compliance Matrix: (Units=1/GPa)
#
#
# Indices 1 2 3 4 5 6 
#
# 1 0.011650 -0.002005 -0.004565 0.000000 0.000000 0.000000
# 2 -0.002005 0.011546 -0.005522 0.000000 0.000000 0.000000
# 3 -0.004565 -0.005522 0.018567 0.000000 0.000000 0.000000
# 4 0.000000 0.000000 0.000000 0.048302 0.000000 0.000000
# 5 0.000000 0.000000 0.000000 0.000000 0.047774 0.000000
# 6 0.000000 0.000000 0.000000 0.000000 0.000000 0.030038
#
#
# Mechanical properties :
#
#
# Convention : Reuss Voigt Hill
#
# Bulk Modulus (GPa) = 56.88420 58.53389 57.70905
# Shear Modulus (GPa) = 25.26244 26.96477 26.11361
#
# Velocity S-wave (km/s) = 3.49615 3.61202 3.55456
# Velocity P-wave (km/s) = 6.61970 6.76142 6.69094
#
# Compressibility (1/GPa) = 0.01757957
#
# Stress axis : x y z
#
# Youngs Moduli (GPa) = 85.83499 86.60682 53.85890
#
# Poissons Ratio (x) = 0.17369 0.24585
# Poissons Ratio (y) = 0.17214 0.29740
# Poissons Ratio (z) = 0.39181 0.47823
#
# Static dielectric constant tensor:
#      x y z
#    x 1.817110 0.000000 0.000000 
#    y 0.000000 1.745210 0.000000 
#    z 0.000000 0.000000 1.699600 
# 
# From -- ./inp_files/7326.got.cif
#   From: 2010.05.17/outbox.cif.g08.bks.cpg/sg72_4_cif.got.tgz:7326.got - 2010.06.03 17:03:01.
