data_PCOD9527980
_publ_section_title
;
Structure prediction by ZEFSAII (Michael W. Deem and Ramdas Pophale) SiO2 
 PCOD9527980
Probable space group: I B A M
;
_chemical_formula_sum "Si O2"
_cell_formula_units_Z 96
_cell_length_a 12.790921
_cell_length_b 22.035919
_cell_length_c 17.765058
_cell_angle_alpha 90.000000
_cell_angle_beta 90.000000
_cell_angle_gamma 90.000000
_cell_volume 5007.253902
_symmetry_space_group_name_H-M "I B A M"
_symmetry_group_IT_number 72
_symmetry_cell_setting 'orthorhombic'
loop_
_space_group_symop_operation_xyz
x,y,z
-x,-y,z
x,-y,1/2-z
-x,y,1/2-z
-x,-y,-z
x,y,-z
-x,y,1/2+z
x,-y,1/2+z
1/2+x,1/2+y,1/2+z
1/2-x,1/2-y,1/2+z
1/2+x,1/2-y,-z
1/2-x,1/2+y,-z
1/2-x,1/2-y,1/2-z
1/2+x,1/2+y,1/2-z
1/2-x,1/2+y,z
1/2+x,1/2-y,z
loop_
_atom_site_type_symbol
_atom_site_label
_atom_site_fract_x
_atom_site_fract_y
_atom_site_fract_z
Si Si1 0.726190 0.054249 0.696304
Si Si2 0.397557 0.854019 0.591852
Si Si3 0.194661 0.959260 0.087222
Si Si4 0.699172 0.264166 0.669780
Si Si5 0.399759 0.618160 0.703047
Si Si6 0.642419 0.145912 0.087885
O O1 0.648289 0.092092 0.643886
O O2 0.797474 0.097552 0.748755
O O3 0.682357 0.000000 0.750000
O O4 0.799229 0.018785 0.637362
O O5 0.384729 0.861653 0.500000
O O6 0.339665 0.793248 0.621789
O O7 0.521328 0.851737 0.609403
O O8 0.107513 0.916661 0.124200
O O9 0.302240 0.919920 0.096772
O O10 0.179359 0.971234 0.000000
O O11 0.750000 0.250000 0.750000
O O12 0.604761 0.310682 0.686027
O O13 0.786099 0.304454 0.627783
O O14 0.500000 0.600698 0.750000
O O15 0.646935 0.159543 0.000000
#
# Coordination Sequence:
#
# PCOD9527980 Si02
#       6
#    16  16  16  16  16  16
#     4  10  21  39  58  89 122 158 200 248 298 347
#     4  11  23  39  63  91 122 156 199 250 299 356
#     4   9  19  39  63  84 118 158 198 244 298 356
#     4  11  22  38  60  86 119 157 196 243 298 356
#     4  10  22  40  60  85 120 157 198 248 300 353
#     4   9  21  40  60  88 121 155 193 243 301 358
#
# _framework density 19.172186
#
# number of rings (size 3 to 8) (size 9 to 14) (size 15 to 20)
#    0.000    2.000    1.667    1.000    2.333    4.333 
#    0.000    9.167    0.000    0.000    0.000    0.000 
#    0.000    0.000    0.000    0.000    0.000    0.000 
#
# Total GULP energy -267617.110004 kJ/mol
# GULP energy per Si atom -5575.356458 kJ/mol
# Density = 1.912855 g / cm^3
# Si number density = 19.172186 Si / 1000 Ang^3
#
#
#
# Elastic Constant Matrix: (Units=GPa)
#
#
# Indices 1 2 3 4 5 6 
#
# 1 47.6605 1.8455 20.3609 0.0000 0.0000 0.0000
# 2 1.8455 75.0424 30.6350 0.0000 0.0000 0.0000
# 3 20.3609 30.6350 103.8002 0.0000 0.0000 0.0000
# 4 0.0000 0.0000 0.0000 33.6892 0.0000 0.0000
# 5 0.0000 0.0000 0.0000 0.0000 25.3535 0.0000
# 6 0.0000 0.0000 0.0000 0.0000 0.0000 -5.9671
#
#
#
# Elastic Compliance Matrix: (Units=1/GPa)
#
#
# Indices 1 2 3 4 5 6 
#
# 1 0.023039 0.001453 -0.004948 0.000000 0.000000 0.000000
# 2 0.001453 0.015243 -0.004784 0.000000 0.000000 0.000000
# 3 -0.004948 -0.004784 0.012016 0.000000 0.000000 0.000000
# 4 0.000000 0.000000 0.000000 0.029683 0.000000 0.000000
# 5 0.000000 0.000000 0.000000 0.000000 0.039442 0.000000
# 6 0.000000 0.000000 0.000000 0.000000 0.000000 -0.167585
#
#
# Mechanical properties :
#
#
# Convention : Reuss Voigt Hill
#
# Bulk Modulus (GPa) = 29.63711 36.90957 33.27334
# Shear Modulus (GPa) = -245.62784 22.19256 -111.71764
#
# Velocity S-wave (km/s) = -11.33115 3.40595 -7.64181
# Velocity P-wave (km/s) = 12.47803 5.89583 7.77626
#
# Compressibility (1/GPa) = 0.03374148
#
# Stress axis : x y z
#
# Youngs Moduli (GPa) = 43.40395 65.60396 83.21971
#
# Poissons Ratio (x) = -0.09535 0.41179
# Poissons Ratio (y) = -0.06308 0.39811
# Poissons Ratio (z) = 0.21477 0.31384
#
# Static dielectric constant tensor:
#      x y z
#    x 1.697290 0.000000 0.000000 
#    y 0.000000 1.700180 0.000000 
#    z 0.000000 0.000000 1.675920 
# 
# From -- ./inp_files/29441.got.cif
#   From: 2010.05.17/outbox.cif.g08.bks.cpg/sg72_15_cif.got.tgz:29441.got - 2010.06.03 17:03:01.
