data_PCOD9527559
_publ_section_title
;
Structure prediction by ZEFSAII (Michael W. Deem and Ramdas Pophale) SiO2 
 PCOD9527559
Probable space group: I B A M
;
_chemical_formula_sum "Si O2"
_cell_formula_units_Z 96
_cell_length_a 29.567348
_cell_length_b 9.119750
_cell_length_c 17.050715
_cell_angle_alpha 90.000000
_cell_angle_beta 90.000000
_cell_angle_gamma 90.000000
_cell_volume 4597.671111
_symmetry_space_group_name_H-M "I B A M"
_symmetry_group_IT_number 72
_symmetry_cell_setting 'orthorhombic'
loop_
_space_group_symop_operation_xyz
x,y,z
-x,-y,z
x,-y,1/2-z
-x,y,1/2-z
-x,-y,-z
x,y,-z
-x,y,1/2+z
x,-y,1/2+z
1/2+x,1/2+y,1/2+z
1/2-x,1/2-y,1/2+z
1/2+x,1/2-y,-z
1/2-x,1/2+y,-z
1/2-x,1/2-y,1/2-z
1/2+x,1/2+y,1/2-z
1/2-x,1/2+y,z
1/2+x,1/2-y,z
loop_
_atom_site_type_symbol
_atom_site_label
_atom_site_fract_x
_atom_site_fract_y
_atom_site_fract_z
Si Si1 0.591045 0.665167 0.909591
Si Si2 0.813929 0.265394 0.112604
Si Si3 0.688525 0.248888 0.199892
Si Si4 0.995743 0.178179 0.409354
Si Si5 0.746449 0.506930 0.129264
Si Si6 0.605154 0.668679 0.596302
O O1 0.634072 0.769412 0.911089
O O2 0.544141 0.724602 0.873329
O O3 0.606467 0.504751 0.880103
O O4 0.578947 0.633830 0.000000
O O5 0.817535 0.259770 0.207388
O O6 0.781836 0.398406 0.087498
O O7 0.788595 0.115954 0.086999
O O8 0.715343 0.396405 0.178156
O O9 0.643678 0.250798 0.146205
O O10 0.721011 0.116187 0.176031
O O11 0.993746 0.227127 0.500000
O O12 0.945753 0.217215 0.379756
O O13 0.000000 0.000000 0.407136
O O14 0.611096 0.681067 0.500000
#
# Coordination Sequence:
#
# PCOD9527559 Si02
#       6
#    16  16  16  16  16  16
#     4   9  17  30  49  74 100 126 157 197 242 286
#     4  11  19  33  52  72  95 128 166 199 235 282
#     4  11  19  33  52  72  95 128 166 199 235 282
#     4   7  12  26  47  68  95 128 156 186 237 294
#     4  10  21  34  51  70  97 132 165 196 237 290
#     4   9  17  30  49  74 100 126 157 197 242 286
#
# _framework density 20.880137000000001
#
# number of rings (size 3 to 8) (size 9 to 14) (size 15 to 20)
#    0.000    2.500    1.667    6.000    0.000    0.000 
#    0.000    6.667    0.000    4.000    0.000    5.833 
#    0.000    0.000    0.000    0.000    0.000    0.000 
#
# Total GULP energy -267272.603345 kJ/mol
# GULP energy per Si atom -5568.179236 kJ/mol
# Density = 2.083261 g / cm^3
# Si number density = 20.880137 Si / 1000 Ang^3
#
#
#
# Elastic Constant Matrix: (Units=GPa)
#
#
# Indices 1 2 3 4 5 6 
#
# 1 208.5826 28.3791 37.4654 0.0000 0.0000 0.0000
# 2 28.3791 64.3800 13.4776 0.0000 0.0000 0.0000
# 3 37.4654 13.4776 79.3887 0.0000 0.0000 0.0000
# 4 0.0000 0.0000 0.0000 -10.1240 0.0000 0.0000
# 5 0.0000 0.0000 0.0000 0.0000 25.8297 0.0000
# 6 0.0000 0.0000 0.0000 0.0000 0.0000 16.2586
#
#
#
# Elastic Compliance Matrix: (Units=1/GPa)
#
#
# Indices 1 2 3 4 5 6 
#
# 1 0.005462 -0.001937 -0.002249 0.000000 0.000000 0.000000
# 2 -0.001937 0.016792 -0.001937 0.000000 0.000000 0.000000
# 3 -0.002249 -0.001937 0.013986 0.000000 0.000000 0.000000
# 4 0.000000 0.000000 0.000000 -0.098775 0.000000 0.000000
# 5 0.000000 0.000000 0.000000 0.000000 0.038715 0.000000
# 6 0.000000 0.000000 0.000000 0.000000 0.000000 0.061506
#
#
# Mechanical properties :
#
#
# Convention : Reuss Voigt Hill
#
# Bulk Modulus (GPa) = 41.67446 56.77728 49.22587
# Shear Modulus (GPa) = 86.31225 24.59479 55.45352
#
# Velocity S-wave (km/s) = 6.43636 3.43578 5.15904
# Velocity P-wave (km/s) = 8.67398 6.55671 7.68858
#
# Compressibility (1/GPa) = 0.02399551
#
# Stress axis : x y z
#
# Youngs Moduli (GPa) = 183.09365 59.55229 71.49875
#
# Poissons Ratio (x) = 0.11534 0.16078
# Poissons Ratio (y) = 0.35461 0.13847
# Poissons Ratio (z) = 0.41172 0.11534
#
# Static dielectric constant tensor:
#      x y z
#    x 1.821190 0.000000 0.000000 
#    y 0.000000 1.751860 0.000000 
#    z 0.000000 0.000000 1.749850 
# 
# From -- ./inp_files/40711.got.cif
#   From: 2010.05.17/outbox.cif.g08.bks.cpg/sg72_21_cif.got.tgz:40711.got - 2010.06.03 17:03:01.
