data_PCOD9527176
_publ_section_title
;
Structure prediction by ZEFSAII (Michael W. Deem and Ramdas Pophale) SiO2 
 PCOD9527176
Probable space group: I B A M
;
_chemical_formula_sum "Si O2"
_cell_formula_units_Z 100
_cell_length_a 18.271543
_cell_length_b 14.839579
_cell_length_c 20.526438
_cell_angle_alpha 90.000000
_cell_angle_beta 90.000000
_cell_angle_gamma 90.000000
_cell_volume 5565.579571
_symmetry_space_group_name_H-M "I B A M"
_symmetry_group_IT_number 72
_symmetry_cell_setting 'orthorhombic'
loop_
_space_group_symop_operation_xyz
x,y,z
-x,-y,z
x,-y,1/2-z
-x,y,1/2-z
-x,-y,-z
x,y,-z
-x,y,1/2+z
x,-y,1/2+z
1/2+x,1/2+y,1/2+z
1/2-x,1/2-y,1/2+z
1/2+x,1/2-y,-z
1/2-x,1/2+y,-z
1/2-x,1/2-y,1/2-z
1/2+x,1/2+y,1/2-z
1/2-x,1/2+y,z
1/2+x,1/2-y,z
loop_
_atom_site_type_symbol
_atom_site_label
_atom_site_fract_x
_atom_site_fract_y
_atom_site_fract_z
Si Si1 0.000000 0.500000 0.250000
Si Si2 0.434483 0.880729 0.862603
Si Si3 0.407880 0.683504 0.181863
Si Si4 0.183840 0.989095 0.673536
Si Si5 0.815717 0.506536 0.424556
Si Si6 0.075537 0.846863 0.166415
Si Si7 0.911822 0.680395 0.423487
O O1 0.048642 0.563106 0.296867
O O2 0.400649 0.783431 0.846134
O O3 0.381258 0.938007 0.907916
O O4 0.512900 0.862041 0.895828
O O5 0.346595 0.611610 0.163009
O O6 0.410028 0.688350 0.260303
O O7 0.487730 0.646071 0.160592
O O8 0.204197 0.000000 0.750000
O O9 0.250322 0.008958 0.625662
O O10 0.118095 0.059550 0.660767
O O11 0.793580 0.497104 0.500000
O O12 0.848780 0.606433 0.414566
O O13 0.101955 0.771942 0.115710
O O14 0.920323 0.698074 0.500000
#
# Coordination Sequence:
#
# PCOD9527176 Si02
#       7
#     4  16  16  16  16  16  16
#     4  12  20  32  62  96 118 136 184 248 280 336
#     4  11  21  35  60  87 116 145 186 235 289 337
#     4   9  19  36  60  87 112 142 183 244 290 336
#     4  10  22  38  58  82 113 153 194 234 285 340
#     4  11  24  39  55  79 120 158 189 230 283 347
#     4   9  18  36  60  85 110 142 189 239 290 337
#     4  10  20  37  58  82 112 150 192 233 283 343
#
# _framework density 17.967580999999999
#
# number of rings (size 3 to 8) (size 9 to 14) (size 15 to 20)
#    0.000    1.920    1.600    2.880    1.120    5.120 
#    0.000    8.800    0.000    4.800    0.000    0.000 
#    0.000    0.000    0.000    0.000    0.000    0.000 
#
# Total GULP energy -279149.930267 kJ/mol
# GULP energy per Si atom -5582.998605 kJ/mol
# Density = 1.792669 g / cm^3
# Si number density = 17.967581 Si / 1000 Ang^3
#
#
#
# Elastic Constant Matrix: (Units=GPa)
#
#
# Indices 1 2 3 4 5 6 
#
# 1 28.3725 22.5613 33.1472 0.0000 0.0000 0.0000
# 2 22.5613 92.2950 50.7451 0.0000 0.0000 0.0000
# 3 33.1472 50.7451 79.0020 0.0000 0.0000 0.0000
# 4 0.0000 0.0000 0.0000 17.2562 0.0000 0.0000
# 5 0.0000 0.0000 0.0000 0.0000 9.5850 0.0000
# 6 0.0000 0.0000 0.0000 0.0000 0.0000 5.2097
#
#
#
# Elastic Compliance Matrix: (Units=1/GPa)
#
#
# Indices 1 2 3 4 5 6 
#
# 1 0.069263 -0.001473 -0.028114 0.000000 0.000000 0.000000
# 2 -0.001473 0.016782 -0.010161 0.000000 0.000000 0.000000
# 3 -0.028114 -0.010161 0.030981 0.000000 0.000000 0.000000
# 4 0.000000 0.000000 0.000000 0.057950 0.000000 0.000000
# 5 0.000000 0.000000 0.000000 0.000000 0.104329 0.000000
# 6 0.000000 0.000000 0.000000 0.000000 0.000000 0.191950
#
#
# Mechanical properties :
#
#
# Convention : Reuss Voigt Hill
#
# Bulk Modulus (GPa) = 26.64730 45.84183 36.24457
# Shear Modulus (GPa) = 8.87687 12.62457 10.75072
#
# Velocity S-wave (km/s) = 2.22513 2.65359 2.44875
# Velocity P-wave (km/s) = 4.63299 5.91251 5.31142
#
# Compressibility (1/GPa) = 0.03752725
#
# Stress axis : x y z
#
# Youngs Moduli (GPa) = 14.43779 59.58854 32.27804
#
# Poissons Ratio (x) = 0.08779 0.90748
# Poissons Ratio (y) = 0.02127 0.32798
# Poissons Ratio (z) = 0.40591 0.60549
#
# Static dielectric constant tensor:
#      x y z
#    x 1.602290 0.000000 0.000000 
#    y 0.000000 1.605100 0.000000 
#    z 0.000000 0.000000 1.592690 
# 
# From -- ./inp_files/39085.got.cif
#   From: 2010.05.17/outbox.cif.g08.bks.cpg/sg72_20_cif.got.tgz:39085.got - 2010.06.03 17:03:01.
