data_PCOD9527654
_publ_section_title
;
Structure prediction by ZEFSAII (Michael W. Deem and Ramdas Pophale) SiO2 
 PCOD9527654
Probable space group: I B A M
;
_chemical_formula_sum "Si O2"
_cell_formula_units_Z 88
_cell_length_a 9.107155
_cell_length_b 26.238813
_cell_length_c 19.440932
_cell_angle_alpha 90.000000
_cell_angle_beta 90.000000
_cell_angle_gamma 90.000000
_cell_volume 4645.623327
_symmetry_space_group_name_H-M "I B A M"
_symmetry_group_IT_number 72
_symmetry_cell_setting 'orthorhombic'
loop_
_space_group_symop_operation_xyz
x,y,z
-x,-y,z
x,-y,1/2-z
-x,y,1/2-z
-x,-y,-z
x,y,-z
-x,y,1/2+z
x,-y,1/2+z
1/2+x,1/2+y,1/2+z
1/2-x,1/2-y,1/2+z
1/2+x,1/2-y,-z
1/2-x,1/2+y,-z
1/2-x,1/2-y,1/2-z
1/2+x,1/2+y,1/2-z
1/2-x,1/2+y,z
1/2+x,1/2-y,z
loop_
_atom_site_type_symbol
_atom_site_label
_atom_site_fract_x
_atom_site_fract_y
_atom_site_fract_z
Si Si1 0.045695 0.942284 0.079549
Si Si2 0.724419 0.680261 0.803156
Si Si3 0.559219 0.943226 0.176083
Si Si4 0.842278 0.610158 0.080159
Si Si5 0.000000 0.255095 0.750000
Si Si6 0.123807 0.911092 0.701734
O O1 0.220355 0.934708 0.085971
O O2 0.962093 0.903722 0.130312
O O3 0.006867 0.932852 0.000000
O O4 0.000000 0.000000 0.096740
O O5 0.767852 0.654319 0.874709
O O6 0.869960 0.710581 0.780177
O O7 0.585721 0.718374 0.803545
O O8 0.681159 0.637448 0.745713
O O9 0.500000 0.924392 0.250000
O O10 0.491002 0.907872 0.117160
O O11 0.733259 0.942970 0.182993
O O12 0.500000 0.000000 0.166069
O O13 0.862207 0.622144 0.000000
O O14 0.000000 0.936185 0.750000
#
# Coordination Sequence:
#
# PCOD9527654 Si02
#       6
#    16  16  16  16   8  16
#     4  10  21  36  55  85 123 166 210 249 295 351
#     4  11  20  40  58  95 108 156 194 253 307 381
#     4  11  22  36  56  89 126 164 210 248 288 345
#     4  11  22  40  60  84 126 166 198 250 308 364
#     4  10  22  36  68  82 120 138 198 252 324 366
#     4  12  21  37  63  86 121 157 214 250 298 361
#
# _framework density 18.942561000000001
#
# number of rings (size 3 to 8) (size 9 to 14) (size 15 to 20)
#    0.000    1.091    4.545    2.182    0.000    2.909 
#    0.000    0.909    0.000    4.364    0.000    0.000 
#    0.000    0.000    0.000    0.000    0.000    0.000 
#
# Total GULP energy -245486.047093 kJ/mol
# GULP energy per Si atom -5579.228343 kJ/mol
# Density = 1.889945 g / cm^3
# Si number density = 18.942561 Si / 1000 Ang^3
#
#
#
# Elastic Constant Matrix: (Units=GPa)
#
#
# Indices 1 2 3 4 5 6 
#
# 1 149.2339 37.3749 54.0024 0.0000 0.0000 0.0000
# 2 37.3749 68.4351 47.9268 0.0000 0.0000 0.0000
# 3 54.0024 47.9268 139.1714 -0.0001 0.0000 0.0000
# 4 0.0000 0.0000 -0.0001 12.7960 0.0000 0.0000
# 5 0.0000 0.0000 0.0000 0.0000 30.2991 0.0000
# 6 0.0000 0.0000 0.0000 0.0000 0.0000 29.3865
#
#
#
# Elastic Compliance Matrix: (Units=1/GPa)
#
#
# Indices 1 2 3 4 5 6 
#
# 1 0.008231 -0.002976 -0.002169 0.000000 0.000000 0.000000
# 2 -0.002976 0.020333 -0.005847 0.000000 0.000000 0.000000
# 3 -0.002169 -0.005847 0.010041 0.000000 0.000000 0.000000
# 4 0.000000 0.000000 0.000000 0.078150 0.000000 0.000000
# 5 0.000000 0.000000 0.000000 0.000000 0.033004 0.000000
# 6 0.000000 0.000000 0.000000 0.000000 0.000000 0.034029
#
#
# Mechanical properties :
#
#
# Convention : Reuss Voigt Hill
#
# Bulk Modulus (GPa) = 60.16978 70.60540 65.38759
# Shear Modulus (GPa) = 23.66165 28.99874 26.33020
#
# Velocity S-wave (km/s) = 3.53813 3.91689 3.73232
# Velocity P-wave (km/s) = 6.96595 7.60331 7.29160
#
# Compressibility (1/GPa) = 0.01661964
#
# Stress axis : x y z
#
# Youngs Moduli (GPa) = 121.48939 49.18163 99.59570
#
# Poissons Ratio (x) = 0.14638 0.21602
# Poissons Ratio (y) = 0.36160 0.58235
# Poissons Ratio (z) = 0.26350 0.28757
#
# Static dielectric constant tensor:
#      x y z
#    x 1.694880 0.000000 0.000000 
#    y 0.000000 1.698060 0.000000 
#    z 0.000000 0.000000 1.661500 
# 
# From -- ./inp_files/28385.got.cif
#   From: 2010.05.17/outbox.cif.g08.bks.cpg/sg72_15_cif.got.tgz:28385.got - 2010.06.03 17:03:01.
