data_PCOD9527835
_publ_section_title
;
Structure prediction by ZEFSAII (Michael W. Deem and Ramdas Pophale) SiO2 
 PCOD9527835
Probable space group: I B A M
;
_chemical_formula_sum "Si O2"
_cell_formula_units_Z 64
_cell_length_a 5.271714
_cell_length_b 14.214493
_cell_length_c 36.799384
_cell_angle_alpha 90.000000
_cell_angle_beta 90.000000
_cell_angle_gamma 90.000000
_cell_volume 2757.552337
_symmetry_space_group_name_H-M "I B A M"
_symmetry_group_IT_number 72
_symmetry_cell_setting 'orthorhombic'
loop_
_space_group_symop_operation_xyz
x,y,z
-x,-y,z
x,-y,1/2-z
-x,y,1/2-z
-x,-y,-z
x,y,-z
-x,y,1/2+z
x,-y,1/2+z
1/2+x,1/2+y,1/2+z
1/2-x,1/2-y,1/2+z
1/2+x,1/2-y,-z
1/2-x,1/2+y,-z
1/2-x,1/2-y,1/2-z
1/2+x,1/2+y,1/2-z
1/2-x,1/2+y,z
1/2+x,1/2-y,z
loop_
_atom_site_type_symbol
_atom_site_label
_atom_site_fract_x
_atom_site_fract_y
_atom_site_fract_z
Si Si1 0.011224 0.386313 0.083125
Si Si2 0.745820 0.105070 0.233736
Si Si3 0.508831 0.385431 0.041050
Si Si4 0.106944 0.309419 0.162859
O O1 0.229930 0.358674 0.054683
O O2 0.096217 0.345513 0.121723
O O3 0.000000 0.500000 0.086066
O O4 0.733841 0.357411 0.068540
O O5 0.500000 0.153447 0.250000
O O6 0.700802 0.110286 0.190798
O O7 0.000000 0.147005 0.250000
O O8 0.746462 0.000000 0.250000
O O9 0.500000 0.500000 0.040539
O O10 0.561371 0.353720 0.000000
O O11 0.322590 0.229815 0.169030
#
# Coordination Sequence:
#
# PCOD9527835 Si02
#       4
#    16  16  16  16
#     4  10  21  37  62  93 123 171 213 259 314 373
#     4  10  23  43  67  94 121 165 206 265 308 378
#     4   9  17  33  59  94 127 160 214 272 311 352
#     4  12  26  43  65  94 131 169 205 260 321 382
#
# _framework density 23.208988000000002
#
# number of rings (size 3 to 8) (size 9 to 14) (size 15 to 20)
#    0.000    1.750    0.000    3.750    3.500    6.000 
#    9.000    0.000    0.000   15.000    0.000    0.000 
#    0.000    0.000    0.000    0.000    0.000    0.000 
#
# Total GULP energy -178803.328273 kJ/mol
# GULP energy per Si atom -5587.604009 kJ/mol
# Density = 2.315616 g / cm^3
# Si number density = 23.208988 Si / 1000 Ang^3
#
#
#
# Elastic Constant Matrix: (Units=GPa)
#
#
# Indices 1 2 3 4 5 6 
#
# 1 191.4786 5.0499 44.0066 0.0000 0.0000 0.0000
# 2 5.0499 98.3938 22.1740 0.0000 0.0000 0.0000
# 3 44.0066 22.1740 169.6682 0.0000 0.0000 0.0000
# 4 0.0000 0.0000 0.0000 29.6992 0.0000 0.0000
# 5 0.0000 0.0000 0.0000 0.0000 41.5043 0.0000
# 6 0.0000 0.0000 0.0000 0.0000 0.0000 -2.8571
#
#
#
# Elastic Compliance Matrix: (Units=1/GPa)
#
#
# Indices 1 2 3 4 5 6 
#
# 1 0.005554 0.000041 -0.001446 0.000000 0.000000 0.000000
# 2 0.000041 0.010472 -0.001379 0.000000 0.000000 0.000000
# 3 -0.001446 -0.001379 0.006449 0.000000 0.000000 0.000000
# 4 0.000000 0.000000 0.000000 0.033671 0.000000 0.000000
# 5 0.000000 0.000000 0.000000 0.000000 0.024094 0.000000
# 6 0.000000 0.000000 0.000000 0.000000 0.000000 -0.350001
#
#
# Mechanical properties :
#
#
# Convention : Reuss Voigt Hill
#
# Bulk Modulus (GPa) = 59.14909 66.88909 63.01909
# Shear Modulus (GPa) = -19.33807 39.55662 10.10927
#
# Velocity S-wave (km/s) = -2.88968 4.13288 2.08931
# Velocity P-wave (km/s) = 3.79567 7.18729 5.74736
#
# Compressibility (1/GPa) = 0.01690643
#
# Stress axis : x y z
#
# Youngs Moduli (GPa) = 180.05948 95.49318 155.06061
#
# Poissons Ratio (x) = -0.00389 0.22419
# Poissons Ratio (y) = -0.00734 0.21385
# Poissons Ratio (z) = 0.26033 0.13170
#
# Static dielectric constant tensor:
#      x y z
#    x 1.812060 0.000000 0.000000 
#    y 0.000000 1.994000 0.000000 
#    z 0.000000 0.000000 1.889040 
# 
# From -- ./inp_files/50150.got.cif
#   From: 2010.05.17/outbox.cif.g08.bks.cpg/sg72_26_cif.got.tgz:50150.got - 2010.06.03 17:03:01.
