data_PCOD9527838
_publ_section_title
;
Structure prediction by ZEFSAII (Michael W. Deem and Ramdas Pophale) SiO2 
 PCOD9527838
Probable space group: I B A M
;
_chemical_formula_sum "Si O2"
_cell_formula_units_Z 88
_cell_length_a 18.472161
_cell_length_b 10.100417
_cell_length_c 22.897741
_cell_angle_alpha 90.000000
_cell_angle_beta 90.000000
_cell_angle_gamma 90.000000
_cell_volume 4272.181038
_symmetry_space_group_name_H-M "I B A M"
_symmetry_group_IT_number 72
_symmetry_cell_setting 'orthorhombic'
loop_
_space_group_symop_operation_xyz
x,y,z
-x,-y,z
x,-y,1/2-z
-x,y,1/2-z
-x,-y,-z
x,y,-z
-x,y,1/2+z
x,-y,1/2+z
1/2+x,1/2+y,1/2+z
1/2-x,1/2-y,1/2+z
1/2+x,1/2-y,-z
1/2-x,1/2+y,-z
1/2-x,1/2-y,1/2-z
1/2+x,1/2+y,1/2-z
1/2-x,1/2+y,z
1/2+x,1/2-y,z
loop_
_atom_site_type_symbol
_atom_site_label
_atom_site_fract_x
_atom_site_fract_y
_atom_site_fract_z
Si Si1 0.268902 0.876075 0.000000
Si Si2 0.182476 0.503462 0.878139
Si Si3 0.917346 0.760971 0.622548
Si Si4 0.338831 0.490362 0.319391
Si Si5 0.393445 0.301492 0.500000
Si Si6 0.920673 0.732536 0.131669
Si Si7 0.097756 0.886498 0.000000
O O1 0.294058 0.953421 0.057646
O O2 0.307537 0.732276 0.000000
O O3 0.183609 0.862328 0.000000
O O4 0.135755 0.636365 0.881622
O O5 0.256795 0.520795 0.842780
O O6 0.130334 0.390170 0.851514
O O7 0.876378 0.877345 0.656402
O O8 0.931688 0.820877 0.558317
O O9 0.995366 0.724106 0.649227
O O10 0.339174 0.500000 0.250000
O O11 0.384401 0.365903 0.343705
O O12 0.419090 0.238488 0.560694
O O13 0.411826 0.455748 0.500000
#
# Coordination Sequence:
#
# PCOD9527838 Si02
#       7
#     8  16  16  16   8  16   8
#     4  10  21  37  63  98 135 169 208 260 314 385
#     4  11  24  44  68  98 134 171 214 263 322 389
#     4  12  25  40  69 100 134 173 209 265 325 387
#     4  12  27  46  68  93 125 170 227 279 319 372
#     4  10  21  37  63  96 136 166 209 261 311 389
#     4  11  24  44  67  99 136 169 211 263 328 391
#     4  12  22  34  65 102 134 166 214 256 317 388
#
# _framework density 20.598378
#
# number of rings (size 3 to 8) (size 9 to 14) (size 15 to 20)
#    0.000    0.727    3.636    3.273    5.091    5.091 
#    0.000    3.636    0.000    3.273    0.000    0.000 
#    0.000    0.000    0.000    0.000    0.000    0.000 
#
# Total GULP energy -246180.537668 kJ/mol
# GULP energy per Si atom -5595.012220 kJ/mol
# Density = 2.055149 g / cm^3
# Si number density = 20.598378 Si / 1000 Ang^3
#
#
#
# Elastic Constant Matrix: (Units=GPa)
#
#
# Indices 1 2 3 4 5 6 
#
# 1 123.7295 4.7227 15.3318 0.0000 0.0000 0.0000
# 2 4.7227 55.9688 18.8140 0.0000 0.0000 0.0000
# 3 15.3318 18.8140 88.5822 0.0000 0.0000 0.0000
# 4 0.0000 0.0000 0.0000 -5.6539 0.0000 0.0000
# 5 0.0000 0.0000 0.0000 0.0000 0.5388 0.0000
# 6 0.0000 0.0000 0.0000 0.0000 0.0000 7.1468
#
#
#
# Elastic Compliance Matrix: (Units=1/GPa)
#
#
# Indices 1 2 3 4 5 6 
#
# 1 0.008262 -0.000233 -0.001381 0.000000 0.000000 0.000000
# 2 -0.000233 0.019247 -0.004048 0.000000 0.000000 0.000000
# 3 -0.001381 -0.004048 0.012388 0.000000 0.000000 0.000000
# 4 0.000000 0.000000 0.000000 -0.176870 0.000000 0.000000
# 5 0.000000 0.000000 0.000000 0.000000 1.855920 0.000000
# 6 0.000000 0.000000 0.000000 0.000000 0.000000 0.139924
#
#
# Mechanical properties :
#
#
# Convention : Reuss Voigt Hill
#
# Bulk Modulus (GPa) = 34.99610 38.44639 36.72124
# Shear Modulus (GPa) = 2.65997 15.70048 9.18023
#
# Velocity S-wave (km/s) = 1.13761 2.76383 2.11340
# Velocity P-wave (km/s) = 4.33038 5.37497 4.88070
#
# Compressibility (1/GPa) = 0.02857461
#
# Stress axis : x y z
#
# Youngs Moduli (GPa) = 121.03448 51.95517 80.72614
#
# Poissons Ratio (x) = 0.01211 0.11144
# Poissons Ratio (y) = 0.02821 0.32675
# Poissons Ratio (z) = 0.16709 0.21029
#
# Static dielectric constant tensor:
#      x y z
#    x 1.743620 0.000000 0.000000 
#    y 0.000000 1.710980 0.000000 
#    z 0.000000 0.000000 1.684010 
# 
# From -- ./inp_files/45295.got.cif
#   From: 2010.05.17/outbox.cif.g08.bks.cpg/sg72_23_cif.got.tgz:45295.got - 2010.06.03 17:03:01.
