data_PCOD9527291
_publ_section_title
;
Structure prediction by ZEFSAII (Michael W. Deem and Ramdas Pophale) SiO2 
 PCOD9527291
Probable space group: I B A M
;
_chemical_formula_sum "Si O2"
_cell_formula_units_Z 104
_cell_length_a 25.918918
_cell_length_b 8.897674
_cell_length_c 23.415144
_cell_angle_alpha 90.000000
_cell_angle_beta 90.000000
_cell_angle_gamma 90.000000
_cell_volume 5399.955618
_symmetry_space_group_name_H-M "I B A M"
_symmetry_group_IT_number 72
_symmetry_cell_setting 'orthorhombic'
loop_
_space_group_symop_operation_xyz
x,y,z
-x,-y,z
x,-y,1/2-z
-x,y,1/2-z
-x,-y,-z
x,y,-z
-x,y,1/2+z
x,-y,1/2+z
1/2+x,1/2+y,1/2+z
1/2-x,1/2-y,1/2+z
1/2+x,1/2-y,-z
1/2-x,1/2+y,-z
1/2-x,1/2-y,1/2-z
1/2+x,1/2+y,1/2-z
1/2-x,1/2+y,z
1/2+x,1/2-y,z
loop_
_atom_site_type_symbol
_atom_site_label
_atom_site_fract_x
_atom_site_fract_y
_atom_site_fract_z
Si Si1 0.062948 0.329019 0.146932
Si Si2 0.318596 0.118016 0.837475
Si Si3 0.271670 0.428213 0.812944
Si Si4 0.883899 0.970861 0.181167
Si Si5 0.532814 0.642726 0.895107
Si Si6 0.098460 0.500000 0.250000
Si Si7 0.102304 0.404641 0.434748
O O1 0.104103 0.196758 0.159391
O O2 0.062862 0.413565 0.206481
O O3 0.078012 0.450517 0.098379
O O4 0.009825 0.247099 0.134293
O O5 0.281720 0.251721 0.816979
O O6 0.362741 0.097476 0.789452
O O7 0.348163 0.140361 0.896753
O O8 0.281671 0.973999 0.842039
O O9 0.267745 0.500000 0.750000
O O10 0.325625 0.491612 0.836918
O O11 0.887592 0.000000 0.250000
O O12 0.926409 0.074477 0.150065
O O13 0.500000 0.500000 0.919745
O O14 0.564436 0.760024 0.933483
O O15 0.113998 0.443166 0.500000
#
# Coordination Sequence:
#
# PCOD9527291 Si02
#       7
#    16  16  16  16  16   8  16
#     4  10  23  37  65  93 127 169 210 253 324 383
#     4  11  23  38  63  95 124 170 204 255 321 376
#     4  11  21  35  66  94 130 162 199 254 313 384
#     4  10  21  39  61  95 137 167 201 253 315 390
#     4  10  22  43  63  94 122 170 214 260 321 380
#     4  10  20  38  57  96 136 158 207 248 318 386
#     4  11  25  47  64  87 127 165 218 278 312 370
#
# _framework density 19.259418
#
# number of rings (size 3 to 8) (size 9 to 14) (size 15 to 20)
#    0.000    1.538    2.308    2.769    6.462    4.308 
#    2.769    3.077    0.000    0.000    0.000    0.000 
#    0.000    0.000    0.000    0.000    0.000    0.000 
#
# Total GULP energy -290086.118094 kJ/mol
# GULP energy per Si atom -5578.579194 kJ/mol
# Density = 1.921558 g / cm^3
# Si number density = 19.259418 Si / 1000 Ang^3
#
#
#
# Elastic Constant Matrix: (Units=GPa)
#
#
# Indices 1 2 3 4 5 6 
#
# 1 74.1019 28.3255 27.9545 0.0000 0.0000 0.0000
# 2 28.3255 109.8922 45.9205 0.0000 0.0000 0.0000
# 3 27.9545 45.9205 109.2131 0.0000 0.0000 0.0000
# 4 0.0000 0.0000 0.0000 10.8868 0.0000 0.0000
# 5 0.0000 0.0000 0.0000 0.0000 -20.2331 0.0000
# 6 0.0000 0.0000 0.0000 0.0000 0.0000 4.9158
#
#
#
# Elastic Compliance Matrix: (Units=1/GPa)
#
#
# Indices 1 2 3 4 5 6 
#
# 1 0.015646 -0.002862 -0.002801 0.000000 0.000000 0.000000
# 2 -0.002862 0.011563 -0.004129 0.000000 0.000000 0.000000
# 3 -0.002801 -0.004129 0.011610 0.000000 0.000000 0.000000
# 4 0.000000 0.000000 0.000000 0.091855 0.000000 0.000000
# 5 0.000000 0.000000 0.000000 0.000000 -0.049424 0.000000
# 6 0.000000 0.000000 0.000000 0.000000 0.000000 0.203427
#
#
# Mechanical properties :
#
#
# Convention : Reuss Voigt Hill
#
# Bulk Modulus (GPa) = 51.99406 55.28978 53.64192
# Shear Modulus (GPa) = 16.09411 11.84767 13.97089
#
# Velocity S-wave (km/s) = 2.89389 2.48294 2.69626
# Velocity P-wave (km/s) = 6.18235 6.08196 6.13236
#
# Compressibility (1/GPa) = 0.01923297
#
# Stress axis : x y z
#
# Youngs Moduli (GPa) = 63.91502 86.48210 86.13526
#
# Poissons Ratio (x) = 0.24753 0.24129
# Poissons Ratio (y) = 0.18294 0.35568
# Poissons Ratio (z) = 0.17904 0.35711
#
# Static dielectric constant tensor:
#      x y z
#    x 1.676360 0.000000 0.000000 
#    y 0.000000 0.432220 0.000000 
#    z 0.000000 0.000000 1.637500 
# 
# From -- ./inp_files/45948.got.cif
#   From: 2010.05.17/outbox.cif.g08.bks.cpg/sg72_23_cif.got.tgz:45948.got - 2010.06.03 17:03:01.
