data_PCOD9527828
_publ_section_title
;
Structure prediction by ZEFSAII (Michael W. Deem and Ramdas Pophale) SiO2 
 PCOD9527828
Probable space group: I B A M
;
_chemical_formula_sum "Si O2"
_cell_formula_units_Z 104
_cell_length_a 9.272927
_cell_length_b 18.487840
_cell_length_c 27.897390
_cell_angle_alpha 90.000000
_cell_angle_beta 90.000000
_cell_angle_gamma 90.000000
_cell_volume 4782.627852
_symmetry_space_group_name_H-M "I B A M"
_symmetry_group_IT_number 72
_symmetry_cell_setting 'orthorhombic'
loop_
_space_group_symop_operation_xyz
x,y,z
-x,-y,z
x,-y,1/2-z
-x,y,1/2-z
-x,-y,-z
x,y,-z
-x,y,1/2+z
x,-y,1/2+z
1/2+x,1/2+y,1/2+z
1/2-x,1/2-y,1/2+z
1/2+x,1/2-y,-z
1/2-x,1/2+y,-z
1/2-x,1/2-y,1/2-z
1/2+x,1/2+y,1/2-z
1/2-x,1/2+y,z
1/2+x,1/2-y,z
loop_
_atom_site_type_symbol
_atom_site_label
_atom_site_fract_x
_atom_site_fract_y
_atom_site_fract_z
Si Si1 0.500000 0.500000 0.885372
Si Si2 0.453194 0.887589 0.944504
Si Si3 0.686774 0.625202 0.114104
Si Si4 0.752362 0.899309 0.102528
Si Si5 0.374329 0.805158 0.804305
Si Si6 0.201488 0.661823 0.202030
Si Si7 0.947966 0.213075 0.443604
O O1 0.410578 0.436082 0.860608
O O2 0.377195 0.545121 0.913031
O O3 0.303689 0.911043 0.920918
O O4 0.594582 0.914861 0.917293
O O5 0.451255 0.799603 0.940587
O O6 0.461283 0.906869 0.000000
O O7 0.780525 0.667260 0.152230
O O8 0.582733 0.677214 0.083739
O O9 0.745622 0.894115 0.160603
O O10 0.807895 0.822409 0.081509
O O11 0.324015 0.723211 0.795533
O O12 0.333275 0.853711 0.757756
O O13 0.544483 0.807820 0.814414
O O14 0.949314 0.194039 0.500000
#
# Coordination Sequence:
#
# PCOD9527828 Si02
#       7
#     8  16  16  16  16  16  16
#     4  10  28  44  58  78 116 168 216 244 286 352
#     4  11  21  36  64  95 117 147 197 253 310 368
#     4  11  22  41  60  85 124 164 199 248 295 348
#     4  11  22  41  60  85 124 164 199 248 295 348
#     4  10  21  37  63  99 129 153 188 241 307 369
#     4  10  21  37  63  99 129 153 188 241 307 369
#     4  10  21  37  61  95 127 153 190 243 312 371
#
# _framework density 21.745369
#
# number of rings (size 3 to 8) (size 9 to 14) (size 15 to 20)
#    0.000    1.538    1.538    3.692    4.308    3.077 
#    0.000   16.154    0.000    1.846    0.000    0.000 
#    0.000    0.000    0.000    0.000    0.000    0.000 
#
# Total GULP energy -290336.609641 kJ/mol
# GULP energy per Si atom -5583.396339 kJ/mol
# Density = 2.169588 g / cm^3
# Si number density = 21.745369 Si / 1000 Ang^3
#
#
#
# Elastic Constant Matrix: (Units=GPa)
#
#
# Indices 1 2 3 4 5 6 
#
# 1 119.7229 16.0027 17.4371 0.0000 0.0000 0.0000
# 2 16.0027 41.8795 -0.5029 0.0000 0.0000 0.0000
# 3 17.4371 -0.5029 107.3114 0.0000 0.0000 0.0000
# 4 0.0000 0.0000 0.0000 -2.6291 0.0000 0.0000
# 5 0.0000 0.0000 0.0000 0.0000 26.8937 0.0000
# 6 0.0000 0.0000 0.0000 0.0000 0.0000 33.5326
#
#
#
# Elastic Compliance Matrix: (Units=1/GPa)
#
#
# Indices 1 2 3 4 5 6 
#
# 1 0.009032 -0.003469 -0.001484 0.000000 0.000000 0.000000
# 2 -0.003469 0.025212 0.000682 0.000000 0.000000 0.000000
# 3 -0.001484 0.000682 0.009563 0.000000 0.000000 0.000000
# 4 0.000000 0.000000 0.000000 -0.380360 0.000000 0.000000
# 5 0.000000 0.000000 0.000000 0.000000 0.037183 0.000000
# 6 0.000000 0.000000 0.000000 0.000000 0.000000 0.029822
#
#
# Mechanical properties :
#
#
# Convention : Reuss Voigt Hill
#
# Bulk Modulus (GPa) = 28.35698 37.19861 32.77780
# Shear Modulus (GPa) = -20.06021 27.29123 3.61551
#
# Velocity S-wave (km/s) = -3.04057 3.54649 1.29084
# Velocity P-wave (km/s) = 0.86140 5.82355 4.16268
#
# Compressibility (1/GPa) = 0.03526469
#
# Stress axis : x y z
#
# Youngs Moduli (GPa) = 110.71171 39.66388 104.56977
#
# Poissons Ratio (x) = 0.13760 0.15518
# Poissons Ratio (y) = 0.38409 -0.07130
# Poissons Ratio (z) = 0.16429 -0.02705
#
# Static dielectric constant tensor:
#      x y z
#    x 1.787390 0.000000 0.000000 
#    y 0.000000 1.837200 0.000000 
#    z 0.000000 0.000000 1.797660 
# 
# From -- ./inp_files/49415.got.cif
#   From: 2010.05.17/outbox.cif.g08.bks.cpg/sg72_25_cif.got.tgz:49415.got - 2010.06.03 17:03:01.
