data_PCOD9527029
_publ_section_title
;
Structure prediction by ZEFSAII (Michael W. Deem and Ramdas Pophale) SiO2 
 PCOD9527029
Probable space group: I B A M
;
_chemical_formula_sum "Si O2"
_cell_formula_units_Z 104
_cell_length_a 11.585536
_cell_length_b 17.074589
_cell_length_c 27.927843
_cell_angle_alpha 90.000000
_cell_angle_beta 90.000000
_cell_angle_gamma 90.000000
_cell_volume 5524.637463
_symmetry_space_group_name_H-M "I B A M"
_symmetry_group_IT_number 72
_symmetry_cell_setting 'orthorhombic'
loop_
_space_group_symop_operation_xyz
x,y,z
-x,-y,z
x,-y,1/2-z
-x,y,1/2-z
-x,-y,-z
x,y,-z
-x,y,1/2+z
x,-y,1/2+z
1/2+x,1/2+y,1/2+z
1/2-x,1/2-y,1/2+z
1/2+x,1/2-y,-z
1/2-x,1/2+y,-z
1/2-x,1/2-y,1/2-z
1/2+x,1/2+y,1/2-z
1/2-x,1/2+y,z
1/2+x,1/2-y,z
loop_
_atom_site_type_symbol
_atom_site_label
_atom_site_fract_x
_atom_site_fract_y
_atom_site_fract_z
Si Si1 0.500000 0.000000 0.373058
Si Si2 0.897276 0.877847 0.445080
Si Si3 0.726226 0.732454 0.872100
Si Si4 0.668434 0.188516 0.221086
Si Si5 0.569507 0.150425 0.686901
Si Si6 0.791251 0.491271 0.944942
Si Si7 0.344712 0.664400 0.945244
O O1 0.478559 0.924680 0.340064
O O2 0.610142 0.988062 0.407405
O O3 0.874763 0.853688 0.500000
O O4 0.853015 0.813304 0.408753
O O5 0.822568 0.955807 0.437075
O O6 0.034669 0.881477 0.439913
O O7 0.766111 0.675817 0.828822
O O8 0.656325 0.802242 0.846736
O O9 0.827104 0.770487 0.904584
O O10 0.750000 0.250000 0.250000
O O11 0.636133 0.128485 0.263633
O O12 0.538585 0.206698 0.201531
O O13 0.755190 0.400538 0.940648
O O14 0.828974 0.505031 0.000000
O O15 0.341846 0.696059 0.000000
#
# Coordination Sequence:
#
# PCOD9527029 Si02
#       7
#     8  16  16  16  16  16  16
#     4  12  21  37  60  88 120 156 199 245 304 364
#     4  10  21  35  56  84 117 158 200 244 290 357
#     4  11  19  36  57  86 114 150 199 242 302 353
#     4   9  20  36  55  77 111 143 187 242 297 349
#     4  10  21  36  56  85 111 149 193 244 304 359
#     4  10  21  37  55  83 120 161 201 240 299 360
#     4  10  20  36  57  84 121 160 197 245 294 355
#
# _framework density 18.824763999999998
#
# number of rings (size 3 to 8) (size 9 to 14) (size 15 to 20)
#    0.000    1.846    1.538    3.000    0.000    3.077 
#    0.000    1.538    0.000    0.000    0.000    0.000 
#    0.000    0.000    0.000    0.000    0.000    0.000 
#
# Total GULP energy -289507.071011 kJ/mol
# GULP energy per Si atom -5567.443673 kJ/mol
# Density = 1.878192 g / cm^3
# Si number density = 18.824764 Si / 1000 Ang^3
#
#
#
# Elastic Constant Matrix: (Units=GPa)
#
#
# Indices 1 2 3 4 5 6 
#
# 1 81.9387 14.2854 56.5486 0.0000 0.0000 0.0000
# 2 14.2854 36.4665 44.1615 0.0000 0.0000 0.0000
# 3 56.5486 44.1615 141.5804 0.0000 0.0000 0.0000
# 4 0.0000 0.0000 0.0000 23.7700 0.0000 0.0000
# 5 0.0000 0.0000 0.0000 0.0000 25.2237 0.0000
# 6 0.0000 0.0000 0.0000 0.0000 0.0000 29.9878
#
#
#
# Elastic Compliance Matrix: (Units=1/GPa)
#
#
# Indices 1 2 3 4 5 6 
#
# 1 0.016990 0.002511 -0.007569 0.000000 0.000000 0.000000
# 2 0.002511 0.044440 -0.014864 0.000000 0.000000 0.000000
# 3 -0.007569 -0.014864 0.014723 0.000000 0.000000 0.000000
# 4 0.000000 0.000000 0.000000 0.042070 0.000000 0.000000
# 5 0.000000 0.000000 0.000000 0.000000 0.039645 0.000000
# 6 0.000000 0.000000 0.000000 0.000000 0.000000 0.033347
#
#
# Mechanical properties :
#
#
# Convention : Reuss Voigt Hill
#
# Bulk Modulus (GPa) = 27.54284 54.44185 40.99235
# Shear Modulus (GPa) = 20.56232 25.46230 23.01231
#
# Velocity S-wave (km/s) = 3.30858 3.68176 3.50015
# Velocity P-wave (km/s) = 5.40912 6.85980 6.17719
#
# Compressibility (1/GPa) = 0.03630708
#
# Stress axis : x y z
#
# Youngs Moduli (GPa) = 58.85714 22.50231 67.92187
#
# Poissons Ratio (x) = -0.05649 0.51411
# Poissons Ratio (y) = -0.14777 1.00962
# Poissons Ratio (z) = 0.44550 0.33448
#
# Static dielectric constant tensor:
#      x y z
#    x 1.668920 0.000000 0.000000 
#    y 0.000000 1.647670 0.000000 
#    z 0.000000 0.000000 1.665630 
# 
# From -- ./inp_files/48184.got.cif
#   From: 2010.05.17/outbox.cif.g08.bks.cpg/sg72_25_cif.got.tgz:48184.got - 2010.06.03 17:03:01.
