data_PCOD9527249
_publ_section_title
;
Structure prediction by ZEFSAII (Michael W. Deem and Ramdas Pophale) SiO2 
 PCOD9527249
Probable space group: I B A M
;
_chemical_formula_sum "Si O2"
_cell_formula_units_Z 112
_cell_length_a 14.683765
_cell_length_b 13.337070
_cell_length_c 24.587749
_cell_angle_alpha 90.000000
_cell_angle_beta 90.000000
_cell_angle_gamma 90.000000
_cell_volume 4815.225465
_symmetry_space_group_name_H-M "I B A M"
_symmetry_group_IT_number 72
_symmetry_cell_setting 'orthorhombic'
loop_
_space_group_symop_operation_xyz
x,y,z
-x,-y,z
x,-y,1/2-z
-x,y,1/2-z
-x,-y,-z
x,y,-z
-x,y,1/2+z
x,-y,1/2+z
1/2+x,1/2+y,1/2+z
1/2-x,1/2-y,1/2+z
1/2+x,1/2-y,-z
1/2-x,1/2+y,-z
1/2-x,1/2-y,1/2-z
1/2+x,1/2+y,1/2-z
1/2-x,1/2+y,z
1/2+x,1/2-y,z
loop_
_atom_site_type_symbol
_atom_site_label
_atom_site_fract_x
_atom_site_fract_y
_atom_site_fract_z
Si Si1 0.733456 0.331512 0.060165
Si Si2 0.855782 0.483399 0.102569
Si Si3 0.971302 0.663628 0.886766
Si Si4 0.598649 0.474661 0.066058
Si Si5 0.401113 0.249720 0.726414
Si Si6 0.733998 0.903583 0.212249
Si Si7 0.381678 0.693623 0.434147
O O1 0.796797 0.430323 0.056064
O O2 0.643989 0.374509 0.087136
O O3 0.797895 0.255514 0.090348
O O4 0.711768 0.292479 0.000000
O O5 0.888358 0.596074 0.088952
O O6 0.796267 0.456686 0.155888
O O7 0.945753 0.415956 0.112483
O O8 0.932050 0.693444 0.828465
O O9 0.023454 0.758829 0.913828
O O10 0.500000 0.500000 0.087268
O O11 0.644759 0.579978 0.077699
O O12 0.593841 0.462950 0.000000
O O13 0.500000 0.284648 0.750000
O O14 0.347713 0.169560 0.765491
O O15 0.326184 0.336187 0.714062
O O16 0.747035 0.000000 0.250000
O O17 0.385256 0.704586 0.500000
#
# Coordination Sequence:
#
# PCOD9527249 Si02
#       7
#    16  16  16  16  16  16  16
#     4   9  19  37  58  86 124 161 203 253 302 365
#     4  10  20  37  62  90 120 159 203 249 307 367
#     4  10  20  37  63  91 118 159 204 249 308 368
#     4   9  18  36  58  82 117 162 206 249 306 366
#     4  11  23  41  66  92 122 162 205 256 309 373
#     4  11  23  41  65  93 123 160 204 255 313 373
#     4   9  19  37  60  90 125 160 205 256 306 369
#
# _framework density 23.259554000000001
#
# number of rings (size 3 to 8) (size 9 to 14) (size 15 to 20)
#    0.000    2.143    2.857    0.000    0.000    2.286 
#   10.286    2.857    0.000    0.000    0.000    0.000 
#    0.000    0.000    0.000    0.000    0.000    0.000 
#
# Total GULP energy -311869.064876 kJ/mol
# GULP energy per Si atom -5569.090444 kJ/mol
# Density = 2.320661 g / cm^3
# Si number density = 23.259554 Si / 1000 Ang^3
#
#
#
# Elastic Constant Matrix: (Units=GPa)
#
#
# Indices 1 2 3 4 5 6 
#
# 1 149.3716 53.9294 8.7080 0.0000 0.0000 0.0000
# 2 53.9294 51.5388 7.4009 0.0000 0.0000 0.0000
# 3 8.7080 7.4009 61.9254 0.0000 0.0000 0.0000
# 4 0.0000 0.0000 0.0000 11.4973 0.0000 0.0000
# 5 0.0000 0.0000 0.0000 0.0000 34.7284 0.0000
# 6 0.0000 0.0000 0.0000 0.0000 0.0000 51.9792
#
#
#
# Elastic Compliance Matrix: (Units=1/GPa)
#
#
# Indices 1 2 3 4 5 6 
#
# 1 0.010761 -0.011236 -0.000170 0.000000 0.000000 0.000000
# 2 -0.011236 0.031473 -0.002181 0.000000 0.000000 0.000000
# 3 -0.000170 -0.002181 0.016433 0.000000 0.000000 0.000000
# 4 0.000000 0.000000 0.000000 0.086977 0.000000 0.000000
# 5 0.000000 0.000000 0.000000 0.000000 0.028795 0.000000
# 6 0.000000 0.000000 0.000000 0.000000 0.000000 0.019238
#
#
# Mechanical properties :
#
#
# Convention : Reuss Voigt Hill
#
# Bulk Modulus (GPa) = 31.75411 44.76805 38.26108
# Shear Modulus (GPa) = 21.61218 32.49415 27.05316
#
# Velocity S-wave (km/s) = 3.05154 3.74173 3.41412
# Velocity P-wave (km/s) = 5.10858 6.16087 5.65924
#
# Compressibility (1/GPa) = 0.03149198
#
# Stress axis : x y z
#
# Youngs Moduli (GPa) = 92.92542 31.77297 60.85269
#
# Poissons Ratio (x) = 0.35700 0.01037
# Poissons Ratio (y) = 1.04411 0.13275
# Poissons Ratio (z) = 0.01584 0.06931
#
# Static dielectric constant tensor:
#      x y z
#    x 1.986630 0.000000 0.000000 
#    y 0.000000 1.929700 0.000000 
#    z 0.000000 0.000000 1.891110 
# 
# From -- ./inp_files/51447.got.cif
#   From: 2010.05.17/outbox.cif.g08.bks.cpg/sg72_26_cif.got.tgz:51447.got - 2010.06.03 17:03:01.
