data_PCOD9527661
_publ_section_title
;
Structure prediction by ZEFSAII (Michael W. Deem and Ramdas Pophale) SiO2 
 PCOD9527661
Probable space group: I B A M
;
_chemical_formula_sum "Si O2"
_cell_formula_units_Z 104
_cell_length_a 20.776683
_cell_length_b 14.014941
_cell_length_c 19.544738
_cell_angle_alpha 90.000000
_cell_angle_beta 90.000000
_cell_angle_gamma 90.000000
_cell_volume 5691.114724
_symmetry_space_group_name_H-M "I B A M"
_symmetry_group_IT_number 72
_symmetry_cell_setting 'orthorhombic'
loop_
_space_group_symop_operation_xyz
x,y,z
-x,-y,z
x,-y,1/2-z
-x,y,1/2-z
-x,-y,-z
x,y,-z
-x,y,1/2+z
x,-y,1/2+z
1/2+x,1/2+y,1/2+z
1/2-x,1/2-y,1/2+z
1/2+x,1/2-y,-z
1/2-x,1/2+y,-z
1/2-x,1/2-y,1/2-z
1/2+x,1/2+y,1/2-z
1/2-x,1/2+y,z
1/2+x,1/2-y,z
loop_
_atom_site_type_symbol
_atom_site_label
_atom_site_fract_x
_atom_site_fract_y
_atom_site_fract_z
Si Si1 0.268399 0.955329 0.632301
Si Si2 0.631166 0.000000 0.750000
Si Si3 0.435127 0.806559 0.211326
Si Si4 0.236369 0.841600 0.918793
Si Si5 0.864072 0.302665 0.078525
Si Si6 0.000507 0.614279 0.582002
Si Si7 0.198100 0.218320 0.807504
O O1 0.321086 0.993031 0.685924
O O2 0.309511 0.883684 0.585115
O O3 0.216582 0.888676 0.670427
O O4 0.239340 0.046330 0.595008
O O5 0.588375 0.093775 0.755871
O O6 0.500000 0.774981 0.250000
O O7 0.450194 0.833197 0.132221
O O8 0.374541 0.735847 0.216312
O O9 0.169558 0.792549 0.893671
O O10 0.289083 0.787207 0.872825
O O11 0.244580 0.823544 0.000000
O O12 0.931117 0.343657 0.104088
O O13 0.877306 0.282202 0.000000
O O14 0.011426 0.627923 0.500000
O O15 0.000000 0.500000 0.593674
O O16 0.250000 0.250000 0.750000
#
# Coordination Sequence:
#
# PCOD9527661 Si02
#       7
#    16   8  16  16  16  16  16
#     4  11  19  35  58  82 116 155 202 246 298 356
#     4  12  21  36  56  88 115 160 198 240 307 368
#     4  12  23  36  58  89 122 158 202 243 302 367
#     4  10  21  36  60  89 119 159 205 253 305 362
#     4   9  19  34  54  83 118 153 191 239 304 365
#     4  10  21  36  56  86 121 157 191 243 310 368
#     4  11  23  39  60  88 123 165 201 254 306 363
#
# _framework density 18.274101000000002
#
# number of rings (size 3 to 8) (size 9 to 14) (size 15 to 20)
#    0.000    1.385    3.077    3.462    2.154    1.231 
#    0.000    0.000    0.000    0.923    0.000    3.231 
#    0.000    0.000    0.000    0.000    0.000    0.000 
#
# Total GULP energy -290123.158588 kJ/mol
# GULP energy per Si atom -5579.291511 kJ/mol
# Density = 1.823251 g / cm^3
# Si number density = 18.274101 Si / 1000 Ang^3
#
#
#
# Elastic Constant Matrix: (Units=GPa)
#
#
# Indices 1 2 3 4 5 6 
#
# 1 127.6238 36.2835 34.5402 0.0000 0.0000 0.0000
# 2 36.2835 70.5401 18.1349 0.0000 0.0000 0.0000
# 3 34.5402 18.1349 84.7152 0.0000 0.0000 0.0000
# 4 0.0000 0.0000 0.0000 16.2766 0.0000 0.0000
# 5 0.0000 0.0000 0.0000 0.0000 23.7561 0.0000
# 6 0.0000 0.0000 0.0000 0.0000 0.0000 32.3419
#
#
#
# Elastic Compliance Matrix: (Units=1/GPa)
#
#
# Indices 1 2 3 4 5 6 
#
# 1 0.009899 -0.004290 -0.003118 0.000000 0.000000 0.000000
# 2 -0.004290 0.016861 -0.001860 0.000000 0.000000 0.000000
# 3 -0.003118 -0.001860 0.013474 0.000000 0.000000 0.000000
# 4 0.000000 0.000000 0.000000 0.061438 0.000000 0.000000
# 5 0.000000 0.000000 0.000000 0.000000 0.042094 0.000000
# 6 0.000000 0.000000 0.000000 0.000000 0.000000 0.030920
#
#
# Mechanical properties :
#
#
# Convention : Reuss Voigt Hill
#
# Bulk Modulus (GPa) = 46.08784 51.19958 48.64371
# Shear Modulus (GPa) = 24.94330 27.40296 26.17313
#
# Velocity S-wave (km/s) = 3.69854 3.87661 3.78862
# Velocity P-wave (km/s) = 6.59651 6.93656 6.76867
#
# Compressibility (1/GPa) = 0.02169770
#
# Stress axis : x y z
#
# Youngs Moduli (GPa) = 101.02031 59.30728 74.21913
#
# Poissons Ratio (x) = 0.25444 0.23139
# Poissons Ratio (y) = 0.43340 0.13807
# Poissons Ratio (z) = 0.31494 0.11033
#
# Static dielectric constant tensor:
#      x y z
#    x 1.654350 0.000000 0.000000 
#    y 0.000000 1.616160 0.000000 
#    z 0.000000 0.000000 1.684010 
# 
# From -- ./inp_files/39055.got.cif
#   From: 2010.05.17/outbox.cif.g08.bks.cpg/sg72_20_cif.got.tgz:39055.got - 2010.06.03 17:03:01.
