data_PCOD9527074
_publ_section_title
;
Structure prediction by ZEFSAII (Michael W. Deem and Ramdas Pophale) SiO2 
 PCOD9527074
Probable space group: I B A M
;
_chemical_formula_sum "Si O2"
_cell_formula_units_Z 88
_cell_length_a 20.148869
_cell_length_b 10.252526
_cell_length_c 20.285336
_cell_angle_alpha 90.000000
_cell_angle_beta 90.000000
_cell_angle_gamma 90.000000
_cell_volume 4190.479865
_symmetry_space_group_name_H-M "I B A M"
_symmetry_group_IT_number 72
_symmetry_cell_setting 'orthorhombic'
loop_
_space_group_symop_operation_xyz
x,y,z
-x,-y,z
x,-y,1/2-z
-x,y,1/2-z
-x,-y,-z
x,y,-z
-x,y,1/2+z
x,-y,1/2+z
1/2+x,1/2+y,1/2+z
1/2-x,1/2-y,1/2+z
1/2+x,1/2-y,-z
1/2-x,1/2+y,-z
1/2-x,1/2-y,1/2-z
1/2+x,1/2+y,1/2-z
1/2-x,1/2+y,z
1/2+x,1/2-y,z
loop_
_atom_site_type_symbol
_atom_site_label
_atom_site_fract_x
_atom_site_fract_y
_atom_site_fract_z
Si Si1 0.252561 0.591256 0.157152
Si Si2 0.739262 0.337467 0.574812
Si Si3 0.500000 0.500000 0.398441
Si Si4 0.900528 0.114314 0.703393
Si Si5 0.892467 0.367726 0.211512
Si Si6 0.086910 0.755349 0.928056
O O1 0.239713 0.451254 0.124245
O O2 0.263551 0.697768 0.099792
O O3 0.321902 0.594847 0.194444
O O4 0.187799 0.628688 0.199541
O O5 0.759400 0.366181 0.500000
O O6 0.659918 0.319710 0.577825
O O7 0.442459 0.417756 0.360828
O O8 0.538706 0.379070 0.429892
O O9 0.911258 0.250206 0.739934
O O10 0.924688 0.000000 0.750000
O O11 0.911139 0.500000 0.250000
O O12 0.920698 0.334023 0.137845
O O13 0.083915 0.686738 0.000000
#
# Coordination Sequence:
#
# PCOD9527074 Si02
#       6
#    16  16   8  16  16  16
#     4  11  20  37  57  93 127 165 210 263 326 383
#     4  10  20  36  59  90 130 169 208 257 322 390
#     4  12  22  42  66  96 123 169 228 278 317 373
#     4  12  22  38  63  92 125 162 222 275 318 372
#     4  11  23  39  63  95 131 171 209 267 330 391
#     4  10  22  41  65  94 129 172 219 268 321 380
#
# _framework density 20.999983
#
# number of rings (size 3 to 8) (size 9 to 14) (size 15 to 20)
#    0.000    1.091    3.636    4.364    0.000    0.727 
#    0.000    1.818    0.000    3.273    0.000    0.000 
#    0.000    0.000    0.000    0.000    0.000    0.000 
#
# Total GULP energy -245491.042988 kJ/mol
# GULP energy per Si atom -5579.341886 kJ/mol
# Density = 2.095219 g / cm^3
# Si number density = 20.999983 Si / 1000 Ang^3
#
#
#
# Elastic Constant Matrix: (Units=GPa)
#
#
# Indices 1 2 3 4 5 6 
#
# 1 49.7415 13.7438 28.3748 0.0000 0.0000 0.0000
# 2 13.7438 105.0941 51.9193 0.0000 0.0000 0.0000
# 3 28.3748 51.9193 109.6585 0.0000 0.0000 0.0000
# 4 0.0000 0.0000 0.0000 46.8073 0.0000 0.0000
# 5 0.0000 0.0000 0.0000 0.0000 -66.6239 0.0000
# 6 0.0000 0.0000 0.0000 0.0000 0.0000 20.3132
#
#
#
# Elastic Compliance Matrix: (Units=1/GPa)
#
#
# Indices 1 2 3 4 5 6 
#
# 1 0.023586 -0.000091 -0.006060 0.000000 0.000000 0.000000
# 2 -0.000091 0.012421 -0.005857 0.000000 0.000000 0.000000
# 3 -0.006060 -0.005857 0.013461 0.000000 0.000000 0.000000
# 4 0.000000 0.000000 0.000000 0.021364 0.000000 0.000000
# 5 0.000000 0.000000 0.000000 0.000000 -0.015010 0.000000
# 6 0.000000 0.000000 0.000000 0.000000 0.000000 0.049229
#
#
# Mechanical properties :
#
#
# Convention : Reuss Voigt Hill
#
# Bulk Modulus (GPa) = 39.29094 50.28555 44.78824
# Shear Modulus (GPa) = 36.35014 11.46304 23.90659
#
# Velocity S-wave (km/s) = 4.16499 2.33890 3.37769
# Velocity P-wave (km/s) = 6.47149 5.59387 6.04862
#
# Compressibility (1/GPa) = 0.02545116
#
# Stress axis : x y z
#
# Youngs Moduli (GPa) = 42.39812 80.50986 74.29103
#
# Poissons Ratio (x) = 0.00729 0.45021
# Poissons Ratio (y) = 0.00384 0.43515
# Poissons Ratio (z) = 0.25694 0.47158
#
# Static dielectric constant tensor:
#      x y z
#    x 1.740920 0.000000 0.000000 
#    y 0.000000 1.844560 0.000000 
#    z 0.000000 0.000000 1.806650 
# 
# From -- ./inp_files/45256.got.cif
#   From: 2010.05.17/outbox.cif.g08.bks.cpg/sg72_23_cif.got.tgz:45256.got - 2010.06.03 17:03:01.
