data_PCOD9527216
_publ_section_title
;
Structure prediction by ZEFSAII (Michael W. Deem and Ramdas Pophale) SiO2 
 PCOD9527216
Probable space group: I B A M
;
_chemical_formula_sum "Si O2"
_cell_formula_units_Z 96
_cell_length_a 23.548336
_cell_length_b 7.162353
_cell_length_c 23.515898
_cell_angle_alpha 90.000000
_cell_angle_beta 90.000000
_cell_angle_gamma 90.000000
_cell_volume 3966.226513
_symmetry_space_group_name_H-M "I B A M"
_symmetry_group_IT_number 72
_symmetry_cell_setting 'orthorhombic'
loop_
_space_group_symop_operation_xyz
x,y,z
-x,-y,z
x,-y,1/2-z
-x,y,1/2-z
-x,-y,-z
x,y,-z
-x,y,1/2+z
x,-y,1/2+z
1/2+x,1/2+y,1/2+z
1/2-x,1/2-y,1/2+z
1/2+x,1/2-y,-z
1/2-x,1/2+y,-z
1/2-x,1/2-y,1/2-z
1/2+x,1/2+y,1/2-z
1/2-x,1/2+y,z
1/2+x,1/2-y,z
loop_
_atom_site_type_symbol
_atom_site_label
_atom_site_fract_x
_atom_site_fract_y
_atom_site_fract_z
Si Si1 0.095619 0.462073 0.183081
Si Si2 0.329759 0.571377 0.377767
Si Si3 0.062388 0.031982 0.817022
Si Si4 0.945481 0.720504 0.000000
Si Si5 0.643057 0.529075 0.000000
Si Si6 0.500000 0.000000 0.400628
Si Si7 0.294395 0.137563 0.376045
Si Si8 0.180482 0.381383 0.000000
O O1 0.089444 0.500000 0.250000
O O2 0.077727 0.246989 0.174400
O O3 0.160445 0.475793 0.161571
O O4 0.050992 0.560645 0.141072
O O5 0.385564 0.590255 0.340126
O O6 0.344670 0.634434 0.441801
O O7 0.318210 0.347569 0.380022
O O8 0.270176 0.648326 0.355466
O O9 0.059583 0.000000 0.750000
O O10 0.000000 0.000000 0.841918
O O11 0.080879 0.070918 0.000000
O O12 0.979311 0.662205 0.056165
O O13 0.887807 0.592714 0.000000
O O14 0.683757 0.345754 0.000000
O O15 0.293893 0.056349 0.440299
#
# Coordination Sequence:
#
# PCOD9527216 Si02
#       8
#    16  16  16   8   8   8  16   8
#     4  11  24  39  60  91 124 154 208 267 310 362
#     4  10  20  38  64  88 122 156 205 251 310 373
#     4  10  24  44  61  82 117 170 206 247 316 381
#     4   9  16  32  57  85 122 158 188 239 304 369
#     4   8  16  35  59  87 120 160 190 238 313 362
#     4  11  19  32  60  92 119 155 200 244 310 357
#     4  10  20  37  60  89 120 159 197 255 310 366
#     4   8  14  33  53  80 118 149 189 233 299 357
#
# _framework density 24.204367999999999
#
# number of rings (size 3 to 8) (size 9 to 14) (size 15 to 20)
#    0.500    1.667    1.667    1.750    4.667    2.000 
#    0.000    3.750    0.000    0.000    0.000    0.000 
#    0.000    0.000    0.000    0.000    0.000    0.000 
#
# Total GULP energy -268323.104716 kJ/mol
# GULP energy per Si atom -5590.064682 kJ/mol
# Density = 2.414928 g / cm^3
# Si number density = 24.204368 Si / 1000 Ang^3
#
#
#
# Elastic Constant Matrix: (Units=GPa)
#
#
# Indices 1 2 3 4 5 6 
#
# 1 198.4729 30.3567 82.5365 0.0000 0.0000 0.0000
# 2 30.3567 52.8738 6.7638 0.0000 0.0000 0.0000
# 3 82.5365 6.7638 131.0737 0.0000 0.0000 0.0000
# 4 0.0000 0.0000 0.0000 17.1305 0.0000 0.0000
# 5 0.0000 0.0000 0.0000 0.0000 14.3295 0.0000
# 6 0.0000 0.0000 0.0000 0.0000 0.0000 31.6985
#
#
#
# Elastic Compliance Matrix: (Units=1/GPa)
#
#
# Indices 1 2 3 4 5 6 
#
# 1 0.007489 -0.003721 -0.004524 0.000000 0.000000 0.000000
# 2 -0.003721 0.020887 0.001265 0.000000 0.000000 0.000000
# 3 -0.004524 0.001265 0.010413 0.000000 0.000000 0.000000
# 4 0.000000 0.000000 0.000000 0.058375 0.000000 0.000000
# 5 0.000000 0.000000 0.000000 0.000000 0.069786 0.000000
# 6 0.000000 0.000000 0.000000 0.000000 0.000000 0.031547
#
#
# Mechanical properties :
#
#
# Convention : Reuss Voigt Hill
#
# Bulk Modulus (GPa) = 40.27386 69.08159 54.67773
# Shear Modulus (GPa) = 22.65182 30.14926 26.40054
#
# Velocity S-wave (km/s) = 3.06250 3.53315 3.30621
# Velocity P-wave (km/s) = 5.40189 6.72660 6.10031
#
# Compressibility (1/GPa) = 0.02483000
#
# Stress axis : x y z
#
# Youngs Moduli (GPa) = 133.53311 47.87574 96.03813
#
# Poissons Ratio (x) = 0.17814 0.43444
# Poissons Ratio (y) = 0.49686 -0.12151
# Poissons Ratio (z) = 0.60406 -0.06057
#
# Static dielectric constant tensor:
#      x y z
#    x 1.947030 0.000000 0.000000 
#    y 0.000000 2.066250 0.000000 
#    z 0.000000 0.000000 1.863450 
# 
# From -- ./inp_files/45704.got.cif
#   From: 2010.05.17/outbox.cif.g08.bks.cpg/sg72_23_cif.got.tgz:45704.got - 2010.06.03 17:03:01.
