data_PCOD9527868
_publ_section_title
;
Structure prediction by ZEFSAII (Michael W. Deem and Ramdas Pophale) SiO2 
 PCOD9527868
Probable space group: I B A M
;
_chemical_formula_sum "Si O2"
_cell_formula_units_Z 104
_cell_length_a 9.011188
_cell_length_b 21.681213
_cell_length_c 28.750356
_cell_angle_alpha 90.000000
_cell_angle_beta 90.000000
_cell_angle_gamma 90.000000
_cell_volume 5617.057287
_symmetry_space_group_name_H-M "I B A M"
_symmetry_group_IT_number 72
_symmetry_cell_setting 'orthorhombic'
loop_
_space_group_symop_operation_xyz
x,y,z
-x,-y,z
x,-y,1/2-z
-x,y,1/2-z
-x,-y,-z
x,y,-z
-x,y,1/2+z
x,-y,1/2+z
1/2+x,1/2+y,1/2+z
1/2-x,1/2-y,1/2+z
1/2+x,1/2-y,-z
1/2-x,1/2+y,-z
1/2-x,1/2-y,1/2-z
1/2+x,1/2+y,1/2-z
1/2-x,1/2+y,z
1/2+x,1/2-y,z
loop_
_atom_site_type_symbol
_atom_site_label
_atom_site_fract_x
_atom_site_fract_y
_atom_site_fract_z
Si Si1 0.000000 0.500000 0.588393
Si Si2 0.636613 0.315484 0.553645
Si Si3 0.000000 0.000000 0.097487
Si Si4 0.248928 0.205294 0.684902
Si Si5 0.250997 0.586818 0.379155
Si Si6 0.745982 0.414433 0.947082
Si Si7 0.000000 0.252321 0.750000
Si Si8 0.319204 0.289835 0.402719
O O1 0.103153 0.546541 0.617492
O O2 0.112744 0.458371 0.558964
O O3 0.593247 0.320511 0.500000
O O4 0.713823 0.377760 0.572215
O O5 0.492955 0.300344 0.585668
O O6 0.751978 0.260058 0.561577
O O7 0.102753 0.044928 0.066692
O O8 0.888699 0.041114 0.127639
O O9 0.254456 0.141510 0.657536
O O10 0.378551 0.208340 0.722706
O O11 0.281890 0.260048 0.647383
O O12 0.094184 0.214532 0.711798
O O13 0.754427 0.355933 0.912825
O O14 0.734055 0.392472 0.000000
#
# Coordination Sequence:
#
# PCOD9527868 Si02
#       8
#     8  16   8  16  16  16   8  16
#     4  10  25  38  56  87 116 180 206 253 284 336
#     4  11  22  36  55  86 122 165 207 255 302 341
#     4  10  21  38  58  83 112 178 206 251 278 342
#     4  10  22  41  65  97 117 147 188 249 323 374
#     4  10  22  40  61  84 123 160 207 249 294 357
#     4  11  22  37  56  85 121 167 217 253 283 335
#     4  10  22  40  70  98 114 140 182 250 324 390
#     4  11  23  37  60  87 122 159 199 254 309 366
#
# _framework density 18.515032000000001
#
# number of rings (size 3 to 8) (size 9 to 14) (size 15 to 20)
#    0.000    1.538    1.538    3.692    6.462    3.077 
#    0.000    0.000    0.000    2.769    0.000    0.000 
#    0.000    0.000    0.000    0.000    0.000    0.000 
#
# Total GULP energy -290323.925883 kJ/mol
# GULP energy per Si atom -5583.152421 kJ/mol
# Density = 1.847289 g / cm^3
# Si number density = 18.515032 Si / 1000 Ang^3
#
#
#
# Elastic Constant Matrix: (Units=GPa)
#
#
# Indices 1 2 3 4 5 6 
#
# 1 118.2463 47.2554 31.3303 0.0000 0.0000 0.0000
# 2 47.2554 117.9947 38.7622 0.0000 0.0000 0.0000
# 3 31.3303 38.7622 91.3171 0.0000 0.0000 0.0000
# 4 0.0000 0.0000 0.0000 5.6465 0.0000 0.0000
# 5 0.0000 0.0000 0.0000 0.0000 18.2819 0.0000
# 6 0.0000 0.0000 0.0000 0.0000 0.0000 29.4189
#
#
#
# Elastic Compliance Matrix: (Units=1/GPa)
#
#
# Indices 1 2 3 4 5 6 
#
# 1 0.010401 -0.003478 -0.002092 0.000000 0.000000 0.000000
# 2 -0.003478 0.011011 -0.003481 0.000000 0.000000 0.000000
# 3 -0.002092 -0.003481 0.013146 0.000000 0.000000 0.000000
# 4 0.000000 0.000000 0.000000 0.177101 0.000000 0.000000
# 5 0.000000 0.000000 0.000000 0.000000 0.054699 0.000000
# 6 0.000000 0.000000 0.000000 0.000000 0.000000 0.033992
#
#
# Mechanical properties :
#
#
# Convention : Reuss Voigt Hill
#
# Bulk Modulus (GPa) = 60.76627 62.47267 61.61947
# Shear Modulus (GPa) = 15.43503 24.68347 20.05925
#
# Velocity S-wave (km/s) = 2.89043 3.65521 3.29508
# Velocity P-wave (km/s) = 6.63556 7.18532 6.91591
#
# Compressibility (1/GPa) = 0.01645650
#
# Stress axis : x y z
#
# Youngs Moduli (GPa) = 96.14169 90.81483 76.06788
#
# Poissons Ratio (x) = 0.31588 0.15915
# Poissons Ratio (y) = 0.33441 0.26477
# Poissons Ratio (z) = 0.20114 0.31610
#
# Static dielectric constant tensor:
#      x y z
#    x 1.670530 0.000000 0.000000 
#    y 0.000000 1.631260 0.000000 
#    z 0.000000 0.000000 1.639500 
# 
# From -- ./inp_files/50931.got.cif
#   From: 2010.05.17/outbox.cif.g08.bks.cpg/sg72_26_cif.got.tgz:50931.got - 2010.06.03 17:03:01.
