data_PCOD9527597
_publ_section_title
;
Structure prediction by ZEFSAII (Michael W. Deem and Ramdas Pophale) SiO2 
 PCOD9527597
Probable space group: I B A M
;
_chemical_formula_sum "Si O2"
_cell_formula_units_Z 80
_cell_length_a 11.463195
_cell_length_b 26.890169
_cell_length_c 14.113341
_cell_angle_alpha 90.000000
_cell_angle_beta 90.000000
_cell_angle_gamma 90.000000
_cell_volume 4350.398563
_symmetry_space_group_name_H-M "I B A M"
_symmetry_group_IT_number 72
_symmetry_cell_setting 'orthorhombic'
loop_
_space_group_symop_operation_xyz
x,y,z
-x,-y,z
x,-y,1/2-z
-x,y,1/2-z
-x,-y,-z
x,y,-z
-x,y,1/2+z
x,-y,1/2+z
1/2+x,1/2+y,1/2+z
1/2-x,1/2-y,1/2+z
1/2+x,1/2-y,-z
1/2-x,1/2+y,-z
1/2-x,1/2-y,1/2-z
1/2+x,1/2+y,1/2-z
1/2-x,1/2+y,z
1/2+x,1/2-y,z
loop_
_atom_site_type_symbol
_atom_site_label
_atom_site_fract_x
_atom_site_fract_y
_atom_site_fract_z
Si Si1 0.299729 0.944850 0.238505
Si Si2 0.182764 0.842177 0.219262
Si Si3 0.908774 0.309260 0.610713
Si Si4 0.987737 0.415872 0.889316
Si Si5 0.041427 0.196371 0.111073
O O1 0.208928 0.900879 0.221022
O O2 0.374638 0.932025 0.331976
O O3 0.398391 0.942092 0.156018
O O4 0.250998 0.000000 0.250000
O O5 0.298438 0.816181 0.178763
O O6 0.146124 0.823171 0.323007
O O7 0.075503 0.828734 0.150719
O O8 0.870239 0.311652 0.500000
O O9 0.991697 0.356728 0.625693
O O10 0.967091 0.255922 0.625101
O O11 0.979509 0.426103 0.000000
O O12 0.058886 0.186700 0.000000
#
# Coordination Sequence:
#
# PCOD9527597 Si02
#       5
#    16  16  16  16  16
#     4  10  21  35  52  76 104 137 176 216 260 304
#     4  10  21  36  54  75 104 139 174 215 258 305
#     4   9  18  33  55  82 110 137 163 199 256 318
#     4   9  18  33  54  82 110 132 162 209 262 317
#     4  10  21  36  54  78 106 138 174 210 252 307
#
# _framework density 18.389119999999998
#
# number of rings (size 3 to 8) (size 9 to 14) (size 15 to 20)
#    0.000    2.400    0.000    2.400    0.000   11.200 
#    0.000    6.000    0.000    1.200    0.000    0.000 
#    0.000    0.000    0.000    0.000    0.000    0.000 
#
# Total GULP energy -223358.796482 kJ/mol
# GULP energy per Si atom -5583.969912 kJ/mol
# Density = 1.834727 g / cm^3
# Si number density = 18.389120 Si / 1000 Ang^3
#
#
#
# Elastic Constant Matrix: (Units=GPa)
#
#
# Indices 1 2 3 4 5 6 
#
# 1 32.5678 46.9334 37.0157 0.0000 0.0000 0.0000
# 2 46.9334 139.4328 45.7450 0.0000 0.0000 0.0000
# 3 37.0157 45.7450 135.4150 0.0000 0.0001 0.0000
# 4 0.0000 0.0000 0.0000 16.6438 0.0000 0.0000
# 5 0.0000 0.0000 0.0001 0.0000 14.3132 0.0000
# 6 0.0000 0.0000 0.0000 0.0000 0.0000 11.8084
#
#
#
# Elastic Compliance Matrix: (Units=1/GPa)
#
#
# Indices 1 2 3 4 5 6 
#
# 1 0.077588 -0.021546 -0.013930 0.000000 0.000000 0.000000
# 2 -0.021546 0.014049 0.001144 0.000000 0.000000 0.000000
# 3 -0.013930 0.001144 0.010806 0.000000 0.000000 0.000000
# 4 0.000000 0.000000 0.000000 0.060082 0.000000 0.000000
# 5 0.000000 0.000000 0.000000 0.000000 0.069865 0.000000
# 6 0.000000 0.000000 0.000000 0.000000 0.000000 0.084686
#
#
# Mechanical properties :
#
#
# Convention : Reuss Voigt Hill
#
# Bulk Modulus (GPa) = 29.60500 62.97819 46.29160
# Shear Modulus (GPa) = 12.59444 20.40119 16.49781
#
# Velocity S-wave (km/s) = 2.61987 3.33440 2.99850
# Velocity P-wave (km/s) = 5.02850 7.01044 6.10049
#
# Compressibility (1/GPa) = 0.03377808
#
# Stress axis : x y z
#
# Youngs Moduli (GPa) = 12.88864 71.17867 92.53973
#
# Poissons Ratio (x) = 1.53362 1.28909
# Poissons Ratio (y) = 0.27770 -0.10583
# Poissons Ratio (z) = 0.17954 -0.08140
#
# Static dielectric constant tensor:
#      x y z
#    x 1.604550 0.000000 0.000000 
#    y 0.000000 1.642280 0.000000 
#    z 0.000000 0.000000 1.642210 
# 
# From -- ./inp_files/20165.got.cif
#   From: 2010.05.17/outbox.cif.g08.bks.cpg/sg72_11_cif.got.tgz:20165.got - 2010.06.03 17:03:01.
