data_PCOD9527333
_publ_section_title
;
Structure prediction by ZEFSAII (Michael W. Deem and Ramdas Pophale) SiO2 
 PCOD9527333
Probable space group: I B A M
;
_chemical_formula_sum "Si O2"
_cell_formula_units_Z 112
_cell_length_a 28.066378
_cell_length_b 12.144705
_cell_length_c 13.921113
_cell_angle_alpha 90.000000
_cell_angle_beta 90.000000
_cell_angle_gamma 90.000000
_cell_volume 4745.121082
_symmetry_space_group_name_H-M "I B A M"
_symmetry_group_IT_number 72
_symmetry_cell_setting 'orthorhombic'
loop_
_space_group_symop_operation_xyz
x,y,z
-x,-y,z
x,-y,1/2-z
-x,y,1/2-z
-x,-y,-z
x,y,-z
-x,y,1/2+z
x,-y,1/2+z
1/2+x,1/2+y,1/2+z
1/2-x,1/2-y,1/2+z
1/2+x,1/2-y,-z
1/2-x,1/2+y,-z
1/2-x,1/2-y,1/2-z
1/2+x,1/2+y,1/2-z
1/2-x,1/2+y,z
1/2+x,1/2-y,z
loop_
_atom_site_type_symbol
_atom_site_label
_atom_site_fract_x
_atom_site_fract_y
_atom_site_fract_z
Si Si1 0.408395 0.681015 0.892524
Si Si2 0.884359 0.946503 0.387990
Si Si3 0.541542 0.087830 0.384579
Si Si4 0.281304 0.107405 0.288947
Si Si5 0.120086 0.578938 0.615890
Si Si6 0.983996 0.166570 0.148697
Si Si7 0.696633 0.269332 0.615165
O O1 0.386935 0.570621 0.844377
O O2 0.399271 0.801638 0.849036
O O3 0.465178 0.666021 0.903024
O O4 0.387669 0.687784 0.000000
O O5 0.872182 0.963517 0.500000
O O6 0.938084 0.898797 0.386134
O O7 0.846383 0.853402 0.358508
O O8 0.542064 0.106034 0.500000
O O9 0.532123 0.206649 0.341870
O O10 0.500000 0.000000 0.364717
O O11 0.589331 0.026476 0.354272
O O12 0.326719 0.069706 0.348794
O O13 0.300461 0.173895 0.195770
O O14 0.246816 0.172061 0.360678
O O15 0.254401 0.000000 0.250000
O O16 0.116254 0.579401 0.500000
O O17 0.000000 0.121302 0.250000
O O18 0.692777 0.240603 0.500000
#
# Coordination Sequence:
#
# PCOD9527333 Si02
#       7
#    16  16  16  16  16  16  16
#     4  10  21  41  64  90 129 177 226 274 333 411
#     4  10  23  42  68  94 127 175 227 280 341 413
#     4  10  20  38  62  88 127 178 227 275 334 409
#     4  11  26  46  73 107 139 179 232 302 357 426
#     4  10  22  40  67 101 137 182 231 286 354 419
#     4  12  25  37  57  95 133 175 221 282 335 408
#     4  10  25  49  72 103 140 184 234 291 364 432
#
# _framework density 23.603190999999999
#
# number of rings (size 3 to 8) (size 9 to 14) (size 15 to 20)
#    0.000    1.571    1.429    2.143    4.000    6.000 
#    0.000    1.429    0.000    0.000    0.000    0.000 
#    0.000    0.571    0.000    0.000    0.000    0.000 
#
# Total GULP energy -312826.538630 kJ/mol
# GULP energy per Si atom -5586.188190 kJ/mol
# Density = 2.354947 g / cm^3
# Si number density = 23.603191 Si / 1000 Ang^3
#
#
#
# Elastic Constant Matrix: (Units=GPa)
#
#
# Indices 1 2 3 4 5 6 
#
# 1 73.7763 7.9526 -3.9887 0.0000 0.0000 0.0000
# 2 7.9526 129.9274 3.0817 0.0000 0.0000 0.0000
# 3 -3.9887 3.0817 78.7186 0.0000 0.0000 0.0000
# 4 0.0000 0.0000 0.0000 22.0559 0.0000 0.0000
# 5 0.0000 0.0000 0.0000 0.0000 32.5053 0.0000
# 6 0.0000 0.0000 0.0000 0.0000 0.0000 32.7519
#
#
#
# Elastic Compliance Matrix: (Units=1/GPa)
#
#
# Indices 1 2 3 4 5 6 
#
# 1 0.013686 -0.000855 0.000727 0.000000 0.000000 0.000000
# 2 -0.000855 0.007757 -0.000347 0.000000 0.000000 0.000000
# 3 0.000727 -0.000347 0.012754 0.000000 0.000000 0.000000
# 4 0.000000 0.000000 0.000000 0.045339 0.000000 0.000000
# 5 0.000000 0.000000 0.000000 0.000000 0.030764 0.000000
# 6 0.000000 0.000000 0.000000 0.000000 0.000000 0.030533
#
#
# Mechanical properties :
#
#
# Convention : Reuss Voigt Hill
#
# Bulk Modulus (GPa) = 30.07787 32.94594 31.51190
# Shear Modulus (GPa) = 32.70849 35.82106 34.26478
#
# Velocity S-wave (km/s) = 3.72663 3.89991 3.81425
# Velocity P-wave (km/s) = 5.59355 5.85386 5.72518
#
# Compressibility (1/GPa) = 0.03324704
#
# Stress axis : x y z
#
# Youngs Moduli (GPa) = 73.06764 128.91308 78.40740
#
# Poissons Ratio (x) = 0.11021 -0.05700
# Poissons Ratio (y) = 0.06247 0.02721
# Poissons Ratio (z) = -0.05312 0.04473
#
# Static dielectric constant tensor:
#      x y z
#    x 1.838710 0.000000 0.000000 
#    y 0.000000 1.940280 0.000000 
#    z 0.000000 0.000000 1.704010 
# 
# From -- ./inp_files/26419.got.cif
#   From: 2010.05.17/outbox.cif.g08.bks.cpg/sg72_14_cif.got.tgz:26419.got - 2010.06.03 17:03:01.
