data_PCOD9527736
_publ_section_title
;
Structure prediction by ZEFSAII (Michael W. Deem and Ramdas Pophale) SiO2 
 PCOD9527736
Probable space group: I B A M
;
_chemical_formula_sum "Si O2"
_cell_formula_units_Z 112
_cell_length_a 12.473747
_cell_length_b 29.623461
_cell_length_c 14.842029
_cell_angle_alpha 90.000000
_cell_angle_beta 90.000000
_cell_angle_gamma 90.000000
_cell_volume 5484.360624
_symmetry_space_group_name_H-M "I B A M"
_symmetry_group_IT_number 72
_symmetry_cell_setting 'orthorhombic'
loop_
_space_group_symop_operation_xyz
x,y,z
-x,-y,z
x,-y,1/2-z
-x,y,1/2-z
-x,-y,-z
x,y,-z
-x,y,1/2+z
x,-y,1/2+z
1/2+x,1/2+y,1/2+z
1/2-x,1/2-y,1/2+z
1/2+x,1/2-y,-z
1/2-x,1/2+y,-z
1/2-x,1/2-y,1/2-z
1/2+x,1/2+y,1/2-z
1/2-x,1/2+y,z
1/2+x,1/2-y,z
loop_
_atom_site_type_symbol
_atom_site_label
_atom_site_fract_x
_atom_site_fract_y
_atom_site_fract_z
Si Si1 0.607489 0.024160 0.392699
Si Si2 0.450778 0.299770 0.605683
Si Si3 0.167856 0.856319 0.892924
Si Si4 0.014809 0.391282 0.144184
Si Si5 0.250330 0.802805 0.730236
Si Si6 0.235311 0.445146 0.105389
Si Si7 0.948280 0.702920 0.398797
O O1 0.607225 0.016951 0.500000
O O2 0.587256 0.077038 0.380693
O O3 0.500000 0.000000 0.355395
O O4 0.708444 0.995203 0.357545
O O5 0.418752 0.299558 0.500000
O O6 0.551695 0.333186 0.615943
O O7 0.354155 0.313358 0.670253
O O8 0.490485 0.248721 0.628178
O O9 0.243457 0.829185 0.824101
O O10 0.177305 0.908745 0.862983
O O11 0.196758 0.852783 0.000000
O O12 0.017777 0.342357 0.099950
O O13 0.000000 0.385827 0.250000
O O14 0.121961 0.418510 0.117317
O O15 0.250000 0.750000 0.750000
O O16 0.354954 0.809652 0.670301
O O17 0.259577 0.450821 0.000000
O O18 0.905701 0.711784 0.500000
#
# Coordination Sequence:
#
# PCOD9527736 Si02
#       7
#    16  16  16  16  16  16  16
#     4   8  15  30  48  70 103 144 180 221 277 337
#     4  10  23  40  58  79 109 152 199 245 294 344
#     4  10  21  37  56  82 109 147 194 239 288 345
#     4  11  21  30  49  79 117 149 189 231 292 350
#     4  12  24  37  58  76 114 147 193 247 292 348
#     4   9  18  33  53  75 104 144 188 232 280 337
#     4  11  24  38  55  81 111 154 202 240 288 349
#
# _framework density 20.421706
#
# number of rings (size 3 to 8) (size 9 to 14) (size 15 to 20)
#    0.000    1.857    1.429    3.857    4.000    3.143 
#    0.000    0.000    0.000    0.000    0.000    1.000 
#    0.000    8.000    0.000    1.143    0.000    2.000 
#
# Total GULP energy -312304.345200 kJ/mol
# GULP energy per Si atom -5576.863307 kJ/mol
# Density = 2.037523 g / cm^3
# Si number density = 20.421706 Si / 1000 Ang^3
#
#
#
# Elastic Constant Matrix: (Units=GPa)
#
#
# Indices 1 2 3 4 5 6 
#
# 1 47.3481 24.2394 15.5372 0.0000 0.0000 0.0000
# 2 24.2394 101.7940 -8.7540 0.0001 0.0000 0.0000
# 3 15.5372 -8.7540 76.6543 0.0000 0.0002 0.0000
# 4 0.0000 0.0001 0.0000 -12.4429 0.0000 0.0000
# 5 0.0000 0.0000 0.0002 0.0000 5.9158 0.0000
# 6 0.0000 0.0000 0.0000 0.0000 0.0000 25.5608
#
#
#
# Elastic Compliance Matrix: (Units=1/GPa)
#
#
# Indices 1 2 3 4 5 6 
#
# 1 0.026677 -0.006885 -0.006194 0.000000 0.000000 0.000000
# 2 -0.006885 0.011698 0.002731 0.000000 0.000000 0.000000
# 3 -0.006194 0.002731 0.014613 0.000000 0.000000 0.000000
# 4 0.000000 0.000000 0.000000 -0.080367 -0.000001 0.000000
# 5 0.000000 0.000000 0.000000 -0.000001 0.169039 0.000000
# 6 0.000000 0.000000 0.000000 0.000000 0.000000 0.039122
#
#
# Mechanical properties :
#
#
# Convention : Reuss Voigt Hill
#
# Bulk Modulus (GPa) = 30.96543 31.98240 31.47391
# Shear Modulus (GPa) = 23.55806 16.79165 20.17486
#
# Velocity S-wave (km/s) = 3.40012 2.87059 3.14652
# Velocity P-wave (km/s) = 5.53266 5.16547 5.35222
#
# Compressibility (1/GPa) = 0.03229408
#
# Stress axis : x y z
#
# Youngs Moduli (GPa) = 37.48500 85.48360 68.43264
#
# Poissons Ratio (x) = 0.58856 0.42384
# Poissons Ratio (y) = 0.25809 -0.18692
# Poissons Ratio (z) = 0.23217 -0.23350
#
# Static dielectric constant tensor:
#      x y z
#    x 1.749610 0.000000 0.000000 
#    y 0.000000 1.807510 0.000000 
#    z 0.000000 0.000000 1.805690 
# 
# From -- ./inp_files/20742.got.cif
#   From: 2010.05.17/outbox.cif.g08.bks.cpg/sg72_11_cif.got.tgz:20742.got - 2010.06.03 17:03:01.
