data_PCOD9527518
_publ_section_title
;
Structure prediction by ZEFSAII (Michael W. Deem and Ramdas Pophale) SiO2 
 PCOD9527518
Probable space group: I B A M
;
_chemical_formula_sum "Si O2"
_cell_formula_units_Z 68
_cell_length_a 10.062186
_cell_length_b 16.647120
_cell_length_c 19.848461
_cell_angle_alpha 90.000000
_cell_angle_beta 90.000000
_cell_angle_gamma 90.000000
_cell_volume 3324.744601
_symmetry_space_group_name_H-M "I B A M"
_symmetry_group_IT_number 72
_symmetry_cell_setting 'orthorhombic'
loop_
_space_group_symop_operation_xyz
x,y,z
-x,-y,z
x,-y,1/2-z
-x,y,1/2-z
-x,-y,-z
x,y,-z
-x,y,1/2+z
x,-y,1/2+z
1/2+x,1/2+y,1/2+z
1/2-x,1/2-y,1/2+z
1/2+x,1/2-y,-z
1/2-x,1/2+y,-z
1/2-x,1/2-y,1/2-z
1/2+x,1/2+y,1/2-z
1/2-x,1/2+y,z
1/2+x,1/2-y,z
loop_
_atom_site_type_symbol
_atom_site_label
_atom_site_fract_x
_atom_site_fract_y
_atom_site_fract_z
Si Si1 0.510692 0.404237 0.855555
Si Si2 0.843567 0.483244 0.000000
Si Si3 0.918140 0.082874 0.000000
Si Si4 0.879032 0.241386 0.205068
Si Si5 0.319459 0.895843 0.356180
Si Si6 0.500000 0.000000 0.750000
O O1 0.500000 0.500000 0.847911
O O2 0.410712 0.350216 0.812909
O O3 0.663548 0.387878 0.839023
O O4 0.468942 0.378739 0.931294
O O5 0.820147 0.436342 0.929868
O O6 0.000000 0.500000 0.000000
O O7 0.737440 0.557409 0.000000
O O8 0.000000 0.000000 0.000000
O O9 0.750000 0.250000 0.250000
O O10 0.871783 0.304389 0.143930
O O11 0.000000 0.271015 0.250000
O O12 0.404522 0.947427 0.300877
#
# Coordination Sequence:
#
# PCOD9527518 Si02
#       6
#    16   8   8  16  16   4
#     4  11  24  45  78 102 138 198 251 298 366 452
#     4  12  24  45  72 114 145 192 242 316 374 450
#     4  10  20  43  74 106 140 177 261 307 344 447
#     4  12  27  45  66 106 151 189 244 313 365 431
#     4  12  25  45  72 106 148 192 248 304 380 438
#     4  12  28  42  74 108 150 198 246 308 376 450
#
# _framework density 20.452697000000001
#
# number of rings (size 3 to 8) (size 9 to 14) (size 15 to 20)
#    0.000    0.471    9.412    0.000    3.294    3.294 
#    0.000    0.000    0.000    0.000    0.000    0.000 
#    0.000    0.000    0.000    0.000    0.000    0.000 
#
# Total GULP energy -189575.201479 kJ/mol
# GULP energy per Si atom -5575.741220 kJ/mol
# Density = 2.040615 g / cm^3
# Si number density = 20.452697 Si / 1000 Ang^3
#
#
#
# Elastic Constant Matrix: (Units=GPa)
#
#
# Indices 1 2 3 4 5 6 
#
# 1 159.2431 36.5152 47.8405 0.0000 0.0000 0.0000
# 2 36.5152 104.8659 45.9839 0.0000 0.0000 0.0000
# 3 47.8405 45.9839 139.0473 0.0000 0.0000 0.0000
# 4 0.0000 0.0000 0.0000 17.3393 0.0000 0.0000
# 5 0.0000 0.0000 0.0000 0.0000 35.1398 0.0000
# 6 0.0000 0.0000 0.0000 0.0000 0.0000 29.5565
#
#
#
# Elastic Compliance Matrix: (Units=1/GPa)
#
#
# Indices 1 2 3 4 5 6 
#
# 1 0.007246 -0.001672 -0.001940 0.000000 0.000000 0.000000
# 2 -0.001672 0.011539 -0.003241 0.000000 0.000000 0.000000
# 3 -0.001940 -0.003241 0.008931 0.000000 0.000000 0.000000
# 4 0.000000 0.000000 0.000000 0.057673 0.000000 0.000000
# 5 0.000000 0.000000 0.000000 0.000000 0.028458 0.000000
# 6 0.000000 0.000000 0.000000 0.000000 0.000000 0.033833
#
#
# Mechanical properties :
#
#
# Convention : Reuss Voigt Hill
#
# Bulk Modulus (GPa) = 71.37697 73.75948 72.56822
# Shear Modulus (GPa) = 30.11021 34.59489 32.35255
#
# Velocity S-wave (km/s) = 3.84107 4.11720 3.98153
# Velocity P-wave (km/s) = 7.39230 7.66443 7.52959
#
# Compressibility (1/GPa) = 0.01401012
#
# Stress axis : x y z
#
# Youngs Moduli (GPa) = 138.00681 86.65949 111.96955
#
# Poissons Ratio (x) = 0.14493 0.21722
# Poissons Ratio (y) = 0.23081 0.36286
# Poissons Ratio (z) = 0.26773 0.28084
#
# Static dielectric constant tensor:
#      x y z
#    x 1.735560 0.000000 0.000000 
#    y 0.000000 1.781030 0.000000 
#    z 0.000000 0.000000 1.860770 
# 
# From -- ./inp_files/35507.got.cif
#   From: 2010.05.17/outbox.cif.g08.bks.cpg/sg72_18_cif.got.tgz:35507.got - 2010.06.03 17:03:01.
