data_PCOD9527494
_publ_section_title
;
Structure prediction by ZEFSAII (Michael W. Deem and Ramdas Pophale) SiO2 
 PCOD9527494
Probable space group: I B A M
;
_chemical_formula_sum "Si O2"
_cell_formula_units_Z 112
_cell_length_a 11.764904
_cell_length_b 30.509488
_cell_length_c 15.742602
_cell_angle_alpha 90.000000
_cell_angle_beta 90.000000
_cell_angle_gamma 90.000000
_cell_volume 5650.668412
_symmetry_space_group_name_H-M "I B A M"
_symmetry_group_IT_number 72
_symmetry_cell_setting 'orthorhombic'
loop_
_space_group_symop_operation_xyz
x,y,z
-x,-y,z
x,-y,1/2-z
-x,y,1/2-z
-x,-y,-z
x,y,-z
-x,y,1/2+z
x,-y,1/2+z
1/2+x,1/2+y,1/2+z
1/2-x,1/2-y,1/2+z
1/2+x,1/2-y,-z
1/2-x,1/2+y,-z
1/2-x,1/2-y,1/2-z
1/2+x,1/2+y,1/2-z
1/2-x,1/2+y,z
1/2+x,1/2-y,z
loop_
_atom_site_type_symbol
_atom_site_label
_atom_site_fract_x
_atom_site_fract_y
_atom_site_fract_z
Si Si1 0.867161 0.947525 0.746556
Si Si2 0.171964 0.820019 0.589217
Si Si3 0.233144 0.112781 0.601213
Si Si4 0.005757 0.626434 0.648781
Si Si5 0.388888 0.217968 0.896668
Si Si6 0.218989 0.415257 0.406782
Si Si7 0.940238 0.815455 0.340675
O O1 0.813243 0.926551 0.661185
O O2 0.791086 0.933596 0.827945
O O3 0.000000 0.932734 0.750000
O O4 0.867160 0.000000 0.750000
O O5 0.167242 0.795475 0.500000
O O6 0.260992 0.790710 0.641192
O O7 0.237959 0.865423 0.585905
O O8 0.043864 0.832759 0.603910
O O9 0.209158 0.108352 0.500000
O O10 0.367939 0.117918 0.615087
O O11 0.169843 0.155894 0.639508
O O12 0.000000 0.622019 0.750000
O O13 0.965790 0.676096 0.627051
O O14 0.914537 0.591677 0.611760
O O15 0.426810 0.264441 0.861464
O O16 0.389912 0.219775 0.000000
O O17 0.236924 0.436445 0.500000
O O18 0.000000 0.819846 0.250000
#
# Coordination Sequence:
#
# PCOD9527494 Si02
#       7
#    16  16  16  16  16  16  16
#     4  11  25  45  70 103 137 169 217 277 334 406
#     4   9  19  36  57  80 115 161 214 263 318 389
#     4  12  25  43  68 100 137 179 225 280 341 404
#     4  11  22  41  68  95 132 175 226 281 336 396
#     4  10  22  38  57  86 123 172 227 278 328 388
#     4  10  20  41  68  94 126 174 217 261 330 404
#     4  12  25  37  58  88 129 174 225 279 338 389
#
# _framework density 19.820665000000002
#
# number of rings (size 3 to 8) (size 9 to 14) (size 15 to 20)
#    0.000    1.286    1.429    6.000    4.000    2.857 
#    0.000    2.857    0.000    1.714    0.000    0.000 
#    0.000    0.000    0.000    0.000    0.000    0.000 
#
# Total GULP energy -311873.881294 kJ/mol
# GULP energy per Si atom -5569.176452 kJ/mol
# Density = 1.977555 g / cm^3
# Si number density = 19.820665 Si / 1000 Ang^3
#
#
#
# Elastic Constant Matrix: (Units=GPa)
#
#
# Indices 1 2 3 4 5 6 
#
# 1 149.0045 25.7689 36.4389 0.0001 0.0000 0.0000
# 2 25.7689 56.0476 35.2387 0.0002 0.0000 0.0000
# 3 36.4389 35.2387 138.4686 0.0009 -0.0001 0.0003
# 4 0.0001 0.0002 0.0009 5.7664 -0.0001 0.0000
# 5 0.0000 0.0000 -0.0001 -0.0001 28.3468 0.0000
# 6 0.0000 0.0000 0.0003 0.0000 0.0000 24.7075
#
#
#
# Elastic Compliance Matrix: (Units=1/GPa)
#
#
# Indices 1 2 3 4 5 6 
#
# 1 0.007483 -0.002622 -0.001302 0.000000 0.000000 0.000000
# 2 -0.002622 0.022159 -0.004949 0.000000 0.000000 0.000000
# 3 -0.001302 -0.004949 0.008824 -0.000001 0.000000 0.000000
# 4 0.000000 0.000000 -0.000001 0.173420 0.000001 0.000000
# 5 0.000000 0.000000 0.000000 0.000001 0.035277 0.000000
# 6 0.000000 0.000000 0.000000 0.000000 0.000000 0.040474
#
#
# Mechanical properties :
#
#
# Convention : Reuss Voigt Hill
#
# Bulk Modulus (GPa) = 48.26266 59.82376 54.04321
# Shear Modulus (GPa) = 16.01078 28.16908 22.08993
#
# Velocity S-wave (km/s) = 2.84523 3.77397 3.34202
# Velocity P-wave (km/s) = 5.93265 7.01701 6.49749
#
# Compressibility (1/GPa) = 0.02071995
#
# Stress axis : x y z
#
# Youngs Moduli (GPa) = 133.63568 45.12797 113.32707
#
# Poissons Ratio (x) = 0.11832 0.14755
# Poissons Ratio (y) = 0.35038 0.56089
# Poissons Ratio (z) = 0.17399 0.22335
#
# Static dielectric constant tensor:
#      x y z
#    x 2.508510 0.000000 0.000000 
#    y 0.000000 1.636740 0.000000 
#    z 0.000000 0.000000 1.767920 
# 
# From -- ./inp_files/20724.got.cif
#   From: 2010.05.17/outbox.cif.g08.bks.cpg/sg72_11_cif.got.tgz:20724.got - 2010.06.03 17:03:01.
