data_PCOD9527907
_publ_section_title
;
Structure prediction by ZEFSAII (Michael W. Deem and Ramdas Pophale) SiO2 
 PCOD9527907
Probable space group: I B A M
;
_chemical_formula_sum "Si O2"
_cell_formula_units_Z 112
_cell_length_a 14.557731
_cell_length_b 14.370540
_cell_length_c 26.139426
_cell_angle_alpha 90.000000
_cell_angle_beta 90.000000
_cell_angle_gamma 90.000000
_cell_volume 5468.432108
_symmetry_space_group_name_H-M "I B A M"
_symmetry_group_IT_number 72
_symmetry_cell_setting 'orthorhombic'
loop_
_space_group_symop_operation_xyz
x,y,z
-x,-y,z
x,-y,1/2-z
-x,y,1/2-z
-x,-y,-z
x,y,-z
-x,y,1/2+z
x,-y,1/2+z
1/2+x,1/2+y,1/2+z
1/2-x,1/2-y,1/2+z
1/2+x,1/2-y,-z
1/2-x,1/2+y,-z
1/2-x,1/2-y,1/2-z
1/2+x,1/2+y,1/2-z
1/2-x,1/2+y,z
1/2+x,1/2-y,z
loop_
_atom_site_type_symbol
_atom_site_label
_atom_site_fract_x
_atom_site_fract_y
_atom_site_fract_z
Si Si1 0.437321 0.315489 0.860432
Si Si2 0.314079 0.206856 0.941939
Si Si3 0.604082 0.024253 0.600652
Si Si4 0.325381 0.875429 0.843101
Si Si5 0.346812 0.326243 0.370546
Si Si6 0.968603 0.632584 0.307098
Si Si7 0.839721 0.015992 0.192379
O O1 0.369414 0.277475 0.904539
O O2 0.543529 0.318723 0.877917
O O3 0.434912 0.238115 0.814932
O O4 0.405331 0.414251 0.838936
O O5 0.363893 0.107746 0.934737
O O6 0.211615 0.183562 0.922148
O O7 0.315528 0.239078 0.000000
O O8 0.598284 0.068779 0.658832
O O9 0.500000 0.000000 0.585799
O O10 0.674646 0.937469 0.604687
O O11 0.308184 0.765716 0.841830
O O12 0.433784 0.877513 0.834357
O O13 0.256846 0.927985 0.805583
O O14 0.329266 0.419448 0.338206
O O15 0.000000 0.609706 0.250000
O O16 0.872952 0.000000 0.250000
#
# Coordination Sequence:
#
# PCOD9527907 Si02
#       7
#    16  16  16  16  16  16  16
#     4  10  24  44  63  97 143 174 224 284 329 403
#     4  11  23  44  73  98 127 173 225 287 351 404
#     4   9  19  38  60  94 131 163 215 278 340 403
#     4  10  21  38  60  89 130 176 213 280 332 382
#     4  11  24  45  65  93 138 177 226 278 336 411
#     4   9  20  34  63  91 131 175 218 266 335 398
#     4  12  26  39  69  97 138 188 233 271 335 407
#
# _framework density 20.481190999999999
#
# number of rings (size 3 to 8) (size 9 to 14) (size 15 to 20)
#    0.000    1.714    2.857    1.286    6.000    4.000 
#    0.000    2.857    0.000    1.714    0.000    0.000 
#    0.000    0.000    0.000    0.000    0.000    0.000 
#
# Total GULP energy -311971.547191 kJ/mol
# GULP energy per Si atom -5570.920486 kJ/mol
# Density = 2.043458 g / cm^3
# Si number density = 20.481191 Si / 1000 Ang^3
#
#
#
# Elastic Constant Matrix: (Units=GPa)
#
#
# Indices 1 2 3 4 5 6 
#
# 1 100.1987 36.6815 31.0869 0.0000 0.0000 0.0000
# 2 36.6815 150.9332 40.4410 0.0000 0.0000 0.0000
# 3 31.0869 40.4410 97.2004 0.0000 0.0000 0.0000
# 4 0.0000 0.0000 0.0000 -2.5411 0.0000 0.0000
# 5 0.0000 0.0000 0.0000 0.0000 4.7395 0.0000
# 6 0.0000 0.0000 0.0000 0.0000 0.0000 57.6075
#
#
#
# Elastic Compliance Matrix: (Units=1/GPa)
#
#
# Indices 1 2 3 4 5 6 
#
# 1 0.011621 -0.002058 -0.002860 0.000000 0.000000 0.000000
# 2 -0.002058 0.007821 -0.002596 0.000000 0.000000 0.000000
# 3 -0.002860 -0.002596 0.012283 0.000000 0.000000 0.000000
# 4 0.000000 0.000000 0.000000 -0.393535 0.000000 0.000000
# 5 0.000000 0.000000 0.000000 0.000000 0.210994 0.000000
# 6 0.000000 0.000000 0.000000 0.000000 0.000000 0.017359
#
#
# Mechanical properties :
#
#
# Convention : Reuss Voigt Hill
#
# Bulk Modulus (GPa) = 59.89243 62.75013 61.32128
# Shear Modulus (GPa) = -44.30127 27.96938 -8.16595
#
# Velocity S-wave (km/s) = -4.65588 3.69943 -1.99893
# Velocity P-wave (km/s) = 0.63500 6.99658 4.96766
#
# Compressibility (1/GPa) = 0.01669660
#
# Stress axis : x y z
#
# Youngs Moduli (GPa) = 86.05123 127.85910 81.41394
#
# Poissons Ratio (x) = 0.26311 0.23288
# Poissons Ratio (y) = 0.17708 0.21134
# Poissons Ratio (z) = 0.24615 0.33191
#
# Static dielectric constant tensor:
#      x y z
#    x 1.789760 0.000000 0.000000 
#    y 0.000000 1.834750 0.000000 
#    z 0.000000 0.000000 1.968470 
# 
# From -- ./inp_files/44377.got.cif
#   From: 2010.05.17/outbox.cif.g08.bks.cpg/sg72_23_cif.got.tgz:44377.got - 2010.06.03 17:03:01.
