data_PCOD9527458
_publ_section_title
;
Structure prediction by ZEFSAII (Michael W. Deem and Ramdas Pophale) SiO2 
 PCOD9527458
Probable space group: I B A M
;
_chemical_formula_sum "Si O2"
_cell_formula_units_Z 80
_cell_length_a 23.849896
_cell_length_b 9.543063
_cell_length_c 18.983962
_cell_angle_alpha 90.000000
_cell_angle_beta 90.000000
_cell_angle_gamma 90.000000
_cell_volume 4320.769876
_symmetry_space_group_name_H-M "I B A M"
_symmetry_group_IT_number 72
_symmetry_cell_setting 'orthorhombic'
loop_
_space_group_symop_operation_xyz
x,y,z
-x,-y,z
x,-y,1/2-z
-x,y,1/2-z
-x,-y,-z
x,y,-z
-x,y,1/2+z
x,-y,1/2+z
1/2+x,1/2+y,1/2+z
1/2-x,1/2-y,1/2+z
1/2+x,1/2-y,-z
1/2-x,1/2+y,-z
1/2-x,1/2-y,1/2-z
1/2+x,1/2+y,1/2-z
1/2-x,1/2+y,z
1/2+x,1/2-y,z
loop_
_atom_site_type_symbol
_atom_site_label
_atom_site_fract_x
_atom_site_fract_y
_atom_site_fract_z
Si Si1 0.937862 0.934626 0.821336
Si Si2 0.339314 0.868058 0.335939
Si Si3 0.865718 0.894095 0.580929
Si Si4 0.862873 0.319048 0.675393
Si Si5 0.778850 0.129226 0.583922
O O1 0.920511 0.771089 0.819454
O O2 0.910569 0.000000 0.750000
O O3 0.909989 0.994240 0.891357
O O4 0.000000 0.000000 0.821358
O O5 0.372010 0.742761 0.372722
O O6 0.335619 0.829748 0.253413
O O7 0.279444 0.871258 0.374809
O O8 0.368402 0.018770 0.345495
O O9 0.872429 0.859695 0.500000
O O10 0.806556 0.974551 0.590420
O O11 0.821098 0.237521 0.622420
O O12 0.772879 0.159541 0.500000
#
# Coordination Sequence:
#
# PCOD9527458 Si02
#       5
#    16  16  16  16  16
#     4  10  20  40  65  81 105 146 197 246 294 346
#     4  11  20  34  54  84 122 153 189 234 288 341
#     4  10  21  36  57  85 117 152 194 239 284 341
#     4  10  22  36  56  85 114 149 198 240 284 342
#     4  10  21  35  54  82 118 164 200 225 272 342
#
# _framework density 18.515219999999999
#
# number of rings (size 3 to 8) (size 9 to 14) (size 15 to 20)
#    0.000    1.800    2.000    2.400    0.000    5.200 
#    0.000    1.000    0.000    1.200    0.000    0.000 
#    0.000    0.000    0.000    0.000    0.000    0.000 
#
# Total GULP energy -222881.963943 kJ/mol
# GULP energy per Si atom -5572.049099 kJ/mol
# Density = 1.847308 g / cm^3
# Si number density = 18.515220 Si / 1000 Ang^3
#
#
#
# Elastic Constant Matrix: (Units=GPa)
#
#
# Indices 1 2 3 4 5 6 
#
# 1 60.7235 24.6757 13.9010 0.0000 0.0000 0.0000
# 2 24.6757 134.7632 54.5673 0.0000 0.0000 0.0000
# 3 13.9010 54.5673 85.2395 0.0000 0.0000 0.0000
# 4 0.0000 0.0000 0.0000 9.1533 0.0000 0.0000
# 5 0.0000 0.0000 0.0000 0.0000 13.2298 0.0000
# 6 0.0000 0.0000 0.0000 0.0000 0.0000 24.4402
#
#
#
# Elastic Compliance Matrix: (Units=1/GPa)
#
#
# Indices 1 2 3 4 5 6 
#
# 1 0.017869 -0.002824 -0.001106 0.000000 0.000000 0.000000
# 2 -0.002824 0.010463 -0.006238 0.000000 0.000000 0.000000
# 3 -0.001106 -0.006238 0.015905 0.000000 0.000000 0.000000
# 4 0.000000 0.000000 0.000000 0.109250 0.000000 0.000000
# 5 0.000000 0.000000 0.000000 0.000000 0.075587 0.000000
# 6 0.000000 0.000000 0.000000 0.000000 0.000000 0.040916
#
#
# Mechanical properties :
#
#
# Convention : Reuss Voigt Hill
#
# Bulk Modulus (GPa) = 41.83831 51.89045 46.86438
# Shear Modulus (GPa) = 16.76201 21.87014 19.31607
#
# Velocity S-wave (km/s) = 3.01210 3.44058 3.23345
# Velocity P-wave (km/s) = 5.89430 6.62346 6.26949
#
# Compressibility (1/GPa) = 0.02390154
#
# Stress axis : x y z
#
# Youngs Moduli (GPa) = 55.96321 95.57317 62.87261
#
# Poissons Ratio (x) = 0.26989 0.06956
# Poissons Ratio (y) = 0.15803 0.39218
# Poissons Ratio (z) = 0.06191 0.59615
#
# Static dielectric constant tensor:
#      x y z
#    x 1.708060 0.000000 0.000000 
#    y 0.000000 1.667510 0.000000 
#    z 0.000000 0.000000 1.634870 
# 
# From -- ./inp_files/28158.got.cif
#   From: 2010.05.17/outbox.cif.g08.bks.cpg/sg72_15_cif.got.tgz:28158.got - 2010.06.03 17:03:01.
