data_PCOD9527061
_publ_section_title
;
Structure prediction by ZEFSAII (Michael W. Deem and Ramdas Pophale) SiO2 
 PCOD9527061
Probable space group: I B A M
;
_chemical_formula_sum "Si O2"
_cell_formula_units_Z 96
_cell_length_a 25.704111
_cell_length_b 23.963557
_cell_length_c 8.667814
_cell_angle_alpha 90.000000
_cell_angle_beta 90.000000
_cell_angle_gamma 90.000000
_cell_volume 5339.043432
_symmetry_space_group_name_H-M "I B A M"
_symmetry_group_IT_number 72
_symmetry_cell_setting 'orthorhombic'
loop_
_space_group_symop_operation_xyz
x,y,z
-x,-y,z
x,-y,1/2-z
-x,y,1/2-z
-x,-y,-z
x,y,-z
-x,y,1/2+z
x,-y,1/2+z
1/2+x,1/2+y,1/2+z
1/2-x,1/2-y,1/2+z
1/2+x,1/2-y,-z
1/2-x,1/2+y,-z
1/2-x,1/2-y,1/2-z
1/2+x,1/2+y,1/2-z
1/2-x,1/2+y,z
1/2+x,1/2-y,z
loop_
_atom_site_type_symbol
_atom_site_label
_atom_site_fract_x
_atom_site_fract_y
_atom_site_fract_z
Si Si1 0.942841 0.438897 0.185270
Si Si2 0.308474 0.746086 0.816517
Si Si3 0.057649 0.939378 0.684488
Si Si4 0.849431 0.869199 0.315990
Si Si5 0.652745 0.860525 0.815281
Si Si6 0.747255 0.561835 0.684400
O O1 0.928356 0.500000 0.250000
O O2 0.899628 0.393380 0.228141
O O3 0.000000 0.425446 0.250000
O O4 0.945103 0.442374 0.000000
O O5 0.250000 0.750000 0.750000
O O6 0.336271 0.692556 0.743255
O O7 0.338010 0.802745 0.771436
O O8 0.305515 0.739351 0.000000
O O9 0.056058 0.941914 0.500000
O O10 0.098318 0.893685 0.741812
O O11 0.000000 0.928628 0.750000
O O12 0.074093 0.000000 0.750000
O O13 0.853358 0.869880 0.500000
O O14 0.802024 0.908541 0.261754
O O15 0.701765 0.900930 0.784659
O O16 0.651651 0.849979 0.000000
O O17 0.754025 0.500000 0.750000
O O18 0.739451 0.559673 0.500000
#
# Coordination Sequence:
#
# PCOD9527061 Si02
#       6
#    16  16  16  16  16  16
#     4  10  20  36  59  87 119 157 197 243 294 350
#     4  12  24  40  62  87 117 157 200 244 298 358
#     4  11  22  40  64  92 124 160 201 246 299 357
#     4  12  24  40  61  87 119 157 201 247 297 353
#     4  10  22  39  59  84 117 155 199 245 295 354
#     4  11  22  36  56  84 119 153 192 242 299 358
#
# _framework density 17.980747999999998
#
# number of rings (size 3 to 8) (size 9 to 14) (size 15 to 20)
#    0.000    1.000    1.667    7.500    0.000    2.000 
#    0.000    0.833    0.000    2.000    0.000    0.000 
#    0.000    0.000    0.000    0.000    0.000    0.000 
#
# Total GULP energy -268508.422886 kJ/mol
# GULP energy per Si atom -5593.925477 kJ/mol
# Density = 1.793982 g / cm^3
# Si number density = 17.980748 Si / 1000 Ang^3
#
#
#
# Elastic Constant Matrix: (Units=GPa)
#
#
# Indices 1 2 3 4 5 6 
#
# 1 102.0488 74.4588 60.6703 0.0000 0.0000 0.0000
# 2 74.4588 140.5737 73.7399 0.0000 0.0000 0.0000
# 3 60.6703 73.7399 143.7141 0.0000 0.0000 0.0000
# 4 0.0000 0.0000 0.0000 24.5891 0.0000 0.0000
# 5 0.0000 0.0000 0.0000 0.0000 29.6170 0.0000
# 6 0.0000 0.0000 0.0000 0.0000 0.0000 16.0620
#
#
#
# Elastic Compliance Matrix: (Units=1/GPa)
#
#
# Indices 1 2 3 4 5 6 
#
# 1 0.017193 -0.007251 -0.003538 0.000000 0.000000 0.000000
# 2 -0.007251 0.012792 -0.003502 0.000000 0.000000 0.000000
# 3 -0.003538 -0.003502 0.010249 0.000000 0.000000 0.000000
# 4 0.000000 0.000000 0.000000 0.040668 0.000000 0.000000
# 5 0.000000 0.000000 0.000000 0.000000 0.033764 0.000000
# 6 0.000000 0.000000 0.000000 0.000000 0.000000 0.062259
#
#
# Mechanical properties :
#
#
# Convention : Reuss Voigt Hill
#
# Bulk Modulus (GPa) = 85.82673 89.34161 87.58417
# Shear Modulus (GPa) = 23.87876 25.88479 24.88178
#
# Velocity S-wave (km/s) = 3.64815 3.79830 3.72398
# Velocity P-wave (km/s) = 8.09824 8.30851 8.20405
#
# Compressibility (1/GPa) = 0.01165138
#
# Stress axis : x y z
#
# Youngs Moduli (GPa) = 58.16264 78.17620 97.57266
#
# Poissons Ratio (x) = 0.56686 0.34518
# Poissons Ratio (y) = 0.42174 0.34173
# Poissons Ratio (z) = 0.20576 0.27380
#
# Static dielectric constant tensor:
#      x y z
#    x 1.595280 0.000000 0.000000 
#    y 0.000000 1.588040 0.000000 
#    z 0.000000 0.000000 1.604020 
# 
# From -- ./inp_files/6972.got.cif
#   From: 2010.05.17/outbox.cif.g08.bks.cpg/sg72_4_cif.got.tgz:6972.got - 2010.06.03 17:03:01.
