data_PCOD9527585
_publ_section_title
;
Structure prediction by ZEFSAII (Michael W. Deem and Ramdas Pophale) SiO2 
 PCOD9527585
Probable space group: I B A M
;
_chemical_formula_sum "Si O2"
_cell_formula_units_Z 80
_cell_length_a 22.898030
_cell_length_b 7.460335
_cell_length_c 23.504434
_cell_angle_alpha 90.000000
_cell_angle_beta 90.000000
_cell_angle_gamma 90.000000
_cell_volume 4015.191351
_symmetry_space_group_name_H-M "I B A M"
_symmetry_group_IT_number 72
_symmetry_cell_setting 'orthorhombic'
loop_
_space_group_symop_operation_xyz
x,y,z
-x,-y,z
x,-y,1/2-z
-x,y,1/2-z
-x,-y,-z
x,y,-z
-x,y,1/2+z
x,-y,1/2+z
1/2+x,1/2+y,1/2+z
1/2-x,1/2-y,1/2+z
1/2+x,1/2-y,-z
1/2-x,1/2+y,-z
1/2-x,1/2-y,1/2-z
1/2+x,1/2+y,1/2-z
1/2-x,1/2+y,z
1/2+x,1/2-y,z
loop_
_atom_site_type_symbol
_atom_site_label
_atom_site_fract_x
_atom_site_fract_y
_atom_site_fract_z
Si Si1 0.170013 0.058331 0.500000
Si Si2 0.349596 0.839832 0.408446
Si Si3 0.667156 0.735708 0.697937
Si Si4 0.309914 0.869334 0.000000
Si Si5 0.712879 0.632169 0.821740
Si Si6 0.568639 0.982069 0.681699
O O1 0.139940 0.165234 0.552315
O O2 0.239080 0.117018 0.500000
O O3 0.170725 0.840658 0.500000
O O4 0.295479 0.772477 0.371333
O O5 0.334052 0.013668 0.446408
O O6 0.399302 0.885241 0.362232
O O7 0.677594 0.692659 0.764873
O O8 0.685612 0.558264 0.664951
O O9 0.718296 0.881372 0.689673
O O10 0.604890 0.797951 0.675572
O O11 0.500000 0.000000 0.671431
O O12 0.577350 0.000000 0.750000
#
# Coordination Sequence:
#
# PCOD9527585 Si02
#       6
#     8  16  16   8  16  16
#     4  11  25  42  61 102 135 170 227 283 359 402
#     4  11  24  42  67  97 135 177 227 275 348 407
#     4  10  21  35  57 100 138 169 209 269 340 412
#     4  11  25  42  67 100 134 179 219 292 348 410
#     4  10  21  34  62 100 134 167 211 274 345 416
#     4  11  24  44  68  96 137 185 233 275 331 411
#
# _framework density 19.924330000000001
#
# number of rings (size 3 to 8) (size 9 to 14) (size 15 to 20)
#    0.000    1.400    4.000    1.200   11.200    0.000 
#    0.000    3.000    0.000    1.200    0.000    0.000 
#    0.000    0.000    0.000    0.000    0.000    0.000 
#
# Total GULP energy -222782.735201 kJ/mol
# GULP energy per Si atom -5569.568380 kJ/mol
# Density = 1.987898 g / cm^3
# Si number density = 19.924330 Si / 1000 Ang^3
#
#
#
# Elastic Constant Matrix: (Units=GPa)
#
#
# Indices 1 2 3 4 5 6 
#
# 1 105.1864 49.8670 35.0228 0.0000 0.0000 0.0000
# 2 49.8670 166.4962 54.2789 0.0000 0.0000 0.0000
# 3 35.0228 54.2789 107.1549 0.0000 0.0000 0.0000
# 4 0.0000 0.0000 0.0000 26.9064 0.0000 0.0000
# 5 0.0000 0.0000 0.0000 0.0000 17.0057 0.0000
# 6 0.0000 0.0000 0.0000 0.0000 0.0000 15.1360
#
#
#
# Elastic Compliance Matrix: (Units=1/GPa)
#
#
# Indices 1 2 3 4 5 6 
#
# 1 0.011586 -0.002678 -0.002430 0.000000 0.000000 0.000000
# 2 -0.002678 0.007813 -0.003082 0.000000 0.000000 0.000000
# 3 -0.002430 -0.003082 0.011688 0.000000 0.000000 0.000000
# 4 0.000000 0.000000 0.000000 0.037166 0.000000 0.000000
# 5 0.000000 0.000000 0.000000 0.000000 0.058804 0.000000
# 6 0.000000 0.000000 0.000000 0.000000 0.000000 0.066068
#
#
# Mechanical properties :
#
#
# Convention : Reuss Voigt Hill
#
# Bulk Modulus (GPa) = 68.00073 73.01942 70.51007
# Shear Modulus (GPa) = 23.32017 27.78756 25.55387
#
# Velocity S-wave (km/s) = 3.42488 3.73856 3.58515
# Velocity P-wave (km/s) = 7.05998 7.44068 7.25283
#
# Compressibility (1/GPa) = 0.01470573
#
# Stress axis : x y z
#
# Youngs Moduli (GPa) = 86.31440 127.99118 85.55769
#
# Poissons Ratio (x) = 0.34272 0.20793
# Poissons Ratio (y) = 0.23112 0.26373
# Poissons Ratio (z) = 0.20977 0.39453
#
# Static dielectric constant tensor:
#      x y z
#    x 1.685300 0.000000 0.000000 
#    y 0.000000 1.761580 0.000000 
#    z 0.000000 0.000000 1.833960 
# 
# From -- ./inp_files/45204.got.cif
#   From: 2010.05.17/outbox.cif.g08.bks.cpg/sg72_23_cif.got.tgz:45204.got - 2010.06.03 17:03:01.
