data_PCOD9527197
_publ_section_title
;
Structure prediction by ZEFSAII (Michael W. Deem and Ramdas Pophale) SiO2 
 PCOD9527197
Probable space group: I B A M
;
_chemical_formula_sum "Si O2"
_cell_formula_units_Z 96
_cell_length_a 20.586314
_cell_length_b 27.644955
_cell_length_c 8.598141
_cell_angle_alpha 90.000000
_cell_angle_beta 90.000000
_cell_angle_gamma 90.000000
_cell_volume 4893.268456
_symmetry_space_group_name_H-M "I B A M"
_symmetry_group_IT_number 72
_symmetry_cell_setting 'orthorhombic'
loop_
_space_group_symop_operation_xyz
x,y,z
-x,-y,z
x,-y,1/2-z
-x,y,1/2-z
-x,-y,-z
x,y,-z
-x,y,1/2+z
x,-y,1/2+z
1/2+x,1/2+y,1/2+z
1/2-x,1/2-y,1/2+z
1/2+x,1/2-y,-z
1/2-x,1/2+y,-z
1/2-x,1/2-y,1/2-z
1/2+x,1/2+y,1/2-z
1/2-x,1/2+y,z
1/2+x,1/2-y,z
loop_
_atom_site_type_symbol
_atom_site_label
_atom_site_fract_x
_atom_site_fract_y
_atom_site_fract_z
Si Si1 0.430485 0.054789 0.686522
Si Si2 0.571697 0.630851 0.686196
Si Si3 0.327533 0.552536 0.314388
Si Si4 0.929476 0.238251 0.813304
Si Si5 0.299154 0.789885 0.686945
Si Si6 0.299796 0.100228 0.812487
O O1 0.500000 0.072766 0.750000
O O2 0.431056 0.054064 0.500000
O O3 0.370165 0.085231 0.750044
O O4 0.423005 0.000000 0.750000
O O5 0.500000 0.618504 0.750000
O O6 0.571257 0.630848 0.500000
O O7 0.624009 0.593138 0.748945
O O8 0.586039 0.685051 0.746240
O O9 0.346126 0.500000 0.250000
O O10 0.329211 0.552476 0.500000
O O11 0.255460 0.565640 0.255476
O O12 0.872124 0.274520 0.768001
O O13 0.000000 0.252578 0.750000
O O14 0.932469 0.234863 0.000000
O O15 0.295797 0.788804 0.500000
O O16 0.250000 0.750000 0.750000
O O17 0.284343 0.844579 0.736154
O O18 0.299299 0.097416 0.000000
#
# Coordination Sequence:
#
# PCOD9527197 Si02
#       6
#    16  16  16  16  16  16
#     4  11  22  39  62  89 119 156 196 242 293 350
#     4  11  22  39  62  90 120 156 195 239 290 347
#     4  12  25  42  62  88 118 154 196 243 293 349
#     4  10  20  37  59  87 118 154 195 239 287 344
#     4  10  23  39  59  85 117 153 195 241 290 345
#     4  11  23  41  61  87 120 157 197 243 294 350
#
# _framework density 19.618787999999999
#
# number of rings (size 3 to 8) (size 9 to 14) (size 15 to 20)
#    0.000    1.167    0.000    8.500    0.000    6.333 
#    0.000    3.333    0.000    0.000    0.000    0.000 
#    0.000    0.000    0.000    0.000    0.000    0.000 
#
# Total GULP energy -268548.424561 kJ/mol
# GULP energy per Si atom -5594.758845 kJ/mol
# Density = 1.957413 g / cm^3
# Si number density = 19.618788 Si / 1000 Ang^3
#
#
#
# Elastic Constant Matrix: (Units=GPa)
#
#
# Indices 1 2 3 4 5 6 
#
# 1 37.0015 1.5351 14.7162 0.0000 0.0000 0.0000
# 2 1.5351 31.0325 10.4255 0.0000 0.0000 0.0000
# 3 14.7162 10.4255 125.0420 0.0000 0.0000 0.0000
# 4 0.0000 0.0000 0.0000 18.1828 0.0000 0.0000
# 5 0.0000 0.0000 0.0000 0.0000 39.9244 0.0000
# 6 0.0000 0.0000 0.0000 0.0000 0.0000 60.3917
#
#
#
# Elastic Compliance Matrix: (Units=1/GPa)
#
#
# Indices 1 2 3 4 5 6 
#
# 1 0.028356 -0.000290 -0.003313 0.000000 0.000000 0.000000
# 2 -0.000290 0.033156 -0.002730 0.000000 0.000000 0.000000
# 3 -0.003313 -0.002730 0.008615 0.000000 0.000000 0.000000
# 4 0.000000 0.000000 0.000000 0.054997 0.000000 0.000000
# 5 0.000000 0.000000 0.000000 0.000000 0.025047 0.000000
# 6 0.000000 0.000000 0.000000 0.000000 0.000000 0.016559
#
#
# Mechanical properties :
#
#
# Convention : Reuss Voigt Hill
#
# Bulk Modulus (GPa) = 17.40330 27.38107 22.39219
# Shear Modulus (GPa) = 25.18276 34.79308 29.98792
#
# Velocity S-wave (km/s) = 3.58663 4.21581 3.91388
# Velocity P-wave (km/s) = 5.10312 6.13875 5.64474
#
# Compressibility (1/GPa) = 0.05746036
#
# Stress axis : x y z
#
# Youngs Moduli (GPa) = 35.26644 30.16056 116.07840
#
# Poissons Ratio (x) = 0.00874 0.38457
# Poissons Ratio (y) = 0.01021 0.31693
# Poissons Ratio (z) = 0.11684 0.08235
#
# Static dielectric constant tensor:
#      x y z
#    x 1.678470 0.000000 0.000000 
#    y 0.000000 1.667830 0.000000 
#    z 0.000000 0.000000 1.657490 
# 
# From -- ./inp_files/5958.got.cif
#   From: 2010.05.17/outbox.cif.g08.bks.cpg/sg72_3_cif.got.tgz:5958.got - 2010.06.03 17:03:01.
