data_PCOD9527455
_publ_section_title
;
Structure prediction by ZEFSAII (Michael W. Deem and Ramdas Pophale) SiO2 
 PCOD9527455
Probable space group: I B A M
;
_chemical_formula_sum "Si O2"
_cell_formula_units_Z 112
_cell_length_a 16.818653
_cell_length_b 13.729007
_cell_length_c 22.685224
_cell_angle_alpha 90.000000
_cell_angle_beta 90.000000
_cell_angle_gamma 90.000000
_cell_volume 5238.095460
_symmetry_space_group_name_H-M "I B A M"
_symmetry_group_IT_number 72
_symmetry_cell_setting 'orthorhombic'
loop_
_space_group_symop_operation_xyz
x,y,z
-x,-y,z
x,-y,1/2-z
-x,y,1/2-z
-x,-y,-z
x,y,-z
-x,y,1/2+z
x,-y,1/2+z
1/2+x,1/2+y,1/2+z
1/2-x,1/2-y,1/2+z
1/2+x,1/2-y,-z
1/2-x,1/2+y,-z
1/2-x,1/2-y,1/2-z
1/2+x,1/2+y,1/2-z
1/2-x,1/2+y,z
1/2+x,1/2-y,z
loop_
_atom_site_type_symbol
_atom_site_label
_atom_site_fract_x
_atom_site_fract_y
_atom_site_fract_z
Si Si1 0.529536 0.790662 0.933333
Si Si2 0.302013 0.234698 0.369116
Si Si3 0.301113 0.107490 0.068102
Si Si4 0.693271 0.586800 0.204272
Si Si5 0.566796 0.690666 0.713949
Si Si6 0.044037 0.915487 0.130961
Si Si7 0.615560 0.083479 0.933003
O O1 0.617912 0.831672 0.935588
O O2 0.539202 0.689282 0.899564
O O3 0.469572 0.875921 0.910800
O O4 0.500865 0.770466 0.000000
O O5 0.256309 0.331926 0.388819
O O6 0.256042 0.160324 0.325481
O O7 0.384581 0.259481 0.337598
O O8 0.325546 0.174901 0.427286
O O9 0.333398 0.005038 0.094028
O O10 0.270116 0.096024 0.000000
O O11 0.718603 0.500000 0.250000
O O12 0.635150 0.653816 0.243218
O O13 0.632374 0.554936 0.151843
O O14 0.500000 0.750668 0.750000
O O15 0.514798 0.603401 0.686509
O O16 0.000000 0.000000 0.095143
O O17 0.601358 0.051043 0.000000
#
# Coordination Sequence:
#
# PCOD9527455 Si02
#       7
#    16  16  16  16  16  16  16
#     4  10  20  40  64  91 124 165 219 266 318 394
#     4  12  23  40  66  93 130 166 208 272 323 389
#     4  10  22  40  65  96 128 167 213 265 328 395
#     4  11  23  39  62  92 121 164 210 266 321 382
#     4  10  23  40  60  86 120 166 219 260 318 378
#     4  11  20  38  64  88 122 168 214 262 323 393
#     4  10  22  40  64  94 128 168 211 261 326 399
#
# _framework density 21.381817999999999
#
# number of rings (size 3 to 8) (size 9 to 14) (size 15 to 20)
#    0.000    1.429    4.286    1.286    2.000    2.000 
#    0.000    0.000    0.000    0.000    0.000    0.000 
#    0.000    0.000    0.000    0.000    0.000    0.000 
#
# Total GULP energy -311821.670318 kJ/mol
# GULP energy per Si atom -5568.244113 kJ/mol
# Density = 2.133315 g / cm^3
# Si number density = 21.381818 Si / 1000 Ang^3
#
#
#
# Elastic Constant Matrix: (Units=GPa)
#
#
# Indices 1 2 3 4 5 6 
#
# 1 85.0915 33.4579 24.0941 0.0000 0.0000 0.0000
# 2 33.4579 94.9093 30.6596 0.0000 0.0000 0.0000
# 3 24.0941 30.6596 52.6533 0.0000 0.0000 0.0000
# 4 0.0000 0.0000 0.0000 27.2693 0.0000 0.0000
# 5 0.0000 0.0000 0.0000 0.0000 25.0728 0.0000
# 6 0.0000 0.0000 0.0000 0.0000 0.0000 28.6510
#
#
#
# Elastic Compliance Matrix: (Units=1/GPa)
#
#
# Indices 1 2 3 4 5 6 
#
# 1 0.014458 -0.003645 -0.004493 0.000000 0.000000 0.000000
# 2 -0.003645 0.013897 -0.006424 0.000000 0.000000 0.000000
# 3 -0.004493 -0.006424 0.024789 0.000000 0.000000 0.000000
# 4 0.000000 0.000000 0.000000 0.036671 0.000000 0.000000
# 5 0.000000 0.000000 0.000000 0.000000 0.039884 0.000000
# 6 0.000000 0.000000 0.000000 0.000000 0.000000 0.034903
#
#
# Mechanical properties :
#
#
# Convention : Reuss Voigt Hill
#
# Bulk Modulus (GPa) = 41.63455 45.45302 43.54378
# Shear Modulus (GPa) = 24.78541 25.82812 25.30676
#
# Velocity S-wave (km/s) = 3.40837 3.47932 3.44403
# Velocity P-wave (km/s) = 5.91638 6.11922 6.01865
#
# Compressibility (1/GPa) = 0.02401851
#
# Stress axis : x y z
#
# Youngs Moduli (GPa) = 69.16767 71.96035 40.34075
#
# Poissons Ratio (x) = 0.26231 0.18126
# Poissons Ratio (y) = 0.25213 0.25914
# Poissons Ratio (z) = 0.31079 0.46226
#
# Static dielectric constant tensor:
#      x y z
#    x 1.796260 0.000000 0.000000 
#    y 0.000000 1.831320 0.000000 
#    z 0.000000 0.000000 1.891510 
# 
# From -- ./inp_files/44359.got.cif
#   From: 2010.05.17/outbox.cif.g08.bks.cpg/sg72_23_cif.got.tgz:44359.got - 2010.06.03 17:03:01.
