data_PCOD9527702
_publ_section_title
;
Structure prediction by ZEFSAII (Michael W. Deem and Ramdas Pophale) SiO2 
 PCOD9527702
Probable space group: I B A M
;
_chemical_formula_sum "Si O2"
_cell_formula_units_Z 116
_cell_length_a 18.195612
_cell_length_b 17.736237
_cell_length_c 17.823349
_cell_angle_alpha 90.000000
_cell_angle_beta 90.000000
_cell_angle_gamma 90.000000
_cell_volume 5751.981254
_symmetry_space_group_name_H-M "I B A M"
_symmetry_group_IT_number 72
_symmetry_cell_setting 'orthorhombic'
loop_
_space_group_symop_operation_xyz
x,y,z
-x,-y,z
x,-y,1/2-z
-x,y,1/2-z
-x,-y,-z
x,y,-z
-x,y,1/2+z
x,-y,1/2+z
1/2+x,1/2+y,1/2+z
1/2-x,1/2-y,1/2+z
1/2+x,1/2-y,-z
1/2-x,1/2+y,-z
1/2-x,1/2-y,1/2-z
1/2+x,1/2+y,1/2-z
1/2-x,1/2+y,z
1/2+x,1/2-y,z
loop_
_atom_site_type_symbol
_atom_site_label
_atom_site_fract_x
_atom_site_fract_y
_atom_site_fract_z
Si Si1 0.463139 0.867033 0.585011
Si Si2 0.630909 0.070222 0.696438
Si Si3 0.500000 0.500000 0.750000
Si Si4 0.200712 0.063330 0.847198
Si Si5 0.569608 0.204085 0.201703
Si Si6 0.630686 0.587076 0.184120
Si Si7 0.656590 0.268920 0.585105
Si Si8 0.824873 0.785899 0.914479
O O1 0.483538 0.880435 0.500000
O O2 0.423296 0.935090 0.626359
O O3 0.530201 0.843477 0.636671
O O4 0.401463 0.799822 0.587399
O O5 0.712903 0.069145 0.665557
O O6 0.612349 0.146583 0.743139
O O7 0.620303 0.000000 0.750000
O O8 0.449880 0.446803 0.801795
O O9 0.165703 0.087597 0.767171
O O10 0.175810 0.123706 0.907887
O O11 0.175576 0.977694 0.860297
O O12 0.500000 0.237559 0.250000
O O13 0.624328 0.256429 0.153859
O O14 0.635320 0.666872 0.144134
O O15 0.653299 0.299557 0.500000
O O16 0.740499 0.241527 0.597656
O O17 0.847080 0.763573 0.000000
#
# Coordination Sequence:
#
# PCOD9527702 Si02
#       8
#    16  16   4  16  16  16  16  16
#     4  10  22  41  61  88 126 159 195 254 317 370
#     4  11  21  40  63  89 118 158 212 253 300 362
#     4   8  20  40  54  84 124 160 196 254 304 364
#     4  10  21  36  61  89 121 156 199 256 302 348
#     4  10  24  39  61  94 120 160 205 252 301 367
#     4  10  21  38  59  91 121 155 206 248 300 364
#     4  10  22  39  63  90 121 158 201 253 305 359
#     4  11  23  40  62  92 125 160 203 252 307 366
#
# _framework density 20.166964
#
# number of rings (size 3 to 8) (size 9 to 14) (size 15 to 20)
#    0.000    1.931    2.759    1.241    3.862    6.345 
#    1.241    2.414    0.000    0.000    0.000    0.000 
#    0.000    0.000    0.000    0.000    0.000    0.000 
#
# Total GULP energy -323726.957569 kJ/mol
# GULP energy per Si atom -5581.499268 kJ/mol
# Density = 2.012106 g / cm^3
# Si number density = 20.166964 Si / 1000 Ang^3
#
#
#
# Elastic Constant Matrix: (Units=GPa)
#
#
# Indices 1 2 3 4 5 6 
#
# 1 64.7056 -4.7120 -3.9085 0.0000 0.0000 0.0000
# 2 -4.7120 39.7232 -1.8790 0.0000 0.0000 0.0000
# 3 -3.9085 -1.8790 67.8385 0.0000 0.0000 0.0000
# 4 0.0000 0.0000 0.0000 46.9414 0.0000 0.0000
# 5 0.0000 0.0000 0.0000 0.0000 33.8934 0.0000
# 6 0.0000 0.0000 0.0000 0.0000 0.0000 20.6034
#
#
#
# Elastic Compliance Matrix: (Units=1/GPa)
#
#
# Indices 1 2 3 4 5 6 
#
# 1 0.015651 0.001902 0.000954 0.000000 0.000000 0.000000
# 2 0.001902 0.025438 0.000814 0.000000 0.000000 0.000000
# 3 0.000954 0.000814 0.014818 0.000000 0.000000 0.000000
# 4 0.000000 0.000000 0.000000 0.021303 0.000000 0.000000
# 5 0.000000 0.000000 0.000000 0.000000 0.029504 0.000000
# 6 0.000000 0.000000 0.000000 0.000000 0.000000 0.048536
#
#
# Mechanical properties :
#
#
# Convention : Reuss Voigt Hill
#
# Bulk Modulus (GPa) = 15.81082 16.80760 16.30921
# Shear Modulus (GPa) = 29.58706 32.47210 31.02958
#
# Velocity S-wave (km/s) = 3.83444 4.01704 3.92680
# Velocity P-wave (km/s) = 5.24031 5.46514 5.35391
#
# Compressibility (1/GPa) = 0.06324781
#
# Stress axis : x y z
#
# Youngs Moduli (GPa) = 63.89472 39.31084 67.48354
#
# Poissons Ratio (x) = -0.07475 -0.06441
# Poissons Ratio (y) = -0.12150 -0.05494
# Poissons Ratio (z) = -0.06098 -0.03201
#
# Static dielectric constant tensor:
#      x y z
#    x 1.752200 0.000000 0.000000 
#    y 0.000000 1.734680 0.000000 
#    z 0.000000 0.000000 1.715410 
# 
# From -- ./inp_files/31749.got.cif
#   From: 2010.05.17/outbox.cif.g08.bks.cpg/sg72_16_cif.got.tgz:31749.got - 2010.06.03 17:03:01.
