data_PCOD9527741
_publ_section_title
;
Structure prediction by ZEFSAII (Michael W. Deem and Ramdas Pophale) SiO2 
 PCOD9527741
Probable space group: I B A M
;
_chemical_formula_sum "Si O2"
_cell_formula_units_Z 64
_cell_length_a 19.456087
_cell_length_b 8.125536
_cell_length_c 14.853169
_cell_angle_alpha 90.000000
_cell_angle_beta 90.000000
_cell_angle_gamma 90.000000
_cell_volume 2348.154351
_symmetry_space_group_name_H-M "I B A M"
_symmetry_group_IT_number 72
_symmetry_cell_setting 'orthorhombic'
loop_
_space_group_symop_operation_xyz
x,y,z
-x,-y,z
x,-y,1/2-z
-x,y,1/2-z
-x,-y,-z
x,y,-z
-x,y,1/2+z
x,-y,1/2+z
1/2+x,1/2+y,1/2+z
1/2-x,1/2-y,1/2+z
1/2+x,1/2-y,-z
1/2-x,1/2+y,-z
1/2-x,1/2-y,1/2-z
1/2+x,1/2+y,1/2-z
1/2-x,1/2+y,z
1/2+x,1/2-y,z
loop_
_atom_site_type_symbol
_atom_site_label
_atom_site_fract_x
_atom_site_fract_y
_atom_site_fract_z
Si Si1 0.855511 0.979261 0.142280
Si Si2 0.233365 0.718903 0.146392
Si Si3 0.896811 0.554588 0.391073
Si Si4 0.480631 0.268426 0.392485
O O1 0.806558 0.831670 0.106873
O O2 0.934092 0.929229 0.124705
O O3 0.851365 0.000000 0.250000
O O4 0.814421 0.138088 0.105887
O O5 0.250000 0.750000 0.250000
O O6 0.180660 0.566187 0.141958
O O7 0.895995 0.555710 0.500000
O O8 0.933863 0.387045 0.362650
O O9 0.944146 0.709802 0.357997
O O10 0.487542 0.263817 0.500000
#
# Coordination Sequence:
#
# PCOD9527741 Si02
#       4
#    16  16  16  16
#     4  10  21  37  58  84 121 163 206 252 301 360
#     4  10  21  37  56  82 120 164 205 248 299 362
#     4   9  19  38  64  91 121 157 199 252 313 371
#     4   9  19  38  64  93 122 154 198 254 313 373
#
# _framework density 27.255451000000001
#
# number of rings (size 3 to 8) (size 9 to 14) (size 15 to 20)
#    0.000    2.500    0.000    3.000    0.000    5.000 
#    0.000   11.250    0.000   12.000    0.000    0.000 
#    0.000    0.000    0.000    0.000    0.000    0.000 
#
# Total GULP energy -178881.848433 kJ/mol
# GULP energy per Si atom -5590.057764 kJ/mol
# Density = 2.719342 g / cm^3
# Si number density = 27.255451 Si / 1000 Ang^3
#
#
#
# Elastic Constant Matrix: (Units=GPa)
#
#
# Indices 1 2 3 4 5 6 
#
# 1 228.8635 25.6499 10.3870 0.0000 0.0000 0.0000
# 2 25.6499 82.4574 2.9597 0.0000 0.0000 0.0000
# 3 10.3870 2.9597 90.6589 0.0000 0.0000 0.0000
# 4 0.0000 0.0000 0.0000 19.4220 0.0000 0.0000
# 5 0.0000 0.0000 0.0000 0.0000 30.8858 0.0000
# 6 0.0000 0.0000 0.0000 0.0000 0.0000 55.2822
#
#
#
# Elastic Compliance Matrix: (Units=1/GPa)
#
#
# Indices 1 2 3 4 5 6 
#
# 1 0.004548 -0.001398 -0.000475 0.000000 0.000000 0.000000
# 2 -0.001398 0.012571 -0.000250 0.000000 0.000000 0.000000
# 3 -0.000475 -0.000250 0.011093 0.000000 0.000000 0.000000
# 4 0.000000 0.000000 0.000000 0.051488 0.000000 0.000000
# 5 0.000000 0.000000 0.000000 0.000000 0.032377 0.000000
# 6 0.000000 0.000000 0.000000 0.000000 0.000000 0.018089
#
#
# Mechanical properties :
#
#
# Convention : Reuss Voigt Hill
#
# Bulk Modulus (GPa) = 41.72696 53.33033 47.52865
# Shear Modulus (GPa) = 35.11209 45.31688 40.21448
#
# Velocity S-wave (km/s) = 3.59313 4.08201 3.84535
# Velocity P-wave (km/s) = 5.70587 6.46733 6.09850
#
# Compressibility (1/GPa) = 0.02396532
#
# Stress axis : x y z
#
# Youngs Moduli (GPa) = 219.89502 79.54693 90.14692
#
# Poissons Ratio (x) = 0.11117 0.04286
# Poissons Ratio (y) = 0.30732 0.02256
# Poissons Ratio (z) = 0.10454 0.01991
#
# Static dielectric constant tensor:
#      x y z
#    x 2.081000 0.000000 0.000000 
#    y 0.000000 2.330820 0.000000 
#    z 0.000000 0.000000 1.997310 
# 
# From -- ./inp_files/38646.got.cif
#   From: 2010.05.17/outbox.cif.g08.bks.cpg/sg72_20_cif.got.tgz:38646.got - 2010.06.03 17:03:01.
