data_PCOD9527973
_publ_section_title
;
Structure prediction by ZEFSAII (Michael W. Deem and Ramdas Pophale) SiO2 
 PCOD9527973
Probable space group: I B A M
;
_chemical_formula_sum "Si O2"
_cell_formula_units_Z 116
_cell_length_a 12.845601
_cell_length_b 25.839243
_cell_length_c 16.964404
_cell_angle_alpha 90.000000
_cell_angle_beta 90.000000
_cell_angle_gamma 90.000000
_cell_volume 5630.835251
_symmetry_space_group_name_H-M "I B A M"
_symmetry_group_IT_number 72
_symmetry_cell_setting 'orthorhombic'
loop_
_space_group_symop_operation_xyz
x,y,z
-x,-y,z
x,-y,1/2-z
-x,y,1/2-z
-x,-y,-z
x,y,-z
-x,y,1/2+z
x,-y,1/2+z
1/2+x,1/2+y,1/2+z
1/2-x,1/2-y,1/2+z
1/2+x,1/2-y,-z
1/2-x,1/2+y,-z
1/2-x,1/2-y,1/2-z
1/2+x,1/2+y,1/2-z
1/2-x,1/2+y,z
1/2+x,1/2-y,z
loop_
_atom_site_type_symbol
_atom_site_label
_atom_site_fract_x
_atom_site_fract_y
_atom_site_fract_z
Si Si1 0.306721 0.053290 0.405071
Si Si2 0.624597 0.364605 0.592979
Si Si3 0.092720 0.091009 0.849540
Si Si4 0.400395 0.215772 0.697598
Si Si5 0.995946 0.620258 0.844585
Si Si6 0.684434 0.318710 0.252250
Si Si7 0.691281 0.936479 0.910138
Si Si8 0.500000 0.500000 0.750000
O O1 0.306562 0.051154 0.500000
O O2 0.208510 0.090234 0.385450
O O3 0.411568 0.079818 0.375492
O O4 0.305246 0.994415 0.374272
O O5 0.637639 0.351380 0.500000
O O6 0.509718 0.387172 0.608073
O O7 0.645158 0.318456 0.656194
O O8 0.131391 0.130970 0.783343
O O9 0.191537 0.083927 0.905210
O O10 0.065599 0.037582 0.806258
O O11 0.500000 0.228231 0.750000
O O12 0.449596 0.177201 0.632719
O O13 0.346273 0.271744 0.693524
O O14 0.308877 0.182708 0.739501
O O15 0.000000 0.619621 0.750000
O O16 0.108838 0.602570 0.872686
O O17 0.657370 0.941994 0.000000
#
# Coordination Sequence:
#
# PCOD9527973 Si02
#       8
#    16  16  16  16  16  16  16   4
#     4  10  22  40  60  89 130 174 216 262 327 392
#     4  11  22  40  64  90 129 174 216 265 325 397
#     4  12  23  39  62  94 132 169 218 271 322 384
#     4  10  21  38  67  94 118 162 214 264 328 384
#     4  11  22  39  63  93 123 162 219 271 319 391
#     4  11  22  42  67  93 129 165 214 276 325 387
#     4  11  25  40  61  92 135 181 214 267 334 395
#     4  12  24  36  66 100 134 172 230 280 314 394
#
# _framework density 20.600850999999999
#
# number of rings (size 3 to 8) (size 9 to 14) (size 15 to 20)
#    0.000    1.103    2.759    4.552    0.000    2.207 
#    0.000    2.759    0.000   37.241    0.000    0.000 
#    0.000    0.000    0.000    0.000    0.000    0.000 
#
# Total GULP energy -323402.481797 kJ/mol
# GULP energy per Si atom -5575.904859 kJ/mol
# Density = 2.055396 g / cm^3
# Si number density = 20.600851 Si / 1000 Ang^3
#
#
#
# Elastic Constant Matrix: (Units=GPa)
#
#
# Indices 1 2 3 4 5 6 
#
# 1 127.3269 38.5096 -1.4198 0.0000 0.0000 0.0000
# 2 38.5096 94.5521 27.1443 0.0000 0.0000 0.0000
# 3 -1.4198 27.1443 45.7029 0.0000 0.0000 0.0000
# 4 0.0000 0.0000 0.0000 23.8998 0.0000 0.0000
# 5 0.0000 0.0000 0.0000 0.0000 24.4481 0.0000
# 6 0.0000 0.0000 0.0000 0.0000 0.0000 28.9878
#
#
#
# Elastic Compliance Matrix: (Units=1/GPa)
#
#
# Indices 1 2 3 4 5 6 
#
# 1 0.009299 -0.004666 0.003060 0.000000 0.000000 0.000000
# 2 -0.004666 0.015091 -0.009108 0.000000 0.000000 0.000000
# 3 0.003060 -0.009108 0.027385 0.000000 0.000000 0.000000
# 4 0.000000 0.000000 0.000000 0.041841 0.000000 0.000000
# 5 0.000000 0.000000 0.000000 0.000000 0.040903 0.000000
# 6 0.000000 0.000000 0.000000 0.000000 0.000000 0.034497
#
#
# Mechanical properties :
#
#
# Convention : Reuss Voigt Hill
#
# Bulk Modulus (GPa) = 32.95143 44.00557 38.47850
# Shear Modulus (GPa) = 24.93009 29.02365 26.97687
#
# Velocity S-wave (km/s) = 3.48249 3.75755 3.62263
# Velocity P-wave (km/s) = 5.67453 6.34295 6.01802
#
# Compressibility (1/GPa) = 0.03034769
#
# Stress axis : x y z
#
# Youngs Moduli (GPa) = 107.53723 66.26329 36.51617
#
# Poissons Ratio (x) = 0.30918 -0.11174
# Poissons Ratio (y) = 0.50176 0.33259
# Poissons Ratio (z) = -0.32907 0.60353
#
# Static dielectric constant tensor:
#      x y z
#    x 1.725770 0.000000 0.000000 
#    y 0.000000 1.821880 0.000000 
#    z 0.000000 0.000000 1.753990 
# 
# From -- ./inp_files/29726.got.cif
#   From: 2010.05.17/outbox.cif.g08.bks.cpg/sg72_15_cif.got.tgz:29726.got - 2010.06.03 17:03:01.
