data_PCOD9527096
_publ_section_title
;
Structure prediction by ZEFSAII (Michael W. Deem and Ramdas Pophale) SiO2 
 PCOD9527096
Probable space group: I B A M
;
_chemical_formula_sum "Si O2"
_cell_formula_units_Z 60
_cell_length_a 16.224965
_cell_length_b 18.024941
_cell_length_c 10.184209
_cell_angle_alpha 90.000000
_cell_angle_beta 90.000000
_cell_angle_gamma 90.000000
_cell_volume 2978.413034
_symmetry_space_group_name_H-M "I B A M"
_symmetry_group_IT_number 72
_symmetry_cell_setting 'orthorhombic'
loop_
_space_group_symop_operation_xyz
x,y,z
-x,-y,z
x,-y,1/2-z
-x,y,1/2-z
-x,-y,-z
x,y,-z
-x,y,1/2+z
x,-y,1/2+z
1/2+x,1/2+y,1/2+z
1/2-x,1/2-y,1/2+z
1/2+x,1/2-y,-z
1/2-x,1/2+y,-z
1/2-x,1/2-y,1/2-z
1/2+x,1/2+y,1/2-z
1/2-x,1/2+y,z
1/2+x,1/2-y,z
loop_
_atom_site_type_symbol
_atom_site_label
_atom_site_fract_x
_atom_site_fract_y
_atom_site_fract_z
Si Si1 0.517090 0.239832 0.500000
Si Si2 0.792291 0.682344 0.500000
Si Si3 0.068228 0.905561 0.000000
Si Si4 0.500000 0.500000 0.750000
Si Si5 0.743969 0.846024 0.500000
Si Si6 0.500000 0.852099 0.750000
Si Si7 0.675446 0.085740 0.739318
O O1 0.613245 0.213044 0.500000
O O2 0.515536 0.328822 0.500000
O O3 0.479715 0.201976 0.628805
O O4 0.741268 0.757224 0.500000
O O5 0.779414 0.630464 0.375143
O O6 0.162956 0.878520 0.000000
O O7 0.049278 0.949549 0.861054
O O8 0.699030 0.876234 0.626468
O O9 0.421921 0.902568 0.715675
O O10 0.696502 0.000000 0.750000
#
# Coordination Sequence:
#
# PCOD9527096 Si02
#       7
#     8   8   8   4   8   8  16
#     4   9  18  34  58  83 116 155 203 250 294 366
#     4   9  21  39  55  84 119 160 204 254 297 368
#     4  10  22  40  62  91 116 158 204 254 314 369
#     4  10  22  42  64  84 124 148 202 266 316 360
#     4  11  23  39  62  87 127 162 211 249 311 365
#     4  10  20  36  60  88 126 160 208 244 303 367
#     4  11  22  38  61  91 126 164 204 255 309 364
#
# _framework density 20.144957000000002
#
# number of rings (size 3 to 8) (size 9 to 14) (size 15 to 20)
#    0.000    1.867    0.000    3.600    1.867    0.000 
#    0.000    8.000    0.000    0.000    0.000    0.000 
#    0.000    0.000    0.000    0.000    0.000    0.000 
#
# Total GULP energy -167354.135993 kJ/mol
# GULP energy per Si atom -5578.471200 kJ/mol
# Density = 2.009911 g / cm^3
# Si number density = 20.144957 Si / 1000 Ang^3
#
#
#
# Elastic Constant Matrix: (Units=GPa)
#
#
# Indices 1 2 3 4 5 6 
#
# 1 26.6352 19.8278 4.6516 0.0000 0.0000 0.0000
# 2 19.8278 187.8629 81.8981 0.0000 0.0000 0.0000
# 3 4.6516 81.8981 180.5504 0.0000 0.0000 0.0000
# 4 0.0000 0.0000 0.0000 41.2786 0.0000 0.0000
# 5 0.0000 0.0000 0.0000 0.0000 29.4113 0.0000
# 6 0.0000 0.0000 0.0000 0.0000 0.0000 40.3436
#
#
#
# Elastic Compliance Matrix: (Units=1/GPa)
#
#
# Indices 1 2 3 4 5 6 
#
# 1 0.040929 -0.004812 0.001128 0.000000 0.000000 0.000000
# 2 -0.004812 0.007201 -0.003142 0.000000 0.000000 0.000000
# 3 0.001128 -0.003142 0.006935 0.000000 0.000000 0.000000
# 4 0.000000 0.000000 0.000000 0.024226 0.000000 0.000000
# 5 0.000000 0.000000 0.000000 0.000000 0.034001 0.000000
# 6 0.000000 0.000000 0.000000 0.000000 0.000000 0.024787
#
#
# Mechanical properties :
#
#
# Convention : Reuss Voigt Hill
#
# Bulk Modulus (GPa) = 24.14692 67.53374 45.84033
# Shear Modulus (GPa) = 30.20524 41.45143 35.82834
#
# Velocity S-wave (km/s) = 3.87640 4.54106 4.22183
# Velocity P-wave (km/s) = 5.66109 7.81612 6.82421
#
# Compressibility (1/GPa) = 0.04141314
#
# Stress axis : x y z
#
# Youngs Moduli (GPa) = 24.43246 138.87444 144.19780
#
# Poissons Ratio (x) = 0.66821 -0.16267
# Poissons Ratio (y) = 0.11756 0.45311
# Poissons Ratio (z) = -0.02756 0.43639
#
# Static dielectric constant tensor:
#      x y z
#    x 1.739350 0.000000 0.000000 
#    y 0.000000 1.687970 0.000000 
#    z 0.000000 0.000000 1.682490 
# 
# From -- ./inp_files/4237.got.cif
#   From: 2010.05.17/outbox.cif.g08.bks.cpg/sg72_3_cif.got.tgz:4237.got - 2010.06.03 17:03:01.
