data_PCOD9527529
_publ_section_title
;
Structure prediction by ZEFSAII (Michael W. Deem and Ramdas Pophale) SiO2 
 PCOD9527529
Probable space group: I B A M
;
_chemical_formula_sum "Si O2"
_cell_formula_units_Z 112
_cell_length_a 10.852956
_cell_length_b 25.824962
_cell_length_c 20.505543
_cell_angle_alpha 90.000000
_cell_angle_beta 90.000000
_cell_angle_gamma 90.000000
_cell_volume 5747.235690
_symmetry_space_group_name_H-M "I B A M"
_symmetry_group_IT_number 72
_symmetry_cell_setting 'orthorhombic'
loop_
_space_group_symop_operation_xyz
x,y,z
-x,-y,z
x,-y,1/2-z
-x,y,1/2-z
-x,-y,-z
x,y,-z
-x,y,1/2+z
x,-y,1/2+z
1/2+x,1/2+y,1/2+z
1/2-x,1/2-y,1/2+z
1/2+x,1/2-y,-z
1/2-x,1/2+y,-z
1/2-x,1/2-y,1/2-z
1/2+x,1/2+y,1/2-z
1/2-x,1/2+y,z
1/2+x,1/2-y,z
loop_
_atom_site_type_symbol
_atom_site_label
_atom_site_fract_x
_atom_site_fract_y
_atom_site_fract_z
Si Si1 0.514085 0.262818 0.326317
Si Si2 0.208191 0.495144 0.073974
Si Si3 0.123602 0.618340 0.575156
Si Si4 0.310965 0.353247 0.808422
Si Si5 0.656851 0.887171 0.076320
Si Si6 0.129508 0.970609 0.192788
Si Si7 0.746574 0.304625 0.833238
O O1 0.500000 0.250551 0.250000
O O2 0.574820 0.319409 0.333236
O O3 0.372585 0.268798 0.349705
O O4 0.625938 0.225586 0.347565
O O5 0.121638 0.444682 0.076947
O O6 0.158378 0.551627 0.091620
O O7 0.313535 0.479879 0.123120
O O8 0.252500 0.498786 0.000000
O O9 0.161656 0.632141 0.500000
O O10 0.210104 0.639204 0.633642
O O11 0.982215 0.633646 0.585169
O O12 0.362805 0.410093 0.791617
O O13 0.262976 0.323754 0.742750
O O14 0.748217 0.855561 0.122223
O O15 0.688052 0.880986 0.000000
O O16 0.203262 0.000000 0.250000
O O17 0.000000 0.000000 0.189790
#
# Coordination Sequence:
#
# PCOD9527529 Si02
#       7
#    16  16  16  16  16  16  16
#     4  10  23  40  63  88 114 151 199 252 304 355
#     4   9  18  35  55  81 116 158 199 234 280 358
#     4   9  19  36  58  88 122 157 195 237 292 353
#     4  10  21  37  60  87 116 156 200 241 300 359
#     4  10  21  36  60  87 120 157 196 245 305 355
#     4  10  21  31  53  82 121 156 191 239 301 351
#     4  11  24  40  65  88 118 150 208 256 304 359
#
# _framework density 19.487629999999999
#
# number of rings (size 3 to 8) (size 9 to 14) (size 15 to 20)
#    0.000    2.143    0.000    3.000   12.000    2.000 
#    0.000    2.143    0.000    2.571    0.000    0.000 
#    0.000    0.000    0.000    0.000    0.000    0.000 
#
# Total GULP energy -311770.520037 kJ/mol
# GULP energy per Si atom -5567.330715 kJ/mol
# Density = 1.944328 g / cm^3
# Si number density = 19.487630 Si / 1000 Ang^3
#
#
#
# Elastic Constant Matrix: (Units=GPa)
#
#
# Indices 1 2 3 4 5 6 
#
# 1 84.1389 45.8826 40.9577 0.0000 0.0000 0.0000
# 2 45.8826 96.5038 31.7383 0.0000 0.0000 0.0000
# 3 40.9577 31.7383 29.2344 0.0000 0.0000 0.0000
# 4 0.0000 0.0000 0.0000 29.4740 0.0000 0.0000
# 5 0.0000 0.0000 0.0000 0.0000 10.9998 0.0000
# 6 0.0000 0.0000 0.0000 0.0000 0.0000 64.8701
#
#
#
# Elastic Compliance Matrix: (Units=1/GPa)
#
#
# Indices 1 2 3 4 5 6 
#
# 1 0.037419 -0.000854 -0.051497 0.000000 0.000000 0.000000
# 2 -0.000854 0.016136 -0.016321 0.000000 0.000000 0.000000
# 3 -0.051497 -0.016321 0.124073 0.000000 0.000000 0.000000
# 4 0.000000 0.000000 0.000000 0.033928 0.000000 0.000000
# 5 0.000000 0.000000 0.000000 0.000000 0.090911 0.000000
# 6 0.000000 0.000000 0.000000 0.000000 0.000000 0.015415
#
#
# Mechanical properties :
#
#
# Convention : Reuss Voigt Hill
#
# Bulk Modulus (GPa) = 24.82419 49.67048 37.24733
# Shear Modulus (GPa) = 10.66883 27.15536 18.91209
#
# Velocity S-wave (km/s) = 2.34234 3.73697 3.11861
# Velocity P-wave (km/s) = 4.48124 6.64556 5.66767
#
# Compressibility (1/GPa) = 0.04028329
#
# Stress axis : x y z
#
# Youngs Moduli (GPa) = 26.72439 61.97208 8.05978
#
# Poissons Ratio (x) = 0.05295 0.41505
# Poissons Ratio (y) = 0.02284 0.13155
# Poissons Ratio (z) = 1.37622 1.01146
#
# Static dielectric constant tensor:
#      x y z
#    x 1.565260 0.000000 0.000000 
#    y 0.000000 1.739770 0.000000 
#    z 0.000000 0.000000 1.744120 
# 
# From -- ./inp_files/37305.got.cif
#   From: 2010.05.17/outbox.cif.g08.bks.cpg/sg72_19_cif.got.tgz:37305.got - 2010.06.03 17:03:01.
