data_PCOD9527401
_publ_section_title
;
Structure prediction by ZEFSAII (Michael W. Deem and Ramdas Pophale) SiO2 
 PCOD9527401
Probable space group: I B A M
;
_chemical_formula_sum "Si O2"
_cell_formula_units_Z 52
_cell_length_a 5.414251
_cell_length_b 18.395867
_cell_length_c 23.263216
_cell_angle_alpha 90.000000
_cell_angle_beta 90.000000
_cell_angle_gamma 90.000000
_cell_volume 2317.012622
_symmetry_space_group_name_H-M "I B A M"
_symmetry_group_IT_number 72
_symmetry_cell_setting 'orthorhombic'
loop_
_space_group_symop_operation_xyz
x,y,z
-x,-y,z
x,-y,1/2-z
-x,y,1/2-z
-x,-y,-z
x,y,-z
-x,y,1/2+z
x,-y,1/2+z
1/2+x,1/2+y,1/2+z
1/2-x,1/2-y,1/2+z
1/2+x,1/2-y,-z
1/2-x,1/2+y,-z
1/2-x,1/2-y,1/2-z
1/2+x,1/2+y,1/2-z
1/2-x,1/2+y,z
1/2+x,1/2-y,z
loop_
_atom_site_type_symbol
_atom_site_label
_atom_site_fract_x
_atom_site_fract_y
_atom_site_fract_z
Si Si1 0.894337 0.281053 0.067837
Si Si2 0.000000 0.000000 0.500000
Si Si3 0.748321 0.416766 0.726037
Si Si4 0.829182 0.429185 0.591856
O O1 0.119726 0.231811 0.092337
O O2 0.001881 0.361474 0.074178
O O3 0.866717 0.264240 0.000000
O O4 0.898480 0.943493 0.450046
O O5 0.749146 0.500000 0.750000
O O6 0.500000 0.381686 0.750000
O O7 0.750834 0.420554 0.657601
O O8 0.000000 0.382610 0.750000
O O9 0.000000 0.500000 0.584914
#
# Coordination Sequence:
#
# PCOD9527401 Si02
#       4
#    16   4  16  16
#     4  10  24  43  63  89 136 186 217 258 340 423
#     4  12  26  36  62 110 136 156 216 304 342 374
#     4  10  20  39  61  94 126 177 215 271 330 403
#     4  12  25  40  69 102 139 168 231 290 335 399
#
# _framework density 22.442692000000001
#
# number of rings (size 3 to 8) (size 9 to 14) (size 15 to 20)
#    0.000    1.231    4.615    2.308    4.308    0.000 
#    0.000    0.000    0.000    5.538    0.000    0.000 
#    0.000    0.000    0.000    0.000    0.000    0.000 
#
# Total GULP energy -144802.845555 kJ/mol
# GULP energy per Si atom -5569.340214 kJ/mol
# Density = 2.239161 g / cm^3
# Si number density = 22.442692 Si / 1000 Ang^3
#
#
#
# Elastic Constant Matrix: (Units=GPa)
#
#
# Indices 1 2 3 4 5 6 
#
# 1 96.1480 -2.3727 41.2201 0.0000 0.0000 0.0000
# 2 -2.3727 50.5148 -11.3836 0.0001 0.0000 0.0000
# 3 41.2201 -11.3836 125.7980 0.0000 0.0000 0.0000
# 4 0.0000 0.0001 0.0000 617.4744 0.0000 0.0000
# 5 0.0000 0.0000 0.0000 0.0000 -25.9537 0.0000
# 6 0.0000 0.0000 0.0000 0.0000 0.0000 37.7260
#
#
#
# Elastic Compliance Matrix: (Units=1/GPa)
#
#
# Indices 1 2 3 4 5 6 
#
# 1 0.012106 -0.000332 -0.003997 0.000000 0.000000 0.000000
# 2 -0.000332 0.020217 0.001938 0.000000 0.000000 0.000000
# 3 -0.003997 0.001938 0.009434 0.000000 0.000000 0.000000
# 4 0.000000 0.000000 0.000000 0.001620 0.000000 0.000000
# 5 0.000000 0.000000 0.000000 0.000000 -0.038530 0.000000
# 6 0.000000 0.000000 0.000000 0.000000 0.000000 0.026507
#
#
# Mechanical properties :
#
#
# Convention : Reuss Voigt Hill
#
# Bulk Modulus (GPa) = 27.04422 36.37649 31.71035
# Shear Modulus (GPa) = 103.17701 142.18248 122.67975
#
# Velocity S-wave (km/s) = 6.78774 7.96813 7.40150
# Velocity P-wave (km/s) = 8.57366 10.04483 9.33826
#
# Compressibility (1/GPa) = 0.03697648
#
# Stress axis : x y z
#
# Youngs Moduli (GPa) = 82.60427 49.46238 105.99654
#
# Poissons Ratio (x) = 0.01643 0.42364
# Poissons Ratio (y) = 0.02743 -0.20545
# Poissons Ratio (z) = 0.33015 -0.09587
#
# Static dielectric constant tensor:
#      x y z
#    x 1.822410 0.000000 0.000000 
#    y 0.000000 1.824900 0.000000 
#    z 0.000000 0.000000 1.767770 
# 
# From -- ./inp_files/34584.got.cif
#   From: 2010.05.17/outbox.cif.g08.bks.cpg/sg72_18_cif.got.tgz:34584.got - 2010.06.03 17:03:01.
