data_PCOD9527493
_publ_section_title
;
Structure prediction by ZEFSAII (Michael W. Deem and Ramdas Pophale) SiO2 
 PCOD9527493
Probable space group: I B A M
;
_chemical_formula_sum "Si O2"
_cell_formula_units_Z 96
_cell_length_a 19.050291
_cell_length_b 15.261748
_cell_length_c 14.327540
_cell_angle_alpha 90.000000
_cell_angle_beta 90.000000
_cell_angle_gamma 90.000000
_cell_volume 4165.599590
_symmetry_space_group_name_H-M "I B A M"
_symmetry_group_IT_number 72
_symmetry_cell_setting 'orthorhombic'
loop_
_space_group_symop_operation_xyz
x,y,z
-x,-y,z
x,-y,1/2-z
-x,y,1/2-z
-x,-y,-z
x,y,-z
-x,y,1/2+z
x,-y,1/2+z
1/2+x,1/2+y,1/2+z
1/2-x,1/2-y,1/2+z
1/2+x,1/2-y,-z
1/2-x,1/2+y,-z
1/2-x,1/2-y,1/2-z
1/2+x,1/2+y,1/2-z
1/2-x,1/2+y,z
1/2+x,1/2-y,z
loop_
_atom_site_type_symbol
_atom_site_label
_atom_site_fract_x
_atom_site_fract_y
_atom_site_fract_z
Si Si1 0.054443 0.291005 0.330039
Si Si2 0.689532 0.438353 0.000000
Si Si3 0.311859 0.700174 0.696362
Si Si4 0.579833 0.981146 0.141217
Si Si5 0.042815 0.161962 0.500000
Si Si6 0.819326 0.570746 0.000000
Si Si7 0.114103 0.033018 0.654575
Si Si8 0.256455 0.748368 0.500000
O O1 0.113072 0.236353 0.273609
O O2 0.090481 0.377853 0.371933
O O3 0.025795 0.233821 0.415753
O O4 0.000000 0.319157 0.250000
O O5 0.643127 0.453514 0.907944
O O6 0.746909 0.516197 0.000000
O O7 0.725578 0.344668 0.000000
O O8 0.250000 0.750000 0.750000
O O9 0.320976 0.595573 0.690212
O O10 0.303737 0.729360 0.589169
O O11 0.500000 0.000000 0.111473
O O12 0.586457 0.000000 0.250000
O O13 0.635035 0.039987 0.087374
O O14 0.068450 0.090961 0.582872
O O15 0.802673 0.673190 0.000000
O O16 0.079952 0.000000 0.750000
#
# Coordination Sequence:
#
# PCOD9527493 Si02
#       8
#    16   8  16  16   8   8  16   8
#     4  11  22  43  72 101 142 200 246 294 375 451
#     4  11  22  40  62  98 147 186 240 309 379 458
#     4  11  23  40  65  99 142 180 241 307 366 443
#     4  11  24  44  64 102 151 198 248 301 360 462
#     4   9  22  42  73  98 134 179 248 293 364 446
#     4  12  25  40  70  97 152 198 247 309 390 452
#     4  10  20  41  67  99 138 183 234 304 384 449
#     4  12  24  42  62 106 143 193 246 306 390 460
#
# _framework density 23.045902000000002
#
# number of rings (size 3 to 8) (size 9 to 14) (size 15 to 20)
#    0.000    1.167    3.333    4.750    2.333    0.667 
#    0.000    0.833    0.000   18.000    0.000    0.000 
#    0.000    0.000    0.000    0.000    0.000    0.000 
#
# Total GULP energy -267352.176010 kJ/mol
# GULP energy per Si atom -5569.837000 kJ/mol
# Density = 2.299345 g / cm^3
# Si number density = 23.045902 Si / 1000 Ang^3
#
#
#
# Elastic Constant Matrix: (Units=GPa)
#
#
# Indices 1 2 3 4 5 6 
#
# 1 32.9282 -8.3252 15.8736 0.0000 0.0000 0.0000
# 2 -8.3252 108.1412 17.2284 0.0000 0.0000 0.0000
# 3 15.8736 17.2284 136.2847 0.0000 0.0000 0.0000
# 4 0.0000 0.0000 0.0000 23.7211 0.0000 0.0000
# 5 0.0000 0.0000 0.0000 0.0000 22.6602 0.0000
# 6 0.0000 0.0000 0.0000 0.0000 0.0000 21.5286
#
#
#
# Elastic Compliance Matrix: (Units=1/GPa)
#
#
# Indices 1 2 3 4 5 6 
#
# 1 0.033254 0.003242 -0.004283 0.000000 0.000000 0.000000
# 2 0.003242 0.009753 -0.001611 0.000000 0.000000 0.000000
# 3 -0.004283 -0.001611 0.008040 0.000000 0.000000 0.000000
# 4 0.000000 0.000000 0.000000 0.042157 0.000000 0.000000
# 5 0.000000 0.000000 0.000000 0.000000 0.044130 0.000000
# 6 0.000000 0.000000 0.000000 0.000000 0.000000 0.046450
#
#
# Mechanical properties :
#
#
# Convention : Reuss Voigt Hill
#
# Bulk Modulus (GPa) = 21.86060 36.32308 29.09184
# Shear Modulus (GPa) = 24.46969 30.42047 27.44508
#
# Velocity S-wave (km/s) = 3.26203 3.63711 3.45467
# Velocity P-wave (km/s) = 4.86766 5.78217 5.34451
#
# Compressibility (1/GPa) = 0.04574441
#
# Stress axis : x y z
#
# Youngs Moduli (GPa) = 30.07190 102.52861 124.37733
#
# Poissons Ratio (x) = -0.33243 0.53272
# Poissons Ratio (y) = -0.09750 0.20032
# Poissons Ratio (z) = 0.12880 0.16513
#
# Static dielectric constant tensor:
#      x y z
#    x 1.949060 0.000000 0.000000 
#    y 0.000000 1.898250 0.000000 
#    z 0.000000 0.000000 1.850050 
# 
# From -- ./inp_files/24229.got.cif
#   From: 2010.05.17/outbox.cif.g08.bks.cpg/sg72_13_cif.got.tgz:24229.got - 2010.06.03 17:03:01.
