data_PCOD9527297
_publ_section_title
;
Structure prediction by ZEFSAII (Michael W. Deem and Ramdas Pophale) SiO2 
 PCOD9527297
Probable space group: I B A M
;
_chemical_formula_sum "Si O2"
_cell_formula_units_Z 68
_cell_length_a 8.409057
_cell_length_b 21.167582
_cell_length_c 15.873857
_cell_angle_alpha 90.000000
_cell_angle_beta 90.000000
_cell_angle_gamma 90.000000
_cell_volume 2825.537079
_symmetry_space_group_name_H-M "I B A M"
_symmetry_group_IT_number 72
_symmetry_cell_setting 'orthorhombic'
loop_
_space_group_symop_operation_xyz
x,y,z
-x,-y,z
x,-y,1/2-z
-x,y,1/2-z
-x,-y,-z
x,y,-z
-x,y,1/2+z
x,-y,1/2+z
1/2+x,1/2+y,1/2+z
1/2-x,1/2-y,1/2+z
1/2+x,1/2-y,-z
1/2-x,1/2+y,-z
1/2-x,1/2-y,1/2-z
1/2+x,1/2+y,1/2-z
1/2-x,1/2+y,z
1/2+x,1/2-y,z
loop_
_atom_site_type_symbol
_atom_site_label
_atom_site_fract_x
_atom_site_fract_y
_atom_site_fract_z
Si Si1 0.500000 0.000000 0.250000
Si Si2 0.816286 0.844587 0.857395
Si Si3 0.832058 0.574984 0.500000
Si Si4 0.715851 0.888658 0.324592
Si Si5 0.793324 0.573714 0.000000
Si Si6 0.504542 0.234496 0.346626
O O1 0.607074 0.950444 0.303044
O O2 0.809611 0.871856 0.761506
O O3 0.676088 0.792345 0.864808
O O4 0.960152 0.800541 0.888994
O O5 0.758892 0.898899 0.918781
O O6 0.816865 0.500706 0.500000
O O7 0.018729 0.596354 0.500000
O O8 0.792507 0.905981 0.413910
O O9 0.610913 0.826459 0.346025
O O10 0.500000 0.254789 0.250000
#
# Coordination Sequence:
#
# PCOD9527297 Si02
#       6
#     4  16   8  16   8  16
#     4  12  16  30  56  80 118 146 196 248 306 344
#     4  11  22  38  60  87 129 157 206 244 309 367
#     4  11  22  35  57  94 125 153 201 257 315 349
#     4  11  19  32  54  84 118 155 191 250 310 346
#     4  11  20  33  57  86 131 146 200 268 304 344
#     4  10  20  38  58  87 121 161 198 251 296 368
#
# _framework density 24.066222
#
# number of rings (size 3 to 8) (size 9 to 14) (size 15 to 20)
#    0.000    1.176    5.882    5.647    0.000    1.882 
#    0.000    0.000    0.000    1.412    0.000   45.294 
#    0.000    0.000    0.000    0.000    0.000    0.000 
#
# Total GULP energy -189784.277997 kJ/mol
# GULP energy per Si atom -5581.890529 kJ/mol
# Density = 2.401145 g / cm^3
# Si number density = 24.066222 Si / 1000 Ang^3
#
#
#
# Elastic Constant Matrix: (Units=GPa)
#
#
# Indices 1 2 3 4 5 6 
#
# 1 26.3339 36.5983 16.7418 0.0000 0.0000 0.0000
# 2 36.5983 153.2020 57.5995 0.0000 0.0000 0.0000
# 3 16.7418 57.5995 157.5884 -0.0001 0.0000 0.0000
# 4 0.0000 0.0000 -0.0001 14.2616 0.0000 0.0000
# 5 0.0000 0.0000 0.0000 0.0000 -18.0343 0.0000
# 6 0.0000 0.0000 0.0000 0.0000 0.0000 51.3550
#
#
#
# Elastic Compliance Matrix: (Units=1/GPa)
#
#
# Indices 1 2 3 4 5 6 
#
# 1 0.057060 -0.013160 -0.001252 0.000000 0.000000 0.000000
# 2 -0.013160 0.010603 -0.002477 0.000000 0.000000 0.000000
# 3 -0.001252 -0.002477 0.007384 0.000000 0.000000 0.000000
# 4 0.000000 0.000000 0.000000 0.070119 0.000000 0.000000
# 5 0.000000 0.000000 0.000000 0.000000 -0.055450 0.000000
# 6 0.000000 0.000000 0.000000 0.000000 0.000000 0.019472
#
#
# Mechanical properties :
#
#
# Convention : Reuss Voigt Hill
#
# Bulk Modulus (GPa) = 24.23198 62.11150 43.17174
# Shear Modulus (GPa) = 31.90373 24.59542 28.24957
#
# Velocity S-wave (km/s) = 3.64492 3.20032 3.42983
# Velocity P-wave (km/s) = 5.27301 6.28655 5.80195
#
# Compressibility (1/GPa) = 0.04126778
#
# Stress axis : x y z
#
# Youngs Moduli (GPa) = 17.52553 94.31708 135.42714
#
# Poissons Ratio (x) = 1.24124 0.16952
# Poissons Ratio (y) = 0.23064 0.33548
# Poissons Ratio (z) = 0.02194 0.23364
#
# Static dielectric constant tensor:
#      x y z
#    x 2.053910 0.000000 0.000000 
#    y 0.000000 1.896340 0.000000 
#    z 0.000000 0.000000 1.964800 
# 
# From -- ./inp_files/27855.got.cif
#   From: 2010.05.17/outbox.cif.g08.bks.cpg/sg72_14_cif.got.tgz:27855.got - 2010.06.03 17:03:01.
