data_PCOD9527227
_publ_section_title
;
Structure prediction by ZEFSAII (Michael W. Deem and Ramdas Pophale) SiO2 
 PCOD9527227
Probable space group: I B A M
;
_chemical_formula_sum "Si O2"
_cell_formula_units_Z 88
_cell_length_a 13.455588
_cell_length_b 17.026696
_cell_length_c 19.627477
_cell_angle_alpha 90.000000
_cell_angle_beta 90.000000
_cell_angle_gamma 90.000000
_cell_volume 4496.737541
_symmetry_space_group_name_H-M "I B A M"
_symmetry_group_IT_number 72
_symmetry_cell_setting 'orthorhombic'
loop_
_space_group_symop_operation_xyz
x,y,z
-x,-y,z
x,-y,1/2-z
-x,y,1/2-z
-x,-y,-z
x,y,-z
-x,y,1/2+z
x,-y,1/2+z
1/2+x,1/2+y,1/2+z
1/2-x,1/2-y,1/2+z
1/2+x,1/2-y,-z
1/2-x,1/2+y,-z
1/2-x,1/2-y,1/2-z
1/2+x,1/2+y,1/2-z
1/2-x,1/2+y,z
1/2+x,1/2-y,z
loop_
_atom_site_type_symbol
_atom_site_label
_atom_site_fract_x
_atom_site_fract_y
_atom_site_fract_z
Si Si1 0.139384 0.700962 0.686646
Si Si2 0.611108 0.414455 0.500000
Si Si3 0.653771 0.628255 0.148468
Si Si4 0.661219 0.500000 0.750000
Si Si5 0.574379 0.799881 0.157558
Si Si6 0.609724 0.600482 0.500000
Si Si7 0.776476 0.131226 0.359207
O O1 0.235286 0.648510 0.673039
O O2 0.103700 0.688190 0.763419
O O3 0.175911 0.790786 0.676026
O O4 0.040458 0.681884 0.643439
O O5 0.663393 0.395562 0.429580
O O6 0.600721 0.507237 0.500000
O O7 0.504228 0.371193 0.500000
O O8 0.609192 0.562229 0.198838
O O9 0.589376 0.706963 0.148546
O O10 0.714604 0.442267 0.806438
O O11 0.662202 0.848215 0.121881
O O12 0.664591 0.621382 0.570148
#
# Coordination Sequence:
#
# PCOD9527227 Si02
#       7
#    16   8  16   8  16   8  16
#     4  10  20  37  61  89 117 152 198 243 286 336
#     4  11  24  39  57  87 125 154 184 237 302 351
#     4  11  21  40  60  86 120 154 192 244 289 342
#     4  12  20  36  64  88 114 154 198 234 302 340
#     4  10  20  37  61  89 117 152 198 243 286 336
#     4  11  24  39  57  87 125 154 184 237 302 351
#     4  11  21  40  60  86 120 154 192 244 289 342
#
# _framework density 19.569742000000002
#
# number of rings (size 3 to 8) (size 9 to 14) (size 15 to 20)
#    0.000    1.273    5.455    2.182    0.000    2.909 
#    0.000    8.182    0.000    1.091    0.000    0.000 
#    0.000    0.000    0.000    0.000    0.000    0.000 
#
# Total GULP energy -245203.289946 kJ/mol
# GULP energy per Si atom -5572.802044 kJ/mol
# Density = 1.952520 g / cm^3
# Si number density = 19.569742 Si / 1000 Ang^3
#
#
#
# Elastic Constant Matrix: (Units=GPa)
#
#
# Indices 1 2 3 4 5 6 
#
# 1 85.5950 4.9821 17.3644 0.0000 0.0000 0.0000
# 2 4.9821 51.4214 30.6794 0.0000 0.0000 0.0000
# 3 17.3644 30.6794 104.9087 0.0000 0.0000 0.0000
# 4 0.0000 0.0000 0.0000 24.7726 0.0000 0.0000
# 5 0.0000 0.0000 0.0000 0.0000 30.9057 0.0000
# 6 0.0000 0.0000 0.0000 0.0000 0.0000 23.1329
#
#
#
# Elastic Compliance Matrix: (Units=1/GPa)
#
#
# Indices 1 2 3 4 5 6 
#
# 1 0.012089 0.000027 -0.002009 0.000000 0.000000 0.000000
# 2 0.000027 0.023557 -0.006894 0.000000 0.000000 0.000000
# 3 -0.002009 -0.006894 0.011881 0.000000 0.000000 0.000000
# 4 0.000000 0.000000 0.000000 0.040367 0.000000 0.000000
# 5 0.000000 0.000000 0.000000 0.000000 0.032356 0.000000
# 6 0.000000 0.000000 0.000000 0.000000 0.000000 0.043228
#
#
# Mechanical properties :
#
#
# Convention : Reuss Voigt Hill
#
# Bulk Modulus (GPa) = 33.58361 38.66411 36.12386
# Shear Modulus (GPa) = 26.15678 28.35552 27.25615
#
# Velocity S-wave (km/s) = 3.65991 3.81063 3.73603
# Velocity P-wave (km/s) = 5.92099 6.25789 6.09177
#
# Compressibility (1/GPa) = 0.02977643
#
# Stress axis : x y z
#
# Youngs Moduli (GPa) = 82.72060 42.44937 84.17089
#
# Poissons Ratio (x) = -0.00116 0.16909
# Poissons Ratio (y) = -0.00226 0.58025
# Poissons Ratio (z) = 0.16618 0.29263
#
# Static dielectric constant tensor:
#      x y z
#    x 1.793250 0.000000 0.000000 
#    y 0.000000 1.708370 0.000000 
#    z 0.000000 0.000000 2.129040 
# 
# From -- ./inp_files/30585.got.cif
#   From: 2010.05.17/outbox.cif.g08.bks.cpg/sg72_16_cif.got.tgz:30585.got - 2010.06.03 17:03:01.
