data_PCOD9527881
_publ_section_title
;
Structure prediction by ZEFSAII (Michael W. Deem and Ramdas Pophale) SiO2 
 PCOD9527881
Probable space group: I B A M
;
_chemical_formula_sum "Si O2"
_cell_formula_units_Z 80
_cell_length_a 14.218724
_cell_length_b 29.841420
_cell_length_c 10.373993
_cell_angle_alpha 90.000000
_cell_angle_beta 90.000000
_cell_angle_gamma 90.000000
_cell_volume 4401.756963
_symmetry_space_group_name_H-M "I B A M"
_symmetry_group_IT_number 72
_symmetry_cell_setting 'orthorhombic'
loop_
_space_group_symop_operation_xyz
x,y,z
-x,-y,z
x,-y,1/2-z
-x,y,1/2-z
-x,-y,-z
x,y,-z
-x,y,1/2+z
x,-y,1/2+z
1/2+x,1/2+y,1/2+z
1/2-x,1/2-y,1/2+z
1/2+x,1/2-y,-z
1/2-x,1/2+y,-z
1/2-x,1/2-y,1/2-z
1/2+x,1/2+y,1/2-z
1/2-x,1/2+y,z
1/2+x,1/2-y,z
loop_
_atom_site_type_symbol
_atom_site_label
_atom_site_fract_x
_atom_site_fract_y
_atom_site_fract_z
Si Si1 0.566336 0.166843 0.638510
Si Si2 0.912514 0.869183 0.152701
Si Si3 0.268763 0.288540 0.646623
Si Si4 0.796020 0.038674 0.348314
Si Si5 0.576969 0.940750 0.145769
O O1 0.500000 0.184439 0.750000
O O2 0.525128 0.179444 0.500000
O O3 0.671460 0.184282 0.645398
O O4 0.573151 0.113282 0.645821
O O5 0.850523 0.824445 0.176876
O O6 0.849308 0.914031 0.171771
O O7 0.000000 0.870380 0.250000
O O8 0.939405 0.868644 0.000000
O O9 0.284830 0.271427 0.500000
O O10 0.250000 0.250000 0.750000
O O11 0.808416 0.026403 0.500000
O O12 0.684206 0.045647 0.325985
O O13 0.828875 0.000000 0.250000
O O14 0.500000 0.954627 0.250000
O O15 0.554372 0.955359 0.000000
#
# Coordination Sequence:
#
# PCOD9527881 Si02
#       5
#    16  16  16  16  16
#     4   9  17  32  54  78 106 141 177 217 267 325
#     4  10  22  42  63  83 114 154 194 240 291 341
#     4  10  21  38  59  83 114 149 185 228 281 339
#     4  10  21  38  59  83 115 153 193 239 290 343
#     4   9  17  32  54  79 109 146 183 222 273 332
#
# _framework density 18.174561000000001
#
# number of rings (size 3 to 8) (size 9 to 14) (size 15 to 20)
#    0.000    2.400    2.000    0.000    0.000    4.800 
#    0.000    8.000    0.000    0.000    0.000    0.000 
#    0.000    0.000    0.000    0.000    0.000    0.000 
#
# Total GULP energy -223000.681221 kJ/mol
# GULP energy per Si atom -5575.017031 kJ/mol
# Density = 1.813320 g / cm^3
# Si number density = 18.174561 Si / 1000 Ang^3
#
#
#
# Elastic Constant Matrix: (Units=GPa)
#
#
# Indices 1 2 3 4 5 6 
#
# 1 91.9205 52.7196 91.3726 0.0001 0.0000 -0.0001
# 2 52.7196 99.6822 86.3936 -0.0002 0.0000 0.0000
# 3 91.3726 86.3936 150.8735 -0.0008 -0.0003 -0.0001
# 4 0.0001 -0.0002 -0.0008 23.4964 -0.0001 0.0000
# 5 0.0000 0.0000 -0.0003 -0.0001 37.8323 0.0001
# 6 -0.0001 0.0000 -0.0001 0.0000 0.0001 -3.5712
#
#
#
# Elastic Compliance Matrix: (Units=1/GPa)
#
#
# Indices 1 2 3 4 5 6 
#
# 1 0.027337 -0.000216 -0.016432 -0.000001 0.000000 0.000000
# 2 -0.000216 0.019918 -0.011274 0.000000 0.000000 0.000000
# 3 -0.016432 -0.011274 0.023036 0.000001 0.000000 0.000000
# 4 -0.000001 0.000000 0.000001 0.042560 0.000000 0.000000
# 5 0.000000 0.000000 0.000000 0.000000 0.026432 0.000001
# 6 0.000000 0.000000 0.000000 0.000000 0.000001 -0.280017
#
#
# Mechanical properties :
#
#
# Convention : Reuss Voigt Hill
#
# Bulk Modulus (GPa) = 69.22848 89.27196 79.25022
# Shear Modulus (GPa) = -62.44231 19.01754 -21.71238
#
# Velocity S-wave (km/s) = -5.86784 3.23829 -3.46013
# Velocity P-wave (km/s) = 2.78122 7.95034 5.26653
#
# Compressibility (1/GPa) = 0.01444492
#
# Stress axis : x y z
#
# Youngs Moduli (GPa) = 36.57999 50.20700 43.41108
#
# Poissons Ratio (x) = 0.01087 0.71334
# Poissons Ratio (y) = 0.00792 0.48942
# Poissons Ratio (z) = 0.60109 0.56604
#
# Static dielectric constant tensor:
#      x y z
#    x 1.594830 0.000000 0.000000 
#    y 0.000000 0.924610 0.000060 
#    z 0.000000 0.000060 1.239080 
# 
# From -- ./inp_files/11649.got.cif
#   From: 2010.05.17/outbox.cif.g08.bks.cpg/sg72_6_cif.got.tgz:11649.got - 2010.06.03 17:03:01.
