data_PCOD9527512
_publ_section_title
;
Structure prediction by ZEFSAII (Michael W. Deem and Ramdas Pophale) SiO2 
 PCOD9527512
Probable space group: I B A M
;
_chemical_formula_sum "Si O2"
_cell_formula_units_Z 80
_cell_length_a 8.370088
_cell_length_b 18.565691
_cell_length_c 25.464171
_cell_angle_alpha 90.000000
_cell_angle_beta 90.000000
_cell_angle_gamma 90.000000
_cell_volume 3957.042220
_symmetry_space_group_name_H-M "I B A M"
_symmetry_group_IT_number 72
_symmetry_cell_setting 'orthorhombic'
loop_
_space_group_symop_operation_xyz
x,y,z
-x,-y,z
x,-y,1/2-z
-x,y,1/2-z
-x,-y,-z
x,y,-z
-x,y,1/2+z
x,-y,1/2+z
1/2+x,1/2+y,1/2+z
1/2-x,1/2-y,1/2+z
1/2+x,1/2-y,-z
1/2-x,1/2+y,-z
1/2-x,1/2-y,1/2-z
1/2+x,1/2+y,1/2-z
1/2-x,1/2+y,z
1/2+x,1/2-y,z
loop_
_atom_site_type_symbol
_atom_site_label
_atom_site_fract_x
_atom_site_fract_y
_atom_site_fract_z
Si Si1 0.983456 0.827596 0.089268
Si Si2 0.868412 0.450063 0.642336
Si Si3 0.053584 0.916221 0.191954
Si Si4 0.675751 0.464151 0.943949
Si Si5 0.640397 0.829770 0.438401
O O1 0.987105 0.862205 0.147682
O O2 0.165786 0.833983 0.068053
O O3 0.861072 0.880061 0.059539
O O4 0.923262 0.747035 0.081489
O O5 0.743867 0.416738 0.683012
O O6 0.772351 0.503673 0.603741
O O7 0.928321 0.389357 0.601647
O O8 0.000000 0.500000 0.668411
O O9 0.000000 0.895463 0.250000
O O10 0.000000 0.000000 0.184137
O O11 0.500000 0.500000 0.942206
O O12 0.750977 0.483217 0.000000
O O13 0.601150 0.839740 0.500000
#
# Coordination Sequence:
#
# PCOD9527512 Si02
#       5
#    16  16  16  16  16
#     4  11  22  39  57  88 122 164 211 255 309 367
#     4  11  23  39  60  95 128 157 207 264 309 363
#     4  10  20  42  70  87 112 162 213 261 315 370
#     4  11  19  35  60  83 118 167 211 243 299 377
#     4  11  23  37  57  90 133 171 205 247 303 373
#
# _framework density 20.217120000000001
#
# number of rings (size 3 to 8) (size 9 to 14) (size 15 to 20)
#    0.000    1.200    6.000    2.400    2.800    1.600 
#    0.000    6.000    0.000    0.000    0.000    0.000 
#    0.000    0.000    0.000    0.000    0.000    0.000 
#
# Total GULP energy -223379.293626 kJ/mol
# GULP energy per Si atom -5584.482341 kJ/mol
# Density = 2.017111 g / cm^3
# Si number density = 20.217120 Si / 1000 Ang^3
#
#
#
# Elastic Constant Matrix: (Units=GPa)
#
#
# Indices 1 2 3 4 5 6 
#
# 1 19.1290 14.6165 25.8695 0.0000 0.0000 0.0000
# 2 14.6165 110.7226 20.3402 0.0000 0.0000 0.0000
# 3 25.8695 20.3402 142.1257 0.0000 0.0000 0.0000
# 4 0.0000 0.0000 0.0000 69.5856 0.0000 0.0000
# 5 0.0000 0.0000 0.0000 0.0000 -1.7364 0.0000
# 6 0.0000 0.0000 0.0000 0.0000 0.0000 41.1559
#
#
#
# Elastic Compliance Matrix: (Units=1/GPa)
#
#
# Indices 1 2 3 4 5 6 
#
# 1 0.075101 -0.007603 -0.012582 0.000000 0.000000 0.000000
# 2 -0.007603 0.010045 -0.000054 0.000000 0.000000 0.000000
# 3 -0.012582 -0.000054 0.009334 0.000000 0.000000 0.000000
# 4 0.000000 0.000000 0.000000 0.014371 0.000000 0.000000
# 5 0.000000 0.000000 0.000000 0.000000 -0.575902 0.000000
# 6 0.000000 0.000000 0.000000 0.000000 0.000000 0.024298
#
#
# Mechanical properties :
#
#
# Convention : Reuss Voigt Hill
#
# Bulk Modulus (GPa) = 18.51736 43.73664 31.12700
# Shear Modulus (GPa) = -13.01149 35.87777 11.43314
#
# Velocity S-wave (km/s) = -2.53965 4.21720 2.38064
# Velocity P-wave (km/s) = 0.76114 6.73747 4.79441
#
# Compressibility (1/GPa) = 0.05400336
#
# Stress axis : x y z
#
# Youngs Moduli (GPa) = 13.31543 99.55102 107.13747
#
# Poissons Ratio (x) = 0.75687 1.34797
# Poissons Ratio (y) = 0.10123 0.00576
# Poissons Ratio (z) = 0.16753 0.00535
#
# Static dielectric constant tensor:
#      x y z
#    x 1.759480 0.000000 0.000000 
#    y 0.000000 1.743790 0.000000 
#    z 0.000000 0.000000 1.718420 
# 
# From -- ./inp_files/47178.got.cif
#   From: 2010.05.17/outbox.cif.g08.bks.cpg/sg72_24_cif.got.tgz:47178.got - 2010.06.03 17:03:01.
