data_PCOD9527126
_publ_section_title
;
Structure prediction by ZEFSAII (Michael W. Deem and Ramdas Pophale) SiO2 
 PCOD9527126
Probable space group: I B A M
;
_chemical_formula_sum "Si O2"
_cell_formula_units_Z 96
_cell_length_a 13.068873
_cell_length_b 21.757217
_cell_length_c 14.645133
_cell_angle_alpha 90.000000
_cell_angle_beta 90.000000
_cell_angle_gamma 90.000000
_cell_volume 4164.230886
_symmetry_space_group_name_H-M "I B A M"
_symmetry_group_IT_number 72
_symmetry_cell_setting 'orthorhombic'
loop_
_space_group_symop_operation_xyz
x,y,z
-x,-y,z
x,-y,1/2-z
-x,y,1/2-z
-x,-y,-z
x,y,-z
-x,y,1/2+z
x,-y,1/2+z
1/2+x,1/2+y,1/2+z
1/2-x,1/2-y,1/2+z
1/2+x,1/2-y,-z
1/2-x,1/2+y,-z
1/2-x,1/2-y,1/2-z
1/2+x,1/2+y,1/2-z
1/2-x,1/2+y,z
1/2+x,1/2-y,z
loop_
_atom_site_type_symbol
_atom_site_label
_atom_site_fract_x
_atom_site_fract_y
_atom_site_fract_z
Si Si1 0.265636 0.734654 0.398419
Si Si2 0.938766 0.251222 0.658272
Si Si3 0.639939 0.610596 0.105613
Si Si4 0.412028 0.610389 0.894163
Si Si5 0.222303 0.570733 0.767254
Si Si6 0.096473 0.648299 0.101098
O O1 0.219754 0.723938 0.500000
O O2 0.355202 0.684987 0.390289
O O3 0.312497 0.801676 0.397558
O O4 0.176943 0.726057 0.325612
O O5 0.997892 0.307747 0.611542
O O6 0.000000 0.239565 0.750000
O O7 0.919316 0.184990 0.611873
O O8 0.526770 0.589266 0.134569
O O9 0.732959 0.592530 0.170052
O O10 0.654436 0.592574 0.000000
O O11 0.320290 0.583502 0.834064
O O12 0.396892 0.593770 0.000000
O O13 0.199435 0.500000 0.750000
O O14 0.126026 0.603658 0.815982
O O15 0.095003 0.618792 0.000000
#
# Coordination Sequence:
#
# PCOD9527126 Si02
#       6
#    16  16  16  16  16  16
#     4  10  20  36  61  94 131 167 214 280 352 411
#     4  12  22  34  63 101 139 177 217 281 353 420
#     4  10  22  39  60  89 127 170 221 283 344 407
#     4  11  22  38  61  94 133 176 223 278 345 411
#     4  12  26  42  62  91 131 186 236 274 327 411
#     4  11  23  40  66  99 137 180 228 283 348 413
#
# _framework density 23.053477000000001
#
# number of rings (size 3 to 8) (size 9 to 14) (size 15 to 20)
#    0.000    1.000    3.333    4.500    0.000    4.000 
#    0.000    1.667    0.000    4.500    0.000    7.000 
#    0.000    0.000    0.000    0.000    0.000    0.000 
#
# Total GULP energy -268218.622637 kJ/mol
# GULP energy per Si atom -5587.887972 kJ/mol
# Density = 2.300101 g / cm^3
# Si number density = 23.053477 Si / 1000 Ang^3
#
#
#
# Elastic Constant Matrix: (Units=GPa)
#
#
# Indices 1 2 3 4 5 6 
#
# 1 96.6088 4.5648 18.3246 0.0000 0.0000 0.0000
# 2 4.5648 81.0133 17.2684 0.0000 0.0000 0.0002
# 3 18.3246 17.2684 100.0209 0.0001 0.0000 0.0004
# 4 0.0000 0.0000 0.0001 -11.8712 0.0000 0.0001
# 5 0.0000 0.0000 0.0000 0.0000 32.9249 -0.0001
# 6 0.0000 0.0002 0.0004 0.0001 -0.0001 -1.4249
#
#
#
# Elastic Compliance Matrix: (Units=1/GPa)
#
#
# Indices 1 2 3 4 5 6 
#
# 1 0.010727 -0.000193 -0.001932 0.000000 0.000000 -0.000001
# 2 -0.000193 0.012819 -0.002178 0.000000 0.000000 0.000001
# 3 -0.001932 -0.002178 0.010728 0.000000 0.000000 0.000002
# 4 0.000000 0.000000 0.000000 -0.084238 0.000000 -0.000004
# 5 0.000000 0.000000 0.000000 0.000000 0.030372 -0.000002
# 6 -0.000001 0.000001 0.000002 -0.000004 -0.000002 -0.701822
#
#
# Mechanical properties :
#
#
# Convention : Reuss Voigt Hill
#
# Bulk Modulus (GPa) = 38.95840 39.77316 39.36578
# Shear Modulus (GPa) = -7.09971 19.75813 6.32921
#
# Velocity S-wave (km/s) = -1.75680 2.93073 1.65874
# Velocity P-wave (km/s) = 3.58060 5.36118 4.55867
#
# Compressibility (1/GPa) = 0.02566840
#
# Stress axis : x y z
#
# Youngs Moduli (GPa) = 93.22644 78.01092 93.21531
#
# Poissons Ratio (x) = 0.01502 0.18009
# Poissons Ratio (y) = 0.01796 0.20301
# Poissons Ratio (z) = 0.18011 0.16990
#
# Static dielectric constant tensor:
#      x y z
#    x 1.904150 0.000000 0.000000 
#    y 0.000000 1.911720 0.000000 
#    z 0.000000 0.000000 1.922140 
# 
# From -- ./inp_files/21789.got.cif
#   From: 2010.05.17/outbox.cif.g08.bks.cpg/sg72_11_cif.got.tgz:21789.got - 2010.06.03 17:03:01.
