data_PCOD9527552
_publ_section_title
;
Structure prediction by ZEFSAII (Michael W. Deem and Ramdas Pophale) SiO2 
 PCOD9527552
Probable space group: I B A M
;
_chemical_formula_sum "Si O2"
_cell_formula_units_Z 128
_cell_length_a 12.182458
_cell_length_b 24.247552
_cell_length_c 20.548896
_cell_angle_alpha 90.000000
_cell_angle_beta 90.000000
_cell_angle_gamma 90.000000
_cell_volume 6070.036692
_symmetry_space_group_name_H-M "I B A M"
_symmetry_group_IT_number 72
_symmetry_cell_setting 'orthorhombic'
loop_
_space_group_symop_operation_xyz
x,y,z
-x,-y,z
x,-y,1/2-z
-x,y,1/2-z
-x,-y,-z
x,y,-z
-x,y,1/2+z
x,-y,1/2+z
1/2+x,1/2+y,1/2+z
1/2-x,1/2-y,1/2+z
1/2+x,1/2-y,-z
1/2-x,1/2+y,-z
1/2-x,1/2-y,1/2-z
1/2+x,1/2+y,1/2-z
1/2-x,1/2+y,z
1/2+x,1/2-y,z
loop_
_atom_site_type_symbol
_atom_site_label
_atom_site_fract_x
_atom_site_fract_y
_atom_site_fract_z
Si Si1 0.163080 0.861004 0.076501
Si Si2 0.471530 0.291985 0.420975
Si Si3 0.627438 0.015076 0.679485
Si Si4 0.125171 0.634359 0.128841
Si Si5 0.696419 0.518728 0.079411
Si Si6 0.153228 0.897623 0.425911
Si Si7 0.396202 0.172830 0.622571
Si Si8 0.370857 0.780419 0.257765
O O1 0.094589 0.808120 0.100684
O O2 0.138265 0.923797 0.098294
O O3 0.289274 0.849917 0.088914
O O4 0.141136 0.861866 0.000000
O O5 0.464531 0.287551 0.500000
O O6 0.409838 0.346530 0.395282
O O7 0.419589 0.236490 0.394818
O O8 0.634498 0.080615 0.673185
O O9 0.500000 0.000000 0.677019
O O10 0.673992 0.000000 0.750000
O O11 0.691094 0.985895 0.620244
O O12 0.220740 0.622636 0.077601
O O13 0.136842 0.688609 0.173131
O O14 0.003011 0.639044 0.101577
O O15 0.640641 0.460212 0.098008
O O16 0.711410 0.518250 0.000000
O O17 0.115035 0.899907 0.500000
O O18 0.376680 0.174007 0.700076
O O19 0.500000 0.755513 0.250000
O O20 0.250000 0.750000 0.250000
#
# Coordination Sequence:
#
# PCOD9527552 Si02
#       8
#    16  16  16  16  16  16  16  16
#     4  10  22  37  57  86 117 151 197 245 297 352
#     4  10  22  37  57  87 116 156 199 240 294 356
#     4  10  21  33  58  83 115 153 197 241 299 357
#     4  10  22  38  55  87 115 150 195 241 292 359
#     4   9  19  37  58  86 116 150 194 250 303 352
#     4   9  19  37  61  85 117 153 193 240 297 359
#     4  11  23  36  59  79 121 153 195 241 298 350
#     4  10  23  38  58  82 114 155 200 245 294 355
#
# _framework density 21.087187
#
# number of rings (size 3 to 8) (size 9 to 14) (size 15 to 20)
#    0.000    2.125    0.000    1.875   12.250    1.750 
#    0.000    5.000    0.000    0.000    0.000    0.875 
#    0.000    0.000    0.000    0.000    0.000    0.000 
#
# Total GULP energy -356275.313774 kJ/mol
# GULP energy per Si atom -5566.801778 kJ/mol
# Density = 2.103919 g / cm^3
# Si number density = 21.087187 Si / 1000 Ang^3
#
#
#
# Elastic Constant Matrix: (Units=GPa)
#
#
# Indices 1 2 3 4 5 6 
#
# 1 81.6639 20.5516 4.0026 0.0000 0.0000 0.0000
# 2 20.5516 110.7552 15.3114 0.0000 0.0000 0.0000
# 3 4.0026 15.3114 34.8937 0.0000 0.0000 0.0000
# 4 0.0000 0.0000 0.0000 21.5624 0.0000 0.0000
# 5 0.0000 0.0000 0.0000 0.0000 -5.9270 0.0000
# 6 0.0000 0.0000 0.0000 0.0000 0.0000 26.0421
#
#
#
# Elastic Compliance Matrix: (Units=1/GPa)
#
#
# Indices 1 2 3 4 5 6 
#
# 1 0.012852 -0.002322 -0.000455 0.000000 0.000000 0.000000
# 2 -0.002322 0.010031 -0.004135 0.000000 0.000000 0.000000
# 3 -0.000455 -0.004135 0.030525 0.000000 0.000000 0.000000
# 4 0.000000 0.000000 0.000000 0.046377 0.000000 0.000000
# 5 0.000000 0.000000 0.000000 0.000000 -0.168719 0.000000
# 6 0.000000 0.000000 0.000000 0.000000 0.000000 0.038399
#
#
# Mechanical properties :
#
#
# Convention : Reuss Voigt Hill
#
# Bulk Modulus (GPa) = 25.26316 34.11599 29.68958
# Shear Modulus (GPa) = -1422.72394 20.83199 -700.94597
#
# Velocity S-wave (km/s) = -26.00291 3.14649 -18.25172
# Velocity P-wave (km/s) = 29.82496 5.42349 20.73782
#
# Compressibility (1/GPa) = 0.03958332
#
# Stress axis : x y z
#
# Youngs Moduli (GPa) = 77.80924 99.68630 32.75967
#
# Poissons Ratio (x) = 0.23145 0.01492
# Poissons Ratio (y) = 0.18066 0.13548
# Poissons Ratio (z) = 0.03543 0.41225
#
# Static dielectric constant tensor:
#      x y z
#    x 1.941900 0.000000 0.000000 
#    y 0.000000 1.791480 0.000000 
#    z 0.000000 0.000000 1.778080 
# 
# From -- ./inp_files/43707.got.cif
#   From: 2010.05.17/outbox.cif.g08.bks.cpg/sg72_22_cif.got.tgz:43707.got - 2010.06.03 17:03:01.
