data_PCOD9527223
_publ_section_title
;
Structure prediction by ZEFSAII (Michael W. Deem and Ramdas Pophale) SiO2 
 PCOD9527223
Probable space group: I B A M
;
_chemical_formula_sum "Si O2"
_cell_formula_units_Z 100
_cell_length_a 18.323657
_cell_length_b 33.550116
_cell_length_c 8.918252
_cell_angle_alpha 90.000000
_cell_angle_beta 90.000000
_cell_angle_gamma 90.000000
_cell_volume 5482.591894
_symmetry_space_group_name_H-M "I B A M"
_symmetry_group_IT_number 72
_symmetry_cell_setting 'orthorhombic'
loop_
_space_group_symop_operation_xyz
x,y,z
-x,-y,z
x,-y,1/2-z
-x,y,1/2-z
-x,-y,-z
x,y,-z
-x,y,1/2+z
x,-y,1/2+z
1/2+x,1/2+y,1/2+z
1/2-x,1/2-y,1/2+z
1/2+x,1/2-y,-z
1/2-x,1/2+y,-z
1/2-x,1/2-y,1/2-z
1/2+x,1/2+y,1/2-z
1/2-x,1/2+y,z
1/2+x,1/2-y,z
loop_
_atom_site_type_symbol
_atom_site_label
_atom_site_fract_x
_atom_site_fract_y
_atom_site_fract_z
Si Si1 0.500000 0.500000 0.750000
Si Si2 0.580713 0.722321 0.320348
Si Si3 0.080183 0.696102 0.179800
Si Si4 0.148045 0.855989 0.822242
Si Si5 0.804362 0.372571 0.179599
Si Si6 0.117345 0.934912 0.328790
Si Si7 0.280547 0.959787 0.677998
O O1 0.555794 0.468878 0.827011
O O2 0.500000 0.720164 0.250000
O O3 0.578087 0.723929 0.500000
O O4 0.612063 0.763577 0.253582
O O5 0.620971 0.683083 0.263408
O O6 0.131972 0.658617 0.211297
O O7 0.000000 0.690114 0.250000
O O8 0.074143 0.701306 0.000000
O O9 0.231333 0.862649 0.770461
O O10 0.104230 0.895821 0.771407
O O11 0.141962 0.850866 0.000000
O O12 0.821644 0.418730 0.214703
O O13 0.788668 0.370487 0.000000
O O14 0.126828 0.920961 0.500000
O O15 0.195341 0.952943 0.277652
O O16 0.280906 0.964816 0.500000
O O17 0.308954 0.000000 0.750000
#
# Coordination Sequence:
#
# PCOD9527223 Si02
#       7
#     4  16  16  16  16  16  16
#     4  12  22  36  56  78 106 148 202 238 282 336
#     4  11  22  38  58  80 112 149 187 229 279 332
#     4  10  20  37  61  87 115 143 178 222 275 337
#     4  11  23  38  57  81 110 147 193 237 281 331
#     4   9  20  38  58  82 113 148 182 226 279 330
#     4  10  22  37  52  74 108 145 187 238 284 325
#     4   9  17  33  53  75 104 140 179 223 271 318
#
# _framework density 18.239547999999999
#
# number of rings (size 3 to 8) (size 9 to 14) (size 15 to 20)
#    0.000    1.920    0.800    5.520    1.120    5.760 
#    0.000    0.000    0.000    0.480    0.000    3.360 
#    0.000    0.000    0.000    0.000    0.000    0.000 
#
# Total GULP energy -278904.873528 kJ/mol
# GULP energy per Si atom -5578.097471 kJ/mol
# Density = 1.819803 g / cm^3
# Si number density = 18.239548 Si / 1000 Ang^3
#
#
#
# Elastic Constant Matrix: (Units=GPa)
#
#
# Indices 1 2 3 4 5 6 
#
# 1 39.7201 53.4725 28.3734 0.0014 -0.0005 0.0000
# 2 53.4725 189.7409 71.7602 0.0032 -0.0012 -0.0001
# 3 28.3734 71.7602 97.9788 -0.0058 0.0007 0.0014
# 4 0.0014 0.0032 -0.0058 28.2196 0.0007 0.0007
# 5 -0.0005 -0.0012 0.0007 0.0007 21.3642 -0.0012
# 6 0.0000 -0.0001 0.0014 0.0007 -0.0012 36.2137
#
#
#
# Elastic Compliance Matrix: (Units=1/GPa)
#
#
# Indices 1 2 3 4 5 6 
#
# 1 0.042171 -0.010050 -0.004852 -0.000002 0.000001 0.000000
# 2 -0.010050 0.009684 -0.004183 -0.000001 0.000000 0.000000
# 3 -0.004852 -0.004183 0.014675 0.000004 -0.000001 -0.000001
# 4 -0.000002 -0.000001 0.000004 0.035436 -0.000001 -0.000001
# 5 0.000001 0.000000 -0.000001 -0.000001 0.046807 0.000002
# 6 0.000000 0.000000 -0.000001 -0.000001 0.000002 0.027614
#
#
# Mechanical properties :
#
#
# Convention : Reuss Voigt Hill
#
# Bulk Modulus (GPa) = 35.25842 70.51690 52.88766
# Shear Modulus (GPa) = 22.32043 28.74842 25.53443
#
# Velocity S-wave (km/s) = 3.50199 3.97439 3.74565
# Velocity P-wave (km/s) = 5.97701 7.73347 6.91127
#
# Compressibility (1/GPa) = 0.02836202
#
# Stress axis : x y z
#
# Youngs Moduli (GPa) = 23.71289 103.25868 68.14444
#
# Poissons Ratio (x) = 1.03771 0.33062
# Poissons Ratio (y) = 0.23831 0.28503
# Poissons Ratio (z) = 0.11505 0.43190
#
# Static dielectric constant tensor:
#      x y z
#    x 1.616560 0.000000 0.000000 
#    y 0.000000 1.655720 0.000000 
#    z 0.000000 0.000000 1.621130 
# 
# From -- ./inp_files/6390.got.cif
#   From: 2010.05.17/outbox.cif.g08.bks.cpg/sg72_4_cif.got.tgz:6390.got - 2010.06.03 17:03:01.
