data_PCOD9527697
_publ_section_title
;
Structure prediction by ZEFSAII (Michael W. Deem and Ramdas Pophale) SiO2 
 PCOD9527697
Probable space group: I B A M
;
_chemical_formula_sum "Si O2"
_cell_formula_units_Z 96
_cell_length_a 12.116054
_cell_length_b 22.721632
_cell_length_c 17.725376
_cell_angle_alpha 90.000000
_cell_angle_beta 90.000000
_cell_angle_gamma 90.000000
_cell_volume 4879.734333
_symmetry_space_group_name_H-M "I B A M"
_symmetry_group_IT_number 72
_symmetry_cell_setting 'orthorhombic'
loop_
_space_group_symop_operation_xyz
x,y,z
-x,-y,z
x,-y,1/2-z
-x,y,1/2-z
-x,-y,-z
x,y,-z
-x,y,1/2+z
x,-y,1/2+z
1/2+x,1/2+y,1/2+z
1/2-x,1/2-y,1/2+z
1/2+x,1/2-y,-z
1/2-x,1/2+y,-z
1/2-x,1/2-y,1/2-z
1/2+x,1/2+y,1/2-z
1/2-x,1/2+y,z
1/2+x,1/2-y,z
loop_
_atom_site_type_symbol
_atom_site_label
_atom_site_fract_x
_atom_site_fract_y
_atom_site_fract_z
Si Si1 0.310399 0.953256 0.409966
Si Si2 0.816180 0.412044 0.412167
Si Si3 0.358172 0.630682 0.165226
Si Si4 0.515290 0.128294 0.668242
Si Si5 0.885698 0.144512 0.153798
Si Si6 0.306748 0.770831 0.672233
O O1 0.292215 0.950819 0.500000
O O2 0.205539 0.926333 0.365764
O O3 0.412844 0.912514 0.386376
O O4 0.336381 0.020490 0.389048
O O5 0.840461 0.406256 0.500000
O O6 0.894164 0.367227 0.366758
O O7 0.689950 0.398155 0.394495
O O8 0.359662 0.632897 0.257009
O O9 0.484805 0.635672 0.141619
O O10 0.285781 0.686514 0.136682
O O11 0.500000 0.099712 0.750000
O O12 0.585798 0.187531 0.681614
O O13 0.848040 0.210984 0.134603
O O14 0.250000 0.750000 0.750000
#
# Coordination Sequence:
#
# PCOD9527697 Si02
#       6
#    16  16  16  16  16  16
#     4  10  22  41  60  82 121 164 200 244 300 360
#     4  11  24  40  58  86 124 161 200 246 302 361
#     4   9  20  37  60  89 115 157 204 250 300 357
#     4  11  22  36  65  93 115 154 195 248 302 356
#     4  10  21  36  60  89 120 154 202 254 296 351
#     4   9  19  35  60  87 119 152 190 244 302 357
#
# _framework density 19.673200999999999
#
# number of rings (size 3 to 8) (size 9 to 14) (size 15 to 20)
#    0.000    2.000    0.000    4.000    7.000    6.000 
#    0.000    7.500    0.000    0.000    0.000    0.000 
#    0.000    0.000    0.000    0.000    0.000    0.000 
#
# Total GULP energy -267809.501692 kJ/mol
# GULP energy per Si atom -5579.364619 kJ/mol
# Density = 1.962842 g / cm^3
# Si number density = 19.673201 Si / 1000 Ang^3
#
#
#
# Elastic Constant Matrix: (Units=GPa)
#
#
# Indices 1 2 3 4 5 6 
#
# 1 99.9558 15.3935 21.3997 0.0000 0.0000 0.0000
# 2 15.3935 60.7555 17.1211 0.0000 0.0000 0.0000
# 3 21.3997 17.1211 33.1151 0.0000 0.0000 0.0000
# 4 0.0000 0.0000 0.0000 26.3302 0.0000 0.0000
# 5 0.0000 0.0000 0.0000 0.0000 18.3963 0.0000
# 6 0.0000 0.0000 0.0000 0.0000 0.0000 19.1232
#
#
#
# Elastic Compliance Matrix: (Units=1/GPa)
#
#
# Indices 1 2 3 4 5 6 
#
# 1 0.011660 -0.000973 -0.007032 0.000000 0.000000 0.000000
# 2 -0.000973 0.019348 -0.009375 0.000000 0.000000 0.000000
# 3 -0.007032 -0.009375 0.039589 0.000000 0.000000 0.000000
# 4 0.000000 0.000000 0.000000 0.037979 0.000000 0.000000
# 5 0.000000 0.000000 0.000000 0.000000 0.054359 0.000000
# 6 0.000000 0.000000 0.000000 0.000000 0.000000 0.052292
#
#
# Mechanical properties :
#
#
# Convention : Reuss Voigt Hill
#
# Bulk Modulus (GPa) = 27.90345 33.51723 30.71034
# Shear Modulus (GPa) = 19.08905 22.09743 20.59324
#
# Velocity S-wave (km/s) = 3.11836 3.35509 3.23889
# Velocity P-wave (km/s) = 5.21342 5.66417 5.44346
#
# Compressibility (1/GPa) = 0.03583787
#
# Stress axis : x y z
#
# Youngs Moduli (GPa) = 85.76572 51.68596 25.25978
#
# Poissons Ratio (x) = 0.05027 0.17762
# Poissons Ratio (y) = 0.08341 0.23680
# Poissons Ratio (z) = 0.60309 0.48453
#
# Static dielectric constant tensor:
#      x y z
#    x 1.694400 0.000000 0.000000 
#    y 0.000000 1.708460 0.000000 
#    z 0.000000 0.000000 1.677720 
# 
# From -- ./inp_files/37136.got.cif
#   From: 2010.05.17/outbox.cif.g08.bks.cpg/sg72_19_cif.got.tgz:37136.got - 2010.06.03 17:03:01.
