data_PCOD9527403
_publ_section_title
;
Structure prediction by ZEFSAII (Michael W. Deem and Ramdas Pophale) SiO2 
 PCOD9527403
Probable space group: I B A M
;
_chemical_formula_sum "Si O2"
_cell_formula_units_Z 56
_cell_length_a 21.001478
_cell_length_b 8.518665
_cell_length_c 14.374455
_cell_angle_alpha 90.000000
_cell_angle_beta 90.000000
_cell_angle_gamma 90.000000
_cell_volume 2571.655484
_symmetry_space_group_name_H-M "I B A M"
_symmetry_group_IT_number 72
_symmetry_cell_setting 'orthorhombic'
loop_
_space_group_symop_operation_xyz
x,y,z
-x,-y,z
x,-y,1/2-z
-x,y,1/2-z
-x,-y,-z
x,y,-z
-x,y,1/2+z
x,-y,1/2+z
1/2+x,1/2+y,1/2+z
1/2-x,1/2-y,1/2+z
1/2+x,1/2-y,-z
1/2-x,1/2+y,-z
1/2-x,1/2-y,1/2-z
1/2+x,1/2+y,1/2-z
1/2-x,1/2+y,z
1/2+x,1/2-y,z
loop_
_atom_site_type_symbol
_atom_site_label
_atom_site_fract_x
_atom_site_fract_y
_atom_site_fract_z
Si Si1 0.867660 0.660169 0.000000
Si Si2 0.404545 0.517642 0.500000
Si Si3 0.066757 0.854513 0.197424
Si Si4 0.718761 0.731042 0.000000
Si Si5 0.156152 0.429410 0.658419
O O1 0.791471 0.684318 0.000000
O O2 0.878947 0.556687 0.907555
O O3 0.900947 0.829267 0.000000
O O4 0.437450 0.589022 0.591083
O O5 0.332075 0.588062 0.500000
O O6 0.105751 0.695563 0.196824
O O7 0.000000 0.833958 0.250000
O O8 0.100669 0.000000 0.250000
O O9 0.702859 0.835251 0.909674
O O10 0.188496 0.500000 0.750000
#
# Coordination Sequence:
#
# PCOD9527403 Si02
#       5
#     8   8  16   8  16
#     4  11  21  39  65  91 126 160 199 253 303 359
#     4  10  20  39  62  88 125 164 200 248 300 359
#     4  10  22  40  63  87 118 162 209 250 303 368
#     4   9  21  39  61  92 127 165 203 240 301 373
#     4  10  21  38  61  93 126 157 201 254 301 355
#
# _framework density 21.775856999999998
#
# number of rings (size 3 to 8) (size 9 to 14) (size 15 to 20)
#    0.000    2.000    0.000    4.286    0.000    4.000 
#    0.000   11.429    0.000   17.143    0.000    0.000 
#    0.000    0.000    0.000    0.000    0.000    0.000 
#
# Total GULP energy -156524.550187 kJ/mol
# GULP energy per Si atom -5590.162507 kJ/mol
# Density = 2.172629 g / cm^3
# Si number density = 21.775857 Si / 1000 Ang^3
#
#
#
# Elastic Constant Matrix: (Units=GPa)
#
#
# Indices 1 2 3 4 5 6 
#
# 1 79.9391 31.9162 24.6315 0.0000 0.0000 0.0000
# 2 31.9162 126.5222 51.3116 0.0000 0.0000 0.0000
# 3 24.6315 51.3116 168.9558 0.0000 0.0000 0.0000
# 4 0.0000 0.0000 0.0000 45.5161 0.0000 0.0000
# 5 0.0000 0.0000 0.0000 0.0000 -8.2797 0.0000
# 6 0.0000 0.0000 0.0000 0.0000 0.0000 12.6638
#
#
#
# Elastic Compliance Matrix: (Units=1/GPa)
#
#
# Indices 1 2 3 4 5 6 
#
# 1 0.014091 -0.003104 -0.001112 0.000000 0.000000 0.000000
# 2 -0.003104 0.009698 -0.002493 0.000000 0.000000 0.000000
# 3 -0.001112 -0.002493 0.006838 0.000000 0.000000 0.000000
# 4 0.000000 0.000000 0.000000 0.021970 0.000000 0.000000
# 5 0.000000 0.000000 0.000000 0.000000 -0.120777 0.000000
# 6 0.000000 0.000000 0.000000 0.000000 0.000000 0.078965
#
#
# Mechanical properties :
#
#
# Convention : Reuss Voigt Hill
#
# Bulk Modulus (GPa) = 58.10443 65.68175 61.89309
# Shear Modulus (GPa) = 167.01217 27.81723 97.41470
#
# Velocity S-wave (km/s) = 8.76713 3.57800 6.69569
# Velocity P-wave (km/s) = 11.36768 6.87732 9.39473
#
# Compressibility (1/GPa) = 0.01721039
#
# Stress axis : x y z
#
# Youngs Moduli (GPa) = 70.96596 103.11820 146.24592
#
# Poissons Ratio (x) = 0.32005 0.16258
# Poissons Ratio (y) = 0.22026 0.36454
# Poissons Ratio (z) = 0.07889 0.25704
#
# Static dielectric constant tensor:
#      x y z
#    x 1.780820 0.000000 0.000000 
#    y 0.000000 1.823900 0.000000 
#    z 0.000000 0.000000 1.825140 
# 
# From -- ./inp_files/10396.got.cif
#   From: 2010.05.17/outbox.cif.g08.bks.cpg/sg72_6_cif.got.tgz:10396.got - 2010.06.03 17:03:01.
