data_PCOD9527076
_publ_section_title
;
Structure prediction by ZEFSAII (Michael W. Deem and Ramdas Pophale) SiO2 
 PCOD9527076
Probable space group: I B A M
;
_chemical_formula_sum "Si O2"
_cell_formula_units_Z 88
_cell_length_a 11.416545
_cell_length_b 26.613921
_cell_length_c 14.935083
_cell_angle_alpha 90.000000
_cell_angle_beta 90.000000
_cell_angle_gamma 90.000000
_cell_volume 4537.861083
_symmetry_space_group_name_H-M "I B A M"
_symmetry_group_IT_number 72
_symmetry_cell_setting 'orthorhombic'
loop_
_space_group_symop_operation_xyz
x,y,z
-x,-y,z
x,-y,1/2-z
-x,y,1/2-z
-x,-y,-z
x,y,-z
-x,y,1/2+z
x,-y,1/2+z
1/2+x,1/2+y,1/2+z
1/2-x,1/2-y,1/2+z
1/2+x,1/2-y,-z
1/2-x,1/2+y,-z
1/2-x,1/2-y,1/2-z
1/2+x,1/2+y,1/2-z
1/2-x,1/2+y,z
1/2+x,1/2-y,z
loop_
_atom_site_type_symbol
_atom_site_label
_atom_site_fract_x
_atom_site_fract_y
_atom_site_fract_z
Si Si1 0.573621 0.867417 0.000000
Si Si2 0.520262 0.941940 0.355827
Si Si3 0.318961 0.691306 0.000000
Si Si4 0.242069 0.882777 0.850771
Si Si5 0.172395 0.689507 0.500000
Si Si6 0.888122 0.146321 0.311359
Si Si7 0.503781 0.557755 0.105704
O O1 0.558797 0.904339 0.914548
O O2 0.693793 0.836934 0.000000
O O3 0.463028 0.829128 0.000000
O O4 0.500000 0.938371 0.250000
O O5 0.652198 0.921521 0.366530
O O6 0.500000 0.000000 0.382798
O O7 0.379056 0.675200 0.905589
O O8 0.312888 0.751247 0.000000
O O9 0.223803 0.857753 0.753231
O O10 0.125114 0.913531 0.875224
O O11 0.265487 0.836470 0.915966
O O12 0.000000 0.162876 0.250000
O O13 0.909650 0.088838 0.339622
O O14 0.500000 0.500000 0.132098
O O15 0.479478 0.560789 0.000000
#
# Coordination Sequence:
#
# PCOD9527076 Si02
#       7
#     8  16   8  16   8  16  16
#     4  10  23  40  60  90 120 154 203 253 293 360
#     4  10  21  38  59  87 122 161 202 242 294 364
#     4  12  24  43  66  91 120 159 208 264 308 346
#     4  10  21  40  61  84 124 166 198 249 314 360
#     4  10  24  43  64  85 120 165 203 251 315 366
#     4  10  23  39  63  94 126 156 203 255 302 369
#     4  10  20  36  59  91 125 160 200 241 301 374
#
# _framework density 19.392396999999999
#
# number of rings (size 3 to 8) (size 9 to 14) (size 15 to 20)
#    0.000    1.818    1.818    1.364    0.000   11.273 
#    0.000    3.636    0.000    0.000    0.000    0.000 
#    0.000    0.000    0.000    0.000    0.000    0.000 
#
# Total GULP energy -245484.769199 kJ/mol
# GULP energy per Si atom -5579.199300 kJ/mol
# Density = 1.934826 g / cm^3
# Si number density = 19.392397 Si / 1000 Ang^3
#
#
#
# Elastic Constant Matrix: (Units=GPa)
#
#
# Indices 1 2 3 4 5 6 
#
# 1 53.5048 47.0164 43.8153 -0.0001 0.0000 0.0000
# 2 47.0164 160.9533 82.2720 -0.0001 0.0001 0.0000
# 3 43.8153 82.2720 147.8692 -0.0010 0.0004 0.0001
# 4 -0.0001 -0.0001 -0.0010 2.5175 0.0001 0.0001
# 5 0.0000 0.0001 0.0004 0.0001 -86.3552 0.0000
# 6 0.0000 0.0000 0.0001 0.0001 0.0000 17.0329
#
#
#
# Elastic Compliance Matrix: (Units=1/GPa)
#
#
# Indices 1 2 3 4 5 6 
#
# 1 0.027722 -0.005449 -0.005183 -0.000002 0.000000 0.000000
# 2 -0.005449 0.009753 -0.003812 -0.000001 0.000000 0.000000
# 3 -0.005183 -0.003812 0.010419 0.000004 0.000000 0.000000
# 4 -0.000002 -0.000001 0.000004 0.397213 0.000001 -0.000002
# 5 0.000000 0.000000 0.000000 0.000001 -0.011580 0.000000
# 6 0.000000 0.000000 0.000000 -0.000002 0.000000 0.058710
#
#
# Mechanical properties :
#
#
# Convention : Reuss Voigt Hill
#
# Bulk Modulus (GPa) = 52.61048 78.72608 65.66828
# Shear Modulus (GPa) = 9.47938 -0.74604 4.36667
#
# Velocity S-wave (km/s) = 2.21332 -0.62092 1.50221
# Velocity P-wave (km/s) = 5.80690 6.33802 6.07826
#
# Compressibility (1/GPa) = 0.01900762
#
# Stress axis : x y z
#
# Youngs Moduli (GPa) = 36.07230 102.53121 95.97536
#
# Poissons Ratio (x) = 0.55867 0.49742
# Poissons Ratio (y) = 0.19655 0.36585
# Poissons Ratio (z) = 0.18695 0.39084
#
# Static dielectric constant tensor:
#      x y z
#    x 1.709300 0.000000 0.000000 
#    y 0.000000 1.702290 0.000000 
#    z 0.000000 0.000000 1.728700 
# 
# From -- ./inp_files/20345.got.cif
#   From: 2010.05.17/outbox.cif.g08.bks.cpg/sg72_11_cif.got.tgz:20345.got - 2010.06.03 17:03:01.
