data_PCOD9527919
_publ_section_title
;
Structure prediction by ZEFSAII (Michael W. Deem and Ramdas Pophale) SiO2 
 PCOD9527919
Probable space group: I B A M
;
_chemical_formula_sum "Si O2"
_cell_formula_units_Z 80
_cell_length_a 8.496934
_cell_length_b 29.166201
_cell_length_c 16.260944
_cell_angle_alpha 90.000000
_cell_angle_beta 90.000000
_cell_angle_gamma 90.000000
_cell_volume 4029.840558
_symmetry_space_group_name_H-M "I B A M"
_symmetry_group_IT_number 72
_symmetry_cell_setting 'orthorhombic'
loop_
_space_group_symop_operation_xyz
x,y,z
-x,-y,z
x,-y,1/2-z
-x,y,1/2-z
-x,-y,-z
x,y,-z
-x,y,1/2+z
x,-y,1/2+z
1/2+x,1/2+y,1/2+z
1/2-x,1/2-y,1/2+z
1/2+x,1/2-y,-z
1/2-x,1/2+y,-z
1/2-x,1/2-y,1/2-z
1/2+x,1/2+y,1/2-z
1/2-x,1/2+y,z
1/2+x,1/2-y,z
loop_
_atom_site_type_symbol
_atom_site_label
_atom_site_fract_x
_atom_site_fract_y
_atom_site_fract_z
Si Si1 0.224429 0.612364 0.594929
Si Si2 0.769248 0.784652 0.905397
Si Si3 0.094463 0.200463 0.336423
Si Si4 0.685963 0.446602 0.261706
Si Si5 0.900022 0.627913 0.670099
O O1 0.268668 0.612803 0.500000
O O2 0.310986 0.654530 0.641363
O O3 0.274866 0.567896 0.645461
O O4 0.036313 0.615360 0.605751
O O5 0.713459 0.742588 0.848556
O O6 0.698682 0.830905 0.867303
O O7 0.956039 0.789812 0.901012
O O8 0.719484 0.778047 0.000000
O O9 0.000000 0.197595 0.250000
O O10 0.721924 0.500000 0.250000
O O11 0.500000 0.438844 0.250000
O O12 0.790031 0.413703 0.202267
O O13 0.000000 0.643524 0.750000
#
# Coordination Sequence:
#
# PCOD9527919 Si02
#       5
#    16  16  16  16  16
#     4  11  22  39  62  93 125 159 204 259 308 358
#     4  12  23  37  57  87 122 160 203 254 303 354
#     4  12  24  40  61  86 122 168 210 249 302 368
#     4  10  22  43  67  89 119 160 204 250 309 376
#     4  10  21  38  61  88 121 162 202 245 302 369
#
# _framework density 19.851901999999999
#
# number of rings (size 3 to 8) (size 9 to 14) (size 15 to 20)
#    0.000    1.000    0.000    9.000    0.000    3.600 
#    0.000    6.000    0.000    0.000    0.000    0.000 
#    0.000    0.000    0.000    0.000    0.000    0.000 
#
# Total GULP energy -223561.953085 kJ/mol
# GULP energy per Si atom -5589.048827 kJ/mol
# Density = 1.980672 g / cm^3
# Si number density = 19.851902 Si / 1000 Ang^3
#
#
#
# Elastic Constant Matrix: (Units=GPa)
#
#
# Indices 1 2 3 4 5 6 
#
# 1 101.1928 52.5752 26.8667 0.0000 0.0000 0.0000
# 2 52.5752 118.5968 66.3400 0.0000 0.0000 0.0000
# 3 26.8667 66.3400 128.2699 0.0002 0.0000 0.0000
# 4 0.0000 0.0000 0.0002 -14.1030 0.0000 0.0000
# 5 0.0000 0.0000 0.0000 0.0000 26.9094 0.0000
# 6 0.0000 0.0000 0.0000 0.0000 0.0000 30.2965
#
#
#
# Elastic Compliance Matrix: (Units=1/GPa)
#
#
# Indices 1 2 3 4 5 6 
#
# 1 0.012851 -0.005898 0.000358 0.000000 0.000000 0.000000
# 2 -0.005898 0.014571 -0.006301 0.000000 0.000000 0.000000
# 3 0.000358 -0.006301 0.010980 0.000000 0.000000 0.000000
# 4 0.000000 0.000000 0.000000 -0.070907 0.000000 0.000000
# 5 0.000000 0.000000 0.000000 0.000000 0.037162 0.000000
# 6 0.000000 0.000000 0.000000 0.000000 0.000000 0.033007
#
#
# Mechanical properties :
#
#
# Convention : Reuss Voigt Hill
#
# Bulk Modulus (GPa) = 67.92535 71.06925 69.49730
# Shear Modulus (GPa) = 75.47175 22.10575 48.78875
#
# Velocity S-wave (km/s) = 6.17251 3.34058 4.96283
# Velocity P-wave (km/s) = 9.22444 7.12438 8.24157
#
# Compressibility (1/GPa) = 0.01472204
#
# Stress axis : x y z
#
# Youngs Moduli (GPa) = 77.81471 68.63066 91.07805
#
# Poissons Ratio (x) = 0.40475 -0.03264
# Poissons Ratio (y) = 0.45891 0.57385
# Poissons Ratio (z) = -0.02789 0.43241
#
# Static dielectric constant tensor:
#      x y z
#    x 1.729580 0.000000 0.000000 
#    y 0.000000 1.672910 0.000000 
#    z 0.000000 0.000000 1.738390 
# 
# From -- ./inp_files/28183.got.cif
#   From: 2010.05.17/outbox.cif.g08.bks.cpg/sg72_15_cif.got.tgz:28183.got - 2010.06.03 17:03:01.
