data_PCOD9527575
_publ_section_title
;
Structure prediction by ZEFSAII (Michael W. Deem and Ramdas Pophale) SiO2 
 PCOD9527575
Probable space group: I B A M
;
_chemical_formula_sum "Si O2"
_cell_formula_units_Z 80
_cell_length_a 17.124897
_cell_length_b 26.406761
_cell_length_c 9.539295
_cell_angle_alpha 90.000000
_cell_angle_beta 90.000000
_cell_angle_gamma 90.000000
_cell_volume 4313.793803
_symmetry_space_group_name_H-M "I B A M"
_symmetry_group_IT_number 72
_symmetry_cell_setting 'orthorhombic'
loop_
_space_group_symop_operation_xyz
x,y,z
-x,-y,z
x,-y,1/2-z
-x,y,1/2-z
-x,-y,-z
x,y,-z
-x,y,1/2+z
x,-y,1/2+z
1/2+x,1/2+y,1/2+z
1/2-x,1/2-y,1/2+z
1/2+x,1/2-y,-z
1/2-x,1/2+y,-z
1/2-x,1/2-y,1/2-z
1/2+x,1/2+y,1/2-z
1/2-x,1/2+y,z
1/2+x,1/2-y,z
loop_
_atom_site_type_symbol
_atom_site_label
_atom_site_fract_x
_atom_site_fract_y
_atom_site_fract_z
Si Si1 0.181476 0.899529 0.756055
Si Si2 0.727699 0.801075 0.168827
Si Si3 0.428302 0.575149 0.500000
Si Si4 0.106946 0.955527 0.500000
Si Si5 0.656912 0.950681 0.341949
Si Si6 0.921138 0.346092 0.669133
O O1 0.208057 0.845125 0.697210
O O2 0.153777 0.936617 0.633854
O O3 0.258371 0.924427 0.824158
O O4 0.110906 0.898309 0.866415
O O5 0.750000 0.750000 0.250000
O O6 0.649336 0.819737 0.247015
O O7 0.718577 0.794799 0.000000
O O8 0.521762 0.571253 0.500000
O O9 0.402776 0.515903 0.500000
O O10 0.648407 0.967668 0.500000
O O11 0.595340 0.906100 0.314207
O O12 0.649535 0.000000 0.250000
O O13 0.921086 0.335408 0.500000
O O14 0.000000 0.332302 0.750000
#
# Coordination Sequence:
#
# PCOD9527575 Si02
#       6
#    16  16   8   8  16  16
#     4  11  22  38  59  89 122 161 209 259 307 367
#     4  11  24  43  70  93 119 159 208 261 316 373
#     4  11  22  36  61  84 129 173 208 253 312 374
#     4  11  22  38  55  90 125 171 214 253 308 372
#     4  10  21  34  56  86 119 163 205 248 297 358
#     4  10  22  41  63  91 125 158 199 247 305 365
#
# _framework density 18.545159000000002
#
# number of rings (size 3 to 8) (size 9 to 14) (size 15 to 20)
#    0.000    1.400    2.000    3.600    4.200    3.600 
#    0.000    4.000    0.000    0.000    0.000    0.000 
#    0.000    0.000    0.000    0.000    0.000    0.000 
#
# Total GULP energy -223320.333201 kJ/mol
# GULP energy per Si atom -5583.008330 kJ/mol
# Density = 1.850295 g / cm^3
# Si number density = 18.545159 Si / 1000 Ang^3
#
#
#
# Elastic Constant Matrix: (Units=GPa)
#
#
# Indices 1 2 3 4 5 6 
#
# 1 84.1482 28.4428 30.4482 -0.0002 0.0000 0.0000
# 2 28.4428 98.3961 65.5699 0.0002 0.0000 0.0000
# 3 30.4482 65.5699 111.1988 0.0012 0.0002 0.0000
# 4 -0.0002 0.0002 0.0012 -223.1078 0.0025 -0.0002
# 5 0.0000 0.0000 0.0002 0.0025 40.0412 0.0000
# 6 0.0000 0.0000 0.0000 -0.0002 0.0000 15.6079
#
#
#
# Elastic Compliance Matrix: (Units=1/GPa)
#
#
# Indices 1 2 3 4 5 6 
#
# 1 0.013519 -0.002374 -0.002302 0.000000 0.000000 0.000000
# 2 -0.002374 0.017158 -0.009468 0.000000 0.000000 0.000000
# 3 -0.002302 -0.009468 0.015206 0.000000 0.000000 0.000000
# 4 0.000000 0.000000 0.000000 -0.004482 0.000000 0.000000
# 5 0.000000 0.000000 0.000000 0.000000 0.024974 0.000000
# 6 0.000000 0.000000 0.000000 0.000000 0.000000 0.064070
#
#
# Mechanical properties :
#
#
# Convention : Reuss Voigt Hill
#
# Bulk Modulus (GPa) = 56.82982 60.29613 58.56298
# Shear Modulus (GPa) = 30.37702 -22.20625 4.08538
#
# Velocity S-wave (km/s) = 4.05162 -3.46412 1.48584
# Velocity P-wave (km/s) = 7.25245 4.07229 5.88139
#
# Compressibility (1/GPa) = 0.01759640
#
# Stress axis : x y z
#
# Youngs Moduli (GPa) = 73.96920 58.28080 65.76379
#
# Poissons Ratio (x) = 0.13835 0.15139
# Poissons Ratio (y) = 0.17559 0.62263
# Poissons Ratio (z) = 0.17028 0.55178
#
# Static dielectric constant tensor:
#      x y z
#    x 1.640430 0.000000 0.000000 
#    y 0.000000 1.657070 0.000000 
#    z 0.000000 0.000000 1.443970 
# 
# From -- ./inp_files/4874.got.cif
#   From: 2010.05.17/outbox.cif.g08.bks.cpg/sg72_3_cif.got.tgz:4874.got - 2010.06.03 17:03:01.
