data_PCOD9527814
_publ_section_title
;
Structure prediction by ZEFSAII (Michael W. Deem and Ramdas Pophale) SiO2 
 PCOD9527814
Probable space group: I B A M
;
_chemical_formula_sum "Si O2"
_cell_formula_units_Z 112
_cell_length_a 14.038862
_cell_length_b 16.033115
_cell_length_c 22.284444
_cell_angle_alpha 90.000000
_cell_angle_beta 90.000000
_cell_angle_gamma 90.000000
_cell_volume 5015.931714
_symmetry_space_group_name_H-M "I B A M"
_symmetry_group_IT_number 72
_symmetry_cell_setting 'orthorhombic'
loop_
_space_group_symop_operation_xyz
x,y,z
-x,-y,z
x,-y,1/2-z
-x,y,1/2-z
-x,-y,-z
x,y,-z
-x,y,1/2+z
x,-y,1/2+z
1/2+x,1/2+y,1/2+z
1/2-x,1/2-y,1/2+z
1/2+x,1/2-y,-z
1/2-x,1/2+y,-z
1/2-x,1/2-y,1/2-z
1/2+x,1/2+y,1/2-z
1/2-x,1/2+y,z
1/2+x,1/2-y,z
loop_
_atom_site_type_symbol
_atom_site_label
_atom_site_fract_x
_atom_site_fract_y
_atom_site_fract_z
Si Si1 0.842028 0.346412 0.899788
Si Si2 0.644644 0.634544 0.365740
Si Si3 0.614999 0.278279 0.253148
Si Si4 0.399327 0.981793 0.934159
Si Si5 0.113114 0.594286 0.764550
Si Si6 0.199235 0.036462 0.571314
Si Si7 0.072686 0.816554 0.112867
O O1 0.732384 0.318130 0.897455
O O2 0.855538 0.426363 0.939856
O O3 0.868055 0.383998 0.834092
O O4 0.911865 0.272925 0.916655
O O5 0.652258 0.655070 0.294889
O O6 0.663061 0.539845 0.387136
O O7 0.538427 0.662625 0.381574
O O8 0.500000 0.275727 0.250000
O O9 0.647989 0.183695 0.236402
O O10 0.625742 0.304498 0.322370
O O11 0.500000 0.000000 0.902170
O O12 0.306674 0.935953 0.908456
O O13 0.421465 0.945515 0.000000
O O14 0.149876 0.500000 0.750000
O O15 0.000000 0.591435 0.750000
O O16 0.201856 0.015767 0.500000
O O17 0.126072 0.110843 0.579115
#
# Coordination Sequence:
#
# PCOD9527814 Si02
#       7
#    16  16  16  16  16  16  16
#     4  10  22  38  56  91 119 157 196 245 301 356
#     4  10  21  40  57  84 123 162 193 249 301 343
#     4   8  17  36  56  81 120 156 196 238 289 356
#     4   9  20  40  62  84 118 154 190 246 306 360
#     4   9  18  33  54  85 118 157 191 236 292 356
#     4  10  22  41  63  89 116 153 207 249 294 360
#     4  10  21  37  61  86 119 159 202 248 296 352
#
# _framework density 22.328852000000001
#
# number of rings (size 3 to 8) (size 9 to 14) (size 15 to 20)
#    0.000    2.571    0.000    1.286    2.000    5.714 
#   10.286    2.143    0.000    0.000    0.000    0.000 
#    0.000    0.000    0.000    0.000    0.000    0.000 
#
# Total GULP energy -311817.461255 kJ/mol
# GULP energy per Si atom -5568.168951 kJ/mol
# Density = 2.227803 g / cm^3
# Si number density = 22.328852 Si / 1000 Ang^3
#
#
#
# Elastic Constant Matrix: (Units=GPa)
#
#
# Indices 1 2 3 4 5 6 
#
# 1 153.1006 17.6472 13.1986 0.0000 0.0000 0.0000
# 2 17.6472 91.7371 40.2210 0.0000 0.0000 0.0000
# 3 13.1986 40.2210 61.6154 0.0000 0.0000 0.0000
# 4 0.0000 0.0000 0.0000 99.9928 0.0000 0.0000
# 5 0.0000 0.0000 0.0000 0.0000 17.7632 0.0000
# 6 0.0000 0.0000 0.0000 0.0000 0.0000 13.5141
#
#
#
# Elastic Compliance Matrix: (Units=1/GPa)
#
#
# Indices 1 2 3 4 5 6 
#
# 1 0.006710 -0.000925 -0.000833 0.000000 0.000000 0.000000
# 2 -0.000925 0.015399 -0.009854 0.000000 0.000000 0.000000
# 3 -0.000833 -0.009854 0.022841 0.000000 0.000000 0.000000
# 4 0.000000 0.000000 0.000000 0.010001 0.000000 0.000000
# 5 0.000000 0.000000 0.000000 0.000000 0.056296 0.000000
# 6 0.000000 0.000000 0.000000 0.000000 0.000000 0.073997
#
#
# Mechanical properties :
#
#
# Convention : Reuss Voigt Hill
#
# Bulk Modulus (GPa) = 46.03083 49.84296 47.93689
# Shear Modulus (GPa) = 23.17926 41.94644 32.56285
#
# Velocity S-wave (km/s) = 3.22543 4.33896 3.82295
# Velocity P-wave (km/s) = 5.87630 6.89005 6.40327
#
# Compressibility (1/GPa) = 0.02172457
#
# Stress axis : x y z
#
# Youngs Moduli (GPa) = 149.02773 64.93905 43.78179
#
# Poissons Ratio (x) = 0.06010 0.03648
# Poissons Ratio (y) = 0.13792 0.43142
# Poissons Ratio (z) = 0.12418 0.63990
#
# Static dielectric constant tensor:
#      x y z
#    x 1.882750 0.000000 0.000000 
#    y 0.000000 1.821620 0.000000 
#    z 0.000000 0.000000 1.888750 
# 
# From -- ./inp_files/48721.got.cif
#   From: 2010.05.17/outbox.cif.g08.bks.cpg/sg72_25_cif.got.tgz:48721.got - 2010.06.03 17:03:01.
