data_PCOD9527920
_publ_section_title
;
Structure prediction by ZEFSAII (Michael W. Deem and Ramdas Pophale) SiO2 
 PCOD9527920
Probable space group: I B A M
;
_chemical_formula_sum "Si O2"
_cell_formula_units_Z 92
_cell_length_a 21.099642
_cell_length_b 24.885413
_cell_length_c 9.167872
_cell_angle_alpha 90.000000
_cell_angle_beta 90.000000
_cell_angle_gamma 90.000000
_cell_volume 4813.804854
_symmetry_space_group_name_H-M "I B A M"
_symmetry_group_IT_number 72
_symmetry_cell_setting 'orthorhombic'
loop_
_space_group_symop_operation_xyz
x,y,z
-x,-y,z
x,-y,1/2-z
-x,y,1/2-z
-x,-y,-z
x,y,-z
-x,y,1/2+z
x,-y,1/2+z
1/2+x,1/2+y,1/2+z
1/2-x,1/2-y,1/2+z
1/2+x,1/2-y,-z
1/2-x,1/2+y,-z
1/2-x,1/2-y,1/2-z
1/2+x,1/2+y,1/2-z
1/2-x,1/2+y,z
1/2+x,1/2-y,z
loop_
_atom_site_type_symbol
_atom_site_label
_atom_site_fract_x
_atom_site_fract_y
_atom_site_fract_z
Si Si1 0.337231 0.549954 0.831696
Si Si2 0.303407 0.788337 0.175049
Si Si3 0.103227 0.500000 0.750000
Si Si4 0.440338 0.640321 0.171776
Si Si5 0.710758 0.916253 0.328389
Si Si6 0.000000 0.500000 0.500000
Si Si7 0.565541 0.244549 0.323380
O O1 0.368506 0.500000 0.750000
O O2 0.379835 0.602697 0.820253
O O3 0.270062 0.561082 0.759006
O O4 0.328995 0.536351 0.000000
O O5 0.250000 0.750000 0.250000
O O6 0.289458 0.851783 0.191091
O O7 0.370935 0.780319 0.254934
O O8 0.307383 0.776243 0.000000
O O9 0.148326 0.448372 0.778309
O O10 0.055157 0.489891 0.621138
O O11 0.500000 0.612516 0.250000
O O12 0.430971 0.693985 0.266411
O O13 0.452441 0.652833 0.000000
O O14 0.718523 0.926809 0.500000
O O15 0.500000 0.222950 0.250000
O O16 0.563643 0.240905 0.500000
#
# Coordination Sequence:
#
# PCOD9527920 Si02
#       7
#    16  16   8  16  16   4  16
#     4  11  24  38  59  89 121 160 205 252 306 367
#     4  11  24  43  64  95 131 169 215 267 324 386
#     4  11  22  46  64 100 123 166 210 258 331 382
#     4  10  21  38  61  88 121 163 206 255 310 368
#     4  11  24  42  66  93 127 165 211 264 316 382
#     4  10  24  42  72  90 132 162 206 266 320 400
#     4  11  22  40  63  91 122 162 207 257 313 374
#
# _framework density 19.111701
#
# number of rings (size 3 to 8) (size 9 to 14) (size 15 to 20)
#    0.000    1.217    1.739    5.217    1.217    7.304 
#    3.130    1.739    0.000    0.000    0.000    0.000 
#    0.000    0.000    0.000    0.000    0.000    0.000 
#
# Total GULP energy -256188.521835 kJ/mol
# GULP energy per Si atom -5569.315692 kJ/mol
# Density = 1.906820 g / cm^3
# Si number density = 19.111701 Si / 1000 Ang^3
#
#
#
# Elastic Constant Matrix: (Units=GPa)
#
#
# Indices 1 2 3 4 5 6 
#
# 1 96.1744 21.3736 55.5933 0.0000 0.0000 0.0000
# 2 21.3736 56.8881 40.6001 0.0000 0.0000 0.0000
# 3 55.5933 40.6001 177.5894 0.0000 0.0000 0.0000
# 4 0.0000 0.0000 0.0000 31.2300 0.0000 0.0000
# 5 0.0000 0.0000 0.0000 0.0000 47.8889 0.0000
# 6 0.0000 0.0000 0.0000 0.0000 0.0000 89.4929
#
#
#
# Elastic Compliance Matrix: (Units=1/GPa)
#
#
# Indices 1 2 3 4 5 6 
#
# 1 0.012954 -0.002358 -0.003516 0.000000 0.000000 0.000000
# 2 -0.002358 0.021435 -0.004162 0.000000 0.000000 0.000000
# 3 -0.003516 -0.004162 0.007683 0.000000 0.000000 0.000000
# 4 0.000000 0.000000 0.000000 0.032020 0.000000 0.000000
# 5 0.000000 0.000000 0.000000 0.000000 0.020882 0.000000
# 6 0.000000 0.000000 0.000000 0.000000 0.000000 0.011174
#
#
# Mechanical properties :
#
#
# Convention : Reuss Voigt Hill
#
# Bulk Modulus (GPa) = 45.45469 62.86511 54.15990
# Shear Modulus (GPa) = 37.43797 47.92803 42.68300
#
# Velocity S-wave (km/s) = 4.43075 5.01321 4.73095
# Velocity P-wave (km/s) = 7.07183 8.15320 7.63169
#
# Compressibility (1/GPa) = 0.02199993
#
# Stress axis : x y z
#
# Youngs Moduli (GPa) = 77.19447 46.65325 130.15242
#
# Poissons Ratio (x) = 0.10999 0.45765
# Poissons Ratio (y) = 0.18199 0.54174
# Poissons Ratio (z) = 0.27144 0.19419
#
# Static dielectric constant tensor:
#      x y z
#    x 1.674780 0.000000 0.000000 
#    y 0.000000 1.678680 0.000000 
#    z 0.000000 0.000000 1.613280 
# 
# From -- ./inp_files/6079.got.cif
#   From: 2010.05.17/outbox.cif.g08.bks.cpg/sg72_4_cif.got.tgz:6079.got - 2010.06.03 17:03:01.
