data_PCOD9527135
_publ_section_title
;
Structure prediction by ZEFSAII (Michael W. Deem and Ramdas Pophale) SiO2 
 PCOD9527135
Probable space group: I B A M
;
_chemical_formula_sum "Si O2"
_cell_formula_units_Z 116
_cell_length_a 22.053559
_cell_length_b 31.751778
_cell_length_c 8.942193
_cell_angle_alpha 90.000000
_cell_angle_beta 90.000000
_cell_angle_gamma 90.000000
_cell_volume 6261.678628
_symmetry_space_group_name_H-M "I B A M"
_symmetry_group_IT_number 72
_symmetry_cell_setting 'orthorhombic'
loop_
_space_group_symop_operation_xyz
x,y,z
-x,-y,z
x,-y,1/2-z
-x,y,1/2-z
-x,-y,-z
x,y,-z
-x,y,1/2+z
x,-y,1/2+z
1/2+x,1/2+y,1/2+z
1/2-x,1/2-y,1/2+z
1/2+x,1/2-y,-z
1/2-x,1/2+y,-z
1/2-x,1/2-y,1/2-z
1/2+x,1/2+y,1/2-z
1/2-x,1/2+y,z
1/2+x,1/2-y,z
loop_
_atom_site_type_symbol
_atom_site_label
_atom_site_fract_x
_atom_site_fract_y
_atom_site_fract_z
Si Si1 0.937429 0.846515 0.679034
Si Si2 0.100079 0.065910 0.170217
Si Si3 0.806059 0.693777 0.177578
Si Si4 0.168234 0.220012 0.322367
Si Si5 0.064273 0.545216 0.178482
Si Si6 0.678076 0.105116 0.322140
Si Si7 0.726051 0.456344 0.321510
Si Si8 0.000000 0.000000 0.250000
O O1 0.942931 0.851591 0.500000
O O2 0.923063 0.891386 0.753699
O O3 0.883425 0.813925 0.710480
O O4 0.000000 0.830870 0.750000
O O5 0.157421 0.049959 0.264619
O O6 0.119656 0.073810 0.000000
O O7 0.046234 0.031640 0.168036
O O8 0.837683 0.736546 0.233100
O O9 0.734401 0.700562 0.210817
O O10 0.827706 0.652425 0.262944
O O11 0.813042 0.688549 0.000000
O O12 0.166857 0.229241 0.500000
O O13 0.080091 0.500000 0.250000
O O14 0.117283 0.578454 0.207957
O O15 0.000000 0.558023 0.250000
O O16 0.057530 0.540431 0.000000
O O17 0.689340 0.104641 0.500000
O O18 0.733028 0.081803 0.237848
O O19 0.749071 0.500000 0.250000
O O20 0.727624 0.458682 0.500000
#
# Coordination Sequence:
#
# PCOD9527135 Si02
#       8
#    16  16  16  16  16  16  16   4
#     4  11  23  39  60  86 118 154 198 246 296 352
#     4  12  25  41  62  86 118 161 209 256 303 354
#     4  10  20  36  62  91 115 147 188 237 294 352
#     4   9  20  39  60  84 115 150 187 236 293 353
#     4  10  21  37  60  87 117 156 197 238 284 343
#     4  11  23  39  60  89 123 157 195 241 296 353
#     4  12  25  40  59  85 120 159 203 251 300 351
#     4  12  26  40  64  86 118 164 212 252 302 352
#
# _framework density 18.525383999999999
#
# number of rings (size 3 to 8) (size 9 to 14) (size 15 to 20)
#    0.000    1.241    1.379    5.172    0.000    7.172 
#    0.000    0.690    0.000    0.000    0.000    0.000 
#    0.000    0.000    0.000    0.000    0.000    0.000 
#
# Total GULP energy -324226.792638 kJ/mol
# GULP energy per Si atom -5590.117114 kJ/mol
# Density = 1.848322 g / cm^3
# Si number density = 18.525384 Si / 1000 Ang^3
#
#
#
# Elastic Constant Matrix: (Units=GPa)
#
#
# Indices 1 2 3 4 5 6 
#
# 1 83.7543 61.0855 55.6322 0.0000 0.0000 0.0000
# 2 61.0855 118.3667 70.4888 0.0000 0.0000 0.0000
# 3 55.6322 70.4888 121.3661 0.0000 0.0000 0.0000
# 4 0.0000 0.0000 0.0000 0.7619 0.0000 0.0000
# 5 0.0000 0.0000 0.0000 0.0000 22.8378 0.0000
# 6 0.0000 0.0000 0.0000 0.0000 0.0000 17.1234
#
#
#
# Elastic Compliance Matrix: (Units=1/GPa)
#
#
# Indices 1 2 3 4 5 6 
#
# 1 0.021026 -0.007814 -0.005100 0.000000 0.000000 0.000000
# 2 -0.007814 0.015819 -0.005606 0.000000 0.000000 0.000000
# 3 -0.005100 -0.005606 0.013833 0.000000 0.000000 0.000000
# 4 0.000000 0.000000 0.000000 1.312590 0.000000 0.000000
# 5 0.000000 0.000000 0.000000 0.000000 0.043787 0.000000
# 6 0.000000 0.000000 0.000000 0.000000 0.000000 0.058400
#
#
# Mechanical properties :
#
#
# Convention : Reuss Voigt Hill
#
# Bulk Modulus (GPa) = 73.31824 77.54446 75.43135
# Shear Modulus (GPa) = 3.31776 17.22999 10.27388
#
# Velocity S-wave (km/s) = 1.33971 3.05302 2.35751
# Velocity P-wave (km/s) = 6.48507 7.37410 6.94383
#
# Compressibility (1/GPa) = 0.01363917
#
# Stress axis : x y z
#
# Youngs Moduli (GPa) = 47.55974 63.21380 72.29069
#
# Poissons Ratio (x) = 0.49396 0.36866
# Poissons Ratio (y) = 0.37163 0.40526
# Poissons Ratio (z) = 0.24254 0.35437
#
# Static dielectric constant tensor:
#      x y z
#    x 1.632710 0.000000 0.000000 
#    y 0.000000 1.620760 0.000000 
#    z 0.000000 0.000000 1.624810 
# 
# From -- ./inp_files/7359.got.cif
#   From: 2010.05.17/outbox.cif.g08.bks.cpg/sg72_4_cif.got.tgz:7359.got - 2010.06.03 17:03:01.
