data_PCOD9527879
_publ_section_title
;
Structure prediction by ZEFSAII (Michael W. Deem and Ramdas Pophale) SiO2 
 PCOD9527879
Probable space group: I B A M
;
_chemical_formula_sum "Si O2"
_cell_formula_units_Z 88
_cell_length_a 18.309322
_cell_length_b 24.071496
_cell_length_c 9.566469
_cell_angle_alpha 90.000000
_cell_angle_beta 90.000000
_cell_angle_gamma 90.000000
_cell_volume 4216.256394
_symmetry_space_group_name_H-M "I B A M"
_symmetry_group_IT_number 72
_symmetry_cell_setting 'orthorhombic'
loop_
_space_group_symop_operation_xyz
x,y,z
-x,-y,z
x,-y,1/2-z
-x,y,1/2-z
-x,-y,-z
x,y,-z
-x,y,1/2+z
x,-y,1/2+z
1/2+x,1/2+y,1/2+z
1/2-x,1/2-y,1/2+z
1/2+x,1/2-y,-z
1/2-x,1/2+y,-z
1/2-x,1/2-y,1/2-z
1/2+x,1/2+y,1/2-z
1/2-x,1/2+y,z
1/2+x,1/2-y,z
loop_
_atom_site_type_symbol
_atom_site_label
_atom_site_fract_x
_atom_site_fract_y
_atom_site_fract_z
Si Si1 0.820944 0.000000 0.250000
Si Si2 0.709224 0.909548 0.658324
Si Si3 0.069543 0.911994 0.657811
Si Si4 0.070347 0.729621 0.837267
Si Si5 0.071565 0.596621 0.835422
Si Si6 0.832836 0.828063 0.333227
O O1 0.770051 0.042565 0.166390
O O2 0.873689 0.037326 0.343811
O O3 0.680758 0.903993 0.500000
O O4 0.645210 0.924799 0.764382
O O5 0.752598 0.852735 0.697805
O O6 0.049199 0.896371 0.500000
O O7 0.111056 0.863261 0.740271
O O8 0.000000 0.927457 0.750000
O O9 0.077812 0.663694 0.817496
O O10 0.143513 0.764627 0.805963
O O11 0.000000 0.748872 0.750000
O O12 0.053657 0.738908 0.000000
O O13 0.000000 0.578401 0.750000
O O14 0.066191 0.584032 0.000000
O O15 0.842925 0.838655 0.500000
#
# Coordination Sequence:
#
# PCOD9527879 Si02
#       6
#     8  16  16  16  16  16
#     4  10  23  40  59  78 106 144 186 228 275 328
#     4  10  21  38  59  82 110 142 178 226 280 329
#     4  11  22  35  54  81 113 150 191 230 267 313
#     4   9  18  33  53  79 112 150 188 223 262 312
#     4  10  21  38  60  84 110 141 179 223 272 329
#     4   9  19  35  54  80 116 153 186 222 265 314
#
# _framework density 20.871596
#
# number of rings (size 3 to 8) (size 9 to 14) (size 15 to 20)
#    0.000    2.182    0.000    2.455    0.000   10.182 
#    0.000    0.455    0.000    2.182    0.000    0.000 
#    0.000    0.000    0.000    0.000    0.000    0.000 
#
# Total GULP energy -245586.291896 kJ/mol
# GULP energy per Si atom -5581.506634 kJ/mol
# Density = 2.082409 g / cm^3
# Si number density = 20.871596 Si / 1000 Ang^3
#
#
#
# Elastic Constant Matrix: (Units=GPa)
#
#
# Indices 1 2 3 4 5 6 
#
# 1 106.3333 5.3001 62.2172 0.0000 0.0000 0.0000
# 2 5.3001 17.0177 12.8753 0.0000 0.0000 0.0000
# 3 62.2172 12.8753 89.4466 0.0000 0.0000 0.0000
# 4 0.0000 0.0000 0.0000 5.3051 0.0000 0.0000
# 5 0.0000 0.0000 0.0000 0.0000 25.3618 0.0000
# 6 0.0000 0.0000 0.0000 0.0000 0.0000 14.2378
#
#
#
# Elastic Compliance Matrix: (Units=1/GPa)
#
#
# Indices 1 2 3 4 5 6 
#
# 1 0.016084 0.003877 -0.011746 0.000000 0.000000 0.000000
# 2 0.003877 0.066879 -0.012324 0.000000 0.000000 0.000000
# 3 -0.011746 -0.012324 0.021124 0.000000 0.000000 0.000000
# 4 0.000000 0.000000 0.000000 0.188499 0.000000 0.000000
# 5 0.000000 0.000000 0.000000 0.000000 0.039429 0.000000
# 6 0.000000 0.000000 0.000000 0.000000 0.000000 0.070235
#
#
# Mechanical properties :
#
#
# Convention : Reuss Voigt Hill
#
# Bulk Modulus (GPa) = 15.69803 41.50920 28.60361
# Shear Modulus (GPa) = 10.77893 17.80795 14.29344
#
# Velocity S-wave (km/s) = 2.27500 2.92415 2.61976
# Velocity P-wave (km/s) = 3.79979 5.59750 4.78384
#
# Compressibility (1/GPa) = 0.06370226
#
# Stress axis : x y z
#
# Youngs Moduli (GPa) = 62.17510 14.95238 47.34008
#
# Poissons Ratio (x) = -0.05798 0.55603
# Poissons Ratio (y) = -0.24107 0.58341
# Poissons Ratio (z) = 0.73028 0.18427
#
# Static dielectric constant tensor:
#      x y z
#    x 1.742920 0.000000 0.000000 
#    y 0.000000 1.794940 0.000000 
#    z 0.000000 0.000000 1.742730 
# 
# From -- ./inp_files/5148.got.cif
#   From: 2010.05.17/outbox.cif.g08.bks.cpg/sg72_3_cif.got.tgz:5148.got - 2010.06.03 17:03:01.
