data_PCOD9527103
_publ_section_title
;
Structure prediction by ZEFSAII (Michael W. Deem and Ramdas Pophale) SiO2 
 PCOD9527103
Probable space group: I B A M
;
_chemical_formula_sum "Si O2"
_cell_formula_units_Z 64
_cell_length_a 11.234501
_cell_length_b 14.420983
_cell_length_c 14.905331
_cell_angle_alpha 90.000000
_cell_angle_beta 90.000000
_cell_angle_gamma 90.000000
_cell_volume 2414.850653
_symmetry_space_group_name_H-M "I B A M"
_symmetry_group_IT_number 72
_symmetry_cell_setting 'orthorhombic'
loop_
_space_group_symop_operation_xyz
x,y,z
-x,-y,z
x,-y,1/2-z
-x,y,1/2-z
-x,-y,-z
x,y,-z
-x,y,1/2+z
x,-y,1/2+z
1/2+x,1/2+y,1/2+z
1/2-x,1/2-y,1/2+z
1/2+x,1/2-y,-z
1/2-x,1/2+y,-z
1/2-x,1/2-y,1/2-z
1/2+x,1/2+y,1/2-z
1/2-x,1/2+y,z
1/2+x,1/2-y,z
loop_
_atom_site_type_symbol
_atom_site_label
_atom_site_fract_x
_atom_site_fract_y
_atom_site_fract_z
Si Si1 0.865487 0.199614 0.594951
Si Si2 0.858268 0.566985 0.396954
Si Si3 0.061068 0.091941 0.654321
Si Si4 0.663092 0.117532 0.194687
O O1 0.834532 0.244631 0.500000
O O2 0.778752 0.110069 0.602170
O O3 0.846657 0.275911 0.669628
O O4 0.004782 0.173950 0.597273
O O5 0.897187 0.589101 0.500000
O O6 0.884782 0.457591 0.377783
O O7 0.886327 0.605083 0.295772
O O8 0.197830 0.091946 0.679177
O O9 0.000000 0.102986 0.750000
O O10 0.000000 0.000000 0.614494
#
# Coordination Sequence:
#
# PCOD9527103 Si02
#       4
#    16  16  16  16
#     4  11  23  36  59  96 128 163 212 259 312 383
#     4  10  20  36  60  91 124 163 212 257 314 381
#     4  11  20  38  62  92 123 163 210 259 316 368
#     4  11  21  39  63  90 132 169 201 266 325 365
#
# _framework density 26.502672
#
# number of rings (size 3 to 8) (size 9 to 14) (size 15 to 20)
#    0.000    1.250    5.000    3.000    0.000    2.500 
#    0.000    0.000    0.000    3.000    0.000    5.250 
#    0.000    0.000    0.000    0.000    0.000    0.000 
#
# Total GULP energy -178317.653546 kJ/mol
# GULP energy per Si atom -5572.426673 kJ/mol
# Density = 2.644235 g / cm^3
# Si number density = 26.502672 Si / 1000 Ang^3
#
#
#
# Elastic Constant Matrix: (Units=GPa)
#
#
# Indices 1 2 3 4 5 6 
#
# 1 105.0689 22.7681 44.0323 0.0000 0.0000 0.0000
# 2 22.7681 111.5842 55.5206 0.0000 0.0000 0.0000
# 3 44.0323 55.5206 192.5875 0.0000 0.0000 0.0000
# 4 0.0000 0.0000 0.0000 34.1235 0.0000 0.0000
# 5 0.0000 0.0000 0.0000 0.0000 26.7182 0.0000
# 6 0.0000 0.0000 0.0000 0.0000 0.0000 15.1694
#
#
#
# Elastic Compliance Matrix: (Units=1/GPa)
#
#
# Indices 1 2 3 4 5 6 
#
# 1 0.010645 -0.001122 -0.002110 0.000000 0.000000 0.000000
# 2 -0.001122 0.010581 -0.002794 0.000000 0.000000 0.000000
# 3 -0.002110 -0.002794 0.006480 0.000000 0.000000 0.000000
# 4 0.000000 0.000000 0.000000 0.029305 0.000000 0.000000
# 5 0.000000 0.000000 0.000000 0.000000 0.037428 0.000000
# 6 0.000000 0.000000 0.000000 0.000000 0.000000 0.065922
#
#
# Mechanical properties :
#
#
# Convention : Reuss Voigt Hill
#
# Bulk Modulus (GPa) = 63.88158 72.65361 68.26760
# Shear Modulus (GPa) = 28.14806 34.33018 31.23912
#
# Velocity S-wave (km/s) = 3.26250 3.60300 3.43697
# Velocity P-wave (km/s) = 6.19258 6.69194 6.44709
#
# Compressibility (1/GPa) = 0.01565396
#
# Stress axis : x y z
#
# Youngs Moduli (GPa) = 93.93975 94.51005 154.31205
#
# Poissons Ratio (x) = 0.10604 0.32566
# Poissons Ratio (y) = 0.10540 0.43112
# Poissons Ratio (z) = 0.19825 0.26404
#
# Static dielectric constant tensor:
#      x y z
#    x 2.285690 0.000000 0.000000 
#    y 0.000000 2.098070 0.000000 
#    z 0.000000 0.000000 2.115290 
# 
# From -- ./inp_files/21214.got.cif
#   From: 2010.05.17/outbox.cif.g08.bks.cpg/sg72_11_cif.got.tgz:21214.got - 2010.06.03 17:03:01.
