data_PCOD9527277
_publ_section_title
;
Structure prediction by ZEFSAII (Michael W. Deem and Ramdas Pophale) SiO2 
 PCOD9527277
Probable space group: I B A M
;
_chemical_formula_sum "Si O2"
_cell_formula_units_Z 88
_cell_length_a 17.069005
_cell_length_b 11.609524
_cell_length_c 22.154989
_cell_angle_alpha 90.000000
_cell_angle_beta 90.000000
_cell_angle_gamma 90.000000
_cell_volume 4390.299599
_symmetry_space_group_name_H-M "I B A M"
_symmetry_group_IT_number 72
_symmetry_cell_setting 'orthorhombic'
loop_
_space_group_symop_operation_xyz
x,y,z
-x,-y,z
x,-y,1/2-z
-x,y,1/2-z
-x,-y,-z
x,y,-z
-x,y,1/2+z
x,-y,1/2+z
1/2+x,1/2+y,1/2+z
1/2-x,1/2-y,1/2+z
1/2+x,1/2-y,-z
1/2-x,1/2+y,-z
1/2-x,1/2-y,1/2-z
1/2+x,1/2+y,1/2-z
1/2-x,1/2+y,z
1/2+x,1/2-y,z
loop_
_atom_site_type_symbol
_atom_site_label
_atom_site_fract_x
_atom_site_fract_y
_atom_site_fract_z
Si Si1 0.326180 0.020083 0.068497
Si Si2 0.526775 0.818683 0.930370
Si Si3 0.799575 0.908644 0.146174
Si Si4 0.585061 0.560329 0.069453
Si Si5 0.184863 0.500000 0.750000
Si Si6 0.377972 0.833709 0.845379
O O1 0.410636 0.079394 0.075664
O O2 0.261501 0.109326 0.091576
O O3 0.323354 0.906102 0.108694
O O4 0.313771 0.990194 0.000000
O O5 0.570658 0.696431 0.923800
O O6 0.460931 0.829028 0.879467
O O7 0.495004 0.822041 0.000000
O O8 0.743750 0.943694 0.201469
O O9 0.847125 0.794889 0.161981
O O10 0.858117 0.005490 0.119456
O O11 0.500000 0.500000 0.074733
O O12 0.612616 0.538628 0.000000
O O13 0.130866 0.593857 0.716135
#
# Coordination Sequence:
#
# PCOD9527277 Si02
#       6
#    16  16  16  16   8  16
#     4  10  23  37  61  99 131 162 202 255 326 403
#     4  10  21  39  65  98 135 162 202 263 329 397
#     4  11  23  42  66  88 128 173 216 266 326 374
#     4  10  20  37  65 101 130 162 205 258 326 400
#     4  10  26  44  64  88 126 170 232 274 311 372
#     4  11  22  42  65  86 123 173 215 265 323 372
#
# _framework density 20.044191000000001
#
# number of rings (size 3 to 8) (size 9 to 14) (size 15 to 20)
#    0.000    1.636    1.818    2.182    5.091    3.636 
#    0.000    7.727    0.000    0.000    0.000    0.000 
#    0.000    0.000    0.000    0.000    0.000    0.000 
#
# Total GULP energy -245625.248911 kJ/mol
# GULP energy per Si atom -5582.392021 kJ/mol
# Density = 1.999857 g / cm^3
# Si number density = 20.044191 Si / 1000 Ang^3
#
#
#
# Elastic Constant Matrix: (Units=GPa)
#
#
# Indices 1 2 3 4 5 6 
#
# 1 81.3300 19.9163 45.5191 0.0000 0.0000 0.0000
# 2 19.9163 90.7346 47.3753 0.0000 0.0000 0.0000
# 3 45.5191 47.3753 104.7208 0.0000 0.0000 0.0000
# 4 0.0000 0.0000 0.0000 22.9495 0.0000 0.0000
# 5 0.0000 0.0000 0.0000 0.0000 44.5356 0.0000
# 6 0.0000 0.0000 0.0000 0.0000 0.0000 19.7326
#
#
#
# Elastic Compliance Matrix: (Units=1/GPa)
#
#
# Indices 1 2 3 4 5 6 
#
# 1 0.016250 0.000159 -0.007135 0.000000 0.000000 0.000000
# 2 0.000159 0.014431 -0.006598 0.000000 0.000000 0.000000
# 3 -0.007135 -0.006598 0.015635 0.000000 0.000000 0.000000
# 4 0.000000 0.000000 0.000000 0.043574 0.000000 0.000000
# 5 0.000000 0.000000 0.000000 0.000000 0.022454 0.000000
# 6 0.000000 0.000000 0.000000 0.000000 0.000000 0.050677
#
#
# Mechanical properties :
#
#
# Convention : Reuss Voigt Hill
#
# Bulk Modulus (GPa) = 52.16926 55.82298 53.99612
# Shear Modulus (GPa) = 25.43753 28.37518 26.90635
#
# Velocity S-wave (km/s) = 3.56627 3.76657 3.66779
# Velocity P-wave (km/s) = 6.56059 6.84299 6.70328
#
# Compressibility (1/GPa) = 0.01916837
#
# Stress axis : x y z
#
# Youngs Moduli (GPa) = 61.53753 69.29468 63.95746
#
# Poissons Ratio (x) = -0.01099 0.45635
# Poissons Ratio (y) = -0.00976 0.42196
# Poissons Ratio (z) = 0.43909 0.45717
#
# Static dielectric constant tensor:
#      x y z
#    x 1.724690 0.000000 0.000000 
#    y 0.000000 1.709070 0.000000 
#    z 0.000000 0.000000 1.717840 
# 
# From -- ./inp_files/38899.got.cif
#   From: 2010.05.17/outbox.cif.g08.bks.cpg/sg72_20_cif.got.tgz:38899.got - 2010.06.03 17:03:01.
