data_PCOD9527708
_publ_section_title
;
Structure prediction by ZEFSAII (Michael W. Deem and Ramdas Pophale) SiO2 
 PCOD9527708
Probable space group: I B A M
;
_chemical_formula_sum "Si O2"
_cell_formula_units_Z 72
_cell_length_a 22.514497
_cell_length_b 9.779921
_cell_length_c 15.445402
_cell_angle_alpha 90.000000
_cell_angle_beta 90.000000
_cell_angle_gamma 90.000000
_cell_volume 3400.923097
_symmetry_space_group_name_H-M "I B A M"
_symmetry_group_IT_number 72
_symmetry_cell_setting 'orthorhombic'
loop_
_space_group_symop_operation_xyz
x,y,z
-x,-y,z
x,-y,1/2-z
-x,y,1/2-z
-x,-y,-z
x,y,-z
-x,y,1/2+z
x,-y,1/2+z
1/2+x,1/2+y,1/2+z
1/2-x,1/2-y,1/2+z
1/2+x,1/2-y,-z
1/2-x,1/2+y,-z
1/2-x,1/2-y,1/2-z
1/2+x,1/2+y,1/2-z
1/2-x,1/2+y,z
1/2+x,1/2-y,z
loop_
_atom_site_type_symbol
_atom_site_label
_atom_site_fract_x
_atom_site_fract_y
_atom_site_fract_z
Si Si1 0.277012 0.631174 0.807468
Si Si2 0.889751 0.942005 0.000000
Si Si3 0.359290 0.880957 0.000000
Si Si4 0.919745 0.887329 0.180184
Si Si5 0.759950 0.038535 0.500000
Si Si6 0.438141 0.924782 0.836215
O O1 0.261947 0.500000 0.750000
O O2 0.250000 0.750000 0.750000
O O3 0.348705 0.641038 0.810339
O O4 0.255566 0.617632 0.907426
O O5 0.926057 0.958261 0.913108
O O6 0.869011 0.782114 0.000000
O O7 0.827253 0.021678 0.000000
O O8 0.392412 0.935456 0.914848
O O9 0.291443 0.926061 0.000000
O O10 0.948204 0.736997 0.181096
O O11 0.936409 0.000000 0.250000
O O12 0.500000 0.000000 0.857741
O O13 0.415241 0.000000 0.750000
#
# Coordination Sequence:
#
# PCOD9527708 Si02
#       6
#    16   8   8  16   8  16
#     4  10  23  35  56  88 131 169 204 250 297 374
#     4   8  18  37  55  85 128 166 197 239 300 363
#     4  10  21  36  62  87 121 163 204 262 300 368
#     4   9  19  38  59  87 124 161 199 246 311 371
#     4  10  22  33  55  88 123 172 206 239 305 363
#     4  10  22  40  63  89 116 154 209 267 320 358
#
# _framework density 21.170722000000001
#
# number of rings (size 3 to 8) (size 9 to 14) (size 15 to 20)
#    0.000    2.444    0.000    0.333   12.444    0.000 
#    0.000    3.333    0.000    0.000    0.000   20.222 
#    0.000    0.000    0.000    0.000    0.000    0.000 
#
# Total GULP energy -201013.133539 kJ/mol
# GULP energy per Si atom -5583.698154 kJ/mol
# Density = 2.112254 g / cm^3
# Si number density = 21.170722 Si / 1000 Ang^3
#
#
#
# Elastic Constant Matrix: (Units=GPa)
#
#
# Indices 1 2 3 4 5 6 
#
# 1 80.6949 43.0788 47.7591 0.0000 0.0000 0.0000
# 2 43.0788 103.2042 51.2440 0.0000 0.0000 0.0000
# 3 47.7591 51.2440 191.1582 0.0000 0.0000 0.0000
# 4 0.0000 0.0000 0.0000 32.4222 0.0000 0.0000
# 5 0.0000 0.0000 0.0000 0.0000 -13.2066 0.0000
# 6 0.0000 0.0000 0.0000 0.0000 0.0000 27.6095
#
#
#
# Elastic Compliance Matrix: (Units=1/GPa)
#
#
# Indices 1 2 3 4 5 6 
#
# 1 0.017089 -0.005783 -0.002719 0.000000 0.000000 0.000000
# 2 -0.005783 0.013134 -0.002076 0.000000 0.000000 0.000000
# 3 -0.002719 -0.002076 0.006467 0.000000 0.000000 0.000000
# 4 0.000000 0.000000 0.000000 0.030843 0.000000 0.000000
# 5 0.000000 0.000000 0.000000 0.000000 -0.075720 0.000000
# 6 0.000000 0.000000 0.000000 0.000000 0.000000 0.036219
#
#
# Mechanical properties :
#
#
# Convention : Reuss Voigt Hill
#
# Bulk Modulus (GPa) = 64.37589 73.24678 68.81133
# Shear Modulus (GPa) = 91.96628 24.89671 58.43150
#
# Velocity S-wave (km/s) = 6.59808 3.43300 5.25928
# Velocity P-wave (km/s) = 9.40852 7.09840 8.33389
#
# Compressibility (1/GPa) = 0.01553377
#
# Stress axis : x y z
#
# Youngs Moduli (GPa) = 58.51727 76.13678 154.62650
#
# Poissons Ratio (x) = 0.44030 0.42047
# Poissons Ratio (y) = 0.33840 0.32102
# Poissons Ratio (z) = 0.15912 0.15807
#
# Static dielectric constant tensor:
#      x y z
#    x 1.781090 0.000000 0.000000 
#    y 0.000000 1.701660 0.000000 
#    z 0.000000 0.000000 1.925640 
# 
# From -- ./inp_files/25738.got.cif
#   From: 2010.05.17/outbox.cif.g08.bks.cpg/sg72_13_cif.got.tgz:25738.got - 2010.06.03 17:03:01.
