data_PCOD9527587
_publ_section_title
;
Structure prediction by ZEFSAII (Michael W. Deem and Ramdas Pophale) SiO2 
 PCOD9527587
Probable space group: I B A M
;
_chemical_formula_sum "Si O2"
_cell_formula_units_Z 96
_cell_length_a 13.595516
_cell_length_b 29.624614
_cell_length_c 10.279293
_cell_angle_alpha 90.000000
_cell_angle_beta 90.000000
_cell_angle_gamma 90.000000
_cell_volume 4140.107719
_symmetry_space_group_name_H-M "I B A M"
_symmetry_group_IT_number 72
_symmetry_cell_setting 'orthorhombic'
loop_
_space_group_symop_operation_xyz
x,y,z
-x,-y,z
x,-y,1/2-z
-x,y,1/2-z
-x,-y,-z
x,y,-z
-x,y,1/2+z
x,-y,1/2+z
1/2+x,1/2+y,1/2+z
1/2-x,1/2-y,1/2+z
1/2+x,1/2-y,-z
1/2-x,1/2+y,-z
1/2-x,1/2-y,1/2-z
1/2+x,1/2+y,1/2-z
1/2-x,1/2+y,z
1/2+x,1/2-y,z
loop_
_atom_site_type_symbol
_atom_site_label
_atom_site_fract_x
_atom_site_fract_y
_atom_site_fract_z
Si Si1 0.639179 0.830310 0.000000
Si Si2 0.916562 0.057721 0.146243
Si Si3 0.376120 0.342449 0.784419
Si Si4 0.135155 0.227075 0.500000
Si Si5 0.142236 0.640076 0.281297
Si Si6 0.127187 0.289126 0.000000
Si Si7 0.684935 0.961415 0.348715
Si Si8 0.876899 0.815504 0.000000
O O1 0.609137 0.855020 0.867635
O O2 0.758260 0.823557 0.000000
O O3 0.604626 0.778730 0.000000
O O4 0.912131 0.111873 0.150936
O O5 0.803581 0.043598 0.174779
O O6 0.000000 0.045270 0.250000
O O7 0.940664 0.043146 0.000000
O O8 0.258385 0.348531 0.781272
O O9 0.408942 0.337127 0.635873
O O10 0.397193 0.298777 0.870492
O O11 0.254062 0.219954 0.500000
O O12 0.101847 0.679173 0.376496
O O13 0.136718 0.588103 0.327146
O O14 0.093669 0.237229 0.000000
O O15 0.672072 0.974092 0.500000
O O16 0.648976 0.000000 0.250000
#
# Coordination Sequence:
#
# PCOD9527587 Si02
#       8
#     8  16  16   8  16   8  16   8
#     4   9  16  22  37  62  81 101 124 143 175 230
#     4  10  21  35  48  60  75  98 129 171 221 262
#     4   9  16  27  40  57  80 101 122 153 193 237
#     4   9  14  24  39  56  81 105 122 143 179 230
#     4   9  16  27  40  57  80 101 122 153 193 237
#     4   9  14  24  39  56  81 105 122 143 179 230
#     4  10  21  35  48  60  75  98 129 171 221 262
#     4   9  16  22  37  62  81 101 124 143 175 230
#
# _framework density 23.187804
#
# number of rings (size 3 to 8) (size 9 to 14) (size 15 to 20)
#    0.000    2.667    1.667    1.000    2.333    5.000 
#    0.000    1.667    0.000    0.000    0.000    0.000 
#    0.000    0.000    0.000    0.000    0.000    0.000 
#
# Total GULP energy -268213.397581 kJ/mol
# GULP energy per Si atom -5587.779116 kJ/mol
# Density = 2.313503 g / cm^3
# Si number density = 23.187804 Si / 1000 Ang^3
#
#
#
# Elastic Constant Matrix: (Units=GPa)
#
#
# Indices 1 2 3 4 5 6 
#
# 1 54.4605 -9.3921 -15.3786 -0.0009 -0.0001 0.0000
# 2 -9.3921 134.8523 68.3531 -0.0012 0.0002 -0.0001
# 3 -15.3786 68.3531 149.3241 -0.0026 0.0008 -0.0004
# 4 -0.0009 -0.0012 -0.0026 148.8156 0.0028 0.0024
# 5 -0.0001 0.0002 0.0008 0.0028 -10.3129 0.0001
# 6 0.0000 -0.0001 -0.0004 0.0024 0.0001 10.1545
#
#
#
# Elastic Compliance Matrix: (Units=1/GPa)
#
#
# Indices 1 2 3 4 5 6 
#
# 1 0.018931 0.000430 0.001753 0.000000 0.000000 0.000000
# 2 0.000430 0.009666 -0.004380 0.000000 0.000000 0.000000
# 3 0.001753 -0.004380 0.008882 0.000000 0.000001 0.000000
# 4 0.000000 0.000000 0.000000 0.006720 0.000002 -0.000002
# 5 0.000000 0.000000 0.000001 0.000002 -0.096966 0.000001
# 6 0.000000 0.000000 0.000000 -0.000002 0.000001 0.098478
#
#
# Mechanical properties :
#
#
# Convention : Reuss Voigt Hill
#
# Bulk Modulus (GPa) = 30.22567 47.31130 38.76848
# Shear Modulus (GPa) = 81.78773 49.40174 65.59474
#
# Velocity S-wave (km/s) = 5.94546 4.62075 5.32446
# Velocity P-wave (km/s) = 7.75853 6.99401 7.38617
#
# Compressibility (1/GPa) = 0.03308447
#
# Stress axis : x y z
#
# Youngs Moduli (GPa) = 52.82330 103.45901 112.58240
#
# Poissons Ratio (x) = -0.04449 -0.19734
# Poissons Ratio (y) = -0.02272 0.49313
# Poissons Ratio (z) = -0.09259 0.45317
#
# Static dielectric constant tensor:
#      x y z
#    x 1.951780 0.000000 0.000000 
#    y 0.000000 1.796610 0.000000 
#    z 0.000000 0.000000 1.838120 
# 
# From -- ./inp_files/7162.got.cif
#   From: 2010.05.17/outbox.cif.g08.bks.cpg/sg72_4_cif.got.tgz:7162.got - 2010.06.03 17:03:01.
