data_PCOD9527243
_publ_section_title
;
Structure prediction by ZEFSAII (Michael W. Deem and Ramdas Pophale) SiO2 
 PCOD9527243
Probable space group: I B A M
;
_chemical_formula_sum "Si O2"
_cell_formula_units_Z 76
_cell_length_a 28.674385
_cell_length_b 5.277376
_cell_length_c 26.587103
_cell_angle_alpha 90.000000
_cell_angle_beta 90.000000
_cell_angle_gamma 90.000000
_cell_volume 4023.306953
_symmetry_space_group_name_H-M "I B A M"
_symmetry_group_IT_number 72
_symmetry_cell_setting 'orthorhombic'
loop_
_space_group_symop_operation_xyz
x,y,z
-x,-y,z
x,-y,1/2-z
-x,y,1/2-z
-x,-y,-z
x,y,-z
-x,y,1/2+z
x,-y,1/2+z
1/2+x,1/2+y,1/2+z
1/2-x,1/2-y,1/2+z
1/2+x,1/2-y,-z
1/2-x,1/2+y,-z
1/2-x,1/2-y,1/2-z
1/2+x,1/2+y,1/2-z
1/2-x,1/2+y,z
1/2+x,1/2-y,z
loop_
_atom_site_type_symbol
_atom_site_label
_atom_site_fract_x
_atom_site_fract_y
_atom_site_fract_z
Si Si1 0.000000 0.500000 0.750000
Si Si2 0.438880 0.240066 0.940350
Si Si3 0.000000 0.000000 0.372951
Si Si4 0.115863 0.245643 0.097913
Si Si5 0.075078 0.861760 0.300111
Si Si6 0.221311 0.748452 0.560693
O O1 0.963950 0.338223 0.717160
O O2 0.488455 0.275533 0.911948
O O3 0.409275 0.496230 0.925938
O O4 0.410319 0.996163 0.921769
O O5 0.445193 0.229441 0.000000
O O6 0.043062 0.038473 0.335080
O O7 0.110958 0.241182 0.158863
O O8 0.169514 0.248656 0.082428
O O9 0.092897 0.000000 0.250000
O O10 0.217261 0.748409 0.500000
O O11 0.249637 0.497251 0.575415
#
# Coordination Sequence:
#
# PCOD9527243 Si02
#       6
#     4  16   8  16  16  16
#     4  12  18  36  64  82 114 156 206 252 298 332
#     4  11  22  37  57  84 126 162 197 242 293 365
#     4  10  20  38  52  86 116 164 204 242 298 346
#     4  11  24  38  60  91 119 157 201 248 305 358
#     4  11  22  37  58  83 117 154 205 260 293 341
#     4  10  20  37  62  88 117 152 191 241 302 369
#
# _framework density 18.889935000000001
#
# number of rings (size 3 to 8) (size 9 to 14) (size 15 to 20)
#    0.000    1.263    2.105    4.737    2.947    4.211 
#    0.000    5.263    0.000    1.263    0.000    0.000 
#    0.000    0.000    0.000    0.000    0.000    0.000 
#
# Total GULP energy -211810.725728 kJ/mol
# GULP energy per Si atom -5573.966467 kJ/mol
# Density = 1.884694 g / cm^3
# Si number density = 18.889935 Si / 1000 Ang^3
#
#
#
# Elastic Constant Matrix: (Units=GPa)
#
#
# Indices 1 2 3 4 5 6 
#
# 1 82.7763 37.5323 16.8606 0.0000 0.0000 0.0000
# 2 37.5323 134.1924 39.6552 0.0000 0.0000 0.0000
# 3 16.8606 39.6552 133.3404 0.0000 0.0000 0.0000
# 4 0.0000 0.0000 0.0000 -14.8063 0.0000 0.0000
# 5 0.0000 0.0000 0.0000 0.0000 39.9206 0.0000
# 6 0.0000 0.0000 0.0000 0.0000 0.0000 27.2754
#
#
#
# Elastic Compliance Matrix: (Units=1/GPa)
#
#
# Indices 1 2 3 4 5 6 
#
# 1 0.013888 -0.003690 -0.000659 0.000000 0.000000 0.000000
# 2 -0.003690 0.009150 -0.002255 0.000000 0.000000 0.000000
# 3 -0.000659 -0.002255 0.008253 0.000000 0.000000 0.000000
# 4 0.000000 0.000000 0.000000 -0.067539 0.000000 0.000000
# 5 0.000000 0.000000 0.000000 0.000000 0.025050 0.000000
# 6 0.000000 0.000000 0.000000 0.000000 0.000000 0.036663
#
#
# Mechanical properties :
#
#
# Convention : Reuss Voigt Hill
#
# Bulk Modulus (GPa) = 55.29357 59.82281 57.55819
# Shear Modulus (GPa) = 111.85566 27.56199 69.70883
#
# Velocity S-wave (km/s) = 7.70344 3.82394 6.08134
# Velocity P-wave (km/s) = 10.41436 7.15783 8.93570
#
# Compressibility (1/GPa) = 0.01808529
#
# Stress axis : x y z
#
# Youngs Moduli (GPa) = 72.00515 109.28691 121.16140
#
# Poissons Ratio (x) = 0.40323 0.07982
# Poissons Ratio (y) = 0.26567 0.27318
# Poissons Ratio (z) = 0.04744 0.24641
#
# Static dielectric constant tensor:
#      x y z
#    x 1.671180 0.000000 0.000000 
#    y 0.000000 1.748120 0.000000 
#    z 0.000000 0.000000 1.707870 
# 
# From -- ./inp_files/49829.got.cif
#   From: 2010.05.17/outbox.cif.g08.bks.cpg/sg72_25_cif.got.tgz:49829.got - 2010.06.03 17:03:01.
