data_PCOD9527610
_publ_section_title
;
Structure prediction by ZEFSAII (Michael W. Deem and Ramdas Pophale) SiO2 
 PCOD9527610
Probable space group: I B A M
;
_chemical_formula_sum "Si O2"
_cell_formula_units_Z 76
_cell_length_a 16.394275
_cell_length_b 27.994516
_cell_length_c 9.326726
_cell_angle_alpha 90.000000
_cell_angle_beta 90.000000
_cell_angle_gamma 90.000000
_cell_volume 4280.498974
_symmetry_space_group_name_H-M "I B A M"
_symmetry_group_IT_number 72
_symmetry_cell_setting 'orthorhombic'
loop_
_space_group_symop_operation_xyz
x,y,z
-x,-y,z
x,-y,1/2-z
-x,y,1/2-z
-x,-y,-z
x,y,-z
-x,y,1/2+z
x,-y,1/2+z
1/2+x,1/2+y,1/2+z
1/2-x,1/2-y,1/2+z
1/2+x,1/2-y,-z
1/2-x,1/2+y,-z
1/2-x,1/2-y,1/2-z
1/2+x,1/2+y,1/2-z
1/2-x,1/2+y,z
1/2+x,1/2-y,z
loop_
_atom_site_type_symbol
_atom_site_label
_atom_site_fract_x
_atom_site_fract_y
_atom_site_fract_z
Si Si1 0.239618 0.200359 0.168860
Si Si2 0.584360 0.633940 0.671455
Si Si3 0.333123 0.120236 0.334796
Si Si4 0.500000 0.927365 0.250000
Si Si5 0.317473 0.550636 0.670450
Si Si6 0.000000 0.500000 0.500000
O O1 0.250000 0.250000 0.250000
O O2 0.150939 0.175940 0.190984
O O3 0.302964 0.161859 0.231330
O O4 0.251568 0.206980 0.000000
O O5 0.500000 0.645599 0.750000
O O6 0.574187 0.626160 0.500000
O O7 0.621640 0.587108 0.749239
O O8 0.324984 0.136128 0.500000
O O9 0.424214 0.103637 0.304005
O O10 0.271735 0.075236 0.317690
O O11 0.527851 0.961715 0.123049
O O12 0.318914 0.500000 0.750000
O O13 0.336175 0.546386 0.500000
#
# Coordination Sequence:
#
# PCOD9527610 Si02
#       6
#    16  16  16   8  16   4
#     4  10  22  41  65  89 115 149 190 241 297 353
#     4  10  21  39  61  87 114 147 186 232 284 340
#     4  10  22  38  58  83 119 155 199 247 295 349
#     4  11  22  38  54  88 120 166 206 248 291 348
#     4  10  21  35  55  83 115 154 193 237 283 337
#     4  10  24  34  56  82 124 166 206 246 292 342
#
# _framework density 17.754939
#
# number of rings (size 3 to 8) (size 9 to 14) (size 15 to 20)
#    0.000    1.895    1.053    1.895    4.421    3.789 
#    1.895    2.105    0.000    0.000    0.000    0.000 
#    0.000    0.000    0.000    0.000    0.000    0.000 
#
# Total GULP energy -211549.052991 kJ/mol
# GULP energy per Si atom -5567.080342 kJ/mol
# Density = 1.771453 g / cm^3
# Si number density = 17.754939 Si / 1000 Ang^3
#
#
#
# Elastic Constant Matrix: (Units=GPa)
#
#
# Indices 1 2 3 4 5 6 
#
# 1 70.7521 27.0563 41.9095 0.0004 -0.0001 0.0000
# 2 27.0563 123.5573 79.7319 0.0007 0.0000 0.0000
# 3 41.9095 79.7319 160.4479 -0.0007 -0.0003 0.0000
# 4 0.0004 0.0007 -0.0007 39.0818 0.0000 0.0000
# 5 -0.0001 0.0000 -0.0003 0.0000 24.8694 -0.0001
# 6 0.0000 0.0000 0.0000 0.0000 -0.0001 1.4260
#
#
#
# Elastic Compliance Matrix: (Units=1/GPa)
#
#
# Indices 1 2 3 4 5 6 
#
# 1 0.016851 -0.001251 -0.003780 0.000000 0.000000 0.000000
# 2 -0.001251 0.012007 -0.005640 0.000000 0.000000 0.000000
# 3 -0.003780 -0.005640 0.010023 0.000000 0.000000 0.000000
# 4 0.000000 0.000000 0.000000 0.025587 0.000000 -0.000001
# 5 0.000000 0.000000 0.000000 0.000000 0.040210 0.000002
# 6 0.000000 0.000000 0.000000 -0.000001 0.000002 0.701272
#
#
# Mechanical properties :
#
#
# Convention : Reuss Voigt Hill
#
# Bulk Modulus (GPa) = 57.01519 72.46141 64.73830
# Shear Modulus (GPa) = 6.00141 26.81274 16.40708
#
# Velocity S-wave (km/s) = 1.84051 3.89029 3.04317
# Velocity P-wave (km/s) = 6.05794 7.81535 6.99208
#
# Compressibility (1/GPa) = 0.01753919
#
# Stress axis : x y z
#
# Youngs Moduli (GPa) = 59.34283 83.28696 99.77532
#
# Poissons Ratio (x) = 0.10417 0.37716
# Poissons Ratio (y) = 0.07422 0.56271
# Poissons Ratio (z) = 0.22432 0.46972
#
# Static dielectric constant tensor:
#      x y z
#    x 1.604360 0.000000 0.000000 
#    y 0.000000 1.578820 0.000000 
#    z 0.000000 0.000000 1.595260 
# 
# From -- ./inp_files/4876.got.cif
#   From: 2010.05.17/outbox.cif.g08.bks.cpg/sg72_3_cif.got.tgz:4876.got - 2010.06.03 17:03:01.
