data_PCOD9527874
_publ_section_title
;
Structure prediction by ZEFSAII (Michael W. Deem and Ramdas Pophale) SiO2 
 PCOD9527874
Probable space group: I B A M
;
_chemical_formula_sum "Si O2"
_cell_formula_units_Z 88
_cell_length_a 20.689770
_cell_length_b 9.190610
_cell_length_c 22.450942
_cell_angle_alpha 90.000000
_cell_angle_beta 90.000000
_cell_angle_gamma 90.000000
_cell_volume 4269.082701
_symmetry_space_group_name_H-M "I B A M"
_symmetry_group_IT_number 72
_symmetry_cell_setting 'orthorhombic'
loop_
_space_group_symop_operation_xyz
x,y,z
-x,-y,z
x,-y,1/2-z
-x,y,1/2-z
-x,-y,-z
x,y,-z
-x,y,1/2+z
x,-y,1/2+z
1/2+x,1/2+y,1/2+z
1/2-x,1/2-y,1/2+z
1/2+x,1/2-y,-z
1/2-x,1/2+y,-z
1/2-x,1/2-y,1/2-z
1/2+x,1/2+y,1/2-z
1/2-x,1/2+y,z
1/2+x,1/2-y,z
loop_
_atom_site_type_symbol
_atom_site_label
_atom_site_fract_x
_atom_site_fract_y
_atom_site_fract_z
Si Si1 0.102900 0.402759 0.000000
Si Si2 0.277253 0.900489 0.500000
Si Si3 0.796135 0.368971 0.132262
Si Si4 0.435275 0.412580 0.883547
Si Si5 0.937231 0.567909 0.381436
Si Si6 0.123672 0.061851 0.000000
Si Si7 0.306845 0.567958 0.314339
O O1 0.071252 0.475821 0.057863
O O2 0.178161 0.454285 0.000000
O O3 0.099438 0.229431 0.000000
O O4 0.296822 0.822788 0.562247
O O5 0.201402 0.931827 0.500000
O O6 0.865586 0.440409 0.147000
O O7 0.737341 0.477621 0.140262
O O8 0.786481 0.234006 0.175735
O O9 0.500000 0.500000 0.870230
O O10 0.447490 0.240203 0.891365
O O11 0.381607 0.435662 0.832874
O O12 0.404182 0.479369 0.942954
O O13 0.000000 0.500000 0.349811
O O14 0.296520 0.500000 0.250000
#
# Coordination Sequence:
#
# PCOD9527874 Si02
#       7
#     8   8  16  16  16   8  16
#     4  10  22  33  57  87 126 172 198 250 319 388
#     4  10  22  34  60  96 132 164 208 270 332 394
#     4  10  23  39  65  95 127 165 215 264 327 392
#     4  11  24  40  62  93 127 170 216 266 326 402
#     4  10  21  38  58  87 127 165 208 258 317 383
#     4  12  22  37  61  93 132 168 210 266 335 404
#     4  11  24  43  65  91 126 169 215 270 320 386
#
# _framework density 20.613329
#
# number of rings (size 3 to 8) (size 9 to 14) (size 15 to 20)
#    0.000    1.455    1.818    2.727    5.091    5.455 
#    0.000    0.000    0.000    2.727    0.000    0.000 
#    0.000    0.000    0.000    0.000    0.000    0.000 
#
# Total GULP energy -245812.704037 kJ/mol
# GULP energy per Si atom -5586.652364 kJ/mol
# Density = 2.056641 g / cm^3
# Si number density = 20.613329 Si / 1000 Ang^3
#
#
#
# Elastic Constant Matrix: (Units=GPa)
#
#
# Indices 1 2 3 4 5 6 
#
# 1 131.0589 61.9595 -5.4910 0.0000 0.0000 0.0000
# 2 61.9595 117.1497 28.9185 0.0000 0.0000 0.0000
# 3 -5.4910 28.9185 53.1417 0.0000 0.0000 0.0000
# 4 0.0000 0.0000 0.0000 31.9577 0.0000 0.0000
# 5 0.0000 0.0000 0.0000 0.0000 5.1916 0.0000
# 6 0.0000 0.0000 0.0000 0.0000 0.0000 37.3186
#
#
#
# Elastic Compliance Matrix: (Units=1/GPa)
#
#
# Indices 1 2 3 4 5 6 
#
# 1 0.011249 -0.007204 0.005083 0.000000 0.000000 0.000000
# 2 -0.007204 0.014474 -0.008621 0.000000 0.000000 0.000000
# 3 0.005083 -0.008621 0.024034 0.000000 0.000000 0.000000
# 4 0.000000 0.000000 0.000000 0.031291 0.000000 0.000000
# 5 0.000000 0.000000 0.000000 0.000000 0.192620 0.000000
# 6 0.000000 0.000000 0.000000 0.000000 0.000000 0.026796
#
#
# Mechanical properties :
#
#
# Convention : Reuss Voigt Hill
#
# Bulk Modulus (GPa) = 35.37006 52.45824 43.91415
# Shear Modulus (GPa) = 15.08868 29.29113 22.18990
#
# Velocity S-wave (km/s) = 2.70846 3.77368 3.28454
# Velocity P-wave (km/s) = 5.19395 6.67019 5.97782
#
# Compressibility (1/GPa) = 0.02827250
#
# Stress axis : x y z
#
# Youngs Moduli (GPa) = 88.89727 69.08751 41.60744
#
# Poissons Ratio (x) = 0.49772 -0.21148
# Poissons Ratio (y) = 0.64043 0.35870
# Poissons Ratio (z) = -0.45183 0.59560
#
# Static dielectric constant tensor:
#      x y z
#    x 1.759710 0.000000 0.000000 
#    y 0.000000 1.723370 0.000000 
#    z 0.000000 0.000000 1.746840 
# 
# From -- ./inp_files/45315.got.cif
#   From: 2010.05.17/outbox.cif.g08.bks.cpg/sg72_23_cif.got.tgz:45315.got - 2010.06.03 17:03:01.
