data_PCOD9527724
_publ_section_title
;
Structure prediction by ZEFSAII (Michael W. Deem and Ramdas Pophale) SiO2 
 PCOD9527724
Probable space group: I B A M
;
_chemical_formula_sum "Si O2"
_cell_formula_units_Z 116
_cell_length_a 28.950256
_cell_length_b 23.644839
_cell_length_c 8.415699
_cell_angle_alpha 90.000000
_cell_angle_beta 90.000000
_cell_angle_gamma 90.000000
_cell_volume 5760.749138
_symmetry_space_group_name_H-M "I B A M"
_symmetry_group_IT_number 72
_symmetry_cell_setting 'orthorhombic'
loop_
_space_group_symop_operation_xyz
x,y,z
-x,-y,z
x,-y,1/2-z
-x,y,1/2-z
-x,-y,-z
x,y,-z
-x,y,1/2+z
x,-y,1/2+z
1/2+x,1/2+y,1/2+z
1/2-x,1/2-y,1/2+z
1/2+x,1/2-y,-z
1/2-x,1/2+y,-z
1/2-x,1/2-y,1/2-z
1/2+x,1/2+y,1/2-z
1/2-x,1/2+y,z
1/2+x,1/2-y,z
loop_
_atom_site_type_symbol
_atom_site_label
_atom_site_fract_x
_atom_site_fract_y
_atom_site_fract_z
Si Si1 0.364956 0.561138 0.812801
Si Si2 0.302105 0.245905 0.190202
Si Si3 0.260871 0.438545 0.809924
Si Si4 0.617212 0.322192 0.308820
Si Si5 0.330302 0.873962 0.190594
Si Si6 0.000000 0.500000 0.750000
Si Si7 0.449324 0.221733 0.191185
Si Si8 0.426548 0.092534 0.808147
O O1 0.380449 0.500000 0.750000
O O2 0.312173 0.570311 0.755089
O O3 0.392746 0.615855 0.755850
O O4 0.364802 0.558570 0.000000
O O5 0.250000 0.250000 0.250000
O O6 0.331368 0.301208 0.235428
O O7 0.329063 0.191237 0.256001
O O8 0.301924 0.241738 0.000000
O O9 0.246015 0.500000 0.750000
O O10 0.220362 0.396274 0.761446
O O11 0.264118 0.437485 0.000000
O O12 0.615021 0.324701 0.500000
O O13 0.584238 0.271565 0.252551
O O14 0.372016 0.909501 0.268524
O O15 0.334844 0.877686 0.000000
O O16 0.040087 0.451387 0.783804
O O17 0.500000 0.235389 0.250000
O O18 0.438533 0.157152 0.239700
O O19 0.446660 0.221120 0.000000
O O20 0.434196 0.084257 0.000000
#
# Coordination Sequence:
#
# PCOD9527724 Si02
#       8
#    16  16  16  16  16   4  16  16
#     4  11  22  37  61  91 122 159 200 244 293 354
#     4  11  22  37  58  87 124 165 206 253 311 374
#     4  10  21  37  55  80 115 159 205 250 300 358
#     4  10  21  39  60  85 120 160 200 246 305 367
#     4  11  24  39  57  84 118 159 207 261 315 372
#     4  12  26  44  68  98 122 160 218 282 330 396
#     4  10  21  41  65  90 120 158 200 252 312 371
#     4  11  24  43  64  88 119 160 207 261 326 382
#
# _framework density 20.136268999999999
#
# number of rings (size 3 to 8) (size 9 to 14) (size 15 to 20)
#    0.000    1.379    2.069    4.345    0.966    8.828 
#    0.000    0.000    0.000    0.414    0.000    2.897 
#    0.000    0.000    0.000    0.000    0.000    0.000 
#
# Total GULP energy -323528.924754 kJ/mol
# GULP energy per Si atom -5578.084910 kJ/mol
# Density = 2.009044 g / cm^3
# Si number density = 20.136269 Si / 1000 Ang^3
#
#
#
# Elastic Constant Matrix: (Units=GPa)
#
#
# Indices 1 2 3 4 5 6 
#
# 1 65.4045 35.0751 9.4480 0.0000 0.0000 0.0000
# 2 35.0751 155.6033 19.1656 0.0000 0.0000 0.0000
# 3 9.4480 19.1656 29.9837 0.0000 0.0000 0.0000
# 4 0.0000 0.0000 0.0000 15.7372 0.0000 0.0000
# 5 0.0000 0.0000 0.0000 0.0000 18.5967 0.0000
# 6 0.0000 0.0000 0.0000 0.0000 0.0000 43.2447
#
#
#
# Elastic Compliance Matrix: (Units=1/GPa)
#
#
# Indices 1 2 3 4 5 6 
#
# 1 0.017685 -0.003582 -0.003283 0.000000 0.000000 0.000000
# 2 -0.003582 0.007701 -0.003794 0.000000 0.000000 0.000000
# 3 -0.003283 -0.003794 0.036811 0.000000 0.000000 0.000000
# 4 0.000000 0.000000 0.000000 0.063544 0.000000 0.000000
# 5 0.000000 0.000000 0.000000 0.000000 0.053773 0.000000
# 6 0.000000 0.000000 0.000000 0.000000 0.000000 0.023124
#
#
# Mechanical properties :
#
#
# Convention : Reuss Voigt Hill
#
# Bulk Modulus (GPa) = 24.46226 42.04097 33.25162
# Shear Modulus (GPa) = 21.04536 28.00259 24.52397
#
# Velocity S-wave (km/s) = 3.23638 3.73319 3.49363
# Velocity P-wave (km/s) = 5.11276 6.28537 5.72914
#
# Compressibility (1/GPa) = 0.04087929
#
# Stress axis : x y z
#
# Youngs Moduli (GPa) = 56.54627 129.84759 27.16574
#
# Poissons Ratio (x) = 0.46511 0.08918
# Poissons Ratio (y) = 0.20255 0.10307
# Poissons Ratio (z) = 0.18563 0.49264
#
# Static dielectric constant tensor:
#      x y z
#    x 1.714650 0.000000 0.000000 
#    y 0.000000 1.741980 0.000000 
#    z 0.000000 0.000000 1.711930 
# 
# From -- ./inp_files/8399.got.cif
#   From: 2010.05.17/outbox.cif.g08.bks.cpg/sg72_5_cif.got.tgz:8399.got - 2010.06.03 17:03:01.
