data_PCOD9527857
_publ_section_title
;
Structure prediction by ZEFSAII (Michael W. Deem and Ramdas Pophale) SiO2 
 PCOD9527857
Probable space group: I B A M
;
_chemical_formula_sum "Si O2"
_cell_formula_units_Z 80
_cell_length_a 16.076389
_cell_length_b 15.194281
_cell_length_c 14.852066
_cell_angle_alpha 90.000000
_cell_angle_beta 90.000000
_cell_angle_gamma 90.000000
_cell_volume 3627.901863
_symmetry_space_group_name_H-M "I B A M"
_symmetry_group_IT_number 72
_symmetry_cell_setting 'orthorhombic'
loop_
_space_group_symop_operation_xyz
x,y,z
-x,-y,z
x,-y,1/2-z
-x,y,1/2-z
-x,-y,-z
x,y,-z
-x,y,1/2+z
x,-y,1/2+z
1/2+x,1/2+y,1/2+z
1/2-x,1/2-y,1/2+z
1/2+x,1/2-y,-z
1/2-x,1/2+y,-z
1/2-x,1/2-y,1/2-z
1/2+x,1/2+y,1/2-z
1/2-x,1/2+y,z
1/2+x,1/2-y,z
loop_
_atom_site_type_symbol
_atom_site_label
_atom_site_fract_x
_atom_site_fract_y
_atom_site_fract_z
Si Si1 0.828523 0.201208 0.863322
Si Si2 0.251298 0.015715 0.395452
Si Si3 0.066869 0.425656 0.891001
Si Si4 0.013113 0.231083 0.148060
Si Si5 0.315450 0.669268 0.151835
O O1 0.804478 0.102777 0.890899
O O2 0.756467 0.269831 0.891345
O O3 0.826484 0.202272 0.754367
O O4 0.921598 0.224309 0.894405
O O5 0.260971 0.989469 0.500000
O O6 0.342031 0.044053 0.360690
O O7 0.213758 0.931250 0.346879
O O8 0.040752 0.332641 0.850867
O O9 0.000000 0.500000 0.869120
O O10 0.069127 0.414993 0.000000
O O11 0.093222 0.180818 0.108622
O O12 0.000000 0.197706 0.250000
#
# Coordination Sequence:
#
# PCOD9527857 Si02
#       5
#    16  16  16  16  16
#     4  10  21  39  61  86 120 155 200 249 298 352
#     4  11  23  38  60  88 120 161 202 241 298 362
#     4  10  21  38  57  85 121 153 195 250 301 352
#     4  10  21  38  61  89 115 154 200 246 299 353
#     4  10  21  39  60  86 122 157 197 251 299 347
#
# _framework density 22.051313
#
# number of rings (size 3 to 8) (size 9 to 14) (size 15 to 20)
#    0.000    1.800    2.000    1.800    0.000    3.600 
#    3.600    4.000    0.000    0.000    0.000    0.000 
#    0.000    0.000    0.000    0.000    0.000    0.000 
#
# Total GULP energy -223551.900153 kJ/mol
# GULP energy per Si atom -5588.797504 kJ/mol
# Density = 2.200112 g / cm^3
# Si number density = 22.051313 Si / 1000 Ang^3
#
#
#
# Elastic Constant Matrix: (Units=GPa)
#
#
# Indices 1 2 3 4 5 6 
#
# 1 244.5763 94.1745 10.7792 0.0000 0.0000 0.0000
# 2 94.1745 134.2793 -17.5955 0.0000 0.0000 0.0000
# 3 10.7792 -17.5955 52.7062 0.0000 0.0000 0.0000
# 4 0.0000 0.0000 0.0000 42.2414 0.0000 0.0000
# 5 0.0000 0.0000 0.0000 0.0000 2.3592 0.0000
# 6 0.0000 0.0000 0.0000 0.0000 0.0000 41.7432
#
#
#
# Elastic Compliance Matrix: (Units=1/GPa)
#
#
# Indices 1 2 3 4 5 6 
#
# 1 0.005955 -0.004534 -0.002732 0.000000 0.000000 0.000000
# 2 -0.004534 0.011241 0.004680 0.000000 0.000000 0.000000
# 3 -0.002732 0.004680 0.021094 0.000000 0.000000 0.000000
# 4 0.000000 0.000000 0.000000 0.023673 0.000000 0.000000
# 5 0.000000 0.000000 0.000000 0.000000 0.423874 0.000000
# 6 0.000000 0.000000 0.000000 0.000000 0.000000 0.023956
#
#
# Mechanical properties :
#
#
# Convention : Reuss Voigt Hill
#
# Bulk Modulus (GPa) = 30.19568 67.36425 48.77996
# Shear Modulus (GPa) = 9.50562 40.21566 24.86064
#
# Velocity S-wave (km/s) = 2.07847 4.27515 3.36132
# Velocity P-wave (km/s) = 4.41397 7.41515 6.10195
#
# Compressibility (1/GPa) = 0.03311732
#
# Stress axis : x y z
#
# Youngs Moduli (GPa) = 167.92335 88.96347 47.40659
#
# Poissons Ratio (x) = 0.40340 0.12950
# Poissons Ratio (y) = 0.76144 -0.22186
# Poissons Ratio (z) = 0.45872 -0.41634
#
# Static dielectric constant tensor:
#      x y z
#    x 1.835550 0.000000 0.000000 
#    y 0.000000 1.723310 0.000000 
#    z 0.000000 0.000000 1.854230 
# 
# From -- ./inp_files/37848.got.cif
#   From: 2010.05.17/outbox.cif.g08.bks.cpg/sg72_19_cif.got.tgz:37848.got - 2010.06.03 17:03:01.
