data_PCOD9527566
_publ_section_title
;
Structure prediction by ZEFSAII (Michael W. Deem and Ramdas Pophale) SiO2 
 PCOD9527566
Probable space group: I B A M
;
_chemical_formula_sum "Si O2"
_cell_formula_units_Z 80
_cell_length_a 5.207891
_cell_length_b 33.160410
_cell_length_c 22.462856
_cell_angle_alpha 90.000000
_cell_angle_beta 90.000000
_cell_angle_gamma 90.000000
_cell_volume 3879.240905
_symmetry_space_group_name_H-M "I B A M"
_symmetry_group_IT_number 72
_symmetry_cell_setting 'orthorhombic'
loop_
_space_group_symop_operation_xyz
x,y,z
-x,-y,z
x,-y,1/2-z
-x,y,1/2-z
-x,-y,-z
x,y,-z
-x,y,1/2+z
x,-y,1/2+z
1/2+x,1/2+y,1/2+z
1/2-x,1/2-y,1/2+z
1/2+x,1/2-y,-z
1/2-x,1/2+y,-z
1/2-x,1/2-y,1/2-z
1/2+x,1/2+y,1/2-z
1/2-x,1/2+y,z
1/2+x,1/2-y,z
loop_
_atom_site_type_symbol
_atom_site_label
_atom_site_fract_x
_atom_site_fract_y
_atom_site_fract_z
Si Si1 0.078274 0.441571 0.683997
Si Si2 0.957795 0.868150 0.431983
Si Si3 0.924027 0.958001 0.388696
Si Si4 0.955877 0.648286 0.641748
Si Si5 0.297603 0.233403 0.816946
O O1 0.362576 0.454099 0.663835
O O2 0.066320 0.392945 0.678798
O O3 0.000000 0.453700 0.750000
O O4 0.861076 0.457746 0.638708
O O5 0.914306 0.856511 0.500000
O O6 0.949825 0.917046 0.426152
O O7 0.734012 0.851695 0.388973
O O8 0.234872 0.854630 0.408317
O O9 0.000000 0.000000 0.419538
O O10 0.894123 0.687851 0.679795
O O11 0.250000 0.250000 0.750000
O O12 0.520227 0.260353 0.845953
#
# Coordination Sequence:
#
# PCOD9527566 Si02
#       5
#    16  16  16  16  16
#     4  10  21  34  53  80 113 159 188 223 285 355
#     4  10  21  39  62  83 108 155 198 237 291 331
#     4  10  21  36  53  82 114 145 195 246 283 332
#     4  10  21  38  58  85 120 145 191 240 276 345
#     4  10  21  36  57  89 118 151 178 228 287 342
#
# _framework density 20.622591
#
# number of rings (size 3 to 8) (size 9 to 14) (size 15 to 20)
#    0.000    2.000    0.000    3.000    2.800    2.800 
#    7.200    0.000    0.000   19.200    0.000    0.000 
#    0.000    0.000    0.000    0.000    0.000    0.000 
#
# Total GULP energy -223292.778252 kJ/mol
# GULP energy per Si atom -5582.319456 kJ/mol
# Density = 2.057565 g / cm^3
# Si number density = 20.622591 Si / 1000 Ang^3
#
#
#
# Elastic Constant Matrix: (Units=GPa)
#
#
# Indices 1 2 3 4 5 6 
#
# 1 122.7071 21.0059 -2.1897 0.0000 0.0000 0.0000
# 2 21.0059 140.9209 11.2771 0.0000 0.0000 0.0000
# 3 -2.1897 11.2771 47.1004 0.0000 0.0000 0.0000
# 4 0.0000 0.0000 0.0000 -38.8756 0.0000 0.0000
# 5 0.0000 0.0000 0.0000 0.0000 10.6101 0.0000
# 6 0.0000 0.0000 0.0000 0.0000 0.0000 34.1414
#
#
#
# Elastic Compliance Matrix: (Units=1/GPa)
#
#
# Indices 1 2 3 4 5 6 
#
# 1 0.008386 -0.001306 0.000703 0.000000 0.000000 0.000000
# 2 -0.001306 0.007438 -0.001842 0.000000 0.000000 0.000000
# 3 0.000703 -0.001842 0.021705 0.000000 0.000000 0.000000
# 4 0.000000 0.000000 0.000000 -0.025723 0.000000 0.000000
# 5 0.000000 0.000000 0.000000 0.000000 0.094250 0.000000
# 6 0.000000 0.000000 0.000000 0.000000 0.000000 0.029290
#
#
# Mechanical properties :
#
#
# Convention : Reuss Voigt Hill
#
# Bulk Modulus (GPa) = 30.63892 41.21278 35.92585
# Shear Modulus (GPa) = 33.08734 19.88420 26.48577
#
# Velocity S-wave (km/s) = 4.00987 3.10852 3.58761
# Velocity P-wave (km/s) = 6.02727 5.73686 5.88385
#
# Compressibility (1/GPa) = 0.03263822
#
# Stress axis : x y z
#
# Youngs Moduli (GPa) = 119.25163 134.44004 46.07266
#
# Poissons Ratio (x) = 0.17561 -0.03237
# Poissons Ratio (y) = 0.15577 0.08485
# Poissons Ratio (z) = -0.08378 0.24759
#
# Static dielectric constant tensor:
#      x y z
#    x 2.400770 0.000000 0.000000 
#    y 0.000000 1.780730 0.000000 
#    z 0.000000 0.000000 2.309620 
# 
# From -- ./inp_files/41557.got.cif
#   From: 2010.05.17/outbox.cif.g08.bks.cpg/sg72_21_cif.got.tgz:41557.got - 2010.06.03 17:03:01.
