data_PCOD9527046
_publ_section_title
;
Structure prediction by ZEFSAII (Michael W. Deem and Ramdas Pophale) SiO2 
 PCOD9527046
Probable space group: I B A M
;
_chemical_formula_sum "Si O2"
_cell_formula_units_Z 112
_cell_length_a 14.849067
_cell_length_b 29.308194
_cell_length_c 14.256731
_cell_angle_alpha 90.000000
_cell_angle_beta 90.000000
_cell_angle_gamma 90.000000
_cell_volume 6204.519870
_symmetry_space_group_name_H-M "I B A M"
_symmetry_group_IT_number 72
_symmetry_cell_setting 'orthorhombic'
loop_
_space_group_symop_operation_xyz
x,y,z
-x,-y,z
x,-y,1/2-z
-x,y,1/2-z
-x,-y,-z
x,y,-z
-x,y,1/2+z
x,-y,1/2+z
1/2+x,1/2+y,1/2+z
1/2-x,1/2-y,1/2+z
1/2+x,1/2-y,-z
1/2-x,1/2+y,-z
1/2-x,1/2-y,1/2-z
1/2+x,1/2+y,1/2-z
1/2-x,1/2+y,z
1/2+x,1/2-y,z
loop_
_atom_site_type_symbol
_atom_site_label
_atom_site_fract_x
_atom_site_fract_y
_atom_site_fract_z
Si Si1 0.550467 0.047118 0.888652
Si Si2 0.898868 0.112093 0.235026
Si Si3 0.564113 0.701223 0.887914
Si Si4 0.669183 0.209993 0.386220
Si Si5 0.863508 0.817379 0.110919
Si Si6 0.727763 0.946943 0.735538
Si Si7 0.620199 0.107921 0.387962
O O1 0.643838 0.055158 0.836198
O O2 0.478930 0.087383 0.871282
O O3 0.500000 0.000000 0.860114
O O4 0.566685 0.043767 0.000000
O O5 0.908133 0.154792 0.163829
O O6 0.869727 0.135716 0.332557
O O7 0.819274 0.078462 0.205714
O O8 0.000000 0.092712 0.250000
O O9 0.618000 0.745186 0.852796
O O10 0.457583 0.707863 0.871483
O O11 0.577458 0.696090 0.000000
O O12 0.663253 0.211267 0.500000
O O13 0.774248 0.209424 0.360195
O O14 0.629574 0.160722 0.358318
O O15 0.856803 0.826269 0.000000
O O16 0.689273 0.922978 0.829487
O O17 0.747285 0.000000 0.750000
O O18 0.637839 0.104864 0.500000
#
# Coordination Sequence:
#
# PCOD9527046 Si02
#       7
#    16  16  16  16  16  16  16
#     4  10  21  38  58  82 116 152 183 225 284 348
#     4  10  22  39  56  81 110 148 195 239 287 334
#     4   9  19  36  56  79 112 149 183 231 286 341
#     4   9  17  33  57  83 108 142 189 229 274 336
#     4   9  17  34  57  76 104 146 187 227 278 338
#     4  12  23  36  59  84 112 149 192 236 283 340
#     4  10  20  36  58  86 115 146 186 231 276 339
#
# _framework density 18.051355999999998
#
# number of rings (size 3 to 8) (size 9 to 14) (size 15 to 20)
#    0.000    2.143    2.857    0.429    0.000    1.429 
#    2.571    2.857    0.000    0.000    0.000    6.000 
#    0.000    0.000    0.000    0.000    0.000    0.000 
#
# Total GULP energy -312369.317030 kJ/mol
# GULP energy per Si atom -5578.023518 kJ/mol
# Density = 1.801027 g / cm^3
# Si number density = 18.051356 Si / 1000 Ang^3
#
#
#
# Elastic Constant Matrix: (Units=GPa)
#
#
# Indices 1 2 3 4 5 6 
#
# 1 176.1964 98.0520 48.5963 0.0000 0.0000 0.0000
# 2 98.0520 117.8145 35.8792 0.0000 0.0000 0.0000
# 3 48.5963 35.8792 54.6228 0.0002 -0.0001 0.0000
# 4 0.0000 0.0000 0.0002 13.2437 0.0000 0.0000
# 5 0.0000 0.0000 -0.0001 0.0000 18.9234 0.0000
# 6 0.0000 0.0000 0.0000 0.0000 0.0000 36.7358
#
#
#
# Elastic Compliance Matrix: (Units=1/GPa)
#
#
# Indices 1 2 3 4 5 6 
#
# 1 0.011553 -0.008106 -0.004954 0.000000 0.000000 0.000000
# 2 -0.008106 0.016299 -0.003494 0.000000 0.000000 0.000000
# 3 -0.004954 -0.003494 0.025009 0.000000 0.000000 0.000000
# 4 0.000000 0.000000 0.000000 0.075508 0.000000 0.000000
# 5 0.000000 0.000000 0.000000 0.000000 0.052845 0.000000
# 6 0.000000 0.000000 0.000000 0.000000 0.000000 0.027221
#
#
# Mechanical properties :
#
#
# Convention : Reuss Voigt Hill
#
# Bulk Modulus (GPa) = 50.62433 79.29873 64.96153
# Shear Modulus (GPa) = 20.15103 24.85431 22.50267
#
# Velocity S-wave (km/s) = 3.34476 3.71464 3.53454
# Velocity P-wave (km/s) = 6.55912 7.90082 7.26103
#
# Compressibility (1/GPa) = 0.01975335
#
# Stress axis : x y z
#
# Youngs Moduli (GPa) = 86.55875 61.35530 39.98522
#
# Poissons Ratio (x) = 0.49737 0.19807
# Poissons Ratio (y) = 0.70168 0.13970
# Poissons Ratio (z) = 0.42877 0.21436
#
# Static dielectric constant tensor:
#      x y z
#    x 1.627890 0.000000 0.000000 
#    y 0.000000 1.601930 0.000000 
#    z 0.000000 0.000000 1.647790 
# 
# From -- ./inp_files/22131.got.cif
#   From: 2010.05.17/outbox.cif.g08.bks.cpg/sg72_12_cif.got.tgz:22131.got - 2010.06.03 17:03:01.
