data_PCOD9527383
_publ_section_title
;
Structure prediction by ZEFSAII (Michael W. Deem and Ramdas Pophale) SiO2 
 PCOD9527383
Probable space group: I B A M
;
_chemical_formula_sum "Si O2"
_cell_formula_units_Z 52
_cell_length_a 16.469509
_cell_length_b 8.043269
_cell_length_c 18.876373
_cell_angle_alpha 90.000000
_cell_angle_beta 90.000000
_cell_angle_gamma 90.000000
_cell_volume 2500.528426
_symmetry_space_group_name_H-M "I B A M"
_symmetry_group_IT_number 72
_symmetry_cell_setting 'orthorhombic'
loop_
_space_group_symop_operation_xyz
x,y,z
-x,-y,z
x,-y,1/2-z
-x,y,1/2-z
-x,-y,-z
x,y,-z
-x,y,1/2+z
x,-y,1/2+z
1/2+x,1/2+y,1/2+z
1/2-x,1/2-y,1/2+z
1/2+x,1/2-y,-z
1/2-x,1/2+y,-z
1/2-x,1/2-y,1/2-z
1/2+x,1/2+y,1/2-z
1/2-x,1/2+y,z
1/2+x,1/2-y,z
loop_
_atom_site_type_symbol
_atom_site_label
_atom_site_fract_x
_atom_site_fract_y
_atom_site_fract_z
Si Si1 0.963596 0.268099 0.500000
Si Si2 0.728413 0.197855 0.584399
Si Si3 0.000000 0.500000 0.750000
Si Si4 0.876888 0.393238 0.364895
Si Si5 0.372922 0.416059 0.000000
O O1 0.933809 0.365861 0.432271
O O2 0.057426 0.224988 0.500000
O O3 0.916951 0.090762 0.500000
O O4 0.743509 0.148589 0.500000
O O5 0.808335 0.250071 0.627336
O O6 0.679618 0.370615 0.569352
O O7 0.671986 0.065652 0.623703
O O8 0.937512 0.396074 0.701208
#
# Coordination Sequence:
#
# PCOD9527383 Si02
#       5
#     8  16   4  16   8
#     4  11  18  37  66  95 133 165 220 290 302 399
#     4  10  20  38  67 101 120 165 219 294 314 384
#     4  12  32  42  60  98 140 196 204 266 336 426
#     4  12  23  43  67  99 136 173 229 264 346 386
#     4   9  20  31  62 110 123 155 212 286 348 341
#
# _framework density 20.795604999999998
#
# number of rings (size 3 to 8) (size 9 to 14) (size 15 to 20)
#    0.923    0.308    3.077    3.692    0.000    3.077 
#    0.000    0.000    0.000   22.154    0.000    0.000 
#    0.000    0.000    0.000    0.000    0.000    0.000 
#
# Total GULP energy -145049.961449 kJ/mol
# GULP energy per Si atom -5578.844671 kJ/mol
# Density = 2.074827 g / cm^3
# Si number density = 20.795605 Si / 1000 Ang^3
#
#
#
# Elastic Constant Matrix: (Units=GPa)
#
#
# Indices 1 2 3 4 5 6 
#
# 1 154.4094 37.4409 65.0391 0.0000 0.0000 0.0000
# 2 37.4409 91.6200 29.5097 0.0000 0.0000 0.0000
# 3 65.0391 29.5097 104.5739 0.0000 0.0000 0.0000
# 4 0.0000 0.0000 0.0000 -57.1236 0.0000 0.0000
# 5 0.0000 0.0000 0.0000 0.0000 292.2531 0.0000
# 6 0.0000 0.0000 0.0000 0.0000 0.0000 52.2336
#
#
#
# Elastic Compliance Matrix: (Units=1/GPa)
#
#
# Indices 1 2 3 4 5 6 
#
# 1 0.009125 -0.002091 -0.005085 0.000000 0.000000 0.000000
# 2 -0.002091 0.012485 -0.002223 0.000000 0.000000 0.000000
# 3 -0.005085 -0.002223 0.013353 0.000000 0.000000 0.000000
# 4 0.000000 0.000000 0.000000 -0.017506 0.000000 0.000000
# 5 0.000000 0.000000 0.000000 0.000000 0.003422 0.000000
# 6 0.000000 0.000000 0.000000 0.000000 0.000000 0.019145
#
#
# Mechanical properties :
#
#
# Convention : Reuss Voigt Hill
#
# Bulk Modulus (GPa) = 61.86262 68.28696 65.07479
# Shear Modulus (GPa) = 77.86928 72.04684 74.95806
#
# Velocity S-wave (km/s) = 6.12588 5.89240 6.01027
# Velocity P-wave (km/s) = 8.93575 8.89957 8.91768
#
# Compressibility (1/GPa) = 0.01616485
#
# Stress axis : x y z
#
# Youngs Moduli (GPa) = 109.58448 80.09557 74.89171
#
# Poissons Ratio (x) = 0.16750 0.38085
# Poissons Ratio (y) = 0.22916 0.16645
# Poissons Ratio (z) = 0.55728 0.17802
#
# Static dielectric constant tensor:
#      x y z
#    x 1.819100 0.000000 0.000000 
#    y 0.000000 1.833180 0.000000 
#    z 0.000000 0.000000 1.724430 
# 
# From -- ./inp_files/31052.got.cif
#   From: 2010.05.17/outbox.cif.g08.bks.cpg/sg72_16_cif.got.tgz:31052.got - 2010.06.03 17:03:01.
