data_PCOD9527169
_publ_section_title
;
Structure prediction by ZEFSAII (Michael W. Deem and Ramdas Pophale) SiO2 
 PCOD9527169
Probable space group: I B A M
;
_chemical_formula_sum "Si O2"
_cell_formula_units_Z 96
_cell_length_a 19.651174
_cell_length_b 10.922572
_cell_length_c 23.448969
_cell_angle_alpha 90.000000
_cell_angle_beta 90.000000
_cell_angle_gamma 90.000000
_cell_volume 5033.118665
_symmetry_space_group_name_H-M "I B A M"
_symmetry_group_IT_number 72
_symmetry_cell_setting 'orthorhombic'
loop_
_space_group_symop_operation_xyz
x,y,z
-x,-y,z
x,-y,1/2-z
-x,y,1/2-z
-x,-y,-z
x,y,-z
-x,y,1/2+z
x,-y,1/2+z
1/2+x,1/2+y,1/2+z
1/2-x,1/2-y,1/2+z
1/2+x,1/2-y,-z
1/2-x,1/2+y,-z
1/2-x,1/2-y,1/2-z
1/2+x,1/2+y,1/2-z
1/2-x,1/2+y,z
1/2+x,1/2-y,z
loop_
_atom_site_type_symbol
_atom_site_label
_atom_site_fract_x
_atom_site_fract_y
_atom_site_fract_z
Si Si1 0.410217 0.860935 0.000000
Si Si2 0.691478 0.506485 0.318406
Si Si3 0.500000 0.000000 0.092532
Si Si4 0.424488 0.450204 0.897031
Si Si5 0.647792 0.587273 0.500000
Si Si6 0.237562 0.749222 0.817628
Si Si7 0.387380 0.821810 0.387827
Si Si8 0.689178 0.079418 0.500000
O O1 0.456972 0.905847 0.947111
O O2 0.341172 0.941870 0.000000
O O3 0.387916 0.720534 0.000000
O O4 0.695481 0.500000 0.250000
O O5 0.615520 0.480758 0.339059
O O6 0.713896 0.640588 0.339863
O O7 0.738244 0.390648 0.339149
O O8 0.556354 0.923056 0.125421
O O9 0.500000 0.500000 0.898991
O O10 0.423472 0.304798 0.903860
O O11 0.379053 0.512782 0.945617
O O12 0.729701 0.591751 0.500000
O O13 0.250000 0.750000 0.750000
O O14 0.163065 0.702720 0.835542
O O15 0.343206 0.860822 0.443091
#
# Coordination Sequence:
#
# PCOD9527169 Si02
#       8
#     8  16   8  16   8  16  16   8
#     4   9  20  35  55  77 113 162 195 238 285 349
#     4   9  19  38  60  84 111 147 194 243 292 344
#     4   9  18  38  56  78 113 160 204 226 290 346
#     4  11  23  36  54  84 116 155 189 230 289 346
#     4  12  23  35  55  82 120 151 194 231 291 341
#     4   9  18  36  60  87 113 146 194 245 302 343
#     4  10  20  37  57  82 120 154 193 244 285 348
#     4  10  22  36  55  82 117 151 199 244 292 334
#
# _framework density 19.07366
#
# number of rings (size 3 to 8) (size 9 to 14) (size 15 to 20)
#    0.000    2.167    0.000    3.250    2.333    0.333 
#   12.000    0.000    0.000    0.000    0.000    0.000 
#    0.000    0.000    0.000    0.000    0.000    0.000 
#
# Total GULP energy -267598.757608 kJ/mol
# GULP energy per Si atom -5574.974117 kJ/mol
# Density = 1.903025 g / cm^3
# Si number density = 19.073660 Si / 1000 Ang^3
#
#
#
# Elastic Constant Matrix: (Units=GPa)
#
#
# Indices 1 2 3 4 5 6 
#
# 1 113.1511 42.5831 28.0494 0.0000 0.0000 0.0000
# 2 42.5831 92.5941 30.1225 0.0000 0.0000 0.0000
# 3 28.0494 30.1225 41.0260 0.0000 0.0000 0.0000
# 4 0.0000 0.0000 0.0000 15.0753 0.0000 0.0000
# 5 0.0000 0.0000 0.0000 0.0000 8.6090 0.0000
# 6 0.0000 0.0000 0.0000 0.0000 0.0000 35.0080
#
#
#
# Elastic Compliance Matrix: (Units=1/GPa)
#
#
# Indices 1 2 3 4 5 6 
#
# 1 0.011479 -0.003581 -0.005219 0.000000 0.000000 0.000000
# 2 -0.003581 0.015306 -0.008790 0.000000 0.000000 0.000000
# 3 -0.005219 -0.008790 0.034396 0.000000 0.000000 0.000000
# 4 0.000000 0.000000 0.000000 0.066334 0.000000 0.000000
# 5 0.000000 0.000000 0.000000 0.000000 0.116157 0.000000
# 6 0.000000 0.000000 0.000000 0.000000 0.000000 0.028565
#
#
# Mechanical properties :
#
#
# Convention : Reuss Voigt Hill
#
# Bulk Modulus (GPa) = 38.45822 49.80902 44.13362
# Shear Modulus (GPa) = 15.81853 21.47289 18.64571
#
# Velocity S-wave (km/s) = 2.88295 3.35892 3.12999
# Velocity P-wave (km/s) = 5.59362 6.41980 6.02090
#
# Compressibility (1/GPa) = 0.02600224
#
# Stress axis : x y z
#
# Youngs Moduli (GPa) = 87.11354 65.33239 29.07273
#
# Poissons Ratio (x) = 0.23398 0.15172
# Poissons Ratio (y) = 0.31199 0.25554
# Poissons Ratio (z) = 0.45462 0.57425
#
# Static dielectric constant tensor:
#      x y z
#    x 1.632630 0.000000 0.000000 
#    y 0.000000 1.715590 0.000000 
#    z 0.000000 0.000000 1.676770 
# 
# From -- ./inp_files/44861.got.cif
#   From: 2010.05.17/outbox.cif.g08.bks.cpg/sg72_23_cif.got.tgz:44861.got - 2010.06.03 17:03:01.
