data_PCOD9527111
_publ_section_title
;
Structure prediction by ZEFSAII (Michael W. Deem and Ramdas Pophale) SiO2 
 PCOD9527111
Probable space group: I B A M
;
_chemical_formula_sum "Si O2"
_cell_formula_units_Z 96
_cell_length_a 10.197074
_cell_length_b 20.110942
_cell_length_c 22.611958
_cell_angle_alpha 90.000000
_cell_angle_beta 90.000000
_cell_angle_gamma 90.000000
_cell_volume 4637.096722
_symmetry_space_group_name_H-M "I B A M"
_symmetry_group_IT_number 72
_symmetry_cell_setting 'orthorhombic'
loop_
_space_group_symop_operation_xyz
x,y,z
-x,-y,z
x,-y,1/2-z
-x,y,1/2-z
-x,-y,-z
x,y,-z
-x,y,1/2+z
x,-y,1/2+z
1/2+x,1/2+y,1/2+z
1/2-x,1/2-y,1/2+z
1/2+x,1/2-y,-z
1/2-x,1/2+y,-z
1/2-x,1/2-y,1/2-z
1/2+x,1/2+y,1/2-z
1/2-x,1/2+y,z
1/2+x,1/2-y,z
loop_
_atom_site_type_symbol
_atom_site_label
_atom_site_fract_x
_atom_site_fract_y
_atom_site_fract_z
Si Si1 0.736645 0.253483 0.321378
Si Si2 0.941707 0.134553 0.868970
Si Si3 0.229753 0.999873 0.500000
Si Si4 0.612997 0.130267 0.797285
Si Si5 0.296616 0.027013 0.373204
Si Si6 0.710368 0.392253 0.188213
Si Si7 0.509154 0.607098 0.500000
O O1 0.750000 0.250000 0.250000
O O2 0.615462 0.296312 0.344421
O O3 0.857609 0.303335 0.334494
O O4 0.740199 0.177385 0.340869
O O5 0.828338 0.078136 0.871283
O O6 0.056180 0.110217 0.825298
O O7 0.993855 0.142709 0.936429
O O8 0.313378 0.009674 0.441361
O O9 0.111075 0.054007 0.500000
O O10 0.147728 0.931408 0.500000
O O11 0.500000 0.141381 0.750000
O O12 0.590950 0.068868 0.840654
O O13 0.738548 0.111094 0.755676
O O14 0.264188 0.959517 0.339420
#
# Coordination Sequence:
#
# PCOD9527111 Si02
#       7
#    16  16   8  16  16  16   8
#     4   9  22  36  55  86 115 160 196 249 297 372
#     4  10  20  37  59  89 119 152 201 250 317 355
#     4   9  16  32  59  91 118 147 191 243 326 348
#     4  10  23  40  58  81 124 166 199 232 305 373
#     4  10  20  36  60  94 117 151 198 258 303 365
#     4  11  21  34  61  86 119 154 199 257 302 363
#     4   9  16  32  61  84 119 154 184 254 304 370
#
# _framework density 20.702608999999999
#
# number of rings (size 3 to 8) (size 9 to 14) (size 15 to 20)
#    0.000    2.167    1.667    1.000    4.667    6.667 
#    0.000    6.667    0.000    3.000    0.000    0.000 
#    0.000    0.000    0.000    0.000    0.000    0.000 
#
# Total GULP energy -267603.676793 kJ/mol
# GULP energy per Si atom -5575.076600 kJ/mol
# Density = 2.065549 g / cm^3
# Si number density = 20.702609 Si / 1000 Ang^3
#
#
#
# Elastic Constant Matrix: (Units=GPa)
#
#
# Indices 1 2 3 4 5 6 
#
# 1 41.6492 -0.5273 8.4911 0.0000 0.0000 0.0000
# 2 -0.5273 137.4910 21.5566 0.0000 0.0000 0.0000
# 3 8.4911 21.5566 98.4966 0.0000 0.0000 0.0000
# 4 0.0000 0.0000 0.0000 19.3198 0.0000 0.0000
# 5 0.0000 0.0000 0.0000 0.0000 16.6406 0.0000
# 6 0.0000 0.0000 0.0000 0.0000 0.0000 26.1654
#
#
#
# Elastic Compliance Matrix: (Units=1/GPa)
#
#
# Indices 1 2 3 4 5 6 
#
# 1 0.024465 0.000440 -0.002205 0.000000 0.000000 0.000000
# 2 0.000440 0.007540 -0.001688 0.000000 0.000000 0.000000
# 3 -0.002205 -0.001688 0.010712 0.000000 0.000000 0.000000
# 4 0.000000 0.000000 0.000000 0.051760 0.000000 0.000000
# 5 0.000000 0.000000 0.000000 0.000000 0.060094 0.000000
# 6 0.000000 0.000000 0.000000 0.000000 0.000000 0.038218
#
#
# Mechanical properties :
#
#
# Convention : Reuss Voigt Hill
#
# Bulk Modulus (GPa) = 27.92547 37.40861 32.66704
# Shear Modulus (GPa) = 23.62575 28.96625 26.29600
#
# Velocity S-wave (km/s) = 3.38182 3.74459 3.56782
# Velocity P-wave (km/s) = 5.36350 6.06669 5.72590
#
# Compressibility (1/GPa) = 0.03580960
#
# Stress axis : x y z
#
# Youngs Moduli (GPa) = 40.87433 132.63408 93.35174
#
# Poissons Ratio (x) = -0.05831 0.20587
# Poissons Ratio (y) = -0.01797 0.15757
# Poissons Ratio (z) = 0.09014 0.22388
#
# Static dielectric constant tensor:
#      x y z
#    x 1.836520 0.000000 0.000000 
#    y 0.000000 1.791270 0.000000 
#    z 0.000000 0.000000 1.750150 
# 
# From -- ./inp_files/37150.got.cif
#   From: 2010.05.17/outbox.cif.g08.bks.cpg/sg72_19_cif.got.tgz:37150.got - 2010.06.03 17:03:01.
