data_PCOD9527266
_publ_section_title
;
Structure prediction by ZEFSAII (Michael W. Deem and Ramdas Pophale) SiO2 
 PCOD9527266
Probable space group: I B A M
;
_chemical_formula_sum "Si O2"
_cell_formula_units_Z 80
_cell_length_a 25.257917
_cell_length_b 10.535710
_cell_length_c 14.625462
_cell_angle_alpha 90.000000
_cell_angle_beta 90.000000
_cell_angle_gamma 90.000000
_cell_volume 3891.982990
_symmetry_space_group_name_H-M "I B A M"
_symmetry_group_IT_number 72
_symmetry_cell_setting 'orthorhombic'
loop_
_space_group_symop_operation_xyz
x,y,z
-x,-y,z
x,-y,1/2-z
-x,y,1/2-z
-x,-y,-z
x,y,-z
-x,y,1/2+z
x,-y,1/2+z
1/2+x,1/2+y,1/2+z
1/2-x,1/2-y,1/2+z
1/2+x,1/2-y,-z
1/2-x,1/2+y,-z
1/2-x,1/2-y,1/2-z
1/2+x,1/2+y,1/2-z
1/2-x,1/2+y,z
1/2+x,1/2-y,z
loop_
_atom_site_type_symbol
_atom_site_label
_atom_site_fract_x
_atom_site_fract_y
_atom_site_fract_z
Si Si1 0.349803 0.476449 0.389685
Si Si2 0.137968 0.267145 0.608650
Si Si3 0.259068 0.876421 0.690842
Si Si4 0.974853 0.632850 0.611990
Si Si5 0.037169 0.117322 0.111494
O O1 0.349893 0.477853 0.500000
O O2 0.354350 0.622604 0.356994
O O3 0.295722 0.412009 0.358417
O O4 0.402736 0.404501 0.358590
O O5 0.130662 0.254902 0.500000
O O6 0.190999 0.345016 0.627564
O O7 0.084812 0.335465 0.643706
O O8 0.250000 0.750000 0.750000
O O9 0.272706 0.000000 0.750000
O O10 0.973814 0.630307 0.500000
O O11 0.000000 0.500000 0.641474
O O12 0.011799 0.750300 0.639708
O O13 0.037277 0.115982 0.000000
O O14 0.000000 0.000000 0.139704
#
# Coordination Sequence:
#
# PCOD9527266 Si02
#       5
#    16  16  16  16  16
#     4  10  20  37  63  91 117 151 202 249 289 351
#     4  10  20  38  63  89 119 154 197 249 295 346
#     4  12  25  42  60  83 119 162 201 246 300 353
#     4   9  17  30  53  89 123 147 181 238 301 351
#     4   9  15  28  55  87 115 146 184 236 296 349
#
# _framework density 20.555074000000001
#
# number of rings (size 3 to 8) (size 9 to 14) (size 15 to 20)
#    0.000    2.000    4.000    0.600    0.000    1.600 
#    0.000    2.000    0.000    7.200    0.000    0.000 
#    0.000    0.000    0.000    0.000    0.000    0.000 
#
# Total GULP energy -223511.408448 kJ/mol
# GULP energy per Si atom -5587.785211 kJ/mol
# Density = 2.050829 g / cm^3
# Si number density = 20.555074 Si / 1000 Ang^3
#
#
#
# Elastic Constant Matrix: (Units=GPa)
#
#
# Indices 1 2 3 4 5 6 
#
# 1 231.8699 112.6148 20.9121 0.0000 0.0000 0.0000
# 2 112.6148 190.0431 17.8565 0.0000 0.0000 0.0000
# 3 20.9121 17.8565 39.3639 0.0000 0.0000 0.0000
# 4 0.0000 0.0000 0.0000 14.5434 0.0000 0.0000
# 5 0.0000 0.0000 0.0000 0.0000 -5.1538 0.0000
# 6 0.0000 0.0000 0.0000 0.0000 0.0000 39.8748
#
#
#
# Elastic Compliance Matrix: (Units=1/GPa)
#
#
# Indices 1 2 3 4 5 6 
#
# 1 0.006161 -0.003492 -0.001689 0.000000 0.000000 0.000000
# 2 -0.003492 0.007476 -0.001536 0.000000 0.000000 0.000000
# 3 -0.001689 -0.001536 0.026998 0.000000 0.000000 0.000000
# 4 0.000000 0.000000 0.000000 0.068760 0.000000 0.000000
# 5 0.000000 0.000000 0.000000 0.000000 -0.194032 0.000000
# 6 0.000000 0.000000 0.000000 0.000000 0.000000 0.025078
#
#
# Mechanical properties :
#
#
# Convention : Reuss Voigt Hill
#
# Bulk Modulus (GPa) = 36.76385 84.89373 60.82879
# Shear Modulus (GPa) = -134.92545 30.51245 -52.20650
#
# Velocity S-wave (km/s) = -8.11070 3.85700 -5.04515
# Velocity P-wave (km/s) = 8.35386 7.82468 2.06898
#
# Compressibility (1/GPa) = 0.02720064
#
# Stress axis : x y z
#
# Youngs Moduli (GPa) = 162.30527 133.76625 37.03978
#
# Poissons Ratio (x) = 0.46715 0.06256
# Poissons Ratio (y) = 0.56682 0.05689
# Poissons Ratio (z) = 0.27413 0.20545
#
# Static dielectric constant tensor:
#      x y z
#    x 1.702030 0.000000 0.000000 
#    y 0.000000 1.693560 0.000000 
#    z 0.000000 0.000000 1.762270 
# 
# From -- ./inp_files/33749.got.cif
#   From: 2010.05.17/outbox.cif.g08.bks.cpg/sg72_17_cif.got.tgz:33749.got - 2010.06.03 17:03:01.
