data_PCOD9527307
_publ_section_title
;
Structure prediction by ZEFSAII (Michael W. Deem and Ramdas Pophale) SiO2 
 PCOD9527307
Probable space group: I B A M
;
_chemical_formula_sum "Si O2"
_cell_formula_units_Z 112
_cell_length_a 31.097330
_cell_length_b 11.582372
_cell_length_c 15.697995
_cell_angle_alpha 90.000000
_cell_angle_beta 90.000000
_cell_angle_gamma 90.000000
_cell_volume 5654.117092
_symmetry_space_group_name_H-M "I B A M"
_symmetry_group_IT_number 72
_symmetry_cell_setting 'orthorhombic'
loop_
_space_group_symop_operation_xyz
x,y,z
-x,-y,z
x,-y,1/2-z
-x,y,1/2-z
-x,-y,-z
x,y,-z
-x,y,1/2+z
x,-y,1/2+z
1/2+x,1/2+y,1/2+z
1/2-x,1/2-y,1/2+z
1/2+x,1/2-y,-z
1/2-x,1/2+y,-z
1/2-x,1/2-y,1/2-z
1/2+x,1/2+y,1/2-z
1/2-x,1/2+y,z
1/2+x,1/2-y,z
loop_
_atom_site_type_symbol
_atom_site_label
_atom_site_fract_x
_atom_site_fract_y
_atom_site_fract_z
Si Si1 0.224619 0.603645 0.182718
Si Si2 0.657485 0.051820 0.904027
Si Si3 0.065399 0.513128 0.653355
Si Si4 0.035208 0.244422 0.903414
Si Si5 0.935623 0.252386 0.096342
Si Si6 0.810652 0.776401 0.821036
Si Si7 0.098212 0.865213 0.736283
O O1 0.231885 0.500000 0.250000
O O2 0.190691 0.550097 0.117149
O O3 0.203676 0.709556 0.234625
O O4 0.270771 0.645278 0.150150
O O5 0.615799 0.047571 0.844440
O O6 0.679987 0.174033 0.887292
O O7 0.641721 0.043030 0.000000
O O8 0.050012 0.500000 0.750000
O O9 0.040642 0.617644 0.608905
O O10 0.063533 0.390677 0.607238
O O11 0.064498 0.186316 0.831727
O O12 0.985199 0.212941 0.893194
O O13 0.048763 0.214798 0.000000
O O14 0.908276 0.199716 0.173470
O O15 0.921305 0.223501 0.000000
O O16 0.854183 0.843867 0.800636
O O17 0.090520 0.000000 0.750000
#
# Coordination Sequence:
#
# PCOD9527307 Si02
#       7
#    16  16  16  16  16  16  16
#     4   9  19  36  60  85 113 150 196 253 312 372
#     4  11  21  34  57  89 124 159 198 253 319 381
#     4  12  21  37  65  95 125 161 206 258 329 391
#     4  11  24  41  63  92 126 164 210 265 326 386
#     4  11  24  41  62  92 127 163 209 270 328 381
#     4  10  20  38  60  84 116 157 206 252 308 373
#     4  12  25  41  64  89 122 172 222 261 311 380
#
# _framework density 19.808574
#
# number of rings (size 3 to 8) (size 9 to 14) (size 15 to 20)
#    0.000    1.143    2.857    4.714    0.000    4.000 
#    0.000    1.429    0.000   10.286    0.000    0.000 
#    0.000    0.000    0.000    0.000    0.000    0.000 
#
# Total GULP energy -313002.011628 kJ/mol
# GULP energy per Si atom -5589.321636 kJ/mol
# Density = 1.976349 g / cm^3
# Si number density = 19.808574 Si / 1000 Ang^3
#
#
#
# Elastic Constant Matrix: (Units=GPa)
#
#
# Indices 1 2 3 4 5 6 
#
# 1 50.7387 -8.3440 -4.9222 0.0000 0.0000 0.0000
# 2 -8.3440 59.0464 -3.1111 0.0000 0.0000 0.0000
# 3 -4.9222 -3.1111 73.9672 0.0000 0.0000 0.0000
# 4 0.0000 0.0000 0.0000 3.7610 0.0000 0.0000
# 5 0.0000 0.0000 0.0000 0.0000 11.7510 0.0000
# 6 0.0000 0.0000 0.0000 0.0000 0.0000 24.8810
#
#
#
# Elastic Compliance Matrix: (Units=1/GPa)
#
#
# Indices 1 2 3 4 5 6 
#
# 1 0.020338 0.002952 0.001478 0.000000 0.000000 0.000000
# 2 0.002952 0.017402 0.000928 0.000000 0.000000 0.000000
# 3 0.001478 0.000928 0.013657 0.000000 0.000000 0.000000
# 4 0.000000 0.000000 0.000000 0.265887 0.000000 0.000000
# 5 0.000000 0.000000 0.000000 0.000000 0.085099 0.000000
# 6 0.000000 0.000000 0.000000 0.000000 0.000000 0.040191
#
#
# Mechanical properties :
#
#
# Convention : Reuss Voigt Hill
#
# Bulk Modulus (GPa) = 16.10002 16.77752 16.43877
# Shear Modulus (GPa) = 11.04822 21.42058 16.23440
#
# Velocity S-wave (km/s) = 2.36423 3.29200 2.86591
# Velocity P-wave (km/s) = 3.94946 4.78935 4.38954
#
# Compressibility (1/GPa) = 0.06211172
#
# Stress axis : x y z
#
# Youngs Moduli (GPa) = 49.17006 57.46509 73.22314
#
# Poissons Ratio (x) = -0.16963 -0.10819
# Poissons Ratio (y) = -0.14514 -0.06798
# Poissons Ratio (z) = -0.07265 -0.05335
#
# Static dielectric constant tensor:
#      x y z
#    x 1.702870 0.000000 0.000000 
#    y 0.000000 1.685320 0.000000 
#    z 0.000000 0.000000 1.677150 
# 
# From -- ./inp_files/26347.got.cif
#   From: 2010.05.17/outbox.cif.g08.bks.cpg/sg72_14_cif.got.tgz:26347.got - 2010.06.03 17:03:01.
