data_PCOD9527133
_publ_section_title
;
Structure prediction by ZEFSAII (Michael W. Deem and Ramdas Pophale) SiO2 
 PCOD9527133
Probable space group: I B A M
;
_chemical_formula_sum "Si O2"
_cell_formula_units_Z 96
_cell_length_a 13.483002
_cell_length_b 13.172085
_cell_length_c 32.006166
_cell_angle_alpha 90.000000
_cell_angle_beta 90.000000
_cell_angle_gamma 90.000000
_cell_volume 5684.271026
_symmetry_space_group_name_H-M "I B A M"
_symmetry_group_IT_number 72
_symmetry_cell_setting 'orthorhombic'
loop_
_space_group_symop_operation_xyz
x,y,z
-x,-y,z
x,-y,1/2-z
-x,y,1/2-z
-x,-y,-z
x,y,-z
-x,y,1/2+z
x,-y,1/2+z
1/2+x,1/2+y,1/2+z
1/2-x,1/2-y,1/2+z
1/2+x,1/2-y,-z
1/2-x,1/2+y,-z
1/2-x,1/2-y,1/2-z
1/2+x,1/2+y,1/2-z
1/2-x,1/2+y,z
1/2+x,1/2-y,z
loop_
_atom_site_type_symbol
_atom_site_label
_atom_site_fract_x
_atom_site_fract_y
_atom_site_fract_z
Si Si1 0.798686 0.369916 0.856224
Si Si2 0.109253 0.261754 0.135169
Si Si3 0.239486 0.429896 0.090292
Si Si4 0.155716 0.531224 0.500000
Si Si5 0.520971 0.119382 0.702415
Si Si6 0.030236 0.676597 0.000000
Si Si7 0.078128 0.216337 0.586532
O O1 0.697275 0.309605 0.849244
O O2 0.774222 0.478407 0.876925
O O3 0.867287 0.369745 0.815084
O O4 0.864460 0.308268 0.890091
O O5 0.160012 0.344531 0.104612
O O6 0.052694 0.320061 0.172045
O O7 0.025520 0.200476 0.110086
O O8 0.347551 0.378163 0.089986
O O9 0.215944 0.463404 0.043087
O O10 0.098028 0.424387 0.500000
O O11 0.079481 0.626901 0.500000
O O12 0.500000 0.150478 0.750000
O O13 0.500000 0.000000 0.698873
O O14 0.053715 0.744366 0.959661
#
# Coordination Sequence:
#
# PCOD9527133 Si02
#       7
#    16  16  16   8  16   8  16
#     4  10  21  36  58  82 110 147 187 229 280 341
#     4  10  21  37  57  82 110 148 189 228 280 335
#     4  11  20  36  54  79 113 151 190 238 285 329
#     4  11  21  30  56  79 110 150 190 249 289 325
#     4  10  20  36  62  90 114 141 179 227 279 340
#     4  11  19  32  52  79 108 148 196 245 289 327
#     4  10  21  34  54  78 111 150 194 235 280 335
#
# _framework density 16.888708999999999
#
# number of rings (size 3 to 8) (size 9 to 14) (size 15 to 20)
#    0.000    1.667    5.000    0.500    0.000    1.333 
#    0.000    0.833    0.000    2.000    0.000    1.167 
#    0.000    0.000    0.000    0.000    0.000    0.000 
#
# Total GULP energy -267707.420005 kJ/mol
# GULP energy per Si atom -5577.237917 kJ/mol
# Density = 1.685027 g / cm^3
# Si number density = 16.888709 Si / 1000 Ang^3
#
#
#
# Elastic Constant Matrix: (Units=GPa)
#
#
# Indices 1 2 3 4 5 6 
#
# 1 121.8125 36.2135 63.4761 0.0000 0.0000 0.0000
# 2 36.2135 45.7721 30.4388 0.0000 0.0000 0.0000
# 3 63.4761 30.4388 131.3557 0.0000 0.0000 0.0000
# 4 0.0000 0.0000 0.0000 12.1782 0.0000 0.0000
# 5 0.0000 0.0000 0.0000 0.0000 9.4833 0.0000
# 6 0.0000 0.0000 0.0000 0.0000 0.0000 25.3001
#
#
#
# Elastic Compliance Matrix: (Units=1/GPa)
#
#
# Indices 1 2 3 4 5 6 
#
# 1 0.012627 -0.007013 -0.004477 0.000000 0.000000 0.000000
# 2 -0.007013 0.029722 -0.003499 0.000000 0.000000 0.000000
# 3 -0.004477 -0.003499 0.010587 0.000000 0.000000 0.000000
# 4 0.000000 0.000000 0.000000 0.082114 0.000000 0.000000
# 5 0.000000 0.000000 0.000000 0.000000 0.105449 0.000000
# 6 0.000000 0.000000 0.000000 0.000000 0.000000 0.039526
#
#
# Mechanical properties :
#
#
# Convention : Reuss Voigt Hill
#
# Bulk Modulus (GPa) = 43.55452 62.13303 52.84377
# Shear Modulus (GPa) = 15.74036 20.64643 18.19340
#
# Velocity S-wave (km/s) = 3.05619 3.50022 3.28571
# Velocity P-wave (km/s) = 6.18860 7.29417 6.76401
#
# Compressibility (1/GPa) = 0.02295973
#
# Stress axis : x y z
#
# Youngs Moduli (GPa) = 79.19490 33.64462 94.45570
#
# Poissons Ratio (x) = 0.23595 0.42286
# Poissons Ratio (y) = 0.55540 0.33046
# Poissons Ratio (z) = 0.35454 0.11771
#
# Static dielectric constant tensor:
#      x y z
#    x 1.564850 0.000000 0.000000 
#    y 0.000000 1.556550 0.000000 
#    z 0.000000 0.000000 1.555380 
# 
# From -- ./inp_files/51403.got.cif
#   From: 2010.05.17/outbox.cif.g08.bks.cpg/sg72_26_cif.got.tgz:51403.got - 2010.06.03 17:03:01.
