data_PCOD9527292
_publ_section_title
;
Structure prediction by ZEFSAII (Michael W. Deem and Ramdas Pophale) SiO2 
 PCOD9527292
Probable space group: I B A M
;
_chemical_formula_sum "Si O2"
_cell_formula_units_Z 104
_cell_length_a 24.047081
_cell_length_b 8.724581
_cell_length_c 27.465541
_cell_angle_alpha 90.000000
_cell_angle_beta 90.000000
_cell_angle_gamma 90.000000
_cell_volume 5762.289892
_symmetry_space_group_name_H-M "I B A M"
_symmetry_group_IT_number 72
_symmetry_cell_setting 'orthorhombic'
loop_
_space_group_symop_operation_xyz
x,y,z
-x,-y,z
x,-y,1/2-z
-x,y,1/2-z
-x,-y,-z
x,y,-z
-x,y,1/2+z
x,-y,1/2+z
1/2+x,1/2+y,1/2+z
1/2-x,1/2-y,1/2+z
1/2+x,1/2-y,-z
1/2-x,1/2+y,-z
1/2-x,1/2-y,1/2-z
1/2+x,1/2+y,1/2-z
1/2-x,1/2+y,z
1/2+x,1/2-y,z
loop_
_atom_site_type_symbol
_atom_site_label
_atom_site_fract_x
_atom_site_fract_y
_atom_site_fract_z
Si Si1 0.262121 0.500000 0.750000
Si Si2 0.904601 0.346982 0.558166
Si Si3 0.980529 0.175453 0.056710
Si Si4 0.783075 0.899320 0.447439
Si Si5 0.126731 0.312617 0.593968
Si Si6 0.803320 0.207773 0.397587
Si Si7 0.710714 0.755342 0.818890
O O1 0.297201 0.401126 0.788858
O O2 0.223036 0.385564 0.720230
O O3 0.892668 0.329969 0.500000
O O4 0.889882 0.518473 0.575777
O O5 0.867578 0.239170 0.593301
O O6 0.968287 0.292509 0.563771
O O7 0.929695 0.215743 0.091712
O O8 0.961904 0.192337 0.000000
O O9 0.000000 0.000000 0.062537
O O10 0.785847 0.973892 0.500000
O O11 0.830008 0.770612 0.442143
O O12 0.725612 0.813728 0.438563
O O13 0.791107 0.030481 0.407653
O O14 0.161389 0.302555 0.644409
O O15 0.768525 0.255658 0.349982
#
# Coordination Sequence:
#
# PCOD9527292 Si02
#       7
#     8  16  16  16  16  16  16
#     4  10  20  38  58  80 106 130 166 222 290 350
#     4  11  21  33  52  78 114 156 190 220 255 301
#     4  10  21  36  53  77 111 152 192 223 253 296
#     4  11  20  30  47  71 109 150 179 217 261 307
#     4  11  21  35  53  78 107 139 186 229 265 319
#     4  11  21  33  49  77 109 140 182 219 258 318
#     4  10  21  36  57  82 105 134 172 221 282 336
#
# _framework density 18.048382
#
# number of rings (size 3 to 8) (size 9 to 14) (size 15 to 20)
#    0.000    1.385    0.000    8.769    0.000    2.462 
#    0.000    0.000    0.000    0.000    0.000   26.385 
#    0.000    0.000    0.000    0.000    0.000    0.000 
#
# Total GULP energy -290121.644401 kJ/mol
# GULP energy per Si atom -5579.262392 kJ/mol
# Density = 1.800730 g / cm^3
# Si number density = 18.048382 Si / 1000 Ang^3
#
#
#
# Elastic Constant Matrix: (Units=GPa)
#
#
# Indices 1 2 3 4 5 6 
#
# 1 72.1371 -4.3695 28.0634 0.0000 0.0000 0.0000
# 2 -4.3695 62.1457 17.8226 0.0000 0.0000 0.0000
# 3 28.0634 17.8226 90.1906 0.0000 0.0000 0.0000
# 4 0.0000 0.0000 0.0000 29.5157 0.0000 0.0000
# 5 0.0000 0.0000 0.0000 0.0000 16.8034 0.0000
# 6 0.0000 0.0000 0.0000 0.0000 0.0000 27.2322
#
#
#
# Elastic Compliance Matrix: (Units=1/GPa)
#
#
# Indices 1 2 3 4 5 6 
#
# 1 0.016200 0.002740 -0.005582 0.000000 0.000000 0.000000
# 2 0.002740 0.017521 -0.004315 0.000000 0.000000 0.000000
# 3 -0.005582 -0.004315 0.013677 0.000000 0.000000 0.000000
# 4 0.000000 0.000000 0.000000 0.033880 0.000000 0.000000
# 5 0.000000 0.000000 0.000000 0.000000 0.059512 0.000000
# 6 0.000000 0.000000 0.000000 0.000000 0.000000 0.036721
#
#
# Mechanical properties :
#
#
# Convention : Reuss Voigt Hill
#
# Bulk Modulus (GPa) = 30.22585 34.16738 32.19661
# Shear Modulus (GPa) = 24.64821 26.90739 25.77780
#
# Velocity S-wave (km/s) = 3.69951 3.86534 3.78333
# Velocity P-wave (km/s) = 5.91878 6.23644 6.07969
#
# Compressibility (1/GPa) = 0.03308427
#
# Stress axis : x y z
#
# Youngs Moduli (GPa) = 61.72795 57.07326 73.11405
#
# Poissons Ratio (x) = -0.15638 0.40814
# Poissons Ratio (y) = -0.16913 0.31548
# Poissons Ratio (z) = 0.34458 0.24627
#
# Static dielectric constant tensor:
#      x y z
#    x 1.618500 0.000000 0.000000 
#    y 0.000000 1.660400 0.000000 
#    z 0.000000 0.000000 1.631370 
# 
# From -- ./inp_files/49692.got.cif
#   From: 2010.05.17/outbox.cif.g08.bks.cpg/sg72_25_cif.got.tgz:49692.got - 2010.06.03 17:03:01.
