data_PCOD9527437
_publ_section_title
;
Structure prediction by ZEFSAII (Michael W. Deem and Ramdas Pophale) SiO2 
 PCOD9527437
Probable space group: I B A M
;
_chemical_formula_sum "Si O2"
_cell_formula_units_Z 64
_cell_length_a 10.974601
_cell_length_b 28.233675
_cell_length_c 10.751742
_cell_angle_alpha 90.000000
_cell_angle_beta 90.000000
_cell_angle_gamma 90.000000
_cell_volume 3331.462932
_symmetry_space_group_name_H-M "I B A M"
_symmetry_group_IT_number 72
_symmetry_cell_setting 'orthorhombic'
loop_
_space_group_symop_operation_xyz
x,y,z
-x,-y,z
x,-y,1/2-z
-x,y,1/2-z
-x,-y,-z
x,y,-z
-x,y,1/2+z
x,-y,1/2+z
1/2+x,1/2+y,1/2+z
1/2-x,1/2-y,1/2+z
1/2+x,1/2-y,-z
1/2-x,1/2+y,-z
1/2-x,1/2-y,1/2-z
1/2+x,1/2+y,1/2-z
1/2-x,1/2+y,z
1/2+x,1/2-y,z
loop_
_atom_site_type_symbol
_atom_site_label
_atom_site_fract_x
_atom_site_fract_y
_atom_site_fract_z
Si Si1 0.366428 0.524778 0.865681
Si Si2 0.701290 0.795108 0.500000
Si Si3 0.087897 0.863663 0.639279
Si Si4 0.693049 0.197720 0.726770
Si Si5 0.555769 0.766308 0.000000
O O1 0.500000 0.500000 0.872807
O O2 0.302187 0.500000 0.750000
O O3 0.386286 0.580426 0.845119
O O4 0.307027 0.517858 0.000000
O O5 0.681306 0.821321 0.631664
O O6 0.589044 0.756503 0.500000
O O7 0.837944 0.773531 0.500000
O O8 0.036820 0.857419 0.500000
O O9 0.211209 0.834860 0.655495
O O10 0.000000 0.847477 0.750000
O O11 0.750000 0.250000 0.750000
O O12 0.584078 0.205890 0.628850
#
# Coordination Sequence:
#
# PCOD9527437 Si02
#       5
#    16   8  16  16   8
#     4   9  16  30  50  78 117 159 188 240 313 377
#     4  10  22  36  62  82 108 157 203 257 303 354
#     4  11  22  35  56  84 121 166 205 248 309 379
#     4  10  22  38  51  78 116 152 208 247 297 358
#     4  10  20  40  60  80 112 153 205 255 307 352
#
# _framework density 19.21078
#
# number of rings (size 3 to 8) (size 9 to 14) (size 15 to 20)
#    0.000    2.000    3.750    0.750    1.750    8.000 
#    0.000    0.000    0.000    0.000    0.000    0.000 
#    0.000    6.000    0.000    0.000    0.000    0.000 
#
# Total GULP energy -178191.947743 kJ/mol
# GULP energy per Si atom -5568.498367 kJ/mol
# Density = 1.916706 g / cm^3
# Si number density = 19.210780 Si / 1000 Ang^3
#
#
#
# Elastic Constant Matrix: (Units=GPa)
#
#
# Indices 1 2 3 4 5 6 
#
# 1 60.5139 22.4943 7.3223 -0.0003 0.0000 0.0000
# 2 22.4943 73.0091 1.3100 -0.0001 0.0000 0.0000
# 3 7.3223 1.3100 185.3265 -0.0007 0.0010 -0.0002
# 4 -0.0003 -0.0001 -0.0007 14.8054 0.0002 0.0000
# 5 0.0000 0.0000 0.0010 0.0002 26.3188 0.0000
# 6 0.0000 0.0000 -0.0002 0.0000 0.0000 13.4088
#
#
#
# Elastic Compliance Matrix: (Units=1/GPa)
#
#
# Indices 1 2 3 4 5 6 
#
# 1 0.018753 -0.005765 -0.000700 0.000000 0.000000 0.000000
# 2 -0.005765 0.015471 0.000118 0.000000 0.000000 0.000000
# 3 -0.000700 0.000118 0.005423 0.000000 0.000000 0.000000
# 4 0.000000 0.000000 0.000000 0.067543 -0.000001 0.000000
# 5 0.000000 0.000000 0.000000 -0.000001 0.037996 0.000000
# 6 0.000000 0.000000 0.000000 0.000000 0.000000 0.074578
#
#
# Mechanical properties :
#
#
# Convention : Reuss Voigt Hill
#
# Bulk Modulus (GPa) = 37.10204 42.34475 39.72339
# Shear Modulus (GPa) = 20.70896 30.08812 25.39854
#
# Velocity S-wave (km/s) = 3.28683 3.96183 3.64001
# Velocity P-wave (km/s) = 5.81029 6.55882 6.19587
#
# Compressibility (1/GPa) = 0.02695270
#
# Stress axis : x y z
#
# Youngs Moduli (GPa) = 53.32499 64.63665 184.40968
#
# Poissons Ratio (x) = 0.37265 0.12912
# Poissons Ratio (y) = 0.30743 -0.02184
# Poissons Ratio (z) = 0.03734 -0.00765
#
# Static dielectric constant tensor:
#      x y z
#    x 1.675520 0.000000 0.000000 
#    y 0.000000 1.655160 0.000000 
#    z 0.000000 0.000000 1.890880 
# 
# From -- ./inp_files/11467.got.cif
#   From: 2010.05.17/outbox.cif.g08.bks.cpg/sg72_6_cif.got.tgz:11467.got - 2010.06.03 17:03:01.
