data_PCOD9527189
_publ_section_title
;
Structure prediction by ZEFSAII (Michael W. Deem and Ramdas Pophale) SiO2 
 PCOD9527189
Probable space group: I B A M
;
_chemical_formula_sum "Si O2"
_cell_formula_units_Z 96
_cell_length_a 10.164389
_cell_length_b 28.114782
_cell_length_c 17.431289
_cell_angle_alpha 90.000000
_cell_angle_beta 90.000000
_cell_angle_gamma 90.000000
_cell_volume 4981.332152
_symmetry_space_group_name_H-M "I B A M"
_symmetry_group_IT_number 72
_symmetry_cell_setting 'orthorhombic'
loop_
_space_group_symop_operation_xyz
x,y,z
-x,-y,z
x,-y,1/2-z
-x,y,1/2-z
-x,-y,-z
x,y,-z
-x,y,1/2+z
x,-y,1/2+z
1/2+x,1/2+y,1/2+z
1/2-x,1/2-y,1/2+z
1/2+x,1/2-y,-z
1/2-x,1/2+y,-z
1/2-x,1/2-y,1/2-z
1/2+x,1/2+y,1/2-z
1/2-x,1/2+y,z
1/2+x,1/2-y,z
loop_
_atom_site_type_symbol
_atom_site_label
_atom_site_fract_x
_atom_site_fract_y
_atom_site_fract_z
Si Si1 0.961224 0.182192 0.414117
Si Si2 0.609032 0.834376 0.185558
Si Si3 0.913969 0.712639 0.088925
Si Si4 0.656814 0.553532 0.738070
Si Si5 0.248887 0.902297 0.414231
Si Si6 0.206387 0.154080 0.686433
O O1 0.026141 0.185774 0.500000
O O2 0.066199 0.169614 0.347917
O O3 0.883649 0.231616 0.403737
O O4 0.857702 0.139860 0.418763
O O5 0.500000 0.846064 0.250000
O O6 0.549914 0.792215 0.135825
O O7 0.627052 0.877605 0.126641
O O8 0.742528 0.824504 0.232514
O O9 0.810472 0.676167 0.126093
O O10 0.931953 0.701346 0.000000
O O11 0.706555 0.500000 0.750000
O O12 0.500000 0.554276 0.750000
O O13 0.690710 0.563290 0.649523
O O14 0.708265 0.597394 0.791955
O O15 0.272868 0.920437 0.500000
#
# Coordination Sequence:
#
# PCOD9527189 Si02
#       6
#    16  16  16  16  16  16
#     4  10  21  34  53  82 118 159 195 234 289 354
#     4   9  20  36  53  81 110 152 203 241 284 334
#     4  10  21  36  54  80 118 161 200 239 289 348
#     4  10  20  39  62  87 119 153 193 247 310 358
#     4  10  20  37  59  85 117 153 192 238 292 353
#     4  10  20  38  56  83 116 153 196 242 293 354
#
# _framework density 19.271953
#
# number of rings (size 3 to 8) (size 9 to 14) (size 15 to 20)
#    0.000    2.167    1.667    1.000    2.333    0.667 
#   15.000    3.333    0.000   32.000    0.000   15.167 
#    0.000    0.000    0.000    0.000    0.000    0.000 
#
# Total GULP energy -267263.867783 kJ/mol
# GULP energy per Si atom -5567.997245 kJ/mol
# Density = 1.922809 g / cm^3
# Si number density = 19.271953 Si / 1000 Ang^3
#
#
#
# Elastic Constant Matrix: (Units=GPa)
#
#
# Indices 1 2 3 4 5 6 
#
# 1 40.0070 18.1089 33.0219 0.0000 0.0000 0.0000
# 2 18.1089 106.4131 65.7343 0.0000 0.0000 0.0000
# 3 33.0219 65.7343 158.3163 0.0002 0.0000 0.0000
# 4 0.0000 0.0000 0.0002 5.4229 0.0000 0.0000
# 5 0.0000 0.0000 0.0000 0.0000 20.7501 0.0000
# 6 0.0000 0.0000 0.0000 0.0000 0.0000 12.5301
#
#
#
# Elastic Compliance Matrix: (Units=1/GPa)
#
#
# Indices 1 2 3 4 5 6 
#
# 1 0.030418 -0.001691 -0.005643 0.000000 0.000000 0.000000
# 2 -0.001691 0.012733 -0.004934 0.000000 0.000000 0.000000
# 3 -0.005643 -0.004934 0.009542 0.000000 0.000000 0.000000
# 4 0.000000 0.000000 0.000000 0.184402 0.000000 0.000000
# 5 0.000000 0.000000 0.000000 0.000000 0.048193 0.000000
# 6 0.000000 0.000000 0.000000 0.000000 0.000000 0.079808
#
#
# Mechanical properties :
#
#
# Convention : Reuss Voigt Hill
#
# Bulk Modulus (GPa) = 35.51361 59.82964 47.67162
# Shear Modulus (GPa) = 12.53077 20.26536 16.39806
#
# Velocity S-wave (km/s) = 2.55268 3.24627 2.92014
# Velocity P-wave (km/s) = 5.21113 6.72037 6.01329
#
# Compressibility (1/GPa) = 0.02815822
#
# Stress axis : x y z
#
# Youngs Moduli (GPa) = 32.87478 78.53566 104.79809
#
# Poissons Ratio (x) = 0.13279 0.59134
# Poissons Ratio (y) = 0.05559 0.51710
# Poissons Ratio (z) = 0.18550 0.38751
#
# Static dielectric constant tensor:
#      x y z
#    x 1.747270 0.000000 0.000000 
#    y 0.000000 1.682300 0.000000 
#    z 0.000000 0.000000 1.712100 
# 
# From -- ./inp_files/29469.got.cif
#   From: 2010.05.17/outbox.cif.g08.bks.cpg/sg72_15_cif.got.tgz:29469.got - 2010.06.03 17:03:01.
