data_PCOD9527644
_publ_section_title
;
Structure prediction by ZEFSAII (Michael W. Deem and Ramdas Pophale) SiO2 
 PCOD9527644
Probable space group: I B A M
;
_chemical_formula_sum "Si O2"
_cell_formula_units_Z 128
_cell_length_a 11.863350
_cell_length_b 23.300804
_cell_length_c 25.769059
_cell_angle_alpha 90.000000
_cell_angle_beta 90.000000
_cell_angle_gamma 90.000000
_cell_volume 7123.227419
_symmetry_space_group_name_H-M "I B A M"
_symmetry_group_IT_number 72
_symmetry_cell_setting 'orthorhombic'
loop_
_space_group_symop_operation_xyz
x,y,z
-x,-y,z
x,-y,1/2-z
-x,y,1/2-z
-x,-y,-z
x,y,-z
-x,y,1/2+z
x,-y,1/2+z
1/2+x,1/2+y,1/2+z
1/2-x,1/2-y,1/2+z
1/2+x,1/2-y,-z
1/2-x,1/2+y,-z
1/2-x,1/2-y,1/2-z
1/2+x,1/2+y,1/2-z
1/2-x,1/2+y,z
1/2+x,1/2-y,z
loop_
_atom_site_type_symbol
_atom_site_label
_atom_site_fract_x
_atom_site_fract_y
_atom_site_fract_z
Si Si1 0.252932 0.547903 0.440248
Si Si2 0.910053 0.377632 0.376266
Si Si3 0.024109 0.286675 0.311913
Si Si4 0.726090 0.126842 0.318405
Si Si5 0.321859 0.054493 0.280727
Si Si6 0.904617 0.454505 0.895139
Si Si7 0.514606 0.346142 0.811505
Si Si8 0.100539 0.958082 0.846929
O O1 0.274151 0.559557 0.500000
O O2 0.196273 0.602524 0.410386
O O3 0.166640 0.493970 0.434037
O O4 0.360329 0.531669 0.405707
O O5 0.900251 0.414916 0.322903
O O6 0.933978 0.315699 0.351573
O O7 0.016430 0.400575 0.409782
O O8 0.140669 0.319792 0.323384
O O9 0.000000 0.295757 0.250000
O O10 0.024754 0.218805 0.320618
O O11 0.713499 0.102132 0.260628
O O12 0.681195 0.075275 0.355082
O O13 0.854808 0.144645 0.326647
O O14 0.209913 0.033837 0.310855
O O15 0.369785 0.000000 0.250000
O O16 0.000000 0.500000 0.876203
O O17 0.500000 0.357428 0.750000
O O18 0.440825 0.393227 0.840482
O O19 0.000000 0.000000 0.831128
#
# Coordination Sequence:
#
# PCOD9527644 Si02
#       8
#    16  16  16  16  16  16  16  16
#     4  10  21  37  58  80 108 146 188 237 291 339
#     4   9  19  34  51  81 112 142 187 230 274 332
#     4  10  21  36  54  79 115 153 189 225 272 332
#     4  11  20  34  52  79 114 154 191 229 265 335
#     4  11  19  29  50  74 110 152 179 219 269 331
#     4   9  18  33  51  81 111 142 182 232 281 333
#     4  11  23  36  55  79 112 159 191 227 277 333
#     4  11  23  37  52  79 111 142 191 232 277 339
#
# _framework density 17.969382
#
# number of rings (size 3 to 8) (size 9 to 14) (size 15 to 20)
#    0.000    1.750    2.500    3.750    0.000    6.500 
#    0.000    4.375    0.000    0.750    0.000    7.000 
#    0.000    0.000    0.000    0.000    0.000    0.000 
#
# Total GULP energy -356592.104701 kJ/mol
# GULP energy per Si atom -5571.751636 kJ/mol
# Density = 1.792848 g / cm^3
# Si number density = 17.969382 Si / 1000 Ang^3
#
#
#
# Elastic Constant Matrix: (Units=GPa)
#
#
# Indices 1 2 3 4 5 6 
#
# 1 61.3850 25.6342 3.7048 0.0000 0.0000 0.0000
# 2 25.6342 87.8015 21.2146 0.0000 0.0000 0.0000
# 3 3.7048 21.2146 59.6549 0.0000 0.0000 0.0000
# 4 0.0000 0.0000 0.0000 9.1387 0.0000 0.0000
# 5 0.0000 0.0000 0.0000 0.0000 8.9719 0.0000
# 6 0.0000 0.0000 0.0000 0.0000 0.0000 25.6086
#
#
#
# Elastic Compliance Matrix: (Units=1/GPa)
#
#
# Indices 1 2 3 4 5 6 
#
# 1 0.018592 -0.005633 0.000849 0.000000 0.000000 0.000000
# 2 -0.005633 0.014167 -0.004688 0.000000 0.000000 0.000000
# 3 0.000849 -0.004688 0.018378 0.000000 0.000000 0.000000
# 4 0.000000 0.000000 0.000000 0.109425 0.000000 0.000000
# 5 0.000000 0.000000 0.000000 0.000000 0.111459 0.000000
# 6 0.000000 0.000000 0.000000 0.000000 0.000000 0.039049
#
#
# Mechanical properties :
#
#
# Convention : Reuss Voigt Hill
#
# Bulk Modulus (GPa) = 31.06470 34.43872 32.75171
# Shear Modulus (GPa) = 14.67370 19.29634 16.98502
#
# Velocity S-wave (km/s) = 2.86071 3.28051 3.07778
# Velocity P-wave (km/s) = 5.31382 5.79274 5.55844
#
# Compressibility (1/GPa) = 0.03219088
#
# Stress axis : x y z
#
# Youngs Moduli (GPa) = 53.78733 70.58821 54.41413
#
# Poissons Ratio (x) = 0.39762 -0.04618
# Poissons Ratio (y) = 0.30298 0.25510
# Poissons Ratio (z) = -0.04564 0.33093
#
# Static dielectric constant tensor:
#      x y z
#    x 1.657340 0.000000 0.000000 
#    y 0.000000 1.654840 0.000000 
#    z 0.000000 0.000000 1.609500 
# 
# From -- ./inp_files/43675.got.cif
#   From: 2010.05.17/outbox.cif.g08.bks.cpg/sg72_22_cif.got.tgz:43675.got - 2010.06.03 17:03:01.
