data_PCOD9527655
_publ_section_title
;
Structure prediction by ZEFSAII (Michael W. Deem and Ramdas Pophale) SiO2 
 PCOD9527655
Probable space group: I B A M
;
_chemical_formula_sum "Si O2"
_cell_formula_units_Z 96
_cell_length_a 6.646031
_cell_length_b 24.873830
_cell_length_c 21.993648
_cell_angle_alpha 90.000000
_cell_angle_beta 90.000000
_cell_angle_gamma 90.000000
_cell_volume 3635.819333
_symmetry_space_group_name_H-M "I B A M"
_symmetry_group_IT_number 72
_symmetry_cell_setting 'orthorhombic'
loop_
_space_group_symop_operation_xyz
x,y,z
-x,-y,z
x,-y,1/2-z
-x,y,1/2-z
-x,-y,-z
x,y,-z
-x,y,1/2+z
x,-y,1/2+z
1/2+x,1/2+y,1/2+z
1/2-x,1/2-y,1/2+z
1/2+x,1/2-y,-z
1/2-x,1/2+y,-z
1/2-x,1/2-y,1/2-z
1/2+x,1/2+y,1/2-z
1/2-x,1/2+y,z
1/2+x,1/2-y,z
loop_
_atom_site_type_symbol
_atom_site_label
_atom_site_fract_x
_atom_site_fract_y
_atom_site_fract_z
Si Si1 0.333168 0.157502 0.364561
Si Si2 0.463889 0.305494 0.431644
Si Si3 0.554117 0.595938 0.309576
Si Si4 0.222461 0.294830 0.305917
Si Si5 0.609225 0.054200 0.070009
Si Si6 0.916602 0.933497 0.933244
O O1 0.152546 0.125160 0.331624
O O2 0.200921 0.191253 0.413409
O O3 0.492741 0.191174 0.325311
O O4 0.449980 0.108958 0.396755
O O5 0.435997 0.281891 0.500000
O O6 0.309997 0.353277 0.289607
O O7 0.342698 0.286257 0.370958
O O8 0.408629 0.368500 0.437487
O O9 0.500000 0.563425 0.250000
O O10 0.649912 0.560908 0.363250
O O11 0.250000 0.250000 0.250000
O O12 0.850426 0.048232 0.071789
O O13 0.500000 0.000000 0.089667
O O14 0.563279 0.063727 0.000000
O O15 0.844295 0.952077 0.000000
#
# Coordination Sequence:
#
# PCOD9527655 Si02
#       6
#    16  16  16  16  16  16
#     4   9  18  33  55  82 124 172 220 270 336 397
#     4   8  16  31  54  84 121 163 215 276 332 397
#     4   9  19  35  54  83 118 160 209 279 327 392
#     4  10  21  36  55  87 123 164 221 284 336 402
#     4   8  13  24  49  89 130 164 206 261 320 390
#     4   7  12  26  49  77 114 161 203 247 313 375
#
# _framework density 26.403952
#
# number of rings (size 3 to 8) (size 9 to 14) (size 15 to 20)
#    0.000    4.167    0.000    1.500    0.000    4.667 
#    3.000    0.000    0.000   17.000    0.000   61.833 
#    0.000    0.000    0.000    0.000    0.000   10.167 
#
# Total GULP energy -267263.507627 kJ/mol
# GULP energy per Si atom -5567.989742 kJ/mol
# Density = 2.634386 g / cm^3
# Si number density = 26.403952 Si / 1000 Ang^3
#
#
#
# Elastic Constant Matrix: (Units=GPa)
#
#
# Indices 1 2 3 4 5 6 
#
# 1 157.7034 24.1675 48.3673 0.0000 0.0000 0.0000
# 2 24.1675 121.3977 66.3399 0.0000 0.0000 0.0000
# 3 48.3673 66.3399 248.0507 0.0000 0.0000 0.0000
# 4 0.0000 0.0000 0.0000 46.9580 0.0000 0.0000
# 5 0.0000 0.0000 0.0000 0.0000 18.2416 0.0000
# 6 0.0000 0.0000 0.0000 0.0000 0.0000 -10.7565
#
#
#
# Elastic Compliance Matrix: (Units=1/GPa)
#
#
# Indices 1 2 3 4 5 6 
#
# 1 0.006800 -0.000737 -0.001129 0.000000 0.000000 0.000000
# 2 -0.000737 0.009727 -0.002458 0.000000 0.000000 0.000000
# 3 -0.001129 -0.002458 0.004909 0.000000 0.000000 0.000000
# 4 0.000000 0.000000 0.000000 0.021296 0.000000 0.000000
# 5 0.000000 0.000000 0.000000 0.000000 0.054820 0.000000
# 6 0.000000 0.000000 0.000000 0.000000 0.000000 -0.092967
#
#
# Mechanical properties :
#
#
# Convention : Reuss Voigt Hill
#
# Bulk Modulus (GPa) = 78.19139 89.43346 83.81242
# Shear Modulus (GPa) = 285.79518 36.77376 161.28447
#
# Velocity S-wave (km/s) = 10.41511 3.73599 7.82407
# Velocity P-wave (km/s) = 13.20267 7.24948 10.65048
#
# Compressibility (1/GPa) = 0.01278913
#
# Stress axis : x y z
#
# Youngs Moduli (GPa) = 147.05519 102.80462 203.71227
#
# Poissons Ratio (x) = 0.07575 0.22997
# Poissons Ratio (y) = 0.10836 0.50069
# Poissons Ratio (z) = 0.16601 0.25267
#
# Static dielectric constant tensor:
#      x y z
#    x 2.195920 0.000000 0.000000 
#    y 0.000000 2.075950 0.000000 
#    z 0.000000 0.000000 2.151820 
# 
# From -- ./inp_files/42572.got.cif
#   From: 2010.05.17/outbox.cif.g08.bks.cpg/sg72_22_cif.got.tgz:42572.got - 2010.06.03 17:03:01.
