data_PCOD9527482
_publ_section_title
;
Structure prediction by ZEFSAII (Michael W. Deem and Ramdas Pophale) SiO2 
 PCOD9527482
Probable space group: I B A M
;
_chemical_formula_sum "Si O2"
_cell_formula_units_Z 96
_cell_length_a 28.545397
_cell_length_b 10.267493
_cell_length_c 14.919877
_cell_angle_alpha 90.000000
_cell_angle_beta 90.000000
_cell_angle_gamma 90.000000
_cell_volume 4372.861735
_symmetry_space_group_name_H-M "I B A M"
_symmetry_group_IT_number 72
_symmetry_cell_setting 'orthorhombic'
loop_
_space_group_symop_operation_xyz
x,y,z
-x,-y,z
x,-y,1/2-z
-x,y,1/2-z
-x,-y,-z
x,y,-z
-x,y,1/2+z
x,-y,1/2+z
1/2+x,1/2+y,1/2+z
1/2-x,1/2-y,1/2+z
1/2+x,1/2-y,-z
1/2-x,1/2+y,-z
1/2-x,1/2-y,1/2-z
1/2+x,1/2+y,1/2-z
1/2-x,1/2+y,z
1/2+x,1/2-y,z
loop_
_atom_site_type_symbol
_atom_site_label
_atom_site_fract_x
_atom_site_fract_y
_atom_site_fract_z
Si Si1 0.295651 0.725235 0.635006
Si Si2 0.361233 0.505990 0.858456
Si Si3 0.540299 0.101154 0.609836
Si Si4 0.463662 0.396281 0.105142
Si Si5 0.809329 0.259655 0.654524
Si Si6 0.356427 0.019342 0.103721
O O1 0.322311 0.594936 0.606270
O O2 0.241470 0.733888 0.608287
O O3 0.298629 0.720715 0.743117
O O4 0.324669 0.851874 0.607007
O O5 0.363003 0.500000 0.750000
O O6 0.411795 0.456325 0.889065
O O7 0.344618 0.650964 0.883273
O O8 0.540651 0.104139 0.500000
O O9 0.533861 0.249637 0.642682
O O10 0.591755 0.053184 0.637382
O O11 0.500000 0.000000 0.636907
O O12 0.500000 0.500000 0.144465
O O13 0.475524 0.381560 0.000000
O O14 0.832530 0.400882 0.654710
O O15 0.360290 0.977671 0.000000
#
# Coordination Sequence:
#
# PCOD9527482 Si02
#       6
#    16  16  16  16  16  16
#     4  10  20  41  61  80 115 159 198 229 278 345
#     4  10  21  37  59  86 115 150 191 241 287 328
#     4   9  19  36  57  82 113 149 187 228 283 348
#     4  10  21  37  60  84 111 151 191 232 287 350
#     4  10  22  37  61  86 112 156 199 232 276 347
#     4  11  22  36  59  89 119 149 185 243 294 329
#
# _framework density 21.953586000000001
#
# number of rings (size 3 to 8) (size 9 to 14) (size 15 to 20)
#    0.000    2.000    1.667    1.500    2.333    4.333 
#    0.000    1.667    0.000    2.000    0.000    0.000 
#    0.000    0.000    0.000    0.000    0.000    0.000 
#
# Total GULP energy -268255.261577 kJ/mol
# GULP energy per Si atom -5588.651283 kJ/mol
# Density = 2.190362 g / cm^3
# Si number density = 21.953586 Si / 1000 Ang^3
#
#
#
# Elastic Constant Matrix: (Units=GPa)
#
#
# Indices 1 2 3 4 5 6 
#
# 1 165.2754 86.4986 -7.6378 0.0000 0.0000 0.0000
# 2 86.4986 158.5838 -12.2168 0.0000 0.0000 0.0000
# 3 -7.6378 -12.2168 37.3240 0.0000 0.0000 0.0000
# 4 0.0000 0.0000 0.0000 14.9589 0.0000 0.0000
# 5 0.0000 0.0000 0.0000 0.0000 -8.9053 0.0000
# 6 0.0000 0.0000 0.0000 0.0000 0.0000 30.8686
#
#
#
# Elastic Compliance Matrix: (Units=1/GPa)
#
#
# Indices 1 2 3 4 5 6 
#
# 1 0.008470 -0.004602 0.000227 0.000000 0.000000 0.000000
# 2 -0.004602 0.008970 0.001994 0.000000 0.000000 0.000000
# 3 0.000227 0.001994 0.027492 0.000000 0.000000 0.000000
# 4 0.000000 0.000000 0.000000 0.066850 0.000000 0.000000
# 5 0.000000 0.000000 0.000000 0.000000 -0.112293 0.000000
# 6 0.000000 0.000000 0.000000 0.000000 0.000000 0.032395
#
#
# Mechanical properties :
#
#
# Convention : Reuss Voigt Hill
#
# Bulk Modulus (GPa) = 24.89524 54.94124 39.91824
# Shear Modulus (GPa) = 99.92985 27.02037 63.47511
#
# Velocity S-wave (km/s) = 6.75407 3.51208 5.38294
# Velocity P-wave (km/s) = 8.49635 6.44412 7.54038
#
# Compressibility (1/GPa) = 0.04016832
#
# Stress axis : x y z
#
# Youngs Moduli (GPa) = 118.06913 111.48647 36.37479
#
# Poissons Ratio (x) = 0.51309 -0.00825
# Poissons Ratio (y) = 0.54338 -0.07254
# Poissons Ratio (z) = -0.02678 -0.22232
#
# Static dielectric constant tensor:
#      x y z
#    x 1.759760 0.000000 0.000000 
#    y 0.000000 1.763090 0.000000 
#    z 0.000000 0.000000 1.886990 
# 
# From -- ./inp_files/36019.got.cif
#   From: 2010.05.17/outbox.cif.g08.bks.cpg/sg72_19_cif.got.tgz:36019.got - 2010.06.03 17:03:01.
