data_PCOD9527036
_publ_section_title
;
Structure prediction by ZEFSAII (Michael W. Deem and Ramdas Pophale) SiO2 
 PCOD9527036
Probable space group: I B A M
;
_chemical_formula_sum "Si O2"
_cell_formula_units_Z 100
_cell_length_a 12.504819
_cell_length_b 19.372547
_cell_length_c 17.716622
_cell_angle_alpha 90.000000
_cell_angle_beta 90.000000
_cell_angle_gamma 90.000000
_cell_volume 4291.855113
_symmetry_space_group_name_H-M "I B A M"
_symmetry_group_IT_number 72
_symmetry_cell_setting 'orthorhombic'
loop_
_space_group_symop_operation_xyz
x,y,z
-x,-y,z
x,-y,1/2-z
-x,y,1/2-z
-x,-y,-z
x,y,-z
-x,y,1/2+z
x,-y,1/2+z
1/2+x,1/2+y,1/2+z
1/2-x,1/2-y,1/2+z
1/2+x,1/2-y,-z
1/2-x,1/2+y,-z
1/2-x,1/2-y,1/2-z
1/2+x,1/2+y,1/2-z
1/2-x,1/2+y,z
1/2+x,1/2-y,z
loop_
_atom_site_type_symbol
_atom_site_label
_atom_site_fract_x
_atom_site_fract_y
_atom_site_fract_z
Si Si1 0.000000 0.500000 0.000000
Si Si2 0.254317 0.352799 0.842215
Si Si3 0.980942 0.703288 0.835036
Si Si4 0.146783 0.932658 0.295161
Si Si5 0.680215 0.792761 0.912837
Si Si6 0.422556 0.657176 0.084744
Si Si7 0.222450 0.492499 0.080552
O O1 0.903964 0.507030 0.064258
O O2 0.127321 0.340034 0.834059
O O3 0.308032 0.376407 0.763901
O O4 0.301460 0.281092 0.872726
O O5 0.263315 0.415371 0.901172
O O6 0.966381 0.769077 0.889134
O O7 0.000000 0.727064 0.750000
O O8 0.086659 0.667793 0.868537
O O9 0.058774 0.899083 0.350434
O O10 0.112103 0.000000 0.250000
O O11 0.239746 0.962198 0.349687
O O12 0.794394 0.829981 0.913259
O O13 0.649046 0.784567 0.000000
O O14 0.457050 0.640235 0.000000
O O15 0.270762 0.516955 0.000000
#
# Coordination Sequence:
#
# PCOD9527036 Si02
#       7
#     4  16  16  16  16  16  16
#     4   8  20  32  50  80 108 154 194 232 268 328
#     4  10  21  37  58  85 120 153 192 244 289 347
#     4  11  22  36  57  88 118 150 191 242 298 349
#     4  10  20  36  58  81 111 155 196 229 294 343
#     4  10  21  37  59  86 113 152 193 232 296 352
#     4  10  21  38  59  85 117 148 191 240 283 350
#     4   9  19  36  54  79 114 155 194 237 278 339
#
# _framework density 23.299949000000002
#
# number of rings (size 3 to 8) (size 9 to 14) (size 15 to 20)
#    0.480    1.600    0.000    3.360    0.000    7.040 
#    2.880    2.800    0.000   11.040    0.000   15.680 
#    0.000    0.000    0.000    0.000    0.000    0.000 
#
# Total GULP energy -278996.259961 kJ/mol
# GULP energy per Si atom -5579.925199 kJ/mol
# Density = 2.324692 g / cm^3
# Si number density = 23.299949 Si / 1000 Ang^3
#
#
#
# Elastic Constant Matrix: (Units=GPa)
#
#
# Indices 1 2 3 4 5 6 
#
# 1 82.0467 -8.3662 22.5286 0.0000 0.0000 0.0000
# 2 -8.3662 80.8845 31.2075 0.0000 0.0000 0.0000
# 3 22.5286 31.2075 152.6365 0.0000 0.0000 0.0000
# 4 0.0000 0.0000 0.0000 22.2396 0.0000 0.0000
# 5 0.0000 0.0000 0.0000 0.0000 23.4536 0.0000
# 6 0.0000 0.0000 0.0000 0.0000 0.0000 0.5585
#
#
#
# Elastic Compliance Matrix: (Units=1/GPa)
#
#
# Indices 1 2 3 4 5 6 
#
# 1 0.013078 0.002277 -0.002396 0.000000 0.000000 0.000000
# 2 0.002277 0.013819 -0.003161 0.000000 0.000000 0.000000
# 3 -0.002396 -0.003161 0.007552 0.000000 0.000000 0.000000
# 4 0.000000 0.000000 0.000000 0.044965 0.000000 0.000000
# 5 0.000000 0.000000 0.000000 0.000000 0.042637 0.000000
# 6 0.000000 0.000000 0.000000 0.000000 0.000000 1.790597
#
#
# Mechanical properties :
#
#
# Convention : Reuss Voigt Hill
#
# Bulk Modulus (GPa) = 35.85764 45.14528 40.50146
# Shear Modulus (GPa) = 2.59268 27.26351 14.92809
#
# Velocity S-wave (km/s) = 1.05601 3.42440 2.53394
# Velocity P-wave (km/s) = 4.11216 5.92057 5.09720
#
# Compressibility (1/GPa) = 0.02788806
#
# Stress axis : x y z
#
# Youngs Moduli (GPa) = 76.46283 72.36626 132.42391
#
# Poissons Ratio (x) = -0.16479 0.31727
# Poissons Ratio (y) = -0.17412 0.41864
# Poissons Ratio (z) = 0.18320 0.22878
#
# Static dielectric constant tensor:
#      x y z
#    x 1.881790 0.000000 0.000000 
#    y 0.000000 1.931230 0.000000 
#    z 0.000000 0.000000 1.872120 
# 
# From -- ./inp_files/30720.got.cif
#   From: 2010.05.17/outbox.cif.g08.bks.cpg/sg72_16_cif.got.tgz:30720.got - 2010.06.03 17:03:01.
