data_PCOD9527807
_publ_section_title
;
Structure prediction by ZEFSAII (Michael W. Deem and Ramdas Pophale) SiO2 
 PCOD9527807
Probable space group: I B A M
;
_chemical_formula_sum "Si O2"
_cell_formula_units_Z 96
_cell_length_a 11.596137
_cell_length_b 21.819230
_cell_length_c 16.866332
_cell_angle_alpha 90.000000
_cell_angle_beta 90.000000
_cell_angle_gamma 90.000000
_cell_volume 4267.498751
_symmetry_space_group_name_H-M "I B A M"
_symmetry_group_IT_number 72
_symmetry_cell_setting 'orthorhombic'
loop_
_space_group_symop_operation_xyz
x,y,z
-x,-y,z
x,-y,1/2-z
-x,y,1/2-z
-x,-y,-z
x,y,-z
-x,y,1/2+z
x,-y,1/2+z
1/2+x,1/2+y,1/2+z
1/2-x,1/2-y,1/2+z
1/2+x,1/2-y,-z
1/2-x,1/2+y,-z
1/2-x,1/2-y,1/2-z
1/2+x,1/2+y,1/2-z
1/2-x,1/2+y,z
1/2+x,1/2-y,z
loop_
_atom_site_type_symbol
_atom_site_label
_atom_site_fract_x
_atom_site_fract_y
_atom_site_fract_z
Si Si1 0.379208 0.198850 0.588453
Si Si2 0.816359 0.496791 0.156145
Si Si3 0.698443 0.313063 0.716024
Si Si4 0.998925 0.178970 0.909915
Si Si5 0.401161 0.575935 0.816325
Si Si6 0.498124 0.098373 0.653643
O O1 0.343265 0.184873 0.500000
O O2 0.292884 0.170890 0.651103
O O3 0.398753 0.271211 0.595348
O O4 0.495825 0.163504 0.610729
O O5 0.838820 0.500000 0.250000
O O6 0.680544 0.479794 0.154432
O O7 0.887955 0.556037 0.127250
O O8 0.889252 0.438796 0.127412
O O9 0.750000 0.250000 0.750000
O O10 0.584347 0.303703 0.663121
O O11 0.676469 0.370194 0.774446
O O12 0.040507 0.110712 0.889930
O O13 0.952617 0.183933 0.000000
O O14 0.500000 0.563246 0.750000
O O15 0.500000 0.106202 0.750000
#
# Coordination Sequence:
#
# PCOD9527807 Si02
#       6
#    16  16  16  16  16  16
#     4  11  23  37  57  86 123 162 195 242 311 371
#     4   9  18  36  57  89 117 150 202 265 310 345
#     4  11  21  35  59  85 115 157 205 248 292 366
#     4  10  23  39  54  86 130 161 195 247 309 370
#     4  10  21  37  60  89 118 161 208 253 300 372
#     4   9  19  34  61  85 116 154 202 260 307 363
#
# _framework density 22.495614
#
# number of rings (size 3 to 8) (size 9 to 14) (size 15 to 20)
#    0.000    2.000    1.667    3.500    4.667    0.333 
#    0.000    3.333    0.000    0.000    0.000    7.000 
#    0.000    0.000    0.000    0.000    0.000    0.000 
#
# Total GULP energy -267479.617207 kJ/mol
# GULP energy per Si atom -5572.492025 kJ/mol
# Density = 2.244441 g / cm^3
# Si number density = 22.495614 Si / 1000 Ang^3
#
#
#
# Elastic Constant Matrix: (Units=GPa)
#
#
# Indices 1 2 3 4 5 6 
#
# 1 76.2776 25.2996 11.2597 0.0000 0.0000 0.0000
# 2 25.2996 64.7404 13.4933 0.0000 0.0000 0.0000
# 3 11.2597 13.4933 55.2226 0.0000 0.0000 0.0000
# 4 0.0000 0.0000 0.0000 1.8526 0.0000 0.0000
# 5 0.0000 0.0000 0.0000 0.0000 58.0690 0.0000
# 6 0.0000 0.0000 0.0000 0.0000 0.0000 23.1606
#
#
#
# Elastic Compliance Matrix: (Units=1/GPa)
#
#
# Indices 1 2 3 4 5 6 
#
# 1 0.015219 -0.005585 -0.001738 0.000000 0.000000 0.000000
# 2 -0.005585 0.018325 -0.003339 0.000000 0.000000 0.000000
# 3 -0.001738 -0.003339 0.019279 0.000000 0.000000 0.000000
# 4 0.000000 0.000000 0.000000 0.539778 0.000000 0.000000
# 5 0.000000 0.000000 0.000000 0.000000 0.017221 0.000000
# 6 0.000000 0.000000 0.000000 0.000000 0.000000 0.043177
#
#
# Mechanical properties :
#
#
# Convention : Reuss Voigt Hill
#
# Bulk Modulus (GPa) = 31.74795 32.92730 32.33763
# Shear Modulus (GPa) = 7.30117 26.36233 16.83175
#
# Velocity S-wave (km/s) = 1.80351 3.42700 2.73834
# Velocity P-wave (km/s) = 4.29889 5.50709 4.94007
#
# Compressibility (1/GPa) = 0.03149809
#
# Stress axis : x y z
#
# Youngs Moduli (GPa) = 65.70711 54.57112 51.87050
#
# Poissons Ratio (x) = 0.30478 0.09017
# Poissons Ratio (y) = 0.36698 0.17318
# Poissons Ratio (z) = 0.11423 0.18220
#
# Static dielectric constant tensor:
#      x y z
#    x 2.028360 0.000000 0.000000 
#    y 0.000000 1.876210 0.000000 
#    z 0.000000 0.000000 1.759280 
# 
# From -- ./inp_files/29421.got.cif
#   From: 2010.05.17/outbox.cif.g08.bks.cpg/sg72_15_cif.got.tgz:29421.got - 2010.06.03 17:03:01.
