data_PCOD9527765
_publ_section_title
;
Structure prediction by ZEFSAII (Michael W. Deem and Ramdas Pophale) SiO2 
 PCOD9527765
Probable space group: I B A M
;
_chemical_formula_sum "Si O2"
_cell_formula_units_Z 68
_cell_length_a 36.580976
_cell_length_b 5.596999
_cell_length_c 14.684655
_cell_angle_alpha 90.000000
_cell_angle_beta 90.000000
_cell_angle_gamma 90.000000
_cell_volume 3006.590394
_symmetry_space_group_name_H-M "I B A M"
_symmetry_group_IT_number 72
_symmetry_cell_setting 'orthorhombic'
loop_
_space_group_symop_operation_xyz
x,y,z
-x,-y,z
x,-y,1/2-z
-x,y,1/2-z
-x,-y,-z
x,y,-z
-x,y,1/2+z
x,-y,1/2+z
1/2+x,1/2+y,1/2+z
1/2-x,1/2-y,1/2+z
1/2+x,1/2-y,-z
1/2-x,1/2+y,-z
1/2-x,1/2-y,1/2-z
1/2+x,1/2+y,1/2-z
1/2-x,1/2+y,z
1/2+x,1/2-y,z
loop_
_atom_site_type_symbol
_atom_site_label
_atom_site_fract_x
_atom_site_fract_y
_atom_site_fract_z
Si Si1 0.962825 0.888987 0.149146
Si Si2 0.380985 0.410229 0.396263
Si Si3 0.268011 0.987779 0.359946
Si Si4 0.500000 0.000000 0.750000
Si Si5 0.853166 0.411177 0.106770
O O1 0.924794 0.924032 0.101006
O O2 0.972861 0.623406 0.178023
O O3 0.959042 0.000000 0.250000
O O4 0.000000 0.000000 0.108209
O O5 0.366150 0.402127 0.500000
O O6 0.365543 0.654908 0.353895
O O7 0.370210 0.155183 0.353536
O O8 0.245666 0.750875 0.390858
O O9 0.309800 0.941474 0.386499
O O10 0.265772 0.000000 0.250000
O O11 0.864667 0.402902 0.000000
#
# Coordination Sequence:
#
# PCOD9527765 Si02
#       5
#    16  16  16   4  16
#     4   9  20  35  56  81 109 147 187 233 277 327
#     4  10  22  38  56  81 115 147 185 232 276 328
#     4  10  21  37  58  83 112 142 181 228 272 325
#     4   8  18  36  54  78 112 136 190 238 266 336
#     4  10  22  38  56  82 113 146 184 226 275 331
#
# _framework density 22.616980999999999
#
# number of rings (size 3 to 8) (size 9 to 14) (size 15 to 20)
#    0.000    2.588    0.000    1.412    6.588    3.294 
#    0.000    0.588    0.000    0.000    0.000    0.000 
#    0.000    0.000    0.000    0.000    0.000    0.000 
#
# Total GULP energy -189479.420126 kJ/mol
# GULP energy per Si atom -5572.924121 kJ/mol
# Density = 2.256550 g / cm^3
# Si number density = 22.616981 Si / 1000 Ang^3
#
#
#
# Elastic Constant Matrix: (Units=GPa)
#
#
# Indices 1 2 3 4 5 6 
#
# 1 133.4195 71.5329 -17.5991 0.0000 0.0000 0.0000
# 2 71.5329 195.9627 10.8176 0.0000 0.0000 0.0000
# 3 -17.5991 10.8176 53.8669 0.0000 0.0000 0.0000
# 4 0.0000 0.0000 0.0000 -2.0978 0.0000 0.0000
# 5 0.0000 0.0000 0.0000 0.0000 28.4205 0.0000
# 6 0.0000 0.0000 0.0000 0.0000 0.0000 69.1197
#
#
#
# Elastic Compliance Matrix: (Units=1/GPa)
#
#
# Indices 1 2 3 4 5 6 
#
# 1 0.010143 -0.003929 0.004103 0.000000 0.000000 0.000000
# 2 -0.003929 0.006682 -0.002626 0.000000 0.000000 0.000000
# 3 0.004103 -0.002626 0.020432 0.000000 0.000000 0.000000
# 4 0.000000 0.000000 0.000000 -0.476695 0.000000 0.000000
# 5 0.000000 0.000000 0.000000 0.000000 0.035186 0.000000
# 6 0.000000 0.000000 0.000000 0.000000 0.000000 0.014468
#
#
# Mechanical properties :
#
#
# Convention : Reuss Voigt Hill
#
# Bulk Modulus (GPa) = 30.90845 56.97243 43.94044
# Shear Modulus (GPa) = -13.36553 40.32165 13.47806
#
# Velocity S-wave (km/s) = -2.43359 4.22691 2.44381
# Velocity P-wave (km/s) = 2.40816 7.00479 5.23767
#
# Compressibility (1/GPa) = 0.03235362
#
# Stress axis : x y z
#
# Youngs Moduli (GPa) = 98.59138 149.65233 48.94287
#
# Poissons Ratio (x) = 0.58798 -0.20080
# Poissons Ratio (y) = 0.38736 0.12850
# Poissons Ratio (z) = -0.40450 0.39292
#
# Static dielectric constant tensor:
#      x y z
#    x 1.736160 0.000000 0.000000 
#    y 0.000000 1.842400 0.000000 
#    z 0.000000 0.000000 1.953450 
# 
# From -- ./inp_files/34830.got.cif
#   From: 2010.05.17/outbox.cif.g08.bks.cpg/sg72_18_cif.got.tgz:34830.got - 2010.06.03 17:03:01.
