data_PCOD9527726
_publ_section_title
;
Structure prediction by ZEFSAII (Michael W. Deem and Ramdas Pophale) SiO2 
 PCOD9527726
Probable space group: I B A M
;
_chemical_formula_sum "Si O2"
_cell_formula_units_Z 116
_cell_length_a 27.209963
_cell_length_b 26.834995
_cell_length_c 8.968632
_cell_angle_alpha 90.000000
_cell_angle_beta 90.000000
_cell_angle_gamma 90.000000
_cell_volume 6548.708728
_symmetry_space_group_name_H-M "I B A M"
_symmetry_group_IT_number 72
_symmetry_cell_setting 'orthorhombic'
loop_
_space_group_symop_operation_xyz
x,y,z
-x,-y,z
x,-y,1/2-z
-x,y,1/2-z
-x,-y,-z
x,y,-z
-x,y,1/2+z
x,-y,1/2+z
1/2+x,1/2+y,1/2+z
1/2-x,1/2-y,1/2+z
1/2+x,1/2-y,-z
1/2-x,1/2+y,-z
1/2-x,1/2-y,1/2-z
1/2+x,1/2+y,1/2-z
1/2-x,1/2+y,z
1/2+x,1/2-y,z
loop_
_atom_site_type_symbol
_atom_site_label
_atom_site_fract_x
_atom_site_fract_y
_atom_site_fract_z
Si Si1 0.209122 0.312850 0.330219
Si Si2 0.000000 0.500000 0.750000
Si Si3 0.214001 0.949404 0.822538
Si Si4 0.051957 0.318654 0.677929
Si Si5 0.681198 0.927081 0.827500
Si Si6 0.581775 0.922513 0.330487
Si Si7 0.132226 0.248857 0.175862
Si Si8 0.318780 0.350599 0.322580
O O1 0.204818 0.293262 0.500000
O O2 0.182543 0.366684 0.326964
O O3 0.183017 0.277050 0.214430
O O4 0.265707 0.324635 0.297886
O O5 0.037744 0.462561 0.831257
O O6 0.269421 0.942886 0.757548
O O7 0.183258 0.901454 0.768847
O O8 0.194195 0.000000 0.750000
O O9 0.215759 0.952497 0.000000
O O10 0.049286 0.321173 0.500000
O O11 0.065430 0.373267 0.741518
O O12 0.091829 0.278321 0.730330
O O13 0.000000 0.304921 0.750000
O O14 0.630970 0.942511 0.748428
O O15 0.683187 0.943632 0.000000
O O16 0.593619 0.908348 0.500000
O O17 0.140507 0.190786 0.213676
O O18 0.121944 0.252939 0.000000
O O19 0.320951 0.361821 0.500000
#
# Coordination Sequence:
#
# PCOD9527726 Si02
#       8
#    16   4  16  16  16  16  16  16
#     4   9  17  31  51  77 110 144 177 220 270 324
#     4  12  30  44  60  78 110 132 182 252 300 348
#     4  11  22  37  57  80 110 149 189 228 273 325
#     4  12  25  42  62  82 108 142 184 234 287 344
#     4  10  21  37  56  78 106 139 181 231 280 333
#     4  12  25  42  61  79 102 136 182 234 296 349
#     4  11  21  34  56  83 112 146 181 224 279 338
#     4   9  20  36  53  79 115 148 184 226 270 328
#
# _framework density 17.713415999999999
#
# number of rings (size 3 to 8) (size 9 to 14) (size 15 to 20)
#    0.000    1.379    2.069    5.172    0.966    4.966 
#    0.000    0.000    0.000    0.000    0.000    0.000 
#    0.000    0.552    0.000    5.793    0.000    2.483 
#
# Total GULP energy -324063.050757 kJ/mol
# GULP energy per Si atom -5587.293979 kJ/mol
# Density = 1.767310 g / cm^3
# Si number density = 17.713416 Si / 1000 Ang^3
#
#
#
# Elastic Constant Matrix: (Units=GPa)
#
#
# Indices 1 2 3 4 5 6 
#
# 1 45.2873 42.0288 35.7781 0.0000 0.0000 0.0000
# 2 42.0288 112.7510 68.7097 0.0000 0.0000 0.0000
# 3 35.7781 68.7097 139.2746 0.0000 0.0000 0.0000
# 4 0.0000 0.0000 0.0000 21.2045 0.0000 0.0000
# 5 0.0000 0.0000 0.0000 0.0000 9.1709 0.0000
# 6 0.0000 0.0000 0.0000 0.0000 0.0000 18.1939
#
#
#
# Elastic Compliance Matrix: (Units=1/GPa)
#
#
# Indices 1 2 3 4 5 6 
#
# 1 0.035014 -0.010825 -0.003654 0.000000 0.000000 0.000000
# 2 -0.010825 0.016028 -0.005127 0.000000 0.000000 0.000000
# 3 -0.003654 -0.005127 0.010648 0.000000 0.000000 0.000000
# 4 0.000000 0.000000 0.000000 0.047160 0.000000 0.000000
# 5 0.000000 0.000000 0.000000 0.000000 0.109041 0.000000
# 6 0.000000 0.000000 0.000000 0.000000 0.000000 0.054963
#
#
# Mechanical properties :
#
#
# Convention : Reuss Voigt Hill
#
# Bulk Modulus (GPa) = 44.48636 65.59401 55.04018
# Shear Modulus (GPa) = 15.64655 19.76696 17.70675
#
# Velocity S-wave (km/s) = 2.97529 3.34418 3.16511
# Velocity P-wave (km/s) = 6.08047 7.21266 6.67063
#
# Compressibility (1/GPa) = 0.02247880
#
# Stress axis : x y z
#
# Youngs Moduli (GPa) = 28.55966 62.38975 93.91435
#
# Poissons Ratio (x) = 0.67536 0.34321
# Poissons Ratio (y) = 0.30916 0.48146
# Poissons Ratio (z) = 0.10437 0.31985
#
# Static dielectric constant tensor:
#      x y z
#    x 1.614060 0.000000 0.000000 
#    y 0.000000 1.637600 0.000000 
#    z 0.000000 0.000000 1.588400 
# 
# From -- ./inp_files/8718.got.cif
#   From: 2010.05.17/outbox.cif.g08.bks.cpg/sg72_5_cif.got.tgz:8718.got - 2010.06.03 17:03:01.
