data_PCOD9527168
_publ_section_title
;
Structure prediction by ZEFSAII (Michael W. Deem and Ramdas Pophale) SiO2 
 PCOD9527168
Probable space group: I B A M
;
_chemical_formula_sum "Si O2"
_cell_formula_units_Z 96
_cell_length_a 23.608651
_cell_length_b 24.672661
_cell_length_c 8.548949
_cell_angle_alpha 90.000000
_cell_angle_beta 90.000000
_cell_angle_gamma 90.000000
_cell_volume 4979.662281
_symmetry_space_group_name_H-M "I B A M"
_symmetry_group_IT_number 72
_symmetry_cell_setting 'orthorhombic'
loop_
_space_group_symop_operation_xyz
x,y,z
-x,-y,z
x,-y,1/2-z
-x,y,1/2-z
-x,-y,-z
x,y,-z
-x,y,1/2+z
x,-y,1/2+z
1/2+x,1/2+y,1/2+z
1/2-x,1/2-y,1/2+z
1/2+x,1/2-y,-z
1/2-x,1/2+y,-z
1/2-x,1/2-y,1/2-z
1/2+x,1/2+y,1/2-z
1/2-x,1/2+y,z
1/2+x,1/2-y,z
loop_
_atom_site_type_symbol
_atom_site_label
_atom_site_fract_x
_atom_site_fract_y
_atom_site_fract_z
Si Si1 0.626178 0.774374 0.312018
Si Si2 0.665822 0.942418 0.313024
Si Si3 0.634478 0.339714 0.312264
Si Si4 0.937704 0.379460 0.813844
Si Si5 0.263900 0.163970 0.310798
Si Si6 0.936077 0.058863 0.313190
O O1 0.626258 0.771132 0.500000
O O2 0.607854 0.717363 0.240149
O O3 0.586361 0.823702 0.259563
O O4 0.690021 0.791509 0.257052
O O5 0.660287 0.943452 0.500000
O O6 0.605942 0.925890 0.238520
O O7 0.708697 0.894051 0.271690
O O8 0.685194 0.000000 0.250000
O O9 0.634115 0.343863 0.500000
O O10 0.699656 0.335138 0.254306
O O11 0.603029 0.391858 0.243637
O O12 0.000000 0.390091 0.750000
O O13 0.938158 0.374787 0.000000
O O14 0.262130 0.168392 0.500000
O O15 0.937539 0.057145 0.500000
O O16 0.000000 0.067091 0.250000
O O17 0.916721 0.000000 0.250000
#
# Coordination Sequence:
#
# PCOD9527168 Si02
#       6
#    16  16  16  16  16  16
#     4  10  20  37  57  83 116 151 187 231 279 329
#     4  10  20  37  57  82 113 149 189 234 280 330
#     4  11  21  36  59  89 117 149 188 227 271 331
#     4  11  22  38  58  82 110 147 188 234 285 336
#     4   8  18  35  56  81 116 152 186 228 278 328
#     4  11  23  42  63  85 112 146 183 229 281 333
#
# _framework density 19.278416
#
# number of rings (size 3 to 8) (size 9 to 14) (size 15 to 20)
#    0.000    1.833    0.000    6.500    0.000    1.667 
#    0.000   15.833    0.000    0.000    0.000    0.000 
#    0.000    0.000    0.000    0.000    0.000    0.000 
#
# Total GULP energy -268145.483605 kJ/mol
# GULP energy per Si atom -5586.364242 kJ/mol
# Density = 1.923454 g / cm^3
# Si number density = 19.278416 Si / 1000 Ang^3
#
#
#
# Elastic Constant Matrix: (Units=GPa)
#
#
# Indices 1 2 3 4 5 6 
#
# 1 22.7410 7.6729 8.6525 0.0000 0.0000 0.0000
# 2 7.6729 123.3651 31.0888 0.0000 0.0000 0.0000
# 3 8.6525 31.0888 101.6221 0.0000 0.0000 0.0000
# 4 0.0000 0.0000 0.0000 34.8966 0.0000 0.0000
# 5 0.0000 0.0000 0.0000 0.0000 22.5294 0.0000
# 6 0.0000 0.0000 0.0000 0.0000 0.0000 13.2598
#
#
#
# Elastic Compliance Matrix: (Units=1/GPa)
#
#
# Indices 1 2 3 4 5 6 
#
# 1 0.045909 -0.002027 -0.003289 0.000000 0.000000 0.000000
# 2 -0.002027 0.008873 -0.002542 0.000000 0.000000 0.000000
# 3 -0.003289 -0.002542 0.010898 0.000000 0.000000 0.000000
# 4 0.000000 0.000000 0.000000 0.028656 0.000000 0.000000
# 5 0.000000 0.000000 0.000000 0.000000 0.044387 0.000000
# 6 0.000000 0.000000 0.000000 0.000000 0.000000 0.075416
#
#
# Mechanical properties :
#
#
# Convention : Reuss Voigt Hill
#
# Bulk Modulus (GPa) = 20.01411 38.06185 29.03798
# Shear Modulus (GPa) = 20.28339 27.49141 23.88740
#
# Velocity S-wave (km/s) = 3.24717 3.78036 3.52387
# Velocity P-wave (km/s) = 4.94601 6.23225 5.62601
#
# Compressibility (1/GPa) = 0.04996476
#
# Stress axis : x y z
#
# Youngs Moduli (GPa) = 21.78242 112.70623 91.75988
#
# Poissons Ratio (x) = 0.22841 0.30178
# Poissons Ratio (y) = 0.04414 0.23324
# Poissons Ratio (z) = 0.07164 0.28648
#
# Static dielectric constant tensor:
#      x y z
#    x 1.673410 0.000000 0.000000 
#    y 0.000000 1.647400 0.000000 
#    z 0.000000 0.000000 1.645510 
# 
# From -- ./inp_files/7096.got.cif
#   From: 2010.05.17/outbox.cif.g08.bks.cpg/sg72_4_cif.got.tgz:7096.got - 2010.06.03 17:03:01.
