data_PCOD9527344
_publ_section_title
;
Structure prediction by ZEFSAII (Michael W. Deem and Ramdas Pophale) SiO2 
 PCOD9527344
Probable space group: I B A M
;
_chemical_formula_sum "Si O2"
_cell_formula_units_Z 80
_cell_length_a 8.501565
_cell_length_b 15.464784
_cell_length_c 29.443627
_cell_angle_alpha 90.000000
_cell_angle_beta 90.000000
_cell_angle_gamma 90.000000
_cell_volume 3871.096926
_symmetry_space_group_name_H-M "I B A M"
_symmetry_group_IT_number 72
_symmetry_cell_setting 'orthorhombic'
loop_
_space_group_symop_operation_xyz
x,y,z
-x,-y,z
x,-y,1/2-z
-x,y,1/2-z
-x,-y,-z
x,y,-z
-x,y,1/2+z
x,-y,1/2+z
1/2+x,1/2+y,1/2+z
1/2-x,1/2-y,1/2+z
1/2+x,1/2-y,-z
1/2-x,1/2+y,-z
1/2-x,1/2-y,1/2-z
1/2+x,1/2+y,1/2-z
1/2-x,1/2+y,z
1/2+x,1/2-y,z
loop_
_atom_site_type_symbol
_atom_site_label
_atom_site_fract_x
_atom_site_fract_y
_atom_site_fract_z
Si Si1 0.362589 0.780611 0.823150
Si Si2 0.076762 0.403779 0.051319
Si Si3 0.414745 0.625451 0.706849
Si Si4 0.857917 0.656183 0.623236
Si Si5 0.833362 0.978610 0.615569
O O1 0.461476 0.700110 0.805583
O O2 0.252956 0.827349 0.786466
O O3 0.248976 0.737339 0.861657
O O4 0.493754 0.845349 0.842523
O O5 0.226811 0.417940 0.083827
O O6 0.000000 0.500000 0.049935
O O7 0.946267 0.342367 0.074736
O O8 0.115486 0.377919 0.000000
O O9 0.500000 0.585370 0.750000
O O10 0.377652 0.566844 0.663145
O O11 0.758269 0.568139 0.624958
O O12 0.000000 0.000000 0.592555
#
# Coordination Sequence:
#
# PCOD9527344 Si02
#       5
#    16  16  16  16  16
#     4  10  21  38  62  87 122 170 206 255 317 379
#     4   9  19  37  63  89 118 159 210 259 313 377
#     4  11  22  38  62  89 123 165 211 258 310 372
#     4  10  20  38  63  86 124 163 211 255 321 370
#     4  11  21  38  62  92 126 166 206 266 312 369
#
# _framework density 20.665976000000001
#
# number of rings (size 3 to 8) (size 9 to 14) (size 15 to 20)
#    0.000    1.800    4.000    0.600    0.000    0.800 
#    0.000    1.000    0.000    2.400    0.000    0.000 
#    0.000    0.000    0.000    0.000    0.000    0.000 
#
# Total GULP energy -223013.329672 kJ/mol
# GULP energy per Si atom -5575.333242 kJ/mol
# Density = 2.061894 g / cm^3
# Si number density = 20.665976 Si / 1000 Ang^3
#
#
#
# Elastic Constant Matrix: (Units=GPa)
#
#
# Indices 1 2 3 4 5 6 
#
# 1 152.5918 44.0218 50.1562 0.0000 0.0000 0.0000
# 2 44.0218 57.9049 23.1446 0.0000 0.0000 0.0000
# 3 50.1562 23.1446 98.8435 0.0000 0.0000 0.0000
# 4 0.0000 0.0000 0.0000 18.6829 0.0000 0.0000
# 5 0.0000 0.0000 0.0000 0.0000 22.6897 0.0000
# 6 0.0000 0.0000 0.0000 0.0000 0.0000 41.3085
#
#
#
# Elastic Compliance Matrix: (Units=1/GPa)
#
#
# Indices 1 2 3 4 5 6 
#
# 1 0.009320 -0.005732 -0.003387 0.000000 0.000000 0.000000
# 2 -0.005732 0.022578 -0.002378 0.000000 0.000000 0.000000
# 3 -0.003387 -0.002378 0.012393 0.000000 0.000000 0.000000
# 4 0.000000 0.000000 0.000000 0.053525 0.000000 0.000000
# 5 0.000000 0.000000 0.000000 0.000000 0.044073 0.000000
# 6 0.000000 0.000000 0.000000 0.000000 0.000000 0.024208
#
#
# Mechanical properties :
#
#
# Convention : Reuss Voigt Hill
#
# Bulk Modulus (GPa) = 46.95663 60.44282 53.69972
# Shear Modulus (GPa) = 25.48542 29.33737 27.41139
#
# Velocity S-wave (km/s) = 3.51551 3.77184 3.64593
# Velocity P-wave (km/s) = 6.26494 6.94838 6.61549
#
# Compressibility (1/GPa) = 0.02129625
#
# Stress axis : x y z
#
# Youngs Moduli (GPa) = 107.29101 44.29112 80.69271
#
# Poissons Ratio (x) = 0.25387 0.27333
# Poissons Ratio (y) = 0.61498 0.19190
# Poissons Ratio (z) = 0.36343 0.10533
#
# Static dielectric constant tensor:
#      x y z
#    x 1.770280 0.000000 0.000000 
#    y 0.000000 1.792350 0.000000 
#    z 0.000000 0.000000 1.812500 
# 
# From -- ./inp_files/47184.got.cif
#   From: 2010.05.17/outbox.cif.g08.bks.cpg/sg72_24_cif.got.tgz:47184.got - 2010.06.03 17:03:01.
