data_PCOD9527722
_publ_section_title
;
Structure prediction by ZEFSAII (Michael W. Deem and Ramdas Pophale) SiO2 
 PCOD9527722
Probable space group: I B A M
;
_chemical_formula_sum "Si O2"
_cell_formula_units_Z 112
_cell_length_a 11.205220
_cell_length_b 18.724763
_cell_length_c 28.954613
_cell_angle_alpha 90.000000
_cell_angle_beta 90.000000
_cell_angle_gamma 90.000000
_cell_volume 6075.114700
_symmetry_space_group_name_H-M "I B A M"
_symmetry_group_IT_number 72
_symmetry_cell_setting 'orthorhombic'
loop_
_space_group_symop_operation_xyz
x,y,z
-x,-y,z
x,-y,1/2-z
-x,y,1/2-z
-x,-y,-z
x,y,-z
-x,y,1/2+z
x,-y,1/2+z
1/2+x,1/2+y,1/2+z
1/2-x,1/2-y,1/2+z
1/2+x,1/2-y,-z
1/2-x,1/2+y,-z
1/2-x,1/2-y,1/2-z
1/2+x,1/2+y,1/2-z
1/2-x,1/2+y,z
1/2+x,1/2-y,z
loop_
_atom_site_type_symbol
_atom_site_label
_atom_site_fract_x
_atom_site_fract_y
_atom_site_fract_z
Si Si1 0.913954 0.310383 0.554398
Si Si2 0.074528 0.066647 0.628182
Si Si3 0.131092 0.403634 0.445316
Si Si4 0.368831 0.288585 0.694512
Si Si5 0.367001 0.657925 0.098132
Si Si6 0.639525 0.688463 0.800761
Si Si7 0.733265 0.952216 0.446667
O O1 0.929306 0.291138 0.500000
O O2 0.884796 0.239251 0.582061
O O3 0.813262 0.371373 0.556361
O O4 0.030012 0.351397 0.574093
O O5 0.126814 0.118077 0.667813
O O6 0.172149 0.036686 0.593315
O O7 0.989155 0.114435 0.595366
O O8 0.000000 0.000000 0.647625
O O9 0.116831 0.395847 0.500000
O O10 0.259544 0.375808 0.429828
O O11 0.131715 0.488508 0.437302
O O12 0.341606 0.342173 0.652877
O O13 0.358319 0.322213 0.745457
O O14 0.511734 0.270042 0.689903
O O15 0.264701 0.229030 0.689627
O O16 0.773570 0.964144 0.500000
#
# Coordination Sequence:
#
# PCOD9527722 Si02
#       7
#    16  16  16  16  16  16  16
#     4  10  22  36  56  83 113 152 199 243 289 345
#     4  11  22  38  56  83 117 153 194 233 294 354
#     4  10  21  37  55  78 115 155 193 238 290 349
#     4   9  19  35  58  86 115 149 191 239 302 341
#     4  11  22  35  55  84 114 146 188 245 288 346
#     4   9  19  37  59  85 116 150 191 243 294 361
#     4  10  21  38  58  80 112 156 198 239 290 347
#
# _framework density 18.435866999999998
#
# number of rings (size 3 to 8) (size 9 to 14) (size 15 to 20)
#    0.000    2.000    1.429    1.714    6.000    3.143 
#    0.000    5.714    0.000    0.000    0.000    0.000 
#    0.000   25.143    0.000    0.000    0.000    0.000 
#
# Total GULP energy -311823.444987 kJ/mol
# GULP energy per Si atom -5568.275803 kJ/mol
# Density = 1.839391 g / cm^3
# Si number density = 18.435867 Si / 1000 Ang^3
#
#
#
# Elastic Constant Matrix: (Units=GPa)
#
#
# Indices 1 2 3 4 5 6 
#
# 1 69.3096 30.2309 26.6374 0.0000 0.0000 0.0000
# 2 30.2309 84.1609 30.8754 0.0000 0.0000 0.0000
# 3 26.6374 30.8754 22.6702 0.0000 0.0000 0.0000
# 4 0.0000 0.0000 0.0000 23.2121 0.0000 0.0000
# 5 0.0000 0.0000 0.0000 0.0000 20.4112 0.0000
# 6 0.0000 0.0000 0.0000 0.0000 0.0000 16.7832
#
#
#
# Elastic Compliance Matrix: (Units=1/GPa)
#
#
# Indices 1 2 3 4 5 6 
#
# 1 0.026924 0.003867 -0.036901 0.000000 0.000000 0.000000
# 2 0.003867 0.024302 -0.037642 0.000000 0.000000 0.000000
# 3 -0.036901 -0.037642 0.138735 0.000000 0.000000 0.000000
# 4 0.000000 0.000000 0.000000 0.043081 0.000000 0.000000
# 5 0.000000 0.000000 0.000000 0.000000 0.048993 0.000000
# 6 0.000000 0.000000 0.000000 0.000000 0.000000 0.059583
#
#
# Mechanical properties :
#
#
# Convention : Reuss Voigt Hill
#
# Bulk Modulus (GPa) = 20.57248 39.06982 29.82115
# Shear Modulus (GPa) = 10.01657 17.97442 13.99549
#
# Velocity S-wave (km/s) = 2.33345 3.12584 2.75825
# Velocity P-wave (km/s) = 4.29455 5.85373 5.13368
#
# Compressibility (1/GPa) = 0.04860862
#
# Stress axis : x y z
#
# Youngs Moduli (GPa) = 37.14219 41.14822 7.20799
#
# Poissons Ratio (x) = -0.15910 0.26598
# Poissons Ratio (y) = -0.14361 0.27132
# Poissons Ratio (z) = 1.37059 1.54888
#
# Static dielectric constant tensor:
#      x y z
#    x 1.680350 0.000000 0.000000 
#    y 0.000000 1.648310 0.000000 
#    z 0.000000 0.000000 1.629570 
# 
# From -- ./inp_files/51459.got.cif
#   From: 2010.05.17/outbox.cif.g08.bks.cpg/sg72_26_cif.got.tgz:51459.got - 2010.06.03 17:03:01.
