data_PCOD9527102
_publ_section_title
;
Structure prediction by ZEFSAII (Michael W. Deem and Ramdas Pophale) SiO2 
 PCOD9527102
Probable space group: I B A M
;
_chemical_formula_sum "Si O2"
_cell_formula_units_Z 88
_cell_length_a 14.530383
_cell_length_b 13.557162
_cell_length_c 19.867381
_cell_angle_alpha 90.000000
_cell_angle_beta 90.000000
_cell_angle_gamma 90.000000
_cell_volume 3913.690408
_symmetry_space_group_name_H-M "I B A M"
_symmetry_group_IT_number 72
_symmetry_cell_setting 'orthorhombic'
loop_
_space_group_symop_operation_xyz
x,y,z
-x,-y,z
x,-y,1/2-z
-x,y,1/2-z
-x,-y,-z
x,y,-z
-x,y,1/2+z
x,-y,1/2+z
1/2+x,1/2+y,1/2+z
1/2-x,1/2-y,1/2+z
1/2+x,1/2-y,-z
1/2-x,1/2+y,-z
1/2-x,1/2-y,1/2-z
1/2+x,1/2+y,1/2-z
1/2-x,1/2+y,z
1/2+x,1/2-y,z
loop_
_atom_site_type_symbol
_atom_site_label
_atom_site_fract_x
_atom_site_fract_y
_atom_site_fract_z
Si Si1 0.258587 0.971613 0.421161
Si Si2 0.546167 0.107703 0.382237
Si Si3 0.000000 0.267161 0.250000
Si Si4 0.454041 0.688383 0.425908
Si Si5 0.120791 0.146285 0.157711
Si Si6 0.757333 0.696733 0.921380
O O1 0.228364 0.956080 0.500000
O O2 0.348629 0.908275 0.404618
O O3 0.183492 0.946792 0.363377
O O4 0.289268 0.084513 0.416315
O O5 0.531844 0.159429 0.309592
O O6 0.510425 0.198036 0.427898
O O7 0.500000 0.000000 0.386141
O O8 0.915798 0.195275 0.273039
O O9 0.451702 0.645177 0.500000
O O10 0.524340 0.631026 0.380063
O O11 0.349805 0.692798 0.400705
O O12 0.181007 0.232057 0.122537
O O13 0.760299 0.726979 0.000000
#
# Coordination Sequence:
#
# PCOD9527102 Si02
#       6
#    16  16   8  16  16  16
#     4  11  22  37  65  98 128 168 215 275 341 396
#     4  11  22  38  62  94 127 167 223 270 324 391
#     4  10  25  42  62  87 126 182 222 271 327 384
#     4  10  20  36  60  90 129 168 204 268 335 393
#     4  11  22  41  63  88 131 172 222 266 324 394
#     4  10  21  38  61  96 132 166 212 268 340 399
#
# _framework density 22.485171999999999
#
# number of rings (size 3 to 8) (size 9 to 14) (size 15 to 20)
#    0.000    1.455    1.818    4.636    0.000    4.364 
#    0.000    2.727    0.000    4.364    0.000    0.000 
#    0.000    0.000    0.000    0.000    0.000    0.000 
#
# Total GULP energy -245375.472773 kJ/mol
# GULP energy per Si atom -5576.715290 kJ/mol
# Density = 2.243400 g / cm^3
# Si number density = 22.485172 Si / 1000 Ang^3
#
#
#
# Elastic Constant Matrix: (Units=GPa)
#
#
# Indices 1 2 3 4 5 6 
#
# 1 63.9902 -17.5905 16.8959 0.0000 0.0000 0.0000
# 2 -17.5905 53.9327 -3.2844 0.0000 0.0000 0.0000
# 3 16.8959 -3.2844 59.4660 0.0000 0.0000 0.0000
# 4 0.0000 0.0000 0.0000 20.5301 0.0000 0.0000
# 5 0.0000 0.0000 0.0000 0.0000 32.7009 0.0000
# 6 0.0000 0.0000 0.0000 0.0000 0.0000 40.3918
#
#
#
# Elastic Compliance Matrix: (Units=1/GPa)
#
#
# Indices 1 2 3 4 5 6 
#
# 1 0.018509 0.005736 -0.004942 0.000000 0.000000 0.000000
# 2 0.005736 0.020382 -0.000504 0.000000 0.000000 0.000000
# 3 -0.004942 -0.000504 0.018193 0.000000 0.000000 0.000000
# 4 0.000000 0.000000 0.000000 0.048709 0.000000 0.000000
# 5 0.000000 0.000000 0.000000 0.000000 0.030580 0.000000
# 6 0.000000 0.000000 0.000000 0.000000 0.000000 0.024757
#
#
# Mechanical properties :
#
#
# Convention : Reuss Voigt Hill
#
# Bulk Modulus (GPa) = 17.34212 18.82564 18.08388
# Shear Modulus (GPa) = 27.81306 30.81576 29.31441
#
# Velocity S-wave (km/s) = 3.52085 3.70603 3.61463
# Velocity P-wave (km/s) = 4.92523 5.16755 5.04784
#
# Compressibility (1/GPa) = 0.05766307
#
# Stress axis : x y z
#
# Youngs Moduli (GPa) = 54.02752 49.06349 54.96719
#
# Poissons Ratio (x) = -0.28142 0.27165
# Poissons Ratio (y) = -0.30990 0.02770
# Poissons Ratio (z) = 0.26701 0.02473
#
# Static dielectric constant tensor:
#      x y z
#    x 1.837230 0.000000 0.000000 
#    y 0.000000 1.881820 0.000000 
#    z 0.000000 0.000000 1.856610 
# 
# From -- ./inp_files/37960.got.cif
#   From: 2010.05.17/outbox.cif.g08.bks.cpg/sg72_19_cif.got.tgz:37960.got - 2010.06.03 17:03:01.
