data_PCOD9527638
_publ_section_title
;
Structure prediction by ZEFSAII (Michael W. Deem and Ramdas Pophale) SiO2 
 PCOD9527638
Probable space group: I B A M
;
_chemical_formula_sum "Si O2"
_cell_formula_units_Z 64
_cell_length_a 24.674300
_cell_length_b 4.939084
_cell_length_c 27.496971
_cell_angle_alpha 90.000000
_cell_angle_beta 90.000000
_cell_angle_gamma 90.000000
_cell_volume 3351.012970
_symmetry_space_group_name_H-M "I B A M"
_symmetry_group_IT_number 72
_symmetry_cell_setting 'orthorhombic'
loop_
_space_group_symop_operation_xyz
x,y,z
-x,-y,z
x,-y,1/2-z
-x,y,1/2-z
-x,-y,-z
x,y,-z
-x,y,1/2+z
x,-y,1/2+z
1/2+x,1/2+y,1/2+z
1/2-x,1/2-y,1/2+z
1/2+x,1/2-y,-z
1/2-x,1/2+y,-z
1/2-x,1/2-y,1/2-z
1/2+x,1/2+y,1/2-z
1/2-x,1/2+y,z
1/2+x,1/2-y,z
loop_
_atom_site_type_symbol
_atom_site_label
_atom_site_fract_x
_atom_site_fract_y
_atom_site_fract_z
Si Si1 0.608420 0.614517 0.146725
Si Si2 0.559477 0.902868 0.305742
Si Si3 0.212503 0.939561 0.303887
Si Si4 0.539697 0.247223 0.554477
O O1 0.570722 0.405720 0.178375
O O2 0.668496 0.504586 0.155328
O O3 0.585010 0.660561 0.092928
O O4 0.604190 0.913334 0.168741
O O5 0.500000 0.000000 0.322303
O O6 0.562349 0.000000 0.250000
O O7 0.263867 0.139819 0.306547
O O8 0.187682 0.000000 0.250000
O O9 0.500000 0.500000 0.551240
O O10 0.560906 0.184040 0.500000
O O11 0.500000 0.000000 0.569386
#
# Coordination Sequence:
#
# PCOD9527638 Si02
#       4
#    16  16  16  16
#     4  12  21  35  57  77 106 147 186 223 276 333
#     4  11  22  33  49  79 114 143 174 215 270 341
#     4  10  21  36  53  75 104 140 185 232 275 325
#     4  10  21  37  57  83 113 144 183 230 279 335
#
# _framework density 19.098704000000001
#
# number of rings (size 3 to 8) (size 9 to 14) (size 15 to 20)
#    0.000    1.250    0.000    8.250    0.000    4.000 
#    0.000    0.000    0.000    1.500    0.000    0.000 
#    0.000    0.000    0.000    0.000    0.000    0.000 
#
# Total GULP energy -178546.049670 kJ/mol
# GULP energy per Si atom -5579.564052 kJ/mol
# Density = 1.905523 g / cm^3
# Si number density = 19.098704 Si / 1000 Ang^3
#
#
#
# Elastic Constant Matrix: (Units=GPa)
#
#
# Indices 1 2 3 4 5 6 
#
# 1 66.5445 3.3727 38.7424 0.0000 0.0000 0.0000
# 2 3.3727 85.5298 9.2873 0.0000 0.0000 0.0000
# 3 38.7424 9.2873 149.0252 0.0000 0.0000 0.0000
# 4 0.0000 0.0000 0.0000 23.0514 0.0000 0.0000
# 5 0.0000 0.0000 0.0000 0.0000 16.7465 0.0000
# 6 0.0000 0.0000 0.0000 0.0000 0.0000 26.6347
#
#
#
# Elastic Compliance Matrix: (Units=1/GPa)
#
#
# Indices 1 2 3 4 5 6 
#
# 1 0.017711 -0.000200 -0.004592 0.000000 0.000000 0.000000
# 2 -0.000200 0.011774 -0.000682 0.000000 0.000000 0.000000
# 3 -0.004592 -0.000682 0.007947 0.000000 0.000000 0.000000
# 4 0.000000 0.000000 0.000000 0.043381 0.000000 0.000000
# 5 0.000000 0.000000 0.000000 0.000000 0.059714 0.000000
# 6 0.000000 0.000000 0.000000 0.000000 0.000000 0.037545
#
#
# Mechanical properties :
#
#
# Convention : Reuss Voigt Hill
#
# Bulk Modulus (GPa) = 37.75818 44.87826 41.31822
# Shear Modulus (GPa) = 25.27210 29.93301 27.60255
#
# Velocity S-wave (km/s) = 3.64158 3.96318 3.80578
# Velocity P-wave (km/s) = 6.12327 6.67020 6.40257
#
# Compressibility (1/GPa) = 0.02648433
#
# Stress axis : x y z
#
# Youngs Moduli (GPa) = 56.46177 84.93474 125.84085
#
# Poissons Ratio (x) = 0.01697 0.57785
# Poissons Ratio (y) = 0.01128 0.08580
# Poissons Ratio (z) = 0.25927 0.05791
#
# Static dielectric constant tensor:
#      x y z
#    x 1.681670 0.000000 0.000000 
#    y 0.000000 1.624570 0.000000 
#    z 0.000000 0.000000 1.751240 
# 
# From -- ./inp_files/41393.got.cif
#   From: 2010.05.17/outbox.cif.g08.bks.cpg/sg72_21_cif.got.tgz:41393.got - 2010.06.03 17:03:01.
