data_PCOD9527118
_publ_section_title
;
Structure prediction by ZEFSAII (Michael W. Deem and Ramdas Pophale) SiO2 
 PCOD9527118
Probable space group: I B A M
;
_chemical_formula_sum "Si O2"
_cell_formula_units_Z 84
_cell_length_a 16.878822
_cell_length_b 10.501488
_cell_length_c 25.824843
_cell_angle_alpha 90.000000
_cell_angle_beta 90.000000
_cell_angle_gamma 90.000000
_cell_volume 4577.524355
_symmetry_space_group_name_H-M "I B A M"
_symmetry_group_IT_number 72
_symmetry_cell_setting 'orthorhombic'
loop_
_space_group_symop_operation_xyz
x,y,z
-x,-y,z
x,-y,1/2-z
-x,y,1/2-z
-x,-y,-z
x,y,-z
-x,y,1/2+z
x,-y,1/2+z
1/2+x,1/2+y,1/2+z
1/2-x,1/2-y,1/2+z
1/2+x,1/2-y,-z
1/2-x,1/2+y,-z
1/2-x,1/2-y,1/2-z
1/2+x,1/2+y,1/2-z
1/2-x,1/2+y,z
1/2+x,1/2-y,z
loop_
_atom_site_type_symbol
_atom_site_label
_atom_site_fract_x
_atom_site_fract_y
_atom_site_fract_z
Si Si1 0.600081 0.879435 0.107137
Si Si2 0.500000 0.500000 0.250000
Si Si3 0.424354 0.817407 0.893823
Si Si4 0.860675 0.166382 0.296130
Si Si5 0.185417 0.382523 0.714459
Si Si6 0.808619 0.400417 0.000000
Si Si7 0.833637 0.702106 0.000000
O O1 0.518840 0.800106 0.107260
O O2 0.648026 0.851688 0.158996
O O3 0.643917 0.865017 0.052335
O O4 0.585197 0.030871 0.112297
O O5 0.561078 0.413641 0.217269
O O6 0.379472 0.744023 0.848226
O O7 0.386957 0.784618 0.948972
O O8 0.837973 0.263168 0.250110
O O9 0.777973 0.089858 0.298793
O O10 0.155977 0.500000 0.750000
O O11 0.799272 0.555653 0.000000
O O12 0.730938 0.313444 0.000000
#
# Coordination Sequence:
#
# PCOD9527118 Si02
#       7
#    16   4  16  16  16   8   8
#     4  10  20  36  61  88 116 155 209 258 299 360
#     4  12  24  40  54  90 128 162 192 254 332 374
#     4  10  20  37  59  87 117 156 199 257 306 361
#     4  11  23  38  59  85 125 162 200 251 316 372
#     4  11  21  39  60  86 115 160 211 251 298 374
#     4  10  21  39  61  89 119 158 204 257 310 373
#     4  10  21  39  63  91 121 158 208 256 316 371
#
# _framework density 18.350531
#
# number of rings (size 3 to 8) (size 9 to 14) (size 15 to 20)
#    0.000    1.524    2.857    2.857    0.000    2.286 
#    0.000    1.905    0.000    1.714    0.000    0.000 
#    0.000    0.000    0.000    0.000    0.000    0.000 
#
# Total GULP energy -234055.425316 kJ/mol
# GULP energy per Si atom -5572.748222 kJ/mol
# Density = 1.830876 g / cm^3
# Si number density = 18.350531 Si / 1000 Ang^3
#
#
#
# Elastic Constant Matrix: (Units=GPa)
#
#
# Indices 1 2 3 4 5 6 
#
# 1 111.9826 30.5090 60.4036 0.0000 0.0000 0.0000
# 2 30.5090 31.4563 32.0707 0.0000 0.0000 0.0000
# 3 60.4036 32.0707 168.8918 0.0000 0.0000 0.0000
# 4 0.0000 0.0000 0.0000 11.2448 0.0000 0.0000
# 5 0.0000 0.0000 0.0000 0.0000 16.6101 0.0000
# 6 0.0000 0.0000 0.0000 0.0000 0.0000 29.7662
#
#
#
# Elastic Compliance Matrix: (Units=1/GPa)
#
#
# Indices 1 2 3 4 5 6 
#
# 1 0.013142 -0.009864 -0.002827 0.000000 0.000000 0.000000
# 2 -0.009864 0.046826 -0.005364 0.000000 0.000000 0.000000
# 3 -0.002827 -0.005364 0.007951 0.000000 0.000000 0.000000
# 4 0.000000 0.000000 0.000000 0.088930 0.000000 0.000000
# 5 0.000000 0.000000 0.000000 0.000000 0.060204 0.000000
# 6 0.000000 0.000000 0.000000 0.000000 0.000000 0.033595
#
#
# Mechanical properties :
#
#
# Convention : Reuss Voigt Hill
#
# Bulk Modulus (GPa) = 31.43826 62.03305 46.73566
# Shear Modulus (GPa) = 16.81456 24.14739 20.48097
#
# Velocity S-wave (km/s) = 3.03033 3.63146 3.34443
# Velocity P-wave (km/s) = 5.42338 7.17365 6.35902
#
# Compressibility (1/GPa) = 0.03180837
#
# Stress axis : x y z
#
# Youngs Moduli (GPa) = 76.08946 21.35574 125.77611
#
# Poissons Ratio (x) = 0.21066 0.35560
# Poissons Ratio (y) = 0.75056 0.67464
# Poissons Ratio (z) = 0.21512 0.11455
#
# Static dielectric constant tensor:
#      x y z
#    x 1.670380 0.000000 0.000000 
#    y 0.000000 1.642030 0.000000 
#    z 0.000000 0.000000 1.620980 
# 
# From -- ./inp_files/36832.got.cif
#   From: 2010.05.17/outbox.cif.g08.bks.cpg/sg72_19_cif.got.tgz:36832.got - 2010.06.03 17:03:01.
