data_PCOD9527593
_publ_section_title
;
Structure prediction by ZEFSAII (Michael W. Deem and Ramdas Pophale) SiO2 
 PCOD9527593
Probable space group: I B A M
;
_chemical_formula_sum "Si O2"
_cell_formula_units_Z 112
_cell_length_a 20.174806
_cell_length_b 11.981554
_cell_length_c 23.528353
_cell_angle_alpha 90.000000
_cell_angle_beta 90.000000
_cell_angle_gamma 90.000000
_cell_volume 5687.403541
_symmetry_space_group_name_H-M "I B A M"
_symmetry_group_IT_number 72
_symmetry_cell_setting 'orthorhombic'
loop_
_space_group_symop_operation_xyz
x,y,z
-x,-y,z
x,-y,1/2-z
-x,y,1/2-z
-x,-y,-z
x,y,-z
-x,y,1/2+z
x,-y,1/2+z
1/2+x,1/2+y,1/2+z
1/2-x,1/2-y,1/2+z
1/2+x,1/2-y,-z
1/2-x,1/2+y,-z
1/2-x,1/2-y,1/2-z
1/2+x,1/2+y,1/2-z
1/2-x,1/2+y,z
1/2+x,1/2-y,z
loop_
_atom_site_type_symbol
_atom_site_label
_atom_site_fract_x
_atom_site_fract_y
_atom_site_fract_z
Si Si1 0.704807 0.619749 0.874351
Si Si2 0.611013 0.618105 0.765107
Si Si3 0.200661 0.264228 0.198221
Si Si4 0.600291 0.940319 0.672451
Si Si5 0.460781 0.822782 0.676433
Si Si6 0.822065 0.496496 0.565623
Si Si7 0.106956 0.268402 0.563158
O O1 0.665579 0.595598 0.815431
O O2 0.754603 0.722215 0.857510
O O3 0.752848 0.528064 0.902145
O O4 0.650066 0.662571 0.918043
O O5 0.579668 0.500000 0.750000
O O6 0.647393 0.667816 0.709139
O O7 0.563722 0.715623 0.788794
O O8 0.250000 0.250000 0.250000
O O9 0.161791 0.381235 0.202366
O O10 0.534913 0.867417 0.683754
O O11 0.621454 0.940629 0.605758
O O12 0.584600 0.067847 0.688450
O O13 0.447699 0.791852 0.610835
O O14 0.819911 0.457087 0.500000
O O15 0.843513 0.625484 0.564553
O O16 0.079877 0.257884 0.500000
#
# Coordination Sequence:
#
# PCOD9527593 Si02
#       7
#    16  16  16  16  16  16  16
#     4   9  18  32  49  71 107 139 180 223 266 333
#     4  10  21  35  51  77 105 145 188 226 279 325
#     4   9  19  35  50  75 100 140 180 227 278 326
#     4   9  18  35  56  76 108 140 181 231 277 335
#     4   9  19  35  54  80 106 142 184 229 278 331
#     4   9  17  29  50  80 108 140 175 222 279 331
#     4   9  17  29  49  77 108 137 172 222 275 329
#
# _framework density 19.692641999999999
#
# number of rings (size 3 to 8) (size 9 to 14) (size 15 to 20)
#    0.000    2.857    0.000    0.429    2.000    1.714 
#   15.429    5.714    0.000    0.000    0.000    0.000 
#    0.000    5.143    0.000    0.000    0.000    0.000 
#
# Total GULP energy -312073.605019 kJ/mol
# GULP energy per Si atom -5572.742947 kJ/mol
# Density = 1.964782 g / cm^3
# Si number density = 19.692642 Si / 1000 Ang^3
#
#
#
# Elastic Constant Matrix: (Units=GPa)
#
#
# Indices 1 2 3 4 5 6 
#
# 1 68.2802 33.5216 28.7300 0.0000 0.0000 0.0000
# 2 33.5216 94.5247 30.0847 0.0000 0.0000 0.0000
# 3 28.7300 30.0847 89.7424 0.0000 0.0000 0.0000
# 4 0.0000 0.0000 0.0000 21.0577 0.0000 0.0000
# 5 0.0000 0.0000 0.0000 0.0000 18.0521 0.0000
# 6 0.0000 0.0000 0.0000 0.0000 0.0000 22.6650
#
#
#
# Elastic Compliance Matrix: (Units=1/GPa)
#
#
# Indices 1 2 3 4 5 6 
#
# 1 0.019112 -0.005407 -0.004306 0.000000 0.000000 0.000000
# 2 -0.005407 0.013373 -0.002752 0.000000 0.000000 0.000000
# 3 -0.004306 -0.002752 0.013444 0.000000 0.000000 0.000000
# 4 0.000000 0.000000 0.000000 0.047489 0.000000 0.000000
# 5 0.000000 0.000000 0.000000 0.000000 0.055395 0.000000
# 6 0.000000 0.000000 0.000000 0.000000 0.000000 0.044121
#
#
# Mechanical properties :
#
#
# Convention : Reuss Voigt Hill
#
# Bulk Modulus (GPa) = 47.62203 48.57999 48.10101
# Shear Modulus (GPa) = 22.23578 23.03569 22.63573
#
# Velocity S-wave (km/s) = 3.36392 3.42389 3.39403
# Velocity P-wave (km/s) = 6.27081 6.35243 6.31175
#
# Compressibility (1/GPa) = 0.02099869
#
# Stress axis : x y z
#
# Youngs Moduli (GPa) = 52.32331 74.77913 74.38279
#
# Poissons Ratio (x) = 0.40435 0.32027
# Poissons Ratio (y) = 0.28293 0.20469
# Poissons Ratio (z) = 0.22529 0.20578
#
# Static dielectric constant tensor:
#      x y z
#    x 1.703170 0.000000 0.000000 
#    y 0.000000 1.701190 0.000000 
#    z 0.000000 0.000000 1.727120 
# 
# From -- ./inp_files/45397.got.cif
#   From: 2010.05.17/outbox.cif.g08.bks.cpg/sg72_23_cif.got.tgz:45397.got - 2010.06.03 17:03:01.
