data_PCOD9527884
_publ_section_title
;
Structure prediction by ZEFSAII (Michael W. Deem and Ramdas Pophale) SiO2 
 PCOD9527884
Probable space group: I B A M
;
_chemical_formula_sum "Si O2"
_cell_formula_units_Z 112
_cell_length_a 16.403275
_cell_length_b 14.872167
_cell_length_c 23.603341
_cell_angle_alpha 90.000000
_cell_angle_beta 90.000000
_cell_angle_gamma 90.000000
_cell_volume 5758.088030
_symmetry_space_group_name_H-M "I B A M"
_symmetry_group_IT_number 72
_symmetry_cell_setting 'orthorhombic'
loop_
_space_group_symop_operation_xyz
x,y,z
-x,-y,z
x,-y,1/2-z
-x,y,1/2-z
-x,-y,-z
x,y,-z
-x,y,1/2+z
x,-y,1/2+z
1/2+x,1/2+y,1/2+z
1/2-x,1/2-y,1/2+z
1/2+x,1/2-y,-z
1/2-x,1/2+y,-z
1/2-x,1/2-y,1/2-z
1/2+x,1/2+y,1/2-z
1/2-x,1/2+y,z
1/2+x,1/2-y,z
loop_
_atom_site_type_symbol
_atom_site_label
_atom_site_fract_x
_atom_site_fract_y
_atom_site_fract_z
Si Si1 0.029991 0.870885 0.188363
Si Si2 0.142622 0.731696 0.235946
Si Si3 0.804517 0.670915 0.063551
Si Si4 0.794024 0.425851 0.165017
Si Si5 0.405194 0.986105 0.564628
Si Si6 0.793274 0.890826 0.668823
Si Si7 0.869592 0.813921 0.857624
O O1 0.064265 0.770141 0.201113
O O2 0.112058 0.921259 0.169304
O O3 0.000000 0.902797 0.250000
O O4 0.954310 0.867190 0.146492
O O5 0.163290 0.634207 0.212805
O O6 0.293668 0.690536 0.285739
O O7 0.128104 0.748613 0.302115
O O8 0.861555 0.583180 0.063692
O O9 0.733508 0.651016 0.109011
O O10 0.856035 0.754004 0.087411
O O11 0.774554 0.686342 0.000000
O O12 0.854366 0.430948 0.111112
O O13 0.765978 0.526395 0.181525
O O14 0.709515 0.376339 0.149145
O O15 0.401036 0.949426 0.500000
O O16 0.500000 0.000000 0.579501
#
# Coordination Sequence:
#
# PCOD9527884 Si02
#       7
#    16  16  16  16  16  16  16
#     4   8  18  37  58  84 125 155 193 248 294 355
#     4   9  20  39  55  89 121 156 196 248 299 360
#     4  10  21  38  59  85 119 155 199 252 299 356
#     4  11  21  34  62  90 117 160 201 243 301 367
#     4   9  21  41  61  85 116 154 204 258 302 356
#     4   9  20  39  56  87 123 157 195 248 300 354
#     4  11  20  36  60  85 124 156 198 248 296 360
#
# _framework density 19.450901000000002
#
# number of rings (size 3 to 8) (size 9 to 14) (size 15 to 20)
#    0.857    1.571    1.429    0.429    2.000    1.714 
#    2.571    1.429    0.000    0.857    0.000    5.000 
#    0.000    0.000    0.000    0.000    0.000    0.000 
#
# Total GULP energy -312102.667328 kJ/mol
# GULP energy per Si atom -5573.261917 kJ/mol
# Density = 1.940663 g / cm^3
# Si number density = 19.450901 Si / 1000 Ang^3
#
#
#
# Elastic Constant Matrix: (Units=GPa)
#
#
# Indices 1 2 3 4 5 6 
#
# 1 117.2803 14.3137 41.8418 0.0000 0.0000 0.0000
# 2 14.3137 75.7195 39.7895 0.0000 0.0000 0.0000
# 3 41.8418 39.7895 108.1332 0.0000 0.0000 0.0000
# 4 0.0000 0.0000 0.0000 19.5754 0.0000 0.0000
# 5 0.0000 0.0000 0.0000 0.0000 28.8618 0.0000
# 6 0.0000 0.0000 0.0000 0.0000 0.0000 15.1163
#
#
#
# Elastic Compliance Matrix: (Units=1/GPa)
#
#
# Indices 1 2 3 4 5 6 
#
# 1 0.009894 0.000175 -0.003893 0.000000 0.000000 0.000000
# 2 0.000175 0.016376 -0.006094 0.000000 0.000000 0.000000
# 3 -0.003893 -0.006094 0.012996 0.000000 0.000000 0.000000
# 4 0.000000 0.000000 0.000000 0.051085 0.000000 0.000000
# 5 0.000000 0.000000 0.000000 0.000000 0.034648 0.000000
# 6 0.000000 0.000000 0.000000 0.000000 0.000000 0.066154
#
#
# Mechanical properties :
#
#
# Convention : Reuss Voigt Hill
#
# Bulk Modulus (GPa) = 50.90675 54.78034 52.84354
# Shear Modulus (GPa) = 23.00728 26.38990 24.69859
#
# Velocity S-wave (km/s) = 3.44297 3.68740 3.56728
# Velocity P-wave (km/s) = 6.48338 6.80836 6.64785
#
# Compressibility (1/GPa) = 0.01964376
#
# Stress axis : x y z
#
# Youngs Moduli (GPa) = 101.07058 61.06667 76.94397
#
# Poissons Ratio (x) = -0.01071 0.29954
# Poissons Ratio (y) = -0.01773 0.46886
# Poissons Ratio (z) = 0.39347 0.37211
#
# Static dielectric constant tensor:
#      x y z
#    x 1.752920 0.000000 0.000000 
#    y 0.000000 1.710750 0.000000 
#    z 0.000000 0.000000 1.675680 
# 
# From -- ./inp_files/44342.got.cif
#   From: 2010.05.17/outbox.cif.g08.bks.cpg/sg72_23_cif.got.tgz:44342.got - 2010.06.03 17:03:01.
