data_PCOD9527574
_publ_section_title
;
Structure prediction by ZEFSAII (Michael W. Deem and Ramdas Pophale) SiO2 
 PCOD9527574
Probable space group: I B A M
;
_chemical_formula_sum "Si O2"
_cell_formula_units_Z 72
_cell_length_a 16.688094
_cell_length_b 25.317045
_cell_length_c 9.004006
_cell_angle_alpha 90.000000
_cell_angle_beta 90.000000
_cell_angle_gamma 90.000000
_cell_volume 3804.131549
_symmetry_space_group_name_H-M "I B A M"
_symmetry_group_IT_number 72
_symmetry_cell_setting 'orthorhombic'
loop_
_space_group_symop_operation_xyz
x,y,z
-x,-y,z
x,-y,1/2-z
-x,y,1/2-z
-x,-y,-z
x,y,-z
-x,y,1/2+z
x,-y,1/2+z
1/2+x,1/2+y,1/2+z
1/2-x,1/2-y,1/2+z
1/2+x,1/2-y,-z
1/2-x,1/2+y,-z
1/2-x,1/2-y,1/2-z
1/2+x,1/2+y,1/2-z
1/2-x,1/2+y,z
1/2+x,1/2-y,z
loop_
_atom_site_type_symbol
_atom_site_label
_atom_site_fract_x
_atom_site_fract_y
_atom_site_fract_z
Si Si1 0.414529 0.675145 0.178795
Si Si2 0.129814 0.552922 0.665856
Si Si3 0.242213 0.136593 0.319856
Si Si4 0.000000 0.364537 0.250000
Si Si5 0.364847 0.784689 0.330069
O O1 0.500000 0.661293 0.250000
O O2 0.344427 0.638782 0.245732
O O3 0.392586 0.733732 0.238805
O O4 0.416853 0.674398 0.000000
O O5 0.107618 0.500000 0.750000
O O6 0.149267 0.536598 0.500000
O O7 0.206629 0.584946 0.725396
O O8 0.058532 0.595705 0.663962
O O9 0.239322 0.139313 0.500000
O O10 0.292817 0.185945 0.254688
O O11 0.060940 0.325800 0.334056
O O12 0.343046 0.770793 0.500000
#
# Coordination Sequence:
#
# PCOD9527574 Si02
#       5
#    16  16  16   8  16
#     4  12  24  38  58  84 114 149 191 236 289 344
#     4  10  22  38  58  84 114 152 195 242 289 341
#     4  10  22  40  58  80 113 151 194 239 289 343
#     4  10  21  34  56  84 122 160 199 230 280 336
#     4  11  21  35  56  82 117 157 196 234 280 338
#
# _framework density 18.92679
#
# number of rings (size 3 to 8) (size 9 to 14) (size 15 to 20)
#    0.000    1.333    1.111    5.000    0.000    8.000 
#    0.000    0.000    0.000    0.667    0.000    4.667 
#    0.000    0.000    0.000    0.000    0.000    0.000 
#
# Total GULP energy -201014.194318 kJ/mol
# GULP energy per Si atom -5583.727620 kJ/mol
# Density = 1.888371 g / cm^3
# Si number density = 18.926790 Si / 1000 Ang^3
#
#
#
# Elastic Constant Matrix: (Units=GPa)
#
#
# Indices 1 2 3 4 5 6 
#
# 1 121.3027 14.5995 34.9392 0.0000 0.0000 0.0000
# 2 14.5995 52.0664 13.1545 0.0000 0.0000 0.0000
# 3 34.9392 13.1545 116.6473 0.0000 -0.0001 0.0000
# 4 0.0000 0.0000 0.0000 10.4320 0.0000 0.0000
# 5 0.0000 0.0000 -0.0001 0.0000 16.0530 0.0000
# 6 0.0000 0.0000 0.0000 0.0000 0.0000 15.3645
#
#
#
# Elastic Compliance Matrix: (Units=1/GPa)
#
#
# Indices 1 2 3 4 5 6 
#
# 1 0.009209 -0.001941 -0.002539 0.000000 0.000000 0.000000
# 2 -0.001941 0.020178 -0.001694 0.000000 0.000000 0.000000
# 3 -0.002539 -0.001694 0.009525 0.000000 0.000000 0.000000
# 4 0.000000 0.000000 0.000000 0.095859 0.000000 0.000000
# 5 0.000000 0.000000 0.000000 0.000000 0.062294 0.000000
# 6 0.000000 0.000000 0.000000 0.000000 0.000000 0.065085
#
#
# Mechanical properties :
#
#
# Convention : Reuss Voigt Hill
#
# Bulk Modulus (GPa) = 37.64609 46.15585 41.90097
# Shear Modulus (GPa) = 17.64586 23.52478 20.58532
#
# Velocity S-wave (km/s) = 3.05671 3.52935 3.30150
# Velocity P-wave (km/s) = 5.69135 6.40686 6.05968
#
# Compressibility (1/GPa) = 0.02656318
#
# Stress axis : x y z
#
# Youngs Moduli (GPa) = 108.59123 49.55782 104.99168
#
# Poissons Ratio (x) = 0.09617 0.26662
# Poissons Ratio (y) = 0.21073 0.17789
# Poissons Ratio (z) = 0.27576 0.08397
#
# Static dielectric constant tensor:
#      x y z
#    x 1.682350 0.000000 0.000000 
#    y 0.000000 1.657060 0.000000 
#    z 0.000000 0.000000 1.651490 
# 
# From -- ./inp_files/3670.got.cif
#   From: 2010.05.17/outbox.cif.g08.bks.cpg/sg72_2_cif.got.tgz:3670.got - 2010.06.03 17:03:01.
