data_PCOD9527909
_publ_section_title
;
Structure prediction by ZEFSAII (Michael W. Deem and Ramdas Pophale) SiO2 
 PCOD9527909
Probable space group: I B A M
;
_chemical_formula_sum "Si O2"
_cell_formula_units_Z 96
_cell_length_a 10.520445
_cell_length_b 24.648788
_cell_length_c 17.696078
_cell_angle_alpha 90.000000
_cell_angle_beta 90.000000
_cell_angle_gamma 90.000000
_cell_volume 4588.880029
_symmetry_space_group_name_H-M "I B A M"
_symmetry_group_IT_number 72
_symmetry_cell_setting 'orthorhombic'
loop_
_space_group_symop_operation_xyz
x,y,z
-x,-y,z
x,-y,1/2-z
-x,y,1/2-z
-x,-y,-z
x,y,-z
-x,y,1/2+z
x,-y,1/2+z
1/2+x,1/2+y,1/2+z
1/2-x,1/2-y,1/2+z
1/2+x,1/2-y,-z
1/2-x,1/2+y,-z
1/2-x,1/2-y,1/2-z
1/2+x,1/2+y,1/2-z
1/2-x,1/2+y,z
1/2+x,1/2-y,z
loop_
_atom_site_type_symbol
_atom_site_label
_atom_site_fract_x
_atom_site_fract_y
_atom_site_fract_z
Si Si1 0.705436 0.313072 0.911460
Si Si2 0.387984 0.124149 0.806154
Si Si3 0.774431 0.690673 0.913576
Si Si4 0.535511 0.642485 0.834820
Si Si5 0.421258 0.922297 0.912455
Si Si6 0.787584 0.051885 0.800870
O O1 0.821453 0.331237 0.858253
O O2 0.671434 0.249997 0.897469
O O3 0.584147 0.348563 0.888378
O O4 0.736918 0.319829 0.000000
O O5 0.500000 0.143862 0.750000
O O6 0.453212 0.079705 0.861350
O O7 0.282879 0.095382 0.753985
O O8 0.654462 0.677710 0.862179
O O9 0.871333 0.640469 0.909301
O O10 0.727469 0.691673 0.000000
O O11 0.500000 0.658137 0.750000
O O12 0.587096 0.580920 0.832304
O O13 0.312034 0.956029 0.869496
O O14 0.438934 0.936811 0.000000
O O15 0.811683 0.000000 0.750000
#
# Coordination Sequence:
#
# PCOD9527909 Si02
#       6
#    16  16  16  16  16  16
#     4  11  23  39  61  91 130 170 209 255 311 375
#     4  10  21  38  60  91 125 161 206 261 316 377
#     4   9  21  38  59  87 123 169 206 248 312 375
#     4  11  22  40  61  92 121 162 213 263 306 373
#     4   9  19  38  63  91 124 161 209 260 306 378
#     4  10  22  43  66  86 123 165 210 263 330 375
#
# _framework density 20.920137
#
# number of rings (size 3 to 8) (size 9 to 14) (size 15 to 20)
#    0.000    2.000    1.667    1.000    2.333    5.333 
#    0.000    2.500    0.000    1.000    0.000    0.000 
#    0.000    0.000    0.000    0.000    0.000    0.000 
#
# Total GULP energy -268144.174572 kJ/mol
# GULP energy per Si atom -5586.336970 kJ/mol
# Density = 2.087252 g / cm^3
# Si number density = 20.920137 Si / 1000 Ang^3
#
#
#
# Elastic Constant Matrix: (Units=GPa)
#
#
# Indices 1 2 3 4 5 6 
#
# 1 68.4947 37.0217 25.2617 0.0000 0.0000 0.0000
# 2 37.0217 86.1790 26.4261 0.0000 0.0000 0.0000
# 3 25.2617 26.4261 112.0149 0.0001 0.0000 0.0000
# 4 0.0000 0.0000 0.0001 26.7306 0.0000 0.0000
# 5 0.0000 0.0000 0.0000 0.0000 29.7115 0.0000
# 6 0.0000 0.0000 0.0000 0.0000 0.0000 3.5635
#
#
#
# Elastic Compliance Matrix: (Units=1/GPa)
#
#
# Indices 1 2 3 4 5 6 
#
# 1 0.019713 -0.007659 -0.002639 0.000000 0.000000 0.000000
# 2 -0.007659 0.015485 -0.001926 0.000000 0.000000 0.000000
# 3 -0.002639 -0.001926 0.009977 0.000000 0.000000 0.000000
# 4 0.000000 0.000000 0.000000 0.037410 0.000000 0.000000
# 5 0.000000 0.000000 0.000000 0.000000 0.033657 0.000000
# 6 0.000000 0.000000 0.000000 0.000000 0.000000 0.280626
#
#
# Mechanical properties :
#
#
# Convention : Reuss Voigt Hill
#
# Bulk Modulus (GPa) = 48.24691 49.34529 48.79610
# Shear Modulus (GPa) = 11.67614 23.86639 17.77127
#
# Velocity S-wave (km/s) = 2.36504 3.38129 2.91775
# Velocity P-wave (km/s) = 5.52905 6.23561 5.89293
#
# Compressibility (1/GPa) = 0.02072672
#
# Stress axis : x y z
#
# Youngs Moduli (GPa) = 50.72867 64.58015 100.23280
#
# Poissons Ratio (x) = 0.49464 0.26448
# Poissons Ratio (y) = 0.38854 0.19302
# Poissons Ratio (z) = 0.13386 0.12437
#
# Static dielectric constant tensor:
#      x y z
#    x 1.761690 0.000000 0.000000 
#    y 0.000000 1.768100 0.000000 
#    z 0.000000 0.000000 1.746770 
# 
# From -- ./inp_files/29465.got.cif
#   From: 2010.05.17/outbox.cif.g08.bks.cpg/sg72_15_cif.got.tgz:29465.got - 2010.06.03 17:03:01.
