data_PCOD9527604
_publ_section_title
;
Structure prediction by ZEFSAII (Michael W. Deem and Ramdas Pophale) SiO2 
 PCOD9527604
Probable space group: I B A M
;
_chemical_formula_sum "Si O2"
_cell_formula_units_Z 112
_cell_length_a 12.137127
_cell_length_b 29.265277
_cell_length_c 15.127315
_cell_angle_alpha 90.000000
_cell_angle_beta 90.000000
_cell_angle_gamma 90.000000
_cell_volume 5373.167582
_symmetry_space_group_name_H-M "I B A M"
_symmetry_group_IT_number 72
_symmetry_cell_setting 'orthorhombic'
loop_
_space_group_symop_operation_xyz
x,y,z
-x,-y,z
x,-y,1/2-z
-x,y,1/2-z
-x,-y,-z
x,y,-z
-x,y,1/2+z
x,-y,1/2+z
1/2+x,1/2+y,1/2+z
1/2-x,1/2-y,1/2+z
1/2+x,1/2-y,-z
1/2-x,1/2+y,-z
1/2-x,1/2-y,1/2-z
1/2+x,1/2+y,1/2-z
1/2-x,1/2+y,z
1/2+x,1/2-y,z
loop_
_atom_site_type_symbol
_atom_site_label
_atom_site_fract_x
_atom_site_fract_y
_atom_site_fract_z
Si Si1 0.754649 0.112402 0.895982
Si Si2 0.987978 0.760040 0.145081
Si Si3 0.754233 0.109931 0.395785
Si Si4 0.870598 0.554705 0.750354
Si Si5 0.000471 0.135295 0.356592
Si Si6 0.232379 0.285266 0.895024
Si Si7 0.649789 0.202550 0.601354
O O1 0.691029 0.076612 0.834891
O O2 0.727106 0.163766 0.859880
O O3 0.887708 0.110438 0.886757
O O4 0.726006 0.108002 0.000000
O O5 0.003729 0.812227 0.109233
O O6 0.856190 0.752765 0.128228
O O7 0.000000 0.759160 0.250000
O O8 0.019497 0.708388 0.106002
O O9 0.726939 0.105189 0.500000
O O10 0.694363 0.072822 0.335728
O O11 0.885946 0.112435 0.385719
O O12 0.704826 0.158444 0.360093
O O13 0.865942 0.500000 0.750000
O O14 0.000000 0.568457 0.750000
O O15 0.000000 0.136878 0.250000
O O16 0.339008 0.255342 0.864285
O O17 0.240459 0.291576 0.000000
O O18 0.685434 0.202980 0.500000
#
# Coordination Sequence:
#
# PCOD9527604 Si02
#       7
#    16  16  16  16  16  16  16
#     4  11  24  42  70 103 136 179 228 275 330 400
#     4  11  23  31  53  87 131 186 227 268 312 374
#     4  11  24  42  70 103 136 179 228 275 330 400
#     4  11  28  53  76  97 129 167 212 285 356 408
#     4  11  21  39  63  99 146 187 224 268 328 390
#     4  10  21  35  53  84 130 178 220 260 309 374
#     4  10  21  35  53  84 130 178 220 260 309 374
#
# _framework density 20.844314000000001
#
# number of rings (size 3 to 8) (size 9 to 14) (size 15 to 20)
#    0.000    1.286    4.286    0.857    4.000    2.857 
#    0.000    2.857    0.000    1.714    0.000    0.000 
#    0.000    0.000    0.000    0.000    0.000    0.000 
#
# Total GULP energy -311926.734035 kJ/mol
# GULP energy per Si atom -5570.120251 kJ/mol
# Density = 2.079687 g / cm^3
# Si number density = 20.844314 Si / 1000 Ang^3
#
#
#
# Elastic Constant Matrix: (Units=GPa)
#
#
# Indices 1 2 3 4 5 6 
#
# 1 77.0916 52.1921 44.4511 -0.0001 0.0000 0.0000
# 2 52.1921 96.6713 42.2016 0.0000 0.0001 0.0000
# 3 44.4511 42.2016 125.1957 0.0005 0.0004 -0.0001
# 4 -0.0001 0.0000 0.0005 4.2872 0.0009 0.0000
# 5 0.0000 0.0001 0.0004 0.0009 61.7897 0.0001
# 6 0.0000 0.0000 -0.0001 0.0000 0.0001 36.7049
#
#
#
# Elastic Compliance Matrix: (Units=1/GPa)
#
#
# Indices 1 2 3 4 5 6 
#
# 1 0.022463 -0.010138 -0.004558 0.000001 0.000000 0.000000
# 2 -0.010138 0.016705 -0.002031 0.000000 0.000000 0.000000
# 3 -0.004558 -0.002031 0.010291 -0.000001 0.000000 0.000000
# 4 0.000001 0.000000 -0.000001 0.233253 -0.000003 0.000000
# 5 0.000000 0.000000 0.000000 -0.000003 0.016184 0.000000
# 6 0.000000 0.000000 0.000000 0.000000 0.000000 0.027244
#
#
# Mechanical properties :
#
#
# Convention : Reuss Voigt Hill
#
# Bulk Modulus (GPa) = 62.48676 64.07203 63.27939
# Shear Modulus (GPa) = 13.70126 31.23060 22.46593
#
# Velocity S-wave (km/s) = 2.56660 3.87496 3.28654
# Velocity P-wave (km/s) = 6.23106 7.12920 6.69521
#
# Compressibility (1/GPa) = 0.01600339
#
# Stress axis : x y z
#
# Youngs Moduli (GPa) = 44.51671 59.86406 97.17519
#
# Poissons Ratio (x) = 0.60690 0.44296
# Poissons Ratio (y) = 0.45131 0.19740
# Poissons Ratio (z) = 0.20292 0.12160
#
# Static dielectric constant tensor:
#      x y z
#    x 1.781510 0.000000 0.000000 
#    y 0.000000 1.761180 0.000000 
#    z 0.000000 0.000000 1.770230 
# 
# From -- ./inp_files/20714.got.cif
#   From: 2010.05.17/outbox.cif.g08.bks.cpg/sg72_11_cif.got.tgz:20714.got - 2010.06.03 17:03:01.
