data_PCOD9527784
_publ_section_title
;
Structure prediction by ZEFSAII (Michael W. Deem and Ramdas Pophale) SiO2 
 PCOD9527784
Probable space group: I B A M
;
_chemical_formula_sum "Si O2"
_cell_formula_units_Z 116
_cell_length_a 22.496126
_cell_length_b 32.016847
_cell_length_c 8.357847
_cell_angle_alpha 90.000000
_cell_angle_beta 90.000000
_cell_angle_gamma 90.000000
_cell_volume 6019.781294
_symmetry_space_group_name_H-M "I B A M"
_symmetry_group_IT_number 72
_symmetry_cell_setting 'orthorhombic'
loop_
_space_group_symop_operation_xyz
x,y,z
-x,-y,z
x,-y,1/2-z
-x,y,1/2-z
-x,-y,-z
x,y,-z
-x,y,1/2+z
x,-y,1/2+z
1/2+x,1/2+y,1/2+z
1/2-x,1/2-y,1/2+z
1/2+x,1/2-y,-z
1/2-x,1/2+y,-z
1/2-x,1/2-y,1/2-z
1/2+x,1/2+y,1/2-z
1/2-x,1/2+y,z
1/2+x,1/2-y,z
loop_
_atom_site_type_symbol
_atom_site_label
_atom_site_fract_x
_atom_site_fract_y
_atom_site_fract_z
Si Si1 0.269668 0.953765 0.309716
Si Si2 0.500000 0.000000 0.750000
Si Si3 0.408213 0.936576 0.310395
Si Si4 0.698562 0.698219 0.310259
Si Si5 0.170190 0.892056 0.809611
Si Si6 0.063919 0.654970 0.688120
Si Si7 0.834116 0.285688 0.189282
Si Si8 0.566699 0.453683 0.308459
O O1 0.261091 0.951327 0.500000
O O2 0.339352 0.945907 0.276967
O O3 0.228877 0.918885 0.229174
O O4 0.253593 0.000000 0.250000
O O5 0.549485 0.034728 0.799856
O O6 0.420427 0.946331 0.500000
O O7 0.421367 0.888271 0.278244
O O8 0.697247 0.705956 0.500000
O O9 0.673369 0.652976 0.270883
O O10 0.768007 0.699676 0.259066
O O11 0.665055 0.736373 0.225487
O O12 0.114283 0.919651 0.752947
O O13 0.165794 0.886389 0.000000
O O14 0.060712 0.646318 0.500000
O O15 0.115091 0.688414 0.723432
O O16 0.000000 0.670114 0.750000
O O17 0.839858 0.293182 0.000000
O O18 0.583429 0.500000 0.250000
O O19 0.500000 0.444950 0.250000
O O20 0.566743 0.454249 0.500000
#
# Coordination Sequence:
#
# PCOD9527784 Si02
#       8
#    16   4  16  16  16  16  16  16
#     4  11  23  38  56  83 118 157 201 250 298 350
#     4  12  22  40  64  82 118 160 208 256 298 348
#     4  11  24  40  59  85 117 157 207 253 300 352
#     4  10  21  38  63  92 119 151 190 237 293 351
#     4  11  23  38  58  88 121 155 194 240 294 351
#     4  12  25  40  61  87 117 154 198 245 296 351
#     4  10  21  40  64  89 119 151 191 240 291 352
#     4  10  21  37  59  85 115 152 195 236 281 341
#
# _framework density 19.269803
#
# number of rings (size 3 to 8) (size 9 to 14) (size 15 to 20)
#    0.000    1.241    1.379    5.172    0.000    9.931 
#    0.000    0.690    0.000    1.655    0.000    0.000 
#    0.000    0.000    0.000    0.000    0.000    0.000 
#
# Total GULP energy -324025.647584 kJ/mol
# GULP energy per Si atom -5586.649096 kJ/mol
# Density = 1.922594 g / cm^3
# Si number density = 19.269803 Si / 1000 Ang^3
#
#
#
# Elastic Constant Matrix: (Units=GPa)
#
#
# Indices 1 2 3 4 5 6 
#
# 1 77.7137 59.3177 13.0768 0.0000 0.0000 0.0000
# 2 59.3177 116.5012 7.9118 0.0000 0.0000 0.0000
# 3 13.0768 7.9118 42.0586 0.0000 0.0000 0.0000
# 4 0.0000 0.0000 0.0000 7.7911 0.0000 0.0000
# 5 0.0000 0.0000 0.0000 0.0000 15.4879 0.0000
# 6 0.0000 0.0000 0.0000 0.0000 0.0000 -3.2041
#
#
#
# Elastic Compliance Matrix: (Units=1/GPa)
#
#
# Indices 1 2 3 4 5 6 
#
# 1 0.021959 -0.010856 -0.004785 0.000000 0.000000 0.000000
# 2 -0.010856 0.014061 0.000730 0.000000 0.000000 0.000000
# 3 -0.004785 0.000730 0.025127 0.000000 0.000000 0.000000
# 4 0.000000 0.000000 0.000000 0.128351 0.000000 0.000000
# 5 0.000000 0.000000 0.000000 0.000000 0.064567 0.000000
# 6 0.000000 0.000000 0.000000 0.000000 0.000000 -0.312098
#
#
# Mechanical properties :
#
#
# Convention : Reuss Voigt Hill
#
# Bulk Modulus (GPa) = 31.92305 44.09846 38.01075
# Shear Modulus (GPa) = -281.36743 14.41278 -133.47732
#
# Velocity S-wave (km/s) = -12.09676 2.73783 -8.33175
# Velocity P-wave (km/s) = 13.36064 5.73835 8.53164
#
# Compressibility (1/GPa) = 0.03132533
#
# Stress axis : x y z
#
# Youngs Moduli (GPa) = 45.53964 71.11738 39.79802
#
# Poissons Ratio (x) = 0.77202 0.19045
# Poissons Ratio (y) = 0.49436 -0.02906
# Poissons Ratio (z) = 0.21792 -0.05192
#
# Static dielectric constant tensor:
#      x y z
#    x 1.659990 0.000000 0.000000 
#    y 0.000000 1.640000 0.000000 
#    z 0.000000 0.000000 1.694640 
# 
# From -- ./inp_files/7328.got.cif
#   From: 2010.05.17/outbox.cif.g08.bks.cpg/sg72_4_cif.got.tgz:7328.got - 2010.06.03 17:03:01.
