data_PCOD9527402
_publ_section_title
;
Structure prediction by ZEFSAII (Michael W. Deem and Ramdas Pophale) SiO2 
 PCOD9527402
Probable space group: I B A M
;
_chemical_formula_sum "Si O2"
_cell_formula_units_Z 112
_cell_length_a 11.533183
_cell_length_b 30.867702
_cell_length_c 16.348664
_cell_angle_alpha 90.000000
_cell_angle_beta 90.000000
_cell_angle_gamma 90.000000
_cell_volume 5820.171075
_symmetry_space_group_name_H-M "I B A M"
_symmetry_group_IT_number 72
_symmetry_cell_setting 'orthorhombic'
loop_
_space_group_symop_operation_xyz
x,y,z
-x,-y,z
x,-y,1/2-z
-x,y,1/2-z
-x,-y,-z
x,y,-z
-x,y,1/2+z
x,-y,1/2+z
1/2+x,1/2+y,1/2+z
1/2-x,1/2-y,1/2+z
1/2+x,1/2-y,-z
1/2-x,1/2+y,-z
1/2-x,1/2-y,1/2-z
1/2+x,1/2+y,1/2-z
1/2-x,1/2+y,z
1/2+x,1/2-y,z
loop_
_atom_site_type_symbol
_atom_site_label
_atom_site_fract_x
_atom_site_fract_y
_atom_site_fract_z
Si Si1 0.093038 0.035822 0.404514
Si Si2 0.957602 0.433057 0.905627
Si Si3 0.473687 0.379256 0.653516
Si Si4 0.776133 0.638146 0.400789
Si Si5 0.659682 0.016535 0.840530
Si Si6 0.244856 0.263960 0.345227
Si Si7 0.003689 0.778813 0.150078
O O1 0.117081 0.027962 0.500000
O O2 0.210223 0.029902 0.355564
O O3 0.044039 0.083736 0.392047
O O4 0.000000 0.000000 0.377143
O O5 0.885799 0.391325 0.879142
O O6 0.877821 0.475994 0.897056
O O7 0.072954 0.444063 0.856859
O O8 0.989154 0.427561 0.000000
O O9 0.500000 0.383004 0.750000
O O10 0.338881 0.385352 0.632096
O O11 0.501587 0.329776 0.628439
O O12 0.769903 0.642215 0.500000
O O13 0.777819 0.685112 0.359246
O O14 0.642169 0.000000 0.750000
O O15 0.250000 0.250000 0.250000
O O16 0.127185 0.240917 0.378315
O O17 0.378914 0.258110 0.377463
O O18 0.000000 0.776217 0.250000
#
# Coordination Sequence:
#
# PCOD9527402 Si02
#       7
#    16  16  16  16  16  16  16
#     4  11  24  39  58  84 119 161 203 252 312 369
#     4  10  20  39  62  82 117 163 201 250 308 368
#     4  10  21  36  59  88 121 155 200 253 303 365
#     4  10  21  38  63  90 121 162 208 250 311 383
#     4  11  23  38  57  87 121 158 208 254 308 367
#     4   9  17  35  58  85 117 158 201 249 303 369
#     4   8  16  33  55  82 113 150 192 245 305 354
#
# _framework density 19.243421000000001
#
# number of rings (size 3 to 8) (size 9 to 14) (size 15 to 20)
#    0.000    2.143    0.000    4.714    4.000    2.286 
#    2.571    6.429    0.000    0.000    0.000    0.000 
#    0.000    0.000    0.000    0.000    0.000    0.000 
#
# Total GULP energy -312338.041412 kJ/mol
# GULP energy per Si atom -5577.465025 kJ/mol
# Density = 1.919962 g / cm^3
# Si number density = 19.243421 Si / 1000 Ang^3
#
#
#
# Elastic Constant Matrix: (Units=GPa)
#
#
# Indices 1 2 3 4 5 6 
#
# 1 175.3225 66.7267 39.0046 0.0000 0.0000 0.0000
# 2 66.7267 61.7670 22.1135 0.0000 0.0000 0.0000
# 3 39.0046 22.1135 50.3943 0.0000 0.0000 0.0000
# 4 0.0000 0.0000 0.0000 25.9749 0.0000 0.0000
# 5 0.0000 0.0000 0.0000 0.0000 29.7240 0.0000
# 6 0.0000 0.0000 0.0000 0.0000 0.0000 38.8160
#
#
#
# Elastic Compliance Matrix: (Units=1/GPa)
#
#
# Indices 1 2 3 4 5 6 
#
# 1 0.010219 -0.009737 -0.003636 0.000000 0.000000 0.000000
# 2 -0.009737 0.028486 -0.004963 0.000000 0.000000 0.000000
# 3 -0.003636 -0.004963 0.024836 0.000000 0.000000 0.000000
# 4 0.000000 0.000000 0.000000 0.038499 0.000000 0.000000
# 5 0.000000 0.000000 0.000000 0.000000 0.033643 0.000000
# 6 0.000000 0.000000 0.000000 0.000000 0.000000 0.025763
#
#
# Mechanical properties :
#
#
# Convention : Reuss Voigt Hill
#
# Bulk Modulus (GPa) = 37.22080 60.35260 48.78670
# Shear Modulus (GPa) = 24.14585 29.54556 26.84571
#
# Velocity S-wave (km/s) = 3.54610 3.92262 3.73910
# Velocity P-wave (km/s) = 6.01253 7.20741 6.63691
#
# Compressibility (1/GPa) = 0.02686670
#
# Stress axis : x y z
#
# Youngs Moduli (GPa) = 97.85895 35.10475 40.26421
#
# Poissons Ratio (x) = 0.34183 0.14641
# Poissons Ratio (y) = 0.95290 0.19984
# Poissons Ratio (z) = 0.35585 0.17424
#
# Static dielectric constant tensor:
#      x y z
#    x 1.693730 0.000000 0.000000 
#    y 0.000000 1.653080 0.000000 
#    z 0.000000 0.000000 1.683030 
# 
# From -- ./inp_files/20739.got.cif
#   From: 2010.05.17/outbox.cif.g08.bks.cpg/sg72_11_cif.got.tgz:20739.got - 2010.06.03 17:03:01.
