data_PCOD9527804
_publ_section_title
;
Structure prediction by ZEFSAII (Michael W. Deem and Ramdas Pophale) SiO2 
 PCOD9527804
Probable space group: I B A M
;
_chemical_formula_sum "Si O2"
_cell_formula_units_Z 96
_cell_length_a 9.253909
_cell_length_b 21.076016
_cell_length_c 25.874850
_cell_angle_alpha 90.000000
_cell_angle_beta 90.000000
_cell_angle_gamma 90.000000
_cell_volume 5046.515191
_symmetry_space_group_name_H-M "I B A M"
_symmetry_group_IT_number 72
_symmetry_cell_setting 'orthorhombic'
loop_
_space_group_symop_operation_xyz
x,y,z
-x,-y,z
x,-y,1/2-z
-x,y,1/2-z
-x,-y,-z
x,y,-z
-x,y,1/2+z
x,-y,1/2+z
1/2+x,1/2+y,1/2+z
1/2-x,1/2-y,1/2+z
1/2+x,1/2-y,-z
1/2-x,1/2+y,-z
1/2-x,1/2-y,1/2-z
1/2+x,1/2+y,1/2-z
1/2-x,1/2+y,z
1/2+x,1/2-y,z
loop_
_atom_site_type_symbol
_atom_site_label
_atom_site_fract_x
_atom_site_fract_y
_atom_site_fract_z
Si Si1 0.894479 0.056385 0.060455
Si Si2 0.938222 0.189484 0.440301
Si Si3 0.665883 0.575859 0.753637
Si Si4 0.311543 0.246224 0.120353
Si Si5 0.589186 0.147224 0.303375
Si Si6 0.813712 0.385409 0.360356
O O1 0.751762 0.070939 0.094161
O O2 0.989589 0.120472 0.063176
O O3 0.858994 0.044449 0.000000
O O4 0.000000 0.000000 0.079149
O O5 0.908445 0.204180 0.500000
O O6 0.794738 0.196734 0.406965
O O7 0.054956 0.237647 0.416632
O O8 0.672372 0.500000 0.750000
O O9 0.500000 0.596644 0.750000
O O10 0.768813 0.607237 0.710721
O O11 0.727336 0.595487 0.809033
O O12 0.366709 0.214861 0.173069
O O13 0.227197 0.312232 0.128211
O O14 0.500000 0.154164 0.250000
O O15 0.482298 0.113363 0.344649
#
# Coordination Sequence:
#
# PCOD9527804 Si02
#       6
#    16  16  16  16  16  16
#     4   9  20  38  63  92 123 161 210 258 307 368
#     4  10  21  37  60  88 120 157 202 255 304 363
#     4  10  24  40  62  89 116 160 211 250 302 365
#     4  11  21  38  59  89 120 160 203 245 313 368
#     4  10  23  40  57  86 125 160 198 255 307 359
#     4  10  22  38  59  88 122 160 202 251 312 359
#
# _framework density 19.023028
#
# number of rings (size 3 to 8) (size 9 to 14) (size 15 to 20)
#    0.000    2.000    1.667    0.500    7.000    7.000 
#    0.000    0.000    0.000    0.000    0.000    5.833 
#    0.000    0.000    0.000    0.000    0.000    0.000 
#
# Total GULP energy -267889.162488 kJ/mol
# GULP energy per Si atom -5581.024218 kJ/mol
# Density = 1.897973 g / cm^3
# Si number density = 19.023028 Si / 1000 Ang^3
#
#
#
# Elastic Constant Matrix: (Units=GPa)
#
#
# Indices 1 2 3 4 5 6 
#
# 1 116.5696 29.4394 41.1308 0.0000 0.0000 0.0000
# 2 29.4394 39.8209 30.9312 0.0000 0.0000 0.0000
# 3 41.1308 30.9312 71.9587 0.0000 0.0000 0.0000
# 4 0.0000 0.0000 0.0000 14.6848 0.0000 0.0000
# 5 0.0000 0.0000 0.0000 0.0000 22.3553 0.0000
# 6 0.0000 0.0000 0.0000 0.0000 0.0000 18.3273
#
#
#
# Elastic Compliance Matrix: (Units=1/GPa)
#
#
# Indices 1 2 3 4 5 6 
#
# 1 0.011384 -0.005047 -0.004337 0.000000 0.000000 0.000000
# 2 -0.005047 0.039937 -0.014282 0.000000 0.000000 0.000000
# 3 -0.004337 -0.014282 0.022515 0.000000 0.000000 0.000000
# 4 0.000000 0.000000 0.000000 0.068098 0.000000 0.000000
# 5 0.000000 0.000000 0.000000 0.000000 0.044732 0.000000
# 6 0.000000 0.000000 0.000000 0.000000 0.000000 0.054563
#
#
# Mechanical properties :
#
#
# Convention : Reuss Voigt Hill
#
# Bulk Modulus (GPa) = 37.73109 47.92800 42.82955
# Shear Modulus (GPa) = 16.81259 19.53002 18.17131
#
# Velocity S-wave (km/s) = 2.97611 3.20762 3.09403
# Velocity P-wave (km/s) = 5.62913 6.24242 5.94369
#
# Compressibility (1/GPa) = 0.02650334
#
# Stress axis : x y z
#
# Youngs Moduli (GPa) = 87.84636 25.03927 44.41427
#
# Poissons Ratio (x) = 0.12636 0.19264
# Poissons Ratio (y) = 0.44333 0.63434
# Poissons Ratio (z) = 0.38102 0.35762
#
# Static dielectric constant tensor:
#      x y z
#    x 1.669110 0.000000 0.000000 
#    y 0.000000 1.555300 0.000000 
#    z 0.000000 0.000000 1.669700 
# 
# From -- ./inp_files/47312.got.cif
#   From: 2010.05.17/outbox.cif.g08.bks.cpg/sg72_24_cif.got.tgz:47312.got - 2010.06.03 17:03:01.
