data_PCOD9527780
_publ_section_title
;
Structure prediction by ZEFSAII (Michael W. Deem and Ramdas Pophale) SiO2 
 PCOD9527780
Probable space group: I B A M
;
_chemical_formula_sum "Si O2"
_cell_formula_units_Z 72
_cell_length_a 5.782656
_cell_length_b 27.189485
_cell_length_c 23.090596
_cell_angle_alpha 90.000000
_cell_angle_beta 90.000000
_cell_angle_gamma 90.000000
_cell_volume 3630.475264
_symmetry_space_group_name_H-M "I B A M"
_symmetry_group_IT_number 72
_symmetry_cell_setting 'orthorhombic'
loop_
_space_group_symop_operation_xyz
x,y,z
-x,-y,z
x,-y,1/2-z
-x,y,1/2-z
-x,-y,-z
x,y,-z
-x,y,1/2+z
x,-y,1/2+z
1/2+x,1/2+y,1/2+z
1/2-x,1/2-y,1/2+z
1/2+x,1/2-y,-z
1/2-x,1/2+y,-z
1/2-x,1/2-y,1/2-z
1/2+x,1/2+y,1/2-z
1/2-x,1/2+y,z
1/2+x,1/2-y,z
loop_
_atom_site_type_symbol
_atom_site_label
_atom_site_fract_x
_atom_site_fract_y
_atom_site_fract_z
Si Si1 0.736852 0.372463 0.141332
Si Si2 0.613959 0.052969 0.824937
Si Si3 0.847335 0.277408 0.068486
Si Si4 0.500000 0.398360 0.750000
Si Si5 0.576408 0.556701 0.065128
O O1 0.828722 0.324946 0.109042
O O2 0.563022 0.364477 0.194927
O O3 0.614999 0.408263 0.094353
O O4 0.932109 0.403346 0.173872
O O5 0.809741 0.065211 0.778222
O O6 0.716689 0.055694 0.889577
O O7 0.500000 0.000000 0.816465
O O8 0.600527 0.248334 0.078371
O O9 0.844815 0.290293 0.000000
O O10 0.500000 0.500000 0.062432
O O11 0.632494 0.573366 0.000000
#
# Coordination Sequence:
#
# PCOD9527780 Si02
#       5
#    16  16  16   8  16
#     4  11  23  42  65  92 128 176 223 272 334 395
#     4  11  23  41  61  93 130 180 222 264 327 395
#     4  10  24  46  73 103 133 171 224 284 348 415
#     4  10  26  41  62  92 132 172 232 276 325 386
#     4  10  21  37  58  93 134 166 209 264 327 399
#
# _framework density 19.832115999999999
#
# number of rings (size 3 to 8) (size 9 to 14) (size 15 to 20)
#    0.000    1.556    2.222    1.333    6.222    4.889 
#    0.000    1.111    0.000    0.000    0.000    0.000 
#    0.000    0.000    0.000    0.000    0.000    0.000 
#
# Total GULP energy -200759.432856 kJ/mol
# GULP energy per Si atom -5576.650913 kJ/mol
# Density = 1.978698 g / cm^3
# Si number density = 19.832116 Si / 1000 Ang^3
#
#
#
# Elastic Constant Matrix: (Units=GPa)
#
#
# Indices 1 2 3 4 5 6 
#
# 1 70.5053 22.0342 34.1630 0.0000 0.0000 0.0000
# 2 22.0342 72.9988 30.3265 0.0000 0.0000 0.0000
# 3 34.1630 30.3265 140.7767 0.0000 0.0000 0.0000
# 4 0.0000 0.0000 0.0000 22.1468 0.0000 0.0000
# 5 0.0000 0.0000 0.0000 0.0000 -7.6380 0.0000
# 6 0.0000 0.0000 0.0000 0.0000 0.0000 23.9002
#
#
#
# Elastic Compliance Matrix: (Units=1/GPa)
#
#
# Indices 1 2 3 4 5 6 
#
# 1 0.016956 -0.003744 -0.003308 0.000000 0.000000 0.000000
# 2 -0.003744 0.015872 -0.002511 0.000000 0.000000 0.000000
# 3 -0.003308 -0.002511 0.008447 0.000000 0.000000 0.000000
# 4 0.000000 0.000000 0.000000 0.045153 0.000000 0.000000
# 5 0.000000 0.000000 0.000000 0.000000 -0.130925 0.000000
# 6 0.000000 0.000000 0.000000 0.000000 0.000000 0.041841
#
#
# Mechanical properties :
#
#
# Convention : Reuss Voigt Hill
#
# Bulk Modulus (GPa) = 45.14702 50.81426 47.98064
# Shear Modulus (GPa) = 209.61396 20.86560 115.23978
#
# Velocity S-wave (km/s) = 10.29192 3.24715 7.63111
# Velocity P-wave (km/s) = 12.80803 6.30368 10.09411
#
# Compressibility (1/GPa) = 0.02214986
#
# Stress axis : x y z
#
# Youngs Moduli (GPa) = 58.97477 63.00437 118.38284
#
# Poissons Ratio (x) = 0.23587 0.39166
# Poissons Ratio (y) = 0.22079 0.29722
# Poissons Ratio (z) = 0.19511 0.15818
#
# Static dielectric constant tensor:
#      x y z
#    x 1.919470 0.000000 0.000000 
#    y 0.000000 1.711610 0.000000 
#    z 0.000000 0.000000 1.719760 
# 
# From -- ./inp_files/41469.got.cif
#   From: 2010.05.17/outbox.cif.g08.bks.cpg/sg72_21_cif.got.tgz:41469.got - 2010.06.03 17:03:01.
