data_PCOD9527389
_publ_section_title
;
Structure prediction by ZEFSAII (Michael W. Deem and Ramdas Pophale) SiO2 
 PCOD9527389
Probable space group: I B A M
;
_chemical_formula_sum "Si O2"
_cell_formula_units_Z 88
_cell_length_a 15.342118
_cell_length_b 18.260961
_cell_length_c 14.034539
_cell_angle_alpha 90.000000
_cell_angle_beta 90.000000
_cell_angle_gamma 90.000000
_cell_volume 3931.941967
_symmetry_space_group_name_H-M "I B A M"
_symmetry_group_IT_number 72
_symmetry_cell_setting 'orthorhombic'
loop_
_space_group_symop_operation_xyz
x,y,z
-x,-y,z
x,-y,1/2-z
-x,y,1/2-z
-x,-y,-z
x,y,-z
-x,y,1/2+z
x,-y,1/2+z
1/2+x,1/2+y,1/2+z
1/2-x,1/2-y,1/2+z
1/2+x,1/2-y,-z
1/2-x,1/2+y,-z
1/2-x,1/2-y,1/2-z
1/2+x,1/2+y,1/2-z
1/2-x,1/2+y,z
1/2+x,1/2-y,z
loop_
_atom_site_type_symbol
_atom_site_label
_atom_site_fract_x
_atom_site_fract_y
_atom_site_fract_z
Si Si1 0.096008 0.629045 0.274941
Si Si2 0.166171 0.247986 0.108790
Si Si3 0.868234 0.091674 0.689243
Si Si4 0.634253 0.241713 0.392689
Si Si5 0.447521 0.603407 0.392934
Si Si6 0.721691 0.000000 0.750000
O O1 0.102930 0.686851 0.360730
O O2 0.123438 0.679096 0.184808
O O3 0.161159 0.562805 0.293014
O O4 0.000000 0.602236 0.250000
O O5 0.154028 0.176980 0.174392
O O6 0.267071 0.273036 0.117405
O O7 0.150729 0.225536 0.000000
O O8 0.896682 0.077526 0.798900
O O9 0.783007 0.043049 0.675000
O O10 0.952668 0.079836 0.623777
O O11 0.628104 0.211833 0.500000
O O12 0.565602 0.308247 0.384890
O O13 0.418569 0.583591 0.500000
#
# Coordination Sequence:
#
# PCOD9527389 Si02
#       6
#    16  16  16  16  16   8
#     4  12  24  43  68  98 136 177 227 288 341 402
#     4  11  22  41  72 102 131 175 232 287 340 400
#     4  11  22  42  66  94 138 181 222 282 337 408
#     4  10  20  38  68 103 133 165 218 285 342 395
#     4  10  21  38  66 102 131 167 225 284 339 394
#     4  12  27  45  66  92 140 190 230 265 347 426
#
# _framework density 22.380800000000001
#
# number of rings (size 3 to 8) (size 9 to 14) (size 15 to 20)
#    0.000    1.091    3.636    3.545    0.000    3.636 
#    0.000    6.364    0.000    2.182    0.000    0.000 
#    0.000    0.000    0.000    0.000    0.000    0.000 
#
# Total GULP energy -246022.758955 kJ/mol
# GULP energy per Si atom -5591.426340 kJ/mol
# Density = 2.232986 g / cm^3
# Si number density = 22.380800 Si / 1000 Ang^3
#
#
#
# Elastic Constant Matrix: (Units=GPa)
#
#
# Indices 1 2 3 4 5 6 
#
# 1 110.1946 44.5190 16.7682 0.0000 0.0000 0.0000
# 2 44.5190 102.7770 12.5988 0.0000 0.0000 0.0000
# 3 16.7682 12.5988 115.2500 0.0000 0.0000 0.0000
# 4 0.0000 0.0000 0.0000 9.2922 0.0000 0.0000
# 5 0.0000 0.0000 0.0000 0.0000 25.8771 0.0000
# 6 0.0000 0.0000 0.0000 0.0000 0.0000 50.3520
#
#
#
# Elastic Compliance Matrix: (Units=1/GPa)
#
#
# Indices 1 2 3 4 5 6 
#
# 1 0.011138 -0.004689 -0.001108 0.000000 0.000000 0.000000
# 2 -0.004689 0.011836 -0.000612 0.000000 0.000000 0.000000
# 3 -0.001108 -0.000612 0.008905 0.000000 0.000000 0.000000
# 4 0.000000 0.000000 0.000000 0.107618 0.000000 0.000000
# 5 0.000000 0.000000 0.000000 0.000000 0.038644 0.000000
# 6 0.000000 0.000000 0.000000 0.000000 0.000000 0.019860
#
#
# Mechanical properties :
#
#
# Convention : Reuss Voigt Hill
#
# Bulk Modulus (GPa) = 52.46086 52.88818 52.67452
# Shear Modulus (GPa) = 23.02339 34.05996 28.54167
#
# Velocity S-wave (km/s) = 3.21083 3.90531 3.57497
# Velocity P-wave (km/s) = 6.10221 6.63457 6.37395
#
# Compressibility (1/GPa) = 0.01906183
#
# Stress axis : x y z
#
# Youngs Moduli (GPa) = 89.78551 84.49013 112.29832
#
# Poissons Ratio (x) = 0.39614 0.12442
# Poissons Ratio (y) = 0.42097 0.06869
# Poissons Ratio (z) = 0.09948 0.05168
#
# Static dielectric constant tensor:
#      x y z
#    x 1.868550 0.000000 0.000000 
#    y 0.000000 1.841420 0.000000 
#    z 0.000000 0.000000 1.805910 
# 
# From -- ./inp_files/23218.got.cif
#   From: 2010.05.17/outbox.cif.g08.bks.cpg/sg72_12_cif.got.tgz:23218.got - 2010.06.03 17:03:01.
