data_PCOD9527090
_publ_section_title
;
Structure prediction by ZEFSAII (Michael W. Deem and Ramdas Pophale) SiO2 
 PCOD9527090
Probable space group: I B A M
;
_chemical_formula_sum "Si O2"
_cell_formula_units_Z 64
_cell_length_a 11.285107
_cell_length_b 9.568022
_cell_length_c 24.922109
_cell_angle_alpha 90.000000
_cell_angle_beta 90.000000
_cell_angle_gamma 90.000000
_cell_volume 2690.993431
_symmetry_space_group_name_H-M "I B A M"
_symmetry_group_IT_number 72
_symmetry_cell_setting 'orthorhombic'
loop_
_space_group_symop_operation_xyz
x,y,z
-x,-y,z
x,-y,1/2-z
-x,y,1/2-z
-x,-y,-z
x,y,-z
-x,y,1/2+z
x,-y,1/2+z
1/2+x,1/2+y,1/2+z
1/2-x,1/2-y,1/2+z
1/2+x,1/2-y,-z
1/2-x,1/2+y,-z
1/2-x,1/2-y,1/2-z
1/2+x,1/2+y,1/2-z
1/2-x,1/2+y,z
1/2+x,1/2-y,z
loop_
_atom_site_type_symbol
_atom_site_label
_atom_site_fract_x
_atom_site_fract_y
_atom_site_fract_z
Si Si1 0.900198 0.821510 0.890926
Si Si2 0.711761 0.629164 0.711027
Si Si3 0.764964 0.924137 0.560818
Si Si4 0.095766 0.610710 0.115519
O O1 0.899351 0.834993 0.826435
O O2 0.867028 0.973848 0.914469
O O3 0.156926 0.534998 0.934586
O O4 0.025663 0.748536 0.903101
O O5 0.693743 0.500000 0.750000
O O6 0.750000 0.750000 0.750000
O O7 0.812465 0.614754 0.665002
O O8 0.792526 0.886764 0.500000
O O9 0.704497 0.789747 0.590732
O O10 0.000000 0.500000 0.135810
#
# Coordination Sequence:
#
# PCOD9527090 Si02
#       4
#    16  16  16  16
#     4  10  21  38  57  85 118 150 196 246 286 341
#     4  11  22  38  59  82 111 150 193 240 295 347
#     4  10  20  36  60  88 119 157 196 237 288 342
#     4   9  20  37  58  83 114 152 197 238 278 346
#
# _framework density 23.783038000000001
#
# number of rings (size 3 to 8) (size 9 to 14) (size 15 to 20)
#    0.000    2.000    0.000    5.250    0.000    9.000 
#    0.000   12.500    0.000    7.500    0.000    0.000 
#    0.000    0.000    0.000    0.000    0.000    0.000 
#
# Total GULP energy -178461.717539 kJ/mol
# GULP energy per Si atom -5576.928673 kJ/mol
# Density = 2.372891 g / cm^3
# Si number density = 23.783038 Si / 1000 Ang^3
#
#
#
# Elastic Constant Matrix: (Units=GPa)
#
#
# Indices 1 2 3 4 5 6 
#
# 1 40.4483 -3.9799 -18.7998 0.0000 0.0000 0.0000
# 2 -3.9799 165.2476 37.6750 0.0000 0.0000 0.0000
# 3 -18.7998 37.6750 131.0756 0.0000 0.0000 0.0000
# 4 0.0000 0.0000 0.0000 42.9297 0.0000 0.0000
# 5 0.0000 0.0000 0.0000 0.0000 15.5284 0.0000
# 6 0.0000 0.0000 0.0000 0.0000 0.0000 41.4502
#
#
#
# Elastic Compliance Matrix: (Units=1/GPa)
#
#
# Indices 1 2 3 4 5 6 
#
# 1 0.026498 -0.000244 0.003871 0.000000 0.000000 0.000000
# 2 -0.000244 0.006478 -0.001897 0.000000 0.000000 0.000000
# 3 0.003871 -0.001897 0.008730 0.000000 0.000000 0.000000
# 4 0.000000 0.000000 0.000000 0.023294 0.000000 0.000000
# 5 0.000000 0.000000 0.000000 0.000000 0.064398 0.000000
# 6 0.000000 0.000000 0.000000 0.000000 0.000000 0.024125
#
#
# Mechanical properties :
#
#
# Convention : Reuss Voigt Hill
#
# Bulk Modulus (GPa) = 22.14132 40.72916 31.43524
# Shear Modulus (GPa) = 30.28116 41.44009 35.86062
#
# Velocity S-wave (km/s) = 3.57210 4.17876 3.88728
# Velocity P-wave (km/s) = 5.13255 6.35965 5.77877
#
# Compressibility (1/GPa) = 0.04516442
#
# Stress axis : x y z
#
# Youngs Moduli (GPa) = 37.73883 154.36501 114.55253
#
# Poissons Ratio (x) = 0.03771 -0.44340
# Poissons Ratio (y) = 0.00922 0.21731
# Poissons Ratio (z) = -0.14608 0.29284
#
# Static dielectric constant tensor:
#      x y z
#    x 2.063900 0.000000 0.000000 
#    y 0.000000 1.946300 0.000000 
#    z 0.000000 0.000000 1.879820 
# 
# From -- ./inp_files/42925.got.cif
#   From: 2010.05.17/outbox.cif.g08.bks.cpg/sg72_22_cif.got.tgz:42925.got - 2010.06.03 17:03:01.
