data_PCOD9527395
_publ_section_title
;
Structure prediction by ZEFSAII (Michael W. Deem and Ramdas Pophale) SiO2 
 PCOD9527395
Probable space group: I B A M
;
_chemical_formula_sum "Si O2"
_cell_formula_units_Z 56
_cell_length_a 20.251738
_cell_length_b 7.082136
_cell_length_c 14.471564
_cell_angle_alpha 90.000000
_cell_angle_beta 90.000000
_cell_angle_gamma 90.000000
_cell_volume 2075.592211
_symmetry_space_group_name_H-M "I B A M"
_symmetry_group_IT_number 72
_symmetry_cell_setting 'orthorhombic'
loop_
_space_group_symop_operation_xyz
x,y,z
-x,-y,z
x,-y,1/2-z
-x,y,1/2-z
-x,-y,-z
x,y,-z
-x,y,1/2+z
x,-y,1/2+z
1/2+x,1/2+y,1/2+z
1/2-x,1/2-y,1/2+z
1/2+x,1/2-y,-z
1/2-x,1/2+y,-z
1/2-x,1/2-y,1/2-z
1/2+x,1/2+y,1/2-z
1/2-x,1/2+y,z
1/2+x,1/2-y,z
loop_
_atom_site_type_symbol
_atom_site_label
_atom_site_fract_x
_atom_site_fract_y
_atom_site_fract_z
Si Si1 0.162197 0.282700 0.856305
Si Si2 0.093600 0.881827 0.000000
Si Si3 0.188308 0.711349 0.136798
Si Si4 0.486964 0.774981 0.858035
O O1 0.161506 0.503417 0.885006
O O2 0.170534 0.264168 0.744992
O O3 0.234048 0.210303 0.885209
O O4 0.088532 0.221738 0.884763
O O5 0.151964 0.869076 0.079460
O O6 0.038383 0.831306 0.079435
O O7 0.500000 0.737241 0.750000
O O8 0.500000 0.000000 0.871071
#
# Coordination Sequence:
#
# PCOD9527395 Si02
#       4
#    16   8  16  16
#     4  10  20  39  57  86 115 161 182 246 286 341
#     4  12  21  32  58  91 111 152 192 250 276 343
#     4  10  21  35  58  85 120 148 200 229 291 343
#     4  11  19  34  58  85 115 145 201 244 285 326
#
# _framework density 26.980252
#
# number of rings (size 3 to 8) (size 9 to 14) (size 15 to 20)
#    0.000    1.429    5.714    2.143    0.000    2.286 
#    0.000    0.000    0.000    3.429    0.000    0.000 
#    0.000    0.000    0.000    0.000    0.000    0.000 
#
# Total GULP energy -155964.749916 kJ/mol
# GULP energy per Si atom -5570.169640 kJ/mol
# Density = 2.691884 g / cm^3
# Si number density = 26.980252 Si / 1000 Ang^3
#
#
#
# Elastic Constant Matrix: (Units=GPa)
#
#
# Indices 1 2 3 4 5 6 
#
# 1 303.1405 37.3120 19.4596 0.0000 0.0000 0.0000
# 2 37.3120 77.0278 -6.0290 0.0000 0.0000 0.0000
# 3 19.4596 -6.0290 100.7896 0.0000 0.0000 0.0000
# 4 0.0000 0.0000 0.0000 -282.9033 0.0000 0.0000
# 5 0.0000 0.0000 0.0000 0.0000 -139.9561 0.0000
# 6 0.0000 0.0000 0.0000 0.0000 0.0000 61.8541
#
#
#
# Elastic Compliance Matrix: (Units=1/GPa)
#
#
# Indices 1 2 3 4 5 6 
#
# 1 0.003570 -0.001792 -0.000797 0.000000 0.000000 0.000000
# 2 -0.001792 0.013943 0.001180 0.000000 0.000000 0.000000
# 3 -0.000797 0.001180 0.010146 0.000000 0.000000 0.000000
# 4 0.000000 0.000000 0.000000 -0.003535 0.000000 0.000000
# 5 0.000000 0.000000 0.000000 0.000000 -0.007145 0.000000
# 6 0.000000 0.000000 0.000000 0.000000 0.000000 0.016167
#
#
# Mechanical properties :
#
#
# Convention : Reuss Voigt Hill
#
# Bulk Modulus (GPa) = 40.25392 64.71588 52.48490
# Shear Modulus (GPa) = 113.00966 -43.52001 34.74483
#
# Velocity S-wave (km/s) = 6.47897 -4.02061 3.59247
# Velocity P-wave (km/s) = 8.42149 1.57629 6.05831
#
# Compressibility (1/GPa) = 0.02484230
#
# Stress axis : x y z
#
# Youngs Moduli (GPa) = 280.07396 71.72234 98.56070
#
# Poissons Ratio (x) = 0.12852 0.07851
# Poissons Ratio (y) = 0.50186 -0.11630
# Poissons Ratio (z) = 0.22309 -0.08463
#
# Static dielectric constant tensor:
#      x y z
#    x 2.033970 0.000000 0.000000 
#    y 0.000000 2.219610 0.000000 
#    z 0.000000 0.000000 1.907180 
# 
# From -- ./inp_files/18386.got.cif
#   From: 2010.05.17/outbox.cif.g08.bks.cpg/sg72_10_cif.got.tgz:18386.got - 2010.06.03 17:03:01.
