data_PCOD9527089
_publ_section_title
;
Structure prediction by ZEFSAII (Michael W. Deem and Ramdas Pophale) SiO2 
 PCOD9527089
Probable space group: I B A M
;
_chemical_formula_sum "Si O2"
_cell_formula_units_Z 112
_cell_length_a 15.953661
_cell_length_b 15.317926
_cell_length_c 24.165990
_cell_angle_alpha 90.000000
_cell_angle_beta 90.000000
_cell_angle_gamma 90.000000
_cell_volume 5905.612105
_symmetry_space_group_name_H-M "I B A M"
_symmetry_group_IT_number 72
_symmetry_cell_setting 'orthorhombic'
loop_
_space_group_symop_operation_xyz
x,y,z
-x,-y,z
x,-y,1/2-z
-x,y,1/2-z
-x,-y,-z
x,y,-z
-x,y,1/2+z
x,-y,1/2+z
1/2+x,1/2+y,1/2+z
1/2-x,1/2-y,1/2+z
1/2+x,1/2-y,-z
1/2-x,1/2+y,-z
1/2-x,1/2-y,1/2-z
1/2+x,1/2+y,1/2-z
1/2-x,1/2+y,z
1/2+x,1/2-y,z
loop_
_atom_site_type_symbol
_atom_site_label
_atom_site_fract_x
_atom_site_fract_y
_atom_site_fract_z
Si Si1 0.091833 0.527915 0.937689
Si Si2 0.126861 0.330139 0.645490
Si Si3 0.796879 0.153338 0.161044
Si Si4 0.943157 0.726442 0.140321
Si Si5 0.486917 0.598059 0.684535
Si Si6 0.189937 0.651423 0.438872
Si Si7 0.137553 0.397840 0.232530
O O1 0.141058 0.587963 0.894301
O O2 0.137893 0.436978 0.943581
O O3 0.000000 0.500000 0.916043
O O4 0.082705 0.566767 0.000000
O O5 0.198285 0.257416 0.650074
O O6 0.116172 0.353195 0.709581
O O7 0.038199 0.294572 0.622267
O O8 0.890537 0.124500 0.174390
O O9 0.764984 0.123602 0.101371
O O10 0.730945 0.122249 0.207919
O O11 0.873182 0.716520 0.093184
O O12 0.918505 0.651738 0.185971
O O13 0.951790 0.825029 0.162999
O O14 0.500000 0.500000 0.662058
O O15 0.500000 0.595347 0.750000
O O16 0.214473 0.682273 0.500000
O O17 0.128205 0.500000 0.250000
#
# Coordination Sequence:
#
# PCOD9527089 Si02
#       7
#    16  16  16  16  16  16  16
#     4  10  20  36  60  88 118 157 203 252 316 382
#     4  11  20  34  58  82 121 154 196 244 297 377
#     4  10  23  40  56  88 120 162 207 251 308 378
#     4  10  20  37  58  90 118 156 206 248 311 375
#     4  10  22  41  65  84 119 169 215 257 307 378
#     4  10  21  40  61  85 122 157 197 259 320 377
#     4  11  23  35  56  90 128 158 194 252 320 374
#
# _framework density 18.965011000000001
#
# number of rings (size 3 to 8) (size 9 to 14) (size 15 to 20)
#    0.000    1.714    1.429    4.286    2.000    2.286 
#    5.143    2.143    0.000    0.857    0.000    0.000 
#    0.000    0.000    0.000    0.000    0.000    0.000 
#
# Total GULP energy -311769.551656 kJ/mol
# GULP energy per Si atom -5567.313422 kJ/mol
# Density = 1.892185 g / cm^3
# Si number density = 18.965011 Si / 1000 Ang^3
#
#
#
# Elastic Constant Matrix: (Units=GPa)
#
#
# Indices 1 2 3 4 5 6 
#
# 1 70.6869 22.6722 30.0486 0.0000 0.0000 0.0000
# 2 22.6722 91.9747 13.7495 0.0000 0.0000 0.0000
# 3 30.0486 13.7495 94.4914 0.0000 0.0000 0.0000
# 4 0.0000 0.0000 0.0000 23.1235 0.0000 0.0000
# 5 0.0000 0.0000 0.0000 0.0000 -68.2470 0.0000
# 6 0.0000 0.0000 0.0000 0.0000 0.0000 16.4567
#
#
#
# Elastic Compliance Matrix: (Units=1/GPa)
#
#
# Indices 1 2 3 4 5 6 
#
# 1 0.017419 -0.003543 -0.005024 0.000000 0.000000 0.000000
# 2 -0.003543 0.011835 -0.000595 0.000000 0.000000 0.000000
# 3 -0.005024 -0.000595 0.012267 0.000000 0.000000 0.000000
# 4 0.000000 0.000000 0.000000 0.043246 0.000000 0.000000
# 5 0.000000 0.000000 0.000000 0.000000 -0.014653 0.000000
# 6 0.000000 0.000000 0.000000 0.000000 0.000000 0.060766
#
#
# Mechanical properties :
#
#
# Convention : Reuss Voigt Hill
#
# Bulk Modulus (GPa) = 43.10930 43.34373 43.22652
# Shear Modulus (GPa) = 31.86011 6.97882 19.41946
#
# Velocity S-wave (km/s) = 4.10316 1.92037 3.20341
# Velocity P-wave (km/s) = 6.72519 5.27459 6.04357
#
# Compressibility (1/GPa) = 0.02319685
#
# Stress axis : x y z
#
# Youngs Moduli (GPa) = 57.40932 84.49588 81.51838
#
# Poissons Ratio (x) = 0.29935 0.40952
# Poissons Ratio (y) = 0.20339 0.04854
# Poissons Ratio (z) = 0.28841 0.05031
#
# Static dielectric constant tensor:
#      x y z
#    x 1.721350 0.000000 0.000000 
#    y 0.000000 1.756680 0.000000 
#    z 0.000000 0.000000 1.726220 
# 
# From -- ./inp_files/44374.got.cif
#   From: 2010.05.17/outbox.cif.g08.bks.cpg/sg72_23_cif.got.tgz:44374.got - 2010.06.03 17:03:01.
