data_PCOD9527057
_publ_section_title
;
Structure prediction by ZEFSAII (Michael W. Deem and Ramdas Pophale) SiO2 
 PCOD9527057
Probable space group: I B A M
;
_chemical_formula_sum "Si O2"
_cell_formula_units_Z 80
_cell_length_a 13.065020
_cell_length_b 16.435239
_cell_length_c 18.868303
_cell_angle_alpha 90.000000
_cell_angle_beta 90.000000
_cell_angle_gamma 90.000000
_cell_volume 4051.528933
_symmetry_space_group_name_H-M "I B A M"
_symmetry_group_IT_number 72
_symmetry_cell_setting 'orthorhombic'
loop_
_space_group_symop_operation_xyz
x,y,z
-x,-y,z
x,-y,1/2-z
-x,y,1/2-z
-x,-y,-z
x,y,-z
-x,y,1/2+z
x,-y,1/2+z
1/2+x,1/2+y,1/2+z
1/2-x,1/2-y,1/2+z
1/2+x,1/2-y,-z
1/2-x,1/2+y,-z
1/2-x,1/2-y,1/2-z
1/2+x,1/2+y,1/2-z
1/2-x,1/2+y,z
1/2+x,1/2-y,z
loop_
_atom_site_type_symbol
_atom_site_label
_atom_site_fract_x
_atom_site_fract_y
_atom_site_fract_z
Si Si1 0.319578 0.602292 0.384305
Si Si2 0.331804 0.041623 0.500000
Si Si3 0.500000 0.500000 0.128468
Si Si4 0.844189 0.638876 0.500000
Si Si5 0.712580 0.275387 0.109904
Si Si6 0.943675 0.712431 0.000000
Si Si7 0.888847 0.129159 0.728346
O O1 0.237403 0.551497 0.429223
O O2 0.428516 0.565810 0.410335
O O3 0.284082 0.695494 0.395441
O O4 0.331720 0.598834 0.298948
O O5 0.403942 0.119640 0.500000
O O6 0.381008 0.953386 0.500000
O O7 0.424541 0.555654 0.176730
O O8 0.773057 0.655465 0.432369
O O9 0.935558 0.703979 0.500000
O O10 0.680614 0.307417 0.186285
O O11 0.608161 0.254926 0.067639
O O12 0.000000 0.165992 0.750000
#
# Coordination Sequence:
#
# PCOD9527057 Si02
#       7
#    16   8   8   8  16   8  16
#     4  10  20  37  56  84 120 150 196 249 296 362
#     4  10  21  39  56  82 114 160 199 240 301 360
#     4  10  21  35  58  87 118 156 195 246 311 357
#     4  11  22  37  62  83 116 160 197 244 301 356
#     4  10  22  38  57  91 118 156 200 245 304 363
#     4   9  22  39  58  81 122 150 201 246 291 364
#     4  10  20  36  59  85 121 158 196 248 307 361
#
# _framework density 19.745632000000001
#
# number of rings (size 3 to 8) (size 9 to 14) (size 15 to 20)
#    0.000    2.000    0.000    5.400    5.600    0.400 
#    0.000    0.000    0.000    0.000    0.000    2.800 
#    0.000    0.000    0.000    0.000    0.000    0.000 
#
# Total GULP energy -222841.338011 kJ/mol
# GULP energy per Si atom -5571.033450 kJ/mol
# Density = 1.970069 g / cm^3
# Si number density = 19.745632 Si / 1000 Ang^3
#
#
#
# Elastic Constant Matrix: (Units=GPa)
#
#
# Indices 1 2 3 4 5 6 
#
# 1 80.2126 19.8820 42.8058 0.0000 0.0000 0.0000
# 2 19.8820 74.2494 12.8878 0.0000 0.0000 0.0000
# 3 42.8058 12.8878 81.3354 0.0000 0.0000 0.0000
# 4 0.0000 0.0000 0.0000 -14.9678 0.0000 0.0000
# 5 0.0000 0.0000 0.0000 0.0000 14.3810 0.0000
# 6 0.0000 0.0000 0.0000 0.0000 0.0000 26.0478
#
#
#
# Elastic Compliance Matrix: (Units=1/GPa)
#
#
# Indices 1 2 3 4 5 6 
#
# 1 0.018081 -0.003280 -0.008996 0.000000 0.000000 0.000000
# 2 -0.003280 0.014444 -0.000562 0.000000 0.000000 0.000000
# 3 -0.008996 -0.000562 0.017118 0.000000 0.000000 0.000000
# 4 0.000000 0.000000 0.000000 -0.066810 0.000000 0.000000
# 5 0.000000 0.000000 0.000000 0.000000 0.069536 0.000000
# 6 0.000000 0.000000 0.000000 0.000000 0.000000 0.038391
#
#
# Mechanical properties :
#
#
# Convention : Reuss Voigt Hill
#
# Bulk Modulus (GPa) = 41.72536 42.99428 42.35982
# Shear Modulus (GPa) = 40.18476 15.77366 27.97921
#
# Velocity S-wave (km/s) = 4.51613 2.82945 3.76837
# Velocity P-wave (km/s) = 6.95494 5.70050 6.35873
#
# Compressibility (1/GPa) = 0.02396624
#
# Stress axis : x y z
#
# Youngs Moduli (GPa) = 55.30810 69.23265 58.41711
#
# Poissons Ratio (x) = 0.22709 0.52551
# Poissons Ratio (y) = 0.18141 0.03286
# Poissons Ratio (z) = 0.49754 0.03894
#
# Static dielectric constant tensor:
#      x y z
#    x 1.716970 0.000000 0.000000 
#    y 0.000000 1.706320 0.000000 
#    z 0.000000 0.000000 1.700040 
# 
# From -- ./inp_files/36838.got.cif
#   From: 2010.05.17/outbox.cif.g08.bks.cpg/sg72_19_cif.got.tgz:36838.got - 2010.06.03 17:03:01.
