data_PCOD9527186
_publ_section_title
;
Structure prediction by ZEFSAII (Michael W. Deem and Ramdas Pophale) SiO2 
 PCOD9527186
Probable space group: I B A M
;
_chemical_formula_sum "Si O2"
_cell_formula_units_Z 96
_cell_length_a 9.513998
_cell_length_b 29.168624
_cell_length_c 19.345712
_cell_angle_alpha 90.000000
_cell_angle_beta 90.000000
_cell_angle_gamma 90.000000
_cell_volume 5368.632994
_symmetry_space_group_name_H-M "I B A M"
_symmetry_group_IT_number 72
_symmetry_cell_setting 'orthorhombic'
loop_
_space_group_symop_operation_xyz
x,y,z
-x,-y,z
x,-y,1/2-z
-x,y,1/2-z
-x,-y,-z
x,y,-z
-x,y,1/2+z
x,-y,1/2+z
1/2+x,1/2+y,1/2+z
1/2-x,1/2-y,1/2+z
1/2+x,1/2-y,-z
1/2-x,1/2+y,-z
1/2-x,1/2-y,1/2-z
1/2+x,1/2+y,1/2-z
1/2-x,1/2+y,z
1/2+x,1/2-y,z
loop_
_atom_site_type_symbol
_atom_site_label
_atom_site_fract_x
_atom_site_fract_y
_atom_site_fract_z
Si Si1 0.378935 0.360055 0.175047
Si Si2 0.617726 0.254299 0.299692
Si Si3 0.118299 0.376863 0.079155
Si Si4 0.952825 0.552557 0.327133
Si Si5 0.685003 0.390232 0.171149
Si Si6 0.348818 0.184761 0.080319
O O1 0.421810 0.306813 0.183338
O O2 0.261028 0.364706 0.117580
O O3 0.516878 0.390690 0.158932
O O4 0.311596 0.374309 0.248715
O O5 0.500000 0.232396 0.250000
O O6 0.750000 0.250000 0.250000
O O7 0.648624 0.228997 0.371192
O O8 0.039711 0.417709 0.118573
O O9 0.006862 0.335332 0.081224
O O10 0.144245 0.389019 0.000000
O O11 0.787346 0.565541 0.335154
O O12 0.000000 0.500000 0.334726
O O13 0.000000 0.566926 0.250000
O O14 0.751444 0.352526 0.119535
O O15 0.307794 0.191534 0.000000
#
# Coordination Sequence:
#
# PCOD9527186 Si02
#       6
#    16  16  16  16  16  16
#     4  11  20  36  56  86 114 159 199 238 296 356
#     4  12  21  34  55  82 112 159 209 248 288 344
#     4  10  22  38  59  86 118 153 189 240 305 359
#     4  10  20  37  65  90 110 146 196 245 289 355
#     4  10  20  37  59  83 117 153 195 243 299 356
#     4  10  22  37  55  84 116 157 207 254 294 337
#
# _framework density 17.881647999999998
#
# number of rings (size 3 to 8) (size 9 to 14) (size 15 to 20)
#    0.000    1.500    5.000    1.000    0.000    1.667 
#    0.000    5.000    0.000    1.000    0.000    0.000 
#    0.000    0.000    0.000    0.000    0.000    0.000 
#
# Total GULP energy -267604.542300 kJ/mol
# GULP energy per Si atom -5575.094631 kJ/mol
# Density = 1.784095 g / cm^3
# Si number density = 17.881648 Si / 1000 Ang^3
#
#
#
# Elastic Constant Matrix: (Units=GPa)
#
#
# Indices 1 2 3 4 5 6 
#
# 1 102.7204 25.0266 63.2312 0.0000 0.0000 0.0000
# 2 25.0266 64.6540 38.0162 0.0000 0.0000 0.0000
# 3 63.2312 38.0162 151.3482 0.0000 0.0000 0.0000
# 4 0.0000 0.0000 0.0000 25.7227 0.0000 0.0000
# 5 0.0000 0.0000 0.0000 0.0000 26.6623 0.0000
# 6 0.0000 0.0000 0.0000 0.0000 0.0000 16.5032
#
#
#
# Elastic Compliance Matrix: (Units=1/GPa)
#
#
# Indices 1 2 3 4 5 6 
#
# 1 0.013372 -0.002219 -0.005029 0.000000 0.000000 0.000000
# 2 -0.002219 0.018515 -0.003724 0.000000 0.000000 0.000000
# 3 -0.005029 -0.003724 0.009644 0.000000 0.000000 0.000000
# 4 0.000000 0.000000 0.000000 0.038876 0.000000 0.000000
# 5 0.000000 0.000000 0.000000 0.000000 0.037506 0.000000
# 6 0.000000 0.000000 0.000000 0.000000 0.000000 0.060594
#
#
# Mechanical properties :
#
#
# Convention : Reuss Voigt Hill
#
# Bulk Modulus (GPa) = 51.05371 63.47453 57.26412
# Shear Modulus (GPa) = 24.15695 26.60753 25.38224
#
# Velocity S-wave (km/s) = 3.67949 3.86162 3.77166
# Velocity P-wave (km/s) = 6.83114 7.44694 7.14567
#
# Compressibility (1/GPa) = 0.01958722
#
# Stress axis : x y z
#
# Youngs Moduli (GPa) = 74.78588 54.00909 103.69437
#
# Poissons Ratio (x) = 0.11984 0.52149
# Poissons Ratio (y) = 0.16594 0.38613
# Poissons Ratio (z) = 0.37611 0.20112
#
# Static dielectric constant tensor:
#      x y z
#    x 1.612170 0.000000 0.000000 
#    y 0.000000 1.619310 0.000000 
#    z 0.000000 0.000000 1.594890 
# 
# From -- ./inp_files/36040.got.cif
#   From: 2010.05.17/outbox.cif.g08.bks.cpg/sg72_19_cif.got.tgz:36040.got - 2010.06.03 17:03:01.
