data_PCOD9527629
_publ_section_title
;
Structure prediction by ZEFSAII (Michael W. Deem and Ramdas Pophale) SiO2 
 PCOD9527629
Probable space group: I B A M
;
_chemical_formula_sum "Si O2"
_cell_formula_units_Z 96
_cell_length_a 13.763878
_cell_length_b 14.701284
_cell_length_c 21.586294
_cell_angle_alpha 90.000000
_cell_angle_beta 90.000000
_cell_angle_gamma 90.000000
_cell_volume 4367.914912
_symmetry_space_group_name_H-M "I B A M"
_symmetry_group_IT_number 72
_symmetry_cell_setting 'orthorhombic'
loop_
_space_group_symop_operation_xyz
x,y,z
-x,-y,z
x,-y,1/2-z
-x,y,1/2-z
-x,-y,-z
x,y,-z
-x,y,1/2+z
x,-y,1/2+z
1/2+x,1/2+y,1/2+z
1/2-x,1/2-y,1/2+z
1/2+x,1/2-y,-z
1/2-x,1/2+y,-z
1/2-x,1/2-y,1/2-z
1/2+x,1/2+y,1/2-z
1/2-x,1/2+y,z
1/2+x,1/2-y,z
loop_
_atom_site_type_symbol
_atom_site_label
_atom_site_fract_x
_atom_site_fract_y
_atom_site_fract_z
Si Si1 0.989994 0.287013 0.868721
Si Si2 0.934086 0.756935 0.500000
Si Si3 0.255665 0.880888 0.500000
Si Si4 0.000000 0.172218 0.250000
Si Si5 0.785257 0.854660 0.739719
Si Si6 0.763472 0.900676 0.500000
Si Si7 0.157619 0.419516 0.123895
Si Si8 0.710227 0.877287 0.870480
O O1 0.994824 0.243843 0.936848
O O2 0.028733 0.230875 0.810437
O O3 0.875451 0.305421 0.858824
O O4 0.051078 0.379254 0.868775
O O5 0.866276 0.664027 0.500000
O O6 0.862171 0.843191 0.500000
O O7 0.226016 0.850530 0.569472
O O8 0.230606 0.988835 0.500000
O O9 0.899401 0.127588 0.228498
O O10 0.750000 0.750000 0.750000
O O11 0.720734 0.893593 0.684080
O O12 0.765100 0.895528 0.807256
O O13 0.706151 0.877014 0.562595
O O14 0.159121 0.527208 0.113568
#
# Coordination Sequence:
#
# PCOD9527629 Si02
#       8
#    16   8   8   8  16   8  16  16
#     4  11  20  36  59  93 123 159 205 264 318 378
#     4  10  21  35  62  91 129 170 208 259 331 381
#     4   8  20  36  59  90 124 164 209 261 309 378
#     4  12  24  38  58  88 124 154 208 258 300 376
#     4  12  23  40  60  88 122 163 207 255 312 384
#     4  10  21  37  58  91 130 166 212 254 316 393
#     4  11  22  38  62  91 123 163 207 263 322 377
#     4  10  21  39  61  89 125 162 204 261 327 375
#
# _framework density 21.978451
#
# number of rings (size 3 to 8) (size 9 to 14) (size 15 to 20)
#    0.000    1.333    3.333    2.500    2.333    0.000 
#    0.000   10.000    0.000    0.000    0.000   10.500 
#    0.000    0.000    0.000    0.000    0.000    0.000 
#
# Total GULP energy -267680.834612 kJ/mol
# GULP energy per Si atom -5576.684054 kJ/mol
# Density = 2.192843 g / cm^3
# Si number density = 21.978451 Si / 1000 Ang^3
#
#
#
# Elastic Constant Matrix: (Units=GPa)
#
#
# Indices 1 2 3 4 5 6 
#
# 1 80.3488 8.6621 19.3465 0.0000 0.0000 0.0000
# 2 8.6621 58.3112 7.0779 0.0000 0.0000 0.0000
# 3 19.3465 7.0779 170.0383 0.0000 0.0000 0.0000
# 4 0.0000 0.0000 0.0000 67.2529 0.0000 0.0000
# 5 0.0000 0.0000 0.0000 0.0000 23.1784 0.0000
# 6 0.0000 0.0000 0.0000 0.0000 0.0000 28.1979
#
#
#
# Elastic Compliance Matrix: (Units=1/GPa)
#
#
# Indices 1 2 3 4 5 6 
#
# 1 0.012973 -0.001757 -0.001403 0.000000 0.000000 0.000000
# 2 -0.001757 0.017474 -0.000527 0.000000 0.000000 0.000000
# 3 -0.001403 -0.000527 0.006063 0.000000 0.000000 0.000000
# 4 0.000000 0.000000 0.000000 0.014869 0.000000 0.000000
# 5 0.000000 0.000000 0.000000 0.000000 0.043144 0.000000
# 6 0.000000 0.000000 0.000000 0.000000 0.000000 0.035464
#
#
# Mechanical properties :
#
#
# Convention : Reuss Voigt Hill
#
# Bulk Modulus (GPa) = 34.32242 42.09680 38.20961
# Shear Modulus (GPa) = 33.99678 41.96663 37.98170
#
# Velocity S-wave (km/s) = 3.93723 4.37446 4.16159
# Velocity P-wave (km/s) = 6.02656 6.68654 6.36511
#
# Compressibility (1/GPa) = 0.02913547
#
# Stress axis : x y z
#
# Youngs Moduli (GPa) = 77.08366 57.22665 164.94572
#
# Poissons Ratio (x) = 0.10054 0.23140
# Poissons Ratio (y) = 0.13542 0.08701
# Poissons Ratio (z) = 0.10814 0.03019
#
# Static dielectric constant tensor:
#      x y z
#    x 1.788690 0.000000 0.000000 
#    y 0.000000 1.844460 0.000000 
#    z 0.000000 0.000000 1.840150 
# 
# From -- ./inp_files/38118.got.cif
#   From: 2010.05.17/outbox.cif.g08.bks.cpg/sg72_20_cif.got.tgz:38118.got - 2010.06.03 17:03:01.
