data_PCOD9527276
_publ_section_title
;
Structure prediction by ZEFSAII (Michael W. Deem and Ramdas Pophale) SiO2 
 PCOD9527276
Probable space group: I B A M
;
_chemical_formula_sum "Si O2"
_cell_formula_units_Z 96
_cell_length_a 14.802848
_cell_length_b 13.792466
_cell_length_c 21.514552
_cell_angle_alpha 90.000000
_cell_angle_beta 90.000000
_cell_angle_gamma 90.000000
_cell_volume 4392.578271
_symmetry_space_group_name_H-M "I B A M"
_symmetry_group_IT_number 72
_symmetry_cell_setting 'orthorhombic'
loop_
_space_group_symop_operation_xyz
x,y,z
-x,-y,z
x,-y,1/2-z
-x,y,1/2-z
-x,-y,-z
x,y,-z
-x,y,1/2+z
x,-y,1/2+z
1/2+x,1/2+y,1/2+z
1/2-x,1/2-y,1/2+z
1/2+x,1/2-y,-z
1/2-x,1/2+y,-z
1/2-x,1/2-y,1/2-z
1/2+x,1/2+y,1/2-z
1/2-x,1/2+y,z
1/2+x,1/2-y,z
loop_
_atom_site_type_symbol
_atom_site_label
_atom_site_fract_x
_atom_site_fract_y
_atom_site_fract_z
Si Si1 0.252056 0.159109 0.296758
Si Si2 0.508335 0.268256 0.602400
Si Si3 0.146852 0.918720 0.431198
Si Si4 0.586350 0.561777 0.822922
Si Si5 0.548886 0.897254 0.688830
Si Si6 0.210845 0.255244 0.569552
O O1 0.250000 0.250000 0.250000
O O2 0.167605 0.092103 0.278925
O O3 0.345577 0.101493 0.295297
O O4 0.238253 0.194928 0.368658
O O5 0.433095 0.337459 0.571397
O O6 0.544050 0.335726 0.657822
O O7 0.464281 0.172685 0.630465
O O8 0.601830 0.241596 0.568593
O O9 0.146054 0.962792 0.500000
O O10 0.239417 0.858980 0.421736
O O11 0.128567 0.001610 0.380943
O O12 0.500000 0.500000 0.806712
O O13 0.500000 0.854858 0.750000
O O14 0.500000 0.000000 0.678166
O O15 0.240015 0.220376 0.500000
#
# Coordination Sequence:
#
# PCOD9527276 Si02
#       6
#    16  16  16  16  16  16
#     4  11  23  45  74 101 143 187 232 297 363 427
#     4  10  20  39  64  92 137 176 231 286 350 414
#     4  10  20  37  64  99 137 177 229 284 347 420
#     4   9  21  38  65 101 133 175 227 287 348 412
#     4  11  24  42  66  97 135 186 240 288 357 439
#     4  10  21  38  66  98 135 183 229 282 351 422
#
# _framework density 21.855046000000002
#
# number of rings (size 3 to 8) (size 9 to 14) (size 15 to 20)
#    0.000    1.833    1.667    2.500    2.333    5.667 
#    0.000    0.000    7.333    2.500    0.000    0.000 
#    0.000    0.000    0.000    0.000    0.000    0.000 
#
# Total GULP energy -267802.587106 kJ/mol
# GULP energy per Si atom -5579.220565 kJ/mol
# Density = 2.180530 g / cm^3
# Si number density = 21.855046 Si / 1000 Ang^3
#
#
#
# Elastic Constant Matrix: (Units=GPa)
#
#
# Indices 1 2 3 4 5 6 
#
# 1 164.2832 53.3949 6.0728 0.0000 0.0000 0.0000
# 2 53.3949 112.4452 35.1883 0.0000 0.0000 0.0000
# 3 6.0728 35.1883 74.3971 0.0000 0.0000 0.0000
# 4 0.0000 0.0000 0.0000-2338.7676 0.0000 0.0000
# 5 0.0000 0.0000 0.0000 0.0000 -2.8760 0.0000
# 6 0.0000 0.0000 0.0000 0.0000 0.0000 38.5869
#
#
#
# Elastic Compliance Matrix: (Units=1/GPa)
#
#
# Indices 1 2 3 4 5 6 
#
# 1 0.007292 -0.003845 0.001224 0.000000 0.000000 0.000000
# 2 -0.003845 0.012466 -0.005582 0.000000 0.000000 0.000000
# 3 0.001224 -0.005582 0.015982 0.000000 0.000000 0.000000
# 4 0.000000 0.000000 0.000000 -0.000428 0.000000 0.000000
# 5 0.000000 0.000000 0.000000 0.000000 -0.347702 0.000000
# 6 0.000000 0.000000 0.000000 0.000000 0.000000 0.025916
#
#
# Mechanical properties :
#
#
# Convention : Reuss Voigt Hill
#
# Bulk Modulus (GPa) = 51.72941 60.04861 55.88901
# Shear Modulus (GPa) = -18.96652 -443.51339 -231.23995
#
# Velocity S-wave (km/s) = -2.94910 -14.26095 -10.29737
# Velocity P-wave (km/s) = 3.48202 15.60867 10.75886
#
# Compressibility (1/GPa) = 0.01933136
#
# Stress axis : x y z
#
# Youngs Moduli (GPa) = 137.14364 80.21742 62.57104
#
# Poissons Ratio (x) = 0.30846 -0.07656
# Poissons Ratio (y) = 0.52737 0.34929
# Poissons Ratio (z) = -0.16781 0.44780
#
# Static dielectric constant tensor:
#      x y z
#    x 1.829850 0.000000 0.000000 
#    y 0.000000 1.777810 0.000000 
#    z 0.000000 0.000000 1.912660 
# 
# From -- ./inp_files/38046.got.cif
#   From: 2010.05.17/outbox.cif.g08.bks.cpg/sg72_20_cif.got.tgz:38046.got - 2010.06.03 17:03:01.
