data_PCOD9527842
_publ_section_title
;
Structure prediction by ZEFSAII (Michael W. Deem and Ramdas Pophale) SiO2 
 PCOD9527842
Probable space group: I B A M
;
_chemical_formula_sum "Si O2"
_cell_formula_units_Z 64
_cell_length_a 16.605741
_cell_length_b 10.834607
_cell_length_c 17.077687
_cell_angle_alpha 90.000000
_cell_angle_beta 90.000000
_cell_angle_gamma 90.000000
_cell_volume 3072.560707
_symmetry_space_group_name_H-M "I B A M"
_symmetry_group_IT_number 72
_symmetry_cell_setting 'orthorhombic'
loop_
_space_group_symop_operation_xyz
x,y,z
-x,-y,z
x,-y,1/2-z
-x,y,1/2-z
-x,-y,-z
x,y,-z
-x,y,1/2+z
x,-y,1/2+z
1/2+x,1/2+y,1/2+z
1/2-x,1/2-y,1/2+z
1/2+x,1/2-y,-z
1/2-x,1/2+y,-z
1/2-x,1/2-y,1/2-z
1/2+x,1/2+y,1/2-z
1/2-x,1/2+y,z
1/2+x,1/2-y,z
loop_
_atom_site_type_symbol
_atom_site_label
_atom_site_fract_x
_atom_site_fract_y
_atom_site_fract_z
Si Si1 0.610408 0.761556 0.909279
Si Si2 0.306920 0.133169 0.764698
Si Si3 0.594593 0.496001 0.843515
Si Si4 0.554129 0.758314 0.327940
O O1 0.660781 0.849182 0.852413
O O2 0.629099 0.618715 0.883127
O O3 0.515948 0.787119 0.889328
O O4 0.626479 0.777127 0.000000
O O5 0.250000 0.250000 0.750000
O O6 0.384378 0.142668 0.706780
O O7 0.269114 0.000000 0.750000
O O8 0.500000 0.500000 0.864866
O O9 0.601692 0.500000 0.750000
O O10 0.610754 0.352328 0.860873
O O11 0.500000 0.721034 0.250000
#
# Coordination Sequence:
#
# PCOD9527842 Si02
#       4
#    16  16  16  16
#     4  10  21  37  64  99 129 158 209 276 321 357
#     4  11  25  42  66  90 122 177 218 248 313 396
#     4   9  12  26  55  90 126 160 193 242 296 375
#     4   9  17  33  60  91 125 163 212 255 306 375
#
# _framework density 20.829530999999999
#
# number of rings (size 3 to 8) (size 9 to 14) (size 15 to 20)
#    0.000    2.250    7.500    0.000    3.500    9.000 
#    0.000    5.000    0.000    0.000    0.000    0.000 
#    0.000    0.000    0.000    0.000    0.000    0.000 
#
# Total GULP energy -178160.231807 kJ/mol
# GULP energy per Si atom -5567.507244 kJ/mol
# Density = 2.078212 g / cm^3
# Si number density = 20.829531 Si / 1000 Ang^3
#
#
#
# Elastic Constant Matrix: (Units=GPa)
#
#
# Indices 1 2 3 4 5 6 
#
# 1 52.2674 30.9557 13.6479 0.0000 0.0000 0.0000
# 2 30.9557 109.1627 35.3832 0.0000 0.0000 0.0000
# 3 13.6479 35.3832 112.3823 0.0000 0.0000 0.0000
# 4 0.0000 0.0000 0.0000 18.8079 0.0000 0.0000
# 5 0.0000 0.0000 0.0000 0.0000 6.5398 0.0000
# 6 0.0000 0.0000 0.0000 0.0000 0.0000 23.1941
#
#
#
# Elastic Compliance Matrix: (Units=1/GPa)
#
#
# Indices 1 2 3 4 5 6 
#
# 1 0.023063 -0.006272 -0.000826 0.000000 0.000000 0.000000
# 2 -0.006272 0.011908 -0.002987 0.000000 0.000000 0.000000
# 3 -0.000826 -0.002987 0.009939 0.000000 0.000000 0.000000
# 4 0.000000 0.000000 0.000000 0.053169 0.000000 0.000000
# 5 0.000000 0.000000 0.000000 0.000000 0.152909 0.000000
# 6 0.000000 0.000000 0.000000 0.000000 0.000000 0.043114
#
#
# Mechanical properties :
#
#
# Convention : Reuss Voigt Hill
#
# Bulk Modulus (GPa) = 40.42319 48.19843 44.31081
# Shear Modulus (GPa) = 15.50296 22.63009 19.06652
#
# Velocity S-wave (km/s) = 2.73111 3.29970 3.02877
# Velocity P-wave (km/s) = 5.42163 6.14061 5.79228
#
# Compressibility (1/GPa) = 0.02473827
#
# Stress axis : x y z
#
# Youngs Moduli (GPa) = 43.35974 83.98008 100.61316
#
# Poissons Ratio (x) = 0.52675 0.08311
# Poissons Ratio (y) = 0.27196 0.30057
# Poissons Ratio (z) = 0.03581 0.25088
#
# Static dielectric constant tensor:
#      x y z
#    x 1.808040 0.000000 0.000000 
#    y 0.000000 1.895510 0.000000 
#    z 0.000000 0.000000 1.734330 
# 
# From -- ./inp_files/31177.got.cif
#   From: 2010.05.17/outbox.cif.g08.bks.cpg/sg72_16_cif.got.tgz:31177.got - 2010.06.03 17:03:01.
