data_PCOD9527646
_publ_section_title
;
Structure prediction by ZEFSAII (Michael W. Deem and Ramdas Pophale) SiO2 
 PCOD9527646
Probable space group: I B A M
;
_chemical_formula_sum "Si O2"
_cell_formula_units_Z 104
_cell_length_a 24.767191
_cell_length_b 9.813270
_cell_length_c 23.381423
_cell_angle_alpha 90.000000
_cell_angle_beta 90.000000
_cell_angle_gamma 90.000000
_cell_volume 5682.787812
_symmetry_space_group_name_H-M "I B A M"
_symmetry_group_IT_number 72
_symmetry_cell_setting 'orthorhombic'
loop_
_space_group_symop_operation_xyz
x,y,z
-x,-y,z
x,-y,1/2-z
-x,y,1/2-z
-x,-y,-z
x,y,-z
-x,y,1/2+z
x,-y,1/2+z
1/2+x,1/2+y,1/2+z
1/2-x,1/2-y,1/2+z
1/2+x,1/2-y,-z
1/2-x,1/2+y,-z
1/2-x,1/2-y,1/2-z
1/2+x,1/2+y,1/2-z
1/2-x,1/2+y,z
1/2+x,1/2-y,z
loop_
_atom_site_type_symbol
_atom_site_label
_atom_site_fract_x
_atom_site_fract_y
_atom_site_fract_z
Si Si1 0.814279 0.267851 0.753262
Si Si2 0.440044 0.560532 0.866461
Si Si3 0.864128 0.297900 0.373286
Si Si4 0.835456 0.598241 0.630150
Si Si5 0.221034 0.902994 0.432586
Si Si6 0.121870 0.000000 0.750000
Si Si7 0.637165 0.365188 0.433204
O O1 0.750000 0.250000 0.750000
O O2 0.840093 0.294782 0.691279
O O3 0.829670 0.376409 0.801933
O O4 0.840158 0.122992 0.770041
O O5 0.500000 0.500000 0.866450
O O6 0.421167 0.717254 0.878058
O O7 0.414767 0.537115 0.803778
O O8 0.408094 0.469406 0.912191
O O9 0.863831 0.457354 0.387119
O O10 0.821045 0.211289 0.410594
O O11 0.775420 0.599905 0.603572
O O12 0.864496 0.728894 0.603349
O O13 0.231743 0.883370 0.500000
O O14 0.192645 0.050078 0.424462
O O15 0.632365 0.334523 0.500000
#
# Coordination Sequence:
#
# PCOD9527646 Si02
#       7
#    16  16  16  16  16   8  16
#     4  11  22  32  55  85 123 155 185 227 282 348
#     4  10  21  42  65  84 107 148 201 252 295 347
#     4  10  23  36  55  87 117 151 196 240 295 344
#     4  12  21  34  55  85 123 157 189 235 292 349
#     4  10  21  36  54  80 119 164 201 228 273 355
#     4  10  21  38  60  88 112 154 201 230 280 352
#     4  10  22  39  58  85 117 153 197 241 287 347
#
# _framework density 18.300877
#
# number of rings (size 3 to 8) (size 9 to 14) (size 15 to 20)
#    0.000    1.538    3.077    2.077    2.154    2.769 
#    0.000    0.769    0.000    0.923    0.000    0.000 
#    0.000    0.000    0.000    0.000    0.000    0.000 
#
# Total GULP energy -290196.147879 kJ/mol
# GULP energy per Si atom -5580.695152 kJ/mol
# Density = 1.825922 g / cm^3
# Si number density = 18.300877 Si / 1000 Ang^3
#
#
#
# Elastic Constant Matrix: (Units=GPa)
#
#
# Indices 1 2 3 4 5 6 
#
# 1 85.0047 30.1879 8.2863 0.0000 0.0000 0.0000
# 2 30.1879 129.0870 22.8638 0.0000 0.0000 0.0000
# 3 8.2863 22.8638 68.8768 0.0000 0.0000 0.0000
# 4 0.0000 0.0000 0.0000 22.2291 0.0000 0.0000
# 5 0.0000 0.0000 0.0000 0.0000 10.0295 0.0000
# 6 0.0000 0.0000 0.0000 0.0000 0.0000 11.7838
#
#
#
# Elastic Compliance Matrix: (Units=1/GPa)
#
#
# Indices 1 2 3 4 5 6 
#
# 1 0.012852 -0.002902 -0.000583 0.000000 0.000000 0.000000
# 2 -0.002902 0.008886 -0.002601 0.000000 0.000000 0.000000
# 3 -0.000583 -0.002601 0.015452 0.000000 0.000000 0.000000
# 4 0.000000 0.000000 0.000000 0.044986 0.000000 0.000000
# 5 0.000000 0.000000 0.000000 0.000000 0.099706 0.000000
# 6 0.000000 0.000000 0.000000 0.000000 0.000000 0.084862
#
#
# Mechanical properties :
#
#
# Convention : Reuss Voigt Hill
#
# Bulk Modulus (GPa) = 39.97029 45.07161 42.52095
# Shear Modulus (GPa) = 17.40616 23.58384 20.49500
#
# Velocity S-wave (km/s) = 3.08735 3.59370 3.35011
# Velocity P-wave (km/s) = 5.88193 6.47311 6.18459
#
# Compressibility (1/GPa) = 0.02501858
#
# Stress axis : x y z
#
# Youngs Moduli (GPa) = 77.81175 112.53624 64.71629
#
# Poissons Ratio (x) = 0.32660 0.03771
# Poissons Ratio (y) = 0.22583 0.16830
# Poissons Ratio (z) = 0.04534 0.29266
#
# Static dielectric constant tensor:
#      x y z
#    x 1.733450 0.000000 0.000000 
#    y 0.000000 1.665680 0.000000 
#    z 0.000000 0.000000 1.637770 
# 
# From -- ./inp_files/45949.got.cif
#   From: 2010.05.17/outbox.cif.g08.bks.cpg/sg72_23_cif.got.tgz:45949.got - 2010.06.03 17:03:01.
