data_PCOD9527331
_publ_section_title
;
Structure prediction by ZEFSAII (Michael W. Deem and Ramdas Pophale) SiO2 
 PCOD9527331
Probable space group: I B A M
;
_chemical_formula_sum "Si O2"
_cell_formula_units_Z 112
_cell_length_a 11.190278
_cell_length_b 20.117436
_cell_length_c 23.230391
_cell_angle_alpha 90.000000
_cell_angle_beta 90.000000
_cell_angle_gamma 90.000000
_cell_volume 5229.618687
_symmetry_space_group_name_H-M "I B A M"
_symmetry_group_IT_number 72
_symmetry_cell_setting 'orthorhombic'
loop_
_space_group_symop_operation_xyz
x,y,z
-x,-y,z
x,-y,1/2-z
-x,y,1/2-z
-x,-y,-z
x,y,-z
-x,y,1/2+z
x,-y,1/2+z
1/2+x,1/2+y,1/2+z
1/2-x,1/2-y,1/2+z
1/2+x,1/2-y,-z
1/2-x,1/2+y,-z
1/2-x,1/2-y,1/2-z
1/2+x,1/2+y,1/2-z
1/2-x,1/2+y,z
1/2+x,1/2-y,z
loop_
_atom_site_type_symbol
_atom_site_label
_atom_site_fract_x
_atom_site_fract_y
_atom_site_fract_z
Si Si1 0.556215 0.155675 0.432118
Si Si2 0.787798 0.850778 0.351394
Si Si3 0.237476 0.061687 0.930796
Si Si4 0.889917 0.235442 0.385518
Si Si5 0.400522 0.952474 0.126760
Si Si6 0.874262 0.212690 0.258880
Si Si7 0.498115 0.612135 0.434795
O O1 0.553680 0.173524 0.500000
O O2 0.686748 0.128464 0.415507
O O3 0.502392 0.213797 0.392724
O O4 0.470314 0.092374 0.420251
O O5 0.724132 0.785345 0.380643
O O6 0.678223 0.900338 0.337684
O O7 0.862237 0.838918 0.293023
O O8 0.881139 0.879028 0.397153
O O9 0.099658 0.061914 0.913158
O O10 0.308198 0.001161 0.903823
O O11 0.241586 0.058143 0.000000
O O12 0.882405 0.195009 0.325762
O O13 0.924789 0.181256 0.433090
O O14 0.500000 0.000000 0.155749
O O15 0.750000 0.250000 0.250000
O O16 0.000000 0.251117 0.250000
O O17 0.464546 0.596160 0.500000
#
# Coordination Sequence:
#
# PCOD9527331 Si02
#       7
#    16  16  16  16  16  16  16
#     4   9  17  31  55  85 119 162 205 253 305 360
#     4  10  22  38  59  88 119 156 205 258 310 369
#     4   9  19  33  52  82 120 162 207 247 300 366
#     4  10  21  36  57  83 120 160 200 247 303 368
#     4   9  18  36  60  85 116 156 207 256 304 368
#     4  10  20  38  62  88 120 157 206 253 307 367
#     4  11  23  34  51  85 126 164 196 241 304 372
#
# _framework density 21.416475999999999
#
# number of rings (size 3 to 8) (size 9 to 14) (size 15 to 20)
#    0.000    2.286    1.429    0.857    2.000    5.714 
#    0.000    1.429    0.000    0.857    0.000    9.000 
#    0.000    0.000    0.000    0.000    0.000    0.143 
#
# Total GULP energy -311823.309502 kJ/mol
# GULP energy per Si atom -5568.273384 kJ/mol
# Density = 2.136773 g / cm^3
# Si number density = 21.416476 Si / 1000 Ang^3
#
#
#
# Elastic Constant Matrix: (Units=GPa)
#
#
# Indices 1 2 3 4 5 6 
#
# 1 140.5210 29.4378 29.3272 0.0000 0.0000 0.0000
# 2 29.4378 41.0667 -5.9176 0.0000 0.0000 0.0000
# 3 29.3272 -5.9176 74.0841 0.0000 0.0000 0.0000
# 4 0.0000 0.0000 0.0000 6.5042 0.0000 0.0000
# 5 0.0000 0.0000 0.0000 0.0000 26.7862 0.0000
# 6 0.0000 0.0000 0.0000 0.0000 0.0000 32.2616
#
#
#
# Elastic Compliance Matrix: (Units=1/GPa)
#
#
# Indices 1 2 3 4 5 6 
#
# 1 0.009613 -0.007525 -0.004406 0.000000 0.000000 0.000000
# 2 -0.007525 0.030526 0.005417 0.000000 0.000000 0.000000
# 3 -0.004406 0.005417 0.015675 0.000000 0.000000 0.000000
# 4 0.000000 0.000000 0.000000 0.153747 0.000000 0.000000
# 5 0.000000 0.000000 0.000000 0.000000 0.037333 0.000000
# 6 0.000000 0.000000 0.000000 0.000000 0.000000 0.030997
#
#
# Mechanical properties :
#
#
# Convention : Reuss Voigt Hill
#
# Bulk Modulus (GPa) = 23.37295 40.15186 31.76240
# Shear Modulus (GPa) = 16.38379 26.63202 21.50790
#
# Velocity S-wave (km/s) = 2.76888 3.53020 3.17246
# Velocity P-wave (km/s) = 4.59994 5.95023 5.31811
#
# Compressibility (1/GPa) = 0.04278450
#
# Stress axis : x y z
#
# Youngs Moduli (GPa) = 104.03113 32.75928 63.79495
#
# Poissons Ratio (x) = 0.24653 0.28110
# Poissons Ratio (y) = 0.78288 -0.34560
# Poissons Ratio (z) = 0.45840 -0.17747
#
# Static dielectric constant tensor:
#      x y z
#    x 1.810170 0.000000 0.000000 
#    y 0.000000 1.849100 0.000000 
#    z 0.000000 0.000000 1.751820 
# 
# From -- ./inp_files/43514.got.cif
#   From: 2010.05.17/outbox.cif.g08.bks.cpg/sg72_22_cif.got.tgz:43514.got - 2010.06.03 17:03:01.
