data_PCOD9527374
_publ_section_title
;
Structure prediction by ZEFSAII (Michael W. Deem and Ramdas Pophale) SiO2 
 PCOD9527374
Probable space group: I B A M
;
_chemical_formula_sum "Si O2"
_cell_formula_units_Z 80
_cell_length_a 14.185365
_cell_length_b 12.152395
_cell_length_c 21.379296
_cell_angle_alpha 90.000000
_cell_angle_beta 90.000000
_cell_angle_gamma 90.000000
_cell_volume 3685.494713
_symmetry_space_group_name_H-M "I B A M"
_symmetry_group_IT_number 72
_symmetry_cell_setting 'orthorhombic'
loop_
_space_group_symop_operation_xyz
x,y,z
-x,-y,z
x,-y,1/2-z
-x,y,1/2-z
-x,-y,-z
x,y,-z
-x,y,1/2+z
x,-y,1/2+z
1/2+x,1/2+y,1/2+z
1/2-x,1/2-y,1/2+z
1/2+x,1/2-y,-z
1/2-x,1/2+y,-z
1/2-x,1/2-y,1/2-z
1/2+x,1/2+y,1/2-z
1/2-x,1/2+y,z
1/2+x,1/2-y,z
loop_
_atom_site_type_symbol
_atom_site_label
_atom_site_fract_x
_atom_site_fract_y
_atom_site_fract_z
Si Si1 0.105223 0.814848 0.744535
Si Si2 0.399362 0.934002 0.806668
Si Si3 0.603255 0.371105 0.886743
Si Si4 0.383529 0.625985 0.618090
Si Si5 0.691763 0.844109 0.432368
O O1 0.092993 0.687795 0.724143
O O2 0.149082 0.865754 0.682672
O O3 0.149258 0.843025 0.811014
O O4 0.000000 0.864402 0.750000
O O5 0.348079 0.914632 0.873226
O O6 0.500000 0.000000 0.816410
O O7 0.349921 0.000000 0.750000
O O8 0.492323 0.338214 0.884746
O O9 0.612812 0.498228 0.901840
O O10 0.648864 0.277483 0.927619
O O11 0.303230 0.674167 0.575033
O O12 0.669814 0.894219 0.500000
#
# Coordination Sequence:
#
# PCOD9527374 Si02
#       5
#    16  16  16  16  16
#     4   9  16  33  63  96 126 163 213 269 333 400
#     4  10  20  38  65  96 138 172 216 283 356 408
#     4   9  21  41  65  95 130 175 220 281 339 404
#     4  10  21  40  68  95 132 177 224 276 339 408
#     4  11  26  43  63  98 136 180 238 283 339 422
#
# _framework density 21.706720000000001
#
# number of rings (size 3 to 8) (size 9 to 14) (size 15 to 20)
#    0.000    2.200    2.000    0.600    0.000   10.800 
#    0.000    2.000    0.000    0.000    0.000    0.000 
#    0.000    0.000    0.000    0.000    0.000    0.000 
#
# Total GULP energy -222738.423413 kJ/mol
# GULP energy per Si atom -5568.460585 kJ/mol
# Density = 2.165731 g / cm^3
# Si number density = 21.706720 Si / 1000 Ang^3
#
#
#
# Elastic Constant Matrix: (Units=GPa)
#
#
# Indices 1 2 3 4 5 6 
#
# 1 82.2116 39.2860 48.8685 0.0000 0.0000 0.0000
# 2 39.2860 71.3193 23.6213 0.0000 0.0000 0.0000
# 3 48.8685 23.6213 155.0829 0.0000 0.0000 0.0000
# 4 0.0000 0.0000 0.0000 12.3402 0.0000 0.0000
# 5 0.0000 0.0000 0.0000 0.0000 176.3824 0.0000
# 6 0.0000 0.0000 0.0000 0.0000 0.0000 12.6121
#
#
#
# Elastic Compliance Matrix: (Units=1/GPa)
#
#
# Indices 1 2 3 4 5 6 
#
# 1 0.019290 -0.009070 -0.004697 0.000000 0.000000 0.000000
# 2 -0.009070 0.019031 -0.000041 0.000000 0.000000 0.000000
# 3 -0.004697 -0.000041 0.007934 0.000000 0.000000 0.000000
# 4 0.000000 0.000000 0.000000 0.081036 0.000000 0.000000
# 5 0.000000 0.000000 0.000000 0.000000 0.005669 0.000000
# 6 0.000000 0.000000 0.000000 0.000000 0.000000 0.079289
#
#
# Mechanical properties :
#
#
# Convention : Reuss Voigt Hill
#
# Bulk Modulus (GPa) = 53.64786 59.12951 56.38868
# Shear Modulus (GPa) = 20.31870 53.38948 36.85409
#
# Velocity S-wave (km/s) = 3.06282 4.96480 4.12493
# Velocity P-wave (km/s) = 6.10544 7.75661 6.98002
#
# Compressibility (1/GPa) = 0.01864007
#
# Stress axis : x y z
#
# Youngs Moduli (GPa) = 51.84011 52.54534 126.03293
#
# Poissons Ratio (x) = 0.47660 0.59198
# Poissons Ratio (y) = 0.47020 0.00511
# Poissons Ratio (z) = 0.24349 0.00213
#
# Static dielectric constant tensor:
#      x y z
#    x 1.840820 0.000000 0.000000 
#    y 0.000000 1.838760 0.000000 
#    z 0.000000 0.000000 1.843720 
# 
# From -- ./inp_files/44062.got.cif
#   From: 2010.05.17/outbox.cif.g08.bks.cpg/sg72_23_cif.got.tgz:44062.got - 2010.06.03 17:03:01.
