data_PCOD9527377
_publ_section_title
;
Structure prediction by ZEFSAII (Michael W. Deem and Ramdas Pophale) SiO2 
 PCOD9527377
Probable space group: I B A M
;
_chemical_formula_sum "Si O2"
_cell_formula_units_Z 68
_cell_length_a 19.065461
_cell_length_b 10.940406
_cell_length_c 14.357984
_cell_angle_alpha 90.000000
_cell_angle_beta 90.000000
_cell_angle_gamma 90.000000
_cell_volume 2994.844068
_symmetry_space_group_name_H-M "I B A M"
_symmetry_group_IT_number 72
_symmetry_cell_setting 'orthorhombic'
loop_
_space_group_symop_operation_xyz
x,y,z
-x,-y,z
x,-y,1/2-z
-x,y,1/2-z
-x,-y,-z
x,y,-z
-x,y,1/2+z
x,-y,1/2+z
1/2+x,1/2+y,1/2+z
1/2-x,1/2-y,1/2+z
1/2+x,1/2-y,-z
1/2-x,1/2+y,-z
1/2-x,1/2-y,1/2-z
1/2+x,1/2+y,1/2-z
1/2-x,1/2+y,z
1/2+x,1/2-y,z
loop_
_atom_site_type_symbol
_atom_site_label
_atom_site_fract_x
_atom_site_fract_y
_atom_site_fract_z
Si Si1 0.304166 0.081699 0.886049
Si Si2 0.500000 0.500000 0.750000
Si Si3 0.292348 0.806410 0.111987
Si Si4 0.534296 0.879195 0.147839
Si Si5 0.937402 0.176014 0.397097
O O1 0.256353 0.195159 0.854457
O O2 0.383053 0.104906 0.852186
O O3 0.280626 0.945463 0.855345
O O4 0.305299 0.080903 0.000000
O O5 0.450739 0.578923 0.817308
O O6 0.372745 0.765152 0.126699
O O7 0.282430 0.810544 0.000000
O O8 0.500000 0.870605 0.250000
O O9 0.507453 0.757407 0.099418
O O10 0.500000 0.000000 0.104162
O O11 0.923387 0.122550 0.500000
#
# Coordination Sequence:
#
# PCOD9527377 Si02
#       5
#    16   4  16  16  16
#     4  10  20  38  66 100 137 178 230 287 348 413
#     4  12  26  44  62 102 136 176 232 294 344 430
#     4   9  20  38  64  98 134 178 228 282 345 420
#     4  11  22  39  67  98 134 175 232 290 334 403
#     4  11  23  43  69  96 135 184 229 286 352 412
#
# _framework density 22.705689
#
# number of rings (size 3 to 8) (size 9 to 14) (size 15 to 20)
#    0.000    1.647    3.529    1.059    0.000    2.824 
#    0.000    8.235    0.000    0.000    0.000    0.000 
#    0.000    0.000    0.000    0.000    0.000    0.000 
#
# Total GULP energy -190130.150961 kJ/mol
# GULP energy per Si atom -5592.063264 kJ/mol
# Density = 2.265401 g / cm^3
# Si number density = 22.705689 Si / 1000 Ang^3
#
#
#
# Elastic Constant Matrix: (Units=GPa)
#
#
# Indices 1 2 3 4 5 6 
#
# 1 114.0868 89.4772 9.9441 0.0000 0.0000 0.0000
# 2 89.4772 187.7000 58.7591 0.0000 0.0000 0.0000
# 3 9.9441 58.7591 115.2194 0.0000 0.0000 0.0000
# 4 0.0000 0.0000 0.0000 274.4502 0.0000 0.0000
# 5 0.0000 0.0000 0.0000 0.0000 22.4521 0.0000
# 6 0.0000 0.0000 0.0000 0.0000 0.0000 34.9398
#
#
#
# Elastic Compliance Matrix: (Units=1/GPa)
#
#
# Indices 1 2 3 4 5 6 
#
# 1 0.014693 -0.007862 0.002741 0.000000 0.000000 0.000000
# 2 -0.007862 0.010547 -0.004700 0.000000 0.000000 0.000000
# 3 0.002741 -0.004700 0.010839 0.000000 0.000000 0.000000
# 4 0.000000 0.000000 0.000000 0.003644 0.000000 0.000000
# 5 0.000000 0.000000 0.000000 0.000000 0.044539 0.000000
# 6 0.000000 0.000000 0.000000 0.000000 0.000000 0.028621
#
#
# Mechanical properties :
#
#
# Convention : Reuss Voigt Hill
#
# Bulk Modulus (GPa) = 60.83749 81.48522 71.16135
# Shear Modulus (GPa) = 36.23100 83.62347 59.92724
#
# Velocity S-wave (km/s) = 3.99893 6.07530 5.14299
# Velocity P-wave (km/s) = 6.94075 9.22918 8.16553
#
# Compressibility (1/GPa) = 0.01643723
#
# Stress axis : x y z
#
# Youngs Moduli (GPa) = 68.06170 94.81414 92.25571
#
# Poissons Ratio (x) = 0.74545 -0.25292
# Poissons Ratio (y) = 0.53511 0.43361
# Poissons Ratio (z) = -0.18659 0.44564
#
# Static dielectric constant tensor:
#      x y z
#    x 1.786120 0.000000 0.000000 
#    y 0.000000 1.865980 0.000000 
#    z 0.000000 0.000000 1.948760 
# 
# From -- ./inp_files/31261.got.cif
#   From: 2010.05.17/outbox.cif.g08.bks.cpg/sg72_16_cif.got.tgz:31261.got - 2010.06.03 17:03:01.
