data_PCOD9527584
_publ_section_title
;
Structure prediction by ZEFSAII (Michael W. Deem and Ramdas Pophale) SiO2 
 PCOD9527584
Probable space group: I B A M
;
_chemical_formula_sum "Si O2"
_cell_formula_units_Z 96
_cell_length_a 22.648422
_cell_length_b 9.946470
_cell_length_c 19.625287
_cell_angle_alpha 90.000000
_cell_angle_beta 90.000000
_cell_angle_gamma 90.000000
_cell_volume 4421.024709
_symmetry_space_group_name_H-M "I B A M"
_symmetry_group_IT_number 72
_symmetry_cell_setting 'orthorhombic'
loop_
_space_group_symop_operation_xyz
x,y,z
-x,-y,z
x,-y,1/2-z
-x,y,1/2-z
-x,-y,-z
x,y,-z
-x,y,1/2+z
x,-y,1/2+z
1/2+x,1/2+y,1/2+z
1/2-x,1/2-y,1/2+z
1/2+x,1/2-y,-z
1/2-x,1/2+y,-z
1/2-x,1/2-y,1/2-z
1/2+x,1/2+y,1/2-z
1/2-x,1/2+y,z
1/2+x,1/2-y,z
loop_
_atom_site_type_symbol
_atom_site_label
_atom_site_fract_x
_atom_site_fract_y
_atom_site_fract_z
Si Si1 0.307187 0.704833 0.649758
Si Si2 0.990675 0.839966 0.859336
Si Si3 0.000597 0.792324 0.500000
Si Si4 0.363517 0.669616 0.000000
Si Si5 0.368377 0.736723 0.500000
Si Si6 0.726939 0.433936 0.889298
Si Si7 0.176010 0.478969 0.000000
Si Si8 0.096450 0.840378 0.752771
O O1 0.335021 0.705310 0.571776
O O2 0.289534 0.551902 0.660674
O O3 0.252613 0.803672 0.646425
O O4 0.351463 0.739189 0.710759
O O5 0.997416 0.740968 0.922926
O O6 0.929058 0.811076 0.821855
O O7 0.042216 0.821024 0.805109
O O8 0.000000 0.000000 0.880132
O O9 0.066599 0.860026 0.500000
O O10 0.931343 0.836553 0.500000
O O11 0.328344 0.607492 0.063900
O O12 0.351211 0.830615 0.000000
O O13 0.371551 0.899984 0.500000
O O14 0.779687 0.493831 0.936743
O O15 0.107262 0.000000 0.750000
#
# Coordination Sequence:
#
# PCOD9527584 Si02
#       8
#    16  16   8   8   8  16   8  16
#     4  11  20  38  62  88 126 160 211 251 310 371
#     4   9  19  34  51  85 123 156 187 244 316 366
#     4  12  22  32  58  98 121 150 211 257 303 375
#     4  11  22  33  54  89 130 160 199 270 304 356
#     4  10  21  34  61  92 122 166 200 254 306 379
#     4  10  21  35  58  88 119 168 208 255 307 358
#     4   9  18  39  53  79 132 161 205 249 319 358
#     4   9  19  35  56  79 123 163 188 243 315 367
#
# _framework density 21.714423
#
# number of rings (size 3 to 8) (size 9 to 14) (size 15 to 20)
#    0.000    2.000    3.333    2.750    4.667    1.667 
#    0.000    0.833    0.000    0.000    0.000    3.500 
#    0.000    3.000    0.000    0.000    0.000    0.000 
#
# Total GULP energy -267302.657284 kJ/mol
# GULP energy per Si atom -5568.805360 kJ/mol
# Density = 2.166500 g / cm^3
# Si number density = 21.714423 Si / 1000 Ang^3
#
#
#
# Elastic Constant Matrix: (Units=GPa)
#
#
# Indices 1 2 3 4 5 6 
#
# 1 81.2618 31.5393 8.7243 0.0000 0.0000 0.0000
# 2 31.5393 89.6209 7.4526 0.0000 0.0000 0.0000
# 3 8.7243 7.4526 90.6557 0.0000 0.0000 0.0000
# 4 0.0000 0.0000 0.0000 -11.8062 0.0000 0.0000
# 5 0.0000 0.0000 0.0000 0.0000 41.0050 0.0000
# 6 0.0000 0.0000 0.0000 0.0000 0.0000 -1.1195
#
#
#
# Elastic Compliance Matrix: (Units=1/GPa)
#
#
# Indices 1 2 3 4 5 6 
#
# 1 0.014337 -0.004965 -0.000972 0.000000 0.000000 0.000000
# 2 -0.004965 0.012954 -0.000587 0.000000 0.000000 0.000000
# 3 -0.000972 -0.000587 0.011173 0.000000 0.000000 0.000000
# 4 0.000000 0.000000 0.000000 -0.084701 0.000000 0.000000
# 5 0.000000 0.000000 0.000000 0.000000 0.024387 0.000000
# 6 0.000000 0.000000 0.000000 0.000000 0.000000 -0.893265
#
#
# Mechanical properties :
#
#
# Convention : Reuss Voigt Hill
#
# Bulk Modulus (GPa) = 39.34401 39.66343 39.50372
# Shear Modulus (GPa) = -5.59537 19.87067 7.13765
#
# Velocity S-wave (km/s) = -1.60698 3.02833 1.81499
# Velocity P-wave (km/s) = 3.83601 5.52569 4.75648
#
# Compressibility (1/GPa) = 0.02541683
#
# Stress axis : x y z
#
# Youngs Moduli (GPa) = 69.74906 77.19561 89.50532
#
# Poissons Ratio (x) = 0.38325 0.08696
# Poissons Ratio (y) = 0.34628 0.05255
# Poissons Ratio (z) = 0.06777 0.04533
#
# Static dielectric constant tensor:
#      x y z
#    x 1.840300 0.000000 0.000000 
#    y 0.000000 1.786000 0.000000 
#    z 0.000000 0.000000 1.843660 
# 
# From -- ./inp_files/37175.got.cif
#   From: 2010.05.17/outbox.cif.g08.bks.cpg/sg72_19_cif.got.tgz:37175.got - 2010.06.03 17:03:01.
