data_PCOD9527416
_publ_section_title
;
Structure prediction by ZEFSAII (Michael W. Deem and Ramdas Pophale) SiO2 
 PCOD9527416
Probable space group: I B A M
;
_chemical_formula_sum "Si O2"
_cell_formula_units_Z 64
_cell_length_a 9.054253
_cell_length_b 15.243027
_cell_length_c 19.966265
_cell_angle_alpha 90.000000
_cell_angle_beta 90.000000
_cell_angle_gamma 90.000000
_cell_volume 2755.628549
_symmetry_space_group_name_H-M "I B A M"
_symmetry_group_IT_number 72
_symmetry_cell_setting 'orthorhombic'
loop_
_space_group_symop_operation_xyz
x,y,z
-x,-y,z
x,-y,1/2-z
-x,y,1/2-z
-x,-y,-z
x,y,-z
-x,y,1/2+z
x,-y,1/2+z
1/2+x,1/2+y,1/2+z
1/2-x,1/2-y,1/2+z
1/2+x,1/2-y,-z
1/2-x,1/2+y,-z
1/2-x,1/2-y,1/2-z
1/2+x,1/2+y,1/2-z
1/2-x,1/2+y,z
1/2+x,1/2-y,z
loop_
_atom_site_type_symbol
_atom_site_label
_atom_site_fract_x
_atom_site_fract_y
_atom_site_fract_z
Si Si1 0.150192 0.860630 0.000000
Si Si2 0.146853 0.205387 0.352161
Si Si3 0.335899 0.879689 0.260929
Si Si4 0.617942 0.421434 0.138230
Si Si5 0.311774 0.561466 0.000000
O O1 0.179272 0.806334 0.931844
O O2 0.980467 0.896858 0.000000
O O3 0.224564 0.957041 0.000000
O O4 0.262434 0.149348 0.308705
O O5 0.148749 0.296999 0.312958
O O6 0.983690 0.162334 0.345854
O O7 0.500000 0.910622 0.250000
O O8 0.222384 0.940365 0.300448
O O9 0.500000 0.500000 0.124983
O O10 0.725382 0.409106 0.074401
#
# Coordination Sequence:
#
# PCOD9527416 Si02
#       5
#     8  16  16  16   8
#     4   9  16  35  64  93 120 161 219 263 304 367
#     4  10  20  39  64  90 130 172 209 258 313 378
#     4  11  24  39  56  93 139 167 203 262 316 377
#     4  11  20  40  71  93 120 171 219 258 313 377
#     4   9  16  37  64 101 120 144 227 280 289 367
#
# _framework density 23.225192
#
# number of rings (size 3 to 8) (size 9 to 14) (size 15 to 20)
#    0.000    1.750    5.000    3.750    0.000    3.000 
#    0.000    7.500    0.000    1.500    0.000    0.000 
#    0.000    0.000    0.000    0.000    0.000    0.000 
#
# Total GULP energy -178423.565735 kJ/mol
# GULP energy per Si atom -5575.736429 kJ/mol
# Density = 2.317233 g / cm^3
# Si number density = 23.225192 Si / 1000 Ang^3
#
#
#
# Elastic Constant Matrix: (Units=GPa)
#
#
# Indices 1 2 3 4 5 6 
#
# 1 70.7575 4.9705 65.3663 0.0000 0.0000 0.0000
# 2 4.9705 98.9506 55.0481 0.0000 0.0000 0.0000
# 3 65.3663 55.0481 243.8323 0.0000 0.0000 0.0000
# 4 0.0000 0.0000 0.0000 33.4873 0.0000 0.0000
# 5 0.0000 0.0000 0.0000 0.0000 13.7277 0.0000
# 6 0.0000 0.0000 0.0000 0.0000 0.0000 0.5998
#
#
#
# Elastic Compliance Matrix: (Units=1/GPa)
#
#
# Indices 1 2 3 4 5 6 
#
# 1 0.019184 0.002170 -0.005633 0.000000 0.000000 0.000000
# 2 0.002170 0.011803 -0.003246 0.000000 0.000000 0.000000
# 3 -0.005633 -0.003246 0.006344 0.000000 0.000000 0.000000
# 4 0.000000 0.000000 0.000000 0.029862 0.000000 0.000000
# 5 0.000000 0.000000 0.000000 0.000000 0.072845 0.000000
# 6 0.000000 0.000000 0.000000 0.000000 0.000000 1.667170
#
#
# Mechanical properties :
#
#
# Convention : Reuss Voigt Hill
#
# Bulk Modulus (GPa) = 41.81873 73.81222 57.81547
# Shear Modulus (GPa) = 2.73434 28.77333 15.75383
#
# Velocity S-wave (km/s) = 1.08622 3.52360 2.60726
# Velocity P-wave (km/s) = 4.42922 6.95733 5.83191
#
# Compressibility (1/GPa) = 0.02391273
#
# Stress axis : x y z
#
# Youngs Moduli (GPa) = 52.12718 84.72361 157.62697
#
# Poissons Ratio (x) = -0.18384 0.88786
# Poissons Ratio (y) = -0.11311 0.51172
# Poissons Ratio (z) = 0.29362 0.27505
#
# Static dielectric constant tensor:
#      x y z
#    x 1.847350 0.000000 0.000000 
#    y 0.000000 2.041090 0.000000 
#    z 0.000000 0.000000 1.918330 
# 
# From -- ./inp_files/35601.got.cif
#   From: 2010.05.17/outbox.cif.g08.bks.cpg/sg72_18_cif.got.tgz:35601.got - 2010.06.03 17:03:01.
