data_PCOD9527643
_publ_section_title
;
Structure prediction by ZEFSAII (Michael W. Deem and Ramdas Pophale) SiO2 
 PCOD9527643
Probable space group: I B A M
;
_chemical_formula_sum "Si O2"
_cell_formula_units_Z 64
_cell_length_a 15.561457
_cell_length_b 16.062921
_cell_length_c 11.159361
_cell_angle_alpha 90.000000
_cell_angle_beta 90.000000
_cell_angle_gamma 90.000000
_cell_volume 2789.421265
_symmetry_space_group_name_H-M "I B A M"
_symmetry_group_IT_number 72
_symmetry_cell_setting 'orthorhombic'
loop_
_space_group_symop_operation_xyz
x,y,z
-x,-y,z
x,-y,1/2-z
-x,y,1/2-z
-x,-y,-z
x,y,-z
-x,y,1/2+z
x,-y,1/2+z
1/2+x,1/2+y,1/2+z
1/2-x,1/2-y,1/2+z
1/2+x,1/2-y,-z
1/2-x,1/2+y,-z
1/2-x,1/2-y,1/2-z
1/2+x,1/2+y,1/2-z
1/2-x,1/2+y,z
1/2+x,1/2-y,z
loop_
_atom_site_type_symbol
_atom_site_label
_atom_site_fract_x
_atom_site_fract_y
_atom_site_fract_z
Si Si1 0.719928 0.516809 0.371632
Si Si2 0.755488 0.695188 0.631326
Si Si3 0.554579 0.603381 0.868127
Si Si4 0.553001 0.197892 0.368461
O O1 0.770658 0.500000 0.250000
O O2 0.762825 0.503097 0.500000
O O3 0.694577 0.614482 0.366312
O O4 0.639102 0.454119 0.367819
O O5 0.743246 0.737212 0.500000
O O6 0.750000 0.750000 0.750000
O O7 0.852248 0.659347 0.632328
O O8 0.500000 0.585957 0.750000
O O9 0.572145 0.702413 0.863243
O O10 0.512454 0.590450 0.000000
O O11 0.500000 0.176244 0.250000
O O12 0.512419 0.181895 0.500000
#
# Coordination Sequence:
#
# PCOD9527643 Si02
#       4
#    16  16  16  16
#     4  10  21  36  54  78 109 145 185 228 275 328
#     4  10  21  37  57  81 111 148 190 234 279 331
#     4   9  18  33  53  79 113 149 182 220 269 326
#     4   9  18  34  57  84 113 146 186 231 277 328
#
# _framework density 22.943828
#
# number of rings (size 3 to 8) (size 9 to 14) (size 15 to 20)
#    0.000    2.500    0.000    1.500    0.000    5.500 
#    0.000    8.750    0.000    6.750    0.000    5.250 
#    0.000    0.000    0.000    0.000    0.000    0.000 
#
# Total GULP energy -178419.851567 kJ/mol
# GULP energy per Si atom -5575.620361 kJ/mol
# Density = 2.289161 g / cm^3
# Si number density = 22.943828 Si / 1000 Ang^3
#
#
#
# Elastic Constant Matrix: (Units=GPa)
#
#
# Indices 1 2 3 4 5 6 
#
# 1 49.7361 7.0451 44.4808 0.0000 0.0000 0.0000
# 2 7.0451 33.9004 35.7917 0.0000 0.0000 0.0000
# 3 44.4808 35.7917 299.3480 0.0000 0.0000 0.0000
# 4 0.0000 0.0000 0.0000 11.4599 0.0000 0.0000
# 5 0.0000 0.0000 0.0000 0.0000 27.3675 0.0000
# 6 0.0000 0.0000 0.0000 0.0000 0.0000 30.0568
#
#
#
# Elastic Compliance Matrix: (Units=1/GPa)
#
#
# Indices 1 2 3 4 5 6 
#
# 1 0.023242 -0.001355 -0.003292 0.000000 0.000000 0.000000
# 2 -0.001355 0.033839 -0.003845 0.000000 0.000000 0.000000
# 3 -0.003292 -0.003845 0.004289 0.000000 0.000000 0.000000
# 4 0.000000 0.000000 0.000000 0.087261 0.000000 0.000000
# 5 0.000000 0.000000 0.000000 0.000000 0.036540 0.000000
# 6 0.000000 0.000000 0.000000 0.000000 0.000000 0.033270
#
#
# Mechanical properties :
#
#
# Convention : Reuss Voigt Hill
#
# Bulk Modulus (GPa) = 22.52864 61.95775 42.24320
# Shear Modulus (GPa) = 19.98249 33.48797 26.73523
#
# Velocity S-wave (km/s) = 2.95436 3.82457 3.41727
# Velocity P-wave (km/s) = 4.63443 6.82391 5.83283
#
# Compressibility (1/GPa) = 0.04438793
#
# Stress axis : x y z
#
# Youngs Moduli (GPa) = 43.02592 29.55176 233.13389
#
# Poissons Ratio (x) = 0.04004 0.76737
# Poissons Ratio (y) = 0.05830 0.89632
# Poissons Ratio (z) = 0.14162 0.11362
#
# Static dielectric constant tensor:
#      x y z
#    x 1.861190 0.000000 0.000000 
#    y 0.000000 1.918390 0.000000 
#    z 0.000000 0.000000 1.960250 
# 
# From -- ./inp_files/12384.got.cif
#   From: 2010.05.17/outbox.cif.g08.bks.cpg/sg72_7_cif.got.tgz:12384.got - 2010.06.03 17:03:01.
