data_PCOD9527087
_publ_section_title
;
Structure prediction by ZEFSAII (Michael W. Deem and Ramdas Pophale) SiO2 
 PCOD9527087
Probable space group: I B A M
;
_chemical_formula_sum "Si O2"
_cell_formula_units_Z 96
_cell_length_a 24.001842
_cell_length_b 8.599794
_cell_length_c 24.206852
_cell_angle_alpha 90.000000
_cell_angle_beta 90.000000
_cell_angle_gamma 90.000000
_cell_volume 4996.558031
_symmetry_space_group_name_H-M "I B A M"
_symmetry_group_IT_number 72
_symmetry_cell_setting 'orthorhombic'
loop_
_space_group_symop_operation_xyz
x,y,z
-x,-y,z
x,-y,1/2-z
-x,y,1/2-z
-x,-y,-z
x,y,-z
-x,y,1/2+z
x,-y,1/2+z
1/2+x,1/2+y,1/2+z
1/2-x,1/2-y,1/2+z
1/2+x,1/2-y,-z
1/2-x,1/2+y,-z
1/2-x,1/2-y,1/2-z
1/2+x,1/2+y,1/2-z
1/2-x,1/2+y,z
1/2+x,1/2-y,z
loop_
_atom_site_type_symbol
_atom_site_label
_atom_site_fract_x
_atom_site_fract_y
_atom_site_fract_z
Si Si1 0.122132 0.586921 0.850430
Si Si2 0.507003 0.180108 0.683751
Si Si3 0.309099 0.296018 0.225232
Si Si4 0.200337 0.687855 0.935443
Si Si5 0.890536 0.221127 0.328503
Si Si6 0.803142 0.014885 0.379417
O O1 0.069946 0.701051 0.836874
O O2 0.169714 0.652001 0.810791
O O3 0.144960 0.604930 0.912089
O O4 0.114665 0.407145 0.835837
O O5 0.500000 0.176268 0.750000
O O6 0.457421 0.296531 0.667395
O O7 0.500000 0.000000 0.664569
O O8 0.250000 0.250000 0.250000
O O9 0.358378 0.317198 0.270854
O O10 0.298088 0.434793 0.181373
O O11 0.193215 0.868990 0.920456
O O12 0.252223 0.618970 0.900805
O O13 0.209013 0.663901 0.000000
O O14 0.857164 0.123752 0.373851
#
# Coordination Sequence:
#
# PCOD9527087 Si02
#       6
#    16  16  16  16  16  16
#     4  10  20  36  60  87 114 155 203 237 287 351
#     4   9  17  33  57  87 118 158 195 228 276 347
#     4  11  21  33  52  85 125 158 186 229 294 367
#     4  11  23  42  62  80 111 152 202 259 307 349
#     4  11  20  34  58  86 124 155 187 239 291 358
#     4  11  24  37  56  87 115 152 200 246 302 364
#
# _framework density 19.213225999999999
#
# number of rings (size 3 to 8) (size 9 to 14) (size 15 to 20)
#    0.000    1.500    1.667    5.500    0.000    2.667 
#    0.000    4.167    0.000    7.500    0.000    0.000 
#    0.000    0.000    0.000    0.000    0.000    0.000 
#
# Total GULP energy -267465.722703 kJ/mol
# GULP energy per Si atom -5572.202556 kJ/mol
# Density = 1.916950 g / cm^3
# Si number density = 19.213226 Si / 1000 Ang^3
#
#
#
# Elastic Constant Matrix: (Units=GPa)
#
#
# Indices 1 2 3 4 5 6 
#
# 1 143.0734 35.9389 51.6462 0.0000 0.0000 0.0000
# 2 35.9389 64.3093 38.8138 0.0000 0.0000 0.0000
# 3 51.6462 38.8138 64.2348 0.0000 0.0000 0.0000
# 4 0.0000 0.0000 0.0000 13.5556 0.0000 0.0000
# 5 0.0000 0.0000 0.0000 0.0000 15.7831 0.0000
# 6 0.0000 0.0000 0.0000 0.0000 0.0000 24.7067
#
#
#
# Elastic Compliance Matrix: (Units=1/GPa)
#
#
# Indices 1 2 3 4 5 6 
#
# 1 0.009901 -0.001147 -0.007268 0.000000 0.000000 0.000000
# 2 -0.001147 0.024609 -0.013948 0.000000 0.000000 0.000000
# 3 -0.007268 -0.013948 0.029839 0.000000 0.000000 0.000000
# 4 0.000000 0.000000 0.000000 0.073770 0.000000 0.000000
# 5 0.000000 0.000000 0.000000 0.000000 0.063359 0.000000
# 6 0.000000 0.000000 0.000000 0.000000 0.000000 0.040475
#
#
# Mechanical properties :
#
#
# Convention : Reuss Voigt Hill
#
# Bulk Modulus (GPa) = 50.95668 58.26838 54.61253
# Shear Modulus (GPa) = 17.05209 20.49032 18.77120
#
# Velocity S-wave (km/s) = 2.98236 3.26923 3.12908
# Velocity P-wave (km/s) = 6.19988 6.68158 6.44523
#
# Compressibility (1/GPa) = 0.01962451
#
# Stress axis : x y z
#
# Youngs Moduli (GPa) = 101.00079 40.63559 33.51288
#
# Poissons Ratio (x) = 0.04660 0.24356
# Poissons Ratio (y) = 0.11582 0.46744
# Poissons Ratio (z) = 0.73404 0.56678
#
# Static dielectric constant tensor:
#      x y z
#    x 1.765160 0.000000 0.000000 
#    y 0.000000 1.719580 0.000000 
#    z 0.000000 0.000000 1.679880 
# 
# From -- ./inp_files/45648.got.cif
#   From: 2010.05.17/outbox.cif.g08.bks.cpg/sg72_23_cif.got.tgz:45648.got - 2010.06.03 17:03:01.
