data_PCOD9527624
_publ_section_title
;
Structure prediction by ZEFSAII (Michael W. Deem and Ramdas Pophale) SiO2 
 PCOD9527624
Probable space group: I B A M
;
_chemical_formula_sum "Si O2"
_cell_formula_units_Z 80
_cell_length_a 7.023877
_cell_length_b 17.790924
_cell_length_c 26.496124
_cell_angle_alpha 90.000000
_cell_angle_beta 90.000000
_cell_angle_gamma 90.000000
_cell_volume 3310.989090
_symmetry_space_group_name_H-M "I B A M"
_symmetry_group_IT_number 72
_symmetry_cell_setting 'orthorhombic'
loop_
_space_group_symop_operation_xyz
x,y,z
-x,-y,z
x,-y,1/2-z
-x,y,1/2-z
-x,-y,-z
x,y,-z
-x,y,1/2+z
x,-y,1/2+z
1/2+x,1/2+y,1/2+z
1/2-x,1/2-y,1/2+z
1/2+x,1/2-y,-z
1/2-x,1/2+y,-z
1/2-x,1/2-y,1/2-z
1/2+x,1/2+y,1/2-z
1/2-x,1/2+y,z
1/2+x,1/2-y,z
loop_
_atom_site_type_symbol
_atom_site_label
_atom_site_fract_x
_atom_site_fract_y
_atom_site_fract_z
Si Si1 0.678026 0.338551 0.343468
Si Si2 0.487937 0.919580 0.556455
Si Si3 0.270969 0.912651 0.742700
Si Si4 0.371088 0.161455 0.143565
Si Si5 0.436891 0.411844 0.943744
O O1 0.659240 0.367847 0.286191
O O2 0.656008 0.249100 0.346880
O O3 0.548581 0.373203 0.388217
O O4 0.902445 0.355959 0.352195
O O5 0.412185 0.931390 0.500000
O O6 0.347519 0.864792 0.585951
O O7 0.708107 0.899597 0.551311
O O8 0.500000 0.000000 0.584111
O O9 0.500000 0.903451 0.750000
O O10 0.254051 0.883030 0.685752
O O11 0.226600 0.000000 0.750000
O O12 0.500000 0.500000 0.939397
O O13 0.506741 0.385882 0.000000
#
# Coordination Sequence:
#
# PCOD9527624 Si02
#       5
#    16  16  16  16  16
#     4  10  21  37  56  85 116 152 194 243 294 357
#     4   9  19  34  56  87 115 147 195 242 288 352
#     4   9  19  35  59  82 108 153 200 245 298 358
#     4  10  21  35  58  81 115 155 192 242 298 356
#     4   9  19  36  58  83 116 154 191 238 295 354
#
# _framework density 24.161966
#
# number of rings (size 3 to 8) (size 9 to 14) (size 15 to 20)
#    0.000    2.600    0.000    0.600    8.400    2.400 
#    0.000    0.000    0.000    0.000    0.000    0.000 
#    0.000    0.000    0.000    0.000    0.000    0.000 
#
# Total GULP energy -223007.449272 kJ/mol
# GULP energy per Si atom -5575.186232 kJ/mol
# Density = 2.410697 g / cm^3
# Si number density = 24.161966 Si / 1000 Ang^3
#
#
#
# Elastic Constant Matrix: (Units=GPa)
#
#
# Indices 1 2 3 4 5 6 
#
# 1 112.3545 -3.8822 44.8763 0.0000 0.0000 0.0000
# 2 -3.8822 136.6516 121.6928 0.0000 0.0000 0.0000
# 3 44.8763 121.6928 232.8678 0.0000 0.0000 0.0000
# 4 0.0000 0.0000 0.0000 39.5070 0.0000 0.0000
# 5 0.0000 0.0000 0.0000 0.0000 47.0316 0.0000
# 6 0.0000 0.0000 0.0000 0.0000 0.0000 13.6811
#
#
#
# Elastic Compliance Matrix: (Units=1/GPa)
#
#
# Indices 1 2 3 4 5 6 
#
# 1 0.010698 0.004002 -0.004153 0.000000 0.000000 0.000000
# 2 0.004002 0.015185 -0.008707 0.000000 0.000000 0.000000
# 3 -0.004153 -0.008707 0.009645 0.000000 0.000000 0.000000
# 4 0.000000 0.000000 0.000000 0.025312 0.000000 0.000000
# 5 0.000000 0.000000 0.000000 0.000000 0.021262 0.000000
# 6 0.000000 0.000000 0.000000 0.000000 0.000000 0.073094
#
#
# Mechanical properties :
#
#
# Convention : Reuss Voigt Hill
#
# Bulk Modulus (GPa) = 56.14083 89.69417 72.91750
# Shear Modulus (GPa) = 27.95664 41.32306 34.63985
#
# Velocity S-wave (km/s) = 3.40524 4.14001 3.79047
# Velocity P-wave (km/s) = 6.22467 7.74955 7.02858
#
# Compressibility (1/GPa) = 0.01781235
#
# Stress axis : x y z
#
# Youngs Moduli (GPa) = 93.47960 65.85258 103.68333
#
# Poissons Ratio (x) = -0.26357 0.43061
# Poissons Ratio (y) = -0.37414 0.90277
# Poissons Ratio (z) = 0.38823 0.57338
#
# Static dielectric constant tensor:
#      x y z
#    x 2.087160 0.000000 0.000000 
#    y 0.000000 1.856990 0.000000 
#    z 0.000000 0.000000 2.090370 
# 
# From -- ./inp_files/50756.got.cif
#   From: 2010.05.17/outbox.cif.g08.bks.cpg/sg72_26_cif.got.tgz:50756.got - 2010.06.03 17:03:01.
