data_PCOD9527663
_publ_section_title
;
Structure prediction by ZEFSAII (Michael W. Deem and Ramdas Pophale) SiO2 
 PCOD9527663
Probable space group: I B A M
;
_chemical_formula_sum "Si O2"
_cell_formula_units_Z 112
_cell_length_a 14.963006
_cell_length_b 21.329198
_cell_length_c 15.173860
_cell_angle_alpha 90.000000
_cell_angle_beta 90.000000
_cell_angle_gamma 90.000000
_cell_volume 4842.720996
_symmetry_space_group_name_H-M "I B A M"
_symmetry_group_IT_number 72
_symmetry_cell_setting 'orthorhombic'
loop_
_space_group_symop_operation_xyz
x,y,z
-x,-y,z
x,-y,1/2-z
-x,y,1/2-z
-x,-y,-z
x,y,-z
-x,y,1/2+z
x,-y,1/2+z
1/2+x,1/2+y,1/2+z
1/2-x,1/2-y,1/2+z
1/2+x,1/2-y,-z
1/2-x,1/2+y,-z
1/2-x,1/2-y,1/2-z
1/2+x,1/2+y,1/2-z
1/2-x,1/2+y,z
1/2+x,1/2-y,z
loop_
_atom_site_type_symbol
_atom_site_label
_atom_site_fract_x
_atom_site_fract_y
_atom_site_fract_z
Si Si1 0.748417 0.008310 0.145921
Si Si2 0.112174 0.611799 0.600512
Si Si3 0.885428 0.098099 0.785994
Si Si4 0.999556 0.193895 0.099567
Si Si5 0.435443 0.167591 0.103527
Si Si6 0.877544 0.912280 0.097551
Si Si7 0.285297 0.179797 0.247346
O O1 0.665741 0.046548 0.107422
O O2 0.839309 0.050785 0.145082
O O3 0.729926 0.000000 0.250000
O O4 0.779829 0.944023 0.101312
O O5 0.118036 0.634447 0.500000
O O6 0.160903 0.659408 0.665791
O O7 0.007018 0.612796 0.622945
O O8 0.943186 0.150469 0.834732
O O9 0.919631 0.067498 0.693407
O O10 0.799755 0.135172 0.748516
O O11 0.987900 0.266530 0.121650
O O12 0.097776 0.162146 0.098644
O O13 0.963684 0.187001 0.000000
O O14 0.350380 0.168098 0.165598
O O15 0.412247 0.165820 0.000000
O O16 0.914277 0.931872 0.000000
O O17 0.250000 0.250000 0.250000
#
# Coordination Sequence:
#
# PCOD9527663 Si02
#       7
#    16  16  16  16  16  16  16
#     4   9  20  40  62  89 122 161 217 278 332 385
#     4  10  22  39  64  93 126 171 219 269 330 395
#     4  10  21  36  58  86 121 163 211 261 319 384
#     4  10  21  36  56  88 130 175 214 258 319 386
#     4  10  22  40  61  92 135 174 216 268 324 394
#     4  10  21  36  58  85 120 166 213 266 321 381
#     4  11  22  36  59  90 126 173 212 259 322 385
#
# _framework density 23.127493999999999
#
# number of rings (size 3 to 8) (size 9 to 14) (size 15 to 20)
#    0.000    2.000    1.429    1.286    2.000    5.714 
#    0.000    3.571    0.000   14.571    0.000   26.000 
#    0.000    0.000    0.000    0.000    0.000    0.000 
#
# Total GULP energy -312134.332509 kJ/mol
# GULP energy per Si atom -5573.827366 kJ/mol
# Density = 2.307486 g / cm^3
# Si number density = 23.127494 Si / 1000 Ang^3
#
#
#
# Elastic Constant Matrix: (Units=GPa)
#
#
# Indices 1 2 3 4 5 6 
#
# 1 69.9352 34.8507 43.5757 0.0000 -0.0006 0.0000
# 2 34.8507 78.4035 8.2233 -0.0001 -0.0008 0.0000
# 3 43.5757 8.2233 111.9438 -0.0002 -0.0010 0.0000
# 4 0.0000 -0.0001 -0.0002 24.5148 -0.0003 0.0000
# 5 -0.0006 -0.0008 -0.0010 -0.0003 -167.2607 -0.0001
# 6 0.0000 0.0000 0.0000 0.0000 -0.0001 40.5373
#
#
#
# Elastic Compliance Matrix: (Units=1/GPa)
#
#
# Indices 1 2 3 4 5 6 
#
# 1 0.024939 -0.010146 -0.008963 0.000000 0.000000 0.000000
# 2 -0.010146 0.016981 0.002702 0.000000 0.000000 0.000000
# 3 -0.008963 0.002702 0.012223 0.000000 0.000000 0.000000
# 4 0.000000 0.000000 0.000000 0.040792 0.000000 0.000000
# 5 0.000000 0.000000 0.000000 0.000000 -0.005979 0.000000
# 6 0.000000 0.000000 0.000000 0.000000 0.000000 0.024669
#
#
# Mechanical properties :
#
#
# Convention : Reuss Voigt Hill
#
# Bulk Modulus (GPa) = 46.88034 48.17577 47.52805
# Shear Modulus (GPa) = 32.56302 -8.86619 11.84842
#
# Velocity S-wave (km/s) = 3.75638 -1.96009 2.26588
# Velocity P-wave (km/s) = 6.25525 3.96902 5.23839
#
# Compressibility (1/GPa) = 0.02133090
#
# Stress axis : x y z
#
# Youngs Moduli (GPa) = 40.09731 58.88964 81.81015
#
# Poissons Ratio (x) = 0.59747 0.73324
# Poissons Ratio (y) = 0.40681 -0.22104
# Poissons Ratio (z) = 0.35938 -0.15911
#
# Static dielectric constant tensor:
#      x y z
#    x 1.946200 0.000000 0.000000 
#    y 0.000000 1.899200 0.000000 
#    z 0.000000 0.000000 1.939040 
# 
# From -- ./inp_files/22170.got.cif
#   From: 2010.05.17/outbox.cif.g08.bks.cpg/sg72_12_cif.got.tgz:22170.got - 2010.06.03 17:03:01.
