data_PCOD9527150
_publ_section_title
;
Structure prediction by ZEFSAII (Michael W. Deem and Ramdas Pophale) SiO2 
 PCOD9527150
Probable space group: I B A M
;
_chemical_formula_sum "Si O2"
_cell_formula_units_Z 112
_cell_length_a 13.584111
_cell_length_b 13.531511
_cell_length_c 26.764812
_cell_angle_alpha 90.000000
_cell_angle_beta 90.000000
_cell_angle_gamma 90.000000
_cell_volume 4919.735040
_symmetry_space_group_name_H-M "I B A M"
_symmetry_group_IT_number 72
_symmetry_cell_setting 'orthorhombic'
loop_
_space_group_symop_operation_xyz
x,y,z
-x,-y,z
x,-y,1/2-z
-x,y,1/2-z
-x,-y,-z
x,y,-z
-x,y,1/2+z
x,-y,1/2+z
1/2+x,1/2+y,1/2+z
1/2-x,1/2-y,1/2+z
1/2+x,1/2-y,-z
1/2-x,1/2+y,-z
1/2-x,1/2-y,1/2-z
1/2+x,1/2+y,1/2-z
1/2-x,1/2+y,z
1/2+x,1/2-y,z
loop_
_atom_site_type_symbol
_atom_site_label
_atom_site_fract_x
_atom_site_fract_y
_atom_site_fract_z
Si Si1 0.716232 0.659270 0.870611
Si Si2 0.614404 0.521578 0.656146
Si Si3 0.238341 0.171945 0.793863
Si Si4 0.550650 0.105957 0.299660
Si Si5 0.784059 0.893917 0.057039
Si Si6 0.632007 0.170040 0.946372
Si Si7 0.918954 0.310473 0.092729
O O1 0.673151 0.579384 0.833084
O O2 0.750945 0.757056 0.841987
O O3 0.807408 0.618585 0.902244
O O4 0.628086 0.700414 0.905874
O O5 0.500000 0.500000 0.654935
O O6 0.643671 0.605753 0.695676
O O7 0.655756 0.551914 0.601075
O O8 0.250000 0.250000 0.750000
O O9 0.332663 0.100242 0.790744
O O10 0.500000 0.150883 0.250000
O O11 0.544629 0.167077 0.350702
O O12 0.500000 0.000000 0.306781
O O13 0.828175 0.782502 0.054903
O O14 0.669892 0.880232 0.073835
O O15 0.792123 0.932641 0.000000
O O16 0.515854 0.174482 0.939290
O O17 0.656482 0.126030 0.000000
#
# Coordination Sequence:
#
# PCOD9527150 Si02
#       7
#    16  16  16  16  16  16  16
#     4  10  24  41  67  99 141 183 235 300 359 428
#     4  12  25  46  74 103 141 194 244 297 368 438
#     4  11  26  48  70 104 142 182 232 295 364 434
#     4  10  23  39  66 100 129 172 224 282 352 421
#     4  10  21  41  64  99 147 190 243 302 358 434
#     4  10  20  36  65  97 136 191 239 288 359 431
#     4  10  20  40  63  98 142 187 234 298 364 422
#
# _framework density 22.765453999999998
#
# number of rings (size 3 to 8) (size 9 to 14) (size 15 to 20)
#    0.000    1.571    4.286    1.286    4.000    4.286 
#    0.000    0.714    0.000    2.571    0.000    0.000 
#    0.000    0.000    0.000    0.000    0.000    0.000 
#
# Total GULP energy -312813.801843 kJ/mol
# GULP energy per Si atom -5585.960747 kJ/mol
# Density = 2.271364 g / cm^3
# Si number density = 22.765454 Si / 1000 Ang^3
#
#
#
# Elastic Constant Matrix: (Units=GPa)
#
#
# Indices 1 2 3 4 5 6 
#
# 1 172.7269 50.1601 52.9794 0.0000 0.0000 0.0000
# 2 50.1601 80.4878 7.1261 0.0000 0.0000 0.0000
# 3 52.9794 7.1261 99.6671 0.0000 0.0000 0.0000
# 4 0.0000 0.0000 0.0000 18.1020 0.0000 0.0000
# 5 0.0000 0.0000 0.0000 0.0000 25.2817 0.0000
# 6 0.0000 0.0000 0.0000 0.0000 0.0000 22.7147
#
#
#
# Elastic Compliance Matrix: (Units=1/GPa)
#
#
# Indices 1 2 3 4 5 6 
#
# 1 0.008498 -0.004927 -0.004165 0.000000 0.000000 0.000000
# 2 -0.004927 0.015360 0.001521 0.000000 0.000000 0.000000
# 3 -0.004165 0.001521 0.012139 0.000000 0.000000 0.000000
# 4 0.000000 0.000000 0.000000 0.055243 0.000000 0.000000
# 5 0.000000 0.000000 0.000000 0.000000 0.039554 0.000000
# 6 0.000000 0.000000 0.000000 0.000000 0.000000 0.044024
#
#
# Mechanical properties :
#
#
# Convention : Reuss Voigt Hill
#
# Bulk Modulus (GPa) = 47.95175 63.71255 55.83215
# Shear Modulus (GPa) = 25.39215 29.39409 27.39312
#
# Velocity S-wave (km/s) = 3.34335 3.59719 3.47259
# Velocity P-wave (km/s) = 6.00109 6.73055 6.37626
#
# Compressibility (1/GPa) = 0.02085430
#
# Stress axis : x y z
#
# Youngs Moduli (GPa) = 117.67795 65.10351 82.38225
#
# Poissons Ratio (x) = 0.32077 0.34311
# Poissons Ratio (y) = 0.57981 -0.12529
# Poissons Ratio (z) = 0.49011 -0.09901
#
# Static dielectric constant tensor:
#      x y z
#    x 1.836870 0.000000 0.000000 
#    y 0.000000 1.926140 0.000000 
#    z 0.000000 0.000000 1.909940 
# 
# From -- ./inp_files/51443.got.cif
#   From: 2010.05.17/outbox.cif.g08.bks.cpg/sg72_26_cif.got.tgz:51443.got - 2010.06.03 17:03:01.
