data_PCOD9527424
_publ_section_title
;
Structure prediction by ZEFSAII (Michael W. Deem and Ramdas Pophale) SiO2 
 PCOD9527424
Probable space group: I B A M
;
_chemical_formula_sum "Si O2"
_cell_formula_units_Z 112
_cell_length_a 27.083654
_cell_length_b 13.380187
_cell_length_c 14.178308
_cell_angle_alpha 90.000000
_cell_angle_beta 90.000000
_cell_angle_gamma 90.000000
_cell_volume 5137.997002
_symmetry_space_group_name_H-M "I B A M"
_symmetry_group_IT_number 72
_symmetry_cell_setting 'orthorhombic'
loop_
_space_group_symop_operation_xyz
x,y,z
-x,-y,z
x,-y,1/2-z
-x,y,1/2-z
-x,-y,-z
x,y,-z
-x,y,1/2+z
x,-y,1/2+z
1/2+x,1/2+y,1/2+z
1/2-x,1/2-y,1/2+z
1/2+x,1/2-y,-z
1/2-x,1/2+y,-z
1/2-x,1/2-y,1/2-z
1/2+x,1/2+y,1/2-z
1/2-x,1/2+y,z
1/2+x,1/2-y,z
loop_
_atom_site_type_symbol
_atom_site_label
_atom_site_fract_x
_atom_site_fract_y
_atom_site_fract_z
Si Si1 0.812566 0.655283 0.888537
Si Si2 0.054931 0.848030 0.732603
Si Si3 0.297488 0.432464 0.109990
Si Si4 0.838852 0.870718 0.194829
Si Si5 0.918732 0.709977 0.606450
Si Si6 0.892884 0.492983 0.114607
Si Si7 0.031581 0.654638 0.392141
O O1 0.757582 0.611642 0.878203
O O2 0.826057 0.758946 0.837989
O O3 0.849151 0.566705 0.859310
O O4 0.679487 0.173491 0.000000
O O5 0.102613 0.898747 0.684634
O O6 0.073708 0.807557 0.832715
O O7 0.046434 0.747657 0.671656
O O8 0.000000 0.892014 0.750000
O O9 0.327023 0.379558 0.194257
O O10 0.305780 0.549269 0.137377
O O11 0.311527 0.417722 0.000000
O O12 0.048707 0.671536 0.500000
O O13 0.886374 0.620372 0.648959
O O14 0.972651 0.656471 0.604954
O O15 0.942309 0.553804 0.141514
O O16 0.893841 0.482744 0.000000
O O17 0.095946 0.265594 0.500000
#
# Coordination Sequence:
#
# PCOD9527424 Si02
#       7
#    16  16  16  16  16  16  16
#     4  10  20  39  66  96 126 161 207 256 309 375
#     4  10  21  36  58  90 122 160 209 260 311 376
#     4  10  24  44  66  93 124 160 212 264 314 377
#     4  11  22  43  68  93 125 165 205 258 326 371
#     4   9  18  31  47  77 123 166 201 244 302 365
#     4   9  16  29  51  81 117 158 200 239 291 362
#     4   9  16  29  49  76 115 161 204 245 294 365
#
# _framework density 21.798376999999999
#
# number of rings (size 3 to 8) (size 9 to 14) (size 15 to 20)
#    0.000    2.286    1.429    1.286    0.000    3.429 
#    7.714    3.571    0.000    0.857    0.000    0.000 
#    0.000    0.000    0.000    0.000    0.000    0.000 
#
# Total GULP energy -312354.519137 kJ/mol
# GULP energy per Si atom -5577.759270 kJ/mol
# Density = 2.174876 g / cm^3
# Si number density = 21.798377 Si / 1000 Ang^3
#
#
#
# Elastic Constant Matrix: (Units=GPa)
#
#
# Indices 1 2 3 4 5 6 
#
# 1 94.1275 37.0612 22.2982 0.0000 0.0000 0.0000
# 2 37.0612 92.8657 26.8379 0.0000 0.0000 0.0000
# 3 22.2982 26.8379 102.9263 0.0000 0.0000 0.0000
# 4 0.0000 0.0000 0.0000 13.6110 0.0000 0.0000
# 5 0.0000 0.0000 0.0000 0.0000 18.7229 0.0000
# 6 0.0000 0.0000 0.0000 0.0000 0.0000 -9.0194
#
#
#
# Elastic Compliance Matrix: (Units=1/GPa)
#
#
# Indices 1 2 3 4 5 6 
#
# 1 0.012833 -0.004670 -0.001562 0.000000 0.000000 0.000000
# 2 -0.004670 0.013345 -0.002468 0.000000 0.000000 0.000000
# 3 -0.001562 -0.002468 0.010698 0.000000 0.000000 0.000000
# 4 0.000000 0.000000 0.000000 0.073470 0.000000 0.000000
# 5 0.000000 0.000000 0.000000 0.000000 0.053410 0.000000
# 6 0.000000 0.000000 0.000000 0.000000 0.000000 -0.110872
#
#
# Mechanical properties :
#
#
# Convention : Reuss Voigt Hill
#
# Bulk Modulus (GPa) = 51.34800 51.36824 51.35812
# Shear Modulus (GPa) = 65.12388 18.24437 41.68412
#
# Velocity S-wave (km/s) = 5.47178 2.89616 4.37768
# Velocity P-wave (km/s) = 7.97042 5.89915 7.01169
#
# Compressibility (1/GPa) = 0.01947495
#
# Stress axis : x y z
#
# Youngs Moduli (GPa) = 77.92605 74.93372 93.47782
#
# Poissons Ratio (x) = 0.34992 0.14606
# Poissons Ratio (y) = 0.36390 0.23071
# Poissons Ratio (z) = 0.12176 0.18494
#
# Static dielectric constant tensor:
#      x y z
#    x 1.846230 0.000000 0.000000 
#    y 0.000000 1.785490 0.000000 
#    z 0.000000 0.000000 1.831730 
# 
# From -- ./inp_files/25973.got.cif
#   From: 2010.05.17/outbox.cif.g08.bks.cpg/sg72_13_cif.got.tgz:25973.got - 2010.06.03 17:03:01.
