data_PCOD9527011
_publ_section_title
;
Structure prediction by ZEFSAII (Michael W. Deem and Ramdas Pophale) SiO2 
 PCOD9527011
Probable space group: I B A M
;
_chemical_formula_sum "Si O2"
_cell_formula_units_Z 112
_cell_length_a 25.154608
_cell_length_b 16.966622
_cell_length_c 14.432429
_cell_angle_alpha 90.000000
_cell_angle_beta 90.000000
_cell_angle_gamma 90.000000
_cell_volume 6159.597979
_symmetry_space_group_name_H-M "I B A M"
_symmetry_group_IT_number 72
_symmetry_cell_setting 'orthorhombic'
loop_
_space_group_symop_operation_xyz
x,y,z
-x,-y,z
x,-y,1/2-z
-x,y,1/2-z
-x,-y,-z
x,y,-z
-x,y,1/2+z
x,-y,1/2+z
1/2+x,1/2+y,1/2+z
1/2-x,1/2-y,1/2+z
1/2+x,1/2-y,-z
1/2-x,1/2+y,-z
1/2-x,1/2-y,1/2-z
1/2+x,1/2+y,1/2-z
1/2-x,1/2+y,z
1/2+x,1/2-y,z
loop_
_atom_site_type_symbol
_atom_site_label
_atom_site_fract_x
_atom_site_fract_y
_atom_site_fract_z
Si Si1 0.480743 0.413419 0.895113
Si Si2 0.313919 0.538711 0.891908
Si Si3 0.215579 0.863883 0.108534
Si Si4 0.286176 0.088349 0.229827
Si Si5 0.596310 0.663638 0.602575
Si Si6 0.059471 0.223838 0.279984
Si Si7 0.353278 0.206311 0.108908
O O1 0.500000 0.500000 0.866971
O O2 0.535188 0.363807 0.901516
O O3 0.445538 0.364624 0.823207
O O4 0.457308 0.418641 0.000000
O O5 0.316776 0.445308 0.873542
O O6 0.267340 0.575126 0.830533
O O7 0.367578 0.587370 0.877928
O O8 0.299566 0.547480 0.000000
O O9 0.266009 0.869560 0.176387
O O10 0.179947 0.787214 0.124927
O O11 0.230819 0.863850 0.000000
O O12 0.326597 0.139476 0.170855
O O13 0.306382 0.000000 0.250000
O O14 0.611287 0.694051 0.500000
O O15 0.597132 0.721468 0.689678
O O16 0.087005 0.276442 0.357499
O O17 0.000000 0.247985 0.250000
O O18 0.350834 0.188219 0.000000
#
# Coordination Sequence:
#
# PCOD9527011 Si02
#       7
#    16  16  16  16  16  16  16
#     4   9  18  31  46  68 101 143 191 236 269 309
#     4   9  17  31  49  73 106 146 184 224 265 310
#     4   9  19  32  50  78 113 145 179 218 264 315
#     4  10  20  36  56  79 107 141 179 223 267 322
#     4   9  18  30  46  68 101 146 191 227 265 311
#     4  10  21  35  50  74 106 144 185 227 275 317
#     4  11  22  36  57  83 109 141 177 222 272 323
#
# _framework density 18.183005000000001
#
# number of rings (size 3 to 8) (size 9 to 14) (size 15 to 20)
#    0.000    2.429    0.000    2.143    2.000    3.714 
#    0.000    2.143    0.000    0.429    0.000    1.000 
#    0.000    0.000    0.000    0.000    0.000    0.000 
#
# Total GULP energy -312386.071396 kJ/mol
# GULP energy per Si atom -5578.322703 kJ/mol
# Density = 1.814162 g / cm^3
# Si number density = 18.183005 Si / 1000 Ang^3
#
#
#
# Elastic Constant Matrix: (Units=GPa)
#
#
# Indices 1 2 3 4 5 6 
#
# 1 50.4191 37.9519 49.2089 0.0000 0.0000 0.0000
# 2 37.9519 45.3760 41.8949 0.0000 0.0000 0.0000
# 3 49.2089 41.8949 93.0119 0.0000 0.0000 0.0000
# 4 0.0000 0.0000 0.0000 26.7284 0.0000 0.0000
# 5 0.0000 0.0000 0.0000 0.0000 25.6554 0.0000
# 6 0.0000 0.0000 0.0000 0.0000 0.0000 17.7476
#
#
#
# Elastic Compliance Matrix: (Units=1/GPa)
#
#
# Indices 1 2 3 4 5 6 
#
# 1 0.066748 -0.039756 -0.017407 0.000000 0.000000 0.000000
# 2 -0.039756 0.061407 -0.006626 0.000000 0.000000 0.000000
# 3 -0.017407 -0.006626 0.022945 0.000000 0.000000 0.000000
# 4 0.000000 0.000000 0.000000 0.037413 0.000000 0.000000
# 5 0.000000 0.000000 0.000000 0.000000 0.038978 0.000000
# 6 0.000000 0.000000 0.000000 0.000000 0.000000 0.056346
#
#
# Mechanical properties :
#
#
# Convention : Reuss Voigt Hill
#
# Bulk Modulus (GPa) = 42.51169 49.65759 46.08464
# Shear Modulus (GPa) = 11.92587 18.00969 14.96778
#
# Velocity S-wave (km/s) = 2.56379 3.15059 2.87221
# Velocity P-wave (km/s) = 5.67404 6.37213 6.03319
#
# Compressibility (1/GPa) = 0.02352294
#
# Stress axis : x y z
#
# Youngs Moduli (GPa) = 14.98167 16.28471 43.58251
#
# Poissons Ratio (x) = 0.64742 0.75863
# Poissons Ratio (y) = 0.59561 0.28878
# Poissons Ratio (z) = 0.26078 0.10790
#
# Static dielectric constant tensor:
#      x y z
#    x 1.622730 0.000000 0.000000 
#    y 0.000000 1.606270 0.000000 
#    z 0.000000 0.000000 1.707770 
# 
# From -- ./inp_files/25958.got.cif
#   From: 2010.05.17/outbox.cif.g08.bks.cpg/sg72_13_cif.got.tgz:25958.got - 2010.06.03 17:03:01.
