data_PCOD9527766
_publ_section_title
;
Structure prediction by ZEFSAII (Michael W. Deem and Ramdas Pophale) SiO2 
 PCOD9527766
Probable space group: I B A M
;
_chemical_formula_sum "Si O2"
_cell_formula_units_Z 112
_cell_length_a 13.991086
_cell_length_b 29.348490
_cell_length_c 14.492841
_cell_angle_alpha 90.000000
_cell_angle_beta 90.000000
_cell_angle_gamma 90.000000
_cell_volume 5951.010481
_symmetry_space_group_name_H-M "I B A M"
_symmetry_group_IT_number 72
_symmetry_cell_setting 'orthorhombic'
loop_
_space_group_symop_operation_xyz
x,y,z
-x,-y,z
x,-y,1/2-z
-x,y,1/2-z
-x,-y,-z
x,y,-z
-x,y,1/2+z
x,-y,1/2+z
1/2+x,1/2+y,1/2+z
1/2-x,1/2-y,1/2+z
1/2+x,1/2-y,-z
1/2-x,1/2+y,-z
1/2-x,1/2-y,1/2-z
1/2+x,1/2+y,1/2-z
1/2-x,1/2+y,z
1/2+x,1/2-y,z
loop_
_atom_site_type_symbol
_atom_site_label
_atom_site_fract_x
_atom_site_fract_y
_atom_site_fract_z
Si Si1 0.594278 0.813447 0.106084
Si Si2 0.604099 0.667185 0.739810
Si Si3 0.907116 0.744860 0.111339
Si Si4 0.797287 0.778917 0.395142
Si Si5 0.373323 0.040163 0.891575
Si Si6 0.407512 0.065758 0.608620
Si Si7 0.801801 0.386069 0.230187
O O1 0.497886 0.786604 0.132383
O O2 0.674646 0.774127 0.105247
O O3 0.628429 0.851793 0.175239
O O4 0.583353 0.830419 0.000000
O O5 0.500000 0.644710 0.750000
O O6 0.594532 0.706537 0.661863
O O7 0.629190 0.694719 0.832562
O O8 0.695978 0.635114 0.729023
O O9 0.810731 0.718583 0.140448
O O10 0.904489 0.751135 0.000000
O O11 0.801742 0.795340 0.500000
O O12 0.479747 0.059643 0.869339
O O13 0.301545 0.067469 0.828336
O O14 0.370603 0.986000 0.877037
O O15 0.357790 0.048320 0.000000
O O16 0.399450 0.077124 0.500000
O O17 0.349589 0.100678 0.672096
#
# Coordination Sequence:
#
# PCOD9527766 Si02
#       7
#    16  16  16  16  16  16  16
#     4  10  21  37  58  84 114 149 196 248 289 334
#     4  12  25  39  56  76 111 157 206 244 289 331
#     4  10  21  38  59  78 106 150 199 250 298 341
#     4  10  21  39  57  74 104 153 202 242 292 340
#     4   9  19  39  65  93 124 152 181 222 288 366
#     4   9  20  40  63  91 127 156 177 219 291 368
#     4  12  23  34  60  91 119 147 195 247 291 341
#
# _framework density 18.820333000000002
#
# number of rings (size 3 to 8) (size 9 to 14) (size 15 to 20)
#    0.000    1.714    2.857    2.571    0.000    4.571 
#    0.000    2.857    0.000    1.714    0.000    2.000 
#    0.000    0.000    0.000    0.000    0.000    0.000 
#
# Total GULP energy -312941.411294 kJ/mol
# GULP energy per Si atom -5588.239487 kJ/mol
# Density = 1.877750 g / cm^3
# Si number density = 18.820333 Si / 1000 Ang^3
#
#
#
# Elastic Constant Matrix: (Units=GPa)
#
#
# Indices 1 2 3 4 5 6 
#
# 1 125.3514 53.0080 52.9839 0.0000 0.0000 0.0000
# 2 53.0080 72.8745 52.5667 0.0000 0.0000 0.0000
# 3 52.9839 52.5667 85.9724 -0.0001 -0.0001 -0.0001
# 4 0.0000 0.0000 -0.0001 25.0599 0.0000 0.0000
# 5 0.0000 0.0000 -0.0001 0.0000 15.9055 0.0000
# 6 0.0000 0.0000 -0.0001 0.0000 0.0000 23.1548
#
#
#
# Elastic Compliance Matrix: (Units=1/GPa)
#
#
# Indices 1 2 3 4 5 6 
#
# 1 0.012155 -0.006151 -0.003730 0.000000 0.000000 0.000000
# 2 -0.006151 0.027662 -0.013123 0.000000 0.000000 0.000000
# 3 -0.003730 -0.013123 0.021955 0.000000 0.000000 0.000000
# 4 0.000000 0.000000 0.000000 0.039904 0.000000 0.000000
# 5 0.000000 0.000000 0.000000 0.000000 0.062871 0.000000
# 6 0.000000 0.000000 0.000000 0.000000 0.000000 0.043188
#
#
# Mechanical properties :
#
#
# Convention : Reuss Voigt Hill
#
# Bulk Modulus (GPa) = 63.43689 66.81282 65.12485
# Shear Modulus (GPa) = 19.30510 21.20002 20.25256
#
# Velocity S-wave (km/s) = 3.20622 3.35989 3.28396
# Velocity P-wave (km/s) = 6.89102 7.11542 7.00412
#
# Compressibility (1/GPa) = 0.01576370
#
# Stress axis : x y z
#
# Youngs Moduli (GPa) = 82.26818 36.15024 45.54852
#
# Poissons Ratio (x) = 0.22235 0.16991
# Poissons Ratio (y) = 0.50601 0.59774
# Poissons Ratio (z) = 0.30689 0.47440
#
# Static dielectric constant tensor:
#      x y z
#    x 1.684410 0.000000 0.000000 
#    y 0.000000 1.664910 0.000000 
#    z 0.000000 0.000000 1.690450 
# 
# From -- ./inp_files/22268.got.cif
#   From: 2010.05.17/outbox.cif.g08.bks.cpg/sg72_12_cif.got.tgz:22268.got - 2010.06.03 17:03:01.
