data_PCOD9527773
_publ_section_title
;
Structure prediction by ZEFSAII (Michael W. Deem and Ramdas Pophale) SiO2 
 PCOD9527773
Probable space group: I B A M
;
_chemical_formula_sum "Si O2"
_cell_formula_units_Z 80
_cell_length_a 9.097502
_cell_length_b 30.640107
_cell_length_c 15.268258
_cell_angle_alpha 90.000000
_cell_angle_beta 90.000000
_cell_angle_gamma 90.000000
_cell_volume 4256.003018
_symmetry_space_group_name_H-M "I B A M"
_symmetry_group_IT_number 72
_symmetry_cell_setting 'orthorhombic'
loop_
_space_group_symop_operation_xyz
x,y,z
-x,-y,z
x,-y,1/2-z
-x,y,1/2-z
-x,-y,-z
x,y,-z
-x,y,1/2+z
x,-y,1/2+z
1/2+x,1/2+y,1/2+z
1/2-x,1/2-y,1/2+z
1/2+x,1/2-y,-z
1/2-x,1/2+y,-z
1/2-x,1/2-y,1/2-z
1/2+x,1/2+y,1/2-z
1/2-x,1/2+y,z
1/2+x,1/2-y,z
loop_
_atom_site_type_symbol
_atom_site_label
_atom_site_fract_x
_atom_site_fract_y
_atom_site_fract_z
Si Si1 0.398849 0.458871 0.605100
Si Si2 0.926036 0.137582 0.658425
Si Si3 0.071780 0.639873 0.154580
Si Si4 0.068412 0.799133 0.500000
Si Si5 0.076969 0.295145 0.500000
Si Si6 0.433837 0.043256 0.152074
O O1 0.500000 0.500000 0.627292
O O2 0.374558 0.458555 0.500000
O O3 0.465272 0.412075 0.631399
O O4 0.241120 0.462465 0.651172
O O5 0.748715 0.139461 0.664881
O O6 0.970889 0.171827 0.584309
O O7 0.000000 0.148085 0.750000
O O8 0.033159 0.591679 0.116648
O O9 0.000000 0.645599 0.250000
O O10 0.031788 0.677260 0.085801
O O11 0.245277 0.793078 0.500000
O O12 0.990930 0.752643 0.500000
O O13 0.500000 0.044636 0.250000
O O14 0.500000 0.000000 0.108183
#
# Coordination Sequence:
#
# PCOD9527773 Si02
#       6
#    16  16  16   8   8  16
#     4  10  21  37  58  86 121 159 199 241 288 345
#     4  10  21  38  63  83 115 155 189 238 288 343
#     4   9  20  38  58  84 116 150 195 231 286 344
#     4  10  22  42  59  86 112 146 193 234 295 352
#     4  10  22  40  63  80 114 154 181 240 297 344
#     4   9  19  35  56  83 119 155 197 237 282 341
#
# _framework density 18.796979
#
# number of rings (size 3 to 8) (size 9 to 14) (size 15 to 20)
#    0.000    2.400    1.000    0.000    4.200   11.200 
#    0.000    4.000    0.000    0.000    0.000    0.000 
#    0.000    0.000    0.000    0.000    0.000    0.000 
#
# Total GULP energy -223166.468592 kJ/mol
# GULP energy per Si atom -5579.161715 kJ/mol
# Density = 1.875420 g / cm^3
# Si number density = 18.796979 Si / 1000 Ang^3
#
#
#
# Elastic Constant Matrix: (Units=GPa)
#
#
# Indices 1 2 3 4 5 6 
#
# 1 34.0076 59.2102 47.5486 0.0000 -0.0005 0.0000
# 2 59.2102 211.6820 90.2183 0.0000 -0.0007 0.0000
# 3 47.5486 90.2183 127.7642 0.0000 -0.0022 0.0000
# 4 0.0000 0.0000 0.0000 -14.9253 -0.0016 0.0000
# 5 -0.0005 -0.0007 -0.0022 -0.0016 -144.4421 -0.0001
# 6 0.0000 0.0000 0.0000 0.0000 -0.0001 36.2461
#
#
#
# Elastic Compliance Matrix: (Units=1/GPa)
#
#
# Indices 1 2 3 4 5 6 
#
# 1 0.084238 -0.014593 -0.021045 0.000000 0.000000 0.000000
# 2 -0.014593 0.009286 -0.001126 0.000000 0.000000 0.000000
# 3 -0.021045 -0.001126 0.016454 0.000000 0.000000 0.000000
# 4 0.000000 0.000000 0.000000 -0.067001 0.000001 0.000000
# 5 0.000000 0.000000 0.000000 0.000001 -0.006923 0.000000
# 6 0.000000 0.000000 0.000000 0.000000 0.000000 0.027589
#
#
# Mechanical properties :
#
#
# Convention : Reuss Voigt Hill
#
# Bulk Modulus (GPa) = 27.43545 85.26756 56.35151
# Shear Modulus (GPa) = 33.48464 -12.85914 10.31275
#
# Velocity S-wave (km/s) = 4.22522 -2.61838 2.34485
# Velocity P-wave (km/s) = 6.19925 6.02658 6.11352
#
# Compressibility (1/GPa) = 0.03644919
#
# Stress axis : x y z
#
# Youngs Moduli (GPa) = 11.87114 107.69057 60.77419
#
# Poissons Ratio (x) = 1.57152 1.27902
# Poissons Ratio (y) = 0.17323 0.06844
# Poissons Ratio (z) = 0.24983 0.12127
#
# Static dielectric constant tensor:
#      x y z
#    x 1.632650 0.000000 0.000000 
#    y 0.000000 1.665250 0.000000 
#    z 0.000000 0.000000 1.644630 
# 
# From -- ./inp_files/28341.got.cif
#   From: 2010.05.17/outbox.cif.g08.bks.cpg/sg72_15_cif.got.tgz:28341.got - 2010.06.03 17:03:01.
