data_PCOD9527328
_publ_section_title
;
Structure prediction by ZEFSAII (Michael W. Deem and Ramdas Pophale) SiO2 
 PCOD9527328
Probable space group: I B A M
;
_chemical_formula_sum "Si O2"
_cell_formula_units_Z 96
_cell_length_a 21.075359
_cell_length_b 14.455973
_cell_length_c 17.770817
_cell_angle_alpha 90.000000
_cell_angle_beta 90.000000
_cell_angle_gamma 90.000000
_cell_volume 5414.142774
_symmetry_space_group_name_H-M "I B A M"
_symmetry_group_IT_number 72
_symmetry_cell_setting 'orthorhombic'
loop_
_space_group_symop_operation_xyz
x,y,z
-x,-y,z
x,-y,1/2-z
-x,y,1/2-z
-x,-y,-z
x,y,-z
-x,y,1/2+z
x,-y,1/2+z
1/2+x,1/2+y,1/2+z
1/2-x,1/2-y,1/2+z
1/2+x,1/2-y,-z
1/2-x,1/2+y,-z
1/2-x,1/2-y,1/2-z
1/2+x,1/2+y,1/2-z
1/2-x,1/2+y,z
1/2+x,1/2-y,z
loop_
_atom_site_type_symbol
_atom_site_label
_atom_site_fract_x
_atom_site_fract_y
_atom_site_fract_z
Si Si1 0.691135 0.409385 0.589488
Si Si2 0.694222 0.021395 0.338946
Si Si3 0.063068 0.951959 0.832105
Si Si4 0.056128 0.266555 0.693909
Si Si5 0.302853 0.772350 0.311018
Si Si6 0.562598 0.939829 0.910690
O O1 0.689553 0.404342 0.500000
O O2 0.753920 0.460489 0.618908
O O3 0.627747 0.459454 0.620945
O O4 0.692029 0.308233 0.627622
O O5 0.711586 0.129249 0.347581
O O6 0.623605 0.013031 0.371969
O O7 0.695108 0.000000 0.250000
O O8 0.049446 0.842258 0.824225
O O9 0.072603 0.000000 0.750000
O O10 0.000000 0.000000 0.864813
O O11 0.127249 0.278602 0.726621
O O12 0.054921 0.337178 0.624029
O O13 0.000000 0.292930 0.750000
O O14 0.250000 0.750000 0.250000
O O15 0.500000 0.000000 0.895628
O O16 0.572563 0.934467 0.000000
#
# Coordination Sequence:
#
# PCOD9527328 Si02
#       6
#    16  16  16  16  16  16
#     4  11  24  39  60  89 123 157 195 245 299 356
#     4  11  22  38  64  89 114 157 202 244 290 353
#     4  10  20  38  62  87 118 158 199 245 292 347
#     4  10  21  35  62  88 115 153 198 243 292 350
#     4  10  22  38  60  86 117 155 198 244 292 349
#     4  10  24  41  59  87 125 158 193 247 303 353
#
# _framework density 17.731338000000001
#
# number of rings (size 3 to 8) (size 9 to 14) (size 15 to 20)
#    0.000    1.667    3.333    1.000    7.000    7.000 
#    0.000    0.000    0.000    2.000    0.000    0.000 
#    0.000    0.000    0.000    0.000    0.000    0.000 
#
# Total GULP energy -267840.668348 kJ/mol
# GULP energy per Si atom -5580.013924 kJ/mol
# Density = 1.769098 g / cm^3
# Si number density = 17.731338 Si / 1000 Ang^3
#
#
#
# Elastic Constant Matrix: (Units=GPa)
#
#
# Indices 1 2 3 4 5 6 
#
# 1 134.1946 48.8750 86.9886 0.0000 0.0000 0.0000
# 2 48.8750 96.4230 37.5939 0.0000 0.0000 0.0000
# 3 86.9886 37.5939 120.3360 0.0000 0.0000 0.0000
# 4 0.0000 0.0000 0.0000 17.7183 0.0000 0.0000
# 5 0.0000 0.0000 0.0000 0.0000 25.0951 0.0000
# 6 0.0000 0.0000 0.0000 0.0000 0.0000 28.3165
#
#
#
# Elastic Compliance Matrix: (Units=1/GPa)
#
#
# Indices 1 2 3 4 5 6 
#
# 1 0.015209 -0.003897 -0.009777 0.000000 0.000000 0.000000
# 2 -0.003897 0.012808 -0.001184 0.000000 0.000000 0.000000
# 3 -0.009777 -0.001184 0.015747 0.000000 0.000000 0.000000
# 4 0.000000 0.000000 0.000000 0.056439 0.000000 0.000000
# 5 0.000000 0.000000 0.000000 0.000000 0.039848 0.000000
# 6 0.000000 0.000000 0.000000 0.000000 0.000000 0.035315
#
#
# Mechanical properties :
#
#
# Convention : Reuss Voigt Hill
#
# Bulk Modulus (GPa) = 71.18326 77.54095 74.36210
# Shear Modulus (GPa) = 23.83620 26.05904 24.94762
#
# Velocity S-wave (km/s) = 3.67044 3.83777 3.75504
# Velocity P-wave (km/s) = 7.62860 7.96643 7.79934
#
# Compressibility (1/GPa) = 0.01404825
#
# Stress axis : x y z
#
# Youngs Moduli (GPa) = 65.75174 78.07567 63.50309
#
# Poissons Ratio (x) = 0.30428 0.62084
# Poissons Ratio (y) = 0.25625 0.07519
# Poissons Ratio (z) = 0.64283 0.09245
#
# Static dielectric constant tensor:
#      x y z
#    x 1.617120 0.000000 0.000000 
#    y 0.000000 1.607980 0.000000 
#    z 0.000000 0.000000 1.581880 
# 
# From -- ./inp_files/24124.got.cif
#   From: 2010.05.17/outbox.cif.g08.bks.cpg/sg72_13_cif.got.tgz:24124.got - 2010.06.03 17:03:01.
