data_PCOD9527130
_publ_section_title
;
Structure prediction by ZEFSAII (Michael W. Deem and Ramdas Pophale) SiO2 
 PCOD9527130
Probable space group: I B A M
;
_chemical_formula_sum "Si O2"
_cell_formula_units_Z 88
_cell_length_a 8.368480
_cell_length_b 21.519080
_cell_length_c 22.171112
_cell_angle_alpha 90.000000
_cell_angle_beta 90.000000
_cell_angle_gamma 90.000000
_cell_volume 3992.617983
_symmetry_space_group_name_H-M "I B A M"
_symmetry_group_IT_number 72
_symmetry_cell_setting 'orthorhombic'
loop_
_space_group_symop_operation_xyz
x,y,z
-x,-y,z
x,-y,1/2-z
-x,y,1/2-z
-x,-y,-z
x,y,-z
-x,y,1/2+z
x,-y,1/2+z
1/2+x,1/2+y,1/2+z
1/2-x,1/2-y,1/2+z
1/2+x,1/2-y,-z
1/2-x,1/2+y,-z
1/2-x,1/2-y,1/2-z
1/2+x,1/2+y,1/2-z
1/2-x,1/2+y,z
1/2+x,1/2-y,z
loop_
_atom_site_type_symbol
_atom_site_label
_atom_site_fract_x
_atom_site_fract_y
_atom_site_fract_z
Si Si1 0.941971 0.155052 0.000000
Si Si2 0.849447 0.117213 0.871686
Si Si3 0.887082 0.726082 0.000000
Si Si4 0.889044 0.235866 0.203132
Si Si5 0.500000 0.500000 0.869113
Si Si6 0.665503 0.960121 0.928318
Si Si7 0.000970 0.345532 0.619382
O O1 0.917328 0.115552 0.060080
O O2 0.795535 0.204212 0.000000
O O3 0.094427 0.199758 0.000000
O O4 0.866226 0.188244 0.850478
O O5 0.657709 0.113108 0.869017
O O6 0.948700 0.064470 0.836912
O O7 0.963030 0.695749 0.939948
O O8 0.750000 0.250000 0.250000
O O9 0.957306 0.298993 0.173854
O O10 0.000000 0.200558 0.250000
O O11 0.667579 0.488132 0.904658
O O12 0.639154 0.894039 0.895886
O O13 0.500000 0.000000 0.919552
O O14 0.678398 0.951140 0.000000
#
# Coordination Sequence:
#
# PCOD9527130 Si02
#       7
#     8  16   8  16   8  16  16
#     4  10  22  35  63  96 143 170 221 279 353 430
#     4  11  25  43  66 103 140 183 231 288 355 423
#     4  10  20  36  62 100 137 175 211 289 361 421
#     4  12  26  45  71 100 133 181 242 300 354 414
#     4  12  27  42  69 102 146 192 239 277 342 438
#     4  11  24  41  67 102 147 188 228 279 348 426
#     4  11  22  44  68 100 142 180 228 293 361 412
#
# _framework density 22.040675
#
# number of rings (size 3 to 8) (size 9 to 14) (size 15 to 20)
#    0.000    0.909    6.364    0.273    5.091    1.455 
#    0.000    0.455    0.000    2.727    0.000    0.000 
#    0.000    0.000    0.000    0.000    0.000    0.000 
#
# Total GULP energy -245328.957903 kJ/mol
# GULP energy per Si atom -5575.658134 kJ/mol
# Density = 2.199051 g / cm^3
# Si number density = 22.040675 Si / 1000 Ang^3
#
#
#
# Elastic Constant Matrix: (Units=GPa)
#
#
# Indices 1 2 3 4 5 6 
#
# 1 91.8598 39.9294 15.7733 0.0000 0.0000 0.0000
# 2 39.9294 107.4131 14.0446 0.0000 0.0000 0.0000
# 3 15.7733 14.0446 69.0343 0.0000 0.0000 0.0000
# 4 0.0000 0.0000 0.0000 2.3405 0.0000 0.0000
# 5 0.0000 0.0000 0.0000 0.0000 19.8757 0.0000
# 6 0.0000 0.0000 0.0000 0.0000 0.0000 42.5335
#
#
#
# Elastic Compliance Matrix: (Units=1/GPa)
#
#
# Indices 1 2 3 4 5 6 
#
# 1 0.013270 -0.004660 -0.002084 0.000000 0.000000 0.000000
# 2 -0.004660 0.011201 -0.001214 0.000000 0.000000 0.000000
# 3 -0.002084 -0.001214 0.015209 0.000000 0.000000 0.000000
# 4 0.000000 0.000000 0.000000 0.427254 0.000000 0.000000
# 5 0.000000 0.000000 0.000000 0.000000 0.050313 0.000000
# 6 0.000000 0.000000 0.000000 0.000000 0.000000 0.023511
#
#
# Mechanical properties :
#
#
# Convention : Reuss Voigt Hill
#
# Bulk Modulus (GPa) = 42.08202 45.31130 43.69666
# Shear Modulus (GPa) = 8.85591 26.18728 17.52159
#
# Velocity S-wave (km/s) = 2.00667 3.45067 2.82257
# Velocity P-wave (km/s) = 4.95008 6.03977 5.52187
#
# Compressibility (1/GPa) = 0.02376312
#
# Stress axis : x y z
#
# Youngs Moduli (GPa) = 75.35945 89.27763 65.75210
#
# Poissons Ratio (x) = 0.41607 0.13701
# Poissons Ratio (y) = 0.35120 0.07982
# Poissons Ratio (z) = 0.15703 0.10838
#
# Static dielectric constant tensor:
#      x y z
#    x 1.848420 0.000000 0.000000 
#    y 0.000000 1.861930 0.000000 
#    z 0.000000 0.000000 1.766370 
# 
# From -- ./inp_files/35904.got.cif
#   From: 2010.05.17/outbox.cif.g08.bks.cpg/sg72_18_cif.got.tgz:35904.got - 2010.06.03 17:03:01.
