data_PCOD9527505
_publ_section_title
;
Structure prediction by ZEFSAII (Michael W. Deem and Ramdas Pophale) SiO2 
 PCOD9527505
Probable space group: I B A M
;
_chemical_formula_sum "Si O2"
_cell_formula_units_Z 48
_cell_length_a 18.531497
_cell_length_b 10.109874
_cell_length_c 10.900961
_cell_angle_alpha 90.000000
_cell_angle_beta 90.000000
_cell_angle_gamma 90.000000
_cell_volume 2042.307031
_symmetry_space_group_name_H-M "I B A M"
_symmetry_group_IT_number 72
_symmetry_cell_setting 'orthorhombic'
loop_
_space_group_symop_operation_xyz
x,y,z
-x,-y,z
x,-y,1/2-z
-x,y,1/2-z
-x,-y,-z
x,y,-z
-x,y,1/2+z
x,-y,1/2+z
1/2+x,1/2+y,1/2+z
1/2-x,1/2-y,1/2+z
1/2+x,1/2-y,-z
1/2-x,1/2+y,-z
1/2-x,1/2-y,1/2-z
1/2+x,1/2+y,1/2-z
1/2-x,1/2+y,z
1/2+x,1/2-y,z
loop_
_atom_site_type_symbol
_atom_site_label
_atom_site_fract_x
_atom_site_fract_y
_atom_site_fract_z
Si Si1 0.835587 0.732260 0.729416
Si Si2 0.672689 0.216514 0.000000
Si Si3 0.200730 0.575310 0.000000
Si Si4 0.463807 0.355116 0.866248
O O1 0.750000 0.750000 0.750000
O O2 0.840355 0.618274 0.625324
O O3 0.879003 0.853173 0.667170
O O4 0.865451 0.715700 0.867780
O O5 0.715968 0.078962 0.000000
O O6 0.725551 0.341721 0.000000
O O7 0.500000 0.500000 0.871983
O O8 0.500000 0.285313 0.750000
O O9 0.473733 0.294614 0.000000
#
# Coordination Sequence:
#
# PCOD9527505 Si02
#       4
#    16   8   8  16
#     4  10  21  41  65 102 148 195 248 320 384 444
#     4  10  22  38  66 101 147 193 249 311 393 445
#     4  10  20  42  62 101 149 195 247 317 379 451
#     4  10  22  43  66 101 150 197 247 311 379 449
#
# _framework density 23.502832999999999
#
# number of rings (size 3 to 8) (size 9 to 14) (size 15 to 20)
#    0.000    2.000    1.667    1.000    2.333    0.000 
#   48.000    0.000    0.000    6.000    0.000    0.000 
#    0.000    0.000    0.000    0.000    0.000    0.000 
#
# Total GULP energy -133639.494819 kJ/mol
# GULP energy per Si atom -5568.312284 kJ/mol
# Density = 2.344934 g / cm^3
# Si number density = 23.502833 Si / 1000 Ang^3
#
#
#
# Elastic Constant Matrix: (Units=GPa)
#
#
# Indices 1 2 3 4 5 6 
#
# 1 112.3585 32.2694 42.4896 0.0000 0.0000 0.0000
# 2 32.2694 80.9187 2.0898 0.0000 0.0000 0.0000
# 3 42.4896 2.0898 275.2615 0.0000 0.0000 0.0000
# 4 0.0000 0.0000 0.0000 29.4945 0.0000 0.0000
# 5 0.0000 0.0000 0.0000 0.0000 26.3492 0.0000
# 6 0.0000 0.0000 0.0000 0.0000 0.0000 32.1718
#
#
#
# Elastic Compliance Matrix: (Units=1/GPa)
#
#
# Indices 1 2 3 4 5 6 
#
# 1 0.010731 -0.004238 -0.001624 0.000000 0.000000 0.000000
# 2 -0.004238 0.014034 0.000548 0.000000 0.000000 0.000000
# 3 -0.001624 0.000548 0.003879 0.000000 0.000000 0.000000
# 4 0.000000 0.000000 0.000000 0.033905 0.000000 0.000000
# 5 0.000000 0.000000 0.000000 0.000000 0.037952 0.000000
# 6 0.000000 0.000000 0.000000 0.000000 0.000000 0.031083
#
#
# Mechanical properties :
#
#
# Convention : Reuss Voigt Hill
#
# Bulk Modulus (GPa) = 55.50621 69.13735 62.32178
# Shear Modulus (GPa) = 33.73401 43.71576 38.72489
#
# Velocity S-wave (km/s) = 3.79267 4.31747 4.06355
# Velocity P-wave (km/s) = 6.54578 7.37120 6.97072
#
# Compressibility (1/GPa) = 0.01801600
#
# Stress axis : x y z
#
# Youngs Moduli (GPa) = 93.18469 71.25631 257.76619
#
# Poissons Ratio (x) = 0.30196 0.41870
# Poissons Ratio (y) = 0.39488 -0.14115
# Poissons Ratio (z) = 0.15136 -0.03902
#
# Static dielectric constant tensor:
#      x y z
#    x 1.965940 0.000000 0.000000 
#    y 0.000000 1.849670 0.000000 
#    z 0.000000 0.000000 2.005700 
# 
# From -- ./inp_files/10970.got.cif
#   From: 2010.05.17/outbox.cif.g08.bks.cpg/sg72_6_cif.got.tgz:10970.got - 2010.06.03 17:03:01.
