data_PCOD9527925
_publ_section_title
;
Structure prediction by ZEFSAII (Michael W. Deem and Ramdas Pophale) SiO2 
 PCOD9527925
Probable space group: I B A M
;
_chemical_formula_sum "Si O2"
_cell_formula_units_Z 104
_cell_length_a 27.785206
_cell_length_b 20.356819
_cell_length_c 9.373996
_cell_angle_alpha 90.000000
_cell_angle_beta 90.000000
_cell_angle_gamma 90.000000
_cell_volume 5302.104707
_symmetry_space_group_name_H-M "I B A M"
_symmetry_group_IT_number 72
_symmetry_cell_setting 'orthorhombic'
loop_
_space_group_symop_operation_xyz
x,y,z
-x,-y,z
x,-y,1/2-z
-x,y,1/2-z
-x,-y,-z
x,y,-z
-x,y,1/2+z
x,-y,1/2+z
1/2+x,1/2+y,1/2+z
1/2-x,1/2-y,1/2+z
1/2+x,1/2-y,-z
1/2-x,1/2+y,-z
1/2-x,1/2-y,1/2-z
1/2+x,1/2+y,1/2-z
1/2-x,1/2+y,z
1/2+x,1/2-y,z
loop_
_atom_site_type_symbol
_atom_site_label
_atom_site_fract_x
_atom_site_fract_y
_atom_site_fract_z
Si Si1 0.449237 0.167094 0.330131
Si Si2 0.764417 0.315611 0.167909
Si Si3 0.218954 0.063991 0.664661
Si Si4 0.603047 0.434840 0.665064
Si Si5 0.337129 0.014903 0.500000
Si Si6 0.050635 0.178247 0.168941
Si Si7 0.352991 0.898413 0.269747
O O1 0.500000 0.157165 0.250000
O O2 0.452893 0.151879 0.500000
O O3 0.436502 0.244649 0.318164
O O4 0.407668 0.124420 0.257064
O O5 0.750000 0.250000 0.250000
O O6 0.735949 0.373869 0.246589
O O7 0.820107 0.336589 0.184858
O O8 0.752787 0.311788 0.000000
O O9 0.235469 0.060308 0.500000
O O10 0.161020 0.063431 0.661724
O O11 0.235854 0.000000 0.750000
O O12 0.586427 0.500000 0.750000
O O13 0.586197 0.434180 0.500000
O O14 0.586570 0.370954 0.751794
O O15 0.346458 0.956880 0.380318
O O16 0.334295 0.071688 0.376836
O O17 0.000000 0.169710 0.250000
O O18 0.046956 0.163247 0.000000
#
# Coordination Sequence:
#
# PCOD9527925 Si02
#       7
#    16  16  16  16   8  16  16
#     4  10  23  42  67  97 133 176 218 268 331 396
#     4  12  28  44  66  99 134 175 223 275 331 386
#     4  10  23  41  65  93 127 171 215 263 324 390
#     4  10  21  39  60  89 124 162 208 265 319 379
#     4  10  24  44  73  98 132 176 224 268 335 396
#     4  10  21  38  61  90 121 166 212 259 322 389
#     4  11  24  46  69 100 134 175 221 275 329 392
#
# _framework density 19.614851999999999
#
# number of rings (size 3 to 8) (size 9 to 14) (size 15 to 20)
#    0.000    1.538    1.538    1.846    7.538    2.769 
#    0.000    3.846    0.000    0.000    0.000    0.000 
#    0.000    0.000    0.000    0.000    0.000    0.000 
#
# Total GULP energy -289500.136877 kJ/mol
# GULP energy per Si atom -5567.310325 kJ/mol
# Density = 1.957021 g / cm^3
# Si number density = 19.614852 Si / 1000 Ang^3
#
#
#
# Elastic Constant Matrix: (Units=GPa)
#
#
# Indices 1 2 3 4 5 6 
#
# 1 39.2465 24.0585 24.0983 0.0000 0.0000 0.0000
# 2 24.0585 107.8537 63.1719 0.0000 0.0000 0.0000
# 3 24.0983 63.1719 206.6066 0.0000 0.0000 0.0000
# 4 0.0000 0.0000 0.0000 43.9130 0.0000 0.0000
# 5 0.0000 0.0000 0.0000 0.0000 24.5402 0.0000
# 6 0.0000 0.0000 0.0000 0.0000 0.0000 2.5679
#
#
#
# Elastic Compliance Matrix: (Units=1/GPa)
#
#
# Indices 1 2 3 4 5 6 
#
# 1 0.030040 -0.005663 -0.001772 0.000000 0.000000 0.000000
# 2 -0.005663 0.012362 -0.003119 0.000000 0.000000 0.000000
# 3 -0.001772 -0.003119 0.006001 0.000000 0.000000 0.000000
# 4 0.000000 0.000000 0.000000 0.022772 0.000000 0.000000
# 5 0.000000 0.000000 0.000000 0.000000 0.040750 0.000000
# 6 0.000000 0.000000 0.000000 0.000000 0.000000 0.389426
#
#
# Mechanical properties :
#
#
# Convention : Reuss Voigt Hill
#
# Bulk Modulus (GPa) = 36.63890 64.04048 50.33969
# Shear Modulus (GPa) = 9.40634 30.36275 19.88454
#
# Velocity S-wave (km/s) = 2.19224 3.93866 3.18740
# Velocity P-wave (km/s) = 5.01275 7.30780 6.26624
#
# Compressibility (1/GPa) = 0.02729340
#
# Stress axis : x y z
#
# Youngs Moduli (GPa) = 33.28949 80.89294 166.64998
#
# Poissons Ratio (x) = 0.45807 0.29536
# Poissons Ratio (y) = 0.18851 0.51983
# Poissons Ratio (z) = 0.05900 0.25233
#
# Static dielectric constant tensor:
#      x y z
#    x 1.751340 0.000000 0.000000 
#    y 0.000000 1.636470 0.000000 
#    z 0.000000 0.000000 1.752660 
# 
# From -- ./inp_files/8194.got.cif
#   From: 2010.05.17/outbox.cif.g08.bks.cpg/sg72_5_cif.got.tgz:8194.got - 2010.06.03 17:03:01.
