data_PCOD9527078
_publ_section_title
;
Structure prediction by ZEFSAII (Michael W. Deem and Ramdas Pophale) SiO2 
 PCOD9527078
Probable space group: I B A M
;
_chemical_formula_sum "Si O2"
_cell_formula_units_Z 108
_cell_length_a 11.750002
_cell_length_b 19.954813
_cell_length_c 22.255441
_cell_angle_alpha 90.000000
_cell_angle_beta 90.000000
_cell_angle_gamma 90.000000
_cell_volume 5218.213058
_symmetry_space_group_name_H-M "I B A M"
_symmetry_group_IT_number 72
_symmetry_cell_setting 'orthorhombic'
loop_
_space_group_symop_operation_xyz
x,y,z
-x,-y,z
x,-y,1/2-z
-x,y,1/2-z
-x,-y,-z
x,y,-z
-x,y,1/2+z
x,-y,1/2+z
1/2+x,1/2+y,1/2+z
1/2-x,1/2-y,1/2+z
1/2+x,1/2-y,-z
1/2-x,1/2+y,-z
1/2-x,1/2-y,1/2-z
1/2+x,1/2+y,1/2-z
1/2-x,1/2+y,z
1/2+x,1/2-y,z
loop_
_atom_site_type_symbol
_atom_site_label
_atom_site_fract_x
_atom_site_fract_y
_atom_site_fract_z
Si Si1 0.795534 0.413021 0.262722
Si Si2 0.500000 0.314520 0.750000
Si Si3 0.000000 0.500000 0.250000
Si Si4 0.023842 0.860831 0.429940
Si Si5 0.273585 0.148792 0.867315
Si Si6 0.833954 0.277780 0.326966
Si Si7 0.008751 0.296848 0.570224
Si Si8 0.420322 0.563460 0.331079
O O1 0.786817 0.399900 0.190672
O O2 0.790980 0.339317 0.289420
O O3 0.698324 0.451635 0.299259
O O4 0.912332 0.449270 0.280643
O O5 0.584630 0.266159 0.784719
O O6 0.542398 0.367630 0.701046
O O7 0.039117 0.874070 0.500000
O O8 0.150526 0.864783 0.398971
O O9 0.975353 0.784579 0.424337
O O10 0.938159 0.914073 0.399754
O O11 0.262289 0.225767 0.845402
O O12 0.385383 0.156364 0.909005
O O13 0.903300 0.305784 0.384194
O O14 0.983307 0.309339 0.500000
O O15 0.500000 0.500000 0.320084
#
# Coordination Sequence:
#
# PCOD9527078 Si02
#       8
#    16   8   4  16  16  16  16  16
#     4  12  26  43  66  97 137 172 218 273 337 404
#     4  12  20  38  62 102 130 160 216 266 340 394
#     4  12  30  44  58  94 134 176 210 258 324 408
#     4  10  22  40  61  96 133 172 228 271 322 394
#     4  11  20  36  65  96 130 171 210 278 336 397
#     4  11  22  37  63  97 130 164 215 273 336 390
#     4  10  20  36  59  91 133 174 216 269 334 401
#     4  12  25  41  66  97 132 179 221 272 332 396
#
# _framework density 20.696740999999999
#
# number of rings (size 3 to 8) (size 9 to 14) (size 15 to 20)
#    0.000    0.889    4.444    4.222    4.148    0.889 
#    0.000    0.741    0.000    0.000    0.000    3.111 
#    0.000    0.000    0.000    0.000    0.000    0.000 
#
# Total GULP energy -301230.677919 kJ/mol
# GULP energy per Si atom -5578.345887 kJ/mol
# Density = 2.064963 g / cm^3
# Si number density = 20.696741 Si / 1000 Ang^3
#
#
#
# Elastic Constant Matrix: (Units=GPa)
#
#
# Indices 1 2 3 4 5 6 
#
# 1 91.7297 35.3934 43.9759 0.0000 0.0000 0.0000
# 2 35.3934 72.6191 34.6921 0.0000 0.0000 0.0000
# 3 43.9759 34.6921 140.7998 0.0000 0.0000 0.0000
# 4 0.0000 0.0000 0.0000 -21.8416 0.0000 0.0000
# 5 0.0000 0.0000 0.0000 0.0000 21.3442 0.0000
# 6 0.0000 0.0000 0.0000 0.0000 0.0000 22.4551
#
#
#
# Elastic Compliance Matrix: (Units=1/GPa)
#
#
# Indices 1 2 3 4 5 6 
#
# 1 0.014581 -0.005589 -0.003177 0.000000 0.000000 0.000000
# 2 -0.005589 0.017750 -0.002628 0.000000 0.000000 0.000000
# 3 -0.003177 -0.002628 0.008742 0.000000 0.000000 0.000000
# 4 0.000000 0.000000 0.000000 -0.045784 0.000000 0.000000
# 5 0.000000 0.000000 0.000000 0.000000 0.046851 0.000000
# 6 0.000000 0.000000 0.000000 0.000000 0.000000 0.044533
#
#
# Mechanical properties :
#
#
# Convention : Reuss Voigt Hill
#
# Bulk Modulus (GPa) = 54.68832 59.25238 56.97035
# Shear Modulus (GPa) = 43.26909 17.13069 30.19989
#
# Velocity S-wave (km/s) = 4.57729 2.88010 3.82404
# Velocity P-wave (km/s) = 7.37675 6.30484 6.86176
#
# Compressibility (1/GPa) = 0.01828544
#
# Stress axis : x y z
#
# Youngs Moduli (GPa) = 68.58191 56.33871 114.38950
#
# Poissons Ratio (x) = 0.31487 0.36342
# Poissons Ratio (y) = 0.38329 0.30060
# Poissons Ratio (z) = 0.21789 0.14805
#
# Static dielectric constant tensor:
#      x y z
#    x 1.802450 0.000000 0.000000 
#    y 0.000000 1.745770 0.000000 
#    z 0.000000 0.000000 1.793140 
# 
# From -- ./inp_files/43554.got.cif
#   From: 2010.05.17/outbox.cif.g08.bks.cpg/sg72_22_cif.got.tgz:43554.got - 2010.06.03 17:03:01.
