data_PCOD9527816
_publ_section_title
;
Structure prediction by ZEFSAII (Michael W. Deem and Ramdas Pophale) SiO2 
 PCOD9527816
Probable space group: I B A M
;
_chemical_formula_sum "Si O2"
_cell_formula_units_Z 96
_cell_length_a 13.858060
_cell_length_b 23.821457
_cell_length_c 14.993084
_cell_angle_alpha 90.000000
_cell_angle_beta 90.000000
_cell_angle_gamma 90.000000
_cell_volume 4949.504602
_symmetry_space_group_name_H-M "I B A M"
_symmetry_group_IT_number 72
_symmetry_cell_setting 'orthorhombic'
loop_
_space_group_symop_operation_xyz
x,y,z
-x,-y,z
x,-y,1/2-z
-x,y,1/2-z
-x,-y,-z
x,y,-z
-x,y,1/2+z
x,-y,1/2+z
1/2+x,1/2+y,1/2+z
1/2-x,1/2-y,1/2+z
1/2+x,1/2-y,-z
1/2-x,1/2+y,-z
1/2-x,1/2-y,1/2-z
1/2+x,1/2+y,1/2-z
1/2-x,1/2+y,z
1/2+x,1/2-y,z
loop_
_atom_site_type_symbol
_atom_site_label
_atom_site_fract_x
_atom_site_fract_y
_atom_site_fract_z
Si Si1 0.261477 0.586247 0.394271
Si Si2 0.304674 0.216128 0.173033
Si Si3 0.627715 0.647874 0.395368
Si Si4 0.612647 0.099347 0.260816
Si Si5 0.581774 0.678180 0.106907
Si Si6 0.254527 0.457228 0.393599
O O1 0.243046 0.595871 0.500000
O O2 0.168110 0.594465 0.333097
O O3 0.344020 0.629533 0.363053
O O4 0.288788 0.520958 0.383445
O O5 0.250000 0.250000 0.250000
O O6 0.216294 0.190637 0.116274
O O7 0.365353 0.162530 0.205436
O O8 0.374152 0.261383 0.128334
O O9 0.611730 0.640058 0.500000
O O10 0.526456 0.669126 0.356966
O O11 0.665600 0.587741 0.362185
O O12 0.500000 0.088984 0.250000
O O13 0.662392 0.057437 0.332463
O O14 0.578627 0.673526 0.000000
O O15 0.234292 0.448402 0.500000
#
# Coordination Sequence:
#
# PCOD9527816 Si02
#       6
#    16  16  16  16  16  16
#     4  10  21  39  61  89 121 156 197 247 296 349
#     4  11  22  37  57  81 118 154 193 241 294 345
#     4   9  20  38  59  85 115 153 193 240 292 354
#     4  11  24  40  60  87 118 158 203 246 294 351
#     4  10  21  37  61  89 118 153 196 242 297 355
#     4   9  20  40  63  87 121 156 196 245 298 352
#
# _framework density 19.395880999999999
#
# number of rings (size 3 to 8) (size 9 to 14) (size 15 to 20)
#    0.000    2.000    1.667    1.000    2.333    3.333 
#    0.000    5.000    0.000    2.000    0.000    0.000 
#    0.000    0.000    0.000    0.000    0.000    0.000 
#
# Total GULP energy -267836.623826 kJ/mol
# GULP energy per Si atom -5579.929663 kJ/mol
# Density = 1.935173 g / cm^3
# Si number density = 19.395881 Si / 1000 Ang^3
#
#
#
# Elastic Constant Matrix: (Units=GPa)
#
#
# Indices 1 2 3 4 5 6 
#
# 1 138.3176 54.3546 28.5691 0.0000 0.0000 0.0000
# 2 54.3546 124.4880 22.1325 0.0000 0.0000 0.0000
# 3 28.5691 22.1325 43.7723 0.0001 0.0000 0.0000
# 4 0.0000 0.0000 0.0001 25.5209 0.0000 0.0000
# 5 0.0000 0.0000 0.0000 0.0000 24.8750 0.0000
# 6 0.0000 0.0000 0.0000 0.0000 0.0000 6.0012
#
#
#
# Elastic Compliance Matrix: (Units=1/GPa)
#
#
# Indices 1 2 3 4 5 6 
#
# 1 0.009469 -0.003335 -0.004493 0.000000 0.000000 0.000000
# 2 -0.003335 0.010001 -0.002880 0.000000 0.000000 0.000000
# 3 -0.004493 -0.002880 0.027234 0.000000 0.000000 0.000000
# 4 0.000000 0.000000 0.000000 0.039184 0.000000 0.000000
# 5 0.000000 0.000000 0.000000 0.000000 0.040201 0.000000
# 6 0.000000 0.000000 0.000000 0.000000 0.000000 0.166632
#
#
# Mechanical properties :
#
#
# Convention : Reuss Voigt Hill
#
# Bulk Modulus (GPa) = 39.54655 57.41004 48.47829
# Shear Modulus (GPa) = 15.50064 24.71419 20.10742
#
# Velocity S-wave (km/s) = 2.83003 3.57346 3.22325
# Velocity P-wave (km/s) = 5.57783 6.83297 6.23705
#
# Compressibility (1/GPa) = 0.02528666
#
# Stress axis : x y z
#
# Youngs Moduli (GPa) = 105.61304 99.98774 36.71816
#
# Poissons Ratio (x) = 0.33349 0.16499
# Poissons Ratio (y) = 0.35225 0.10575
# Poissons Ratio (z) = 0.47457 0.28797
#
# Static dielectric constant tensor:
#      x y z
#    x 0.738940 0.000000 0.000000 
#    y 0.000000 1.686820 0.000000 
#    z 0.000000 0.000000 1.711670 
# 
# From -- ./inp_files/29458.got.cif
#   From: 2010.05.17/outbox.cif.g08.bks.cpg/sg72_15_cif.got.tgz:29458.got - 2010.06.03 17:03:01.
