data_PCOD9527728
_publ_section_title
;
Structure prediction by ZEFSAII (Michael W. Deem and Ramdas Pophale) SiO2 
 PCOD9527728
Probable space group: I B A M
;
_chemical_formula_sum "Si O2"
_cell_formula_units_Z 96
_cell_length_a 17.946046
_cell_length_b 21.488661
_cell_length_c 14.495580
_cell_angle_alpha 90.000000
_cell_angle_beta 90.000000
_cell_angle_gamma 90.000000
_cell_volume 5590.024719
_symmetry_space_group_name_H-M "I B A M"
_symmetry_group_IT_number 72
_symmetry_cell_setting 'orthorhombic'
loop_
_space_group_symop_operation_xyz
x,y,z
-x,-y,z
x,-y,1/2-z
-x,y,1/2-z
-x,-y,-z
x,y,-z
-x,y,1/2+z
x,-y,1/2+z
1/2+x,1/2+y,1/2+z
1/2-x,1/2-y,1/2+z
1/2+x,1/2-y,-z
1/2-x,1/2+y,-z
1/2-x,1/2-y,1/2-z
1/2+x,1/2+y,1/2-z
1/2-x,1/2+y,z
1/2+x,1/2-y,z
loop_
_atom_site_type_symbol
_atom_site_label
_atom_site_fract_x
_atom_site_fract_y
_atom_site_fract_z
Si Si1 0.333087 0.926550 0.250000
Si Si2 0.410766 0.838119 0.107287
Si Si3 0.156617 0.904847 0.750000
Si Si4 0.089388 0.000000 0.891955
Si Si5 0.910766 0.661881 0.392713
Si Si6 0.088785 0.230472 0.750000
O O1 0.369428 0.892877 0.161605
O O2 0.244920 0.914346 0.250000
O O3 0.369428 0.892877 0.338395
O O4 0.347044 0.000000 0.250000
O O5 0.500000 0.847767 0.115102
O O6 0.394471 0.774078 0.161752
O O7 0.390943 0.835054 0.000000
O O8 0.122265 0.940510 0.661615
O O9 0.133536 0.833196 0.750000
O O10 0.122265 0.940510 0.838385
O O11 0.108124 1.000000 0.000000
O O12 0.000000 0.000000 0.882440
O O13 0.890943 0.664946 0.500000
O O14 0.894471 0.725922 0.338248
O O15 0.000000 0.216926 0.750000
#
# Coordination Sequence:
#
# PCOD9527728 Si02
#       6
#    16  16  16  16  16  16
#     4  11  22  37  54  81 113 151 183 229 276 333
#     4   9  20  38  58  82 110 142 186 235 278 327
#     4  11  21  37  55  83 116 150 179 226 280 328
#     4  10  21  37  56  79 109 148 194 232 264 316
#     4   9  20  38  58  82 110 142 186 235 278 327
#     4   9  18  35  60  82 108 144 184 226 275 333
#
# _framework density 17.173449000000002
#
# number of rings (size 3 to 8) (size 9 to 14) (size 15 to 20)
#    0.000    2.167    1.667    3.500    0.000    7.333 
#    0.000    6.667    0.000    0.000    0.000    0.000 
#    0.000    0.000    0.000    0.000    0.000    0.000 
#
# Total GULP energy -267899.917646 kJ/mol
# GULP energy per Si atom -5581.248284 kJ/mol
# Density = 1.713436 g / cm^3
# Si number density = 17.173449 Si / 1000 Ang^3
#
#
#
# Elastic Constant Matrix: (Units=GPa)
#
#
# Indices 1 2 3 4 5 6 
#
# 1 62.1724 66.0342 70.1118 0.0000 0.0000 0.0000
# 2 66.0342 178.0770 90.7617 0.0000 0.0000 0.0000
# 3 70.1118 90.7617 190.6094 0.0000 0.0000 0.0000
# 4 0.0000 0.0000 0.0000 3.3661 0.0000 0.0000
# 5 0.0000 0.0000 0.0000 0.0000 2.9406 0.0000
# 6 0.0000 0.0000 0.0000 0.0000 0.0000 39.0746
#
#
#
# Elastic Compliance Matrix: (Units=1/GPa)
#
#
# Indices 1 2 3 4 5 6 
#
# 1 0.035114 -0.008501 -0.008868 0.000000 0.000000 0.000000
# 2 -0.008501 0.009473 -0.001384 0.000000 0.000000 0.000000
# 3 -0.008868 -0.001384 0.009167 0.000000 0.000000 0.000000
# 4 0.000000 0.000000 0.000000 0.297078 0.000000 0.000000
# 5 0.000000 0.000000 0.000000 0.000000 0.340063 0.000000
# 6 0.000000 0.000000 0.000000 0.000000 0.000000 0.025592
#
#
# Mechanical properties :
#
#
# Convention : Reuss Voigt Hill
#
# Bulk Modulus (GPa) = 61.54452 98.29712 79.92082
# Shear Modulus (GPa) = 6.58407 22.67302 14.62854
#
# Velocity S-wave (km/s) = 1.96015 3.63745 2.92175
# Velocity P-wave (km/s) = 6.40607 8.66045 7.61713
#
# Compressibility (1/GPa) = 0.01624840
#
# Stress axis : x y z
#
# Youngs Moduli (GPa) = 28.47882 105.56072 109.08449
#
# Poissons Ratio (x) = 0.89737 0.96736
# Poissons Ratio (y) = 0.24210 0.15096
# Poissons Ratio (z) = 0.25255 0.14609
#
# Static dielectric constant tensor:
#      x y z
#    x 1.570130 0.000000 0.000000 
#    y 0.000000 1.553550 0.000000 
#    z 0.000000 0.000000 1.572700 
# 
# From -- ./inp_files/21827.got.cif
#   From: 2010.05.17/outbox.cif.g08.bks.cpg/sg72_11_cif.got.tgz:21827.got - 2010.06.03 17:03:01.
