data_PCOD9527599
_publ_section_title
;
Structure prediction by ZEFSAII (Michael W. Deem and Ramdas Pophale) SiO2 
 PCOD9527599
Probable space group: I B A M
;
_chemical_formula_sum "Si O2"
_cell_formula_units_Z 84
_cell_length_a 24.055351
_cell_length_b 11.926370
_cell_length_c 15.277120
_cell_angle_alpha 90.000000
_cell_angle_beta 90.000000
_cell_angle_gamma 90.000000
_cell_volume 4382.899040
_symmetry_space_group_name_H-M "I B A M"
_symmetry_group_IT_number 72
_symmetry_cell_setting 'orthorhombic'
loop_
_space_group_symop_operation_xyz
x,y,z
-x,-y,z
x,-y,1/2-z
-x,y,1/2-z
-x,-y,-z
x,y,-z
-x,y,1/2+z
x,-y,1/2+z
1/2+x,1/2+y,1/2+z
1/2-x,1/2-y,1/2+z
1/2+x,1/2-y,-z
1/2-x,1/2+y,-z
1/2-x,1/2-y,1/2-z
1/2+x,1/2+y,1/2-z
1/2-x,1/2+y,z
1/2+x,1/2-y,z
loop_
_atom_site_type_symbol
_atom_site_label
_atom_site_fract_x
_atom_site_fract_y
_atom_site_fract_z
Si Si1 0.929820 0.385838 0.402143
Si Si2 0.863793 0.812071 0.903205
Si Si3 0.686188 0.756830 0.776566
Si Si4 0.000000 0.500000 0.250000
Si Si5 0.817007 0.468287 0.898981
Si Si6 0.691171 0.551190 0.100879
O O1 0.951193 0.417040 0.500000
O O2 0.923080 0.250316 0.404823
O O3 0.963693 0.426301 0.317939
O O4 0.868947 0.446619 0.396718
O O5 0.841086 0.755195 0.816875
O O6 0.848885 0.942670 0.892504
O O7 0.838745 0.783254 0.000000
O O8 0.750000 0.750000 0.750000
O O9 0.673275 0.868462 0.830662
O O10 0.672655 0.649782 0.836085
O O11 0.755572 0.518228 0.878636
O O12 0.813053 0.426881 0.000000
O O13 0.690833 0.588706 0.000000
#
# Coordination Sequence:
#
# PCOD9527599 Si02
#       6
#    16  16  16   4  16  16
#     4  10  22  39  60  85 114 148 191 244 300 353
#     4  10  21  36  52  76 112 152 188 226 278 341
#     4  12  21  29  50  75 112 153 203 229 263 317
#     4  12  22  40  64  86 114 136 198 256 324 350
#     4  10  21  35  52  79 116 153 191 234 283 340
#     4  10  21  35  52  78 117 160 193 224 269 336
#
# _framework density 19.165396999999999
#
# number of rings (size 3 to 8) (size 9 to 14) (size 15 to 20)
#    0.000    1.524    1.905    3.714    0.000    3.810 
#    0.000    0.000    0.000    0.000    0.000   10.667 
#    0.000   36.571    0.000    0.000    0.000    0.000 
#
# Total GULP energy -233917.653166 kJ/mol
# GULP energy per Si atom -5569.467933 kJ/mol
# Density = 1.912178 g / cm^3
# Si number density = 19.165397 Si / 1000 Ang^3
#
#
#
# Elastic Constant Matrix: (Units=GPa)
#
#
# Indices 1 2 3 4 5 6 
#
# 1 37.6841 26.9878 20.4568 0.0000 0.0000 0.0000
# 2 26.9878 87.5098 65.3238 0.0000 0.0000 0.0000
# 3 20.4568 65.3238 160.8542 0.0000 0.0000 0.0000
# 4 0.0000 0.0000 0.0000 33.7291 0.0000 0.0000
# 5 0.0000 0.0000 0.0000 0.0000 28.8748 0.0000
# 6 0.0000 0.0000 0.0000 0.0000 0.0000 8.3158
#
#
#
# Elastic Compliance Matrix: (Units=1/GPa)
#
#
# Indices 1 2 3 4 5 6 
#
# 1 0.034060 -0.010433 -0.000095 0.000000 0.000000 0.000000
# 2 -0.010433 0.019594 -0.006631 0.000000 0.000000 0.000000
# 3 -0.000095 -0.006631 0.008922 0.000000 0.000000 0.000000
# 4 0.000000 0.000000 0.000000 0.029648 0.000000 0.000000
# 5 0.000000 0.000000 0.000000 0.000000 0.034632 0.000000
# 6 0.000000 0.000000 0.000000 0.000000 0.000000 0.120253
#
#
# Mechanical properties :
#
#
# Convention : Reuss Voigt Hill
#
# Bulk Modulus (GPa) = 35.38723 56.84277 46.11500
# Shear Modulus (GPa) = 17.19129 25.73593 21.46361
#
# Velocity S-wave (km/s) = 2.99824 3.66844 3.35014
# Velocity P-wave (km/s) = 5.52179 6.90411 6.25128
#
# Compressibility (1/GPa) = 0.02825878
#
# Stress axis : x y z
#
# Youngs Moduli (GPa) = 29.36028 51.03498 112.08845
#
# Poissons Ratio (x) = 0.53246 0.01060
# Poissons Ratio (y) = 0.30633 0.74321
# Poissons Ratio (z) = 0.00278 0.33839
#
# Static dielectric constant tensor:
#      x y z
#    x 1.591790 0.000000 0.000000 
#    y 0.000000 1.662710 0.000000 
#    z 0.000000 0.000000 1.650380 
# 
# From -- ./inp_files/25006.got.cif
#   From: 2010.05.17/outbox.cif.g08.bks.cpg/sg72_13_cif.got.tgz:25006.got - 2010.06.03 17:03:01.
