data_PCOD9527547
_publ_section_title
;
Structure prediction by ZEFSAII (Michael W. Deem and Ramdas Pophale) SiO2 
 PCOD9527547
Probable space group: I B A M
;
_chemical_formula_sum "Si O2"
_cell_formula_units_Z 96
_cell_length_a 24.962090
_cell_length_b 13.122470
_cell_length_c 12.976943
_cell_angle_alpha 90.000000
_cell_angle_beta 90.000000
_cell_angle_gamma 90.000000
_cell_volume 4250.782954
_symmetry_space_group_name_H-M "I B A M"
_symmetry_group_IT_number 72
_symmetry_cell_setting 'orthorhombic'
loop_
_space_group_symop_operation_xyz
x,y,z
-x,-y,z
x,-y,1/2-z
-x,y,1/2-z
-x,-y,-z
x,y,-z
-x,y,1/2+z
x,-y,1/2+z
1/2+x,1/2+y,1/2+z
1/2-x,1/2-y,1/2+z
1/2+x,1/2-y,-z
1/2-x,1/2+y,-z
1/2-x,1/2-y,1/2-z
1/2+x,1/2+y,1/2-z
1/2-x,1/2+y,z
1/2+x,1/2-y,z
loop_
_atom_site_type_symbol
_atom_site_label
_atom_site_fract_x
_atom_site_fract_y
_atom_site_fract_z
Si Si1 0.213008 0.809006 0.879722
Si Si2 0.040984 0.407802 0.618061
Si Si3 0.912803 0.859642 0.177506
Si Si4 0.130526 0.500000 0.750000
Si Si5 0.972886 0.825827 0.613306
Si Si6 0.825466 0.000000 0.750000
Si Si7 0.329545 0.803904 0.813235
O O1 0.206035 0.916010 0.817119
O O2 0.275107 0.775336 0.871619
O O3 0.180381 0.731258 0.805897
O O4 0.197003 0.813581 0.000000
O O5 0.058016 0.416094 0.500000
O O6 0.091594 0.424894 0.688900
O O7 0.017028 0.295308 0.631191
O O8 0.000000 0.500000 0.636918
O O9 0.933495 0.858698 0.296226
O O10 0.882808 0.754395 0.150154
O O11 0.968526 0.876668 0.119613
O O12 0.865354 0.940584 0.172476
O O13 0.163955 0.575148 0.679264
O O14 0.949709 0.840079 0.500000
#
# Coordination Sequence:
#
# PCOD9527547 Si02
#       7
#    16  16  16   8  16   8  16
#     4  10  23  45  68  91 127 166 210 274 333 386
#     4  10  21  33  51  82 119 160 202 241 293 363
#     4  10  21  39  61  89 127 170 205 269 317 369
#     4  12  20  34  60  85 121 156 198 252 308 364
#     4  10  21  37  57  88 126 170 217 257 308 379
#     4  10  23  43  64  95 127 163 224 269 328 384
#     4  10  22  39  63  95 123 162 213 260 320 397
#
# _framework density 22.584074999999999
#
# number of rings (size 3 to 8) (size 9 to 14) (size 15 to 20)
#    0.000    1.833    1.667    1.750    2.333    6.667 
#    0.000   12.500    0.000    0.000    0.000    0.000 
#    0.000    0.000    0.000    0.000    0.000    0.000 
#
# Total GULP energy -268064.587619 kJ/mol
# GULP energy per Si atom -5584.678909 kJ/mol
# Density = 2.253267 g / cm^3
# Si number density = 22.584075 Si / 1000 Ang^3
#
#
#
# Elastic Constant Matrix: (Units=GPa)
#
#
# Indices 1 2 3 4 5 6 
#
# 1 94.6303 4.5184 -0.1270 0.0000 0.0000 0.0000
# 2 4.5184 49.4801 -0.9160 0.0000 0.0000 0.0000
# 3 -0.1270 -0.9160 97.2648 0.0000 0.0000 0.0000
# 4 0.0000 0.0000 0.0000 14.9144 0.0000 0.0000
# 5 0.0000 0.0000 0.0000 0.0000 -7.5925 0.0000
# 6 0.0000 0.0000 0.0000 0.0000 0.0000 41.8353
#
#
#
# Elastic Compliance Matrix: (Units=1/GPa)
#
#
# Indices 1 2 3 4 5 6 
#
# 1 0.010614 -0.000969 0.000005 0.000000 0.000000 0.000000
# 2 -0.000969 0.020302 0.000190 0.000000 0.000000 0.000000
# 3 0.000005 0.000190 0.010283 0.000000 0.000000 0.000000
# 4 0.000000 0.000000 0.000000 0.067049 0.000000 0.000000
# 5 0.000000 0.000000 0.000000 0.000000 -0.131709 0.000000
# 6 0.000000 0.000000 0.000000 0.000000 0.000000 0.023903
#
#
# Mechanical properties :
#
#
# Convention : Reuss Voigt Hill
#
# Bulk Modulus (GPa) = 25.22070 27.59177 26.40624
# Shear Modulus (GPa) = 328.77735 25.69144 177.23440
#
# Velocity S-wave (km/s) = 12.07871 3.37648 8.86837
# Velocity P-wave (km/s) = 14.34290 5.23877 10.79730
#
# Compressibility (1/GPa) = 0.03964997
#
# Stress axis : x y z
#
# Youngs Moduli (GPa) = 94.21769 49.25584 97.24782
#
# Poissons Ratio (x) = 0.04774 -0.00046
# Poissons Ratio (y) = 0.09131 -0.01847
# Poissons Ratio (z) = -0.00045 -0.00936
#
# Static dielectric constant tensor:
#      x y z
#    x 1.827730 0.000000 0.000000 
#    y 0.000000 1.889180 0.000000 
#    z 0.000000 0.000000 1.814800 
# 
# From -- ./inp_files/25140.got.cif
#   From: 2010.05.17/outbox.cif.g08.bks.cpg/sg72_13_cif.got.tgz:25140.got - 2010.06.03 17:03:01.
