data_PCOD9527801
_publ_section_title
;
Structure prediction by ZEFSAII (Michael W. Deem and Ramdas Pophale) SiO2 
 PCOD9527801
Probable space group: I B A M
;
_chemical_formula_sum "Si O2"
_cell_formula_units_Z 116
_cell_length_a 21.670710
_cell_length_b 31.873088
_cell_length_c 9.047892
_cell_angle_alpha 90.000000
_cell_angle_beta 90.000000
_cell_angle_gamma 90.000000
_cell_volume 6249.491622
_symmetry_space_group_name_H-M "I B A M"
_symmetry_group_IT_number 72
_symmetry_cell_setting 'orthorhombic'
loop_
_space_group_symop_operation_xyz
x,y,z
-x,-y,z
x,-y,1/2-z
-x,y,1/2-z
-x,-y,-z
x,y,-z
-x,y,1/2+z
x,-y,1/2+z
1/2+x,1/2+y,1/2+z
1/2-x,1/2-y,1/2+z
1/2+x,1/2-y,-z
1/2-x,1/2+y,-z
1/2-x,1/2-y,1/2-z
1/2+x,1/2+y,1/2-z
1/2-x,1/2+y,z
1/2+x,1/2-y,z
loop_
_atom_site_type_symbol
_atom_site_label
_atom_site_fract_x
_atom_site_fract_y
_atom_site_fract_z
Si Si1 0.728667 0.043315 0.174936
Si Si2 0.434648 0.455809 0.676041
Si Si3 0.000000 0.500000 0.750000
Si Si4 0.664143 0.781594 0.325260
Si Si5 0.105894 0.438625 0.663980
Si Si6 0.307752 0.695255 0.674843
Si Si7 0.065843 0.657678 0.174429
Si Si8 0.821312 0.893306 0.824263
O O1 0.656688 0.048577 0.216417
O O2 0.765770 0.081821 0.245666
O O3 0.750136 0.000000 0.250000
O O4 0.737441 0.041804 0.000000
O O5 0.415835 0.500000 0.750000
O O6 0.500000 0.444277 0.750000
O O7 0.442380 0.461610 0.500000
O O8 0.382669 0.420932 0.700273
O O9 0.953170 0.531074 0.667000
O O10 0.652415 0.777864 0.500000
O O11 0.661979 0.736180 0.248318
O O12 0.733864 0.798823 0.306098
O O13 0.616710 0.813299 0.250568
O O14 0.134873 0.441413 0.500000
O O15 0.084519 0.391133 0.690723
O O16 0.320656 0.693692 0.500000
O O17 0.327088 0.652582 0.754519
O O18 0.000000 0.664387 0.250000
O O19 0.062529 0.666649 0.000000
O O20 0.810031 0.890525 0.000000
#
# Coordination Sequence:
#
# PCOD9527801 Si02
#       8
#    16  16   4  16  16  16  16  16
#     4  12  25  39  58  84 118 159 203 251 301 352
#     4  10  21  37  60  87 117 156 196 236 282 339
#     4  12  22  40  64  86 118 164 212 252 306 352
#     4  10  21  39  62  88 117 151 192 240 293 353
#     4  11  24  40  60  86 118 160 207 255 302 354
#     4  10  21  38  63  92 118 151 190 237 295 352
#     4  11  23  39  59  86 117 153 197 245 296 351
#     4  11  23  39  60  89 123 156 194 242 296 352
#
# _framework density 18.561509999999998
#
# number of rings (size 3 to 8) (size 9 to 14) (size 15 to 20)
#    0.000    1.241    1.379    5.172    0.000    8.828 
#    0.000    0.690    0.000    1.655    0.000    0.000 
#    0.000    0.000    0.000    0.000    0.000    0.000 
#
# Total GULP energy -324279.121210 kJ/mol
# GULP energy per Si atom -5591.019331 kJ/mol
# Density = 1.851926 g / cm^3
# Si number density = 18.561510 Si / 1000 Ang^3
#
#
#
# Elastic Constant Matrix: (Units=GPa)
#
#
# Indices 1 2 3 4 5 6 
#
# 1 68.1436 58.9668 60.9888 0.0000 0.0000 0.0000
# 2 58.9668 152.2171 89.6444 0.0000 0.0000 0.0000
# 3 60.9888 89.6444 150.4239 0.0000 0.0000 0.0000
# 4 0.0000 0.0000 0.0000 21.4866 0.0000 0.0000
# 5 0.0000 0.0000 0.0000 0.0000 13.2415 0.0000
# 6 0.0000 0.0000 0.0000 0.0000 0.0000 21.8254
#
#
#
# Elastic Compliance Matrix: (Units=1/GPa)
#
#
# Indices 1 2 3 4 5 6 
#
# 1 0.026153 -0.005988 -0.007035 0.000000 0.000000 0.000000
# 2 -0.005988 0.011493 -0.004421 0.000000 0.000000 0.000000
# 3 -0.007035 -0.004421 0.012135 0.000000 0.000000 0.000000
# 4 0.000000 0.000000 0.000000 0.046541 0.000000 0.000000
# 5 0.000000 0.000000 0.000000 0.000000 0.075520 0.000000
# 6 0.000000 0.000000 0.000000 0.000000 0.000000 0.045818
#
#
# Mechanical properties :
#
#
# Convention : Reuss Voigt Hill
#
# Bulk Modulus (GPa) = 67.14980 87.77606 77.46293
# Shear Modulus (GPa) = 19.41642 22.05632 20.73637
#
# Velocity S-wave (km/s) = 3.23779 3.45089 3.34604
# Velocity P-wave (km/s) = 7.08754 7.95425 7.53337
#
# Compressibility (1/GPa) = 0.01489208
#
# Stress axis : x y z
#
# Youngs Moduli (GPa) = 38.23643 87.00789 82.40553
#
# Poissons Ratio (x) = 0.52103 0.57972
# Poissons Ratio (y) = 0.22897 0.36435
# Poissons Ratio (z) = 0.26899 0.38470
#
# Static dielectric constant tensor:
#      x y z
#    x 1.626170 0.000000 0.000000 
#    y 0.000000 1.620030 0.000000 
#    z 0.000000 0.000000 1.630860 
# 
# From -- ./inp_files/7538.got.cif
#   From: 2010.05.17/outbox.cif.g08.bks.cpg/sg72_4_cif.got.tgz:7538.got - 2010.06.03 17:03:01.
