data_PCOD9527454
_publ_section_title
;
Structure prediction by ZEFSAII (Michael W. Deem and Ramdas Pophale) SiO2 
 PCOD9527454
Probable space group: I B A M
;
_chemical_formula_sum "Si O2"
_cell_formula_units_Z 80
_cell_length_a 21.761112
_cell_length_b 8.823107
_cell_length_c 19.009539
_cell_angle_alpha 90.000000
_cell_angle_beta 90.000000
_cell_angle_gamma 90.000000
_cell_volume 3649.843267
_symmetry_space_group_name_H-M "I B A M"
_symmetry_group_IT_number 72
_symmetry_cell_setting 'orthorhombic'
loop_
_space_group_symop_operation_xyz
x,y,z
-x,-y,z
x,-y,1/2-z
-x,y,1/2-z
-x,-y,-z
x,y,-z
-x,y,1/2+z
x,-y,1/2+z
1/2+x,1/2+y,1/2+z
1/2-x,1/2-y,1/2+z
1/2+x,1/2-y,-z
1/2-x,1/2+y,-z
1/2-x,1/2-y,1/2-z
1/2+x,1/2+y,1/2-z
1/2-x,1/2+y,z
1/2+x,1/2-y,z
loop_
_atom_site_type_symbol
_atom_site_label
_atom_site_fract_x
_atom_site_fract_y
_atom_site_fract_z
Si Si1 0.935579 0.171551 0.723425
Si Si2 0.840820 0.562904 0.076752
Si Si3 0.395819 0.389583 0.577159
Si Si4 0.665518 0.871481 0.199459
Si Si5 0.295104 0.353729 0.918528
O O1 0.940534 0.148272 0.640123
O O2 0.879242 0.271590 0.751970
O O3 0.000000 0.234736 0.750000
O O4 0.926664 0.000000 0.750000
O O5 0.851985 0.742129 0.078515
O O6 0.870269 0.470874 0.140366
O O7 0.767307 0.549631 0.083866
O O8 0.861844 0.510096 0.000000
O O9 0.424217 0.400123 0.500000
O O10 0.353894 0.536802 0.589159
O O11 0.703833 0.759632 0.148212
O O12 0.696164 0.000000 0.250000
O O13 0.296578 0.291874 0.000000
#
# Coordination Sequence:
#
# PCOD9527454 Si02
#       5
#    16  16  16  16  16
#     4  11  24  46  66  86 119 162 210 270 327 373
#     4  10  21  39  61  92 130 166 203 248 306 371
#     4  10  20  40  64  89 123 164 211 254 303 378
#     4  12  23  38  61  94 127 164 205 258 314 368
#     4  10  21  39  63  90 128 173 209 243 298 376
#
# _framework density 21.918748000000001
#
# number of rings (size 3 to 8) (size 9 to 14) (size 15 to 20)
#    0.000    1.400    4.000    1.800    0.000    4.400 
#    3.600    4.000    0.000    2.400    0.000    0.000 
#    0.000    0.000    0.000    0.000    0.000    0.000 
#
# Total GULP energy -223022.699176 kJ/mol
# GULP energy per Si atom -5575.567479 kJ/mol
# Density = 2.186886 g / cm^3
# Si number density = 21.918748 Si / 1000 Ang^3
#
#
#
# Elastic Constant Matrix: (Units=GPa)
#
#
# Indices 1 2 3 4 5 6 
#
# 1 29.4433 -6.3686 18.4306 0.0000 0.0000 0.0000
# 2 -6.3686 67.8752 21.7357 0.0000 0.0000 0.0000
# 3 18.4306 21.7357 175.1269 0.0000 0.0000 0.0000
# 4 0.0000 0.0000 0.0000 38.8803 0.0000 0.0000
# 5 0.0000 0.0000 0.0000 0.0000 18.4718 0.0000
# 6 0.0000 0.0000 0.0000 0.0000 0.0000 10.1140
#
#
#
# Elastic Compliance Matrix: (Units=1/GPa)
#
#
# Indices 1 2 3 4 5 6 
#
# 1 0.037945 0.005039 -0.004619 0.000000 0.000000 0.000000
# 2 0.005039 0.016012 -0.002518 0.000000 0.000000 0.000000
# 3 -0.004619 -0.002518 0.006509 0.000000 0.000000 0.000000
# 4 0.000000 0.000000 0.000000 0.025720 0.000000 0.000000
# 5 0.000000 0.000000 0.000000 0.000000 0.054137 0.000000
# 6 0.000000 0.000000 0.000000 0.000000 0.000000 0.098873
#
#
# Mechanical properties :
#
#
# Convention : Reuss Voigt Hill
#
# Bulk Modulus (GPa) = 17.77101 37.78231 27.77666
# Shear Modulus (GPa) = 19.07331 29.40306 24.23818
#
# Velocity S-wave (km/s) = 2.95309 3.66656 3.32899
# Velocity P-wave (km/s) = 4.44442 5.93294 5.24179
#
# Compressibility (1/GPa) = 0.05627142
#
# Stress axis : x y z
#
# Youngs Moduli (GPa) = 26.35400 62.45317 153.64007
#
# Poissons Ratio (x) = -0.31473 0.70964
# Poissons Ratio (y) = -0.13281 0.38682
# Poissons Ratio (z) = 0.12172 0.15724
#
# Static dielectric constant tensor:
#      x y z
#    x 1.757980 0.000000 0.000000 
#    y 0.000000 1.864910 0.000000 
#    z 0.000000 0.000000 1.877140 
# 
# From -- ./inp_files/33754.got.cif
#   From: 2010.05.17/outbox.cif.g08.bks.cpg/sg72_17_cif.got.tgz:33754.got - 2010.06.03 17:03:01.
