data_PCOD9527108
_publ_section_title
;
Structure prediction by ZEFSAII (Michael W. Deem and Ramdas Pophale) SiO2 
 PCOD9527108
Probable space group: I B A M
;
_chemical_formula_sum "Si O2"
_cell_formula_units_Z 112
_cell_length_a 22.625190
_cell_length_b 10.686077
_cell_length_c 24.899171
_cell_angle_alpha 90.000000
_cell_angle_beta 90.000000
_cell_angle_gamma 90.000000
_cell_volume 6019.985179
_symmetry_space_group_name_H-M "I B A M"
_symmetry_group_IT_number 72
_symmetry_cell_setting 'orthorhombic'
loop_
_space_group_symop_operation_xyz
x,y,z
-x,-y,z
x,-y,1/2-z
-x,y,1/2-z
-x,-y,-z
x,y,-z
-x,y,1/2+z
x,-y,1/2+z
1/2+x,1/2+y,1/2+z
1/2-x,1/2-y,1/2+z
1/2+x,1/2-y,-z
1/2-x,1/2+y,-z
1/2-x,1/2-y,1/2-z
1/2+x,1/2+y,1/2-z
1/2-x,1/2+y,z
1/2+x,1/2-y,z
loop_
_atom_site_type_symbol
_atom_site_label
_atom_site_fract_x
_atom_site_fract_y
_atom_site_fract_z
Si Si1 0.433267 0.010396 0.813763
Si Si2 0.771107 0.871703 0.715292
Si Si3 0.167151 0.130004 0.940303
Si Si4 0.870038 0.242004 0.142081
Si Si5 0.301941 0.089726 0.061155
Si Si6 0.437947 0.569686 0.561689
Si Si7 0.164751 0.633943 0.631459
O O1 0.401536 0.139423 0.830355
O O2 0.500000 0.000000 0.834493
O O3 0.434172 0.000000 0.750000
O O4 0.393841 0.898251 0.836153
O O5 0.750000 0.750000 0.750000
O O6 0.832681 0.838317 0.685236
O O7 0.720533 0.889019 0.670191
O O8 0.774810 0.000000 0.750000
O O9 0.231711 0.069012 0.936271
O O10 0.163697 0.229652 0.893263
O O11 0.114846 0.031242 0.937256
O O12 0.164503 0.189894 0.000000
O O13 0.822176 0.298894 0.100171
O O14 0.918413 0.168310 0.106809
O O15 0.331804 0.964743 0.082904
O O16 0.318046 0.118891 0.000000
O O17 0.500000 0.500000 0.572267
O O18 0.440846 0.620366 0.500000
#
# Coordination Sequence:
#
# PCOD9527108 Si02
#       7
#    16  16  16  16  16  16  16
#     4  10  23  43  62  85 113 158 209 259 306 357
#     4  12  25  40  63  93 129 166 210 267 325 382
#     4  10  21  35  59  90 123 161 197 246 305 374
#     4  11  22  40  64  90 120 164 202 255 317 378
#     4  10  20  36  60  93 122 151 194 248 313 381
#     4  10  23  41  61  88 126 166 207 249 305 375
#     4  11  21  37  62  86 122 156 197 251 309 371
#
# _framework density 18.604697000000002
#
# number of rings (size 3 to 8) (size 9 to 14) (size 15 to 20)
#    0.000    1.429    1.429    4.714    4.000    0.000 
#    0.000    0.000    0.000    2.571    0.000    0.000 
#    0.000    0.000    0.000    0.000    0.000    0.000 
#
# Total GULP energy -312685.473353 kJ/mol
# GULP energy per Si atom -5583.669167 kJ/mol
# Density = 1.856235 g / cm^3
# Si number density = 18.604697 Si / 1000 Ang^3
#
#
#
# Elastic Constant Matrix: (Units=GPa)
#
#
# Indices 1 2 3 4 5 6 
#
# 1 90.5306 -2.5164 28.0976 0.0000 0.0000 0.0000
# 2 -2.5164 41.8482 32.8645 0.0000 0.0000 0.0000
# 3 28.0976 32.8645 89.3791 0.0000 0.0000 0.0000
# 4 0.0000 0.0000 0.0000 31.5960 0.0000 0.0000
# 5 0.0000 0.0000 0.0000 0.0000 45.0591 0.0000
# 6 0.0000 0.0000 0.0000 0.0000 0.0000 26.9968
#
#
#
# Elastic Compliance Matrix: (Units=1/GPa)
#
#
# Indices 1 2 3 4 5 6 
#
# 1 0.013132 0.005668 -0.006212 0.000000 0.000000 0.000000
# 2 0.005668 0.036044 -0.015035 0.000000 0.000000 0.000000
# 3 -0.006212 -0.015035 0.018670 0.000000 0.000000 0.000000
# 4 0.000000 0.000000 0.000000 0.031650 0.000000 0.000000
# 5 0.000000 0.000000 0.000000 0.000000 0.022193 0.000000
# 6 0.000000 0.000000 0.000000 0.000000 0.000000 0.037041
#
#
# Mechanical properties :
#
#
# Convention : Reuss Voigt Hill
#
# Bulk Modulus (GPa) = 27.25761 37.62769 32.44265
# Shear Modulus (GPa) = 24.73809 31.61787 28.17798
#
# Velocity S-wave (km/s) = 3.65042 4.12692 3.89596
# Velocity P-wave (km/s) = 5.69650 6.55571 6.14115
#
# Compressibility (1/GPa) = 0.03668700
#
# Stress axis : x y z
#
# Youngs Moduli (GPa) = 76.15197 27.74358 53.56277
#
# Poissons Ratio (x) = -0.15726 0.33275
# Poissons Ratio (y) = -0.43165 0.80533
# Poissons Ratio (z) = 0.47308 0.41713
#
# Static dielectric constant tensor:
#      x y z
#    x 1.626000 0.000000 0.000000 
#    y 0.000000 1.637440 0.000000 
#    z 0.000000 0.000000 1.664470 
# 
# From -- ./inp_files/45427.got.cif
#   From: 2010.05.17/outbox.cif.g08.bks.cpg/sg72_23_cif.got.tgz:45427.got - 2010.06.03 17:03:01.
