data_PCOD9527594
_publ_section_title
;
Structure prediction by ZEFSAII (Michael W. Deem and Ramdas Pophale) SiO2 
 PCOD9527594
Probable space group: I B A M
;
_chemical_formula_sum "Si O2"
_cell_formula_units_Z 96
_cell_length_a 29.941763
_cell_length_b 10.402209
_cell_length_c 14.992371
_cell_angle_alpha 90.000000
_cell_angle_beta 90.000000
_cell_angle_gamma 90.000000
_cell_volume 4669.531016
_symmetry_space_group_name_H-M "I B A M"
_symmetry_group_IT_number 72
_symmetry_cell_setting 'orthorhombic'
loop_
_space_group_symop_operation_xyz
x,y,z
-x,-y,z
x,-y,1/2-z
-x,y,1/2-z
-x,-y,-z
x,y,-z
-x,y,1/2+z
x,-y,1/2+z
1/2+x,1/2+y,1/2+z
1/2-x,1/2-y,1/2+z
1/2+x,1/2-y,-z
1/2-x,1/2+y,-z
1/2-x,1/2-y,1/2-z
1/2+x,1/2+y,1/2-z
1/2-x,1/2+y,z
1/2+x,1/2-y,z
loop_
_atom_site_type_symbol
_atom_site_label
_atom_site_fract_x
_atom_site_fract_y
_atom_site_fract_z
Si Si1 0.287127 0.072246 0.605444
Si Si2 0.717483 0.218242 0.389815
Si Si3 0.118146 0.240531 0.603612
Si Si4 0.613007 0.033522 0.146844
Si Si5 0.531425 0.609465 0.102468
Si Si6 0.482517 0.863669 0.147036
O O1 0.277685 0.067263 0.500000
O O2 0.256250 0.186230 0.640650
O O3 0.276905 0.929039 0.640866
O O4 0.340167 0.090867 0.615479
O O5 0.716492 0.214817 0.500000
O O6 0.668343 0.265047 0.359223
O O7 0.121404 0.203725 0.500000
O O8 0.105143 0.392030 0.604915
O O9 0.078950 0.152670 0.644390
O O10 0.617611 0.000000 0.250000
O O11 0.570692 0.125849 0.138093
O O12 0.500000 0.500000 0.144024
O O13 0.503005 0.740090 0.101659
O O14 0.540336 0.568778 0.000000
O O15 0.500000 0.857855 0.250000
O O16 0.500000 0.000000 0.111422
#
# Coordination Sequence:
#
# PCOD9527594 Si02
#       6
#    16  16  16  16  16  16
#     4   9  18  33  52  75 100 132 169 209 255 306
#     4   8  15  30  51  72  96 128 167 201 243 304
#     4   9  17  32  53  72 101 141 169 201 260 318
#     4  11  19  32  53  78 102 130 173 220 256 295
#     4  10  21  35  51  79 111 135 168 217 268 313
#     4  11  20  36  55  76 102 139 181 215 251 313
#
# _framework density 20.558810000000001
#
# number of rings (size 3 to 8) (size 9 to 14) (size 15 to 20)
#    0.000    2.333    3.333    1.500    0.000    2.000 
#    3.000    3.333    0.000    0.000    0.000    0.000 
#    0.000    0.000    0.000    0.000    0.000    0.000 
#
# Total GULP energy -267594.968102 kJ/mol
# GULP energy per Si atom -5574.895169 kJ/mol
# Density = 2.051202 g / cm^3
# Si number density = 20.558810 Si / 1000 Ang^3
#
#
#
# Elastic Constant Matrix: (Units=GPa)
#
#
# Indices 1 2 3 4 5 6 
#
# 1 163.3965 84.0347 -7.1421 0.0000 0.0000 0.0000
# 2 84.0347 83.0028 1.7596 0.0000 0.0000 0.0000
# 3 -7.1421 1.7596 24.3357 0.0000 0.0000 0.0000
# 4 0.0000 0.0000 0.0000 10.8366 0.0000 0.0000
# 5 0.0000 0.0000 0.0000 0.0000 -3.1667 0.0000
# 6 0.0000 0.0000 0.0000 0.0000 0.0000 16.1697
#
#
#
# Elastic Compliance Matrix: (Units=1/GPa)
#
#
# Indices 1 2 3 4 5 6 
#
# 1 0.013326 -0.013596 0.004894 0.000000 0.000000 0.000000
# 2 -0.013596 0.025937 -0.005865 0.000000 0.000000 0.000000
# 3 0.004894 -0.005865 0.042952 0.000000 0.000000 0.000000
# 4 0.000000 0.000000 0.000000 0.092280 0.000000 0.000000
# 5 0.000000 0.000000 0.000000 0.000000 -0.315788 0.000000
# 6 0.000000 0.000000 0.000000 0.000000 0.000000 0.061844
#
#
# Mechanical properties :
#
#
# Convention : Reuss Voigt Hill
#
# Bulk Modulus (GPa) = 18.83905 47.55994 33.19949
# Shear Modulus (GPa) = -153.27553 17.57344 -67.85105
#
# Velocity S-wave (km/s) = -8.64387 2.92685 -5.75109
# Velocity P-wave (km/s) = 9.50992 5.88267 5.28360
#
# Compressibility (1/GPa) = 0.05308124
#
# Stress axis : x y z
#
# Youngs Moduli (GPa) = 75.03973 38.55513 23.28162
#
# Poissons Ratio (x) = 0.52418 -0.11394
# Poissons Ratio (y) = 1.02022 0.13656
# Poissons Ratio (z) = -0.36725 0.22614
#
# Static dielectric constant tensor:
#      x y z
#    x 1.803480 0.000000 0.000000 
#    y 0.000000 1.719070 0.000000 
#    z 0.000000 0.000000 1.420510 
# 
# From -- ./inp_files/33869.got.cif
#   From: 2010.05.17/outbox.cif.g08.bks.cpg/sg72_17_cif.got.tgz:33869.got - 2010.06.03 17:03:01.
