data_PCOD9527208
_publ_section_title
;
Structure prediction by ZEFSAII (Michael W. Deem and Ramdas Pophale) SiO2 
 PCOD9527208
Probable space group: I B A M
;
_chemical_formula_sum "Si O2"
_cell_formula_units_Z 96
_cell_length_a 24.009067
_cell_length_b 8.440295
_cell_length_c 23.985102
_cell_angle_alpha 90.000000
_cell_angle_beta 90.000000
_cell_angle_gamma 90.000000
_cell_volume 4860.427611
_symmetry_space_group_name_H-M "I B A M"
_symmetry_group_IT_number 72
_symmetry_cell_setting 'orthorhombic'
loop_
_space_group_symop_operation_xyz
x,y,z
-x,-y,z
x,-y,1/2-z
-x,y,1/2-z
-x,-y,-z
x,y,-z
-x,y,1/2+z
x,-y,1/2+z
1/2+x,1/2+y,1/2+z
1/2-x,1/2-y,1/2+z
1/2+x,1/2-y,-z
1/2-x,1/2+y,-z
1/2-x,1/2-y,1/2-z
1/2+x,1/2+y,1/2-z
1/2-x,1/2+y,z
1/2+x,1/2-y,z
loop_
_atom_site_type_symbol
_atom_site_label
_atom_site_fract_x
_atom_site_fract_y
_atom_site_fract_z
Si Si1 0.008057 0.326537 0.623264
Si Si2 0.479296 0.745376 0.000000
Si Si3 0.821084 0.286563 0.300641
Si Si4 0.930128 0.096208 0.307263
Si Si5 0.624848 0.331026 0.384627
Si Si6 0.213491 0.371966 0.674565
Si Si7 0.904582 0.953350 0.500000
O O1 0.981399 0.327804 0.560699
O O2 0.980392 0.183973 0.659680
O O3 0.000000 0.500000 0.649149
O O4 0.073512 0.293092 0.616916
O O5 0.425517 0.632944 0.000000
O O6 0.536591 0.642921 0.000000
O O7 0.884671 0.234311 0.298661
O O8 0.806970 0.448712 0.332744
O O9 0.804409 0.319717 0.236803
O O10 0.779944 0.152246 0.325235
O O11 0.941762 0.000000 0.250000
O O12 0.897871 0.970239 0.345393
O O13 0.680711 0.246280 0.365442
O O14 0.628276 0.404457 0.445557
#
# Coordination Sequence:
#
# PCOD9527208 Si02
#       7
#    16   8  16  16  16  16   8
#     4  11  23  38  59  87 124 160 203 256 310 370
#     4   9  17  36  60  87 111 154 208 252 295 359
#     4  10  21  36  59  86 115 150 195 249 293 361
#     4  12  23  38  57  86 122 162 205 247 311 374
#     4  11  21  38  60  85 117 160 201 248 305 365
#     4  10  20  37  60  86 115 148 199 248 299 354
#     4   9  18  34  60  85 115 154 204 256 291 358
#
# _framework density 19.751348
#
# number of rings (size 3 to 8) (size 9 to 14) (size 15 to 20)
#    0.000    1.500    3.333    2.750    2.333    1.333 
#    0.000    0.833    0.000    5.000    0.000    0.000 
#    0.000    0.000    0.000    0.000    0.000    0.000 
#
# Total GULP energy -267855.379082 kJ/mol
# GULP energy per Si atom -5580.320398 kJ/mol
# Density = 1.970639 g / cm^3
# Si number density = 19.751348 Si / 1000 Ang^3
#
#
#
# Elastic Constant Matrix: (Units=GPa)
#
#
# Indices 1 2 3 4 5 6 
#
# 1 76.2496 6.7565 12.5389 0.0000 0.0000 0.0000
# 2 6.7565 82.0812 25.3644 0.0000 0.0000 0.0000
# 3 12.5389 25.3644 104.4674 0.0000 0.0000 0.0000
# 4 0.0000 0.0000 0.0000 20.0845 0.0000 0.0000
# 5 0.0000 0.0000 0.0000 0.0000 22.4553 0.0000
# 6 0.0000 0.0000 0.0000 0.0000 0.0000 26.2255
#
#
#
# Elastic Compliance Matrix: (Units=1/GPa)
#
#
# Indices 1 2 3 4 5 6 
#
# 1 0.013411 -0.000656 -0.001451 0.000000 0.000000 0.000000
# 2 -0.000656 0.013203 -0.003127 0.000000 0.000000 0.000000
# 3 -0.001451 -0.003127 0.010506 0.000000 0.000000 0.000000
# 4 0.000000 0.000000 0.000000 0.049790 0.000000 0.000000
# 5 0.000000 0.000000 0.000000 0.000000 0.044533 0.000000
# 6 0.000000 0.000000 0.000000 0.000000 0.000000 0.038131
#
#
# Mechanical properties :
#
#
# Convention : Reuss Voigt Hill
#
# Bulk Modulus (GPa) = 37.51792 39.12420 38.32106
# Shear Modulus (GPa) = 26.46553 28.29563 27.38058
#
# Velocity S-wave (km/s) = 3.66448 3.78907 3.72730
# Velocity P-wave (km/s) = 6.07791 6.24452 6.16178
#
# Compressibility (1/GPa) = 0.02665393
#
# Stress axis : x y z
#
# Youngs Moduli (GPa) = 74.56308 75.73845 95.18641
#
# Poissons Ratio (x) = 0.04966 0.13807
# Poissons Ratio (y) = 0.04889 0.29765
# Poissons Ratio (z) = 0.10816 0.23684
#
# Static dielectric constant tensor:
#      x y z
#    x 1.696800 0.000000 0.000000 
#    y 0.000000 1.748340 0.000000 
#    z 0.000000 0.000000 1.690240 
# 
# From -- ./inp_files/45688.got.cif
#   From: 2010.05.17/outbox.cif.g08.bks.cpg/sg72_23_cif.got.tgz:45688.got - 2010.06.03 17:03:01.
