data_PCOD9527718
_publ_section_title
;
Structure prediction by ZEFSAII (Michael W. Deem and Ramdas Pophale) SiO2 
 PCOD9527718
Probable space group: I B A M
;
_chemical_formula_sum "Si O2"
_cell_formula_units_Z 116
_cell_length_a 33.206248
_cell_length_b 11.814892
_cell_length_c 13.284117
_cell_angle_alpha 90.000000
_cell_angle_beta 90.000000
_cell_angle_gamma 90.000000
_cell_volume 5211.734161
_symmetry_space_group_name_H-M "I B A M"
_symmetry_group_IT_number 72
_symmetry_cell_setting 'orthorhombic'
loop_
_space_group_symop_operation_xyz
x,y,z
-x,-y,z
x,-y,1/2-z
-x,y,1/2-z
-x,-y,-z
x,y,-z
-x,y,1/2+z
x,-y,1/2+z
1/2+x,1/2+y,1/2+z
1/2-x,1/2-y,1/2+z
1/2+x,1/2-y,-z
1/2-x,1/2+y,-z
1/2-x,1/2-y,1/2-z
1/2+x,1/2+y,1/2-z
1/2-x,1/2+y,z
1/2+x,1/2-y,z
loop_
_atom_site_type_symbol
_atom_site_label
_atom_site_fract_x
_atom_site_fract_y
_atom_site_fract_z
Si Si1 0.732763 0.944529 0.122196
Si Si2 0.000000 0.500000 0.250000
Si Si3 0.931763 0.619621 0.878650
Si Si4 0.864775 0.793759 0.621979
Si Si5 0.971452 0.841053 0.878488
Si Si6 0.227541 0.186086 0.376665
Si Si7 0.638903 0.041205 0.379376
Si Si8 0.944009 0.907886 0.377730
O O1 0.744418 0.813188 0.151593
O O2 0.685659 0.959003 0.148663
O O3 0.753303 0.064369 0.154074
O O4 0.736346 0.943633 0.000000
O O5 0.969877 0.565640 0.176456
O O6 0.937663 0.750360 0.852804
O O7 0.890381 0.559360 0.846952
O O8 0.935261 0.605530 0.000000
O O9 0.862522 0.802185 0.500000
O O10 0.819273 0.814763 0.657016
O O11 0.877603 0.665392 0.645090
O O12 0.900007 0.874679 0.658589
O O13 0.018314 0.828799 0.845744
O O14 0.956478 0.965274 0.852229
O O15 0.974010 0.837566 0.000000
O O16 0.228780 0.186273 0.500000
O O17 0.639536 0.034104 0.500000
O O18 0.942349 0.901499 0.500000
#
# Coordination Sequence:
#
# PCOD9527718 Si02
#       8
#    16   4  16  16  16  16  16  16
#     4   8  13  23  36  55  86 126 164 201 252 306
#     4  12  26  36  52  80 104 132 174 216 254 310
#     4  10  21  37  53  75 104 135 171 213 259 304
#     4   8  13  21  36  60  89 123 167 207 248 305
#     4   8  15  27  44  65  93 126 163 206 253 301
#     4   8  13  21  32  51  85 126 162 202 252 302
#     4   8  15  27  44  64  91 129 167 204 253 306
#     4   8  13  23  40  64  90 123 166 208 248 298
#
# _framework density 22.257466999999998
#
# number of rings (size 3 to 8) (size 9 to 14) (size 15 to 20)
#    0.000    3.586    0.000    2.690    1.931    0.000 
#    2.483    0.000    0.000    1.655    0.000    0.000 
#    0.000    4.414    0.000    0.552    0.000    0.000 
#
# Total GULP energy -323337.903872 kJ/mol
# GULP energy per Si atom -5574.791446 kJ/mol
# Density = 2.220681 g / cm^3
# Si number density = 22.257467 Si / 1000 Ang^3
#
#
#
# Elastic Constant Matrix: (Units=GPa)
#
#
# Indices 1 2 3 4 5 6 
#
# 1 105.9474 89.4320 -9.1933 0.0000 0.0000 0.0000
# 2 89.4320 161.4423 15.1762 0.0000 0.0000 0.0000
# 3 -9.1933 15.1762 63.8209 0.0000 0.0000 0.0000
# 4 0.0000 0.0000 0.0000 18.6154 0.0000 0.0000
# 5 0.0000 0.0000 0.0000 0.0000 -11.3949 0.0000
# 6 0.0000 0.0000 0.0000 0.0000 0.0000 42.9155
#
#
#
# Elastic Compliance Matrix: (Units=1/GPa)
#
#
# Indices 1 2 3 4 5 6 
#
# 1 0.019440 -0.011284 0.005484 0.000000 0.000000 0.000000
# 2 -0.011284 0.012886 -0.004690 0.000000 0.000000 0.000000
# 3 0.005484 -0.004690 0.017574 0.000000 0.000000 0.000000
# 4 0.000000 0.000000 0.000000 0.053719 0.000000 0.000000
# 5 0.000000 0.000000 0.000000 0.000000 -0.087759 0.000000
# 6 0.000000 0.000000 0.000000 0.000000 0.000000 0.023302
#
#
# Mechanical properties :
#
#
# Convention : Reuss Voigt Hill
#
# Bulk Modulus (GPa) = 34.57945 58.00448 46.29197
# Shear Modulus (GPa) = 71.65205 25.74692 48.69948
#
# Velocity S-wave (km/s) = 5.67999 3.40483 4.68269
# Velocity P-wave (km/s) = 7.65416 6.44782 7.07674
#
# Compressibility (1/GPa) = 0.02891891
#
# Stress axis : x y z
#
# Youngs Moduli (GPa) = 51.44129 77.60387 56.90252
#
# Poissons Ratio (x) = 0.87570 -0.31203
# Poissons Ratio (y) = 0.58047 0.26685
# Poissons Ratio (z) = -0.28208 0.36394
#
# Static dielectric constant tensor:
#      x y z
#    x 1.771080 0.000000 0.000000 
#    y 0.000000 1.844120 0.000000 
#    z 0.000000 0.000000 1.917170 
# 
# From -- ./inp_files/34318.got.cif
#   From: 2010.05.17/outbox.cif.g08.bks.cpg/sg72_18_cif.got.tgz:34318.got - 2010.06.03 17:03:01.
