data_PCOD9527846
_publ_section_title
;
Structure prediction by ZEFSAII (Michael W. Deem and Ramdas Pophale) SiO2 
 PCOD9527846
Probable space group: I B A M
;
_chemical_formula_sum "Si O2"
_cell_formula_units_Z 112
_cell_length_a 18.609909
_cell_length_b 19.871564
_cell_length_c 17.669430
_cell_angle_alpha 90.000000
_cell_angle_beta 90.000000
_cell_angle_gamma 90.000000
_cell_volume 6534.296529
_symmetry_space_group_name_H-M "I B A M"
_symmetry_group_IT_number 72
_symmetry_cell_setting 'orthorhombic'
loop_
_space_group_symop_operation_xyz
x,y,z
-x,-y,z
x,-y,1/2-z
-x,y,1/2-z
-x,-y,-z
x,y,-z
-x,y,1/2+z
x,-y,1/2+z
1/2+x,1/2+y,1/2+z
1/2-x,1/2-y,1/2+z
1/2+x,1/2-y,-z
1/2-x,1/2+y,-z
1/2-x,1/2-y,1/2-z
1/2+x,1/2+y,1/2-z
1/2-x,1/2+y,z
1/2+x,1/2-y,z
loop_
_atom_site_type_symbol
_atom_site_label
_atom_site_fract_x
_atom_site_fract_y
_atom_site_fract_z
Si Si1 0.367795 0.427493 0.288150
Si Si2 0.231112 0.854047 0.087534
Si Si3 0.079429 0.675547 0.258858
Si Si4 0.585442 0.683294 0.169683
Si Si5 0.629218 0.230415 0.916357
Si Si6 0.287348 0.922180 0.238010
Si Si7 0.444196 0.631665 0.914263
O O1 0.372246 0.500000 0.250000
O O2 0.405156 0.370413 0.237278
O O3 0.283345 0.409035 0.289215
O O4 0.410117 0.428164 0.366400
O O5 0.154252 0.827932 0.115931
O O6 0.288715 0.793296 0.090133
O O7 0.260255 0.906238 0.151604
O O8 0.228602 0.878237 0.000000
O O9 0.083316 0.742643 0.206785
O O10 0.088447 0.697877 0.346102
O O11 0.145903 0.625931 0.243434
O O12 0.000000 0.645278 0.250000
O O13 0.513919 0.664231 0.124479
O O14 0.616024 0.309667 0.912476
O O15 0.603191 0.208321 0.000000
O O16 0.306741 0.000000 0.250000
O O17 0.460479 0.613432 0.000000
#
# Coordination Sequence:
#
# PCOD9527846 Si02
#       7
#    16  16  16  16  16  16  16
#     4  10  21  38  55  74 106 145 184 227 269 317
#     4   9  19  34  56  78 106 144 180 221 273 327
#     4  11  19  33  57  83 112 145 178 226 278 326
#     4  11  20  33  54  83 109 138 182 222 271 327
#     4   9  18  32  51  78 107 139 176 219 270 322
#     4   9  21  37  57  81 109 143 191 233 265 320
#     4  11  21  34  53  78 113 142 176 224 275 327
#
# _framework density 17.140329999999999
#
# number of rings (size 3 to 8) (size 9 to 14) (size 15 to 20)
#    0.000    2.000    2.857    0.857    2.000    3.143 
#    0.000    7.857    0.000    3.429    0.000    4.000 
#    0.000    0.000    0.000    0.000    0.000    0.000 
#
# Total GULP energy -312141.622704 kJ/mol
# GULP energy per Si atom -5573.957548 kJ/mol
# Density = 1.710132 g / cm^3
# Si number density = 17.140330 Si / 1000 Ang^3
#
#
#
# Elastic Constant Matrix: (Units=GPa)
#
#
# Indices 1 2 3 4 5 6 
#
# 1 112.8849 57.2216 69.5431 0.0000 0.0000 0.0000
# 2 57.2216 70.6367 31.1735 0.0000 0.0000 0.0000
# 3 69.5431 31.1735 93.2737 0.0000 0.0000 0.0000
# 4 0.0000 0.0000 0.0000 15.4368 0.0000 0.0000
# 5 0.0000 0.0000 0.0000 0.0000 22.3659 0.0000
# 6 0.0000 0.0000 0.0000 0.0000 0.0000 12.2238
#
#
#
# Elastic Compliance Matrix: (Units=1/GPa)
#
#
# Indices 1 2 3 4 5 6 
#
# 1 0.023888 -0.013479 -0.013306 0.000000 0.000000 0.000000
# 2 -0.013479 0.024212 0.001958 0.000000 0.000000 0.000000
# 3 -0.013306 0.001958 0.019987 0.000000 0.000000 0.000000
# 4 0.000000 0.000000 0.000000 0.064780 0.000000 0.000000
# 5 0.000000 0.000000 0.000000 0.000000 0.044711 0.000000
# 6 0.000000 0.000000 0.000000 0.000000 0.000000 0.081808
#
#
# Mechanical properties :
#
#
# Convention : Reuss Voigt Hill
#
# Bulk Modulus (GPa) = 54.24909 65.85240 60.05074
# Shear Modulus (GPa) = 15.86364 17.92909 16.89637
#
# Velocity S-wave (km/s) = 3.04553 3.23773 3.14310
# Velocity P-wave (km/s) = 6.63970 7.24432 6.94859
#
# Compressibility (1/GPa) = 0.01843349
#
# Stress axis : x y z
#
# Youngs Moduli (GPa) = 41.86143 41.30113 50.03205
#
# Poissons Ratio (x) = 0.55672 0.66571
# Poissons Ratio (y) = 0.56427 -0.09796
# Poissons Ratio (z) = 0.55699 -0.08086
#
# Static dielectric constant tensor:
#      x y z
#    x 1.591680 0.000000 0.000000 
#    y 0.000000 1.564910 0.000000 
#    z 0.000000 0.000000 1.618240 
# 
# From -- ./inp_files/32749.got.cif
#   From: 2010.05.17/outbox.cif.g08.bks.cpg/sg72_17_cif.got.tgz:32749.got - 2010.06.03 17:03:01.
