data_PCOD9527900
_publ_section_title
;
Structure prediction by ZEFSAII (Michael W. Deem and Ramdas Pophale) SiO2 
 PCOD9527900
Probable space group: I B A M
;
_chemical_formula_sum "Si O2"
_cell_formula_units_Z 80
_cell_length_a 26.051578
_cell_length_b 18.649790
_cell_length_c 8.724999
_cell_angle_alpha 90.000000
_cell_angle_beta 90.000000
_cell_angle_gamma 90.000000
_cell_volume 4239.097118
_symmetry_space_group_name_H-M "I B A M"
_symmetry_group_IT_number 72
_symmetry_cell_setting 'orthorhombic'
loop_
_space_group_symop_operation_xyz
x,y,z
-x,-y,z
x,-y,1/2-z
-x,y,1/2-z
-x,-y,-z
x,y,-z
-x,y,1/2+z
x,-y,1/2+z
1/2+x,1/2+y,1/2+z
1/2-x,1/2-y,1/2+z
1/2+x,1/2-y,-z
1/2-x,1/2+y,-z
1/2-x,1/2-y,1/2-z
1/2+x,1/2+y,1/2-z
1/2-x,1/2+y,z
1/2+x,1/2-y,z
loop_
_atom_site_type_symbol
_atom_site_label
_atom_site_fract_x
_atom_site_fract_y
_atom_site_fract_z
Si Si1 0.251644 0.829777 0.683440
Si Si2 0.555143 0.173774 0.183997
Si Si3 0.154077 0.420297 0.183499
Si Si4 0.055823 0.167814 0.316523
Si Si5 0.149940 0.920735 0.683907
O O1 0.255962 0.826428 0.500000
O O2 0.250000 0.750000 0.750000
O O3 0.299556 0.873271 0.750457
O O4 0.199283 0.871958 0.721595
O O5 0.500000 0.150868 0.250000
O O6 0.600430 0.118803 0.221780
O O7 0.566739 0.251816 0.255114
O O8 0.551743 0.181117 0.000000
O O9 0.155836 0.500000 0.250000
O O10 0.158525 0.423093 0.000000
O O11 0.054144 0.168236 0.500000
O O12 0.099586 0.115282 0.255667
O O13 0.000000 0.147761 0.250000
O O14 0.144888 0.923621 0.500000
O O15 0.157322 0.000000 0.750000
#
# Coordination Sequence:
#
# PCOD9527900 Si02
#       5
#    16  16  16  16  16
#     4  11  24  41  64  90 119 155 197 243 292 349
#     4  10  21  38  60  87 118 155 198 245 292 345
#     4  11  24  40  60  87 121 157 197 244 296 352
#     4  11  22  38  62  89 118 155 196 241 290 345
#     4  11  24  41  60  87 120 154 194 241 291 347
#
# _framework density 18.871943999999999
#
# number of rings (size 3 to 8) (size 9 to 14) (size 15 to 20)
#    0.000    1.200    0.000    7.200    0.000   13.600 
#    0.000    4.000    0.000    0.000    0.000    0.000 
#    0.000    0.000    0.000    0.000    0.000    0.000 
#
# Total GULP energy -223804.446250 kJ/mol
# GULP energy per Si atom -5595.111156 kJ/mol
# Density = 1.882899 g / cm^3
# Si number density = 18.871944 Si / 1000 Ang^3
#
#
#
# Elastic Constant Matrix: (Units=GPa)
#
#
# Indices 1 2 3 4 5 6 
#
# 1 157.5951 135.2842 85.2753 0.0000 0.0000 0.0000
# 2 135.2842 184.6116 82.9913 0.0000 0.0000 0.0000
# 3 85.2753 82.9913 101.2006 0.0000 0.0000 0.0000
# 4 0.0000 0.0000 0.0000 39.1204 0.0000 0.0000
# 5 0.0000 0.0000 0.0000 0.0000 32.5890 0.0000
# 6 0.0000 0.0000 0.0000 0.0000 0.0000 612.1089
#
#
#
# Elastic Compliance Matrix: (Units=1/GPa)
#
#
# Indices 1 2 3 4 5 6 
#
# 1 0.020369 -0.011421 -0.007797 0.000000 0.000000 0.000000
# 2 -0.011421 0.014984 -0.002664 0.000000 0.000000 0.000000
# 3 -0.007797 -0.002664 0.018636 0.000000 0.000000 0.000000
# 4 0.000000 0.000000 0.000000 0.025562 0.000000 0.000000
# 5 0.000000 0.000000 0.000000 0.000000 0.030685 0.000000
# 6 0.000000 0.000000 0.000000 0.000000 0.000000 0.001634
#
#
# Mechanical properties :
#
#
# Convention : Reuss Voigt Hill
#
# Bulk Modulus (GPa) = 97.80810 116.72320 107.26565
# Shear Modulus (GPa) = 31.43818 146.08741 88.76279
#
# Velocity S-wave (km/s) = 4.08593 8.80783 6.86559
# Velocity P-wave (km/s) = 8.61392 12.86163 10.94580
#
# Compressibility (1/GPa) = 0.01022410
#
# Stress axis : x y z
#
# Youngs Moduli (GPa) = 49.09496 66.73939 53.65866
#
# Poissons Ratio (x) = 0.76223 0.41840
# Poissons Ratio (y) = 0.56071 0.14294
# Poissons Ratio (z) = 0.38281 0.17779
#
# Static dielectric constant tensor:
#      x y z
#    x 1.633570 0.000000 0.000000 
#    y 0.000000 1.613500 0.000000 
#    z 0.000000 0.000000 1.631280 
# 
# From -- ./inp_files/7934.got.cif
#   From: 2010.05.17/outbox.cif.g08.bks.cpg/sg72_4_cif.got.tgz:7934.got - 2010.06.03 17:03:01.
