data_PCOD9527891
_publ_section_title
;
Structure prediction by ZEFSAII (Michael W. Deem and Ramdas Pophale) SiO2 
 PCOD9527891
Probable space group: I B A M
;
_chemical_formula_sum "Si O2"
_cell_formula_units_Z 112
_cell_length_a 11.912663
_cell_length_b 14.055001
_cell_length_c 30.576143
_cell_angle_alpha 90.000000
_cell_angle_beta 90.000000
_cell_angle_gamma 90.000000
_cell_volume 5119.439769
_symmetry_space_group_name_H-M "I B A M"
_symmetry_group_IT_number 72
_symmetry_cell_setting 'orthorhombic'
loop_
_space_group_symop_operation_xyz
x,y,z
-x,-y,z
x,-y,1/2-z
-x,y,1/2-z
-x,-y,-z
x,y,-z
-x,y,1/2+z
x,-y,1/2+z
1/2+x,1/2+y,1/2+z
1/2-x,1/2-y,1/2+z
1/2+x,1/2-y,-z
1/2-x,1/2+y,-z
1/2-x,1/2-y,1/2-z
1/2+x,1/2+y,1/2-z
1/2-x,1/2+y,z
1/2+x,1/2-y,z
loop_
_atom_site_type_symbol
_atom_site_label
_atom_site_fract_x
_atom_site_fract_y
_atom_site_fract_z
Si Si1 0.090032 0.892115 0.949994
Si Si2 0.692462 0.491554 0.700025
Si Si3 0.999009 0.153012 0.700501
Si Si4 0.378805 0.952684 0.370585
Si Si5 0.829030 0.712080 0.048382
Si Si6 0.772740 0.935278 0.949702
Si Si7 0.995367 0.264172 0.117098
O O1 0.214958 0.846560 0.951903
O O2 0.035184 0.827066 0.912872
O O3 0.116453 0.002347 0.939588
O O4 0.043510 0.883475 0.000000
O O5 0.735541 0.500000 0.750000
O O6 0.594633 0.570923 0.697990
O O7 0.621935 0.394203 0.692108
O O8 0.789394 0.512372 0.665331
O O9 0.965801 0.227246 0.663759
O O10 0.000000 0.190536 0.750000
O O11 0.324114 0.969459 0.417799
O O12 0.397739 0.838585 0.371837
O O13 0.500000 0.000000 0.363834
O O14 0.796554 0.823322 0.054522
O O15 0.911299 0.684709 0.087494
O O16 0.882315 0.701731 0.000000
O O17 0.743764 0.953445 0.000000
#
# Coordination Sequence:
#
# PCOD9527891 Si02
#       7
#    16  16  16  16  16  16  16
#     4  10  21  38  60  88 124 166 213 257 307 362
#     4   9  20  45  70  89 120 159 209 266 320 383
#     4   9  20  41  70  95 114 154 213 272 326 371
#     4  12  25  40  59  93 132 172 209 245 320 399
#     4  10  21  38  59  88 128 170 216 261 306 367
#     4  10  21  39  62  86 123 171 217 263 305 361
#     4  12  23  36  61  91 128 163 203 264 315 379
#
# _framework density 21.877395
#
# number of rings (size 3 to 8) (size 9 to 14) (size 15 to 20)
#    0.000    1.714    1.429    3.857    0.000    2.857 
#    2.571    3.571    0.000    0.000    0.000    0.000 
#    0.000    0.000    0.000    0.000    0.000    0.000 
#
# Total GULP energy -312963.009120 kJ/mol
# GULP energy per Si atom -5588.625163 kJ/mol
# Density = 2.182760 g / cm^3
# Si number density = 21.877395 Si / 1000 Ang^3
#
#
#
# Elastic Constant Matrix: (Units=GPa)
#
#
# Indices 1 2 3 4 5 6 
#
# 1 74.7496 -5.2889 66.2312 0.0000 0.0000 0.0000
# 2 -5.2889 65.1880 21.3578 0.0000 0.0000 0.0000
# 3 66.2312 21.3578 134.7864 0.0000 0.0000 0.0000
# 4 0.0000 0.0000 0.0000 16.9434 0.0000 0.0000
# 5 0.0000 0.0000 0.0000 0.0000 -5.2082 0.0000
# 6 0.0000 0.0000 0.0000 0.0000 0.0000 22.4583
#
#
#
# Elastic Compliance Matrix: (Units=1/GPa)
#
#
# Indices 1 2 3 4 5 6 
#
# 1 0.026196 0.006690 -0.013932 0.000000 0.000000 0.000000
# 2 0.006690 0.017889 -0.006122 0.000000 0.000000 0.000000
# 3 -0.013932 -0.006122 0.015235 0.000000 0.000000 0.000000
# 4 0.000000 0.000000 0.000000 0.059020 0.000000 0.000000
# 5 0.000000 0.000000 0.000000 0.000000 -0.192005 0.000000
# 6 0.000000 0.000000 0.000000 0.000000 0.000000 0.044527
#
#
# Mechanical properties :
#
#
# Convention : Reuss Voigt Hill
#
# Bulk Modulus (GPa) = 30.68275 48.81380 39.74827
# Shear Modulus (GPa) = 591.43792 19.66698 305.55245
#
# Velocity S-wave (km/s) = 16.45992 3.00152 11.83085
# Velocity P-wave (km/s) = 19.37250 5.86286 14.31200
#
# Compressibility (1/GPa) = 0.03259161
#
# Stress axis : x y z
#
# Youngs Moduli (GPa) = 38.17407 55.90100 65.63763
#
# Poissons Ratio (x) = -0.37398 0.91447
# Poissons Ratio (y) = -0.25538 0.40183
# Poissons Ratio (z) = 0.53185 0.34222
#
# Static dielectric constant tensor:
#      x y z
#    x 1.843070 0.000000 0.000000 
#    y 0.000000 1.895340 0.000000 
#    z 0.000000 0.000000 1.793890 
# 
# From -- ./inp_files/51444.got.cif
#   From: 2010.05.17/outbox.cif.g08.bks.cpg/sg72_26_cif.got.tgz:51444.got - 2010.06.03 17:03:01.
