data_PCOD9527463
_publ_section_title
;
Structure prediction by ZEFSAII (Michael W. Deem and Ramdas Pophale) SiO2 
 PCOD9527463
Probable space group: I B A M
;
_chemical_formula_sum "Si O2"
_cell_formula_units_Z 112
_cell_length_a 31.974002
_cell_length_b 11.808842
_cell_length_c 15.212788
_cell_angle_alpha 90.000000
_cell_angle_beta 90.000000
_cell_angle_gamma 90.000000
_cell_volume 5743.982695
_symmetry_space_group_name_H-M "I B A M"
_symmetry_group_IT_number 72
_symmetry_cell_setting 'orthorhombic'
loop_
_space_group_symop_operation_xyz
x,y,z
-x,-y,z
x,-y,1/2-z
-x,y,1/2-z
-x,-y,-z
x,y,-z
-x,y,1/2+z
x,-y,1/2+z
1/2+x,1/2+y,1/2+z
1/2-x,1/2-y,1/2+z
1/2+x,1/2-y,-z
1/2-x,1/2+y,-z
1/2-x,1/2-y,1/2-z
1/2+x,1/2+y,1/2-z
1/2-x,1/2+y,z
1/2+x,1/2-y,z
loop_
_atom_site_type_symbol
_atom_site_label
_atom_site_fract_x
_atom_site_fract_y
_atom_site_fract_z
Si Si1 0.110910 0.739826 0.897057
Si Si2 0.784986 0.120048 0.606790
Si Si3 0.189311 0.592100 0.892310
Si Si4 0.550127 0.867361 0.244834
Si Si5 0.629523 0.501935 0.853597
Si Si6 0.413808 0.728107 0.905031
Si Si7 0.175857 0.655654 0.400097
O O1 0.154569 0.682874 0.864459
O O2 0.073188 0.689295 0.839014
O O3 0.117076 0.874721 0.888119
O O4 0.104861 0.711606 0.000000
O O5 0.785706 0.123630 0.500000
O O6 0.737546 0.101322 0.635119
O O7 0.798300 0.243299 0.642705
O O8 0.821700 0.031432 0.630047
O O9 0.175540 0.468071 0.861208
O O10 0.189081 0.598576 0.000000
O O11 0.500000 0.869037 0.250000
O O12 0.562394 0.786328 0.325893
O O13 0.563867 0.000000 0.250000
O O14 0.622917 0.500000 0.750000
O O15 0.600848 0.401435 0.892264
O O16 0.370464 0.796917 0.906982
O O17 0.435043 0.740040 0.000000
O O18 0.192906 0.641834 0.500000
#
# Coordination Sequence:
#
# PCOD9527463 Si02
#       7
#    16  16  16  16  16  16  16
#     4  11  23  41  65  95 130 173 218 267 326 388
#     4   9  18  31  52  83 118 163 216 261 309 372
#     4   9  18  31  53  84 120 164 210 261 315 369
#     4  11  25  44  68 100 132 162 205 266 326 388
#     4  11  21  39  62  90 127 169 218 271 325 378
#     4  10  20  40  66  90 121 169 212 252 318 393
#     4   8  15  29  50  77 110 153 205 248 294 360
#
# _framework density 19.498666
#
# number of rings (size 3 to 8) (size 9 to 14) (size 15 to 20)
#    0.000    2.143    1.429    3.000    2.000    2.286 
#    0.000    5.714    0.000    1.714    0.000    0.000 
#    0.000    0.000    0.000    0.000    0.000    0.000 
#
# Total GULP energy -312160.093006 kJ/mol
# GULP energy per Si atom -5574.287375 kJ/mol
# Density = 1.945429 g / cm^3
# Si number density = 19.498666 Si / 1000 Ang^3
#
#
#
# Elastic Constant Matrix: (Units=GPa)
#
#
# Indices 1 2 3 4 5 6 
#
# 1 80.9233 65.5526 32.6923 0.0000 0.0000 0.0000
# 2 65.5526 141.7620 33.9872 0.0000 0.0000 0.0000
# 3 32.6923 33.9872 86.7205 0.0000 0.0000 0.0000
# 4 0.0000 0.0000 0.0000 20.9382 0.0000 0.0000
# 5 0.0000 0.0000 0.0000 0.0000 36.3586 0.0000
# 6 0.0000 0.0000 0.0000 0.0000 0.0000 -4.4573
#
#
#
# Elastic Compliance Matrix: (Units=1/GPa)
#
#
# Indices 1 2 3 4 5 6 
#
# 1 0.021302 -0.008747 -0.004603 0.000000 0.000000 0.000000
# 2 -0.008747 0.011377 -0.001161 0.000000 0.000000 0.000000
# 3 -0.004603 -0.001161 0.013722 0.000000 0.000000 0.000000
# 4 0.000000 0.000000 0.000000 0.047760 0.000000 0.000000
# 5 0.000000 0.000000 0.000000 0.000000 0.027504 0.000000
# 6 0.000000 0.000000 0.000000 0.000000 0.000000 -0.224351
#
#
# Mechanical properties :
#
#
# Convention : Reuss Voigt Hill
#
# Bulk Modulus (GPa) = 57.54020 63.76333 60.65176
# Shear Modulus (GPa) = -73.66924 22.37948 -25.64488
#
# Velocity S-wave (km/s) = -6.15335 3.39151 -3.63052
# Velocity P-wave (km/s) = 4.57286 6.93605 3.68767
#
# Compressibility (1/GPa) = 0.01737915
#
# Stress axis : x y z
#
# Youngs Moduli (GPa) = 46.94309 87.89445 72.87788
#
# Poissons Ratio (x) = 0.76882 0.33542
# Poissons Ratio (y) = 0.41061 0.08464
# Poissons Ratio (z) = 0.21606 0.10208
#
# Static dielectric constant tensor:
#      x y z
#    x 1.687340 0.000000 0.000000 
#    y 0.000000 1.708390 0.000000 
#    z 0.000000 0.000000 1.731940 
# 
# From -- ./inp_files/26336.got.cif
#   From: 2010.05.17/outbox.cif.g08.bks.cpg/sg72_14_cif.got.tgz:26336.got - 2010.06.03 17:03:01.
