data_PCOD9527872
_publ_section_title
;
Structure prediction by ZEFSAII (Michael W. Deem and Ramdas Pophale) SiO2 
 PCOD9527872
Probable space group: I B A M
;
_chemical_formula_sum "Si O2"
_cell_formula_units_Z 96
_cell_length_a 25.658367
_cell_length_b 24.196105
_cell_length_c 8.684884
_cell_angle_alpha 90.000000
_cell_angle_beta 90.000000
_cell_angle_gamma 90.000000
_cell_volume 5391.858611
_symmetry_space_group_name_H-M "I B A M"
_symmetry_group_IT_number 72
_symmetry_cell_setting 'orthorhombic'
loop_
_space_group_symop_operation_xyz
x,y,z
-x,-y,z
x,-y,1/2-z
-x,y,1/2-z
-x,-y,-z
x,y,-z
-x,y,1/2+z
x,-y,1/2+z
1/2+x,1/2+y,1/2+z
1/2-x,1/2-y,1/2+z
1/2+x,1/2-y,-z
1/2-x,1/2+y,-z
1/2-x,1/2-y,1/2-z
1/2+x,1/2+y,1/2-z
1/2-x,1/2+y,z
1/2+x,1/2-y,z
loop_
_atom_site_type_symbol
_atom_site_label
_atom_site_fract_x
_atom_site_fract_y
_atom_site_fract_z
Si Si1 0.057439 0.440155 0.316755
Si Si2 0.191487 0.750608 0.314338
Si Si3 0.057587 0.939935 0.183971
Si Si4 0.849255 0.870499 0.815163
Si Si5 0.648298 0.867317 0.315145
Si Si6 0.748108 0.561498 0.815642
O O1 0.073867 0.500000 0.250000
O O2 0.054553 0.444019 0.500000
O O3 0.098836 0.394581 0.265206
O O4 0.000000 0.428577 0.250000
O O5 0.195018 0.749446 0.500000
O O6 0.250000 0.750000 0.250000
O O7 0.163011 0.807315 0.269754
O O8 0.161173 0.695256 0.266197
O O9 0.098911 0.894967 0.239705
O O10 0.000000 0.928701 0.250000
O O11 0.073769 0.000000 0.250000
O O12 0.055602 0.942878 0.000000
O O13 0.800691 0.907383 0.759622
O O14 0.853542 0.873446 0.000000
O O15 0.640201 0.868056 0.500000
O O16 0.699444 0.904138 0.282201
O O17 0.752401 0.500000 0.750000
O O18 0.741076 0.559789 0.000000
#
# Coordination Sequence:
#
# PCOD9527872 Si02
#       6
#    16  16  16  16  16  16
#     4  11  22  38  61  87 116 152 191 236 289 345
#     4  10  21  38  60  84 115 154 194 238 285 340
#     4  11  22  39  62  87 117 151 191 237 289 346
#     4  11  22  37  58  85 116 151 193 236 285 341
#     4  10  21  38  58  84 116 150 192 238 286 339
#     4  11  22  35  54  81 116 150 187 235 289 342
#
# _framework density 17.804621000000001
#
# number of rings (size 3 to 8) (size 9 to 14) (size 15 to 20)
#    0.000    1.333    1.667    6.000    0.000    4.000 
#    0.000    0.833    0.000    0.000    0.000    0.000 
#    0.000    0.000    0.000    0.000    0.000    0.000 
#
# Total GULP energy -268347.768302 kJ/mol
# GULP energy per Si atom -5590.578506 kJ/mol
# Density = 1.776410 g / cm^3
# Si number density = 17.804621 Si / 1000 Ang^3
#
#
#
# Elastic Constant Matrix: (Units=GPa)
#
#
# Indices 1 2 3 4 5 6 
#
# 1 105.6603 94.3430 57.5859 0.0000 0.0000 0.0000
# 2 94.3430 182.3320 68.1235 0.0000 0.0000 0.0000
# 3 57.5859 68.1235 96.5329 0.0000 0.0000 0.0000
# 4 0.0000 0.0000 0.0000 7.4877 0.0000 0.0000
# 5 0.0000 0.0000 0.0000 0.0000 34.2906 0.0000
# 6 0.0000 0.0000 0.0000 0.0000 0.0000 13.8854
#
#
#
# Elastic Compliance Matrix: (Units=1/GPa)
#
#
# Indices 1 2 3 4 5 6 
#
# 1 0.020070 -0.008028 -0.006307 0.000000 0.000000 0.000000
# 2 -0.008028 0.010660 -0.002733 0.000000 0.000000 0.000000
# 3 -0.006307 -0.002733 0.016051 0.000000 0.000000 0.000000
# 4 0.000000 0.000000 0.000000 0.133553 0.000000 0.000000
# 5 0.000000 0.000000 0.000000 0.000000 0.029163 0.000000
# 6 0.000000 0.000000 0.000000 0.000000 0.000000 0.072018
#
#
# Mechanical properties :
#
#
# Convention : Reuss Voigt Hill
#
# Bulk Modulus (GPa) = 79.09584 91.62556 85.36070
# Shear Modulus (GPa) = 15.63155 22.09758 18.86457
#
# Velocity S-wave (km/s) = 2.96623 3.52677 3.25858
# Velocity P-wave (km/s) = 7.50014 8.25576 7.88700
#
# Compressibility (1/GPa) = 0.01264289
#
# Stress axis : x y z
#
# Youngs Moduli (GPa) = 49.82548 93.81033 62.30303
#
# Poissons Ratio (x) = 0.75313 0.39295
# Poissons Ratio (y) = 0.40001 0.17030
# Poissons Ratio (z) = 0.31425 0.25643
#
# Static dielectric constant tensor:
#      x y z
#    x 1.574490 0.000000 0.000000 
#    y 0.000000 1.599620 0.000000 
#    z 0.000000 0.000000 1.596180 
# 
# From -- ./inp_files/5994.got.cif
#   From: 2010.05.17/outbox.cif.g08.bks.cpg/sg72_3_cif.got.tgz:5994.got - 2010.06.03 17:03:01.
