data_PCOD9527945
_publ_section_title
;
Structure prediction by ZEFSAII (Michael W. Deem and Ramdas Pophale) SiO2 
 PCOD9527945
Probable space group: I B A M
;
_chemical_formula_sum "Si O2"
_cell_formula_units_Z 80
_cell_length_a 11.371546
_cell_length_b 14.625731
_cell_length_c 23.243535
_cell_angle_alpha 90.000000
_cell_angle_beta 90.000000
_cell_angle_gamma 90.000000
_cell_volume 3865.799028
_symmetry_space_group_name_H-M "I B A M"
_symmetry_group_IT_number 72
_symmetry_cell_setting 'orthorhombic'
loop_
_space_group_symop_operation_xyz
x,y,z
-x,-y,z
x,-y,1/2-z
-x,y,1/2-z
-x,-y,-z
x,y,-z
-x,y,1/2+z
x,-y,1/2+z
1/2+x,1/2+y,1/2+z
1/2-x,1/2-y,1/2+z
1/2+x,1/2-y,-z
1/2-x,1/2+y,-z
1/2-x,1/2-y,1/2-z
1/2+x,1/2+y,1/2-z
1/2-x,1/2+y,z
1/2+x,1/2-y,z
loop_
_atom_site_type_symbol
_atom_site_label
_atom_site_fract_x
_atom_site_fract_y
_atom_site_fract_z
Si Si1 0.959716 0.398696 0.068589
Si Si2 0.286570 0.395328 0.381495
Si Si3 0.610466 0.570165 0.149217
Si Si4 0.136099 0.186262 0.759441
Si Si5 0.988431 0.203355 0.435482
O O1 0.845318 0.370133 0.104353
O O2 0.000000 0.500000 0.086186
O O3 0.041561 0.309543 0.076852
O O4 0.933710 0.404809 0.000000
O O5 0.291038 0.505024 0.377188
O O6 0.341036 0.352970 0.323102
O O7 0.371468 0.357032 0.430575
O O8 0.500000 0.500000 0.151397
O O9 0.640776 0.606237 0.212048
O O10 0.577027 0.655503 0.109160
O O11 0.250000 0.250000 0.750000
O O12 0.000000 0.222836 0.750000
O O13 0.037092 0.198621 0.500000
#
# Coordination Sequence:
#
# PCOD9527945 Si02
#       5
#    16  16  16  16  16
#     4  10  23  42  61  92 136 174 215 277 344 401
#     4  11  23  38  67  90 129 170 222 273 330 404
#     4  10  21  40  65  91 128 170 219 271 330 393
#     4  12  24  42  68  97 131 175 223 273 334 400
#     4  10  21  38  63  92 124 166 219 266 322 402
#
# _framework density 20.694299000000001
#
# number of rings (size 3 to 8) (size 9 to 14) (size 15 to 20)
#    0.000    1.400    4.000    2.400    0.000    7.600 
#    0.000    4.000    0.000    0.000    0.000    0.000 
#    0.000    0.000    0.000    0.000    0.000    0.000 
#
# Total GULP energy -222945.320054 kJ/mol
# GULP energy per Si atom -5573.633001 kJ/mol
# Density = 2.064720 g / cm^3
# Si number density = 20.694299 Si / 1000 Ang^3
#
#
#
# Elastic Constant Matrix: (Units=GPa)
#
#
# Indices 1 2 3 4 5 6 
#
# 1 72.8318 27.3563 10.7099 0.0000 0.0000 0.0000
# 2 27.3563 110.6143 35.3973 0.0000 0.0000 0.0000
# 3 10.7099 35.3973 73.8828 0.0000 0.0000 0.0000
# 4 0.0000 0.0000 0.0000 35.0529 0.0000 0.0000
# 5 0.0000 0.0000 0.0000 0.0000 19.5748 0.0000
# 6 0.0000 0.0000 0.0000 0.0000 0.0000 25.4296
#
#
#
# Elastic Compliance Matrix: (Units=1/GPa)
#
#
# Indices 1 2 3 4 5 6 
#
# 1 0.015150 -0.003595 -0.000474 0.000000 0.000000 0.000000
# 2 -0.003595 0.011531 -0.005003 0.000000 0.000000 0.000000
# 3 -0.000474 -0.005003 0.016001 0.000000 0.000000 0.000000
# 4 0.000000 0.000000 0.000000 0.028528 0.000000 0.000000
# 5 0.000000 0.000000 0.000000 0.000000 0.051086 0.000000
# 6 0.000000 0.000000 0.000000 0.000000 0.000000 0.039324
#
#
# Mechanical properties :
#
#
# Convention : Reuss Voigt Hill
#
# Bulk Modulus (GPa) = 40.75416 44.91732 42.83574
# Shear Modulus (GPa) = 26.60375 28.26917 27.43646
#
# Velocity S-wave (km/s) = 3.58936 3.70000 3.64510
# Velocity P-wave (km/s) = 6.07570 6.32500 6.20161
#
# Compressibility (1/GPa) = 0.02453737
#
# Stress axis : x y z
#
# Youngs Moduli (GPa) = 66.00514 86.72550 62.49750
#
# Poissons Ratio (x) = 0.31180 0.02960
# Poissons Ratio (y) = 0.23731 0.31269
# Poissons Ratio (z) = 0.03126 0.43390
#
# Static dielectric constant tensor:
#      x y z
#    x 1.835400 0.000000 0.000000 
#    y 0.000000 1.781500 0.000000 
#    z 0.000000 0.000000 1.731540 
# 
# From -- ./inp_files/43124.got.cif
#   From: 2010.05.17/outbox.cif.g08.bks.cpg/sg72_22_cif.got.tgz:43124.got - 2010.06.03 17:03:01.
