data_PCOD9527166
_publ_section_title
;
Structure prediction by ZEFSAII (Michael W. Deem and Ramdas Pophale) SiO2 
 PCOD9527166
Probable space group: I B A M
;
_chemical_formula_sum "Si O2"
_cell_formula_units_Z 104
_cell_length_a 15.638766
_cell_length_b 13.475505
_cell_length_c 23.411552
_cell_angle_alpha 90.000000
_cell_angle_beta 90.000000
_cell_angle_gamma 90.000000
_cell_volume 4933.756776
_symmetry_space_group_name_H-M "I B A M"
_symmetry_group_IT_number 72
_symmetry_cell_setting 'orthorhombic'
loop_
_space_group_symop_operation_xyz
x,y,z
-x,-y,z
x,-y,1/2-z
-x,y,1/2-z
-x,-y,-z
x,y,-z
-x,y,1/2+z
x,-y,1/2+z
1/2+x,1/2+y,1/2+z
1/2-x,1/2-y,1/2+z
1/2+x,1/2-y,-z
1/2-x,1/2+y,-z
1/2-x,1/2-y,1/2-z
1/2+x,1/2+y,1/2-z
1/2-x,1/2+y,z
1/2+x,1/2-y,z
loop_
_atom_site_type_symbol
_atom_site_label
_atom_site_fract_x
_atom_site_fract_y
_atom_site_fract_z
Si Si1 0.750000 0.500000 0.750000
Si Si2 0.806606 0.869335 0.850204
Si Si3 0.846367 0.129731 0.935660
Si Si4 0.958008 0.129550 0.564562
Si Si5 0.693394 0.130665 0.149796
Si Si6 0.653633 0.870269 0.935660
Si Si7 0.041992 0.629550 0.564562
O O1 0.695948 0.571204 0.708587
O O2 0.804052 0.428796 0.708587
O O3 0.887775 0.896543 0.888907
O O4 0.807130 0.750000 0.840742
O O5 0.721887 0.894586 0.887224
O O6 0.778113 0.105414 0.887224
O O7 0.847681 0.250000 0.937134
O O8 0.944213 0.097835 0.924551
O O9 0.821194 0.098121 0.000000
O O10 0.934000 0.099535 0.500000
O O11 0.959182 0.250000 0.564132
O O12 0.612225 0.103457 0.111093
O O13 0.555787 0.902165 0.924552
O O14 0.678806 0.901879 0.000000
O O15 0.066000 0.599535 0.500000
#
# Coordination Sequence:
#
# PCOD9527166 Si02
#       7
#     8  16  16  16  16  16  16
#     4  12  26  40  52  74 104 142 198 230 238 294
#     4  10  20  37  57  75 105 144 175 216 266 302
#     4   8  14  28  55  87 110 131 165 210 267 330
#     4   8  14  28  55  87 110 131 165 210 267 330
#     4  10  20  37  57  75 105 144 175 216 266 302
#     4   8  14  28  55  87 110 131 165 210 267 330
#     4   8  14  28  55  87 110 131 165 210 267 330
#
# _framework density 21.079270999999999
#
# number of rings (size 3 to 8) (size 9 to 14) (size 15 to 20)
#    0.000    3.077    0.000    3.231    0.000    3.692 
#    0.000    7.692    0.000   11.077    0.000    0.000 
#    0.000    0.000    0.000    0.000    0.000    0.000 
#
# Total GULP energy -290677.519230 kJ/mol
# GULP energy per Si atom -5589.952293 kJ/mol
# Density = 2.103129 g / cm^3
# Si number density = 21.079271 Si / 1000 Ang^3
#
#
#
# Elastic Constant Matrix: (Units=GPa)
#
#
# Indices 1 2 3 4 5 6 
#
# 1 109.3594 46.9938 99.0810 0.0000 0.0000 0.0000
# 2 46.9938 120.5800 64.4775 0.0000 0.0000 0.0000
# 3 99.0810 64.4775 173.3080 0.0000 0.0000 0.0000
# 4 0.0000 0.0000 0.0000 36.8585 0.0000 0.0000
# 5 0.0000 0.0000 0.0000 0.0000 -70.0731 0.0000
# 6 0.0000 0.0000 0.0000 0.0000 0.0000 28.5340
#
#
#
# Elastic Compliance Matrix: (Units=1/GPa)
#
#
# Indices 1 2 3 4 5 6 
#
# 1 0.019360 -0.002031 -0.010313 0.000000 0.000000 0.000000
# 2 -0.002031 0.010566 -0.002770 0.000000 0.000000 0.000000
# 3 -0.010313 -0.002770 0.012697 0.000000 0.000000 0.000000
# 4 0.000000 0.000000 0.000000 0.027131 0.000000 0.000000
# 5 0.000000 0.000000 0.000000 0.000000 -0.014271 0.000000
# 6 0.000000 0.000000 0.000000 0.000000 0.000000 0.035046
#
#
# Mechanical properties :
#
#
# Convention : Reuss Voigt Hill
#
# Bulk Modulus (GPa) = 80.67364 91.59468 86.13416
# Shear Modulus (GPa) = 40.03589 11.91021 25.97305
#
# Velocity S-wave (km/s) = 4.36283 2.37959 3.51402
# Velocity P-wave (km/s) = 7.98333 7.14820 7.57728
#
# Compressibility (1/GPa) = 0.01239562
#
# Stress axis : x y z
#
# Youngs Moduli (GPa) = 51.65161 94.64445 78.76145
#
# Poissons Ratio (x) = 0.19220 0.81226
# Poissons Ratio (y) = 0.10489 0.21816
# Poissons Ratio (z) = 0.53268 0.26216
#
# Static dielectric constant tensor:
#      x y z
#    x 1.727320 0.000000 0.000000 
#    y 0.000000 1.874220 0.000000 
#    z 0.000000 0.000000 1.693960 
# 
# From -- ./inp_files/39082.got.cif
#   From: 2010.05.17/outbox.cif.g08.bks.cpg/sg72_20_cif.got.tgz:39082.got - 2010.06.03 17:03:01.
