data_PCOD9527825
_publ_section_title
;
Structure prediction by ZEFSAII (Michael W. Deem and Ramdas Pophale) SiO2 
 PCOD9527825
Probable space group: I B A M
;
_chemical_formula_sum "Si O2"
_cell_formula_units_Z 116
_cell_length_a 28.911837
_cell_length_b 23.155936
_cell_length_c 8.240275
_cell_angle_alpha 90.000000
_cell_angle_beta 90.000000
_cell_angle_gamma 90.000000
_cell_volume 5516.704640
_symmetry_space_group_name_H-M "I B A M"
_symmetry_group_IT_number 72
_symmetry_cell_setting 'orthorhombic'
loop_
_space_group_symop_operation_xyz
x,y,z
-x,-y,z
x,-y,1/2-z
-x,y,1/2-z
-x,-y,-z
x,y,-z
-x,y,1/2+z
x,-y,1/2+z
1/2+x,1/2+y,1/2+z
1/2-x,1/2-y,1/2+z
1/2+x,1/2-y,-z
1/2-x,1/2+y,-z
1/2-x,1/2-y,1/2-z
1/2+x,1/2+y,1/2-z
1/2-x,1/2+y,z
1/2+x,1/2-y,z
loop_
_atom_site_type_symbol
_atom_site_label
_atom_site_fract_x
_atom_site_fract_y
_atom_site_fract_z
Si Si1 0.450153 0.324131 0.693635
Si Si2 0.682109 0.096653 0.805436
Si Si3 0.051410 0.693233 0.808434
Si Si4 0.299788 0.226222 0.808605
Si Si5 0.500000 0.000000 0.250000
Si Si6 0.850152 0.838258 0.806533
Si Si7 0.717809 0.438332 0.306032
Si Si8 0.917145 0.421937 0.308301
O O1 0.500000 0.346959 0.750000
O O2 0.452582 0.318533 0.500000
O O3 0.443297 0.260127 0.766148
O O4 0.402640 0.356046 0.738090
O O5 0.686977 0.164947 0.768606
O O6 0.729714 0.069212 0.742676
O O7 0.634761 0.066931 0.745516
O O8 0.680125 0.090516 0.000000
O O9 0.081032 0.647255 0.710387
O O10 0.000000 0.678974 0.750000
O O11 0.057659 0.684621 0.000000
O O12 0.250000 0.250000 0.750000
O O13 0.335998 0.276876 0.769071
O O14 0.297562 0.217353 0.000000
O O15 0.459211 0.951992 0.290127
O O16 0.813511 0.886005 0.754295
O O17 0.848189 0.831289 0.000000
O O18 0.699371 0.500000 0.250000
O O19 0.719193 0.435875 0.500000
O O20 0.924018 0.437016 0.500000
#
# Coordination Sequence:
#
# PCOD9527825 Si02
#       8
#    16  16  16  16   4  16  16  16
#     4  10  21  37  61  93 128 162 198 243 298 363
#     4  10  23  42  63  89 123 165 207 260 322 381
#     4  11  21  35  57  83 115 154 198 245 301 366
#     4  12  23  37  62  96 131 166 207 259 319 387
#     4  12  26  40  68  86 110 164 218 276 330 384
#     4  11  23  40  64  94 129 168 207 254 311 373
#     4  11  24  42  65  90 123 165 210 257 307 371
#     4  11  24  42  60  82 115 152 203 264 319 373
#
# _framework density 21.027045000000001
#
# number of rings (size 3 to 8) (size 9 to 14) (size 15 to 20)
#    0.000    1.103    2.069    5.586    0.966    7.172 
#    0.000    0.000    0.000    0.414    0.000    2.897 
#    0.000    0.000    0.000    0.000    0.000    0.000 
#
# Total GULP energy -323690.138263 kJ/mol
# GULP energy per Si atom -5580.864453 kJ/mol
# Density = 2.097919 g / cm^3
# Si number density = 21.027045 Si / 1000 Ang^3
#
#
#
# Elastic Constant Matrix: (Units=GPa)
#
#
# Indices 1 2 3 4 5 6 
#
# 1 154.8890 17.6241 13.4330 0.0000 0.0000 0.0000
# 2 17.6241 56.9376 -12.9246 0.0000 0.0000 0.0000
# 3 13.4330 -12.9246 44.5429 0.0000 0.0000 0.0000
# 4 0.0000 0.0000 0.0000 15.7046 0.0000 0.0000
# 5 0.0000 0.0000 0.0000 0.0000 17.8439 0.0000
# 6 0.0000 0.0000 0.0000 0.0000 0.0000 5.8823
#
#
#
# Elastic Compliance Matrix: (Units=1/GPa)
#
#
# Indices 1 2 3 4 5 6 
#
# 1 0.007036 -0.002847 -0.002948 0.000000 0.000000 0.000000
# 2 -0.002847 0.019953 0.006648 0.000000 0.000000 0.000000
# 3 -0.002948 0.006648 0.025268 0.000000 0.000000 0.000000
# 4 0.000000 0.000000 0.000000 0.063676 0.000000 0.000000
# 5 0.000000 0.000000 0.000000 0.000000 0.056042 0.000000
# 6 0.000000 0.000000 0.000000 0.000000 0.000000 0.170001
#
#
# Mechanical properties :
#
#
# Convention : Reuss Voigt Hill
#
# Bulk Modulus (GPa) = 18.53073 32.51496 25.52284
# Shear Modulus (GPa) = 13.95645 23.76863 18.86254
#
# Velocity S-wave (km/s) = 2.57911 3.36577 2.99835
# Velocity P-wave (km/s) = 4.20725 5.53186 4.91439
#
# Compressibility (1/GPa) = 0.05396442
#
# Stress axis : x y z
#
# Youngs Moduli (GPa) = 142.12923 50.11662 39.57519
#
# Poissons Ratio (x) = 0.14268 0.11666
# Poissons Ratio (y) = 0.40464 -0.26311
# Poissons Ratio (z) = 0.41899 -0.33319
#
# Static dielectric constant tensor:
#      x y z
#    x 1.768090 0.000000 0.000000 
#    y 0.000000 1.757490 0.000000 
#    z 0.000000 0.000000 1.742220 
# 
# From -- ./inp_files/8381.got.cif
#   From: 2010.05.17/outbox.cif.g08.bks.cpg/sg72_5_cif.got.tgz:8381.got - 2010.06.03 17:03:01.
