data_PCOD9527303
_publ_section_title
;
Structure prediction by ZEFSAII (Michael W. Deem and Ramdas Pophale) SiO2 
 PCOD9527303
Probable space group: I B A M
;
_chemical_formula_sum "Si O2"
_cell_formula_units_Z 76
_cell_length_a 25.379501
_cell_length_b 8.431442
_cell_length_c 17.258794
_cell_angle_alpha 90.000000
_cell_angle_beta 90.000000
_cell_angle_gamma 90.000000
_cell_volume 3693.136680
_symmetry_space_group_name_H-M "I B A M"
_symmetry_group_IT_number 72
_symmetry_cell_setting 'orthorhombic'
loop_
_space_group_symop_operation_xyz
x,y,z
-x,-y,z
x,-y,1/2-z
-x,y,1/2-z
-x,-y,-z
x,y,-z
-x,y,1/2+z
x,-y,1/2+z
1/2+x,1/2+y,1/2+z
1/2-x,1/2-y,1/2+z
1/2+x,1/2-y,-z
1/2-x,1/2+y,-z
1/2-x,1/2-y,1/2-z
1/2+x,1/2+y,1/2-z
1/2-x,1/2+y,z
1/2+x,1/2-y,z
loop_
_atom_site_type_symbol
_atom_site_label
_atom_site_fract_x
_atom_site_fract_y
_atom_site_fract_z
Si Si1 0.812055 0.274003 0.861717
Si Si2 0.412891 0.297664 0.333401
Si Si3 0.125288 0.737758 0.500000
Si Si4 0.500000 0.500000 0.750000
Si Si5 0.822022 0.000000 0.250000
Si Si6 0.877047 0.500000 0.750000
Si Si7 0.279832 0.983733 0.500000
Si Si8 0.165788 0.090906 0.500000
O O1 0.792486 0.131430 0.804183
O O2 0.840746 0.404273 0.810010
O O3 0.850832 0.182985 0.922482
O O4 0.777488 0.378186 0.921488
O O5 0.408603 0.249306 0.422439
O O6 0.462261 0.398053 0.305386
O O7 0.360460 0.395306 0.305313
O O8 0.411847 0.133117 0.288757
O O9 0.167074 0.592015 0.500000
O O10 0.154221 0.907266 0.500000
O O11 0.229179 0.093027 0.500000
#
# Coordination Sequence:
#
# PCOD9527303 Si02
#       8
#    16  16   8   4   8   8   8   8
#     4  10  20  38  59  86 122 163 219 257 314 378
#     4  10  21  38  67  91 130 161 212 255 323 389
#     4  12  20  39  66  93 124 184 210 252 322 389
#     4  10  24  44  64 102 124 164 206 280 320 372
#     4   9  18  37  61  88 112 170 210 250 307 383
#     4  10  20  39  67  89 118 168 209 258 309 389
#     4  11  23  39  58  91 129 169 218 272 315 367
#     4  11  23  39  60  87 130 171 219 267 313 376
#
# _framework density 20.578711999999999
#
# number of rings (size 3 to 8) (size 9 to 14) (size 15 to 20)
#    0.000    1.684    4.211    1.263    0.000    0.842 
#    0.000    3.158    0.000    1.263    0.000    0.000 
#    0.000    0.000    0.000    0.000    0.000    0.000 
#
# Total GULP energy -211840.806808 kJ/mol
# GULP energy per Si atom -5574.758074 kJ/mol
# Density = 2.053187 g / cm^3
# Si number density = 20.578712 Si / 1000 Ang^3
#
#
#
# Elastic Constant Matrix: (Units=GPa)
#
#
# Indices 1 2 3 4 5 6 
#
# 1 56.3387 39.1299 39.5740 0.0000 0.0000 0.0000
# 2 39.1299 150.3191 59.4638 0.0000 0.0000 0.0000
# 3 39.5740 59.4638 141.4014 0.0000 0.0000 0.0000
# 4 0.0000 0.0000 0.0000 49.8306 0.0000 0.0000
# 5 0.0000 0.0000 0.0000 0.0000 -194.7092 0.0000
# 6 0.0000 0.0000 0.0000 0.0000 0.0000 20.4355
#
#
#
# Elastic Compliance Matrix: (Units=1/GPa)
#
#
# Indices 1 2 3 4 5 6 
#
# 1 0.024256 -0.004353 -0.004958 0.000000 0.000000 0.000000
# 2 -0.004353 0.008761 -0.002466 0.000000 0.000000 0.000000
# 3 -0.004958 -0.002466 0.009497 0.000000 0.000000 0.000000
# 4 0.000000 0.000000 0.000000 0.020068 0.000000 0.000000
# 5 0.000000 0.000000 0.000000 0.000000 -0.005136 0.000000
# 6 0.000000 0.000000 0.000000 0.000000 0.000000 0.048934
#
#
# Mechanical properties :
#
#
# Convention : Reuss Voigt Hill
#
# Bulk Modulus (GPa) = 52.74313 69.37717 61.06015
# Shear Modulus (GPa) = 36.69631 -10.89584 12.90023
#
# Velocity S-wave (km/s) = 4.22740 -2.30352 2.50646
# Velocity P-wave (km/s) = 7.03658 5.16830 6.17352
#
# Compressibility (1/GPa) = 0.01895982
#
# Stress axis : x y z
#
# Youngs Moduli (GPa) = 41.22765 114.14019 105.29938
#
# Poissons Ratio (x) = 0.49682 0.52207
# Poissons Ratio (y) = 0.17945 0.25968
# Poissons Ratio (z) = 0.20440 0.28149
#
# Static dielectric constant tensor:
#      x y z
#    x 1.702120 0.000000 0.000000 
#    y 0.000000 1.775820 0.000000 
#    z 0.000000 0.000000 1.833610 
# 
# From -- ./inp_files/33846.got.cif
#   From: 2010.05.17/outbox.cif.g08.bks.cpg/sg72_17_cif.got.tgz:33846.got - 2010.06.03 17:03:01.
