data_PCOD9527045
_publ_section_title
;
Structure prediction by ZEFSAII (Michael W. Deem and Ramdas Pophale) SiO2 
 PCOD9527045
Probable space group: I B A M
;
_chemical_formula_sum "Si O2"
_cell_formula_units_Z 112
_cell_length_a 12.160239
_cell_length_b 30.768701
_cell_length_c 13.903320
_cell_angle_alpha 90.000000
_cell_angle_beta 90.000000
_cell_angle_gamma 90.000000
_cell_volume 5201.993328
_symmetry_space_group_name_H-M "I B A M"
_symmetry_group_IT_number 72
_symmetry_cell_setting 'orthorhombic'
loop_
_space_group_symop_operation_xyz
x,y,z
-x,-y,z
x,-y,1/2-z
-x,y,1/2-z
-x,-y,-z
x,y,-z
-x,y,1/2+z
x,-y,1/2+z
1/2+x,1/2+y,1/2+z
1/2-x,1/2-y,1/2+z
1/2+x,1/2-y,-z
1/2-x,1/2+y,-z
1/2-x,1/2-y,1/2-z
1/2+x,1/2+y,1/2-z
1/2-x,1/2+y,z
1/2+x,1/2-y,z
loop_
_atom_site_type_symbol
_atom_site_label
_atom_site_fract_x
_atom_site_fract_y
_atom_site_fract_z
Si Si1 0.884104 0.874761 0.720420
Si Si2 0.906114 0.034864 0.884898
Si Si3 0.467049 0.073090 0.849267
Si Si4 0.657617 0.009685 0.889672
Si Si5 0.379725 0.216591 0.778247
Si Si6 0.722107 0.863016 0.892222
Si Si7 0.707057 0.293668 0.385132
O O1 0.914072 0.919796 0.669539
O O2 0.808988 0.881742 0.815036
O O3 0.821450 0.842661 0.647431
O O4 0.000000 0.853760 0.750000
O O5 0.783098 0.017853 0.864575
O O6 0.913545 0.042011 0.000000
O O7 0.000000 0.000000 0.859767
O O8 0.500000 0.094844 0.750000
O O9 0.580231 0.052557 0.889346
O O10 0.385061 0.106200 0.898743
O O11 0.395179 0.029652 0.830575
O O12 0.653151 0.993246 0.000000
O O13 0.500000 0.201557 0.750000
O O14 0.316871 0.182279 0.846051
O O15 0.382916 0.261061 0.839294
O O16 0.313210 0.220403 0.677888
O O17 0.767917 0.858178 0.000000
O O18 0.717596 0.289834 0.500000
#
# Coordination Sequence:
#
# PCOD9527045 Si02
#       7
#    16  16  16  16  16  16  16
#     4  11  25  43  63  93 128 172 226 277 333 403
#     4  10  23  42  64  92 126 167 221 283 341 402
#     4  11  21  36  58  86 121 162 207 260 326 391
#     4  10  20  36  58  85 119 159 208 261 324 397
#     4  10  22  42  67 102 137 169 220 271 329 399
#     4  11  24  41  64  96 134 173 220 276 336 403
#     4  10  22  42  68  97 134 175 216 268 330 400
#
# _framework density 21.530207000000001
#
# number of rings (size 3 to 8) (size 9 to 14) (size 15 to 20)
#    0.000    1.571    0.000    5.143    2.000    3.714 
#    0.000    0.000    0.000    0.429    0.000    0.000 
#    0.000    0.000    0.000    0.000    0.000    0.000 
#
# Total GULP energy -312770.244067 kJ/mol
# GULP energy per Si atom -5585.182930 kJ/mol
# Density = 2.148120 g / cm^3
# Si number density = 21.530207 Si / 1000 Ang^3
#
#
#
# Elastic Constant Matrix: (Units=GPa)
#
#
# Indices 1 2 3 4 5 6 
#
# 1 106.1901 27.2618 38.7437 0.0002 0.0000 0.0000
# 2 27.2618 100.7036 50.4852 0.0001 0.0000 0.0000
# 3 38.7437 50.4852 174.0298 0.0015 0.0006 -0.0003
# 4 0.0002 0.0001 0.0015 8.5142 -0.0006 -0.0001
# 5 0.0000 0.0000 0.0006 -0.0006 21.0790 0.0000
# 6 0.0000 0.0000 -0.0003 -0.0001 0.0000 17.4372
#
#
#
# Elastic Compliance Matrix: (Units=1/GPa)
#
#
# Indices 1 2 3 4 5 6 
#
# 1 0.010573 -0.001968 -0.001783 0.000000 0.000000 0.000000
# 2 -0.001968 0.011987 -0.003039 0.000000 0.000000 0.000000
# 3 -0.001783 -0.003039 0.007025 -0.000001 0.000000 0.000000
# 4 0.000000 0.000000 -0.000001 0.117450 0.000004 0.000001
# 5 0.000000 0.000000 0.000000 0.000004 0.047440 0.000000
# 6 0.000000 0.000000 0.000000 0.000001 0.000000 0.057349
#
#
# Mechanical properties :
#
#
# Convention : Reuss Voigt Hill
#
# Bulk Modulus (GPa) = 62.48604 68.21168 65.34886
# Shear Modulus (GPa) = 18.46800 27.03495 22.75147
#
# Velocity S-wave (km/s) = 2.93195 3.54740 3.25425
# Velocity P-wave (km/s) = 6.36768 6.96630 6.67370
#
# Compressibility (1/GPa) = 0.01600358
#
# Stress axis : x y z
#
# Youngs Moduli (GPa) = 94.58164 83.42677 142.35618
#
# Poissons Ratio (x) = 0.16422 0.25379
# Poissons Ratio (y) = 0.18618 0.43262
# Poissons Ratio (z) = 0.16862 0.25353
#
# Static dielectric constant tensor:
#      x y z
#    x 1.791360 0.000000 0.000000 
#    y 0.000000 1.778690 0.000000 
#    z 0.000000 0.000000 1.816500 
# 
# From -- ./inp_files/20677.got.cif
#   From: 2010.05.17/outbox.cif.g08.bks.cpg/sg72_11_cif.got.tgz:20677.got - 2010.06.03 17:03:01.
