data_PCOD9527162
_publ_section_title
;
Structure prediction by ZEFSAII (Michael W. Deem and Ramdas Pophale) SiO2 
 PCOD9527162
Probable space group: I B A M
;
_chemical_formula_sum "Si O2"
_cell_formula_units_Z 80
_cell_length_a 17.687562
_cell_length_b 8.928524
_cell_length_c 30.147894
_cell_angle_alpha 90.000000
_cell_angle_beta 90.000000
_cell_angle_gamma 90.000000
_cell_volume 4761.070640
_symmetry_space_group_name_H-M "I B A M"
_symmetry_group_IT_number 72
_symmetry_cell_setting 'orthorhombic'
loop_
_space_group_symop_operation_xyz
x,y,z
-x,-y,z
x,-y,1/2-z
-x,y,1/2-z
-x,-y,-z
x,y,-z
-x,y,1/2+z
x,-y,1/2+z
1/2+x,1/2+y,1/2+z
1/2-x,1/2-y,1/2+z
1/2+x,1/2-y,-z
1/2-x,1/2+y,-z
1/2-x,1/2-y,1/2-z
1/2+x,1/2+y,1/2-z
1/2-x,1/2+y,z
1/2+x,1/2-y,z
loop_
_atom_site_type_symbol
_atom_site_label
_atom_site_fract_x
_atom_site_fract_y
_atom_site_fract_z
Si Si1 0.483060 0.822994 0.800069
Si Si2 0.646616 0.778580 0.638443
Si Si3 0.749509 0.532230 0.599423
Si Si4 0.491597 0.321083 0.111982
Si Si5 0.151166 0.780129 0.947437
O O1 0.500000 0.776933 0.750000
O O2 0.396280 0.793579 0.814726
O O3 0.529212 0.734154 0.838124
O O4 0.500000 0.000000 0.804420
O O5 0.700702 0.636669 0.632150
O O6 0.693437 0.924331 0.625571
O O7 0.574436 0.752630 0.605734
O O8 0.797100 0.641213 0.567696
O O9 0.693432 0.427317 0.571340
O O10 0.500000 0.500000 0.111217
O O11 0.429288 0.271063 0.077151
O O12 0.143017 0.786568 0.000000
#
# Coordination Sequence:
#
# PCOD9527162 Si02
#       5
#    16  16  16  16  16
#     4   9  18  34  60  86 108 140 187 224 283 326
#     4   9  20  36  59  84 108 153 180 236 276 331
#     4  10  20  37  55  79 117 146 187 224 285 333
#     4  10  20  37  54  86 108 143 191 229 280 322
#     4  11  21  35  55  79 111 151 188 232 276 333
#
# _framework density 16.802944
#
# number of rings (size 3 to 8) (size 9 to 14) (size 15 to 20)
#    1.200    1.000    2.000    1.800    0.000    0.800 
#    0.000    3.000    0.000   21.600    0.000    0.000 
#    0.000    0.000    0.000    0.000    0.000    0.000 
#
# Total GULP energy -222670.204074 kJ/mol
# GULP energy per Si atom -5566.755102 kJ/mol
# Density = 1.676470 g / cm^3
# Si number density = 16.802944 Si / 1000 Ang^3
#
#
#
# Elastic Constant Matrix: (Units=GPa)
#
#
# Indices 1 2 3 4 5 6 
#
# 1 120.4926 53.9833 63.4593 0.0000 0.0000 0.0000
# 2 53.9833 84.0729 42.0026 0.0000 0.0000 0.0000
# 3 63.4593 42.0026 124.1429 0.0000 0.0000 0.0000
# 4 0.0000 0.0000 0.0000 5.9069 0.0000 0.0000
# 5 0.0000 0.0000 0.0000 0.0000 22.5688 0.0000
# 6 0.0000 0.0000 0.0000 0.0000 0.0000 17.3390
#
#
#
# Elastic Compliance Matrix: (Units=1/GPa)
#
#
# Indices 1 2 3 4 5 6 
#
# 1 0.013713 -0.006382 -0.004851 0.000000 0.000000 0.000000
# 2 -0.006382 0.017284 -0.002586 0.000000 0.000000 0.000000
# 3 -0.004851 -0.002586 0.011410 0.000000 0.000000 0.000000
# 4 0.000000 0.000000 0.000000 0.169292 0.000000 0.000000
# 5 0.000000 0.000000 0.000000 0.000000 0.044309 0.000000
# 6 0.000000 0.000000 0.000000 0.000000 0.000000 0.057674
#
#
# Mechanical properties :
#
#
# Convention : Reuss Voigt Hill
#
# Bulk Modulus (GPa) = 67.70236 71.95543 69.82889
# Shear Modulus (GPa) = 14.44079 20.44715 17.44397
#
# Velocity S-wave (km/s) = 2.93477 3.49216 3.22553
# Velocity P-wave (km/s) = 7.20161 7.69262 7.45116
#
# Compressibility (1/GPa) = 0.01477053
#
# Stress axis : x y z
#
# Youngs Moduli (GPa) = 72.92269 57.85700 87.64553
#
# Poissons Ratio (x) = 0.36924 0.42514
# Poissons Ratio (y) = 0.46538 0.22662
# Poissons Ratio (z) = 0.35372 0.14959
#
# Static dielectric constant tensor:
#      x y z
#    x 1.575500 0.000000 0.000000 
#    y 0.000000 1.565820 0.000000 
#    z 0.000000 0.000000 1.539750 
# 
# From -- ./inp_files/52008.got.cif
#   From: 2010.05.17/outbox.cif.g08.bks.cpg/sg72_27_cif.got.tgz:52008.got - 2010.06.03 17:03:01.
