data_PCOD9527287
_publ_section_title
;
Structure prediction by ZEFSAII (Michael W. Deem and Ramdas Pophale) SiO2 
 PCOD9527287
Probable space group: I B A M
;
_chemical_formula_sum "Si O2"
_cell_formula_units_Z 112
_cell_length_a 30.505425
_cell_length_b 15.695902
_cell_length_c 13.684370
_cell_angle_alpha 90.000000
_cell_angle_beta 90.000000
_cell_angle_gamma 90.000000
_cell_volume 6552.215407
_symmetry_space_group_name_H-M "I B A M"
_symmetry_group_IT_number 72
_symmetry_cell_setting 'orthorhombic'
loop_
_space_group_symop_operation_xyz
x,y,z
-x,-y,z
x,-y,1/2-z
-x,y,1/2-z
-x,-y,-z
x,y,-z
-x,y,1/2+z
x,-y,1/2+z
1/2+x,1/2+y,1/2+z
1/2-x,1/2-y,1/2+z
1/2+x,1/2-y,-z
1/2-x,1/2+y,-z
1/2-x,1/2-y,1/2-z
1/2+x,1/2+y,1/2-z
1/2-x,1/2+y,z
1/2+x,1/2-y,z
loop_
_atom_site_type_symbol
_atom_site_label
_atom_site_fract_x
_atom_site_fract_y
_atom_site_fract_z
Si Si1 0.218598 0.595473 0.287717
Si Si2 0.309400 0.560804 0.384569
Si Si3 0.157228 0.722974 0.387929
Si Si4 0.033956 0.871097 0.112722
Si Si5 0.615000 0.656940 0.762789
Si Si6 0.440098 0.429928 0.387894
Si Si7 0.273014 0.625108 0.890061
O O1 0.209420 0.500000 0.250000
O O2 0.261499 0.597038 0.357080
O O3 0.179285 0.638076 0.345747
O O4 0.234989 0.640846 0.188320
O O5 0.318999 0.566382 0.500000
O O6 0.346130 0.614616 0.326525
O O7 0.301222 0.459757 0.361653
O O8 0.140435 0.714363 0.500000
O O9 0.126386 0.761835 0.303917
O O10 0.195384 0.794452 0.391724
O O11 0.072176 0.825360 0.171406
O O12 0.982841 0.874955 0.142777
O O13 0.047345 0.971198 0.116337
O O14 0.034618 0.844355 0.000000
O O15 0.599314 0.588039 0.683179
O O16 0.429177 0.409479 0.500000
O O17 0.256274 0.609155 0.000000
#
# Coordination Sequence:
#
# PCOD9527287 Si02
#       7
#    16  16  16  16  16  16  16
#     4  10  20  38  56  67  89 133 174 210 258 313
#     4  10  21  33  47  71 101 136 177 213 247 289
#     4  11  23  35  50  74 103 127 163 216 262 302
#     4   9  19  33  47  66  96 136 180 214 239 284
#     4  12  21  29  48  73 103 137 171 209 252 293
#     4   9  19  33  47  66  95 137 180 211 243 285
#     4   9  19  33  49  72  97 126 165 211 254 296
#
# _framework density 17.093454999999999
#
# number of rings (size 3 to 8) (size 9 to 14) (size 15 to 20)
#    0.000    2.000    1.429    3.429    4.000    1.714 
#    0.000    0.714    0.000    0.000    0.000    0.000 
#    0.000    2.286    0.000    8.571    0.000    0.000 
#
# Total GULP energy -312282.546881 kJ/mol
# GULP energy per Si atom -5576.474051 kJ/mol
# Density = 1.705455 g / cm^3
# Si number density = 17.093455 Si / 1000 Ang^3
#
#
#
# Elastic Constant Matrix: (Units=GPa)
#
#
# Indices 1 2 3 4 5 6 
#
# 1 55.2151 26.8016 41.5682 0.0000 0.0000 0.0000
# 2 26.8016 31.1567 24.0894 0.0000 0.0000 0.0000
# 3 41.5682 24.0894 101.2345 0.0000 0.0000 0.0000
# 4 0.0000 0.0000 0.0000 16.3823 0.0000 0.0000
# 5 0.0000 0.0000 0.0000 0.0000 22.5141 0.0000
# 6 0.0000 0.0000 0.0000 0.0000 0.0000 21.9150
#
#
#
# Elastic Compliance Matrix: (Units=1/GPa)
#
#
# Indices 1 2 3 4 5 6 
#
# 1 0.037176 -0.024726 -0.009381 0.000000 0.000000 0.000000
# 2 -0.024726 0.055778 -0.003120 0.000000 0.000000 0.000000
# 3 -0.009381 -0.003120 0.014472 0.000000 0.000000 0.000000
# 4 0.000000 0.000000 0.000000 0.061041 0.000000 0.000000
# 5 0.000000 0.000000 0.000000 0.000000 0.044417 0.000000
# 6 0.000000 0.000000 0.000000 0.000000 0.000000 0.045631
#
#
# Mechanical properties :
#
#
# Convention : Reuss Voigt Hill
#
# Bulk Modulus (GPa) = 30.32881 41.39165 35.86023
# Shear Modulus (GPa) = 14.53660 18.50543 16.52101
#
# Velocity S-wave (km/s) = 2.91936 3.29386 3.11225
# Velocity P-wave (km/s) = 5.39861 6.22363 5.82574
#
# Compressibility (1/GPa) = 0.03297195
#
# Stress axis : x y z
#
# Youngs Moduli (GPa) = 26.89942 17.92824 69.09696
#
# Poissons Ratio (x) = 0.44329 0.64820
# Poissons Ratio (y) = 0.66512 0.21557
# Poissons Ratio (z) = 0.25234 0.05593
#
# Static dielectric constant tensor:
#      x y z
#    x 1.607190 0.000000 0.000000 
#    y 0.000000 1.579800 0.000000 
#    z 0.000000 0.000000 1.655430 
# 
# From -- ./inp_files/25938.got.cif
#   From: 2010.05.17/outbox.cif.g08.bks.cpg/sg72_13_cif.got.tgz:25938.got - 2010.06.03 17:03:01.
