data_PCOD9527475
_publ_section_title
;
Structure prediction by ZEFSAII (Michael W. Deem and Ramdas Pophale) SiO2 
 PCOD9527475
Probable space group: I B A M
;
_chemical_formula_sum "Si O2"
_cell_formula_units_Z 116
_cell_length_a 17.665126
_cell_length_b 19.914988
_cell_length_c 16.474191
_cell_angle_alpha 90.000000
_cell_angle_beta 90.000000
_cell_angle_gamma 90.000000
_cell_volume 5795.633117
_symmetry_space_group_name_H-M "I B A M"
_symmetry_group_IT_number 72
_symmetry_cell_setting 'orthorhombic'
loop_
_space_group_symop_operation_xyz
x,y,z
-x,-y,z
x,-y,1/2-z
-x,y,1/2-z
-x,-y,-z
x,y,-z
-x,y,1/2+z
x,-y,1/2+z
1/2+x,1/2+y,1/2+z
1/2-x,1/2-y,1/2+z
1/2+x,1/2-y,-z
1/2-x,1/2+y,-z
1/2-x,1/2-y,1/2-z
1/2+x,1/2+y,1/2-z
1/2-x,1/2+y,z
1/2+x,1/2-y,z
loop_
_atom_site_type_symbol
_atom_site_label
_atom_site_fract_x
_atom_site_fract_y
_atom_site_fract_z
Si Si1 0.500000 0.500000 0.000000
Si Si2 0.879354 0.996758 0.650374
Si Si3 0.265194 0.612123 0.865835
Si Si4 0.103805 0.397493 0.092948
Si Si5 0.320174 0.240078 0.907555
Si Si6 0.964185 0.667082 0.331052
Si Si7 0.625221 0.032783 0.333224
Si Si8 0.263896 0.625479 0.325834
O O1 0.437769 0.483280 0.075918
O O2 0.815334 0.938410 0.649805
O O3 0.902070 0.000000 0.750000
O O4 0.840805 0.068338 0.625738
O O5 0.245925 0.683193 0.906098
O O6 0.194400 0.562967 0.884477
O O7 0.260061 0.627297 0.770617
O O8 0.084729 0.473507 0.118998
O O9 0.178807 0.379112 0.141840
O O10 0.033785 0.348988 0.110275
O O11 0.124156 0.395654 0.000000
O O12 0.395896 0.208073 0.869538
O O13 0.298242 0.305711 0.858439
O O14 0.334822 0.258734 0.000000
O O15 0.928314 0.594368 0.309686
O O16 0.000000 0.697961 0.250000
O O17 0.655498 0.000000 0.250000
#
# Coordination Sequence:
#
# PCOD9527475 Si02
#       8
#     4  16  16  16  16  16  16  16
#     4  12  26  40  72  98 140 162 230 286 356 378
#     4  10  23  44  72 102 133 169 224 282 338 400
#     4  10  20  40  70  96 127 168 220 263 322 400
#     4  12  23  34  61  97 128 162 213 263 317 388
#     4  11  25  41  63  94 137 172 215 270 327 386
#     4  11  23  39  60  85 133 178 213 252 322 390
#     4  11  18  35  60  94 125 165 201 257 316 383
#     4  11  22  44  69  92 128 177 220 268 325 393
#
# _framework density 20.015069
#
# number of rings (size 3 to 8) (size 9 to 14) (size 15 to 20)
#    0.000    1.103    4.138    3.103    2.897    3.310 
#    0.000    4.138    3.034    0.000    0.000    0.000 
#    0.000    0.000    0.000    0.000    0.000    0.000 
#
# Total GULP energy -323058.400890 kJ/mol
# GULP energy per Si atom -5569.972429 kJ/mol
# Density = 1.996951 g / cm^3
# Si number density = 20.015069 Si / 1000 Ang^3
#
#
#
# Elastic Constant Matrix: (Units=GPa)
#
#
# Indices 1 2 3 4 5 6 
#
# 1 83.9358 36.8501 26.1533 0.0000 0.0000 0.0000
# 2 36.8501 84.2110 19.2989 0.0000 0.0000 0.0000
# 3 26.1533 19.2989 68.4468 0.0000 0.0000 0.0000
# 4 0.0000 0.0000 0.0000 -1.9646 0.0000 0.0000
# 5 0.0000 0.0000 0.0000 0.0000 23.2309 0.0000
# 6 0.0000 0.0000 0.0000 0.0000 0.0000 18.2120
#
#
#
# Elastic Compliance Matrix: (Units=1/GPa)
#
#
# Indices 1 2 3 4 5 6 
#
# 1 0.015895 -0.005948 -0.004396 0.000000 0.000000 0.000000
# 2 -0.005948 0.014921 -0.001934 0.000000 0.000000 0.000000
# 3 -0.004396 -0.001934 0.016835 0.000000 0.000000 0.000000
# 4 0.000000 0.000000 0.000000 -0.509019 0.000000 0.000000
# 5 0.000000 0.000000 0.000000 0.000000 0.043046 0.000000
# 6 0.000000 0.000000 0.000000 0.000000 0.000000 0.054909
#
#
# Mechanical properties :
#
#
# Convention : Reuss Voigt Hill
#
# Bulk Modulus (GPa) = 43.30177 44.57759 43.93968
# Shear Modulus (GPa) = -15.09855 18.18173 1.54159
#
# Velocity S-wave (km/s) = -2.74954 3.01724 0.87857
# Velocity P-wave (km/s) = 3.40611 5.87015 4.79897
#
# Compressibility (1/GPa) = 0.02309374
#
# Stress axis : x y z
#
# Youngs Moduli (GPa) = 62.91258 67.01938 59.39958
#
# Poissons Ratio (x) = 0.39863 0.26114
# Poissons Ratio (y) = 0.37421 0.11490
# Poissons Ratio (z) = 0.27659 0.12964
#
# Static dielectric constant tensor:
#      x y z
#    x 1.733130 0.000000 0.000000 
#    y 0.000000 1.737280 0.000000 
#    z 0.000000 0.000000 1.715830 
# 
# From -- ./inp_files/31724.got.cif
#   From: 2010.05.17/outbox.cif.g08.bks.cpg/sg72_16_cif.got.tgz:31724.got - 2010.06.03 17:03:01.
