data_PCOD9527519
_publ_section_title
;
Structure prediction by ZEFSAII (Michael W. Deem and Ramdas Pophale) SiO2 
 PCOD9527519
Probable space group: I B A M
;
_chemical_formula_sum "Si O2"
_cell_formula_units_Z 56
_cell_length_a 9.085599
_cell_length_b 31.860041
_cell_length_c 8.116266
_cell_angle_alpha 90.000000
_cell_angle_beta 90.000000
_cell_angle_gamma 90.000000
_cell_volume 2349.395688
_symmetry_space_group_name_H-M "I B A M"
_symmetry_group_IT_number 72
_symmetry_cell_setting 'orthorhombic'
loop_
_space_group_symop_operation_xyz
x,y,z
-x,-y,z
x,-y,1/2-z
-x,y,1/2-z
-x,-y,-z
x,y,-z
-x,y,1/2+z
x,-y,1/2+z
1/2+x,1/2+y,1/2+z
1/2-x,1/2-y,1/2+z
1/2+x,1/2-y,-z
1/2-x,1/2+y,-z
1/2-x,1/2-y,1/2-z
1/2+x,1/2+y,1/2-z
1/2-x,1/2+y,z
1/2+x,1/2-y,z
loop_
_atom_site_type_symbol
_atom_site_label
_atom_site_fract_x
_atom_site_fract_y
_atom_site_fract_z
Si Si1 0.215973 0.362736 0.309837
Si Si2 0.164441 0.245698 0.500000
Si Si3 0.925423 0.310975 0.500000
Si Si4 0.000000 0.811942 0.250000
Si Si5 0.829517 0.544409 0.304816
O O1 0.152314 0.367191 0.500000
O O2 0.375619 0.341696 0.325914
O O3 0.232043 0.410693 0.247682
O O4 0.129485 0.336879 0.163108
O O5 0.335666 0.233969 0.500000
O O6 0.099991 0.219853 0.350185
O O7 0.091993 0.291390 0.500000
O O8 0.762463 0.500000 0.250000
O O9 0.823498 0.543456 0.500000
O O10 0.000000 0.544928 0.250000
#
# Coordination Sequence:
#
# PCOD9527519 Si02
#       5
#    16   8   8   8  16
#     4  10  22  42  64  91 123 168 211 257 321 381
#     4  10  22  42  64  89 121 177 209 270 326 374
#     4  10  24  44  64  92 133 166 220 274 317 384
#     4  10  20  44  61  80 128 160 207 262 320 364
#     4  10  21  38  62  92 130 162 204 257 319 383
#
# _framework density 23.835917999999999
#
# number of rings (size 3 to 8) (size 9 to 14) (size 15 to 20)
#    0.000    2.000    1.429    1.714    4.000    4.571 
#   10.286    0.714    0.000    3.429    0.000    0.000 
#    0.000    0.000    0.000    0.000    0.000    0.000 
#
# Total GULP energy -156110.481052 kJ/mol
# GULP energy per Si atom -5575.374323 kJ/mol
# Density = 2.378167 g / cm^3
# Si number density = 23.835918 Si / 1000 Ang^3
#
#
#
# Elastic Constant Matrix: (Units=GPa)
#
#
# Indices 1 2 3 4 5 6 
#
# 1 53.2850 27.8679 23.8595 -0.0008 -0.0002 0.0000
# 2 27.8679 234.5698 50.5305 -0.0016 -0.0001 0.0000
# 3 23.8595 50.5305 120.8759 -0.0040 -0.0003 -0.0003
# 4 -0.0008 -0.0016 -0.0040 29.8158 0.0002 -0.0001
# 5 -0.0002 -0.0001 -0.0003 0.0002 31.0206 -0.0005
# 6 0.0000 0.0000 -0.0003 -0.0001 -0.0005 33.6538
#
#
#
# Elastic Compliance Matrix: (Units=1/GPa)
#
#
# Indices 1 2 3 4 5 6 
#
# 1 0.021243 -0.001781 -0.003449 0.000000 0.000000 0.000000
# 2 -0.001781 0.004834 -0.001669 0.000000 0.000000 0.000000
# 3 -0.003449 -0.001669 0.009652 0.000001 0.000000 0.000000
# 4 0.000000 0.000000 0.000001 0.033539 0.000000 0.000000
# 5 0.000000 0.000000 0.000000 0.000000 0.032237 0.000000
# 6 0.000000 0.000000 0.000000 0.000000 0.000000 0.029714
#
#
# Mechanical properties :
#
#
# Convention : Reuss Voigt Hill
#
# Bulk Modulus (GPa) = 45.59804 68.13850 56.86827
# Shear Modulus (GPa) = 32.82424 39.32957 36.07690
#
# Velocity S-wave (km/s) = 3.71494 4.06644 3.89466
# Velocity P-wave (km/s) = 6.12965 7.12015 6.64338
#
# Compressibility (1/GPa) = 0.02193077
#
# Stress axis : x y z
#
# Youngs Moduli (GPa) = 47.07533 206.85476 103.61046
#
# Poissons Ratio (x) = 0.36837 0.35731
# Poissons Ratio (y) = 0.08383 0.17297
# Poissons Ratio (z) = 0.16234 0.34532
#
# Static dielectric constant tensor:
#      x y z
#    x 1.977600 0.000000 0.000000 
#    y 0.000000 1.955760 0.000000 
#    z 0.000000 0.000000 1.956470 
# 
# From -- ./inp_files/2407.got.cif
#   From: 2010.05.17/outbox.cif.g08.bks.cpg/sg72_2_cif.got.tgz:2407.got - 2010.06.03 17:03:01.
