data_PCOD9527668
_publ_section_title
;
Structure prediction by ZEFSAII (Michael W. Deem and Ramdas Pophale) SiO2 
 PCOD9527668
Probable space group: I B A M
;
_chemical_formula_sum "Si O2"
_cell_formula_units_Z 64
_cell_length_a 13.775447
_cell_length_b 7.954338
_cell_length_c 24.085388
_cell_angle_alpha 90.000000
_cell_angle_beta 90.000000
_cell_angle_gamma 90.000000
_cell_volume 2639.145830
_symmetry_space_group_name_H-M "I B A M"
_symmetry_group_IT_number 72
_symmetry_cell_setting 'orthorhombic'
loop_
_space_group_symop_operation_xyz
x,y,z
-x,-y,z
x,-y,1/2-z
-x,y,1/2-z
-x,-y,-z
x,y,-z
-x,y,1/2+z
x,-y,1/2+z
1/2+x,1/2+y,1/2+z
1/2-x,1/2-y,1/2+z
1/2+x,1/2-y,-z
1/2-x,1/2+y,-z
1/2-x,1/2-y,1/2-z
1/2+x,1/2+y,1/2-z
1/2-x,1/2+y,z
1/2+x,1/2-y,z
loop_
_atom_site_type_symbol
_atom_site_label
_atom_site_fract_x
_atom_site_fract_y
_atom_site_fract_z
Si Si1 0.681477 0.500000 0.750000
Si Si2 0.377833 0.790978 0.934920
Si Si3 0.766318 0.992332 0.628120
Si Si4 0.000000 0.750500 0.750000
Si Si5 0.457716 0.307168 0.865842
O O1 0.743078 0.480723 0.805841
O O2 0.603923 0.652071 0.749533
O O3 0.331679 0.947381 0.902912
O O4 0.322839 0.635015 0.905663
O O5 0.489615 0.760003 0.920188
O O6 0.360287 0.798340 0.000000
O O7 0.843915 0.836589 0.627178
O O8 0.991592 0.693057 0.686186
O O9 0.500000 0.500000 0.853572
#
# Coordination Sequence:
#
# PCOD9527668 Si02
#       5
#     8  16  16   8  16
#     4   9  14  30  56  82 111 134 180 235 294 324
#     4  11  22  36  55  84 117 152 193 230 278 344
#     4  10  21  36  57  85 113 147 191 241 285 333
#     4   9  10  28  54  82 105 131 178 238 275 325
#     4   9  16  32  55  80 107 146 186 234 279 325
#
# _framework density 24.250271000000001
#
# number of rings (size 3 to 8) (size 9 to 14) (size 15 to 20)
#    0.000    2.250    7.500    0.750    0.000    6.500 
#    0.000    1.250    0.000    3.000    0.000    0.000 
#    0.000    0.000    0.000    0.000    0.000    0.000 
#
# Total GULP energy -178491.158711 kJ/mol
# GULP energy per Si atom -5577.848710 kJ/mol
# Density = 2.419508 g / cm^3
# Si number density = 24.250271 Si / 1000 Ang^3
#
#
#
# Elastic Constant Matrix: (Units=GPa)
#
#
# Indices 1 2 3 4 5 6 
#
# 1 65.3140 6.9720 32.9817 0.0000 0.0000 0.0000
# 2 6.9720 52.9500 21.9372 0.0000 0.0000 0.0000
# 3 32.9817 21.9372 206.1989 0.0000 0.0000 0.0000
# 4 0.0000 0.0000 0.0000 6.5302 0.0000 0.0000
# 5 0.0000 0.0000 0.0000 0.0000 34.6446 0.0000
# 6 0.0000 0.0000 0.0000 0.0000 0.0000 23.0244
#
#
#
# Elastic Compliance Matrix: (Units=1/GPa)
#
#
# Indices 1 2 3 4 5 6 
#
# 1 0.016722 -0.001144 -0.002553 0.000000 0.000000 0.000000
# 2 -0.001144 0.019835 -0.001927 0.000000 0.000000 0.000000
# 3 -0.002553 -0.001927 0.005463 0.000000 0.000000 0.000000
# 4 0.000000 0.000000 0.000000 0.153135 0.000000 0.000000
# 5 0.000000 0.000000 0.000000 0.000000 0.028865 0.000000
# 6 0.000000 0.000000 0.000000 0.000000 0.000000 0.043432
#
#
# Mechanical properties :
#
#
# Convention : Reuss Voigt Hill
#
# Bulk Modulus (GPa) = 32.49783 49.80499 41.15141
# Shear Modulus (GPa) = 17.30361 30.34463 23.82412
#
# Velocity S-wave (km/s) = 2.67412 3.54123 3.13777
# Velocity P-wave (km/s) = 4.79215 6.10761 5.48942
#
# Compressibility (1/GPa) = 0.03077129
#
# Stress axis : x y z
#
# Youngs Moduli (GPa) = 59.80157 50.41637 183.04731
#
# Poissons Ratio (x) = 0.05768 0.46732
# Poissons Ratio (y) = 0.06842 0.35277
# Poissons Ratio (z) = 0.15267 0.09716
#
# Static dielectric constant tensor:
#      x y z
#    x 1.915500 0.000000 0.000000 
#    y 0.000000 2.148080 0.000000 
#    z 0.000000 0.000000 1.872760 
# 
# From -- ./inp_files/38678.got.cif
#   From: 2010.05.17/outbox.cif.g08.bks.cpg/sg72_20_cif.got.tgz:38678.got - 2010.06.03 17:03:01.
