data_PCOD9527124
_publ_section_title
;
Structure prediction by ZEFSAII (Michael W. Deem and Ramdas Pophale) SiO2 
 PCOD9527124
Probable space group: I B A M
;
_chemical_formula_sum "Si O2"
_cell_formula_units_Z 64
_cell_length_a 7.712719
_cell_length_b 24.797464
_cell_length_c 12.793499
_cell_angle_alpha 90.000000
_cell_angle_beta 90.000000
_cell_angle_gamma 90.000000
_cell_volume 2446.831804
_symmetry_space_group_name_H-M "I B A M"
_symmetry_group_IT_number 72
_symmetry_cell_setting 'orthorhombic'
loop_
_space_group_symop_operation_xyz
x,y,z
-x,-y,z
x,-y,1/2-z
-x,y,1/2-z
-x,-y,-z
x,y,-z
-x,y,1/2+z
x,-y,1/2+z
1/2+x,1/2+y,1/2+z
1/2-x,1/2-y,1/2+z
1/2+x,1/2-y,-z
1/2-x,1/2+y,-z
1/2-x,1/2-y,1/2-z
1/2+x,1/2+y,1/2-z
1/2-x,1/2+y,z
1/2+x,1/2-y,z
loop_
_atom_site_type_symbol
_atom_site_label
_atom_site_fract_x
_atom_site_fract_y
_atom_site_fract_z
Si Si1 0.308464 0.387040 0.287890
Si Si2 0.948098 0.217103 0.384582
Si Si3 0.796886 0.489239 0.879305
Si Si4 0.837049 0.668675 0.884335
O O1 0.500000 0.403786 0.250000
O O2 0.332347 0.325099 0.323009
O O3 0.248348 0.426038 0.377795
O O4 0.176340 0.382124 0.191495
O O5 0.873083 0.218657 0.500000
O O6 0.946177 0.279115 0.352311
O O7 0.139573 0.192027 0.388711
O O8 0.742689 0.500000 0.750000
O O9 0.000000 0.500000 0.879251
O O10 0.734741 0.509233 0.000000
O O11 0.890025 0.651856 0.000000
#
# Coordination Sequence:
#
# PCOD9527124 Si02
#       4
#    16  16  16  16
#     4  10  20  36  61  90 121 168 218 271 333 396
#     4   9  17  32  52  83 126 168 210 257 314 383
#     4  10  23  46  69  94 128 167 218 284 347 406
#     4   9  18  32  52  85 128 169 212 259 311 383
#
# _framework density 26.156272000000001
#
# number of rings (size 3 to 8) (size 9 to 14) (size 15 to 20)
#    0.000    2.500    0.000    1.500    0.000    2.500 
#    9.000    1.250    0.000    0.000    0.000    0.000 
#    0.000    0.000    0.000    0.000    0.000    0.000 
#
# Total GULP energy -178253.712712 kJ/mol
# GULP energy per Si atom -5570.428522 kJ/mol
# Density = 2.609674 g / cm^3
# Si number density = 26.156272 Si / 1000 Ang^3
#
#
#
# Elastic Constant Matrix: (Units=GPa)
#
#
# Indices 1 2 3 4 5 6 
#
# 1 65.5496 32.7859 14.0942 0.0000 0.0000 0.0000
# 2 32.7859 38.1141 40.5036 0.0001 0.0000 0.0000
# 3 14.0942 40.5036 228.9496 0.0002 0.0000 0.0000
# 4 0.0000 0.0001 0.0002 47.8063 0.0000 0.0000
# 5 0.0000 0.0000 0.0000 0.0000 18.8380 0.0000
# 6 0.0000 0.0000 0.0000 0.0000 0.0000 21.9744
#
#
#
# Elastic Compliance Matrix: (Units=1/GPa)
#
#
# Indices 1 2 3 4 5 6 
#
# 1 0.028546 -0.027940 0.003186 0.000000 0.000000 0.000000
# 2 -0.027940 0.059660 -0.008834 0.000000 0.000000 0.000000
# 3 0.003186 -0.008834 0.005735 0.000000 0.000000 0.000000
# 4 0.000000 0.000000 0.000000 0.020918 0.000000 0.000000
# 5 0.000000 0.000000 0.000000 0.000000 0.053084 0.000000
# 6 0.000000 0.000000 0.000000 0.000000 0.000000 0.045507
#
#
# Mechanical properties :
#
#
# Convention : Reuss Voigt Hill
#
# Bulk Modulus (GPa) = 37.36705 56.37563 46.87134
# Shear Modulus (GPa) = 17.26829 34.07240 25.67035
#
# Velocity S-wave (km/s) = 2.57222 3.61314 3.13616
# Velocity P-wave (km/s) = 4.81028 6.24552 5.57429
#
# Compressibility (1/GPa) = 0.02676154
#
# Stress axis : x y z
#
# Youngs Moduli (GPa) = 35.03164 16.76174 174.38128
#
# Poissons Ratio (x) = 0.46833 -0.55552
# Poissons Ratio (y) = 0.97880 1.54055
# Poissons Ratio (z) = -0.11160 0.14808
#
# Static dielectric constant tensor:
#      x y z
#    x 2.025920 0.000000 0.000000 
#    y 0.000000 2.081630 0.000000 
#    z 0.000000 0.000000 2.349990 
# 
# From -- ./inp_files/18662.got.cif
#   From: 2010.05.17/outbox.cif.g08.bks.cpg/sg72_10_cif.got.tgz:18662.got - 2010.06.03 17:03:01.
