data_PCOD9527149
_publ_section_title
;
Structure prediction by ZEFSAII (Michael W. Deem and Ramdas Pophale) SiO2 
 PCOD9527149
Probable space group: I B A M
;
_chemical_formula_sum "Si O2"
_cell_formula_units_Z 64
_cell_length_a 15.760210
_cell_length_b 20.752183
_cell_length_c 10.144948
_cell_angle_alpha 90.000000
_cell_angle_beta 90.000000
_cell_angle_gamma 90.000000
_cell_volume 3317.994134
_symmetry_space_group_name_H-M "I B A M"
_symmetry_group_IT_number 72
_symmetry_cell_setting 'orthorhombic'
loop_
_space_group_symop_operation_xyz
x,y,z
-x,-y,z
x,-y,1/2-z
-x,y,1/2-z
-x,-y,-z
x,y,-z
-x,y,1/2+z
x,-y,1/2+z
1/2+x,1/2+y,1/2+z
1/2-x,1/2-y,1/2+z
1/2+x,1/2-y,-z
1/2-x,1/2+y,-z
1/2-x,1/2-y,1/2-z
1/2+x,1/2+y,1/2-z
1/2-x,1/2+y,z
1/2+x,1/2-y,z
loop_
_atom_site_type_symbol
_atom_site_label
_atom_site_fract_x
_atom_site_fract_y
_atom_site_fract_z
Si Si1 0.321126 0.441267 0.659333
Si Si2 0.097367 0.692666 0.500000
Si Si3 0.500000 0.600321 0.250000
Si Si4 0.288684 0.822127 0.746564
Si Si5 0.519115 0.312365 0.500000
Si Si6 0.094558 0.319278 0.500000
O O1 0.287250 0.500000 0.750000
O O2 0.306627 0.446538 0.500000
O O3 0.421690 0.437794 0.687470
O O4 0.283118 0.375326 0.719757
O O5 0.153991 0.674403 0.376204
O O6 0.068334 0.769091 0.500000
O O7 0.003928 0.660239 0.500000
O O8 0.472147 0.645722 0.370347
O O9 0.250000 0.750000 0.750000
O O10 0.353908 0.836247 0.628434
O O11 0.590554 0.258349 0.500000
#
# Coordination Sequence:
#
# PCOD9527149 Si02
#       6
#    16   8   8  16   8   8
#     4  12  29  48  69  99 142 189 235 287 346 419
#     4  10  23  37  64 101 140 175 221 280 354 401
#     4  12  23  42  68  96 144 184 233 268 341 426
#     4  12  23  42  69 105 135 178 233 290 347 407
#     4  10  20  36  65 108 133 180 216 282 336 406
#     4  10  21  39  64  97 144 173 217 292 340 407
#
# _framework density 19.288761000000001
#
# number of rings (size 3 to 8) (size 9 to 14) (size 15 to 20)
#    0.750    0.000    2.500    6.375    3.500    1.000 
#    0.000    0.000    0.000    4.500    0.000    0.000 
#    0.000    0.000    0.000    0.000    0.000    0.000 
#
# Total GULP energy -178430.466641 kJ/mol
# GULP energy per Si atom -5575.952083 kJ/mol
# Density = 1.924486 g / cm^3
# Si number density = 19.288761 Si / 1000 Ang^3
#
#
#
# Elastic Constant Matrix: (Units=GPa)
#
#
# Indices 1 2 3 4 5 6 
#
# 1 107.3239 22.5004 49.6777 0.0000 0.0000 0.0000
# 2 22.5004 86.6810 25.7302 0.0000 0.0000 0.0000
# 3 49.6777 25.7302 175.2583 0.0000 0.0000 0.0000
# 4 0.0000 0.0000 0.0000 31.7953 0.0000 0.0000
# 5 0.0000 0.0000 0.0000 0.0000 45.3213 0.0000
# 6 0.0000 0.0000 0.0000 0.0000 0.0000 12.4215
#
#
#
# Elastic Compliance Matrix: (Units=1/GPa)
#
#
# Indices 1 2 3 4 5 6 
#
# 1 0.011055 -0.002028 -0.002836 0.000000 0.000000 0.000000
# 2 -0.002028 0.012434 -0.001251 0.000000 0.000000 0.000000
# 3 -0.002836 -0.001251 0.006693 0.000000 0.000000 0.000000
# 4 0.000000 0.000000 0.000000 0.031451 0.000000 0.000000
# 5 0.000000 0.000000 0.000000 0.000000 0.022065 0.000000
# 6 0.000000 0.000000 0.000000 0.000000 0.000000 0.080506
#
#
# Mechanical properties :
#
#
# Convention : Reuss Voigt Hill
#
# Bulk Modulus (GPa) = 55.69840 62.78664 59.24252
# Shear Modulus (GPa) = 27.40953 35.99795 31.70374
#
# Velocity S-wave (km/s) = 3.77372 4.32472 4.05858
# Velocity P-wave (km/s) = 6.92291 7.58677 7.26243
#
# Compressibility (1/GPa) = 0.01795384
#
# Stress axis : x y z
#
# Youngs Moduli (GPa) = 90.45313 80.42338 149.40189
#
# Poissons Ratio (x) = 0.16309 0.42370
# Poissons Ratio (y) = 0.18343 0.18685
# Poissons Ratio (z) = 0.25652 0.10058
#
# Static dielectric constant tensor:
#      x y z
#    x 1.697180 0.000000 0.000000 
#    y 0.000000 1.718080 0.000000 
#    z 0.000000 0.000000 1.710810 
# 
# From -- ./inp_files/4367.got.cif
#   From: 2010.05.17/outbox.cif.g08.bks.cpg/sg72_3_cif.got.tgz:4367.got - 2010.06.03 17:03:01.
