data_PCOD9527928
_publ_section_title
;
Structure prediction by ZEFSAII (Michael W. Deem and Ramdas Pophale) SiO2 
 PCOD9527928
Probable space group: I B A M
;
_chemical_formula_sum "Si O2"
_cell_formula_units_Z 80
_cell_length_a 9.691466
_cell_length_b 16.474282
_cell_length_c 24.178187
_cell_angle_alpha 90.000000
_cell_angle_beta 90.000000
_cell_angle_gamma 90.000000
_cell_volume 3860.287979
_symmetry_space_group_name_H-M "I B A M"
_symmetry_group_IT_number 72
_symmetry_cell_setting 'orthorhombic'
loop_
_space_group_symop_operation_xyz
x,y,z
-x,-y,z
x,-y,1/2-z
-x,y,1/2-z
-x,-y,-z
x,y,-z
-x,y,1/2+z
x,-y,1/2+z
1/2+x,1/2+y,1/2+z
1/2-x,1/2-y,1/2+z
1/2+x,1/2-y,-z
1/2-x,1/2+y,-z
1/2-x,1/2-y,1/2-z
1/2+x,1/2+y,1/2-z
1/2-x,1/2+y,z
1/2+x,1/2-y,z
loop_
_atom_site_type_symbol
_atom_site_label
_atom_site_fract_x
_atom_site_fract_y
_atom_site_fract_z
Si Si1 0.639746 0.302210 0.784033
Si Si2 0.478016 0.793353 0.108951
Si Si3 0.729734 0.909711 0.136461
Si Si4 0.008566 0.876840 0.561262
Si Si5 0.201544 0.559920 0.564707
O O1 0.500000 0.317563 0.750000
O O2 0.750000 0.250000 0.750000
O O3 0.594038 0.247953 0.837404
O O4 0.714003 0.386180 0.802792
O O5 0.616742 0.840530 0.125040
O O6 0.514463 0.718851 0.069203
O O7 0.379748 0.858086 0.079300
O O8 0.869261 0.900581 0.101379
O O9 0.668336 0.992886 0.111681
O O10 0.057294 0.895564 0.500000
O O11 0.863837 0.920555 0.570226
O O12 0.173991 0.536413 0.500000
#
# Coordination Sequence:
#
# PCOD9527928 Si02
#       5
#    16  16  16  16  16
#     4  11  23  45  72  94 125 173 225 286 332 384
#     4  11  23  39  67  94 127 171 225 272 331 402
#     4  11  23  39  63  95 129 171 214 274 338 397
#     4  10  21  38  61  91 129 174 220 265 319 395
#     4  11  24  41  64  99 142 177 215 274 342 406
#
# _framework density 20.723842000000001
#
# number of rings (size 3 to 8) (size 9 to 14) (size 15 to 20)
#    0.000    1.200    2.000    4.800    2.800    7.200 
#    0.000    1.000    4.400    0.000    0.000    0.000 
#    0.000    0.000    0.000    0.000    0.000    0.000 
#
# Total GULP energy -223276.942740 kJ/mol
# GULP energy per Si atom -5581.923569 kJ/mol
# Density = 2.067667 g / cm^3
# Si number density = 20.723842 Si / 1000 Ang^3
#
#
#
# Elastic Constant Matrix: (Units=GPa)
#
#
# Indices 1 2 3 4 5 6 
#
# 1 73.6472 8.8842 27.7605 0.0000 0.0000 0.0000
# 2 8.8842 120.6419 34.6585 0.0000 0.0000 0.0000
# 3 27.7605 34.6585 84.8786 0.0000 0.0000 0.0000
# 4 0.0000 0.0000 0.0000 16.1466 0.0000 0.0000
# 5 0.0000 0.0000 0.0000 0.0000 35.3871 0.0000
# 6 0.0000 0.0000 0.0000 0.0000 0.0000 34.7582
#
#
#
# Elastic Compliance Matrix: (Units=1/GPa)
#
#
# Indices 1 2 3 4 5 6 
#
# 1 0.015501 0.000357 -0.005216 0.000000 0.000000 0.000000
# 2 0.000357 0.009399 -0.003955 0.000000 0.000000 0.000000
# 3 -0.005216 -0.003955 0.015102 0.000000 0.000000 0.000000
# 4 0.000000 0.000000 0.000000 0.061933 0.000000 0.000000
# 5 0.000000 0.000000 0.000000 0.000000 0.028259 0.000000
# 6 0.000000 0.000000 0.000000 0.000000 0.000000 0.028770
#
#
# Mechanical properties :
#
#
# Convention : Reuss Voigt Hill
#
# Bulk Modulus (GPa) = 44.69161 46.86380 45.77771
# Shear Modulus (GPa) = 27.16675 31.11602 29.14139
#
# Velocity S-wave (km/s) = 3.62455 3.87907 3.75397
# Velocity P-wave (km/s) = 6.25529 6.53647 6.39743
#
# Compressibility (1/GPa) = 0.02237556
#
# Stress axis : x y z
#
# Youngs Moduli (GPa) = 64.51141 106.39675 66.21605
#
# Poissons Ratio (x) = -0.03796 0.34535
# Poissons Ratio (y) = -0.02302 0.26185
# Poissons Ratio (z) = 0.33646 0.42075
#
# Static dielectric constant tensor:
#      x y z
#    x 1.730580 0.000000 0.000000 
#    y 0.000000 1.799190 0.000000 
#    z 0.000000 0.000000 1.769370 
# 
# From -- ./inp_files/43087.got.cif
#   From: 2010.05.17/outbox.cif.g08.bks.cpg/sg72_22_cif.got.tgz:43087.got - 2010.06.03 17:03:01.
