data_PCOD9527652
_publ_section_title
;
Structure prediction by ZEFSAII (Michael W. Deem and Ramdas Pophale) SiO2 
 PCOD9527652
Probable space group: I B A M
;
_chemical_formula_sum "Si O2"
_cell_formula_units_Z 72
_cell_length_a 31.152077
_cell_length_b 11.822984
_cell_length_c 10.910732
_cell_angle_alpha 90.000000
_cell_angle_beta 90.000000
_cell_angle_gamma 90.000000
_cell_volume 4018.537245
_symmetry_space_group_name_H-M "I B A M"
_symmetry_group_IT_number 72
_symmetry_cell_setting 'orthorhombic'
loop_
_space_group_symop_operation_xyz
x,y,z
-x,-y,z
x,-y,1/2-z
-x,y,1/2-z
-x,-y,-z
x,y,-z
-x,y,1/2+z
x,-y,1/2+z
1/2+x,1/2+y,1/2+z
1/2-x,1/2-y,1/2+z
1/2+x,1/2-y,-z
1/2-x,1/2+y,-z
1/2-x,1/2-y,1/2-z
1/2+x,1/2+y,1/2-z
1/2-x,1/2+y,z
1/2+x,1/2-y,z
loop_
_atom_site_type_symbol
_atom_site_label
_atom_site_fract_x
_atom_site_fract_y
_atom_site_fract_z
Si Si1 0.476899 0.877501 0.636550
Si Si2 0.355918 0.413393 0.858499
Si Si3 0.691815 0.000000 0.250000
Si Si4 0.756913 0.162967 0.137193
Si Si5 0.120583 0.661143 0.143519
O O1 0.500000 0.816587 0.750000
O O2 0.480158 0.825862 0.500000
O O3 0.426642 0.887797 0.667251
O O4 0.500000 0.000000 0.628231
O O5 0.365895 0.500000 0.750000
O O6 0.305059 0.385126 0.854699
O O7 0.379115 0.294489 0.831821
O O8 0.365606 0.448715 0.000000
O O9 0.723435 0.060073 0.153538
O O10 0.659536 0.098150 0.292029
O O11 0.750000 0.250000 0.250000
O O12 0.751776 0.213926 0.000000
O O13 0.128993 0.647078 0.000000
#
# Coordination Sequence:
#
# PCOD9527652 Si02
#       5
#    16  16   8  16  16
#     4   9  17  32  54  80 110 141 169 210 274 341
#     4  10  21  39  57  78 109 153 196 238 281 327
#     4  12  20  34  55  84 112 148 197 236 282 328
#     4  11  23  36  53  76 110 154 196 238 282 332
#     4  10  21  36  55  82 117 149 182 230 288 338
#
# _framework density 17.916967
#
# number of rings (size 3 to 8) (size 9 to 14) (size 15 to 20)
#    0.000    1.778    3.333    2.000    0.000    1.778 
#    0.000    2.222    0.000    0.667    0.000    4.667 
#    0.000    0.000    0.000    0.000    0.000    0.000 
#
# Total GULP energy -200540.301286 kJ/mol
# GULP energy per Si atom -5570.563925 kJ/mol
# Density = 1.787619 g / cm^3
# Si number density = 17.916967 Si / 1000 Ang^3
#
#
#
# Elastic Constant Matrix: (Units=GPa)
#
#
# Indices 1 2 3 4 5 6 
#
# 1 83.8367 31.0652 19.6205 0.0000 0.0000 0.0000
# 2 31.0652 48.2225 48.0501 0.0000 0.0000 0.0000
# 3 19.6205 48.0501 125.8029 0.0000 0.0000 0.0000
# 4 0.0000 0.0000 0.0000 27.4443 0.0000 0.0000
# 5 0.0000 0.0000 0.0000 0.0000 18.2670 0.0000
# 6 0.0000 0.0000 0.0000 0.0000 0.0000 15.3089
#
#
#
# Elastic Compliance Matrix: (Units=1/GPa)
#
#
# Indices 1 2 3 4 5 6 
#
# 1 0.016083 -0.012692 0.002339 0.000000 0.000000 0.000000
# 2 -0.012692 0.043494 -0.014633 0.000000 0.000000 0.000000
# 3 0.002339 -0.014633 0.013173 0.000000 0.000000 0.000000
# 4 0.000000 0.000000 0.000000 0.036438 0.000000 0.000000
# 5 0.000000 0.000000 0.000000 0.000000 0.054743 0.000000
# 6 0.000000 0.000000 0.000000 0.000000 0.000000 0.065321
#
#
# Mechanical properties :
#
#
# Convention : Reuss Voigt Hill
#
# Bulk Modulus (GPa) = 43.89946 50.59262 47.24604
# Shear Modulus (GPa) = 17.43268 22.81245 20.12256
#
# Velocity S-wave (km/s) = 3.12263 3.57211 3.35491
# Velocity P-wave (km/s) = 6.12829 6.73141 6.43692
#
# Compressibility (1/GPa) = 0.02277933
#
# Stress axis : x y z
#
# Youngs Moduli (GPa) = 62.17579 22.99159 75.91194
#
# Poissons Ratio (x) = 0.29181 -0.17758
# Poissons Ratio (y) = 0.78913 1.11082
# Poissons Ratio (z) = -0.14544 0.33644
#
# Static dielectric constant tensor:
#      x y z
#    x 1.609400 0.000000 0.000000 
#    y 0.000000 1.729450 0.000000 
#    z 0.000000 0.000000 1.670510 
# 
# From -- ./inp_files/11623.got.cif
#   From: 2010.05.17/outbox.cif.g08.bks.cpg/sg72_6_cif.got.tgz:11623.got - 2010.06.03 17:03:01.
