data_PCOD9527215
_publ_section_title
;
Structure prediction by ZEFSAII (Michael W. Deem and Ramdas Pophale) SiO2 
 PCOD9527215
Probable space group: I B A M
;
_chemical_formula_sum "Si O2"
_cell_formula_units_Z 96
_cell_length_a 14.603660
_cell_length_b 14.004345
_cell_length_c 23.418679
_cell_angle_alpha 90.000000
_cell_angle_beta 90.000000
_cell_angle_gamma 90.000000
_cell_volume 4789.463944
_symmetry_space_group_name_H-M "I B A M"
_symmetry_group_IT_number 72
_symmetry_cell_setting 'orthorhombic'
loop_
_space_group_symop_operation_xyz
x,y,z
-x,-y,z
x,-y,1/2-z
-x,y,1/2-z
-x,-y,-z
x,y,-z
-x,y,1/2+z
x,-y,1/2+z
1/2+x,1/2+y,1/2+z
1/2-x,1/2-y,1/2+z
1/2+x,1/2-y,-z
1/2-x,1/2+y,-z
1/2-x,1/2-y,1/2-z
1/2+x,1/2+y,1/2-z
1/2-x,1/2+y,z
1/2+x,1/2-y,z
loop_
_atom_site_type_symbol
_atom_site_label
_atom_site_fract_x
_atom_site_fract_y
_atom_site_fract_z
Si Si1 0.952674 0.897605 0.566045
Si Si2 0.364841 0.851725 0.134726
Si Si3 0.067118 0.704927 0.875821
Si Si4 0.753907 0.019072 0.935689
Si Si5 0.245545 0.803588 0.564870
Si Si6 0.609264 0.890178 0.241678
O O1 0.979116 0.870632 0.500000
O O2 0.966841 0.814223 0.612644
O O3 0.843638 0.915690 0.566356
O O4 0.000000 0.000000 0.578001
O O5 0.472594 0.853103 0.120153
O O6 0.318233 0.947802 0.111183
O O7 0.310567 0.767844 0.103704
O O8 0.353519 0.838130 0.202279
O O9 0.146143 0.692267 0.922490
O O10 0.116521 0.669338 0.817111
O O11 0.787363 0.911574 0.926939
O O12 0.714580 0.024610 0.000000
O O13 0.230138 0.774168 0.500000
O O14 0.500000 0.895766 0.250000
O O15 0.642837 0.000000 0.250000
#
# Coordination Sequence:
#
# PCOD9527215 Si02
#       6
#    16  16  16  16  16  16
#     4  10  20  37  60  88 126 171 212 252 313 384
#     4  11  22  39  62  86 123 161 206 263 318 369
#     4  11  22  38  63  90 121 163 216 259 315 379
#     4  10  21  37  57  86 125 163 203 257 311 375
#     4  11  23  38  59  91 126 160 207 258 314 385
#     4   9  20  39  62  89 122 163 211 260 315 379
#
# _framework density 20.043997000000001
#
# number of rings (size 3 to 8) (size 9 to 14) (size 15 to 20)
#    0.000    1.667    1.667    3.000    0.000    6.667 
#    0.000    1.667    0.000   10.500    0.000    0.000 
#    0.000    0.000    0.000    0.000    0.000    0.000 
#
# Total GULP energy -267622.708469 kJ/mol
# GULP energy per Si atom -5575.473093 kJ/mol
# Density = 1.999838 g / cm^3
# Si number density = 20.043997 Si / 1000 Ang^3
#
#
#
# Elastic Constant Matrix: (Units=GPa)
#
#
# Indices 1 2 3 4 5 6 
#
# 1 57.9686 2.8377 29.8772 0.0000 0.0000 0.0000
# 2 2.8377 88.2347 69.8716 0.0000 0.0000 0.0000
# 3 29.8772 69.8716 128.4545 0.0000 0.0000 0.0000
# 4 0.0000 0.0000 0.0000 26.4362 0.0000 0.0000
# 5 0.0000 0.0000 0.0000 0.0000 28.7753 0.0000
# 6 0.0000 0.0000 0.0000 0.0000 0.0000 35.0130
#
#
#
# Elastic Compliance Matrix: (Units=1/GPa)
#
#
# Indices 1 2 3 4 5 6 
#
# 1 0.021080 0.005630 -0.007965 0.000000 0.000000 0.000000
# 2 0.005630 0.021412 -0.012956 0.000000 0.000000 0.000000
# 3 -0.007965 -0.012956 0.016685 0.000000 0.000000 0.000000
# 4 0.000000 0.000000 0.000000 0.037827 0.000000 0.000000
# 5 0.000000 0.000000 0.000000 0.000000 0.034752 0.000000
# 6 0.000000 0.000000 0.000000 0.000000 0.000000 0.028561
#
#
# Mechanical properties :
#
#
# Convention : Reuss Voigt Hill
#
# Bulk Modulus (GPa) = 34.97283 53.31452 44.14367
# Shear Modulus (GPa) = 24.94602 29.51633 27.23117
#
# Velocity S-wave (km/s) = 3.53166 3.84158 3.68988
# Velocity P-wave (km/s) = 5.84090 6.80687 6.34230
#
# Compressibility (1/GPa) = 0.02859363
#
# Stress axis : x y z
#
# Youngs Moduli (GPa) = 47.43732 46.70209 59.93410
#
# Poissons Ratio (x) = -0.26291 0.47739
# Poissons Ratio (y) = -0.26705 0.77653
# Poissons Ratio (z) = 0.37785 0.60509
#
# Static dielectric constant tensor:
#      x y z
#    x 1.706950 0.000000 0.000000 
#    y 0.000000 1.779960 0.000000 
#    z 0.000000 0.000000 1.719590 
# 
# From -- ./inp_files/38013.got.cif
#   From: 2010.05.17/outbox.cif.g08.bks.cpg/sg72_20_cif.got.tgz:38013.got - 2010.06.03 17:03:01.
