data_PCOD9527557
_publ_section_title
;
Structure prediction by ZEFSAII (Michael W. Deem and Ramdas Pophale) SiO2 
 PCOD9527557
Probable space group: I B A M
;
_chemical_formula_sum "Si O2"
_cell_formula_units_Z 96
_cell_length_a 23.300174
_cell_length_b 8.641626
_cell_length_c 22.900235
_cell_angle_alpha 90.000000
_cell_angle_beta 90.000000
_cell_angle_gamma 90.000000
_cell_volume 4610.994136
_symmetry_space_group_name_H-M "I B A M"
_symmetry_group_IT_number 72
_symmetry_cell_setting 'orthorhombic'
loop_
_space_group_symop_operation_xyz
x,y,z
-x,-y,z
x,-y,1/2-z
-x,y,1/2-z
-x,-y,-z
x,y,-z
-x,y,1/2+z
x,-y,1/2+z
1/2+x,1/2+y,1/2+z
1/2-x,1/2-y,1/2+z
1/2+x,1/2-y,-z
1/2-x,1/2+y,-z
1/2-x,1/2-y,1/2-z
1/2+x,1/2+y,1/2-z
1/2-x,1/2+y,z
1/2+x,1/2-y,z
loop_
_atom_site_type_symbol
_atom_site_label
_atom_site_fract_x
_atom_site_fract_y
_atom_site_fract_z
Si Si1 0.064680 0.566869 0.000000
Si Si2 0.221195 0.330047 0.568613
Si Si3 0.335860 0.494132 0.568178
Si Si4 0.878038 0.515751 0.625688
Si Si5 0.477280 0.163626 0.183968
Si Si6 0.012481 0.821546 0.500000
Si Si7 0.428283 0.691259 0.879345
O O1 0.096092 0.534060 0.060284
O O2 0.000000 0.500000 0.000000
O O3 0.050276 0.747597 0.000000
O O4 0.210365 0.372868 0.500000
O O5 0.288764 0.357894 0.576252
O O6 0.187334 0.438387 0.613997
O O7 0.196526 0.157195 0.576304
O O8 0.354060 0.487237 0.500000
O O9 0.388175 0.457415 0.611784
O O10 0.910694 0.637827 0.668596
O O11 0.891604 0.338857 0.643553
O O12 0.500000 0.162139 0.250000
O O13 0.511962 0.304867 0.155763
O O14 0.500000 0.000000 0.156570
O O15 0.049008 0.775021 0.444160
O O16 0.000000 0.000000 0.500000
#
# Coordination Sequence:
#
# PCOD9527557 Si02
#       7
#     8  16  16  16  16   8  16
#     4  12  18  32  47  78 107 140 177 211 265 329
#     4  10  21  34  51  77 108 146 176 219 262 323
#     4  10  21  34  50  75 110 143 180 214 266 318
#     4  11  19  31  55  77 108 141 178 218 269 323
#     4   9  19  35  55  81 108 140 182 224 270 321
#     4  12  24  30  47  76 115 142 175 217 265 323
#     4  11  20  33  52  78 108 145 175 222 268 320
#
# _framework density 20.819804999999999
#
# number of rings (size 3 to 8) (size 9 to 14) (size 15 to 20)
#    0.000    1.500    5.000    1.500    2.333    1.333 
#    0.000    0.000    0.000    5.500    0.000    0.000 
#    0.000    0.000    0.000    0.000    0.000    0.000 
#
# Total GULP energy -267480.129375 kJ/mol
# GULP energy per Si atom -5572.502695 kJ/mol
# Density = 2.077242 g / cm^3
# Si number density = 20.819805 Si / 1000 Ang^3
#
#
#
# Elastic Constant Matrix: (Units=GPa)
#
#
# Indices 1 2 3 4 5 6 
#
# 1 55.4190 2.6922 5.2165 0.0000 0.0000 0.0000
# 2 2.6922 61.0583 -10.7327 0.0000 0.0000 0.0000
# 3 5.2165 -10.7327 52.6564 0.0000 0.0000 0.0000
# 4 0.0000 0.0000 0.0000 33.6002 0.0000 0.0000
# 5 0.0000 0.0000 0.0000 0.0000 8.5041 0.0000
# 6 0.0000 0.0000 0.0000 0.0000 0.0000 34.4139
#
#
#
# Elastic Compliance Matrix: (Units=1/GPa)
#
#
# Indices 1 2 3 4 5 6 
#
# 1 0.018294 -0.001167 -0.002050 0.000000 0.000000 0.000000
# 2 -0.001167 0.017061 0.003593 0.000000 0.000000 0.000000
# 3 -0.002050 0.003593 0.019927 0.000000 0.000000 0.000000
# 4 0.000000 0.000000 0.000000 0.029762 0.000000 0.000000
# 5 0.000000 0.000000 0.000000 0.000000 0.117590 0.000000
# 6 0.000000 0.000000 0.000000 0.000000 0.000000 0.029058
#
#
# Mechanical properties :
#
#
# Convention : Reuss Voigt Hill
#
# Bulk Modulus (GPa) = 17.84662 18.16508 18.00585
# Shear Modulus (GPa) = 20.03067 26.76749 23.39908
#
# Velocity S-wave (km/s) = 3.10513 3.58952 3.35608
# Velocity P-wave (km/s) = 4.63102 5.09150 4.86671
#
# Compressibility (1/GPa) = 0.05603301
#
# Stress axis : x y z
#
# Youngs Moduli (GPa) = 54.66264 58.61385 50.18441
#
# Poissons Ratio (x) = 0.06840 0.10289
# Poissons Ratio (y) = 0.06379 -0.18031
# Poissons Ratio (z) = 0.11207 -0.21060
#
# Static dielectric constant tensor:
#      x y z
#    x 1.825410 0.000000 0.000000 
#    y 0.000000 1.868160 0.000000 
#    z 0.000000 0.000000 1.723270 
# 
# From -- ./inp_files/45677.got.cif
#   From: 2010.05.17/outbox.cif.g08.bks.cpg/sg72_23_cif.got.tgz:45677.got - 2010.06.03 17:03:01.
