data_PCOD9527356
_publ_section_title
;
Structure prediction by ZEFSAII (Michael W. Deem and Ramdas Pophale) SiO2 
 PCOD9527356
Probable space group: I B A M
;
_chemical_formula_sum "Si O2"
_cell_formula_units_Z 112
_cell_length_a 14.677650
_cell_length_b 27.680004
_cell_length_c 13.862961
_cell_angle_alpha 90.000000
_cell_angle_beta 90.000000
_cell_angle_gamma 90.000000
_cell_volume 5632.207900
_symmetry_space_group_name_H-M "I B A M"
_symmetry_group_IT_number 72
_symmetry_cell_setting 'orthorhombic'
loop_
_space_group_symop_operation_xyz
x,y,z
-x,-y,z
x,-y,1/2-z
-x,y,1/2-z
-x,-y,-z
x,y,-z
-x,y,1/2+z
x,-y,1/2+z
1/2+x,1/2+y,1/2+z
1/2-x,1/2-y,1/2+z
1/2+x,1/2-y,-z
1/2-x,1/2+y,-z
1/2-x,1/2-y,1/2-z
1/2+x,1/2+y,1/2-z
1/2-x,1/2+y,z
1/2+x,1/2-y,z
loop_
_atom_site_type_symbol
_atom_site_label
_atom_site_fract_x
_atom_site_fract_y
_atom_site_fract_z
Si Si1 0.064211 0.196035 0.615236
Si Si2 0.331254 0.208013 0.884551
Si Si3 0.896553 0.901133 0.729966
Si Si4 0.900842 0.521637 0.611418
Si Si5 0.862483 0.172713 0.386694
Si Si6 0.731092 0.930011 0.613281
Si Si7 0.108142 0.615541 0.764256
O O1 0.073483 0.192362 0.500000
O O2 0.120721 0.242594 0.646150
O O3 0.095653 0.146302 0.662343
O O4 0.957012 0.198815 0.638684
O O5 0.223009 0.206924 0.868731
O O6 0.366689 0.162387 0.825383
O O7 0.347625 0.201620 0.000000
O O8 0.857567 0.877404 0.827944
O O9 0.824289 0.934192 0.674603
O O10 0.000000 0.919119 0.750000
O O11 0.908776 0.537431 0.500000
O O12 0.827469 0.479047 0.617572
O O13 0.873437 0.566707 0.675822
O O14 0.000000 0.500000 0.638568
O O15 0.864417 0.161368 0.500000
O O16 0.747489 0.918909 0.500000
O O17 0.667883 0.890020 0.666977
O O18 0.000000 0.616415 0.750000
#
# Coordination Sequence:
#
# PCOD9527356 Si02
#       7
#    16  16  16  16  16  16  16
#     4   9  19  36  58  84 120 162 203 251 306 366
#     4  10  21  38  58  86 121 157 205 259 305 364
#     4  10  20  38  64  88 117 160 207 255 314 370
#     4  10  21  39  63  90 125 165 203 250 309 373
#     4   9  18  35  56  82 113 153 202 247 301 365
#     4  11  23  39  61  95 129 161 207 257 310 372
#     4  12  23  37  61  90 126 164 209 250 308 373
#
# _framework density 19.885629999999999
#
# number of rings (size 3 to 8) (size 9 to 14) (size 15 to 20)
#    0.000    1.857    2.857    1.286    0.000    3.429 
#    2.571    0.000    0.000    1.714    0.000    5.000 
#    0.000    0.000    0.000    0.000    0.000    0.000 
#
# Total GULP energy -312774.414435 kJ/mol
# GULP energy per Si atom -5585.257401 kJ/mol
# Density = 1.984037 g / cm^3
# Si number density = 19.885630 Si / 1000 Ang^3
#
#
#
# Elastic Constant Matrix: (Units=GPa)
#
#
# Indices 1 2 3 4 5 6 
#
# 1 115.8081 29.3327 45.9309 0.0000 0.0000 0.0000
# 2 29.3327 40.1395 16.6474 0.0000 0.0000 0.0000
# 3 45.9309 16.6474 88.5569 0.0000 0.0000 0.0000
# 4 0.0000 0.0000 0.0000 25.4766 0.0000 0.0000
# 5 0.0000 0.0000 0.0000 0.0000 32.6167 0.0000
# 6 0.0000 0.0000 0.0000 0.0000 0.0000 21.8797
#
#
#
# Elastic Compliance Matrix: (Units=1/GPa)
#
#
# Indices 1 2 3 4 5 6 
#
# 1 0.012436 -0.006955 -0.005143 0.000000 0.000000 0.000000
# 2 -0.006955 0.030909 -0.002203 0.000000 0.000000 0.000000
# 3 -0.005143 -0.002203 0.014374 0.000000 0.000000 0.000000
# 4 0.000000 0.000000 0.000000 0.039252 0.000000 0.000000
# 5 0.000000 0.000000 0.000000 0.000000 0.030659 0.000000
# 6 0.000000 0.000000 0.000000 0.000000 0.000000 0.045704
#
#
# Mechanical properties :
#
#
# Convention : Reuss Voigt Hill
#
# Bulk Modulus (GPa) = 34.34388 47.59184 40.96786
# Shear Modulus (GPa) = 23.62475 26.16752 24.89613
#
# Velocity S-wave (km/s) = 3.45052 3.63147 3.54215
# Velocity P-wave (km/s) = 5.76047 6.44734 6.11356
#
# Compressibility (1/GPa) = 0.02911727
#
# Stress axis : x y z
#
# Youngs Moduli (GPa) = 80.40978 32.35259 69.57169
#
# Poissons Ratio (x) = 0.22502 0.35779
# Poissons Ratio (y) = 0.55926 0.15328
# Poissons Ratio (z) = 0.41353 0.07128
#
# Static dielectric constant tensor:
#      x y z
#    x 1.730660 0.000000 0.000000 
#    y 0.000000 1.657560 0.000000 
#    z 0.000000 0.000000 1.756280 
# 
# From -- ./inp_files/22319.got.cif
#   From: 2010.05.17/outbox.cif.g08.bks.cpg/sg72_12_cif.got.tgz:22319.got - 2010.06.03 17:03:01.
