data_PCOD9527220
_publ_section_title
;
Structure prediction by ZEFSAII (Michael W. Deem and Ramdas Pophale) SiO2 
 PCOD9527220
Probable space group: I B A M
;
_chemical_formula_sum "Si O2"
_cell_formula_units_Z 88
_cell_length_a 27.809859
_cell_length_b 5.060945
_cell_length_c 31.165655
_cell_angle_alpha 90.000000
_cell_angle_beta 90.000000
_cell_angle_gamma 90.000000
_cell_volume 4386.384148
_symmetry_space_group_name_H-M "I B A M"
_symmetry_group_IT_number 72
_symmetry_cell_setting 'orthorhombic'
loop_
_space_group_symop_operation_xyz
x,y,z
-x,-y,z
x,-y,1/2-z
-x,y,1/2-z
-x,-y,-z
x,y,-z
-x,y,1/2+z
x,-y,1/2+z
1/2+x,1/2+y,1/2+z
1/2-x,1/2-y,1/2+z
1/2+x,1/2-y,-z
1/2-x,1/2+y,-z
1/2-x,1/2-y,1/2-z
1/2+x,1/2+y,1/2-z
1/2-x,1/2+y,z
1/2+x,1/2-y,z
loop_
_atom_site_type_symbol
_atom_site_label
_atom_site_fract_x
_atom_site_fract_y
_atom_site_fract_z
Si Si1 0.000000 0.500000 0.656547
Si Si2 0.553652 0.392457 0.202691
Si Si3 0.965321 0.746643 0.500000
Si Si4 0.123387 0.898804 0.626344
Si Si5 0.783046 0.302025 0.593261
Si Si6 0.422344 0.122974 0.909144
Si Si7 0.717990 0.693881 0.500000
O O1 0.041528 0.590360 0.690122
O O2 0.031275 0.329412 0.621903
O O3 0.500000 0.500000 0.190833
O O4 0.562336 0.500000 0.250000
O O5 0.597944 0.447708 0.171815
O O6 0.934924 0.709947 0.456901
O O7 0.000000 0.500000 0.500000
O O8 0.000000 0.000000 0.500000
O O9 0.176178 0.776608 0.626781
O O10 0.091405 0.682085 0.600044
O O11 0.120745 0.184328 0.604511
O O12 0.760273 0.590525 0.596188
O O13 0.805975 0.259963 0.545429
O O14 0.735607 0.391341 0.500000
#
# Coordination Sequence:
#
# PCOD9527220 Si02
#       7
#     8  16   8  16  16  16   8
#     4  10  20  38  58  80 122 156 204 243 305 358
#     4  10  21  37  59  87 118 154 196 249 305 363
#     4  12  24  36  56  82 122 176 222 243 284 362
#     4  11  23  40  60  88 120 156 203 258 306 373
#     4  10  20  37  61  84 115 153 196 249 313 363
#     4  11  23  37  56  83 120 163 206 248 295 347
#     4   8  16  30  52  82 105 138 186 242 286 342
#
# _framework density 20.062083999999999
#
# number of rings (size 3 to 8) (size 9 to 14) (size 15 to 20)
#    0.000    1.636    2.727    2.182    2.545    2.909 
#    0.000    1.818    0.000    1.091    0.000    0.000 
#    0.000    0.000    0.000    0.000    0.000    0.000 
#
# Total GULP energy -244980.830218 kJ/mol
# GULP energy per Si atom -5567.746141 kJ/mol
# Density = 2.001642 g / cm^3
# Si number density = 20.062084 Si / 1000 Ang^3
#
#
#
# Elastic Constant Matrix: (Units=GPa)
#
#
# Indices 1 2 3 4 5 6 
#
# 1 55.8463 -3.9932 37.9722 0.0000 0.0000 0.0000
# 2 -3.9932 66.4990 13.8740 0.0000 0.0000 0.0000
# 3 37.9722 13.8740 137.5187 0.0000 0.0000 0.0000
# 4 0.0000 0.0000 0.0000 14.9400 0.0000 0.0000
# 5 0.0000 0.0000 0.0000 0.0000 20.9645 0.0000
# 6 0.0000 0.0000 0.0000 0.0000 0.0000 22.6216
#
#
#
# Elastic Compliance Matrix: (Units=1/GPa)
#
#
# Indices 1 2 3 4 5 6 
#
# 1 0.022512 0.002706 -0.006489 0.000000 0.000000 0.000000
# 2 0.002706 0.015686 -0.002330 0.000000 0.000000 0.000000
# 3 -0.006489 -0.002330 0.009299 0.000000 0.000000 0.000000
# 4 0.000000 0.000000 0.000000 0.066935 0.000000 0.000000
# 5 0.000000 0.000000 0.000000 0.000000 0.047700 0.000000
# 6 0.000000 0.000000 0.000000 0.000000 0.000000 0.044206
#
#
# Mechanical properties :
#
#
# Convention : Reuss Voigt Hill
#
# Bulk Modulus (GPa) = 28.35212 39.50779 33.92995
# Shear Modulus (GPa) = 21.70895 25.83927 23.77411
#
# Velocity S-wave (km/s) = 3.29308 3.59272 3.44616
# Velocity P-wave (km/s) = 5.34996 6.07829 5.72572
#
# Compressibility (1/GPa) = 0.03527074
#
# Stress axis : x y z
#
# Youngs Moduli (GPa) = 44.42084 63.74969 107.54353
#
# Poissons Ratio (x) = -0.17249 0.69786
# Poissons Ratio (y) = -0.12019 0.25054
# Poissons Ratio (z) = 0.28825 0.14852
#
# Static dielectric constant tensor:
#      x y z
#    x 1.725980 0.000000 0.000000 
#    y 0.000000 2.089390 0.000000 
#    z 0.000000 0.000000 1.708850 
# 
# From -- ./inp_files/49970.got.cif
#   From: 2010.05.17/outbox.cif.g08.bks.cpg/sg72_25_cif.got.tgz:49970.got - 2010.06.03 17:03:01.
