data_PCOD9527775
_publ_section_title
;
Structure prediction by ZEFSAII (Michael W. Deem and Ramdas Pophale) SiO2 
 PCOD9527775
Probable space group: I B A M
;
_chemical_formula_sum "Si O2"
_cell_formula_units_Z 112
_cell_length_a 14.644997
_cell_length_b 11.132273
_cell_length_c 31.856179
_cell_angle_alpha 90.000000
_cell_angle_beta 90.000000
_cell_angle_gamma 90.000000
_cell_volume 5193.579910
_symmetry_space_group_name_H-M "I B A M"
_symmetry_group_IT_number 72
_symmetry_cell_setting 'orthorhombic'
loop_
_space_group_symop_operation_xyz
x,y,z
-x,-y,z
x,-y,1/2-z
-x,y,1/2-z
-x,-y,-z
x,y,-z
-x,y,1/2+z
x,-y,1/2+z
1/2+x,1/2+y,1/2+z
1/2-x,1/2-y,1/2+z
1/2+x,1/2-y,-z
1/2-x,1/2+y,-z
1/2-x,1/2-y,1/2-z
1/2+x,1/2+y,1/2-z
1/2-x,1/2+y,z
1/2+x,1/2-y,z
loop_
_atom_site_type_symbol
_atom_site_label
_atom_site_fract_x
_atom_site_fract_y
_atom_site_fract_z
Si Si1 0.218974 0.203611 0.312305
Si Si2 0.129849 0.700316 0.453670
Si Si3 0.646337 0.061556 0.452980
Si Si4 0.771788 0.160669 0.610303
Si Si5 0.941501 0.825382 0.451990
Si Si6 0.902332 0.027737 0.865738
Si Si7 0.610923 0.143978 0.756878
O O1 0.217498 0.300039 0.349594
O O2 0.165764 0.092457 0.333403
O O3 0.323555 0.172228 0.297971
O O4 0.160716 0.266561 0.275800
O O5 0.171430 0.708695 0.500000
O O6 0.093220 0.564356 0.449166
O O7 0.205122 0.727884 0.419365
O O8 0.049789 0.797829 0.451515
O O9 0.685238 0.060569 0.500000
O O10 0.722364 0.061946 0.417651
O O11 0.598251 0.189983 0.448114
O O12 0.864166 0.103019 0.625224
O O13 0.918915 0.870143 0.500000
O O14 0.914588 0.902200 0.410792
O O15 0.000000 0.000000 0.846111
O O16 0.500000 0.163120 0.750000
O O17 0.623986 0.000000 0.750000
#
# Coordination Sequence:
#
# PCOD9527775 Si02
#       7
#    16  16  16  16  16  16  16
#     4  11  25  46  72 106 143 170 224 278 339 427
#     4  10  21  37  58  86 124 179 241 293 341 395
#     4  10  21  37  59  86 123 175 235 293 347 395
#     4  12  23  39  63  92 136 175 222 283 343 411
#     4  10  21  40  60  87 130 184 242 293 339 401
#     4  12  25  42  65 101 143 185 230 285 353 411
#     4  10  24  49  79 105 133 174 218 271 343 423
#
# _framework density 21.565086999999998
#
# number of rings (size 3 to 8) (size 9 to 14) (size 15 to 20)
#    0.000    1.286    2.857    2.571    2.000    3.143 
#    0.000    1.429    0.000    0.000    0.000    0.000 
#    0.000    0.000    0.000    0.000    0.000    0.000 
#
# Total GULP energy -311964.090389 kJ/mol
# GULP energy per Si atom -5570.787328 kJ/mol
# Density = 2.151600 g / cm^3
# Si number density = 21.565087 Si / 1000 Ang^3
#
#
#
# Elastic Constant Matrix: (Units=GPa)
#
#
# Indices 1 2 3 4 5 6 
#
# 1 91.4392 11.1022 28.3271 0.0000 0.0000 0.0000
# 2 11.1022 70.6394 20.1508 0.0000 0.0000 0.0000
# 3 28.3271 20.1508 87.2161 0.0000 0.0000 0.0000
# 4 0.0000 0.0000 0.0000 31.5948 0.0000 0.0000
# 5 0.0000 0.0000 0.0000 0.0000 11.9052 0.0000
# 6 0.0000 0.0000 0.0000 0.0000 0.0000 39.2205
#
#
#
# Elastic Compliance Matrix: (Units=1/GPa)
#
#
# Indices 1 2 3 4 5 6 
#
# 1 0.012206 -0.000843 -0.003770 0.000000 0.000000 0.000000
# 2 -0.000843 0.015213 -0.003241 0.000000 0.000000 0.000000
# 3 -0.003770 -0.003241 0.013439 0.000000 0.000000 0.000000
# 4 0.000000 0.000000 0.000000 0.031651 0.000000 0.000000
# 5 0.000000 0.000000 0.000000 0.000000 0.083997 0.000000
# 6 0.000000 0.000000 0.000000 0.000000 0.000000 0.025497
#
#
# Mechanical properties :
#
#
# Convention : Reuss Voigt Hill
#
# Bulk Modulus (GPa) = 39.75999 40.93944 40.34972
# Shear Modulus (GPa) = 24.26066 29.19176 26.72621
#
# Velocity S-wave (km/s) = 3.35774 3.68320 3.52423
# Velocity P-wave (km/s) = 5.78876 6.09207 5.94235
#
# Compressibility (1/GPa) = 0.02515091
#
# Stress axis : x y z
#
# Youngs Moduli (GPa) = 81.92404 65.73112 74.41024
#
# Poissons Ratio (x) = 0.05542 0.28051
# Poissons Ratio (y) = 0.06907 0.24118
# Poissons Ratio (z) = 0.30883 0.21305
#
# Static dielectric constant tensor:
#      x y z
#    x 1.896390 0.000000 0.000000 
#    y 0.000000 1.770470 0.000000 
#    z 0.000000 0.000000 1.831680 
# 
# From -- ./inp_files/51757.got.cif
#   From: 2010.05.17/outbox.cif.g08.bks.cpg/sg72_26_cif.got.tgz:51757.got - 2010.06.03 17:03:01.
