data_PCOD9527304
_publ_section_title
;
Structure prediction by ZEFSAII (Michael W. Deem and Ramdas Pophale) SiO2 
 PCOD9527304
Probable space group: I B A M
;
_chemical_formula_sum "Si O2"
_cell_formula_units_Z 56
_cell_length_a 10.053179
_cell_length_b 16.868263
_cell_length_c 16.175486
_cell_angle_alpha 90.000000
_cell_angle_beta 90.000000
_cell_angle_gamma 90.000000
_cell_volume 2743.033535
_symmetry_space_group_name_H-M "I B A M"
_symmetry_group_IT_number 72
_symmetry_cell_setting 'orthorhombic'
loop_
_space_group_symop_operation_xyz
x,y,z
-x,-y,z
x,-y,1/2-z
-x,y,1/2-z
-x,-y,-z
x,y,-z
-x,y,1/2+z
x,-y,1/2+z
1/2+x,1/2+y,1/2+z
1/2-x,1/2-y,1/2+z
1/2+x,1/2-y,-z
1/2-x,1/2+y,-z
1/2-x,1/2-y,1/2-z
1/2+x,1/2+y,1/2-z
1/2-x,1/2+y,z
1/2+x,1/2-y,z
loop_
_atom_site_type_symbol
_atom_site_label
_atom_site_fract_x
_atom_site_fract_y
_atom_site_fract_z
Si Si1 0.963697 0.407486 0.500000
Si Si2 0.500337 0.593222 0.500000
Si Si3 0.927983 0.827576 0.673453
Si Si4 0.762200 0.315494 0.000000
Si Si5 0.349297 0.800828 0.863257
O O1 0.887128 0.377358 0.418134
O O2 0.000000 0.500000 0.500000
O O3 0.093938 0.352104 0.500000
O O4 0.500000 0.500000 0.500000
O O5 0.439068 0.630341 0.416091
O O6 0.654359 0.616280 0.500000
O O7 0.772072 0.821743 0.697330
O O8 0.000000 0.870728 0.750000
O O9 0.017785 0.746544 0.663892
O O10 0.728016 0.260859 0.077521
#
# Coordination Sequence:
#
# PCOD9527304 Si02
#       5
#     8   8  16   8  16
#     4  11  21  33  63  95 128 168 212 262 331 382
#     4  10  23  38  60  86 124 161 204 260 325 380
#     4  11  22  39  64  91 118 164 213 265 309 378
#     4   9  18  35  58  87 119 165 208 256 311 382
#     4  10  20  38  59  87 126 160 212 262 314 375
#
# _framework density 20.415354000000001
#
# number of rings (size 3 to 8) (size 9 to 14) (size 15 to 20)
#    0.000    1.714    2.857    3.429    4.000    0.571 
#    0.000    0.000    0.000    0.857    0.000    0.000 
#    0.000    0.000    0.000    0.000    0.000    0.000 
#
# Total GULP energy -156050.271833 kJ/mol
# GULP energy per Si atom -5573.223994 kJ/mol
# Density = 2.036889 g / cm^3
# Si number density = 20.415354 Si / 1000 Ang^3
#
#
#
# Elastic Constant Matrix: (Units=GPa)
#
#
# Indices 1 2 3 4 5 6 
#
# 1 125.8534 40.0500 7.4261 0.0000 0.0000 0.0000
# 2 40.0500 112.0033 43.2063 0.0000 0.0000 0.0000
# 3 7.4261 43.2063 86.8221 0.0000 0.0000 0.0000
# 4 0.0000 0.0000 0.0000 4.7566 0.0000 0.0000
# 5 0.0000 0.0000 0.0000 0.0000 33.4201 0.0000
# 6 0.0000 0.0000 0.0000 0.0000 0.0000 13.2215
#
#
#
# Elastic Compliance Matrix: (Units=1/GPa)
#
#
# Indices 1 2 3 4 5 6 
#
# 1 0.009040 -0.003632 0.001034 0.000000 0.000000 0.000000
# 2 -0.003632 0.012508 -0.005914 0.000000 0.000000 0.000000
# 3 0.001034 -0.005914 0.014372 0.000000 0.000000 0.000000
# 4 0.000000 0.000000 0.000000 0.210234 0.000000 0.000000
# 5 0.000000 0.000000 0.000000 0.000000 0.029922 0.000000
# 6 0.000000 0.000000 0.000000 0.000000 0.000000 0.075634
#
#
# Mechanical properties :
#
#
# Convention : Reuss Voigt Hill
#
# Bulk Modulus (GPa) = 52.91589 56.22707 54.57148
# Shear Modulus (GPa) = 13.33214 25.87942 19.60578
#
# Velocity S-wave (km/s) = 2.55825 3.56426 3.10230
# Velocity P-wave (km/s) = 5.89085 6.67383 6.29452
#
# Compressibility (1/GPa) = 0.01889791
#
# Stress axis : x y z
#
# Youngs Moduli (GPa) = 110.61473 79.94732 69.57765
#
# Poissons Ratio (x) = 0.29033 -0.07194
# Poissons Ratio (y) = 0.40170 0.41148
# Poissons Ratio (z) = -0.11437 0.47281
#
# Static dielectric constant tensor:
#      x y z
#    x 1.913860 0.000000 0.000000 
#    y 0.000000 1.722590 0.000000 
#    z 0.000000 0.000000 1.803390 
# 
# From -- ./inp_files/19458.got.cif
#   From: 2010.05.17/outbox.cif.g08.bks.cpg/sg72_10_cif.got.tgz:19458.got - 2010.06.03 17:03:01.
