data_PCOD9527896
_publ_section_title
;
Structure prediction by ZEFSAII (Michael W. Deem and Ramdas Pophale) SiO2 
 PCOD9527896
Probable space group: I B A M
;
_chemical_formula_sum "Si O2"
_cell_formula_units_Z 104
_cell_length_a 22.018891
_cell_length_b 8.012863
_cell_length_c 27.756655
_cell_angle_alpha 90.000000
_cell_angle_beta 90.000000
_cell_angle_gamma 90.000000
_cell_volume 4897.227577
_symmetry_space_group_name_H-M "I B A M"
_symmetry_group_IT_number 72
_symmetry_cell_setting 'orthorhombic'
loop_
_space_group_symop_operation_xyz
x,y,z
-x,-y,z
x,-y,1/2-z
-x,y,1/2-z
-x,-y,-z
x,y,-z
-x,y,1/2+z
x,-y,1/2+z
1/2+x,1/2+y,1/2+z
1/2-x,1/2-y,1/2+z
1/2+x,1/2-y,-z
1/2-x,1/2+y,-z
1/2-x,1/2-y,1/2-z
1/2+x,1/2+y,1/2-z
1/2-x,1/2+y,z
1/2+x,1/2-y,z
loop_
_atom_site_type_symbol
_atom_site_label
_atom_site_fract_x
_atom_site_fract_y
_atom_site_fract_z
Si Si1 0.682252 0.695619 0.761702
Si Si2 0.735146 0.518759 0.056308
Si Si3 0.037161 0.639292 0.846577
Si Si4 0.598076 0.000000 0.750000
Si Si5 0.849590 0.308363 0.443883
Si Si6 0.854237 0.168836 0.869522
Si Si7 0.552490 0.382158 0.882070
O O1 0.670846 0.500000 0.750000
O O2 0.750000 0.750000 0.750000
O O3 0.675634 0.712863 0.819064
O O4 0.638569 0.835786 0.737828
O O5 0.805874 0.537081 0.071390
O O6 0.700113 0.342806 0.059725
O O7 0.693764 0.635830 0.089456
O O8 0.732907 0.567204 0.000000
O O9 0.060361 0.563662 0.796190
O O10 0.094075 0.695091 0.877727
O O11 0.000000 0.500000 0.873770
O O12 0.988468 0.788590 0.842215
O O13 0.866391 0.328487 0.500000
O O14 0.908513 0.247080 0.414434
O O15 0.895265 0.002540 0.862003
O O16 0.500000 0.500000 0.907087
#
# Coordination Sequence:
#
# PCOD9527896 Si02
#       7
#    16  16  16   8  16  16  16
#     4  11  23  40  62  92 132 164 208 256 319 398
#     4   9  18  35  58  88 122 155 202 254 317 392
#     4  10  21  38  60  82 116 155 210 255 302 370
#     4  10  23  44  60  90 124 164 211 264 326 370
#     4   9  18  33  56  88 121 157 201 255 316 382
#     4   9  21  39  59  87 121 164 200 257 325 372
#     4   9  19  37  57  83 118 161 212 255 308 378
#
# _framework density 21.236505000000001
#
# number of rings (size 3 to 8) (size 9 to 14) (size 15 to 20)
#    0.000    2.462    0.769    0.231    2.154    4.000 
#    0.000    2.308    0.000    0.923    0.000    0.000 
#    0.000    0.000    0.000    0.000    0.000    0.000 
#
# Total GULP energy -289586.749745 kJ/mol
# GULP energy per Si atom -5568.975957 kJ/mol
# Density = 2.118817 g / cm^3
# Si number density = 21.236505 Si / 1000 Ang^3
#
#
#
# Elastic Constant Matrix: (Units=GPa)
#
#
# Indices 1 2 3 4 5 6 
#
# 1 148.0993 51.8189 49.7631 0.0000 0.0000 0.0000
# 2 51.8189 93.8339 21.0083 0.0000 0.0000 0.0000
# 3 49.7631 21.0083 42.0305 0.0000 0.0000 0.0000
# 4 0.0000 0.0000 0.0000 16.6518 0.0000 0.0000
# 5 0.0000 0.0000 0.0000 0.0000 21.6675 0.0000
# 6 0.0000 0.0000 0.0000 0.0000 0.0000 48.3326
#
#
#
# Elastic Compliance Matrix: (Units=1/GPa)
#
#
# Indices 1 2 3 4 5 6 
#
# 1 0.012427 -0.004018 -0.012705 0.000000 0.000000 0.000000
# 2 -0.004018 0.013299 -0.001890 0.000000 0.000000 0.000000
# 3 -0.012705 -0.001890 0.039779 0.000000 0.000000 0.000000
# 4 0.000000 0.000000 0.000000 0.060054 0.000000 0.000000
# 5 0.000000 0.000000 0.000000 0.000000 0.046152 0.000000
# 6 0.000000 0.000000 0.000000 0.000000 0.000000 0.020690
#
#
# Mechanical properties :
#
#
# Convention : Reuss Voigt Hill
#
# Bulk Modulus (GPa) = 35.36136 58.79380 47.07758
# Shear Modulus (GPa) = 20.91570 28.08861 24.50216
#
# Velocity S-wave (km/s) = 3.14171 3.64078 3.40041
# Velocity P-wave (km/s) = 5.46331 6.73937 6.13461
#
# Compressibility (1/GPa) = 0.02827946
#
# Stress axis : x y z
#
# Youngs Moduli (GPa) = 80.46812 75.19174 25.13859
#
# Poissons Ratio (x) = 0.30214 0.31939
# Poissons Ratio (y) = 0.32335 0.04751
# Poissons Ratio (z) = 1.02236 0.14210
#
# Static dielectric constant tensor:
#      x y z
#    x 1.788270 0.000000 0.000000 
#    y 0.000000 2.047420 0.000000 
#    z 0.000000 0.000000 1.722740 
# 
# From -- ./inp_files/52242.got.cif
#   From: 2010.05.17/outbox.cif.g08.bks.cpg/sg72_27_cif.got.tgz:52242.got - 2010.06.03 17:03:01.
