data_PCOD9527373
_publ_section_title
;
Structure prediction by ZEFSAII (Michael W. Deem and Ramdas Pophale) SiO2 
 PCOD9527373
Probable space group: I B A M
;
_chemical_formula_sum "Si O2"
_cell_formula_units_Z 112
_cell_length_a 13.780202
_cell_length_b 23.403695
_cell_length_c 14.755185
_cell_angle_alpha 90.000000
_cell_angle_beta 90.000000
_cell_angle_gamma 90.000000
_cell_volume 4758.659961
_symmetry_space_group_name_H-M "I B A M"
_symmetry_group_IT_number 72
_symmetry_cell_setting 'orthorhombic'
loop_
_space_group_symop_operation_xyz
x,y,z
-x,-y,z
x,-y,1/2-z
-x,y,1/2-z
-x,-y,-z
x,y,-z
-x,y,1/2+z
x,-y,1/2+z
1/2+x,1/2+y,1/2+z
1/2-x,1/2-y,1/2+z
1/2+x,1/2-y,-z
1/2-x,1/2+y,-z
1/2-x,1/2-y,1/2-z
1/2+x,1/2+y,1/2-z
1/2-x,1/2+y,z
1/2+x,1/2-y,z
loop_
_atom_site_type_symbol
_atom_site_label
_atom_site_fract_x
_atom_site_fract_y
_atom_site_fract_z
Si Si1 0.124289 0.829775 0.396574
Si Si2 0.698859 0.569574 0.895450
Si Si3 0.383077 0.765821 0.242831
Si Si4 0.042575 0.559171 0.148880
Si Si5 0.614550 0.861332 0.599595
Si Si6 0.766921 0.946256 0.109574
Si Si7 0.108681 0.814769 0.104036
O O1 0.155396 0.817431 0.500000
O O2 0.155375 0.783975 0.322840
O O3 0.165257 0.892089 0.372815
O O4 0.007254 0.824113 0.394996
O O5 0.812847 0.584954 0.897112
O O6 0.688370 0.506341 0.857555
O O7 0.650278 0.626125 0.855104
O O8 0.663092 0.567579 0.000000
O O9 0.500000 0.766783 0.250000
O O10 0.361213 0.822936 0.186680
O O11 0.359028 0.741554 0.342047
O O12 0.158315 0.560665 0.147443
O O13 0.000000 0.500000 0.108638
O O14 0.000000 0.561108 0.250000
O O15 0.994096 0.614446 0.103775
O O16 0.628324 0.833172 0.500000
O O17 0.756203 0.950943 0.000000
O O18 0.140648 0.809995 0.000000
#
# Coordination Sequence:
#
# PCOD9527373 Si02
#       7
#    16  16  16  16  16  16  16
#     4   9  19  37  61  90 127 168 212 266 319 375
#     4   9  19  35  59  94 127 162 210 259 322 391
#     4  10  21  39  61  87 122 166 218 267 320 386
#     4  11  23  39  59  91 131 169 209 260 315 383
#     4  11  22  38  62  89 124 169 213 263 322 383
#     4  10  20  38  65  95 127 167 216 263 317 386
#     4   9  19  38  62  90 127 169 212 268 330 386
#
# _framework density 23.536038000000001
#
# number of rings (size 3 to 8) (size 9 to 14) (size 15 to 20)
#    0.000    2.143    1.429    1.286    0.000    3.429 
#    0.000    5.714    0.000   15.429    0.000    0.000 
#    0.000    1.143    0.000    0.000    0.000    0.000 
#
# Total GULP energy -312695.193229 kJ/mol
# GULP energy per Si atom -5583.842736 kJ/mol
# Density = 2.348247 g / cm^3
# Si number density = 23.536038 Si / 1000 Ang^3
#
#
#
# Elastic Constant Matrix: (Units=GPa)
#
#
# Indices 1 2 3 4 5 6 
#
# 1 56.4653 14.7345 19.5095 0.0000 0.0000 0.0000
# 2 14.7345 116.7499 47.9651 0.0001 0.0000 0.0000
# 3 19.5095 47.9651 108.2144 0.0002 0.0000 0.0000
# 4 0.0000 0.0001 0.0002 26.7584 0.0000 0.0000
# 5 0.0000 0.0000 0.0000 0.0000 16.2757 0.0000
# 6 0.0000 0.0000 0.0000 0.0000 0.0000 37.1532
#
#
#
# Elastic Compliance Matrix: (Units=1/GPa)
#
#
# Indices 1 2 3 4 5 6 
#
# 1 0.019026 -0.001213 -0.002893 0.000000 0.000000 0.000000
# 2 -0.001213 0.010550 -0.004457 0.000000 0.000000 0.000000
# 3 -0.002893 -0.004457 0.011738 0.000000 0.000000 0.000000
# 4 0.000000 0.000000 0.000000 0.037371 0.000000 0.000000
# 5 0.000000 0.000000 0.000000 0.000000 0.061441 0.000000
# 6 0.000000 0.000000 0.000000 0.000000 0.000000 0.026916
#
#
# Mechanical properties :
#
#
# Convention : Reuss Voigt Hill
#
# Bulk Modulus (GPa) = 41.34257 49.53867 45.44062
# Shear Modulus (GPa) = 26.01048 29.31880 27.66464
#
# Velocity S-wave (km/s) = 3.32796 3.53327 3.43215
# Velocity P-wave (km/s) = 5.68954 6.14321 5.92072
#
# Compressibility (1/GPa) = 0.02418814
#
# Stress axis : x y z
#
# Youngs Moduli (GPa) = 52.56000 94.78994 85.19272
#
# Poissons Ratio (x) = 0.11496 0.24642
# Poissons Ratio (y) = 0.06375 0.37974
# Poissons Ratio (z) = 0.15203 0.42252
#
# Static dielectric constant tensor:
#      x y z
#    x 1.874930 0.000000 0.000000 
#    y 0.000000 1.917890 0.000000 
#    z 0.000000 0.000000 1.961480 
# 
# From -- ./inp_files/22092.got.cif
#   From: 2010.05.17/outbox.cif.g08.bks.cpg/sg72_12_cif.got.tgz:22092.got - 2010.06.03 17:03:01.
