data_PCOD9527833
_publ_section_title
;
Structure prediction by ZEFSAII (Michael W. Deem and Ramdas Pophale) SiO2 
 PCOD9527833
Probable space group: I B A M
;
_chemical_formula_sum "Si O2"
_cell_formula_units_Z 88
_cell_length_a 14.549426
_cell_length_b 20.339976
_cell_length_c 15.009977
_cell_angle_alpha 90.000000
_cell_angle_beta 90.000000
_cell_angle_gamma 90.000000
_cell_volume 4441.977178
_symmetry_space_group_name_H-M "I B A M"
_symmetry_group_IT_number 72
_symmetry_cell_setting 'orthorhombic'
loop_
_space_group_symop_operation_xyz
x,y,z
-x,-y,z
x,-y,1/2-z
-x,y,1/2-z
-x,-y,-z
x,y,-z
-x,y,1/2+z
x,-y,1/2+z
1/2+x,1/2+y,1/2+z
1/2-x,1/2-y,1/2+z
1/2+x,1/2-y,-z
1/2-x,1/2+y,-z
1/2-x,1/2-y,1/2-z
1/2+x,1/2+y,1/2-z
1/2-x,1/2+y,z
1/2+x,1/2-y,z
loop_
_atom_site_type_symbol
_atom_site_label
_atom_site_fract_x
_atom_site_fract_y
_atom_site_fract_z
Si Si1 0.090376 0.032256 0.601696
Si Si2 0.570803 0.659575 0.000000
Si Si3 0.615587 0.872437 0.851635
Si Si4 0.100609 0.632745 0.356594
Si Si5 0.392460 0.753128 0.000000
Si Si6 0.810002 0.279628 0.000000
Si Si7 0.204659 0.494447 0.852048
O O1 0.098951 0.004497 0.500000
O O2 0.073530 0.109601 0.583862
O O3 0.186507 0.016231 0.646187
O O4 0.000000 0.000000 0.642562
O O5 0.482465 0.707013 0.000000
O O6 0.661769 0.703466 0.000000
O O7 0.507001 0.885625 0.859554
O O8 0.630849 0.857657 0.746608
O O9 0.671771 0.935453 0.887530
O O10 0.644598 0.812238 0.913379
O O11 0.109958 0.698167 0.414956
O O12 0.158119 0.570457 0.391933
O O13 0.298972 0.711724 0.000000
O O14 0.171296 0.500000 0.750000
#
# Coordination Sequence:
#
# PCOD9527833 Si02
#       7
#    16   8  16  16   8   8  16
#     4   9  21  38  63  82 118 155 204 252 302 350
#     4  10  21  41  56  90 116 163 205 247 301 366
#     4  10  22  38  63  90 128 152 206 251 317 365
#     4  10  21  42  60  91 123 162 197 262 304 373
#     4  12  24  38  65  83 127 168 213 244 310 362
#     4  12  24  37  63  89 123 165 202 252 300 380
#     4  10  21  37  62  91 119 156 199 258 314 359
#
# _framework density 19.810997
#
# number of rings (size 3 to 8) (size 9 to 14) (size 15 to 20)
#    0.545    1.273    1.818    1.636    5.091    3.273 
#    0.000    1.818    4.000    0.000    0.000    0.000 
#    0.000    0.000    0.000    0.000    0.000    0.000 
#
# Total GULP energy -245375.334947 kJ/mol
# GULP energy per Si atom -5576.712158 kJ/mol
# Density = 1.976591 g / cm^3
# Si number density = 19.810997 Si / 1000 Ang^3
#
#
#
# Elastic Constant Matrix: (Units=GPa)
#
#
# Indices 1 2 3 4 5 6 
#
# 1 90.5803 29.8025 15.6880 0.0000 0.0000 0.0000
# 2 29.8025 91.0424 29.2549 0.0000 0.0000 0.0000
# 3 15.6880 29.2549 77.7855 0.0001 0.0000 0.0000
# 4 0.0000 0.0000 0.0001 4.5200 0.0000 0.0000
# 5 0.0000 0.0000 0.0000 0.0000 21.1825 0.0000
# 6 0.0000 0.0000 0.0000 0.0000 0.0000 27.9841
#
#
#
# Elastic Compliance Matrix: (Units=1/GPa)
#
#
# Indices 1 2 3 4 5 6 
#
# 1 0.012457 -0.003720 -0.001113 0.000000 0.000000 0.000000
# 2 -0.003720 0.013605 -0.004366 0.000000 0.000000 0.000000
# 3 -0.001113 -0.004366 0.014723 0.000000 0.000000 0.000000
# 4 0.000000 0.000000 0.000000 0.221239 0.000000 0.000000
# 5 0.000000 0.000000 0.000000 0.000000 0.047209 0.000000
# 6 0.000000 0.000000 0.000000 0.000000 0.000000 0.035735
#
#
# Mechanical properties :
#
#
# Convention : Reuss Voigt Hill
#
# Bulk Modulus (GPa) = 44.67332 45.43322 45.05327
# Shear Modulus (GPa) = 13.48337 23.04819 18.26578
#
# Velocity S-wave (km/s) = 2.61166 3.41457 3.03974
# Velocity P-wave (km/s) = 5.62966 6.20716 5.92545
#
# Compressibility (1/GPa) = 0.02238472
#
# Stress axis : x y z
#
# Youngs Moduli (GPa) = 80.27837 73.50412 67.92277
#
# Poissons Ratio (x) = 0.27343 0.07561
# Poissons Ratio (y) = 0.29863 0.29658
# Poissons Ratio (z) = 0.08937 0.32095
#
# Static dielectric constant tensor:
#      x y z
#    x 1.677350 0.000000 0.000000 
#    y 0.000000 1.707460 0.000000 
#    z 0.000000 0.000000 1.720780 
# 
# From -- ./inp_files/21737.got.cif
#   From: 2010.05.17/outbox.cif.g08.bks.cpg/sg72_11_cif.got.tgz:21737.got - 2010.06.03 17:03:01.
