data_PCOD9527159
_publ_section_title
;
Structure prediction by ZEFSAII (Michael W. Deem and Ramdas Pophale) SiO2 
 PCOD9527159
Probable space group: I B A M
;
_chemical_formula_sum "Si O2"
_cell_formula_units_Z 88
_cell_length_a 8.838434
_cell_length_b 31.077521
_cell_length_c 18.146938
_cell_angle_alpha 90.000000
_cell_angle_beta 90.000000
_cell_angle_gamma 90.000000
_cell_volume 4984.539561
_symmetry_space_group_name_H-M "I B A M"
_symmetry_group_IT_number 72
_symmetry_cell_setting 'orthorhombic'
loop_
_space_group_symop_operation_xyz
x,y,z
-x,-y,z
x,-y,1/2-z
-x,y,1/2-z
-x,-y,-z
x,y,-z
-x,y,1/2+z
x,-y,1/2+z
1/2+x,1/2+y,1/2+z
1/2-x,1/2-y,1/2+z
1/2+x,1/2-y,-z
1/2-x,1/2+y,-z
1/2-x,1/2-y,1/2-z
1/2+x,1/2+y,1/2-z
1/2-x,1/2+y,z
1/2+x,1/2-y,z
loop_
_atom_site_type_symbol
_atom_site_label
_atom_site_fract_x
_atom_site_fract_y
_atom_site_fract_z
Si Si1 0.349950 0.468305 0.822440
Si Si2 0.610733 0.121837 0.586488
Si Si3 0.500000 0.260274 0.250000
Si Si4 0.837629 0.043083 0.587420
Si Si5 0.859128 0.387712 0.697950
Si Si6 0.728996 0.810530 0.801805
O O1 0.350695 0.500000 0.750000
O O2 0.510209 0.454505 0.861535
O O3 0.271999 0.497258 0.885758
O O4 0.263263 0.425080 0.802779
O O5 0.605076 0.127613 0.500000
O O6 0.717118 0.080434 0.602298
O O7 0.442811 0.117891 0.620177
O O8 0.689791 0.161463 0.627564
O O9 0.388366 0.228655 0.206121
O O10 0.394716 0.290510 0.299449
O O11 0.873898 0.043144 0.500000
O O12 0.796396 0.343352 0.732802
O O13 0.000000 0.400499 0.750000
#
# Coordination Sequence:
#
# PCOD9527159 Si02
#       6
#    16  16   8  16  16  16
#     4  11  21  33  55  81 109 144 193 243 272 312
#     4  10  21  38  57  80 119 154 183 230 279 332
#     4  10  20  36  68  80 112 140 178 230 292 332
#     4  10  22  37  52  77 114 153 189 225 275 334
#     4  10  21  37  54  83 115 141 188 232 275 334
#     4  10  20  38  59  89 108 143 185 228 278 347
#
# _framework density 17.654589000000001
#
# number of rings (size 3 to 8) (size 9 to 14) (size 15 to 20)
#    0.000    1.818    2.727    4.364    2.545    4.000 
#    0.000    2.727    0.000    0.000    0.000    0.000 
#    0.000    0.000    0.000    0.000    0.000    0.000 
#
# Total GULP energy -245049.853898 kJ/mol
# GULP energy per Si atom -5569.314861 kJ/mol
# Density = 1.761441 g / cm^3
# Si number density = 17.654589 Si / 1000 Ang^3
#
#
#
# Elastic Constant Matrix: (Units=GPa)
#
#
# Indices 1 2 3 4 5 6 
#
# 1 63.1341 48.9878 33.2657 0.0000 0.0000 0.0000
# 2 48.9878 103.5023 50.6947 0.0000 0.0000 0.0000
# 3 33.2657 50.6947 91.3877 0.0000 0.0000 0.0000
# 4 0.0000 0.0000 0.0000 18.4368 0.0000 0.0000
# 5 0.0000 0.0000 0.0000 0.0000 8.8759 0.0000
# 6 0.0000 0.0000 0.0000 0.0000 0.0000 17.0965
#
#
#
# Elastic Compliance Matrix: (Units=1/GPa)
#
#
# Indices 1 2 3 4 5 6 
#
# 1 0.025869 -0.010479 -0.003604 0.000000 0.000000 0.000000
# 2 -0.010479 0.017511 -0.005899 0.000000 0.000000 0.000000
# 3 -0.003604 -0.005899 0.015527 0.000000 0.000000 0.000000
# 4 0.000000 0.000000 0.000000 0.054239 0.000000 0.000000
# 5 0.000000 0.000000 0.000000 0.000000 0.112664 0.000000
# 6 0.000000 0.000000 0.000000 0.000000 0.000000 0.058492
#
#
# Mechanical properties :
#
#
# Convention : Reuss Voigt Hill
#
# Bulk Modulus (GPa) = 52.79028 58.21339 55.50183
# Shear Modulus (GPa) = 15.12500 17.22024 16.17262
#
# Velocity S-wave (km/s) = 2.93015 3.12652 3.02993
# Velocity P-wave (km/s) = 6.43540 6.78812 6.61411
#
# Compressibility (1/GPa) = 0.01894288
#
# Stress axis : x y z
#
# Youngs Moduli (GPa) = 38.65651 57.10829 64.40588
#
# Poissons Ratio (x) = 0.59842 0.23210
# Poissons Ratio (y) = 0.40507 0.37994
# Poissons Ratio (z) = 0.13930 0.33689
#
# Static dielectric constant tensor:
#      x y z
#    x 1.635780 0.000000 0.000000 
#    y 0.000000 1.614120 0.000000 
#    z 0.000000 0.000000 1.631940 
# 
# From -- ./inp_files/28356.got.cif
#   From: 2010.05.17/outbox.cif.g08.bks.cpg/sg72_15_cif.got.tgz:28356.got - 2010.06.03 17:03:01.
