data_PCOD9527605
_publ_section_title
;
Structure prediction by ZEFSAII (Michael W. Deem and Ramdas Pophale) SiO2 
 PCOD9527605
Probable space group: I B A M
;
_chemical_formula_sum "Si O2"
_cell_formula_units_Z 96
_cell_length_a 22.693436
_cell_length_b 9.662088
_cell_length_c 22.690705
_cell_angle_alpha 90.000000
_cell_angle_beta 90.000000
_cell_angle_gamma 90.000000
_cell_volume 4975.299570
_symmetry_space_group_name_H-M "I B A M"
_symmetry_group_IT_number 72
_symmetry_cell_setting 'orthorhombic'
loop_
_space_group_symop_operation_xyz
x,y,z
-x,-y,z
x,-y,1/2-z
-x,y,1/2-z
-x,-y,-z
x,y,-z
-x,y,1/2+z
x,-y,1/2+z
1/2+x,1/2+y,1/2+z
1/2-x,1/2-y,1/2+z
1/2+x,1/2-y,-z
1/2-x,1/2+y,-z
1/2-x,1/2-y,1/2-z
1/2+x,1/2+y,1/2-z
1/2-x,1/2+y,z
1/2+x,1/2-y,z
loop_
_atom_site_type_symbol
_atom_site_label
_atom_site_fract_x
_atom_site_fract_y
_atom_site_fract_z
Si Si1 0.318622 0.337399 0.090954
Si Si2 0.006499 0.662692 0.320816
Si Si3 0.303091 0.654589 0.269574
Si Si4 0.380901 0.319367 0.662989
Si Si5 0.943186 0.086290 0.887150
Si Si6 0.716974 0.360690 0.064856
O O1 0.315810 0.333598 0.161896
O O2 0.387128 0.362529 0.074127
O O3 0.283269 0.473686 0.070765
O O4 0.281562 0.205601 0.070320
O O5 0.070958 0.702630 0.344497
O O6 0.000000 0.500000 0.333249
O O7 0.000000 0.681669 0.250000
O O8 0.965276 0.777618 0.352480
O O9 0.287139 0.500000 0.250000
O O10 0.250000 0.750000 0.250000
O O11 0.358231 0.691844 0.229218
O O12 0.413289 0.466848 0.653474
O O13 0.326671 0.311534 0.617178
O O14 0.000000 0.000000 0.912715
O O15 0.693040 0.324722 0.000000
#
# Coordination Sequence:
#
# PCOD9527605 Si02
#       6
#    16  16  16  16  16  16
#     4  11  21  38  59  88 121 157 205 248 311 368
#     4  10  21  35  53  88 121 151 191 240 303 364
#     4  12  20  36  55  89 123 152 190 245 307 371
#     4  10  21  37  59  84 117 156 200 241 303 368
#     4   9  19  35  59  80 113 159 199 243 294 362
#     4  11  23  39  59  84 118 159 205 252 299 362
#
# _framework density 19.295318999999999
#
# number of rings (size 3 to 8) (size 9 to 14) (size 15 to 20)
#    0.000    1.500    5.000    1.500    0.000    3.667 
#    6.000    0.000    0.000   42.000    0.000    0.000 
#    0.000    0.000    0.000    0.000    0.000    0.000 
#
# Total GULP energy -267528.927199 kJ/mol
# GULP energy per Si atom -5573.519317 kJ/mol
# Density = 1.925140 g / cm^3
# Si number density = 19.295319 Si / 1000 Ang^3
#
#
#
# Elastic Constant Matrix: (Units=GPa)
#
#
# Indices 1 2 3 4 5 6 
#
# 1 115.6680 62.2370 13.9810 0.0000 0.0000 0.0000
# 2 62.2370 108.1112 10.5551 0.0000 0.0000 0.0000
# 3 13.9810 10.5551 89.7618 0.0000 0.0000 0.0000
# 4 0.0000 0.0000 0.0000 -1.2534 0.0000 0.0000
# 5 0.0000 0.0000 0.0000 0.0000 5.6297 0.0000
# 6 0.0000 0.0000 0.0000 0.0000 0.0000 32.5242
#
#
#
# Elastic Compliance Matrix: (Units=1/GPa)
#
#
# Indices 1 2 3 4 5 6 
#
# 1 0.012637 -0.007165 -0.001126 0.000000 0.000000 0.000000
# 2 -0.007165 0.013419 -0.000462 0.000000 0.000000 0.000000
# 3 -0.001126 -0.000462 0.011370 0.000000 0.000000 0.000000
# 4 0.000000 0.000000 0.000000 -0.797808 0.000000 0.000000
# 5 0.000000 0.000000 0.000000 0.000000 0.177629 0.000000
# 6 0.000000 0.000000 0.000000 0.000000 0.000000 0.030746
#
#
# Mechanical properties :
#
#
# Convention : Reuss Voigt Hill
#
# Bulk Modulus (GPa) = 50.19745 54.12079 52.15912
# Shear Modulus (GPa) = -9.47220 22.49795 6.51288
#
# Velocity S-wave (km/s) = -2.21804 3.41835 1.83921
# Velocity P-wave (km/s) = 4.41726 6.60982 5.62147
#
# Compressibility (1/GPa) = 0.01992133
#
# Stress axis : x y z
#
# Youngs Moduli (GPa) = 79.13546 74.51920 87.94866
#
# Poissons Ratio (x) = 0.53390 0.09901
# Poissons Ratio (y) = 0.56698 0.04064
# Poissons Ratio (z) = 0.08909 0.03443
#
# Static dielectric constant tensor:
#      x y z
#    x 1.711280 0.000000 0.000000 
#    y 0.000000 1.782770 0.000000 
#    z 0.000000 0.000000 1.757440 
# 
# From -- ./inp_files/49633.got.cif
#   From: 2010.05.17/outbox.cif.g08.bks.cpg/sg72_25_cif.got.tgz:49633.got - 2010.06.03 17:03:01.
