data_PCOD9527538
_publ_section_title
;
Structure prediction by ZEFSAII (Michael W. Deem and Ramdas Pophale) SiO2 
 PCOD9527538
Probable space group: I B A M
;
_chemical_formula_sum "Si O2"
_cell_formula_units_Z 64
_cell_length_a 19.422366
_cell_length_b 13.775253
_cell_length_c 10.931988
_cell_angle_alpha 90.000000
_cell_angle_beta 90.000000
_cell_angle_gamma 90.000000
_cell_volume 2924.831586
_symmetry_space_group_name_H-M "I B A M"
_symmetry_group_IT_number 72
_symmetry_cell_setting 'orthorhombic'
loop_
_space_group_symop_operation_xyz
x,y,z
-x,-y,z
x,-y,1/2-z
-x,y,1/2-z
-x,-y,-z
x,y,-z
-x,y,1/2+z
x,-y,1/2+z
1/2+x,1/2+y,1/2+z
1/2-x,1/2-y,1/2+z
1/2+x,1/2-y,-z
1/2-x,1/2+y,-z
1/2-x,1/2-y,1/2-z
1/2+x,1/2+y,1/2-z
1/2-x,1/2+y,z
1/2+x,1/2-y,z
loop_
_atom_site_type_symbol
_atom_site_label
_atom_site_fract_x
_atom_site_fract_y
_atom_site_fract_z
Si Si1 0.971606 0.391812 0.000000
Si Si2 0.680525 0.169336 0.500000
Si Si3 0.672341 0.708202 0.500000
Si Si4 0.847105 0.212781 0.755595
Si Si5 0.000000 0.728065 0.750000
Si Si6 0.346857 0.500000 0.750000
Si Si7 0.921805 0.031133 0.500000
O O1 0.995493 0.336047 0.875335
O O2 0.000000 0.500000 0.000000
O O3 0.887708 0.396318 0.000000
O O4 0.760223 0.138083 0.500000
O O5 0.672862 0.233607 0.378104
O O6 0.672244 0.764750 0.372338
O O7 0.603008 0.643323 0.500000
O O8 0.930458 0.208713 0.753688
O O9 0.813209 0.106200 0.746762
O O10 0.389582 0.492367 0.875047
O O11 0.000000 0.000000 0.500000
#
# Coordination Sequence:
#
# PCOD9527538 Si02
#       7
#     8   8   8  16   8   8   8
#     4  10  21  40  65  84 114 148 203 262 310 343
#     4  10  21  40  61  87 118 159 200 250 299 358
#     4  10  21  36  59  83 122 161 195 234 300 354
#     4  10  21  35  60  87 123 154 199 239 293 363
#     4  10  21  35  60  94 112 148 202 251 303 354
#     4  10  21  34  54  88 118 160 189 236 295 342
#     4  10  21  32  53  82 117 154 201 236 280 347
#
# _framework density 21.881602000000001
#
# number of rings (size 3 to 8) (size 9 to 14) (size 15 to 20)
#    0.000    2.000    0.000    3.000    7.000    0.000 
#    0.000    0.000   66.000    0.000    0.000    0.000 
#    0.000    0.000    0.000    0.000    0.000    0.000 
#
# Total GULP energy -178263.746675 kJ/mol
# GULP energy per Si atom -5570.742084 kJ/mol
# Density = 2.183180 g / cm^3
# Si number density = 21.881602 Si / 1000 Ang^3
#
#
#
# Elastic Constant Matrix: (Units=GPa)
#
#
# Indices 1 2 3 4 5 6 
#
# 1 88.4070 12.7082 7.4036 0.0000 0.0000 0.0000
# 2 12.7082 74.8194 35.2153 0.0000 0.0000 0.0000
# 3 7.4036 35.2153 225.2154 0.0000 0.0000 0.0000
# 4 0.0000 0.0000 0.0000 25.0493 0.0000 0.0000
# 5 0.0000 0.0000 0.0000 0.0000 43.8180 0.0000
# 6 0.0000 0.0000 0.0000 0.0000 0.0000 17.3791
#
#
#
# Elastic Compliance Matrix: (Units=1/GPa)
#
#
# Indices 1 2 3 4 5 6 
#
# 1 0.011596 -0.001932 -0.000079 0.000000 0.000000 0.000000
# 2 -0.001932 0.014749 -0.002243 0.000000 0.000000 0.000000
# 3 -0.000079 -0.002243 0.004793 0.000000 0.000000 0.000000
# 4 0.000000 0.000000 0.000000 0.039921 0.000000 0.000000
# 5 0.000000 0.000000 0.000000 0.000000 0.022822 0.000000
# 6 0.000000 0.000000 0.000000 0.000000 0.000000 0.057540
#
#
# Mechanical properties :
#
#
# Convention : Reuss Voigt Hill
#
# Bulk Modulus (GPa) = 44.18858 55.45509 49.82183
# Shear Modulus (GPa) = 29.85551 39.45694 34.65623
#
# Velocity S-wave (km/s) = 3.69780 4.25102 3.98402
# Velocity P-wave (km/s) = 6.20241 7.03514 6.63186
#
# Compressibility (1/GPa) = 0.02263028
#
# Stress axis : x y z
#
# Youngs Moduli (GPa) = 86.23879 67.79976 208.61707
#
# Poissons Ratio (x) = 0.13101 0.01649
# Poissons Ratio (y) = 0.16664 0.46787
# Poissons Ratio (z) = 0.00682 0.15206
#
# Static dielectric constant tensor:
#      x y z
#    x 1.860270 0.000000 0.000000 
#    y 0.000000 1.810520 0.000000 
#    z 0.000000 0.000000 1.832240 
# 
# From -- ./inp_files/12435.got.cif
#   From: 2010.05.17/outbox.cif.g08.bks.cpg/sg72_7_cif.got.tgz:12435.got - 2010.06.03 17:03:01.
