data_PCOD9527507
_publ_section_title
;
Structure prediction by ZEFSAII (Michael W. Deem and Ramdas Pophale) SiO2 
 PCOD9527507
Probable space group: I B A M
;
_chemical_formula_sum "Si O2"
_cell_formula_units_Z 88
_cell_length_a 26.129063
_cell_length_b 7.379437
_cell_length_c 21.228976
_cell_angle_alpha 90.000000
_cell_angle_beta 90.000000
_cell_angle_gamma 90.000000
_cell_volume 4093.323903
_symmetry_space_group_name_H-M "I B A M"
_symmetry_group_IT_number 72
_symmetry_cell_setting 'orthorhombic'
loop_
_space_group_symop_operation_xyz
x,y,z
-x,-y,z
x,-y,1/2-z
-x,y,1/2-z
-x,-y,-z
x,y,-z
-x,y,1/2+z
x,-y,1/2+z
1/2+x,1/2+y,1/2+z
1/2-x,1/2-y,1/2+z
1/2+x,1/2-y,-z
1/2-x,1/2+y,-z
1/2-x,1/2-y,1/2-z
1/2+x,1/2+y,1/2-z
1/2-x,1/2+y,z
1/2+x,1/2-y,z
loop_
_atom_site_type_symbol
_atom_site_label
_atom_site_fract_x
_atom_site_fract_y
_atom_site_fract_z
Si Si1 0.377416 0.500000 0.250000
Si Si2 0.843589 0.615400 0.000000
Si Si3 0.500000 0.000000 0.398071
Si Si4 0.067018 0.333943 0.500000
Si Si5 0.304265 0.464206 0.861204
Si Si6 0.083436 0.631202 0.695249
Si Si7 0.310479 0.107253 0.635148
Si Si8 0.157909 0.054888 0.500000
O O1 0.342108 0.407451 0.195277
O O2 0.409018 0.663311 0.218741
O O3 0.814833 0.550236 0.937487
O O4 0.897616 0.514575 0.000000
O O5 0.847974 0.834835 0.000000
O O6 0.530830 0.144362 0.440070
O O7 0.457929 0.109520 0.358973
O O8 0.104303 0.162177 0.500000
O O9 0.313444 0.677108 0.865389
O O10 0.245506 0.440757 0.840971
O O11 0.314846 0.394449 0.932817
O O12 0.065335 0.500000 0.750000
O O13 0.138661 0.553071 0.672174
#
# Coordination Sequence:
#
# PCOD9527507 Si02
#       8
#     8   8   8   8  16  16  16   8
#     4  10  26  44  69 100 144 183 224 284 342 414
#     4  10  20  42  63  93 134 170 217 284 337 400
#     4  11  25  48  70 108 119 177 246 286 358 403
#     4  11  24  44  77  92 134 172 222 298 351 401
#     4  10  23  39  64 104 134 181 229 264 345 419
#     4  11  25  45  68  94 137 178 226 285 337 408
#     4  10  22  37  65  95 137 174 221 279 329 412
#     4  10  24  42  66  99 138 179 225 274 349 418
#
# _framework density 21.498419999999999
#
# number of rings (size 3 to 8) (size 9 to 14) (size 15 to 20)
#    0.000    1.636    1.818    0.818    8.909    1.455 
#    0.000    5.455    0.000    0.000    0.000    0.000 
#    0.000    0.000    0.000    0.000    0.000    0.000 
#
# Total GULP energy -245659.943280 kJ/mol
# GULP energy per Si atom -5583.180529 kJ/mol
# Density = 2.144949 g / cm^3
# Si number density = 21.498420 Si / 1000 Ang^3
#
#
#
# Elastic Constant Matrix: (Units=GPa)
#
#
# Indices 1 2 3 4 5 6 
#
# 1 122.0827 38.4248 52.6047 0.0000 0.0000 0.0000
# 2 38.4248 59.8014 24.5340 0.0000 0.0000 0.0000
# 3 52.6047 24.5340 101.0077 0.0000 0.0000 0.0000
# 4 0.0000 0.0000 0.0000 -39.3386 0.0000 0.0000
# 5 0.0000 0.0000 0.0000 0.0000 -105.5532 0.0000
# 6 0.0000 0.0000 0.0000 0.0000 0.0000 25.5219
#
#
#
# Elastic Compliance Matrix: (Units=1/GPa)
#
#
# Indices 1 2 3 4 5 6 
#
# 1 0.012126 -0.005776 -0.004912 0.000000 0.000000 0.000000
# 2 -0.005776 0.021324 -0.002171 0.000000 0.000000 0.000000
# 3 -0.004912 -0.002171 0.012986 0.000000 0.000000 0.000000
# 4 0.000000 0.000000 0.000000 -0.025420 0.000000 0.000000
# 5 0.000000 0.000000 0.000000 0.000000 -0.009474 0.000000
# 6 0.000000 0.000000 0.000000 0.000000 0.000000 0.039182
#
#
# Mechanical properties :
#
#
# Convention : Reuss Voigt Hill
#
# Bulk Modulus (GPa) = 48.27000 57.11320 52.69160
# Shear Modulus (GPa) = 59.98933 -12.71876 23.63529
#
# Velocity S-wave (km/s) = 5.28816 -2.43495 3.31931
# Velocity P-wave (km/s) = 7.73225 4.32650 6.26524
#
# Compressibility (1/GPa) = 0.02071680
#
# Stress axis : x y z
#
# Youngs Moduli (GPa) = 82.46917 46.89515 77.00686
#
# Poissons Ratio (x) = 0.27087 0.37827
# Poissons Ratio (y) = 0.47634 0.16721
# Poissons Ratio (z) = 0.40510 0.10182
#
# Static dielectric constant tensor:
#      x y z
#    x 1.850000 0.000000 0.000000 
#    y 0.000000 1.761610 0.000000 
#    z 0.000000 0.000000 1.832930 
# 
# From -- ./inp_files/35931.got.cif
#   From: 2010.05.17/outbox.cif.g08.bks.cpg/sg72_18_cif.got.tgz:35931.got - 2010.06.03 17:03:01.
