data_PCOD9527992
_publ_section_title
;
Structure prediction by ZEFSAII (Michael W. Deem and Ramdas Pophale) SiO2 
 PCOD9527992
Probable space group: I B A M
;
_chemical_formula_sum "Si O2"
_cell_formula_units_Z 108
_cell_length_a 22.199850
_cell_length_b 15.692466
_cell_length_c 14.979984
_cell_angle_alpha 90.000000
_cell_angle_beta 90.000000
_cell_angle_gamma 90.000000
_cell_volume 5218.582888
_symmetry_space_group_name_H-M "I B A M"
_symmetry_group_IT_number 72
_symmetry_cell_setting 'orthorhombic'
loop_
_space_group_symop_operation_xyz
x,y,z
-x,-y,z
x,-y,1/2-z
-x,y,1/2-z
-x,-y,-z
x,y,-z
-x,y,1/2+z
x,-y,1/2+z
1/2+x,1/2+y,1/2+z
1/2-x,1/2-y,1/2+z
1/2+x,1/2-y,-z
1/2-x,1/2+y,-z
1/2-x,1/2-y,1/2-z
1/2+x,1/2+y,1/2-z
1/2-x,1/2+y,z
1/2+x,1/2-y,z
loop_
_atom_site_type_symbol
_atom_site_label
_atom_site_fract_x
_atom_site_fract_y
_atom_site_fract_z
Si Si1 0.000000 0.352740 0.750000
Si Si2 0.787343 0.903808 0.603197
Si Si3 0.437039 0.951107 0.098321
Si Si4 0.060568 0.765575 0.896962
Si Si5 0.500000 0.500000 0.000000
Si Si6 0.184398 0.531857 0.849929
Si Si7 0.701985 0.779736 0.101973
Si Si8 0.081996 0.043923 0.342892
O O1 0.052223 0.402062 0.807008
O O2 0.028702 0.297227 0.671202
O O3 0.805762 0.889761 0.500000
O O4 0.732609 0.968756 0.605918
O O5 0.770550 0.808914 0.638497
O O6 0.845894 0.942911 0.649944
O O7 0.380986 0.015635 0.106721
O O8 0.500000 0.000000 0.092482
O O9 0.429649 0.906226 0.000000
O O10 0.130708 0.740679 0.898894
O O11 0.055863 0.861244 0.859759
O O12 0.038524 0.763362 0.000000
O O13 0.552310 0.491135 0.922272
O O14 0.179722 0.500000 0.750000
O O15 0.207290 0.628723 0.852772
O O16 0.723401 0.791728 0.000000
O O17 0.068226 0.000000 0.250000
#
# Coordination Sequence:
#
# PCOD9527992 Si02
#       8
#     8  16  16  16   4  16  16  16
#     4  12  23  36  59  88 126 158 208 276 323 376
#     4  10  21  42  63  89 128 164 215 271 315 377
#     4  11  23  40  61  90 127 165 209 265 320 381
#     4  10  21  39  60  86 123 167 211 255 321 392
#     4  12  22  40  68  90 128 164 214 272 316 390
#     4  12  23  37  65  96 123 170 219 262 323 387
#     4   9  19  38  62  84 113 165 211 253 313 393
#     4  11  23  40  65  94 123 167 217 265 319 385
#
# _framework density 20.695274000000001
#
# number of rings (size 3 to 8) (size 9 to 14) (size 15 to 20)
#    0.000    1.333    1.481    6.222    2.074    2.963 
#    0.000    1.481    0.000    1.778    0.000    0.000 
#    0.000    0.000    0.000    0.000    0.000    0.000 
#
# Total GULP energy -300703.544380 kJ/mol
# GULP energy per Si atom -5568.584155 kJ/mol
# Density = 2.064817 g / cm^3
# Si number density = 20.695274 Si / 1000 Ang^3
#
#
#
# Elastic Constant Matrix: (Units=GPa)
#
#
# Indices 1 2 3 4 5 6 
#
# 1 67.2737 40.8477 11.5016 0.0000 0.0000 0.0000
# 2 40.8477 116.9788 58.7391 0.0000 0.0000 0.0000
# 3 11.5016 58.7391 163.4194 0.0000 0.0000 0.0000
# 4 0.0000 0.0000 0.0000 38.4832 0.0000 0.0000
# 5 0.0000 0.0000 0.0000 0.0000 19.0875 0.0000
# 6 0.0000 0.0000 0.0000 0.0000 0.0000 23.2853
#
#
#
# Elastic Compliance Matrix: (Units=1/GPa)
#
#
# Indices 1 2 3 4 5 6 
#
# 1 0.019082 -0.007308 0.001284 0.000000 0.000000 0.000000
# 2 -0.007308 0.013230 -0.004241 0.000000 0.000000 0.000000
# 3 0.001284 -0.004241 0.007553 0.000000 0.000000 0.000000
# 4 0.000000 0.000000 0.000000 0.025985 0.000000 0.000000
# 5 0.000000 0.000000 0.000000 0.000000 0.052390 0.000000
# 6 0.000000 0.000000 0.000000 0.000000 0.000000 0.042946
#
#
# Mechanical properties :
#
#
# Convention : Reuss Voigt Hill
#
# Bulk Modulus (GPa) = 51.71922 63.31651 57.51787
# Shear Modulus (GPa) = 26.57277 31.94343 29.25810
#
# Velocity S-wave (km/s) = 3.58718 3.93302 3.76408
# Velocity P-wave (km/s) = 6.49633 7.16142 6.83697
#
# Compressibility (1/GPa) = 0.01933517
#
# Stress axis : x y z
#
# Youngs Moduli (GPa) = 52.40404 75.58586 132.39329
#
# Poissons Ratio (x) = 0.55238 -0.16996
# Poissons Ratio (y) = 0.38297 0.56148
# Poissons Ratio (z) = -0.06727 0.32056
#
# Static dielectric constant tensor:
#      x y z
#    x 1.766620 0.000000 0.000000 
#    y 0.000000 1.817890 0.000000 
#    z 0.000000 0.000000 1.713340 
# 
# From -- ./inp_files/25252.got.cif
#   From: 2010.05.17/outbox.cif.g08.bks.cpg/sg72_13_cif.got.tgz:25252.got - 2010.06.03 17:03:01.
