data_PCOD9527367
_publ_section_title
;
Structure prediction by ZEFSAII (Michael W. Deem and Ramdas Pophale) SiO2 
 PCOD9527367
Probable space group: I B A M
;
_chemical_formula_sum "Si O2"
_cell_formula_units_Z 96
_cell_length_a 12.184358
_cell_length_b 19.982610
_cell_length_c 19.307686
_cell_angle_alpha 90.000000
_cell_angle_beta 90.000000
_cell_angle_gamma 90.000000
_cell_volume 4700.944139
_symmetry_space_group_name_H-M "I B A M"
_symmetry_group_IT_number 72
_symmetry_cell_setting 'orthorhombic'
loop_
_space_group_symop_operation_xyz
x,y,z
-x,-y,z
x,-y,1/2-z
-x,y,1/2-z
-x,-y,-z
x,y,-z
-x,y,1/2+z
x,-y,1/2+z
1/2+x,1/2+y,1/2+z
1/2-x,1/2-y,1/2+z
1/2+x,1/2-y,-z
1/2-x,1/2+y,-z
1/2-x,1/2-y,1/2-z
1/2+x,1/2+y,1/2-z
1/2-x,1/2+y,z
1/2+x,1/2-y,z
loop_
_atom_site_type_symbol
_atom_site_label
_atom_site_fract_x
_atom_site_fract_y
_atom_site_fract_z
Si Si1 0.905052 0.836832 0.303906
Si Si2 0.872680 0.521037 0.922611
Si Si3 0.487133 0.579136 0.083693
Si Si4 0.654452 0.873745 0.304083
Si Si5 0.250908 0.879872 0.577706
Si Si6 0.932134 0.318774 0.832008
O O1 0.777164 0.849153 0.289141
O O2 0.917839 0.757071 0.308614
O O3 0.000000 0.860323 0.250000
O O4 0.926316 0.875941 0.375623
O O5 0.841203 0.562822 0.854706
O O6 0.802266 0.453840 0.923308
O O7 0.000000 0.500000 0.917143
O O8 0.858109 0.553175 0.000000
O O9 0.500000 0.500000 0.100205
O O10 0.369857 0.609276 0.108317
O O11 0.495512 0.584254 0.000000
O O12 0.561913 0.829228 0.344442
O O13 0.603766 0.872849 0.226794
O O14 0.231938 0.856190 0.500000
O O15 0.343442 0.832988 0.609563
#
# Coordination Sequence:
#
# PCOD9527367 Si02
#       6
#    16  16  16  16  16  16
#     4  12  25  42  68  90 129 169 216 262 316 385
#     4  10  20  38  64  96 128 162 207 261 317 374
#     4  10  23  44  68  95 127 167 213 265 323 385
#     4  11  23  40  63  92 124 169 209 266 314 375
#     4  10  21  40  65  92 131 167 207 266 324 382
#     4  11  24  40  62  93 128 169 212 260 324 379
#
# _framework density 20.421430000000001
#
# number of rings (size 3 to 8) (size 9 to 14) (size 15 to 20)
#    0.000    1.333    3.333    2.500    2.333    3.667 
#    0.000    3.333    0.000    0.000    0.000    0.000 
#    0.000    0.000    0.000    0.000    0.000    0.000 
#
# Total GULP energy -267334.613823 kJ/mol
# GULP energy per Si atom -5569.471121 kJ/mol
# Density = 2.037495 g / cm^3
# Si number density = 20.421430 Si / 1000 Ang^3
#
#
#
# Elastic Constant Matrix: (Units=GPa)
#
#
# Indices 1 2 3 4 5 6 
#
# 1 149.7750 6.9992 13.5163 0.0000 0.0000 0.0000
# 2 6.9992 38.7864 28.5688 0.0000 0.0000 0.0000
# 3 13.5163 28.5688 56.1992 0.0000 0.0000 0.0000
# 4 0.0000 0.0000 0.0000 261.2108 0.0000 0.0000
# 5 0.0000 0.0000 0.0000 0.0000 51.7460 0.0000
# 6 0.0000 0.0000 0.0000 0.0000 0.0000 3.0986
#
#
#
# Elastic Compliance Matrix: (Units=1/GPa)
#
#
# Indices 1 2 3 4 5 6 
#
# 1 0.006825 -0.000036 -0.001623 0.000000 0.000000 0.000000
# 2 -0.000036 0.041214 -0.020943 0.000000 0.000000 0.000000
# 3 -0.001623 -0.020943 0.028830 0.000000 0.000000 0.000000
# 4 0.000000 0.000000 0.000000 0.003828 0.000000 0.000000
# 5 0.000000 0.000000 0.000000 0.000000 0.019325 0.000000
# 6 0.000000 0.000000 0.000000 0.000000 0.000000 0.322730
#
#
# Mechanical properties :
#
#
# Convention : Reuss Voigt Hill
#
# Bulk Modulus (GPa) = 31.57956 38.10324 34.84140
# Shear Modulus (GPa) = 10.44907 76.25616 43.35261
#
# Velocity S-wave (km/s) = 2.26447 6.11738 4.61249
# Velocity P-wave (km/s) = 4.72595 8.28223 6.74277
#
# Compressibility (1/GPa) = 0.03166605
#
# Stress axis : x y z
#
# Youngs Moduli (GPa) = 146.52352 24.26345 34.68569
#
# Poissons Ratio (x) = 0.00088 0.05630
# Poissons Ratio (y) = 0.00529 0.72641
# Poissons Ratio (z) = 0.23782 0.50814
#
# Static dielectric constant tensor:
#      x y z
#    x 1.129580 0.000000 0.000000 
#    y 0.000000 1.692340 0.000000 
#    z 0.000000 0.000000 1.786220 
# 
# From -- ./inp_files/37125.got.cif
#   From: 2010.05.17/outbox.cif.g08.bks.cpg/sg72_19_cif.got.tgz:37125.got - 2010.06.03 17:03:01.
