data_PCOD9527917
_publ_section_title
;
Structure prediction by ZEFSAII (Michael W. Deem and Ramdas Pophale) SiO2 
 PCOD9527917
Probable space group: I B A M
;
_chemical_formula_sum "Si O2"
_cell_formula_units_Z 88
_cell_length_a 18.043623
_cell_length_b 27.877434
_cell_length_c 9.289234
_cell_angle_alpha 90.000000
_cell_angle_beta 90.000000
_cell_angle_gamma 90.000000
_cell_volume 4672.576752
_symmetry_space_group_name_H-M "I B A M"
_symmetry_group_IT_number 72
_symmetry_cell_setting 'orthorhombic'
loop_
_space_group_symop_operation_xyz
x,y,z
-x,-y,z
x,-y,1/2-z
-x,y,1/2-z
-x,-y,-z
x,y,-z
-x,y,1/2+z
x,-y,1/2+z
1/2+x,1/2+y,1/2+z
1/2-x,1/2-y,1/2+z
1/2+x,1/2-y,-z
1/2-x,1/2+y,-z
1/2-x,1/2-y,1/2-z
1/2+x,1/2+y,1/2-z
1/2-x,1/2+y,z
1/2+x,1/2-y,z
loop_
_atom_site_type_symbol
_atom_site_label
_atom_site_fract_x
_atom_site_fract_y
_atom_site_fract_z
Si Si1 0.287969 0.094776 0.830013
Si Si2 0.068923 0.933976 0.160536
Si Si3 0.856369 0.149259 0.330153
Si Si4 0.420097 0.843068 0.324186
Si Si5 0.170697 0.257725 0.172742
Si Si6 0.800038 0.000000 0.250000
O O1 0.226565 0.133574 0.781091
O O2 0.368971 0.111009 0.779777
O O3 0.254151 0.042153 0.804251
O O4 0.291995 0.100412 0.000000
O O5 0.092256 0.884852 0.237566
O O6 0.000000 0.952607 0.250000
O O7 0.140025 0.969344 0.158409
O O8 0.043972 0.925150 0.000000
O O9 0.862914 0.136956 0.500000
O O10 0.867950 0.205569 0.315058
O O11 0.500000 0.845709 0.250000
O O12 0.425764 0.839661 0.500000
O O13 0.376056 0.797595 0.257765
O O14 0.250000 0.250000 0.250000
O O15 0.178495 0.268118 0.000000
#
# Coordination Sequence:
#
# PCOD9527917 Si02
#       6
#    16  16  16  16  16   8
#     4   9  18  37  60  83 115 151 192 243 299 352
#     4  11  23  37  57  86 120 158 198 244 296 354
#     4   9  19  37  59  84 118 158 197 240 290 342
#     4  11  23  41  62  89 122 161 199 248 305 358
#     4  11  21  37  62  93 124 162 203 247 294 353
#     4  10  21  38  61  88 112 148 200 250 303 356
#
# _framework density 18.833290999999999
#
# number of rings (size 3 to 8) (size 9 to 14) (size 15 to 20)
#    0.000    1.818    1.818    2.455    0.000    5.091 
#    0.000    3.182    0.000    2.182    0.000    0.000 
#    0.000    0.000    0.000    0.000    0.000    0.000 
#
# Total GULP energy -245040.876236 kJ/mol
# GULP energy per Si atom -5569.110824 kJ/mol
# Density = 1.879043 g / cm^3
# Si number density = 18.833291 Si / 1000 Ang^3
#
#
#
# Elastic Constant Matrix: (Units=GPa)
#
#
# Indices 1 2 3 4 5 6 
#
# 1 148.8199 54.5901 55.5536 0.0000 0.0000 0.0000
# 2 54.5901 91.6666 36.1977 0.0000 0.0000 0.0000
# 3 55.5536 36.1977 105.5941 0.0002 0.0000 0.0001
# 4 0.0000 0.0000 0.0002 -47.5236 0.0000 0.0001
# 5 0.0000 0.0000 0.0000 0.0000 29.8843 0.0000
# 6 0.0000 0.0000 0.0001 0.0001 0.0000 14.7369
#
#
#
# Elastic Compliance Matrix: (Units=1/GPa)
#
#
# Indices 1 2 3 4 5 6 
#
# 1 0.009648 -0.004327 -0.003592 0.000000 0.000000 0.000000
# 2 -0.004327 0.014558 -0.002714 0.000000 0.000000 0.000000
# 3 -0.003592 -0.002714 0.012291 0.000000 0.000000 0.000000
# 4 0.000000 0.000000 0.000000 -0.021042 0.000000 0.000000
# 5 0.000000 0.000000 0.000000 0.000000 0.033462 0.000000
# 6 0.000000 0.000000 0.000000 0.000000 0.000000 0.067857
#
#
# Mechanical properties :
#
#
# Convention : Reuss Voigt Hill
#
# Bulk Modulus (GPa) = 65.66288 70.97369 68.31828
# Shear Modulus (GPa) = 34.93672 12.73548 23.83610
#
# Velocity S-wave (km/s) = 4.31170 2.60325 3.56144
# Velocity P-wave (km/s) = 7.72844 6.84126 7.29834
#
# Compressibility (1/GPa) = 0.01522930
#
# Stress axis : x y z
#
# Youngs Moduli (GPa) = 103.65073 68.69267 81.36306
#
# Poissons Ratio (x) = 0.29723 0.29230
# Poissons Ratio (y) = 0.44849 0.22081
# Poissons Ratio (z) = 0.37236 0.18643
#
# Static dielectric constant tensor:
#      x y z
#    x 1.561630 0.000000 0.000000 
#    y 0.000000 1.695060 0.000000 
#    z 0.000000 0.000000 1.644380 
# 
# From -- ./inp_files/5136.got.cif
#   From: 2010.05.17/outbox.cif.g08.bks.cpg/sg72_3_cif.got.tgz:5136.got - 2010.06.03 17:03:01.
