data_PCOD9527660
_publ_section_title
;
Structure prediction by ZEFSAII (Michael W. Deem and Ramdas Pophale) SiO2 
 PCOD9527660
Probable space group: I B A M
;
_chemical_formula_sum "Si O2"
_cell_formula_units_Z 96
_cell_length_a 27.504952
_cell_length_b 20.909251
_cell_length_c 8.473331
_cell_angle_alpha 90.000000
_cell_angle_beta 90.000000
_cell_angle_gamma 90.000000
_cell_volume 4873.079980
_symmetry_space_group_name_H-M "I B A M"
_symmetry_group_IT_number 72
_symmetry_cell_setting 'orthorhombic'
loop_
_space_group_symop_operation_xyz
x,y,z
-x,-y,z
x,-y,1/2-z
-x,y,1/2-z
-x,-y,-z
x,y,-z
-x,y,1/2+z
x,-y,1/2+z
1/2+x,1/2+y,1/2+z
1/2-x,1/2-y,1/2+z
1/2+x,1/2-y,-z
1/2-x,1/2+y,-z
1/2-x,1/2-y,1/2-z
1/2+x,1/2+y,1/2-z
1/2-x,1/2+y,z
1/2+x,1/2-y,z
loop_
_atom_site_type_symbol
_atom_site_label
_atom_site_fract_x
_atom_site_fract_y
_atom_site_fract_z
Si Si1 0.672801 0.929955 0.313119
Si Si2 0.800978 0.765507 0.175951
Si Si3 0.113260 0.933812 0.308732
Si Si4 0.614644 0.190833 0.317629
Si Si5 0.281745 0.586326 0.823245
Si Si6 0.445510 0.309371 0.809394
O O1 0.673448 0.930931 0.500000
O O2 0.635295 0.874526 0.258199
O O3 0.728717 0.917902 0.255232
O O4 0.658655 0.000000 0.250000
O O5 0.750000 0.750000 0.250000
O O6 0.840393 0.739210 0.295235
O O7 0.797820 0.840613 0.159615
O O8 0.808865 0.737395 0.000000
O O9 0.115383 0.933032 0.500000
O O10 0.168742 0.937097 0.241813
O O11 0.087155 0.868513 0.253548
O O12 0.088905 0.000000 0.250000
O O13 0.604685 0.176794 0.500000
O O14 0.572224 0.238078 0.254343
O O15 0.275965 0.557939 0.000000
O O16 0.500000 0.319717 0.750000
O O17 0.442995 0.309732 0.000000
#
# Coordination Sequence:
#
# PCOD9527660 Si02
#       6
#    16  16  16  16  16  16
#     4  12  25  39  60  88 125 167 206 248 297 356
#     4  11  20  32  54  85 119 158 201 246 293 345
#     4  11  23  40  61  88 124 164 207 251 298 353
#     4  11  23  40  62  88 120 156 200 249 302 363
#     4  10  21  36  56  85 124 166 207 248 288 345
#     4  11  25  44  68  93 118 151 195 252 309 365
#
# _framework density 19.700067000000001
#
# number of rings (size 3 to 8) (size 9 to 14) (size 15 to 20)
#    0.000    1.000    3.333    4.000    0.000    5.667 
#    0.000    1.667    0.000    0.500    0.000    3.500 
#    0.000    0.000    0.000    0.000    0.000    0.000 
#
# Total GULP energy -267495.231424 kJ/mol
# GULP energy per Si atom -5572.817321 kJ/mol
# Density = 1.965523 g / cm^3
# Si number density = 19.700067 Si / 1000 Ang^3
#
#
#
# Elastic Constant Matrix: (Units=GPa)
#
#
# Indices 1 2 3 4 5 6 
#
# 1 80.8150 46.4245 20.0692 0.0000 0.0000 0.0000
# 2 46.4245 156.9032 38.4225 0.0000 0.0000 0.0000
# 3 20.0692 38.4225 71.1568 0.0000 0.0000 0.0000
# 4 0.0000 0.0000 0.0000 28.2877 0.0000 0.0000
# 5 0.0000 0.0000 0.0000 0.0000 7.3890 0.0000
# 6 0.0000 0.0000 0.0000 0.0000 0.0000 9.1087
#
#
#
# Elastic Compliance Matrix: (Units=1/GPa)
#
#
# Indices 1 2 3 4 5 6 
#
# 1 0.015185 -0.003969 -0.002140 0.000000 0.000000 0.000000
# 2 -0.003969 0.008382 -0.003407 0.000000 0.000000 0.000000
# 3 -0.002140 -0.003407 0.016496 0.000000 0.000000 0.000000
# 4 0.000000 0.000000 0.000000 0.035351 0.000000 0.000000
# 5 0.000000 0.000000 0.000000 0.000000 0.135336 0.000000
# 6 0.000000 0.000000 0.000000 0.000000 0.000000 0.109785
#
#
# Mechanical properties :
#
#
# Convention : Reuss Voigt Hill
#
# Bulk Modulus (GPa) = 47.54434 57.63415 52.58924
# Shear Modulus (GPa) = 14.42679 22.55435 18.49057
#
# Velocity S-wave (km/s) = 2.70908 3.38729 3.06699
# Velocity P-wave (km/s) = 5.82855 6.67964 6.26856
#
# Compressibility (1/GPa) = 0.02103300
#
# Stress axis : x y z
#
# Youngs Moduli (GPa) = 65.85287 119.30447 60.61938
#
# Poissons Ratio (x) = 0.47353 0.12971
# Poissons Ratio (y) = 0.26137 0.20650
# Poissons Ratio (z) = 0.14091 0.40641
#
# Static dielectric constant tensor:
#      x y z
#    x 1.691510 0.000000 0.000000 
#    y 0.000000 1.744120 0.000000 
#    z 0.000000 0.000000 1.716660 
# 
# From -- ./inp_files/8048.got.cif
#   From: 2010.05.17/outbox.cif.g08.bks.cpg/sg72_5_cif.got.tgz:8048.got - 2010.06.03 17:03:01.
