data_PCOD9527811
_publ_section_title
;
Structure prediction by ZEFSAII (Michael W. Deem and Ramdas Pophale) SiO2 
 PCOD9527811
Probable space group: I B A M
;
_chemical_formula_sum "Si O2"
_cell_formula_units_Z 112
_cell_length_a 22.856194
_cell_length_b 11.601291
_cell_length_c 21.577573
_cell_angle_alpha 90.000000
_cell_angle_beta 90.000000
_cell_angle_gamma 90.000000
_cell_volume 5721.538554
_symmetry_space_group_name_H-M "I B A M"
_symmetry_group_IT_number 72
_symmetry_cell_setting 'orthorhombic'
loop_
_space_group_symop_operation_xyz
x,y,z
-x,-y,z
x,-y,1/2-z
-x,y,1/2-z
-x,-y,-z
x,y,-z
-x,y,1/2+z
x,-y,1/2+z
1/2+x,1/2+y,1/2+z
1/2-x,1/2-y,1/2+z
1/2+x,1/2-y,-z
1/2-x,1/2+y,-z
1/2-x,1/2-y,1/2-z
1/2+x,1/2+y,1/2-z
1/2-x,1/2+y,z
1/2+x,1/2-y,z
loop_
_atom_site_type_symbol
_atom_site_label
_atom_site_fract_x
_atom_site_fract_y
_atom_site_fract_z
Si Si1 0.437530 0.732123 0.374845
Si Si2 0.061699 0.793132 0.570335
Si Si3 0.868276 0.977482 0.426390
Si Si4 0.762542 0.821824 0.426976
Si Si5 0.429700 0.138372 0.249886
Si Si6 0.357815 0.869325 0.128329
Si Si7 0.851443 0.610343 0.570071
O O1 0.506405 0.714405 0.384314
O O2 0.407879 0.610361 0.388120
O O3 0.414994 0.787917 0.310923
O O4 0.413276 0.823687 0.424848
O O5 0.040763 0.813828 0.500000
O O6 0.097704 0.675840 0.576009
O O7 0.108137 0.894614 0.585642
O O8 0.877136 0.955387 0.500000
O O9 0.801599 0.936885 0.414924
O O10 0.745905 0.822481 0.500000
O O11 0.705837 0.817965 0.384564
O O12 0.803980 0.710811 0.417535
O O13 0.500000 0.155557 0.250000
O O14 0.389518 0.170220 0.308561
O O15 0.422301 0.000000 0.250000
O O16 0.350687 0.005774 0.118043
O O17 0.841305 0.567881 0.500000
#
# Coordination Sequence:
#
# PCOD9527811 Si02
#       7
#    16  16  16  16  16  16  16
#     4  11  20  39  63  87 121 167 216 258 316 377
#     4  11  22  35  60  99 132 160 205 263 321 391
#     4   9  20  39  63  93 131 168 199 254 331 385
#     4   9  20  38  61  91 130 166 203 257 321 385
#     4  11  23  43  61  82 120 170 211 264 315 362
#     4  12  23  38  61  91 124 169 214 255 315 383
#     4  10  21  37  60  92 127 162 205 262 322 378
#
# _framework density 19.575154999999999
#
# number of rings (size 3 to 8) (size 9 to 14) (size 15 to 20)
#    0.000    1.571    2.857    3.857    2.000    1.714 
#    0.000    5.000    0.000    0.000    0.000    0.000 
#    0.000    0.000    0.000    0.000    0.000    0.000 
#
# Total GULP energy -312131.693861 kJ/mol
# GULP energy per Si atom -5573.780248 kJ/mol
# Density = 1.953060 g / cm^3
# Si number density = 19.575155 Si / 1000 Ang^3
#
#
#
# Elastic Constant Matrix: (Units=GPa)
#
#
# Indices 1 2 3 4 5 6 
#
# 1 113.5491 25.5148 56.5012 0.0000 0.0000 0.0000
# 2 25.5148 62.9138 31.3912 0.0000 0.0000 0.0000
# 3 56.5012 31.3912 91.4712 0.0000 0.0000 0.0000
# 4 0.0000 0.0000 0.0000 21.4513 0.0000 0.0000
# 5 0.0000 0.0000 0.0000 0.0000 32.3727 0.0000
# 6 0.0000 0.0000 0.0000 0.0000 0.0000 18.2177
#
#
#
# Elastic Compliance Matrix: (Units=1/GPa)
#
#
# Indices 1 2 3 4 5 6 
#
# 1 0.012832 -0.001507 -0.007409 0.000000 0.000000 0.000000
# 2 -0.001507 0.019356 -0.005711 0.000000 0.000000 0.000000
# 3 -0.007409 -0.005711 0.017469 0.000000 0.000000 0.000000
# 4 0.000000 0.000000 0.000000 0.046617 0.000000 0.000000
# 5 0.000000 0.000000 0.000000 0.000000 0.030890 0.000000
# 6 0.000000 0.000000 0.000000 0.000000 0.000000 0.054892
#
#
# Mechanical properties :
#
#
# Convention : Reuss Voigt Hill
#
# Bulk Modulus (GPa) = 49.01656 54.97204 51.99430
# Shear Modulus (GPa) = 22.92397 24.71013 23.81705
#
# Velocity S-wave (km/s) = 3.42581 3.55677 3.49190
# Velocity P-wave (km/s) = 6.38301 6.70902 6.54804
#
# Compressibility (1/GPa) = 0.02040127
#
# Stress axis : x y z
#
# Youngs Moduli (GPa) = 77.92918 51.66397 57.24421
#
# Poissons Ratio (x) = 0.07787 0.42413
# Poissons Ratio (y) = 0.11746 0.32695
# Poissons Ratio (z) = 0.57738 0.29508
#
# Static dielectric constant tensor:
#      x y z
#    x 1.701170 0.000000 0.000000 
#    y 0.000000 1.690310 0.000000 
#    z 0.000000 0.000000 1.734880 
# 
# From -- ./inp_files/40373.got.cif
#   From: 2010.05.17/outbox.cif.g08.bks.cpg/sg72_21_cif.got.tgz:40373.got - 2010.06.03 17:03:01.
