data_PCOD9527471
_publ_section_title
;
Structure prediction by ZEFSAII (Michael W. Deem and Ramdas Pophale) SiO2 
 PCOD9527471
Probable space group: I B A M
;
_chemical_formula_sum "Si O2"
_cell_formula_units_Z 64
_cell_length_a 4.966161
_cell_length_b 25.564089
_cell_length_c 22.632986
_cell_angle_alpha 90.000000
_cell_angle_beta 90.000000
_cell_angle_gamma 90.000000
_cell_volume 2873.379379
_symmetry_space_group_name_H-M "I B A M"
_symmetry_group_IT_number 72
_symmetry_cell_setting 'orthorhombic'
loop_
_space_group_symop_operation_xyz
x,y,z
-x,-y,z
x,-y,1/2-z
-x,y,1/2-z
-x,-y,-z
x,y,-z
-x,y,1/2+z
x,-y,1/2+z
1/2+x,1/2+y,1/2+z
1/2-x,1/2-y,1/2+z
1/2+x,1/2-y,-z
1/2-x,1/2+y,-z
1/2-x,1/2-y,1/2-z
1/2+x,1/2+y,1/2-z
1/2-x,1/2+y,z
1/2+x,1/2-y,z
loop_
_atom_site_type_symbol
_atom_site_label
_atom_site_fract_x
_atom_site_fract_y
_atom_site_fract_z
Si Si1 0.380361 0.714811 0.000000
Si Si2 0.504721 0.062454 0.620646
Si Si3 0.984726 0.106262 0.817437
Si Si4 0.260710 0.040511 0.500000
Si Si5 0.998893 0.213042 0.628185
O O1 0.451048 0.688803 0.062278
O O2 0.071454 0.733298 0.000000
O O3 0.809523 0.078737 0.636335
O O4 0.343903 0.072459 0.558743
O O5 0.320163 0.094050 0.665331
O O6 0.500000 0.000000 0.629457
O O7 0.000000 0.088297 0.750000
O O8 0.040861 0.167767 0.824830
O O9 0.500000 0.000000 0.500000
O O10 0.000000 0.000000 0.500000
O O11 0.289252 0.239441 0.632428
#
# Coordination Sequence:
#
# PCOD9527471 Si02
#       5
#     8  16  16   8  16
#     4   8  16  32  56  84 113 148 195 247 312 379
#     4  11  24  43  66  93 128 166 208 271 331 382
#     4  12  26  41  62  94 127 172 226 256 308 401
#     4  10  20  40  68  98 128 162 212 269 336 405
#     4  10  21  39  61  87 122 161 205 268 327 377
#
# _framework density 22.273423999999999
#
# number of rings (size 3 to 8) (size 9 to 14) (size 15 to 20)
#    0.000    1.500    0.000    6.000    0.000    6.000 
#    0.000    2.500    0.000    0.000    0.000    0.000 
#    0.000    0.000    0.000    0.000    0.000    0.000 
#
# Total GULP energy -178299.549556 kJ/mol
# GULP energy per Si atom -5571.860924 kJ/mol
# Density = 2.222273 g / cm^3
# Si number density = 22.273424 Si / 1000 Ang^3
#
#
#
# Elastic Constant Matrix: (Units=GPa)
#
#
# Indices 1 2 3 4 5 6 
#
# 1 100.1878 -4.3246 -2.8432 0.0000 0.0000 0.0000
# 2 -4.3246 50.7098 1.2585 0.0000 0.0000 0.0000
# 3 -2.8432 1.2585 62.5442 0.0000 0.0001 0.0000
# 4 0.0000 0.0000 0.0000 20.1924 0.0000 0.0000
# 5 0.0000 0.0000 0.0001 0.0000 650.3075 0.0000
# 6 0.0000 0.0000 0.0000 0.0000 0.0000 27.3388
#
#
#
# Elastic Compliance Matrix: (Units=1/GPa)
#
#
# Indices 1 2 3 4 5 6 
#
# 1 0.010030 0.000844 0.000439 0.000000 0.000000 0.000000
# 2 0.000844 0.019801 -0.000360 0.000000 0.000000 0.000000
# 3 0.000439 -0.000360 0.016016 0.000000 0.000000 0.000000
# 4 0.000000 0.000000 0.000000 0.049523 0.000000 0.000000
# 5 0.000000 0.000000 0.000000 0.000000 0.001538 0.000000
# 6 0.000000 0.000000 0.000000 0.000000 0.000000 0.036578
#
#
# Mechanical properties :
#
#
# Convention : Reuss Voigt Hill
#
# Bulk Modulus (GPa) = 20.96704 22.40257 21.68481
# Shear Modulus (GPa) = 33.88971 154.19117 94.04044
#
# Velocity S-wave (km/s) = 3.90491 8.32927 6.50481
# Velocity P-wave (km/s) = 5.45573 10.12829 8.13472
#
# Compressibility (1/GPa) = 0.04769391
#
# Stress axis : x y z
#
# Youngs Moduli (GPa) = 99.69922 50.50253 62.43795
#
# Poissons Ratio (x) = -0.04265 -0.02741
# Poissons Ratio (y) = -0.08420 0.02248
# Poissons Ratio (z) = -0.04376 0.01818
#
# Static dielectric constant tensor:
#      x y z
#    x 1.837530 0.000000 0.000000 
#    y 0.000000 1.749130 0.000000 
#    z 0.000000 0.000000 2.132540 
# 
# From -- ./inp_files/34790.got.cif
#   From: 2010.05.17/outbox.cif.g08.bks.cpg/sg72_18_cif.got.tgz:34790.got - 2010.06.03 17:03:01.
