data_PCOD9527515
_publ_section_title
;
Structure prediction by ZEFSAII (Michael W. Deem and Ramdas Pophale) SiO2 
 PCOD9527515
Probable space group: I B A M
;
_chemical_formula_sum "Si O2"
_cell_formula_units_Z 84
_cell_length_a 24.773388
_cell_length_b 10.974887
_cell_length_c 15.517980
_cell_angle_alpha 90.000000
_cell_angle_beta 90.000000
_cell_angle_gamma 90.000000
_cell_volume 4219.108070
_symmetry_space_group_name_H-M "I B A M"
_symmetry_group_IT_number 72
_symmetry_cell_setting 'orthorhombic'
loop_
_space_group_symop_operation_xyz
x,y,z
-x,-y,z
x,-y,1/2-z
-x,y,1/2-z
-x,-y,-z
x,y,-z
-x,y,1/2+z
x,-y,1/2+z
1/2+x,1/2+y,1/2+z
1/2-x,1/2-y,1/2+z
1/2+x,1/2-y,-z
1/2-x,1/2+y,-z
1/2-x,1/2-y,1/2-z
1/2+x,1/2+y,1/2-z
1/2-x,1/2+y,z
1/2+x,1/2-y,z
loop_
_atom_site_type_symbol
_atom_site_label
_atom_site_fract_x
_atom_site_fract_y
_atom_site_fract_z
Si Si1 0.307806 0.380485 0.695050
Si Si2 0.043176 0.650608 0.000000
Si Si3 0.155207 0.075245 0.000000
Si Si4 0.581927 0.781784 0.500000
Si Si5 0.318329 0.163731 0.820465
Si Si6 0.000000 0.500000 0.250000
Si Si7 0.091090 0.532066 0.638551
Si Si8 0.847802 0.787185 0.500000
O O1 0.325297 0.500000 0.750000
O O2 0.320499 0.385773 0.593012
O O3 0.331230 0.262492 0.745789
O O4 0.242676 0.375343 0.698357
O O5 0.057042 0.564175 0.080727
O O6 0.982106 0.694855 0.000000
O O7 0.088764 0.753427 0.000000
O O8 0.157718 0.930719 0.000000
O O9 0.097339 0.141817 0.000000
O O10 0.607493 0.855604 0.420161
O O11 0.359196 0.049721 0.829031
O O12 0.322236 0.229707 0.913672
O O13 0.044699 0.581139 0.297966
#
# Coordination Sequence:
#
# PCOD9527515 Si02
#       8
#    16   8   8   8  16   4  16   8
#     4  11  24  43  62  92 127 160 212 261 308 378
#     4   9  18  40  60  83 120 161 199 252 306 370
#     4  12  26  40  62  91 125 167 208 268 302 367
#     4  11  22  41  58  93 127 163 207 255 314 371
#     4  10  23  41  66  92 123 168 205 255 316 370
#     4  12  20  30  60  96 126 150 200 264 308 362
#     4  10  21  36  61  91 124 160 200 256 312 370
#     4  10  20  43  64  89 124 166 208 245 312 376
#
# _framework density 19.909420999999998
#
# number of rings (size 3 to 8) (size 9 to 14) (size 15 to 20)
#    0.000    1.524    3.810    1.714    4.000    1.905 
#    3.429    0.000    0.000    0.000    0.000    0.000 
#    0.000    0.000    0.000    0.000    0.000    0.000 
#
# Total GULP energy -234063.442865 kJ/mol
# GULP energy per Si atom -5572.939116 kJ/mol
# Density = 1.986411 g / cm^3
# Si number density = 19.909421 Si / 1000 Ang^3
#
#
#
# Elastic Constant Matrix: (Units=GPa)
#
#
# Indices 1 2 3 4 5 6 
#
# 1 57.6521 -3.3679 8.6847 0.0000 0.0000 0.0000
# 2 -3.3679 23.5898 23.3992 0.0000 0.0000 0.0000
# 3 8.6847 23.3992 129.0935 0.0000 0.0000 0.0000
# 4 0.0000 0.0000 0.0000 36.9005 0.0000 0.0000
# 5 0.0000 0.0000 0.0000 0.0000 25.6615 0.0000
# 6 0.0000 0.0000 0.0000 0.0000 0.0000 18.8879
#
#
#
# Elastic Compliance Matrix: (Units=1/GPa)
#
#
# Indices 1 2 3 4 5 6 
#
# 1 0.017919 0.004577 -0.002035 0.000000 0.000000 0.000000
# 2 0.004577 0.052853 -0.009888 0.000000 0.000000 0.000000
# 3 -0.002035 -0.009888 0.009675 0.000000 0.000000 0.000000
# 4 0.000000 0.000000 0.000000 0.027100 0.000000 0.000000
# 5 0.000000 0.000000 0.000000 0.000000 0.038969 0.000000
# 6 0.000000 0.000000 0.000000 0.000000 0.000000 0.052944
#
#
# Mechanical properties :
#
#
# Convention : Reuss Voigt Hill
#
# Bulk Modulus (GPa) = 15.20784 29.75194 22.47989
# Shear Modulus (GPa) = 21.18011 28.39795 24.78903
#
# Velocity S-wave (km/s) = 3.26517 3.78081 3.53241
# Velocity P-wave (km/s) = 4.67656 5.83399 5.28704
#
# Compressibility (1/GPa) = 0.06575554
#
# Stress axis : x y z
#
# Youngs Moduli (GPa) = 55.80551 18.92054 103.35403
#
# Poissons Ratio (x) = -0.08660 0.21034
# Poissons Ratio (y) = -0.25542 1.02195
# Poissons Ratio (z) = 0.11357 0.18708
#
# Static dielectric constant tensor:
#      x y z
#    x 1.675730 0.000000 0.000000 
#    y 0.000000 1.683490 0.000000 
#    z 0.000000 0.000000 1.910270 
# 
# From -- ./inp_files/29396.got.cif
#   From: 2010.05.17/outbox.cif.g08.bks.cpg/sg72_15_cif.got.tgz:29396.got - 2010.06.03 17:03:01.
