data_PCOD9527365
_publ_section_title
;
Structure prediction by ZEFSAII (Michael W. Deem and Ramdas Pophale) SiO2 
 PCOD9527365
Probable space group: I B A M
;
_chemical_formula_sum "Si O2"
_cell_formula_units_Z 112
_cell_length_a 14.231947
_cell_length_b 11.916461
_cell_length_c 29.429612
_cell_angle_alpha 90.000000
_cell_angle_beta 90.000000
_cell_angle_gamma 90.000000
_cell_volume 4991.098607
_symmetry_space_group_name_H-M "I B A M"
_symmetry_group_IT_number 72
_symmetry_cell_setting 'orthorhombic'
loop_
_space_group_symop_operation_xyz
x,y,z
-x,-y,z
x,-y,1/2-z
-x,y,1/2-z
-x,-y,-z
x,y,-z
-x,y,1/2+z
x,-y,1/2+z
1/2+x,1/2+y,1/2+z
1/2-x,1/2-y,1/2+z
1/2+x,1/2-y,-z
1/2-x,1/2+y,-z
1/2-x,1/2-y,1/2-z
1/2+x,1/2+y,1/2-z
1/2-x,1/2+y,z
1/2+x,1/2-y,z
loop_
_atom_site_type_symbol
_atom_site_label
_atom_site_fract_x
_atom_site_fract_y
_atom_site_fract_z
Si Si1 0.769629 0.715808 0.449813
Si Si2 0.363632 0.873492 0.770331
Si Si3 0.117469 0.891413 0.897906
Si Si4 0.453273 0.273741 0.553097
Si Si5 0.429363 0.897978 0.864611
Si Si6 0.240424 0.560283 0.127252
Si Si7 0.681353 0.736896 0.189280
O O1 0.805399 0.700202 0.500000
O O2 0.803478 0.834449 0.430444
O O3 0.657682 0.702302 0.449479
O O4 0.805087 0.621689 0.415965
O O5 0.427651 0.847407 0.814034
O O6 0.379790 0.789264 0.729087
O O7 0.256860 0.846023 0.787307
O O8 0.373131 0.000000 0.750000
O O9 0.123133 0.821626 0.850867
O O10 0.022531 0.868229 0.925974
O O11 0.156253 0.013227 0.883958
O O12 0.479922 0.248697 0.500000
O O13 0.454063 0.177493 0.592076
O O14 0.500000 0.000000 0.863987
O O15 0.325768 0.953613 0.865510
O O16 0.235158 0.655683 0.165990
#
# Coordination Sequence:
#
# PCOD9527365 Si02
#       7
#    16  16  16  16  16  16  16
#     4  10  22  39  60  90 125 165 220 277 330 396
#     4  11  21  38  63  99 129 174 218 273 326 401
#     4  11  21  41  64  89 129 175 222 270 337 405
#     4  11  25  43  63  93 130 173 223 280 336 400
#     4  12  23  40  63  97 136 164 219 275 338 401
#     4  11  21  40  64  92 124 177 218 271 344 404
#     4  10  20  38  64  94 133 169 221 269 331 402
#
# _framework density 22.43995
#
# number of rings (size 3 to 8) (size 9 to 14) (size 15 to 20)
#    0.000    1.143    4.286    3.000    0.000    2.857 
#    0.000    1.429    0.000    0.000    0.000    0.000 
#    0.000    0.000    0.000    0.000    0.000    0.000 
#
# Total GULP energy -312471.696851 kJ/mol
# GULP energy per Si atom -5579.851729 kJ/mol
# Density = 2.238888 g / cm^3
# Si number density = 22.439950 Si / 1000 Ang^3
#
#
#
# Elastic Constant Matrix: (Units=GPa)
#
#
# Indices 1 2 3 4 5 6 
#
# 1 91.4824 5.6658 14.1611 0.0000 0.0000 0.0000
# 2 5.6658 59.3340 45.3332 0.0000 0.0000 0.0000
# 3 14.1611 45.3332 187.5292 0.0000 0.0000 0.0000
# 4 0.0000 0.0000 0.0000 23.2916 0.0000 0.0000
# 5 0.0000 0.0000 0.0000 0.0000 27.6218 0.0000
# 6 0.0000 0.0000 0.0000 0.0000 0.0000 19.1880
#
#
#
# Elastic Compliance Matrix: (Units=1/GPa)
#
#
# Indices 1 2 3 4 5 6 
#
# 1 0.011073 -0.000513 -0.000712 0.000000 0.000000 0.000000
# 2 -0.000513 0.020696 -0.004964 0.000000 0.000000 0.000000
# 3 -0.000712 -0.004964 0.006586 0.000000 0.000000 0.000000
# 4 0.000000 0.000000 0.000000 0.042934 0.000000 0.000000
# 5 0.000000 0.000000 0.000000 0.000000 0.036203 0.000000
# 6 0.000000 0.000000 0.000000 0.000000 0.000000 0.052116
#
#
# Mechanical properties :
#
#
# Convention : Reuss Voigt Hill
#
# Bulk Modulus (GPa) = 38.49733 52.07398 45.28566
# Shear Modulus (GPa) = 26.22664 32.23264 29.22964
#
# Velocity S-wave (km/s) = 3.42240 3.79409 3.61303
# Velocity P-wave (km/s) = 5.72801 6.51535 6.13433
#
# Compressibility (1/GPa) = 0.02597583
#
# Stress axis : x y z
#
# Youngs Moduli (GPa) = 90.30906 48.31957 151.83006
#
# Poissons Ratio (x) = 0.02480 0.10812
# Poissons Ratio (y) = 0.04636 0.75371
# Poissons Ratio (z) = 0.06431 0.23987
#
# Static dielectric constant tensor:
#      x y z
#    x 1.960910 0.000000 0.000000 
#    y 0.000000 1.831250 0.000000 
#    z 0.000000 0.000000 1.857630 
# 
# From -- ./inp_files/51779.got.cif
#   From: 2010.05.17/outbox.cif.g08.bks.cpg/sg72_26_cif.got.tgz:51779.got - 2010.06.03 17:03:01.
