data_PCOD9527006
_publ_section_title
;
Structure prediction by ZEFSAII (Michael W. Deem and Ramdas Pophale) SiO2 
 PCOD9527006
Probable space group: I B A M
;
_chemical_formula_sum "Si O2"
_cell_formula_units_Z 96
_cell_length_a 27.237636
_cell_length_b 20.836662
_cell_length_c 8.930195
_cell_angle_alpha 90.000000
_cell_angle_beta 90.000000
_cell_angle_gamma 90.000000
_cell_volume 5068.255507
_symmetry_space_group_name_H-M "I B A M"
_symmetry_group_IT_number 72
_symmetry_cell_setting 'orthorhombic'
loop_
_space_group_symop_operation_xyz
x,y,z
-x,-y,z
x,-y,1/2-z
-x,y,1/2-z
-x,-y,-z
x,y,-z
-x,y,1/2+z
x,-y,1/2+z
1/2+x,1/2+y,1/2+z
1/2-x,1/2-y,1/2+z
1/2+x,1/2-y,-z
1/2-x,1/2+y,-z
1/2-x,1/2-y,1/2-z
1/2+x,1/2+y,1/2-z
1/2-x,1/2+y,z
1/2+x,1/2-y,z
loop_
_atom_site_type_symbol
_atom_site_label
_atom_site_fract_x
_atom_site_fract_y
_atom_site_fract_z
Si Si1 0.200792 0.226578 0.673082
Si Si2 0.617529 0.192462 0.821861
Si Si3 0.947004 0.192303 0.318666
Si Si4 0.718424 0.397479 0.828387
Si Si5 0.667144 0.067961 0.677593
Si Si6 0.390697 0.564018 0.828709
O O1 0.195249 0.245138 0.500000
O O2 0.250000 0.250000 0.750000
O O3 0.159410 0.257281 0.775272
O O4 0.205198 0.151360 0.696797
O O5 0.570567 0.235423 0.774072
O O6 0.634956 0.126259 0.745279
O O7 0.615908 0.182324 0.000000
O O8 0.947918 0.192799 0.500000
O O9 0.910715 0.133325 0.271700
O O10 0.000000 0.179435 0.250000
O O11 0.773646 0.422333 0.799163
O O12 0.668931 0.439120 0.830351
O O13 0.720446 0.369454 0.000000
O O14 0.659651 0.066496 0.500000
O O15 0.653682 0.000000 0.750000
O O16 0.409545 0.500000 0.750000
O O17 0.406914 0.561393 0.000000
#
# Coordination Sequence:
#
# PCOD9527006 Si02
#       6
#    16  16  16  16  16  16
#     4  12  22  32  53  84 116 154 198 241 288 343
#     4  11  22  40  62  84 116 154 195 248 302 352
#     4  10  23  42  64  87 115 148 191 249 305 358
#     4  10  20  36  55  80 120 160 202 240 278 336
#     4  11  23  37  58  88 123 163 200 238 286 350
#     4  10  21  38  57  83 119 160 200 243 289 340
#
# _framework density 18.94143
#
# number of rings (size 3 to 8) (size 9 to 14) (size 15 to 20)
#    0.000    1.333    3.333    3.000    0.000    3.667 
#    0.000    1.667    0.000    0.500    0.000    3.500 
#    0.000    0.000    0.000    0.000    0.000    0.000 
#
# Total GULP energy -267258.144079 kJ/mol
# GULP energy per Si atom -5567.878002 kJ/mol
# Density = 1.889832 g / cm^3
# Si number density = 18.941430 Si / 1000 Ang^3
#
#
#
# Elastic Constant Matrix: (Units=GPa)
#
#
# Indices 1 2 3 4 5 6 
#
# 1 66.3173 41.2915 17.6831 0.0000 0.0000 0.0000
# 2 41.2915 139.7674 49.5055 0.0000 0.0000 0.0000
# 3 17.6831 49.5055 33.3674 0.0000 0.0000 0.0000
# 4 0.0000 0.0000 0.0000 34.9967 0.0000 0.0000
# 5 0.0000 0.0000 0.0000 0.0000 21.4939 0.0000
# 6 0.0000 0.0000 0.0000 0.0000 0.0000 7.3278
#
#
#
# Elastic Compliance Matrix: (Units=1/GPa)
#
#
# Indices 1 2 3 4 5 6 
#
# 1 0.018682 -0.004241 -0.003608 0.000000 0.000000 0.000000
# 2 -0.004241 0.016042 -0.021552 0.000000 0.000000 0.000000
# 3 -0.003608 -0.021552 0.063858 0.000000 0.000000 0.000000
# 4 0.000000 0.000000 0.000000 0.028574 0.000000 0.000000
# 5 0.000000 0.000000 0.000000 0.000000 0.046525 0.000000
# 6 0.000000 0.000000 0.000000 0.000000 0.000000 0.136467
#
#
# Mechanical properties :
#
#
# Convention : Reuss Voigt Hill
#
# Bulk Modulus (GPa) = 25.13964 50.71246 37.92605
# Shear Modulus (GPa) = 13.08183 21.49514 17.28849
#
# Velocity S-wave (km/s) = 2.63087 3.37237 3.02443
# Velocity P-wave (km/s) = 4.74655 6.48037 5.68001
#
# Compressibility (1/GPa) = 0.03977782
#
# Stress axis : x y z
#
# Youngs Moduli (GPa) = 53.52804 62.33806 15.65983
#
# Poissons Ratio (x) = 0.26439 0.05650
# Poissons Ratio (y) = 0.22702 0.33751
# Poissons Ratio (z) = 0.19313 1.34353
#
# Static dielectric constant tensor:
#      x y z
#    x 1.627720 0.000000 0.000000 
#    y 0.000000 1.693590 0.000000 
#    z 0.000000 0.000000 1.669320 
# 
# From -- ./inp_files/5953.got.cif
#   From: 2010.05.17/outbox.cif.g08.bks.cpg/sg72_3_cif.got.tgz:5953.got - 2010.06.03 17:03:01.
