data_PCOD9527962
_publ_section_title
;
Structure prediction by ZEFSAII (Michael W. Deem and Ramdas Pophale) SiO2 
 PCOD9527962
Probable space group: I B A M
;
_chemical_formula_sum "Si O2"
_cell_formula_units_Z 68
_cell_length_a 17.637956
_cell_length_b 18.461351
_cell_length_c 9.714077
_cell_angle_alpha 90.000000
_cell_angle_beta 90.000000
_cell_angle_gamma 90.000000
_cell_volume 3163.102577
_symmetry_space_group_name_H-M "I B A M"
_symmetry_group_IT_number 72
_symmetry_cell_setting 'orthorhombic'
loop_
_space_group_symop_operation_xyz
x,y,z
-x,-y,z
x,-y,1/2-z
-x,y,1/2-z
-x,-y,-z
x,y,-z
-x,y,1/2+z
x,-y,1/2+z
1/2+x,1/2+y,1/2+z
1/2-x,1/2-y,1/2+z
1/2+x,1/2-y,-z
1/2-x,1/2+y,-z
1/2-x,1/2-y,1/2-z
1/2+x,1/2+y,1/2-z
1/2-x,1/2+y,z
1/2+x,1/2-y,z
loop_
_atom_site_type_symbol
_atom_site_label
_atom_site_fract_x
_atom_site_fract_y
_atom_site_fract_z
Si Si1 0.549140 0.758031 0.000000
Si Si2 0.157150 0.500000 0.250000
Si Si3 0.716518 0.636864 0.500000
Si Si4 0.500000 0.500000 0.750000
Si Si5 0.373215 0.778663 0.000000
Si Si6 0.731836 0.525463 0.000000
Si Si7 0.148377 0.344867 0.288904
Si Si8 0.423992 0.588746 0.500000
O O1 0.463467 0.785420 0.000000
O O2 0.593933 0.790160 0.869464
O O3 0.549963 0.671501 0.000000
O O4 0.212864 0.474560 0.129236
O O5 0.114716 0.426764 0.292621
O O6 0.650474 0.694762 0.500000
O O7 0.690870 0.553619 0.500000
O O8 0.772206 0.649464 0.370161
O O9 0.452429 0.549212 0.640936
O O10 0.341515 0.816314 0.864078
O O11 0.667141 0.584638 0.000000
#
# Coordination Sequence:
#
# PCOD9527962 Si02
#       8
#     8   8   8   4   8   8  16   8
#     4  11  27  43  62  95 140 177 214 267 327 400
#     4  10  21  42  67  91 126 161 224 282 330 386
#     4   9  22  40  65  92 130 161 215 272 331 394
#     4  10  26  42  64  90 128 190 212 250 318 382
#     4  12  23  38  66  94 128 170 218 266 327 389
#     4  10  21  38  65  96 120 170 214 273 327 387
#     4  10  23  43  63  94 126 172 217 272 337 388
#     4  11  25  43  64  93 138 171 222 259 320 390
#
# _framework density 21.497881
#
# number of rings (size 3 to 8) (size 9 to 14) (size 15 to 20)
#    0.000    1.647    0.000    3.529    6.588    7.529 
#    0.000    3.529    0.000    0.000    0.000    0.000 
#    0.000    0.000    0.000    0.000    0.000    0.000 
#
# Total GULP energy -190102.682170 kJ/mol
# GULP energy per Si atom -5591.255358 kJ/mol
# Density = 2.144895 g / cm^3
# Si number density = 21.497881 Si / 1000 Ang^3
#
#
#
# Elastic Constant Matrix: (Units=GPa)
#
#
# Indices 1 2 3 4 5 6 
#
# 1 29.6418 0.7081 16.7361 0.0000 0.0000 0.0000
# 2 0.7081 104.6528 19.2428 0.0000 0.0000 0.0000
# 3 16.7361 19.2428 162.9461 0.0000 0.0000 0.0000
# 4 0.0000 0.0000 0.0000 5.4908 0.0000 0.0000
# 5 0.0000 0.0000 0.0000 0.0000 -3.5200 0.0000
# 6 0.0000 0.0000 0.0000 0.0000 0.0000 10.9431
#
#
#
# Elastic Compliance Matrix: (Units=1/GPa)
#
#
# Indices 1 2 3 4 5 6 
#
# 1 0.035833 0.000444 -0.003733 0.000000 0.000000 0.000000
# 2 0.000444 0.009773 -0.001200 0.000000 0.000000 0.000000
# 3 -0.003733 -0.001200 0.006662 0.000000 0.000000 0.000000
# 4 0.000000 0.000000 0.000000 0.182123 0.000000 0.000000
# 5 0.000000 0.000000 0.000000 0.000000 -0.284088 0.000000
# 6 0.000000 0.000000 0.000000 0.000000 0.000000 0.091382
#
#
# Mechanical properties :
#
#
# Convention : Reuss Voigt Hill
#
# Bulk Modulus (GPa) = 23.09954 41.17942 32.13948
# Shear Modulus (GPa) = 76.81334 19.95302 48.38318
#
# Velocity S-wave (km/s) = 5.98400 3.04984 4.74920
# Velocity P-wave (km/s) = 7.64936 5.62128 6.71235
#
# Compressibility (1/GPa) = 0.04329091
#
# Stress axis : x y z
#
# Youngs Moduli (GPa) = 27.90718 102.32276 150.10351
#
# Poissons Ratio (x) = -0.04542 0.56031
# Poissons Ratio (y) = -0.01239 0.18008
# Poissons Ratio (z) = 0.10417 0.12276
#
# Static dielectric constant tensor:
#      x y z
#    x 1.724470 0.000000 0.000000 
#    y 0.000000 1.815700 0.000000 
#    z 0.000000 0.000000 1.773910 
# 
# From -- ./inp_files/4486.got.cif
#   From: 2010.05.17/outbox.cif.g08.bks.cpg/sg72_3_cif.got.tgz:4486.got - 2010.06.03 17:03:01.
