data_PCOD9527682
_publ_section_title
;
Structure prediction by ZEFSAII (Michael W. Deem and Ramdas Pophale) SiO2 
 PCOD9527682
Probable space group: I B A M
;
_chemical_formula_sum "Si O2"
_cell_formula_units_Z 96
_cell_length_a 11.115226
_cell_length_b 24.048387
_cell_length_c 14.892369
_cell_angle_alpha 90.000000
_cell_angle_beta 90.000000
_cell_angle_gamma 90.000000
_cell_volume 3980.778730
_symmetry_space_group_name_H-M "I B A M"
_symmetry_group_IT_number 72
_symmetry_cell_setting 'orthorhombic'
loop_
_space_group_symop_operation_xyz
x,y,z
-x,-y,z
x,-y,1/2-z
-x,y,1/2-z
-x,-y,-z
x,y,-z
-x,y,1/2+z
x,-y,1/2+z
1/2+x,1/2+y,1/2+z
1/2-x,1/2-y,1/2+z
1/2+x,1/2-y,-z
1/2-x,1/2+y,-z
1/2-x,1/2-y,1/2-z
1/2+x,1/2+y,1/2-z
1/2-x,1/2+y,z
1/2+x,1/2-y,z
loop_
_atom_site_type_symbol
_atom_site_label
_atom_site_fract_x
_atom_site_fract_y
_atom_site_fract_z
Si Si1 0.951999 0.123163 0.850201
Si Si2 0.211322 0.313154 0.108242
Si Si3 0.320588 0.086317 0.895530
Si Si4 0.822427 0.983648 0.650852
Si Si5 0.814855 0.811172 0.895877
Si Si6 0.581577 0.077292 0.107737
O O1 0.831995 0.160487 0.851135
O O2 0.913058 0.062513 0.888014
O O3 0.000000 0.114224 0.750000
O O4 0.056437 0.158646 0.895785
O O5 0.184852 0.251016 0.141572
O O6 0.103507 0.356935 0.120903
O O7 0.230760 0.312523 0.000000
O O8 0.276161 0.143954 0.853146
O O9 0.447474 0.063772 0.860065
O O10 0.213147 0.041783 0.893654
O O11 0.347680 0.096791 0.000000
O O12 0.693371 0.952371 0.654718
O O13 0.861487 0.000000 0.750000
O O14 0.779284 0.804809 0.000000
O O15 0.594876 0.063886 0.000000
#
# Coordination Sequence:
#
# PCOD9527682 Si02
#       6
#    16  16  16  16  16  16
#     4  11  24  41  60  85 122 164 204 246 300 360
#     4   9  20  39  65  90 118 156 203 254 302 356
#     4  10  21  36  58  90 123 153 195 253 307 357
#     4  11  23  39  59  83 117 163 206 246 295 356
#     4  10  22  38  62  92 119 156 203 250 303 364
#     4   9  19  37  61  89 119 154 197 253 309 351
#
# _framework density 24.115884999999999
#
# number of rings (size 3 to 8) (size 9 to 14) (size 15 to 20)
#    0.000    2.000    0.000    2.500    2.333    7.667 
#    0.000    1.667    0.000    0.000    0.000    0.000 
#    0.000    0.000    0.000    0.000    0.000    0.000 
#
# Total GULP energy -268202.696419 kJ/mol
# GULP energy per Si atom -5587.556175 kJ/mol
# Density = 2.406100 g / cm^3
# Si number density = 24.115885 Si / 1000 Ang^3
#
#
#
# Elastic Constant Matrix: (Units=GPa)
#
#
# Indices 1 2 3 4 5 6 
#
# 1 110.6440 43.6831 6.6273 0.0000 0.0000 0.0000
# 2 43.6831 167.0833 7.7460 -0.0001 -0.0001 0.0000
# 3 6.6273 7.7460 39.3355 -0.0001 0.0000 0.0000
# 4 0.0000 -0.0001 -0.0001 20.6253 -0.0001 0.0000
# 5 0.0000 -0.0001 0.0000 -0.0001 2.9396 0.0000
# 6 0.0000 0.0000 0.0000 0.0000 0.0000 28.9346
#
#
#
# Elastic Compliance Matrix: (Units=1/GPa)
#
#
# Indices 1 2 3 4 5 6 
#
# 1 0.010134 -0.002594 -0.001197 0.000000 0.000000 0.000000
# 2 -0.002594 0.006704 -0.000883 0.000000 0.000000 0.000000
# 3 -0.001197 -0.000883 0.025798 0.000000 0.000000 0.000000
# 4 0.000000 0.000000 0.000000 0.048484 0.000001 0.000000
# 5 0.000000 0.000000 0.000000 0.000001 0.340180 0.000000
# 6 0.000000 0.000000 0.000000 0.000000 0.000000 0.034561
#
#
# Mechanical properties :
#
#
# Convention : Reuss Voigt Hill
#
# Bulk Modulus (GPa) = 30.04046 48.13063 39.08555
# Shear Modulus (GPa) = 10.28164 27.76700 19.02432
#
# Velocity S-wave (km/s) = 2.06705 3.39691 2.81173
# Velocity P-wave (km/s) = 4.26388 5.94867 5.17530
#
# Compressibility (1/GPa) = 0.03328843
#
# Stress axis : x y z
#
# Youngs Moduli (GPa) = 98.67982 149.16116 38.76296
#
# Poissons Ratio (x) = 0.38692 0.04638
# Poissons Ratio (y) = 0.25597 0.03423
# Poissons Ratio (z) = 0.11808 0.13173
#
# Static dielectric constant tensor:
#      x y z
#    x 1.919100 0.000000 0.000000 
#    y 0.000000 1.953900 0.000000 
#    z 0.000000 0.000000 1.961710 
# 
# From -- ./inp_files/29436.got.cif
#   From: 2010.05.17/outbox.cif.g08.bks.cpg/sg72_15_cif.got.tgz:29436.got - 2010.06.03 17:03:01.
