data_PCOD9527969
_publ_section_title
;
Structure prediction by ZEFSAII (Michael W. Deem and Ramdas Pophale) SiO2 
 PCOD9527969
Probable space group: I B A M
;
_chemical_formula_sum "Si O2"
_cell_formula_units_Z 112
_cell_length_a 5.563564
_cell_length_b 31.090745
_cell_length_c 29.479308
_cell_angle_alpha 90.000000
_cell_angle_beta 90.000000
_cell_angle_gamma 90.000000
_cell_volume 5099.193608
_symmetry_space_group_name_H-M "I B A M"
_symmetry_group_IT_number 72
_symmetry_cell_setting 'orthorhombic'
loop_
_space_group_symop_operation_xyz
x,y,z
-x,-y,z
x,-y,1/2-z
-x,y,1/2-z
-x,-y,-z
x,y,-z
-x,y,1/2+z
x,-y,1/2+z
1/2+x,1/2+y,1/2+z
1/2-x,1/2-y,1/2+z
1/2+x,1/2-y,-z
1/2-x,1/2+y,-z
1/2-x,1/2-y,1/2-z
1/2+x,1/2+y,1/2-z
1/2-x,1/2+y,z
1/2+x,1/2-y,z
loop_
_atom_site_type_symbol
_atom_site_label
_atom_site_fract_x
_atom_site_fract_y
_atom_site_fract_z
Si Si1 0.642327 0.688265 0.203513
Si Si2 0.420646 0.898960 0.202494
Si Si3 0.261439 0.956270 0.050872
Si Si4 0.748319 0.521427 0.153817
Si Si5 0.870004 0.739130 0.367386
Si Si6 0.263309 0.597296 0.049616
Si Si7 0.746848 0.647239 0.640032
O O1 0.500000 0.696723 0.250000
O O2 0.822002 0.648898 0.214084
O O3 0.691017 0.734301 0.179229
O O4 0.482753 0.665251 0.165217
O O5 0.500000 0.919073 0.250000
O O6 0.250219 0.930117 0.173585
O O7 0.644729 0.890785 0.169724
O O8 0.254770 0.980848 0.098696
O O9 0.509912 0.928620 0.053879
O O10 0.007938 0.930710 0.051473
O O11 0.266757 0.977219 0.000000
O O12 0.500000 0.500000 0.168858
O O13 0.000000 0.500000 0.169316
O O14 0.608015 0.742315 0.390845
O O15 0.919220 0.688885 0.359955
O O16 0.284361 0.630765 0.089877
O O17 0.256564 0.617879 0.000000
#
# Coordination Sequence:
#
# PCOD9527969 Si02
#       7
#    16  16  16  16  16  16  16
#     4  11  23  38  64  96 133 174 224 281 336 390
#     4  12  25  44  67  94 126 178 231 270 326 400
#     4  10  21  41  70 101 132 163 211 274 337 400
#     4  12  28  46  70  97 135 174 219 276 335 397
#     4  10  22  37  58  95 133 169 211 268 332 381
#     4  10  21  38  67 101 131 172 219 265 324 396
#     4  11  22  39  66  93 135 177 216 271 324 399
#
# _framework density 21.964255999999999
#
# number of rings (size 3 to 8) (size 9 to 14) (size 15 to 20)
#    0.000    1.143    4.286    1.714    2.000    3.714 
#    0.000    0.714    0.000    3.429    0.000    0.000 
#    0.000    0.000    0.000    0.000    0.000    0.000 
#
# Total GULP energy -312273.621452 kJ/mol
# GULP energy per Si atom -5576.314669 kJ/mol
# Density = 2.191426 g / cm^3
# Si number density = 21.964256 Si / 1000 Ang^3
#
#
#
# Elastic Constant Matrix: (Units=GPa)
#
#
# Indices 1 2 3 4 5 6 
#
# 1 129.8010 27.5794 25.8107 0.0000 0.0000 0.0000
# 2 27.5794 63.7551 28.9932 0.0000 0.0000 0.0000
# 3 25.8107 28.9932 106.2853 0.0000 0.0000 0.0000
# 4 0.0000 0.0000 0.0000 -73.8171 0.0000 0.0000
# 5 0.0000 0.0000 0.0000 0.0000 -3.6366 0.0000
# 6 0.0000 0.0000 0.0000 0.0000 0.0000 43.3515
#
#
#
# Elastic Compliance Matrix: (Units=1/GPa)
#
#
# Indices 1 2 3 4 5 6 
#
# 1 0.008622 -0.003171 -0.001229 0.000000 0.000000 0.000000
# 2 -0.003171 0.019073 -0.004433 0.000000 0.000000 0.000000
# 3 -0.001229 -0.004433 0.010916 0.000000 0.000000 0.000000
# 4 0.000000 0.000000 0.000000 -0.013547 0.000000 0.000000
# 5 0.000000 0.000000 0.000000 0.000000 -0.274982 0.000000
# 6 0.000000 0.000000 0.000000 0.000000 0.000000 0.023067
#
#
# Mechanical properties :
#
#
# Convention : Reuss Voigt Hill
#
# Bulk Modulus (GPa) = 47.74194 51.62312 49.68253
# Shear Modulus (GPa) = -24.72749 7.67676 -8.52537
#
# Velocity S-wave (km/s) = -3.35894 1.87155 -1.97228
# Velocity P-wave (km/s) = 2.59616 5.31268 4.18118
#
# Compressibility (1/GPa) = 0.02094595
#
# Stress axis : x y z
#
# Youngs Moduli (GPa) = 115.97952 52.43137 91.60675
#
# Poissons Ratio (x) = 0.16626 0.11257
# Poissons Ratio (y) = 0.36777 0.40606
# Poissons Ratio (z) = 0.14252 0.23241
#
# Static dielectric constant tensor:
#      x y z
#    x 2.002700 0.000000 0.000000 
#    y 0.000000 1.860030 0.000000 
#    z 0.000000 0.000000 1.785270 
# 
# From -- ./inp_files/50448.got.cif
#   From: 2010.05.17/outbox.cif.g08.bks.cpg/sg72_26_cif.got.tgz:50448.got - 2010.06.03 17:03:01.
