data_PCOD9527144
_publ_section_title
;
Structure prediction by ZEFSAII (Michael W. Deem and Ramdas Pophale) SiO2 
 PCOD9527144
Probable space group: I B A M
;
_chemical_formula_sum "Si O2"
_cell_formula_units_Z 88
_cell_length_a 18.110272
_cell_length_b 14.268427
_cell_length_c 15.271252
_cell_angle_alpha 90.000000
_cell_angle_beta 90.000000
_cell_angle_gamma 90.000000
_cell_volume 3946.169308
_symmetry_space_group_name_H-M "I B A M"
_symmetry_group_IT_number 72
_symmetry_cell_setting 'orthorhombic'
loop_
_space_group_symop_operation_xyz
x,y,z
-x,-y,z
x,-y,1/2-z
-x,y,1/2-z
-x,-y,-z
x,y,-z
-x,y,1/2+z
x,-y,1/2+z
1/2+x,1/2+y,1/2+z
1/2-x,1/2-y,1/2+z
1/2+x,1/2-y,-z
1/2-x,1/2+y,-z
1/2-x,1/2-y,1/2-z
1/2+x,1/2+y,1/2-z
1/2-x,1/2+y,z
1/2+x,1/2-y,z
loop_
_atom_site_type_symbol
_atom_site_label
_atom_site_fract_x
_atom_site_fract_y
_atom_site_fract_z
Si Si1 0.793404 0.110623 0.150665
Si Si2 0.911469 0.752415 0.899567
Si Si3 0.410677 0.894349 0.750000
Si Si4 0.411469 0.747585 0.399567
Si Si5 0.250000 0.750000 0.000000
Si Si6 0.706596 0.610623 0.650665
O O1 0.875624 0.154874 0.140662
O O2 0.751198 0.168305 0.077738
O O3 0.767534 0.128794 0.250000
O O4 0.793232 1.000000 0.135622
O O5 0.893457 0.665774 0.836365
O O6 0.875624 0.845126 0.859338
O O7 1.000000 0.758631 0.904523
O O8 0.880513 0.743658 0.000000
O O9 0.500000 0.901458 0.750000
O O10 0.393457 0.834226 0.663635
O O11 0.380576 0.000000 0.750000
O O12 0.380513 0.756342 0.500000
O O13 0.251198 0.668305 0.077738
#
# Coordination Sequence:
#
# PCOD9527144 Si02
#       6
#    16  16  16  16   8  16
#     4  11  24  43  69  96 127 167 211 268 327 381
#     4  10  20  36  63  98 134 168 205 254 317 388
#     4   9  18  34  55  84 127 172 210 251 304 368
#     4  10  20  36  63  98 134 168 205 254 317 388
#     4  12  24  44  66  86 124 170 220 264 316 372
#     4  11  24  43  69  96 127 167 211 268 327 381
#
# _framework density 22.300108999999999
#
# number of rings (size 3 to 8) (size 9 to 14) (size 15 to 20)
#    0.000    1.636    3.636    1.091    0.000    1.455 
#    0.000   10.909    0.000    0.000    0.000    0.000 
#    0.000    0.000    0.000    0.000    0.000    0.000 
#
# Total GULP energy -245291.901843 kJ/mol
# GULP energy per Si atom -5574.815951 kJ/mol
# Density = 2.224935 g / cm^3
# Si number density = 22.300109 Si / 1000 Ang^3
#
#
#
# Elastic Constant Matrix: (Units=GPa)
#
#
# Indices 1 2 3 4 5 6 
#
# 1 78.5349 49.1272 57.0574 0.0000 0.0000 0.0000
# 2 49.1272 216.6665 132.8203 0.0000 0.0000 0.0000
# 3 57.0574 132.8203 243.4885 0.0000 0.0000 0.0000
# 4 0.0000 0.0000 0.0000 60.4611 0.0000 0.0000
# 5 0.0000 0.0000 0.0000 0.0000 46.3035 0.0000
# 6 0.0000 0.0000 0.0000 0.0000 0.0000 36.7945
#
#
#
# Elastic Compliance Matrix: (Units=1/GPa)
#
#
# Indices 1 2 3 4 5 6 
#
# 1 0.015894 -0.001984 -0.002642 0.000000 0.000000 0.000000
# 2 -0.001984 0.007182 -0.003453 0.000000 0.000000 0.000000
# 3 -0.002642 -0.003453 0.006609 0.000000 0.000000 0.000000
# 4 0.000000 0.000000 0.000000 0.016540 0.000000 0.000000
# 5 0.000000 0.000000 0.000000 0.000000 0.021597 0.000000
# 6 0.000000 0.000000 0.000000 0.000000 0.000000 0.027178
#
#
# Mechanical properties :
#
#
# Convention : Reuss Voigt Hill
#
# Bulk Modulus (GPa) = 73.92412 112.96663 93.44537
# Shear Modulus (GPa) = 43.22775 48.69080 45.95928
#
# Velocity S-wave (km/s) = 4.40756 4.67779 4.54469
# Velocity P-wave (km/s) = 7.68920 8.94109 8.33867
#
# Compressibility (1/GPa) = 0.01352739
#
# Stress axis : x y z
#
# Youngs Moduli (GPa) = 62.91704 139.24074 151.29748
#
# Poissons Ratio (x) = 0.27627 0.39975
# Poissons Ratio (y) = 0.12484 0.52238
# Poissons Ratio (z) = 0.16624 0.48075
#
# Static dielectric constant tensor:
#      x y z
#    x 1.529390 0.000000 0.000000 
#    y 0.000000 1.700560 0.000000 
#    z 0.000000 0.000000 1.813680 
# 
# From -- ./inp_files/25831.got.cif
#   From: 2010.05.17/outbox.cif.g08.bks.cpg/sg72_13_cif.got.tgz:25831.got - 2010.06.03 17:03:01.
