data_PCOD9527206
_publ_section_title
;
Structure prediction by ZEFSAII (Michael W. Deem and Ramdas Pophale) SiO2 
 PCOD9527206
Probable space group: I B A M
;
_chemical_formula_sum "Si O2"
_cell_formula_units_Z 80
_cell_length_a 26.422987
_cell_length_b 18.684575
_cell_length_c 8.640789
_cell_angle_alpha 90.000000
_cell_angle_beta 90.000000
_cell_angle_gamma 90.000000
_cell_volume 4265.977250
_symmetry_space_group_name_H-M "I B A M"
_symmetry_group_IT_number 72
_symmetry_cell_setting 'orthorhombic'
loop_
_space_group_symop_operation_xyz
x,y,z
-x,-y,z
x,-y,1/2-z
-x,y,1/2-z
-x,-y,-z
x,y,-z
-x,y,1/2+z
x,-y,1/2+z
1/2+x,1/2+y,1/2+z
1/2-x,1/2-y,1/2+z
1/2+x,1/2-y,-z
1/2-x,1/2+y,-z
1/2-x,1/2-y,1/2-z
1/2+x,1/2+y,1/2-z
1/2-x,1/2+y,z
1/2+x,1/2-y,z
loop_
_atom_site_type_symbol
_atom_site_label
_atom_site_fract_x
_atom_site_fract_y
_atom_site_fract_z
Si Si1 0.150794 0.420217 0.185817
Si Si2 0.945358 0.830175 0.686312
Si Si3 0.249291 0.669913 0.313229
Si Si4 0.555001 0.836284 0.814248
Si Si5 0.652115 0.580090 0.812694
O O1 0.156253 0.500000 0.250000
O O2 0.198726 0.372105 0.235231
O O3 0.099559 0.384395 0.247333
O O4 0.149710 0.422421 0.000000
O O5 0.947193 0.832199 0.500000
O O6 0.936678 0.747122 0.731412
O O7 0.899113 0.879695 0.738416
O O8 0.000000 0.852552 0.750000
O O9 0.249755 0.672923 0.500000
O O10 0.250000 0.750000 0.250000
O O11 0.298963 0.625862 0.263569
O O12 0.500000 0.857448 0.750000
O O13 0.554847 0.840442 0.000000
O O14 0.654541 0.500000 0.750000
O O15 0.652015 0.577933 0.000000
#
# Coordination Sequence:
#
# PCOD9527206 Si02
#       5
#    16  16  16  16  16
#     4  11  23  38  57  84 115 148 185 228 278 335
#     4   9  19  35  56  80 109 144 184 227 273 324
#     4  10  22  39  60  84 111 143 185 231 277 331
#     4  10  20  37  60  84 112 147 186 232 279 329
#     4  10  21  37  55  80 112 146 182 224 273 325
#
# _framework density 18.753031
#
# number of rings (size 3 to 8) (size 9 to 14) (size 15 to 20)
#    0.000    2.000    0.000    3.000    0.000    6.400 
#    0.000    4.000    0.000    0.000    0.000    0.000 
#    0.000    0.000    0.000    0.000    0.000    0.000 
#
# Total GULP energy -223496.697430 kJ/mol
# GULP energy per Si atom -5587.417436 kJ/mol
# Density = 1.871035 g / cm^3
# Si number density = 18.753031 Si / 1000 Ang^3
#
#
#
# Elastic Constant Matrix: (Units=GPa)
#
#
# Indices 1 2 3 4 5 6 
#
# 1 203.7912 136.3726 44.3593 0.0000 0.0000 0.0000
# 2 136.3726 171.6957 37.9336 0.0000 0.0000 0.0000
# 3 44.3593 37.9336 28.1583 0.0000 0.0000 0.0000
# 4 0.0000 0.0000 0.0000 34.1782 0.0000 0.0000
# 5 0.0000 0.0000 0.0000 0.0000 27.7850 0.0000
# 6 0.0000 0.0000 0.0000 0.0000 0.0000 -24.0203
#
#
#
# Elastic Compliance Matrix: (Units=1/GPa)
#
#
# Indices 1 2 3 4 5 6 
#
# 1 0.011732 -0.007453 -0.008441 0.000000 0.000000 0.000000
# 2 -0.007453 0.013028 -0.005808 0.000000 0.000000 0.000000
# 3 -0.008441 -0.005808 0.056636 0.000000 0.000000 0.000000
# 4 0.000000 0.000000 0.000000 0.029258 0.000000 0.000000
# 5 0.000000 0.000000 0.000000 0.000000 0.035991 0.000000
# 6 0.000000 0.000000 0.000000 0.000000 0.000000 -0.041631
#
#
# Mechanical properties :
#
#
# Convention : Reuss Voigt Hill
#
# Bulk Modulus (GPa) = 26.32283 93.44179 59.88231
# Shear Modulus (GPa) = 31.03996 19.92057 25.48026
#
# Velocity S-wave (km/s) = 4.07282 3.26277 3.69009
# Velocity P-wave (km/s) = 6.01533 8.00812 7.08217
#
# Compressibility (1/GPa) = 0.03798984
#
# Stress axis : x y z
#
# Youngs Moduli (GPa) = 85.23634 76.76023 17.65656
#
# Poissons Ratio (x) = 0.57213 0.14904
# Poissons Ratio (y) = 0.63531 0.10255
# Poissons Ratio (z) = 0.71950 0.44585
#
# Static dielectric constant tensor:
#      x y z
#    x 1.630320 0.000000 0.000000 
#    y 0.000000 1.612140 0.000000 
#    z 0.000000 0.000000 1.640050 
# 
# From -- ./inp_files/4817.got.cif
#   From: 2010.05.17/outbox.cif.g08.bks.cpg/sg72_3_cif.got.tgz:4817.got - 2010.06.03 17:03:01.
