data_PCOD9527000
_publ_section_title
;
Structure prediction by ZEFSAII (Michael W. Deem and Ramdas Pophale) SiO2 
 PCOD9527000
Probable space group: I B A M
;
_chemical_formula_sum "Si O2"
_cell_formula_units_Z 104
_cell_length_a 8.329938
_cell_length_b 21.145489
_cell_length_c 28.377257
_cell_angle_alpha 90.000000
_cell_angle_beta 90.000000
_cell_angle_gamma 90.000000
_cell_volume 4998.387425
_symmetry_space_group_name_H-M "I B A M"
_symmetry_group_IT_number 72
_symmetry_cell_setting 'orthorhombic'
loop_
_space_group_symop_operation_xyz
x,y,z
-x,-y,z
x,-y,1/2-z
-x,y,1/2-z
-x,-y,-z
x,y,-z
-x,y,1/2+z
x,-y,1/2+z
1/2+x,1/2+y,1/2+z
1/2-x,1/2-y,1/2+z
1/2+x,1/2-y,-z
1/2-x,1/2+y,-z
1/2-x,1/2-y,1/2-z
1/2+x,1/2+y,1/2-z
1/2-x,1/2+y,z
1/2+x,1/2-y,z
loop_
_atom_site_type_symbol
_atom_site_label
_atom_site_fract_x
_atom_site_fract_y
_atom_site_fract_z
Si Si1 0.764448 0.511621 0.500000
Si Si2 0.558791 0.659524 0.299970
Si Si3 0.013194 0.385828 0.000000
Si Si4 0.828016 0.025333 0.103543
Si Si5 0.000000 0.382356 0.750000
Si Si6 0.788478 0.712098 0.185811
Si Si7 0.327392 0.923457 0.660800
Si Si8 0.393459 0.144446 0.601406
O O1 0.837726 0.582295 0.500000
O O2 0.681581 0.501375 0.550228
O O3 0.885715 0.451522 0.500000
O O4 0.500000 0.630687 0.250000
O O5 0.395965 0.692171 0.317279
O O6 0.680551 0.718528 0.293792
O O7 0.656748 0.612738 0.333286
O O8 0.057625 0.348790 0.952820
O O9 0.762290 0.097254 0.103415
O O10 0.701938 0.990509 0.137440
O O11 0.000000 0.000000 0.120712
O O12 0.886408 0.337923 0.717795
O O13 0.898010 0.422917 0.786702
O O14 0.855269 0.705481 0.132673
O O15 0.453538 0.887690 0.627174
#
# Coordination Sequence:
#
# PCOD9527000 Si02
#       8
#     8  16   8  16   8  16  16  16
#     4   9  17  32  58  89 111 144 194 244 287 337
#     4  12  22  38  62  86 116 150 199 255 285 340
#     4   9  16  34  60  85 111 150 192 236 287 348
#     4  11  21  37  58  87 121 153 192 245 294 357
#     4  10  20  36  55  78 106 150 191 240 288 342
#     4  11  21  37  59  87 114 146 195 242 295 340
#     4  11  22  36  59  82 115 153 198 239 296 342
#     4  10  21  37  61  86 116 154 193 238 293 355
#
# _framework density 20.806709999999999
#
# number of rings (size 3 to 8) (size 9 to 14) (size 15 to 20)
#    0.000    1.385    3.846    3.923    0.000    0.000 
#    0.000    6.154    0.000    4.615    0.000    0.000 
#    0.000    0.000    0.000    0.000    0.000    0.000 
#
# Total GULP energy -290053.674135 kJ/mol
# GULP energy per Si atom -5577.955272 kJ/mol
# Density = 2.075935 g / cm^3
# Si number density = 20.806710 Si / 1000 Ang^3
#
#
#
# Elastic Constant Matrix: (Units=GPa)
#
#
# Indices 1 2 3 4 5 6 
#
# 1 87.3730 6.3733 17.3497 0.0000 0.0000 0.0000
# 2 6.3733 29.6130 17.7174 0.0000 0.0000 0.0000
# 3 17.3497 17.7174 120.3941 0.0000 0.0000 0.0000
# 4 0.0000 0.0000 0.0000 22.8461 0.0000 0.0000
# 5 0.0000 0.0000 0.0000 0.0000 18.6024 0.0000
# 6 0.0000 0.0000 0.0000 0.0000 0.0000 25.7972
#
#
#
# Elastic Compliance Matrix: (Units=1/GPa)
#
#
# Indices 1 2 3 4 5 6 
#
# 1 0.011858 -0.001677 -0.001462 0.000000 0.000000 0.000000
# 2 -0.001677 0.037267 -0.005242 0.000000 0.000000 0.000000
# 3 -0.001462 -0.005242 0.009288 0.000000 0.000000 0.000000
# 4 0.000000 0.000000 0.000000 0.043771 0.000000 0.000000
# 5 0.000000 0.000000 0.000000 0.000000 0.053756 0.000000
# 6 0.000000 0.000000 0.000000 0.000000 0.000000 0.038764
#
#
# Mechanical properties :
#
#
# Convention : Reuss Voigt Hill
#
# Bulk Modulus (GPa) = 24.01018 35.58454 29.79736
# Shear Modulus (GPa) = 22.18762 26.51178 24.34970
#
# Velocity S-wave (km/s) = 3.26907 3.57346 3.42465
# Velocity P-wave (km/s) = 5.08073 5.84514 5.47629
#
# Compressibility (1/GPa) = 0.04164900
#
# Stress axis : x y z
#
# Youngs Moduli (GPa) = 84.33242 26.83371 107.66320
#
# Poissons Ratio (x) = 0.04501 0.15740
# Poissons Ratio (y) = 0.14146 0.56442
# Poissons Ratio (z) = 0.12329 0.14068
#
# Static dielectric constant tensor:
#      x y z
#    x 1.823040 0.000000 0.000000 
#    y 0.000000 1.714530 0.000000 
#    z 0.000000 0.000000 1.747970 
# 
# From -- ./inp_files/47583.got.cif
#   From: 2010.05.17/outbox.cif.g08.bks.cpg/sg72_24_cif.got.tgz:47583.got - 2010.06.03 17:03:01.
