data_PCOD9527954
_publ_section_title
;
Structure prediction by ZEFSAII (Michael W. Deem and Ramdas Pophale) SiO2 
 PCOD9527954
Probable space group: I B A M
;
_chemical_formula_sum "Si O2"
_cell_formula_units_Z 64
_cell_length_a 9.228546
_cell_length_b 19.797180
_cell_length_c 16.078609
_cell_angle_alpha 90.000000
_cell_angle_beta 90.000000
_cell_angle_gamma 90.000000
_cell_volume 2937.548781
_symmetry_space_group_name_H-M "I B A M"
_symmetry_group_IT_number 72
_symmetry_cell_setting 'orthorhombic'
loop_
_space_group_symop_operation_xyz
x,y,z
-x,-y,z
x,-y,1/2-z
-x,y,1/2-z
-x,-y,-z
x,y,-z
-x,y,1/2+z
x,-y,1/2+z
1/2+x,1/2+y,1/2+z
1/2-x,1/2-y,1/2+z
1/2+x,1/2-y,-z
1/2-x,1/2+y,-z
1/2-x,1/2-y,1/2-z
1/2+x,1/2+y,1/2-z
1/2-x,1/2+y,z
1/2+x,1/2-y,z
loop_
_atom_site_type_symbol
_atom_site_label
_atom_site_fract_x
_atom_site_fract_y
_atom_site_fract_z
Si Si1 0.189596 0.539473 0.662675
Si Si2 0.832805 0.202772 0.646409
Si Si3 0.651773 0.673455 0.844777
Si Si4 0.097201 0.592903 0.907203
O O1 0.203222 0.500000 0.750000
O O2 0.311998 0.594763 0.649186
O O3 0.179085 0.479107 0.597022
O O4 0.039086 0.581292 0.653796
O O5 0.775732 0.276637 0.621601
O O6 0.846051 0.192246 0.746297
O O7 0.710016 0.150205 0.618211
O O8 0.995651 0.189409 0.616564
O O9 0.042359 0.605184 0.000000
#
# Coordination Sequence:
#
# PCOD9527954 Si02
#       4
#    16  16  16  16
#     4  11  21  38  64  95 124 167 215 259 306 372
#     4  10  21  39  62  92 122 159 201 266 307 367
#     4  10  21  38  64  92 120 153 214 259 308 357
#     4  11  23  40  60  92 130 168 206 254 316 378
#
# _framework density 21.786871000000001
#
# number of rings (size 3 to 8) (size 9 to 14) (size 15 to 20)
#    0.000    1.500    2.500    4.500    0.000    3.000 
#    0.000   10.000    0.000    0.000    0.000    0.000 
#    0.000    0.000    0.000    0.000    0.000    0.000 
#
# Total GULP energy -178667.974588 kJ/mol
# GULP energy per Si atom -5583.374206 kJ/mol
# Density = 2.173728 g / cm^3
# Si number density = 21.786871 Si / 1000 Ang^3
#
#
#
# Elastic Constant Matrix: (Units=GPa)
#
#
# Indices 1 2 3 4 5 6 
#
# 1 93.5415 56.3401 12.0865 0.0000 0.0000 0.0000
# 2 56.3401 112.1981 1.8037 0.0000 0.0000 0.0000
# 3 12.0865 1.8037 45.4604 0.0000 0.0000 0.0000
# 4 0.0000 0.0000 0.0000 -0.0323 0.0000 0.0000
# 5 0.0000 0.0000 0.0000 0.0000 8.8410 0.0000
# 6 0.0000 0.0000 0.0000 0.0000 0.0000 35.4501
#
#
#
# Elastic Compliance Matrix: (Units=1/GPa)
#
#
# Indices 1 2 3 4 5 6 
#
# 1 0.016000 -0.007971 -0.003938 -0.000003 0.000000 0.000000
# 2 -0.007971 0.012890 0.001608 0.000003 0.000000 0.000000
# 3 -0.003938 0.001608 0.022980 0.000011 0.000000 0.000000
# 4 -0.000003 0.000003 0.000011-30.931235 -0.000018 -0.000003
# 5 0.000000 0.000000 0.000000 -0.000018 0.113110 0.000000
# 6 0.000000 0.000000 0.000000 -0.000003 0.000000 0.028209
#
#
# Mechanical properties :
#
#
# Convention : Reuss Voigt Hill
#
# Bulk Modulus (GPa) = 31.98140 43.51784 37.74962
# Shear Modulus (GPa) = -0.16283 20.91639 10.37678
#
# Velocity S-wave (km/s) = -0.27368 3.10182 2.18477
# Velocity P-wave (km/s) = 3.82246 5.73115 4.87121
#
# Compressibility (1/GPa) = 0.03126818
#
# Stress axis : x y z
#
# Youngs Moduli (GPa) = 62.49878 77.58135 43.51560
#
# Poissons Ratio (x) = 0.61842 0.17135
# Poissons Ratio (y) = 0.49819 -0.06997
# Poissons Ratio (z) = 0.24610 -0.12474
#
# Static dielectric constant tensor:
#      x y z
#    x 1.811860 0.000000 0.000000 
#    y 0.000000 1.779100 0.000000 
#    z 0.000000 0.000000 1.824450 
# 
# From -- ./inp_files/27666.got.cif
#   From: 2010.05.17/outbox.cif.g08.bks.cpg/sg72_14_cif.got.tgz:27666.got - 2010.06.03 17:03:01.
