data_PCOD9527803
_publ_section_title
;
Structure prediction by ZEFSAII (Michael W. Deem and Ramdas Pophale) SiO2 
 PCOD9527803
Probable space group: I B A M
;
_chemical_formula_sum "Si O2"
_cell_formula_units_Z 96
_cell_length_a 17.536639
_cell_length_b 19.877676
_cell_length_c 14.445169
_cell_angle_alpha 90.000000
_cell_angle_beta 90.000000
_cell_angle_gamma 90.000000
_cell_volume 5035.407200
_symmetry_space_group_name_H-M "I B A M"
_symmetry_group_IT_number 72
_symmetry_cell_setting 'orthorhombic'
loop_
_space_group_symop_operation_xyz
x,y,z
-x,-y,z
x,-y,1/2-z
-x,y,1/2-z
-x,-y,-z
x,y,-z
-x,y,1/2+z
x,-y,1/2+z
1/2+x,1/2+y,1/2+z
1/2-x,1/2-y,1/2+z
1/2+x,1/2-y,-z
1/2-x,1/2+y,-z
1/2-x,1/2-y,1/2-z
1/2+x,1/2+y,1/2-z
1/2-x,1/2+y,z
1/2+x,1/2-y,z
loop_
_atom_site_type_symbol
_atom_site_label
_atom_site_fract_x
_atom_site_fract_y
_atom_site_fract_z
Si Si1 0.365831 0.983243 0.500000
Si Si2 0.888280 0.057793 0.500000
Si Si3 0.075370 0.073269 0.795130
Si Si4 0.244662 0.353170 0.500000
Si Si5 0.173457 0.693628 0.814624
Si Si6 0.690625 0.659816 0.813146
Si Si7 0.218718 0.924759 0.000000
Si Si8 0.579257 0.941978 0.193292
O O1 0.308557 0.919459 0.500000
O O2 0.417393 0.973455 0.409240
O O3 0.306350 0.046267 0.500000
O O4 0.933356 0.063749 0.595493
O O5 0.829792 0.120042 0.500000
O O6 0.838029 0.989357 0.500000
O O7 0.149319 0.114042 0.763467
O O8 0.000000 0.104799 0.750000
O O9 0.083690 0.000000 0.750000
O O10 0.223861 0.313764 0.592548
O O11 0.227080 0.681265 0.726057
O O12 0.144381 0.769980 0.818890
O O13 0.114755 0.631947 0.813026
O O14 0.700914 0.619203 0.908442
O O15 0.500000 0.935193 0.250000
O O16 0.625328 0.000000 0.250000
#
# Coordination Sequence:
#
# PCOD9527803 Si02
#       8
#     8   8  16   8  16  16   8  16
#     4   9  20  35  57  90 115 153 202 251 308 356
#     4  11  20  38  63  88 118 159 199 257 309 356
#     4  11  24  39  60  87 123 164 204 254 306 374
#     4   9  17  34  60  84 114 152 195 250 307 359
#     4  10  21  37  60  88 122 157 203 258 304 374
#     4  11  22  37  58  89 121 161 206 254 312 363
#     4  11  21  35  63  91 122 157 208 263 302 369
#     4  10  21  37  60  87 119 160 200 251 309 369
#
# _framework density 19.064993000000001
#
# number of rings (size 3 to 8) (size 9 to 14) (size 15 to 20)
#    0.000    1.667    3.333    1.500    0.000    4.667 
#    0.000    0.833    0.000    2.000    0.000    0.000 
#    0.000    0.000    0.000    0.000    0.000    0.000 
#
# Total GULP energy -267487.411818 kJ/mol
# GULP energy per Si atom -5572.654413 kJ/mol
# Density = 1.902160 g / cm^3
# Si number density = 19.064993 Si / 1000 Ang^3
#
#
#
# Elastic Constant Matrix: (Units=GPa)
#
#
# Indices 1 2 3 4 5 6 
#
# 1 56.3599 20.4647 30.7408 0.0000 0.0000 0.0000
# 2 20.4647 104.2767 37.6149 0.0000 0.0000 0.0000
# 3 30.7408 37.6149 173.2794 0.0000 0.0000 0.0000
# 4 0.0000 0.0000 0.0000 19.6783 0.0000 0.0000
# 5 0.0000 0.0000 0.0000 0.0000 23.5583 0.0000
# 6 0.0000 0.0000 0.0000 0.0000 0.0000 17.8360
#
#
#
# Elastic Compliance Matrix: (Units=1/GPa)
#
#
# Indices 1 2 3 4 5 6 
#
# 1 0.020439 -0.002933 -0.002989 0.000000 0.000000 0.000000
# 2 -0.002933 0.010825 -0.001830 0.000000 0.000000 0.000000
# 3 -0.002989 -0.001830 0.006699 0.000000 0.000000 0.000000
# 4 0.000000 0.000000 0.000000 0.050817 0.000000 0.000000
# 5 0.000000 0.000000 0.000000 0.000000 0.042448 0.000000
# 6 0.000000 0.000000 0.000000 0.000000 0.000000 0.056067
#
#
# Mechanical properties :
#
#
# Convention : Reuss Voigt Hill
#
# Bulk Modulus (GPa) = 44.52565 56.83964 50.68265
# Shear Modulus (GPa) = 23.77737 28.55423 26.16580
#
# Velocity S-wave (km/s) = 3.53537 3.87425 3.70868
# Velocity P-wave (km/s) = 6.33012 7.06339 6.70678
#
# Compressibility (1/GPa) = 0.02245897
#
# Stress axis : x y z
#
# Youngs Moduli (GPa) = 48.92722 92.37494 149.28692
#
# Poissons Ratio (x) = 0.27092 0.44626
# Poissons Ratio (y) = 0.14350 0.27314
# Poissons Ratio (z) = 0.14626 0.16901
#
# Static dielectric constant tensor:
#      x y z
#    x 1.717180 0.000000 0.000000 
#    y 0.000000 1.691540 0.000000 
#    z 0.000000 0.000000 1.680850 
# 
# From -- ./inp_files/14819.got.cif
#   From: 2010.05.17/outbox.cif.g08.bks.cpg/sg72_8_cif.got.tgz:14819.got - 2010.06.03 17:03:01.
