data_PCOD9527274
_publ_section_title
;
Structure prediction by ZEFSAII (Michael W. Deem and Ramdas Pophale) SiO2 
 PCOD9527274
Probable space group: I B A M
;
_chemical_formula_sum "Si O2"
_cell_formula_units_Z 92
_cell_length_a 8.731051
_cell_length_b 19.340900
_cell_length_c 23.188191
_cell_angle_alpha 90.000000
_cell_angle_beta 90.000000
_cell_angle_gamma 90.000000
_cell_volume 3915.705972
_symmetry_space_group_name_H-M "I B A M"
_symmetry_group_IT_number 72
_symmetry_cell_setting 'orthorhombic'
loop_
_space_group_symop_operation_xyz
x,y,z
-x,-y,z
x,-y,1/2-z
-x,y,1/2-z
-x,-y,-z
x,y,-z
-x,y,1/2+z
x,-y,1/2+z
1/2+x,1/2+y,1/2+z
1/2-x,1/2-y,1/2+z
1/2+x,1/2-y,-z
1/2-x,1/2+y,-z
1/2-x,1/2-y,1/2-z
1/2+x,1/2+y,1/2-z
1/2-x,1/2+y,z
1/2+x,1/2-y,z
loop_
_atom_site_type_symbol
_atom_site_label
_atom_site_fract_x
_atom_site_fract_y
_atom_site_fract_z
Si Si1 0.686771 0.648806 0.063081
Si Si2 0.500000 0.500000 0.662601
Si Si3 0.500000 0.000000 0.250000
Si Si4 0.820635 0.300519 0.113797
Si Si5 0.903003 0.264676 0.694508
Si Si6 0.649091 0.418085 0.063492
Si Si7 0.740192 0.904534 0.315361
O O1 0.694343 0.730080 0.077368
O O2 0.508094 0.626736 0.062505
O O3 0.762373 0.608085 0.115748
O O4 0.752286 0.634915 0.000000
O O5 0.376638 0.466499 0.618451
O O6 0.402453 0.557868 0.695744
O O7 0.608017 0.951896 0.289121
O O8 0.686968 0.295524 0.162053
O O9 0.789151 0.367014 0.075616
O O10 0.977988 0.296482 0.148281
O O11 0.785802 0.327107 0.708884
O O12 0.000000 0.245531 0.750000
O O13 0.661219 0.451895 0.000000
#
# Coordination Sequence:
#
# PCOD9527274 Si02
#       7
#    16   8   4  16  16  16  16
#     4   9  19  40  65  94 132 170 216 273 338 411
#     4  10  23  43  66  88 130 178 234 266 332 418
#     4  12  24  46  66  92 140 174 228 292 340 386
#     4  11  21  38  63  96 130 169 217 267 339 413
#     4  11  23  42  63  94 133 173 218 278 336 394
#     4  10  20  37  64  95 128 168 216 275 331 404
#     4  10  24  42  67  93 130 178 226 282 336 395
#
# _framework density 23.495124000000001
#
# number of rings (size 3 to 8) (size 9 to 14) (size 15 to 20)
#    0.000    1.739    2.609    1.304    2.435    1.043 
#    0.000    3.043    0.000    0.000    0.000    0.000 
#    0.000    0.000    0.000    0.000    0.000    0.000 
#
# Total GULP energy -257264.696028 kJ/mol
# GULP energy per Si atom -5592.710783 kJ/mol
# Density = 2.344165 g / cm^3
# Si number density = 23.495124 Si / 1000 Ang^3
#
#
#
# Elastic Constant Matrix: (Units=GPa)
#
#
# Indices 1 2 3 4 5 6 
#
# 1 85.8032 13.6091 45.2668 0.0000 0.0000 0.0000
# 2 13.6091 64.8084 11.2413 0.0000 0.0000 0.0000
# 3 45.2668 11.2413 107.4852 0.0000 0.0000 0.0000
# 4 0.0000 0.0000 0.0000 -1.4511 0.0000 0.0000
# 5 0.0000 0.0000 0.0000 0.0000 25.8388 0.0000
# 6 0.0000 0.0000 0.0000 0.0000 0.0000 46.5101
#
#
#
# Elastic Compliance Matrix: (Units=1/GPa)
#
#
# Indices 1 2 3 4 5 6 
#
# 1 0.015267 -0.002129 -0.006207 0.000000 0.000000 0.000000
# 2 -0.002129 0.016012 -0.000778 0.000000 0.000000 0.000000
# 3 -0.006207 -0.000778 0.011999 0.000000 0.000000 0.000000
# 4 0.000000 0.000000 0.000000 -0.689122 0.000000 0.000000
# 5 0.000000 0.000000 0.000000 0.000000 0.038701 0.000000
# 6 0.000000 0.000000 0.000000 0.000000 0.000000 0.021501
#
#
# Mechanical properties :
#
#
# Convention : Reuss Voigt Hill
#
# Bulk Modulus (GPa) = 39.92034 44.25903 42.08968
# Shear Modulus (GPa) = -8.94352 26.71154 8.88401
#
# Velocity S-wave (km/s) = -1.95315 3.37545 1.94664
# Velocity P-wave (km/s) = 3.45563 5.83695 4.79642
#
# Compressibility (1/GPa) = 0.02504989
#
# Stress axis : x y z
#
# Youngs Moduli (GPa) = 65.50148 62.45254 83.34059
#
# Poissons Ratio (x) = 0.13298 0.51728
# Poissons Ratio (y) = 0.13947 0.06483
# Poissons Ratio (z) = 0.40656 0.04858
#
# Static dielectric constant tensor:
#      x y z
#    x 1.880140 0.000000 0.000000 
#    y 0.000000 1.884220 0.000000 
#    z 0.000000 0.000000 1.938830 
# 
# From -- ./inp_files/42317.got.cif
#   From: 2010.05.17/outbox.cif.g08.bks.cpg/sg72_22_cif.got.tgz:42317.got - 2010.06.03 17:03:01.
