data_PCOD9527041
_publ_section_title
;
Structure prediction by ZEFSAII (Michael W. Deem and Ramdas Pophale) SiO2 
 PCOD9527041
Probable space group: I B A M
;
_chemical_formula_sum "Si O2"
_cell_formula_units_Z 112
_cell_length_a 22.467341
_cell_length_b 11.298143
_cell_length_c 24.913881
_cell_angle_alpha 90.000000
_cell_angle_beta 90.000000
_cell_angle_gamma 90.000000
_cell_volume 6324.120405
_symmetry_space_group_name_H-M "I B A M"
_symmetry_group_IT_number 72
_symmetry_cell_setting 'orthorhombic'
loop_
_space_group_symop_operation_xyz
x,y,z
-x,-y,z
x,-y,1/2-z
-x,y,1/2-z
-x,-y,-z
x,y,-z
-x,y,1/2+z
x,-y,1/2+z
1/2+x,1/2+y,1/2+z
1/2-x,1/2-y,1/2+z
1/2+x,1/2-y,-z
1/2-x,1/2+y,-z
1/2-x,1/2-y,1/2-z
1/2+x,1/2+y,1/2-z
1/2-x,1/2+y,z
1/2+x,1/2-y,z
loop_
_atom_site_type_symbol
_atom_site_label
_atom_site_fract_x
_atom_site_fract_y
_atom_site_fract_z
Si Si1 0.433300 0.028954 0.812877
Si Si2 0.789931 0.945893 0.690890
Si Si3 0.170013 0.121383 0.902772
Si Si4 0.876967 0.237889 0.142440
Si Si5 0.300707 0.106576 0.059708
Si Si6 0.433910 0.550756 0.562174
Si Si7 0.169986 0.611279 0.628786
O O1 0.415077 0.163326 0.826830
O O2 0.500000 0.000000 0.831032
O O3 0.429525 0.000000 0.750000
O O4 0.386263 0.946470 0.842675
O O5 0.838289 0.841760 0.683257
O O6 0.726867 0.898493 0.668491
O O7 0.784939 0.000000 0.750000
O O8 0.811312 0.049067 0.650594
O O9 0.229816 0.121201 0.937952
O O10 0.156876 0.255882 0.888102
O O11 0.115298 0.051969 0.929149
O O12 0.831021 0.306838 0.103090
O O13 0.916261 0.153170 0.104276
O O14 0.314578 0.973050 0.078427
O O15 0.323056 0.130884 0.000000
O O16 0.500000 0.500000 0.571981
O O17 0.430962 0.591217 0.500000
#
# Coordination Sequence:
#
# PCOD9527041 Si02
#       7
#    16  16  16  16  16  16  16
#     4  10  23  40  60  84 111 159 199 236 291 343
#     4  10  21  36  58  89 118 153 186 232 299 350
#     4  10  21  36  56  88 117 146 193 236 283 342
#     4  10  21  40  58  85 118 149 192 243 287 351
#     4  10  20  36  58  84 115 150 182 232 299 348
#     4  10  22  39  60  84 113 157 198 237 291 341
#     4  10  21  37  57  87 119 147 192 240 286 350
#
# _framework density 17.709973000000002
#
# number of rings (size 3 to 8) (size 9 to 14) (size 15 to 20)
#    0.000    2.000    1.429    1.286    4.000    1.714 
#    0.000    0.000    0.000    6.000    0.000    0.000 
#    0.000    0.000    0.000    0.000    0.000    0.000 
#
# Total GULP energy -312595.430663 kJ/mol
# GULP energy per Si atom -5582.061262 kJ/mol
# Density = 1.766966 g / cm^3
# Si number density = 17.709973 Si / 1000 Ang^3
#
#
#
# Elastic Constant Matrix: (Units=GPa)
#
#
# Indices 1 2 3 4 5 6 
#
# 1 117.5787 46.3805 29.9033 0.0000 0.0000 0.0000
# 2 46.3805 127.1895 29.2874 0.0000 0.0000 0.0000
# 3 29.9033 29.2874 82.1387 0.0000 0.0000 0.0000
# 4 0.0000 0.0000 0.0000 12.4822 0.0000 0.0000
# 5 0.0000 0.0000 0.0000 0.0000 45.6466 0.0000
# 6 0.0000 0.0000 0.0000 0.0000 0.0000 18.6379
#
#
#
# Elastic Compliance Matrix: (Units=1/GPa)
#
#
# Indices 1 2 3 4 5 6 
#
# 1 0.010442 -0.003195 -0.002662 0.000000 0.000000 0.000000
# 2 -0.003195 0.009543 -0.002240 0.000000 0.000000 0.000000
# 3 -0.002662 -0.002240 0.013942 0.000000 0.000000 0.000000
# 4 0.000000 0.000000 0.000000 0.080114 0.000000 0.000000
# 5 0.000000 0.000000 0.000000 0.000000 0.021907 0.000000
# 6 0.000000 0.000000 0.000000 0.000000 0.000000 0.053654
#
#
# Mechanical properties :
#
#
# Convention : Reuss Voigt Hill
#
# Bulk Modulus (GPa) = 56.38880 59.78325 58.08602
# Shear Modulus (GPa) = 23.61739 30.10904 26.86321
#
# Velocity S-wave (km/s) = 3.65576 4.12772 3.89889
# Velocity P-wave (km/s) = 7.05186 7.51981 7.28959
#
# Compressibility (1/GPa) = 0.01773402
#
# Stress axis : x y z
#
# Youngs Moduli (GPa) = 95.76428 104.78916 71.72380
#
# Poissons Ratio (x) = 0.33478 0.19096
# Poissons Ratio (y) = 0.30595 0.16063
# Poissons Ratio (z) = 0.25497 0.23468
#
# Static dielectric constant tensor:
#      x y z
#    x 1.587440 0.000000 0.000000 
#    y 0.000000 1.594860 0.000000 
#    z 0.000000 0.000000 1.596390 
# 
# From -- ./inp_files/43511.got.cif
#   From: 2010.05.17/outbox.cif.g08.bks.cpg/sg72_22_cif.got.tgz:43511.got - 2010.06.03 17:03:01.
