data_PCOD9527140
_publ_section_title
;
Structure prediction by ZEFSAII (Michael W. Deem and Ramdas Pophale) SiO2 
 PCOD9527140
Probable space group: I B A M
;
_chemical_formula_sum "Si O2"
_cell_formula_units_Z 80
_cell_length_a 9.883720
_cell_length_b 15.603581
_cell_length_c 24.786417
_cell_angle_alpha 90.000000
_cell_angle_beta 90.000000
_cell_angle_gamma 90.000000
_cell_volume 3822.596565
_symmetry_space_group_name_H-M "I B A M"
_symmetry_group_IT_number 72
_symmetry_cell_setting 'orthorhombic'
loop_
_space_group_symop_operation_xyz
x,y,z
-x,-y,z
x,-y,1/2-z
-x,y,1/2-z
-x,-y,-z
x,y,-z
-x,y,1/2+z
x,-y,1/2+z
1/2+x,1/2+y,1/2+z
1/2-x,1/2-y,1/2+z
1/2+x,1/2-y,-z
1/2-x,1/2+y,-z
1/2-x,1/2-y,1/2-z
1/2+x,1/2+y,1/2-z
1/2-x,1/2+y,z
1/2+x,1/2-y,z
loop_
_atom_site_type_symbol
_atom_site_label
_atom_site_fract_x
_atom_site_fract_y
_atom_site_fract_z
Si Si1 0.582868 0.117501 0.305762
Si Si2 0.670474 0.714478 0.864189
Si Si3 0.688198 0.052565 0.155235
Si Si4 0.097012 0.781565 0.437783
Si Si5 0.150270 0.978685 0.439244
O O1 0.500000 0.127545 0.250000
O O2 0.656437 0.203060 0.325354
O O3 0.460541 0.093577 0.346105
O O4 0.676666 0.032865 0.307847
O O5 0.706521 0.628518 0.830768
O O6 0.793506 0.725612 0.906199
O O7 0.536530 0.710815 0.900924
O O8 0.737393 0.018766 0.097921
O O9 0.069090 0.755191 0.500000
O O10 0.160640 0.876698 0.440203
O O11 0.156136 0.013388 0.500000
O O12 0.000000 0.000000 0.417887
#
# Coordination Sequence:
#
# PCOD9527140 Si02
#       5
#    16  16  16  16  16
#     4  11  26  48  67  95 137 180 227 294 352 401
#     4  12  23  42  69 103 136 183 235 282 341 415
#     4  11  22  42  69  93 133 177 228 280 346 412
#     4  11  23  40  63 100 146 185 223 276 342 412
#     4  10  20  36  62  94 134 177 217 274 339 403
#
# _framework density 20.928183000000001
#
# number of rings (size 3 to 8) (size 9 to 14) (size 15 to 20)
#    0.000    1.000    6.000    1.800    0.000    1.600 
#    0.000    2.000    0.000    0.000    0.000    0.000 
#    0.000    0.000    0.000    0.000    0.000    0.000 
#
# Total GULP energy -223253.783212 kJ/mol
# GULP energy per Si atom -5581.344580 kJ/mol
# Density = 2.088055 g / cm^3
# Si number density = 20.928183 Si / 1000 Ang^3
#
#
#
# Elastic Constant Matrix: (Units=GPa)
#
#
# Indices 1 2 3 4 5 6 
#
# 1 90.9648 28.8601 50.2058 0.0000 0.0000 0.0000
# 2 28.8601 141.7449 57.9343 0.0000 0.0000 0.0000
# 3 50.2058 57.9343 83.2134 0.0000 0.0000 0.0000
# 4 0.0000 0.0000 0.0000 17.5641 0.0000 0.0000
# 5 0.0000 0.0000 0.0000 0.0000 24.2789 0.0000
# 6 0.0000 0.0000 0.0000 0.0000 0.0000 28.7994
#
#
#
# Elastic Compliance Matrix: (Units=1/GPa)
#
#
# Indices 1 2 3 4 5 6 
#
# 1 0.016582 0.000996 -0.010698 0.000000 0.000000 0.000000
# 2 0.000996 0.009921 -0.007508 0.000000 0.000000 0.000000
# 3 -0.010698 -0.007508 0.023699 0.000000 0.000000 0.000000
# 4 0.000000 0.000000 0.000000 0.056934 0.000000 0.000000
# 5 0.000000 0.000000 0.000000 0.000000 0.041188 0.000000
# 6 0.000000 0.000000 0.000000 0.000000 0.000000 0.034723
#
#
# Mechanical properties :
#
#
# Convention : Reuss Voigt Hill
#
# Bulk Modulus (GPa) = 63.36347 65.54704 64.45526
# Shear Modulus (GPa) = 22.44901 26.05669 24.25285
#
# Velocity S-wave (km/s) = 3.27872 3.53236 3.40790
# Velocity P-wave (km/s) = 6.68398 6.92999 6.80810
#
# Compressibility (1/GPa) = 0.01578196
#
# Stress axis : x y z
#
# Youngs Moduli (GPa) = 60.30757 100.79824 42.19568
#
# Poissons Ratio (x) = -0.10044 0.45141
# Poissons Ratio (y) = -0.06009 0.31681
# Poissons Ratio (z) = 0.64517 0.75681
#
# Static dielectric constant tensor:
#      x y z
#    x 1.733050 0.000000 0.000000 
#    y 0.000000 1.814080 0.000000 
#    z 0.000000 0.000000 1.775880 
# 
# From -- ./inp_files/47186.got.cif
#   From: 2010.05.17/outbox.cif.g08.bks.cpg/sg72_24_cif.got.tgz:47186.got - 2010.06.03 17:03:01.
