data_PCOD9527914
_publ_section_title
;
Structure prediction by ZEFSAII (Michael W. Deem and Ramdas Pophale) SiO2 
 PCOD9527914
Probable space group: I B A M
;
_chemical_formula_sum "Si O2"
_cell_formula_units_Z 80
_cell_length_a 11.593175
_cell_length_b 13.325704
_cell_length_c 25.825574
_cell_angle_alpha 90.000000
_cell_angle_beta 90.000000
_cell_angle_gamma 90.000000
_cell_volume 3989.721093
_symmetry_space_group_name_H-M "I B A M"
_symmetry_group_IT_number 72
_symmetry_cell_setting 'orthorhombic'
loop_
_space_group_symop_operation_xyz
x,y,z
-x,-y,z
x,-y,1/2-z
-x,y,1/2-z
-x,-y,-z
x,y,-z
-x,y,1/2+z
x,-y,1/2+z
1/2+x,1/2+y,1/2+z
1/2-x,1/2-y,1/2+z
1/2+x,1/2-y,-z
1/2-x,1/2+y,-z
1/2-x,1/2-y,1/2-z
1/2+x,1/2+y,1/2-z
1/2-x,1/2+y,z
1/2+x,1/2-y,z
loop_
_atom_site_type_symbol
_atom_site_label
_atom_site_fract_x
_atom_site_fract_y
_atom_site_fract_z
Si Si1 0.956353 0.396862 0.133425
Si Si2 0.254270 0.436758 0.440976
Si Si3 0.594353 0.575582 0.134590
Si Si4 0.286608 0.248972 0.809128
Si Si5 0.898326 0.222758 0.395403
O O1 0.865138 0.423487 0.088850
O O2 0.891632 0.325344 0.174895
O O3 0.000000 0.500000 0.157674
O O4 0.060164 0.336669 0.105944
O O5 0.243473 0.469517 0.500000
O O6 0.331937 0.511959 0.406438
O O7 0.317877 0.327933 0.438104
O O8 0.500000 0.500000 0.159497
O O9 0.674385 0.639799 0.172618
O O10 0.515099 0.658026 0.106086
O O11 0.250000 0.250000 0.750000
O O12 0.178045 0.212587 0.843337
#
# Coordination Sequence:
#
# PCOD9527914 Si02
#       5
#    16  16  16  16  16
#     4  10  21  39  58  85 123 155 193 244 292 349
#     4  10  21  38  61  87 115 153 199 245 296 351
#     4   9  19  37  58  85 119 151 193 245 291 345
#     4  10  21  40  62  86 119 157 197 241 293 351
#     4   9  20  38  57  82 117 152 192 244 292 346
#
# _framework density 20.051527
#
# number of rings (size 3 to 8) (size 9 to 14) (size 15 to 20)
#    0.000    2.400    0.000    1.200    0.000    8.000 
#    0.000   38.000    0.000    0.000    0.000    0.000 
#    0.000    0.000    0.000    0.000    0.000    0.000 
#
# Total GULP energy -223002.346743 kJ/mol
# GULP energy per Si atom -5575.058669 kJ/mol
# Density = 2.000589 g / cm^3
# Si number density = 20.051527 Si / 1000 Ang^3
#
#
#
# Elastic Constant Matrix: (Units=GPa)
#
#
# Indices 1 2 3 4 5 6 
#
# 1 56.4621 20.9451 32.0400 0.0000 0.0000 0.0000
# 2 20.9451 112.2361 35.5567 0.0000 0.0000 0.0000
# 3 32.0400 35.5567 128.1258 0.0000 0.0000 0.0000
# 4 0.0000 0.0000 0.0000 19.9669 0.0000 0.0000
# 5 0.0000 0.0000 0.0000 0.0000 1.3252 0.0000
# 6 0.0000 0.0000 0.0000 0.0000 0.0000 48.7121
#
#
#
# Elastic Compliance Matrix: (Units=1/GPa)
#
#
# Indices 1 2 3 4 5 6 
#
# 1 0.021263 -0.002504 -0.004622 0.000000 0.000000 0.000000
# 2 -0.002504 0.010063 -0.002167 0.000000 0.000000 0.000000
# 3 -0.004622 -0.002167 0.009562 0.000000 0.000000 0.000000
# 4 0.000000 0.000000 0.000000 0.050083 0.000000 0.000000
# 5 0.000000 0.000000 0.000000 0.000000 0.754616 0.000000
# 6 0.000000 0.000000 0.000000 0.000000 0.000000 0.020529
#
#
# Mechanical properties :
#
#
# Convention : Reuss Voigt Hill
#
# Bulk Modulus (GPa) = 44.83713 52.65639 48.74676
# Shear Modulus (GPa) = 5.60453 27.88632 16.74543
#
# Velocity S-wave (km/s) = 1.67366 3.73330 2.89298
# Velocity P-wave (km/s) = 5.11315 6.70081 5.96009
#
# Compressibility (1/GPa) = 0.02230294
#
# Stress axis : x y z
#
# Youngs Moduli (GPa) = 47.03076 99.36996 104.58076
#
# Poissons Ratio (x) = 0.24878 0.48340
# Poissons Ratio (y) = 0.11775 0.22659
# Poissons Ratio (z) = 0.21739 0.21530
#
# Static dielectric constant tensor:
#      x y z
#    x 1.726710 0.000000 0.000000 
#    y 0.000000 1.788500 0.000000 
#    z 0.000000 0.000000 1.656250 
# 
# From -- ./inp_files/43107.got.cif
#   From: 2010.05.17/outbox.cif.g08.bks.cpg/sg72_22_cif.got.tgz:43107.got - 2010.06.03 17:03:01.
