data_PCOD9527030
_publ_section_title
;
Structure prediction by ZEFSAII (Michael W. Deem and Ramdas Pophale) SiO2 
 PCOD9527030
Probable space group: I B A M
;
_chemical_formula_sum "Si O2"
_cell_formula_units_Z 104
_cell_length_a 31.980820
_cell_length_b 7.875725
_cell_length_c 19.896686
_cell_angle_alpha 90.000000
_cell_angle_beta 90.000000
_cell_angle_gamma 90.000000
_cell_volume 5011.420953
_symmetry_space_group_name_H-M "I B A M"
_symmetry_group_IT_number 72
_symmetry_cell_setting 'orthorhombic'
loop_
_space_group_symop_operation_xyz
x,y,z
-x,-y,z
x,-y,1/2-z
-x,y,1/2-z
-x,-y,-z
x,y,-z
-x,y,1/2+z
x,-y,1/2+z
1/2+x,1/2+y,1/2+z
1/2-x,1/2-y,1/2+z
1/2+x,1/2-y,-z
1/2-x,1/2+y,-z
1/2-x,1/2-y,1/2-z
1/2+x,1/2+y,1/2-z
1/2-x,1/2+y,z
1/2+x,1/2-y,z
loop_
_atom_site_type_symbol
_atom_site_label
_atom_site_fract_x
_atom_site_fract_y
_atom_site_fract_z
Si Si1 0.396034 0.678737 0.626061
Si Si2 0.311756 0.276792 0.619739
Si Si3 0.095054 0.170494 0.077449
Si Si4 0.667642 0.725895 0.000000
Si Si5 0.829975 0.694068 0.731736
Si Si6 0.275729 0.100411 0.111526
Si Si7 0.450888 0.982047 0.419272
O O1 0.414967 0.490501 0.623456
O O2 0.367193 0.690488 0.559436
O O3 0.365895 0.716715 0.688620
O O4 0.430405 0.824591 0.618657
O O5 0.354731 0.306274 0.581195
O O6 0.320814 0.288210 0.698988
O O7 0.273837 0.399672 0.601331
O O8 0.295121 0.087058 0.605990
O O9 0.073650 0.345682 0.099057
O O10 0.082484 0.139714 0.000000
O O11 0.701508 0.784073 0.057714
O O12 0.842838 0.500000 0.750000
O O13 0.788987 0.672386 0.684724
O O14 0.444958 0.957785 0.500000
O O15 0.500000 0.000000 0.406730
#
# Coordination Sequence:
#
# PCOD9527030 Si02
#       7
#    16  16  16   8  16  16  16
#     4  11  21  40  67  90 132 166 209 268 325 391
#     4  11  24  39  57  88 120 168 220 268 312 375
#     4  11  24  39  62  95 125 167 219 262 323 393
#     4  10  20  36  57  85 119 171 201 256 326 359
#     4   9  20  40  60  85 120 175 217 261 317 374
#     4  10  23  35  58  80 123 162 217 270 315 367
#     4  10  21  39  67  99 132 165 203 263 335 401
#
# _framework density 20.752596
#
# number of rings (size 3 to 8) (size 9 to 14) (size 15 to 20)
#    0.000    1.692    1.538    3.231    8.615    1.231 
#    0.000    2.308    0.000    4.154    0.000    4.308 
#    0.000    0.000    0.000    0.000    0.000    0.000 
#
# Total GULP energy -289802.080327 kJ/mol
# GULP energy per Si atom -5573.116929 kJ/mol
# Density = 2.070536 g / cm^3
# Si number density = 20.752596 Si / 1000 Ang^3
#
#
#
# Elastic Constant Matrix: (Units=GPa)
#
#
# Indices 1 2 3 4 5 6 
#
# 1 90.9714 50.7324 -11.5620 0.0000 0.0000 0.0000
# 2 50.7324 86.0627 -9.7814 0.0000 0.0000 0.0000
# 3 -11.5620 -9.7814 31.5056 0.0000 0.0000 0.0000
# 4 0.0000 0.0000 0.0000 -1.6644 0.0000 0.0000
# 5 0.0000 0.0000 0.0000 0.0000 15.8485 0.0000
# 6 0.0000 0.0000 0.0000 0.0000 0.0000 14.1421
#
#
#
# Elastic Compliance Matrix: (Units=1/GPa)
#
#
# Indices 1 2 3 4 5 6 
#
# 1 0.016678 -0.009470 0.003180 0.000000 0.000000 0.000000
# 2 -0.009470 0.017421 0.001934 0.000000 0.000000 0.000000
# 3 0.003180 0.001934 0.033508 0.000000 0.000000 0.000000
# 4 0.000000 0.000000 0.000000 -0.600816 0.000000 0.000000
# 5 0.000000 0.000000 0.000000 0.000000 0.063097 0.000000
# 6 0.000000 0.000000 0.000000 0.000000 0.000000 0.070711
#
#
# Mechanical properties :
#
#
# Convention : Reuss Voigt Hill
#
# Bulk Modulus (GPa) = 16.97929 29.70198 23.34063
# Shear Modulus (GPa) = -13.47503 17.60861 2.06679
#
# Velocity S-wave (km/s) = -2.55094 2.91607 0.99904
# Velocity P-wave (km/s) = 0.69053 5.06768 3.54997
#
# Compressibility (1/GPa) = 0.05889529
#
# Stress axis : x y z
#
# Youngs Moduli (GPa) = 59.96019 57.40049 29.84379
#
# Poissons Ratio (x) = 0.54357 -0.09492
# Poissons Ratio (y) = 0.56781 -0.05770
# Poissons Ratio (z) = -0.19070 -0.11098
#
# Static dielectric constant tensor:
#      x y z
#    x 1.699530 0.000000 0.000000 
#    y 0.000000 1.827350 0.000000 
#    z 0.000000 0.000000 1.720380 
# 
# From -- ./inp_files/41056.got.cif
#   From: 2010.05.17/outbox.cif.g08.bks.cpg/sg72_21_cif.got.tgz:41056.got - 2010.06.03 17:03:01.
