data_PCOD9527116
_publ_section_title
;
Structure prediction by ZEFSAII (Michael W. Deem and Ramdas Pophale) SiO2 
 PCOD9527116
Probable space group: I B A M
;
_chemical_formula_sum "Si O2"
_cell_formula_units_Z 120
_cell_length_a 11.744961
_cell_length_b 26.949964
_cell_length_c 18.932459
_cell_angle_alpha 90.000000
_cell_angle_beta 90.000000
_cell_angle_gamma 90.000000
_cell_volume 5992.620745
_symmetry_space_group_name_H-M "I B A M"
_symmetry_group_IT_number 72
_symmetry_cell_setting 'orthorhombic'
loop_
_space_group_symop_operation_xyz
x,y,z
-x,-y,z
x,-y,1/2-z
-x,y,1/2-z
-x,-y,-z
x,y,-z
-x,y,1/2+z
x,-y,1/2+z
1/2+x,1/2+y,1/2+z
1/2-x,1/2-y,1/2+z
1/2+x,1/2-y,-z
1/2-x,1/2+y,-z
1/2-x,1/2-y,1/2-z
1/2+x,1/2+y,1/2-z
1/2-x,1/2+y,z
1/2+x,1/2-y,z
loop_
_atom_site_type_symbol
_atom_site_label
_atom_site_fract_x
_atom_site_fract_y
_atom_site_fract_z
Si Si1 0.557002 0.850540 0.860798
Si Si2 0.772547 0.414231 0.500000
Si Si3 0.844158 0.847041 0.376083
Si Si4 0.294557 0.764473 0.584910
Si Si5 0.781150 0.573805 0.580629
Si Si6 0.340551 0.116714 0.711914
Si Si7 0.899622 0.159252 0.415168
Si Si8 0.626761 0.978199 0.631073
O O1 0.600613 0.797510 0.886390
O O2 0.606023 0.891778 0.914124
O O3 0.618661 0.865609 0.787813
O O4 0.424235 0.855844 0.844775
O O5 0.702851 0.382323 0.561717
O O6 0.838816 0.445971 0.437309
O O7 0.800839 0.791110 0.388272
O O8 0.787342 0.868085 0.305199
O O9 0.980046 0.844725 0.377832
O O10 0.300922 0.764425 0.500000
O O11 0.179540 0.794024 0.605113
O O12 0.768520 0.556384 0.500000
O O13 0.677606 0.610652 0.596845
O O14 0.792670 0.526464 0.630184
O O15 0.361716 0.058757 0.697219
O O16 0.919951 0.162968 0.500000
O O17 0.500000 0.000000 0.626224
#
# Coordination Sequence:
#
# PCOD9527116 Si02
#       8
#    16   8  16  16  16  16  16  16
#     4  10  21  42  57  88 127 157 209 254 303 373
#     4  10  21  34  53  90 128 146 194 257 303 353
#     4  11  21  39  58  89 125 163 199 252 309 368
#     4  10  21  38  64  90 115 165 208 252 314 368
#     4  10  20  36  61  87 117 158 206 253 306 371
#     4  10  24  38  59  89 128 163 199 258 308 366
#     4   9  19  37  56  85 125 155 201 253 306 366
#     4  11  20  36  59  91 123 161 202 253 321 370
#
# _framework density 20.024628
#
# number of rings (size 3 to 8) (size 9 to 14) (size 15 to 20)
#    0.000    1.867    3.333    1.400    1.867    1.067 
#    4.800    6.000    0.000    0.000    0.000    7.467 
#    0.000    0.000    0.000    0.000    0.000    0.000 
#
# Total GULP energy -334024.452531 kJ/mol
# GULP energy per Si atom -5567.074209 kJ/mol
# Density = 1.997905 g / cm^3
# Si number density = 20.024628 Si / 1000 Ang^3
#
#
#
# Elastic Constant Matrix: (Units=GPa)
#
#
# Indices 1 2 3 4 5 6 
#
# 1 107.6544 41.3351 1.6691 0.0000 0.0000 0.0000
# 2 41.3351 98.7018 7.4236 0.0000 0.0000 0.0000
# 3 1.6691 7.4236 23.2487 0.0000 0.0000 0.0000
# 4 0.0000 0.0000 0.0000 8.5216 0.0000 0.0000
# 5 0.0000 0.0000 0.0000 0.0000 23.5543 0.0000
# 6 0.0000 0.0000 0.0000 0.0000 0.0000 22.0271
#
#
#
# Elastic Compliance Matrix: (Units=1/GPa)
#
#
# Indices 1 2 3 4 5 6 
#
# 1 0.011080 -0.004693 0.000703 0.000000 0.000000 0.000000
# 2 -0.004693 0.012369 -0.003613 0.000000 0.000000 0.000000
# 3 0.000703 -0.003613 0.044116 0.000000 0.000000 0.000000
# 4 0.000000 0.000000 0.000000 0.117350 0.000000 0.000000
# 5 0.000000 0.000000 0.000000 0.000000 0.042455 0.000000
# 6 0.000000 0.000000 0.000000 0.000000 0.000000 0.045399
#
#
# Mechanical properties :
#
#
# Convention : Reuss Voigt Hill
#
# Bulk Modulus (GPa) = 19.09861 36.71785 27.90823
# Shear Modulus (GPa) = 16.37056 22.76573 19.56814
#
# Velocity S-wave (km/s) = 2.86233 3.37543 3.12942
# Velocity P-wave (km/s) = 4.52573 5.79375 5.19855
#
# Compressibility (1/GPa) = 0.05235983
#
# Stress axis : x y z
#
# Youngs Moduli (GPa) = 90.25241 80.84963 22.66741
#
# Poissons Ratio (x) = 0.37943 -0.01594
# Poissons Ratio (y) = 0.42356 0.08189
# Poissons Ratio (z) = -0.06346 0.29207
#
# Static dielectric constant tensor:
#      x y z
#    x 1.706120 0.000000 0.000000 
#    y 0.000000 1.709910 0.000000 
#    z 0.000000 0.000000 1.722590 
# 
# From -- ./inp_files/37465.got.cif
#   From: 2010.05.17/outbox.cif.g08.bks.cpg/sg72_19_cif.got.tgz:37465.got - 2010.06.03 17:03:01.
