data_PCOD9527763
_publ_section_title
;
Structure prediction by ZEFSAII (Michael W. Deem and Ramdas Pophale) SiO2 
 PCOD9527763
Probable space group: I B A M
;
_chemical_formula_sum "Si O2"
_cell_formula_units_Z 60
_cell_length_a 4.808261
_cell_length_b 28.927724
_cell_length_c 20.612670
_cell_angle_alpha 90.000000
_cell_angle_beta 90.000000
_cell_angle_gamma 90.000000
_cell_volume 2867.058467
_symmetry_space_group_name_H-M "I B A M"
_symmetry_group_IT_number 72
_symmetry_cell_setting 'orthorhombic'
loop_
_space_group_symop_operation_xyz
x,y,z
-x,-y,z
x,-y,1/2-z
-x,y,1/2-z
-x,-y,-z
x,y,-z
-x,y,1/2+z
x,-y,1/2+z
1/2+x,1/2+y,1/2+z
1/2-x,1/2-y,1/2+z
1/2+x,1/2-y,-z
1/2-x,1/2+y,-z
1/2-x,1/2-y,1/2-z
1/2+x,1/2+y,1/2-z
1/2-x,1/2+y,z
1/2+x,1/2-y,z
loop_
_atom_site_type_symbol
_atom_site_label
_atom_site_fract_x
_atom_site_fract_y
_atom_site_fract_z
Si Si1 0.966168 0.218407 0.675348
Si Si2 0.000000 0.500000 0.836834
Si Si3 0.500000 0.500000 0.250000
Si Si4 0.791845 0.854761 0.574983
Si Si5 0.704129 0.917762 0.925377
O O1 0.651066 0.235089 0.667176
O O2 0.081541 0.181909 0.624312
O O3 0.000000 0.202353 0.750000
O O4 0.262665 0.477875 0.796769
O O5 0.866830 0.459534 0.878873
O O6 0.803031 0.838001 0.500000
O O7 0.980966 0.900732 0.578583
O O8 0.483635 0.872703 0.589880
O O9 0.641856 0.930509 0.000000
#
# Coordination Sequence:
#
# PCOD9527763 Si02
#       5
#    16   8   4  16  16
#     4  10  21  38  58  81 114 152 196 234 286 356
#     4  11  21  42  60  82 121 159 196 236 286 341
#     4  10  24  38  54  82 120 150 188 252 272 338
#     4  10  21  37  57  90 119 145 195 248 292 341
#     4  10  21  38  62  86 115 152 197 245 286 342
#
# _framework density 20.927372999999999
#
# number of rings (size 3 to 8) (size 9 to 14) (size 15 to 20)
#    0.000    1.867    0.000    3.600    0.000    1.067 
#   14.400    5.333    0.000    0.000    0.000    0.000 
#    0.000    0.000    0.000    0.000    0.000    0.000 
#
# Total GULP energy -167294.999901 kJ/mol
# GULP energy per Si atom -5576.499997 kJ/mol
# Density = 2.087974 g / cm^3
# Si number density = 20.927373 Si / 1000 Ang^3
#
#
#
# Elastic Constant Matrix: (Units=GPa)
#
#
# Indices 1 2 3 4 5 6 
#
# 1 93.4717 -10.2912 4.5872 0.0000 0.0000 0.0000
# 2 -10.2912 39.9672 41.4613 0.0000 0.0000 0.0000
# 3 4.5872 41.4613 76.7573 0.0000 0.0000 0.0000
# 4 0.0000 0.0000 0.0000 -11.5400 0.0000 0.0000
# 5 0.0000 0.0000 0.0000 0.0000 16.1624 0.0000
# 6 0.0000 0.0000 0.0000 0.0000 0.0000 16.1411
#
#
#
# Elastic Compliance Matrix: (Units=1/GPa)
#
#
# Indices 1 2 3 4 5 6 
#
# 1 0.011916 0.008660 -0.005390 0.000000 0.000000 0.000000
# 2 0.008660 0.063204 -0.034658 0.000000 0.000000 0.000000
# 3 -0.005390 -0.034658 0.032071 0.000000 0.000000 0.000000
# 4 0.000000 0.000000 0.000000 -0.086655 0.000000 0.000000
# 5 0.000000 0.000000 0.000000 0.000000 0.061872 0.000000
# 6 0.000000 0.000000 0.000000 0.000000 0.000000 0.061954
#
#
# Mechanical properties :
#
#
# Convention : Reuss Voigt Hill
#
# Bulk Modulus (GPa) = 22.51479 31.30120 26.90800
# Shear Modulus (GPa) = 22.52831 15.78194 19.15513
#
# Velocity S-wave (km/s) = 3.28457 2.74912 3.02870
# Velocity P-wave (km/s) = 5.01661 5.00664 5.01163
#
# Compressibility (1/GPa) = 0.04441525
#
# Stress axis : x y z
#
# Youngs Moduli (GPa) = 83.91839 15.82185 31.18083
#
# Poissons Ratio (x) = -0.13701 0.16806
# Poissons Ratio (y) = -0.72670 1.08066
# Poissons Ratio (z) = 0.45230 0.54835
#
# Static dielectric constant tensor:
#      x y z
#    x 1.732470 0.000000 0.000000 
#    y 0.000000 1.711940 0.000000 
#    z 0.000000 0.000000 1.784460 
# 
# From -- ./inp_files/34905.got.cif
#   From: 2010.05.17/outbox.cif.g08.bks.cpg/sg72_18_cif.got.tgz:34905.got - 2010.06.03 17:03:01.
