data_PCOD9527012
_publ_section_title
;
Structure prediction by ZEFSAII (Michael W. Deem and Ramdas Pophale) SiO2 
 PCOD9527012
Probable space group: I B A M
;
_chemical_formula_sum "Si O2"
_cell_formula_units_Z 56
_cell_length_a 4.976686
_cell_length_b 27.782181
_cell_length_c 18.374282
_cell_angle_alpha 90.000000
_cell_angle_beta 90.000000
_cell_angle_gamma 90.000000
_cell_volume 2540.486866
_symmetry_space_group_name_H-M "I B A M"
_symmetry_group_IT_number 72
_symmetry_cell_setting 'orthorhombic'
loop_
_space_group_symop_operation_xyz
x,y,z
-x,-y,z
x,-y,1/2-z
-x,y,1/2-z
-x,-y,-z
x,y,-z
-x,y,1/2+z
x,-y,1/2+z
1/2+x,1/2+y,1/2+z
1/2-x,1/2-y,1/2+z
1/2+x,1/2-y,-z
1/2-x,1/2+y,-z
1/2-x,1/2-y,1/2-z
1/2+x,1/2+y,1/2-z
1/2-x,1/2+y,z
1/2+x,1/2-y,z
loop_
_atom_site_type_symbol
_atom_site_label
_atom_site_fract_x
_atom_site_fract_y
_atom_site_fract_z
Si Si1 0.775979 0.559908 0.872153
Si Si2 0.441296 0.778796 0.411504
Si Si3 0.000000 0.000000 0.250000
Si Si4 0.500000 0.500000 0.000000
Si Si5 0.217351 0.882885 0.411471
O O1 0.689220 0.533670 0.799068
O O2 0.689384 0.524769 0.936988
O O3 0.581625 0.606145 0.884796
O O4 0.080405 0.577311 0.879652
O O5 0.444434 0.779634 0.500000
O O6 0.736364 0.763140 0.388197
O O7 0.328274 0.830667 0.390550
O O8 0.219457 0.887959 0.500000
#
# Coordination Sequence:
#
# PCOD9527012 Si02
#       5
#    16  16   4   4  16
#     4  11  23  38  59  82 116 153 191 246 279 346
#     4   9  17  29  49  81 121 148 173 224 288 344
#     4  10  28  44  56  84 116 156 204 228 300 336
#     4  10  20  36  56  80 104 144 184 244 288 312
#     4  11  20  35  59  89 115 150 194 234 288 339
#
# _framework density 22.043019000000001
#
# number of rings (size 3 to 8) (size 9 to 14) (size 15 to 20)
#    0.000    1.714    2.857    1.714    0.000   12.571 
#    0.000    0.000    0.000    0.000    0.000   20.000 
#    0.000    0.000    0.000    0.000    0.000    0.000 
#
# Total GULP energy -156151.909142 kJ/mol
# GULP energy per Si atom -5576.853898 kJ/mol
# Density = 2.199285 g / cm^3
# Si number density = 22.043019 Si / 1000 Ang^3
#
#
#
# Elastic Constant Matrix: (Units=GPa)
#
#
# Indices 1 2 3 4 5 6 
#
# 1 58.0770 -0.2969 -12.8309 0.0000 0.0000 0.0000
# 2 -0.2969 70.1647 16.6482 0.0000 0.0000 0.0000
# 3 -12.8309 16.6482 72.4887 0.0000 0.0000 0.0000
# 4 0.0000 0.0000 0.0000 -33.9855 0.0000 0.0000
# 5 0.0000 0.0000 0.0000 0.0000 11.4984 0.0000
# 6 0.0000 0.0000 0.0000 0.0000 0.0000 37.7605
#
#
#
# Elastic Compliance Matrix: (Units=1/GPa)
#
#
# Indices 1 2 3 4 5 6 
#
# 1 0.017953 -0.000717 0.003343 0.000000 0.000000 0.000000
# 2 -0.000717 0.015102 -0.003595 0.000000 0.000000 0.000000
# 3 0.003343 -0.003595 0.015213 0.000000 0.000000 0.000000
# 4 0.000000 0.000000 0.000000 -0.029424 0.000000 0.000000
# 5 0.000000 0.000000 0.000000 0.000000 0.086969 0.000000
# 6 0.000000 0.000000 0.000000 0.000000 0.000000 0.026483
#
#
# Mechanical properties :
#
#
# Convention : Reuss Voigt Hill
#
# Bulk Modulus (GPa) = 21.58511 23.08567 22.33539
# Shear Modulus (GPa) = 33.40507 16.20200 24.80354
#
# Velocity S-wave (km/s) = 3.89710 2.71406 3.35809
# Velocity P-wave (km/s) = 5.48301 4.50747 5.01900
#
# Compressibility (1/GPa) = 0.04632822
#
# Stress axis : x y z
#
# Youngs Moduli (GPa) = 55.70004 66.21533 65.73481
#
# Poissons Ratio (x) = 0.04748 -0.21972
# Poissons Ratio (y) = 0.03994 0.23634
# Poissons Ratio (z) = -0.18618 0.23807
#
# Static dielectric constant tensor:
#      x y z
#    x 1.786270 0.000000 0.000000 
#    y 0.000000 1.865410 0.000000 
#    z 0.000000 0.000000 1.766280 
# 
# From -- ./inp_files/26921.got.cif
#   From: 2010.05.17/outbox.cif.g08.bks.cpg/sg72_14_cif.got.tgz:26921.got - 2010.06.03 17:03:01.
