data_PCOD9527527
_publ_section_title
;
Structure prediction by ZEFSAII (Michael W. Deem and Ramdas Pophale) SiO2 
 PCOD9527527
Probable space group: I B A M
;
_chemical_formula_sum "Si O2"
_cell_formula_units_Z 84
_cell_length_a 27.928384
_cell_length_b 6.974565
_cell_length_c 19.650581
_cell_angle_alpha 90.000000
_cell_angle_beta 90.000000
_cell_angle_gamma 90.000000
_cell_volume 3827.703848
_symmetry_space_group_name_H-M "I B A M"
_symmetry_group_IT_number 72
_symmetry_cell_setting 'orthorhombic'
loop_
_space_group_symop_operation_xyz
x,y,z
-x,-y,z
x,-y,1/2-z
-x,y,1/2-z
-x,-y,-z
x,y,-z
-x,y,1/2+z
x,-y,1/2+z
1/2+x,1/2+y,1/2+z
1/2-x,1/2-y,1/2+z
1/2+x,1/2-y,-z
1/2-x,1/2+y,-z
1/2-x,1/2-y,1/2-z
1/2+x,1/2+y,1/2-z
1/2-x,1/2+y,z
1/2+x,1/2-y,z
loop_
_atom_site_type_symbol
_atom_site_label
_atom_site_fract_x
_atom_site_fract_y
_atom_site_fract_z
Si Si1 0.066144 0.802807 0.000000
Si Si2 0.180210 0.817890 0.500000
Si Si3 0.082647 0.730919 0.760998
Si Si4 0.614076 0.767741 0.614332
Si Si5 0.357864 0.807101 0.385715
Si Si6 0.000000 0.000000 0.750000
Si Si7 0.709672 0.873718 0.000000
Si Si8 0.541019 0.754895 0.500000
O O1 0.098205 0.747211 0.064549
O O2 0.014675 0.703094 0.000000
O O3 0.051972 0.026004 0.000000
O O4 0.148685 0.860869 0.432920
O O5 0.233642 0.893971 0.500000
O O6 0.186510 0.586016 0.500000
O O7 0.073637 0.500000 0.750000
O O8 0.095585 0.806290 0.685842
O O9 0.126868 0.767649 0.811930
O O10 0.035945 0.848193 0.786298
O O11 0.569066 0.821755 0.566854
O O12 0.641870 0.964387 0.627913
O O13 0.310835 0.772391 0.431835
#
# Coordination Sequence:
#
# PCOD9527527 Si02
#       8
#     8   8  16  16  16   4   8   8
#     4  10  21  31  49  77 110 142 186 239 286 332
#     4   9  18  36  60  86 111 146 191 244 303 362
#     4  10  23  41  60  83 121 165 199 245 291 339
#     4   9  20  38  56  77 111 152 192 235 293 353
#     4   9  20  38  56  77 111 152 192 235 293 353
#     4  12  26  36  60  88 128 160 214 230 288 358
#     4   9  18  36  60  86 111 146 191 244 303 362
#     4  10  21  31  49  77 110 142 186 239 286 332
#
# _framework density 21.945273
#
# number of rings (size 3 to 8) (size 9 to 14) (size 15 to 20)
#    0.000    2.476    0.000    2.000    5.333    4.571 
#    0.000    0.952    0.000    0.000    0.000    0.000 
#    0.000    0.000    0.000    0.000    0.000    0.000 
#
# Total GULP energy -234205.661485 kJ/mol
# GULP energy per Si atom -5576.325273 kJ/mol
# Density = 2.189532 g / cm^3
# Si number density = 21.945273 Si / 1000 Ang^3
#
#
#
# Elastic Constant Matrix: (Units=GPa)
#
#
# Indices 1 2 3 4 5 6 
#
# 1 135.9213 3.4850 47.9734 0.0000 0.0000 0.0000
# 2 3.4850 98.9526 -6.6863 0.0000 0.0000 0.0000
# 3 47.9734 -6.6863 147.9436 0.0000 0.0000 0.0000
# 4 0.0000 0.0000 0.0000 30.5808 0.0000 0.0000
# 5 0.0000 0.0000 0.0000 0.0000 11.3809 0.0000
# 6 0.0000 0.0000 0.0000 0.0000 0.0000 31.3692
#
#
#
# Elastic Compliance Matrix: (Units=1/GPa)
#
#
# Indices 1 2 3 4 5 6 
#
# 1 0.008330 -0.000477 -0.002723 0.000000 0.000000 0.000000
# 2 -0.000477 0.010164 0.000614 0.000000 0.000000 0.000000
# 3 -0.002723 0.000614 0.007670 0.000000 0.000000 0.000000
# 4 0.000000 0.000000 0.000000 0.032700 0.000000 0.000000
# 5 0.000000 0.000000 0.000000 0.000000 0.087866 0.000000
# 6 0.000000 0.000000 0.000000 0.000000 0.000000 0.031878
#
#
# Mechanical properties :
#
#
# Convention : Reuss Voigt Hill
#
# Bulk Modulus (GPa) = 47.63609 52.48464 50.06037
# Shear Modulus (GPa) = 26.20832 37.20256 31.70544
#
# Velocity S-wave (km/s) = 3.45955 4.12180 3.80511
# Velocity P-wave (km/s) = 6.14100 6.82791 6.49355
#
# Compressibility (1/GPa) = 0.02099249
#
# Stress axis : x y z
#
# Youngs Moduli (GPa) = 120.04104 98.38488 130.37745
#
# Poissons Ratio (x) = 0.04697 0.35500
# Poissons Ratio (y) = 0.05731 -0.08007
# Poissons Ratio (z) = 0.32686 -0.06043
#
# Static dielectric constant tensor:
#      x y z
#    x 1.771950 0.000000 0.000000 
#    y 0.000000 1.942480 0.000000 
#    z 0.000000 0.000000 1.809590 
# 
# From -- ./inp_files/40138.got.cif
#   From: 2010.05.17/outbox.cif.g08.bks.cpg/sg72_21_cif.got.tgz:40138.got - 2010.06.03 17:03:01.
