data_PCOD9527984
_publ_section_title
;
Structure prediction by ZEFSAII (Michael W. Deem and Ramdas Pophale) SiO2 
 PCOD9527984
Probable space group: I B A M
;
_chemical_formula_sum "Si O2"
_cell_formula_units_Z 116
_cell_length_a 14.272672
_cell_length_b 17.038963
_cell_length_c 23.950493
_cell_angle_alpha 90.000000
_cell_angle_beta 90.000000
_cell_angle_gamma 90.000000
_cell_volume 5824.557040
_symmetry_space_group_name_H-M "I B A M"
_symmetry_group_IT_number 72
_symmetry_cell_setting 'orthorhombic'
loop_
_space_group_symop_operation_xyz
x,y,z
-x,-y,z
x,-y,1/2-z
-x,y,1/2-z
-x,-y,-z
x,y,-z
-x,y,1/2+z
x,-y,1/2+z
1/2+x,1/2+y,1/2+z
1/2-x,1/2-y,1/2+z
1/2+x,1/2-y,-z
1/2-x,1/2+y,-z
1/2-x,1/2-y,1/2-z
1/2+x,1/2+y,1/2-z
1/2-x,1/2+y,z
1/2+x,1/2-y,z
loop_
_atom_site_type_symbol
_atom_site_label
_atom_site_fract_x
_atom_site_fract_y
_atom_site_fract_z
Si Si1 0.714757 0.376529 0.327293
Si Si2 0.708267 0.744054 0.602862
Si Si3 0.512920 0.584606 0.140721
Si Si4 0.636526 0.126504 0.564793
Si Si5 0.662833 0.025984 0.669716
Si Si6 0.334103 0.637551 0.794923
Si Si7 0.493185 0.738504 0.935830
Si Si8 0.500000 0.000000 0.750000
O O1 0.731012 0.318182 0.378799
O O2 0.618004 0.421252 0.337203
O O3 0.802346 0.436193 0.324909
O O4 0.690130 0.337120 0.267880
O O5 0.768584 0.677339 0.572434
O O6 0.675688 0.708992 0.662327
O O7 0.615264 0.762639 0.568984
O O8 0.500000 0.500000 0.112255
O O9 0.434996 0.599498 0.189321
O O10 0.505382 0.659637 0.100229
O O11 0.623449 0.105313 0.500000
O O12 0.641054 0.053676 0.606914
O O13 0.556352 0.188257 0.583208
O O14 0.751812 0.076331 0.690045
O O15 0.572694 0.042863 0.708342
O O16 0.519001 0.722820 0.000000
#
# Coordination Sequence:
#
# PCOD9527984 Si02
#       8
#    16  16  16  16  16  16  16   4
#     4  12  21  39  60  95 127 161 210 255 314 386
#     4  10  22  38  63  89 122 162 211 258 308 373
#     4  11  22  37  63  93 127 161 201 259 319 386
#     4  10  22  44  64  86 122 164 213 261 316 378
#     4  11  24  39  63  91 125 170 209 257 319 375
#     4  10  21  39  59  90 127 166 201 252 316 379
#     4  10  22  42  64  87 119 165 212 262 317 369
#     4  12  24  44  62  90 128 168 210 254 320 374
#
# _framework density 19.915679000000001
#
# number of rings (size 3 to 8) (size 9 to 14) (size 15 to 20)
#    0.000    1.379    4.138    1.241    1.931    0.828 
#    0.000    2.414    0.000    0.000    0.000    0.000 
#    0.000    0.000    0.000    0.000    0.000    0.000 
#
# Total GULP energy -323377.367774 kJ/mol
# GULP energy per Si atom -5575.471858 kJ/mol
# Density = 1.987035 g / cm^3
# Si number density = 19.915679 Si / 1000 Ang^3
#
#
#
# Elastic Constant Matrix: (Units=GPa)
#
#
# Indices 1 2 3 4 5 6 
#
# 1 105.8146 16.0576 13.1322 0.0000 0.0000 0.0000
# 2 16.0576 31.3300 19.7255 0.0000 0.0000 0.0000
# 3 13.1322 19.7255 79.8732 0.0000 0.0000 0.0000
# 4 0.0000 0.0000 0.0000 16.0150 0.0000 0.0000
# 5 0.0000 0.0000 0.0000 0.0000 25.5765 0.0000
# 6 0.0000 0.0000 0.0000 0.0000 0.0000 27.1041
#
#
#
# Elastic Compliance Matrix: (Units=1/GPa)
#
#
# Indices 1 2 3 4 5 6 
#
# 1 0.010262 -0.004970 -0.000460 0.000000 0.000000 0.000000
# 2 -0.004970 0.040202 -0.009111 0.000000 0.000000 0.000000
# 3 -0.000460 -0.009111 0.014846 0.000000 0.000000 0.000000
# 4 0.000000 0.000000 0.000000 0.062442 0.000000 0.000000
# 5 0.000000 0.000000 0.000000 0.000000 0.039098 0.000000
# 6 0.000000 0.000000 0.000000 0.000000 0.000000 0.036895
#
#
# Mechanical properties :
#
#
# Convention : Reuss Voigt Hill
#
# Bulk Modulus (GPa) = 27.60340 34.98315 31.29327
# Shear Modulus (GPa) = 20.41637 24.94597 22.68117
#
# Velocity S-wave (km/s) = 3.20526 3.54302 3.37836
# Velocity P-wave (km/s) = 5.25247 5.86013 5.56460
#
# Compressibility (1/GPa) = 0.03622743
#
# Stress axis : x y z
#
# Youngs Moduli (GPa) = 97.44922 24.87440 67.36041
#
# Poissons Ratio (x) = 0.12363 0.03097
# Poissons Ratio (y) = 0.48432 0.61373
# Poissons Ratio (z) = 0.04480 0.22663
#
# Static dielectric constant tensor:
#      x y z
#    x 1.731980 0.000000 0.000000 
#    y 0.000000 1.726350 0.000000 
#    z 0.000000 0.000000 1.715730 
# 
# From -- ./inp_files/44538.got.cif
#   From: 2010.05.17/outbox.cif.g08.bks.cpg/sg72_23_cif.got.tgz:44538.got - 2010.06.03 17:03:01.
