data_PCOD9527100
_publ_section_title
;
Structure prediction by ZEFSAII (Michael W. Deem and Ramdas Pophale) SiO2 
 PCOD9527100
Probable space group: I B A M
;
_chemical_formula_sum "Si O2"
_cell_formula_units_Z 80
_cell_length_a 11.657572
_cell_length_b 17.527140
_cell_length_c 16.702951
_cell_angle_alpha 90.000000
_cell_angle_beta 90.000000
_cell_angle_gamma 90.000000
_cell_volume 3412.812031
_symmetry_space_group_name_H-M "I B A M"
_symmetry_group_IT_number 72
_symmetry_cell_setting 'orthorhombic'
loop_
_space_group_symop_operation_xyz
x,y,z
-x,-y,z
x,-y,1/2-z
-x,y,1/2-z
-x,-y,-z
x,y,-z
-x,y,1/2+z
x,-y,1/2+z
1/2+x,1/2+y,1/2+z
1/2-x,1/2-y,1/2+z
1/2+x,1/2-y,-z
1/2-x,1/2+y,-z
1/2-x,1/2-y,1/2-z
1/2+x,1/2+y,1/2-z
1/2-x,1/2+y,z
1/2+x,1/2-y,z
loop_
_atom_site_type_symbol
_atom_site_label
_atom_site_fract_x
_atom_site_fract_y
_atom_site_fract_z
Si Si1 0.443856 0.735697 0.000000
Si Si2 0.771290 0.408990 0.905071
Si Si3 0.619792 0.589427 0.724604
Si Si4 0.514794 0.822844 0.159864
Si Si5 0.302148 0.916619 0.147483
Si Si6 0.790919 0.181951 0.000000
O O1 0.464506 0.774442 0.086659
O O2 0.298380 0.743801 0.000000
O O3 0.569792 0.689563 0.000000
O O4 0.645375 0.394377 0.868135
O O5 0.860021 0.348550 0.869032
O O6 0.794686 0.493718 0.870400
O O7 0.777612 0.413134 0.000000
O O8 0.612455 0.500000 0.750000
O O9 0.500000 0.623912 0.750000
O O10 0.729520 0.612376 0.776426
O O11 0.500000 0.791928 0.250000
O O12 0.434034 0.897271 0.159780
O O13 0.246914 0.869399 0.075251
#
# Coordination Sequence:
#
# PCOD9527100 Si02
#       6
#     8  16  16  16  16   8
#     4  10  24  45  65  87 128 166 232 284 322 383
#     4  11  20  34  61  98 129 164 203 258 332 411
#     4   9  19  36  52  82 131 166 202 245 307 396
#     4  11  21  37  63  95 131 165 206 270 337 395
#     4  10  20  36  60  89 126 166 204 258 333 394
#     4  10  22  45  63  88 121 167 223 282 320 371
#
# _framework density 23.441078999999998
#
# number of rings (size 3 to 8) (size 9 to 14) (size 15 to 20)
#    0.000    1.800    4.000    0.600    0.000    1.600 
#    5.400    7.000    0.000    0.000    0.000    0.000 
#    0.000    0.000    0.000    0.000    0.000    0.000 
#
# Total GULP energy -222771.405588 kJ/mol
# GULP energy per Si atom -5569.285140 kJ/mol
# Density = 2.338773 g / cm^3
# Si number density = 23.441079 Si / 1000 Ang^3
#
#
#
# Elastic Constant Matrix: (Units=GPa)
#
#
# Indices 1 2 3 4 5 6 
#
# 1 104.1647 5.4147 21.2371 0.0000 0.0000 0.0000
# 2 5.4147 52.6822 -2.7968 0.0000 0.0000 0.0000
# 3 21.2371 -2.7968 160.0917 0.0000 0.0000 0.0000
# 4 0.0000 0.0000 0.0000 -15.8916 0.0000 0.0000
# 5 0.0000 0.0000 0.0000 0.0000 29.9733 0.0000
# 6 0.0000 0.0000 0.0000 0.0000 0.0000 27.0720
#
#
#
# Elastic Compliance Matrix: (Units=1/GPa)
#
#
# Indices 1 2 3 4 5 6 
#
# 1 0.009929 -0.001091 -0.001336 0.000000 0.000000 0.000000
# 2 -0.001091 0.019119 0.000479 0.000000 0.000000 0.000000
# 3 -0.001336 0.000479 0.006432 0.000000 0.000000 0.000000
# 4 0.000000 0.000000 0.000000 -0.062926 0.000000 0.000000
# 5 0.000000 0.000000 0.000000 0.000000 0.033363 0.000000
# 6 0.000000 0.000000 0.000000 0.000000 0.000000 0.036938
#
#
# Mechanical properties :
#
#
# Convention : Reuss Voigt Hill
#
# Bulk Modulus (GPa) = 31.66274 40.51653 36.08963
# Shear Modulus (GPa) = 87.28847 27.76966 57.52906
#
# Velocity S-wave (km/s) = 6.10887 3.44562 4.95936
# Velocity P-wave (km/s) = 7.95577 5.75775 6.94428
#
# Compressibility (1/GPa) = 0.03158287
#
# Stress axis : x y z
#
# Youngs Moduli (GPa) = 100.71150 52.30306 155.47156
#
# Poissons Ratio (x) = 0.05709 0.20775
# Poissons Ratio (y) = 0.10993 -0.07444
# Poissons Ratio (z) = 0.13458 -0.02504
#
# Static dielectric constant tensor:
#      x y z
#    x 1.951460 0.000000 0.000000 
#    y 0.000000 1.919620 0.000000 
#    z 0.000000 0.000000 2.390310 
# 
# From -- ./inp_files/29214.got.cif
#   From: 2010.05.17/outbox.cif.g08.bks.cpg/sg72_15_cif.got.tgz:29214.got - 2010.06.03 17:03:01.
