data_PCOD9527492
_publ_section_title
;
Structure prediction by ZEFSAII (Michael W. Deem and Ramdas Pophale) SiO2 
 PCOD9527492
Probable space group: I B A M
;
_chemical_formula_sum "Si O2"
_cell_formula_units_Z 96
_cell_length_a 24.079954
_cell_length_b 10.540785
_cell_length_c 18.055126
_cell_angle_alpha 90.000000
_cell_angle_beta 90.000000
_cell_angle_gamma 90.000000
_cell_volume 4582.781293
_symmetry_space_group_name_H-M "I B A M"
_symmetry_group_IT_number 72
_symmetry_cell_setting 'orthorhombic'
loop_
_space_group_symop_operation_xyz
x,y,z
-x,-y,z
x,-y,1/2-z
-x,y,1/2-z
-x,-y,-z
x,y,-z
-x,y,1/2+z
x,-y,1/2+z
1/2+x,1/2+y,1/2+z
1/2-x,1/2-y,1/2+z
1/2+x,1/2-y,-z
1/2-x,1/2+y,-z
1/2-x,1/2-y,1/2-z
1/2+x,1/2+y,1/2-z
1/2-x,1/2+y,z
1/2+x,1/2-y,z
loop_
_atom_site_type_symbol
_atom_site_label
_atom_site_fract_x
_atom_site_fract_y
_atom_site_fract_z
Si Si1 0.772988 0.908128 0.912114
Si Si2 0.619619 0.255525 0.133806
Si Si3 0.463242 0.176289 0.000000
Si Si4 0.388841 0.640695 0.282677
Si Si5 0.493893 0.356936 0.127046
Si Si6 0.303688 0.680514 0.410296
Si Si7 0.908387 0.419677 0.500000
O O1 0.834114 0.854813 0.893414
O O2 0.728084 0.806997 0.885256
O O3 0.766983 0.055129 0.892057
O O4 0.768132 0.903550 0.000000
O O5 0.628369 0.252220 0.222592
O O6 0.556824 0.308605 0.132259
O O7 0.619118 0.140000 0.074324
O O8 0.462774 0.264500 0.070953
O O9 0.526446 0.120722 0.000000
O O10 0.414981 0.071169 0.000000
O O11 0.375987 0.500000 0.250000
O O12 0.454051 0.641620 0.301831
O O13 0.356752 0.660949 0.359098
O O14 0.500000 0.500000 0.098863
O O15 0.313720 0.681157 0.500000
#
# Coordination Sequence:
#
# PCOD9527492 Si02
#       7
#    16  16   8  16  16  16   8
#     4  10  20  41  66  93 122 168 223 281 338 404
#     4  11  21  38  68  92 129 178 216 268 340 401
#     4   9  21  38  60  91 128 175 221 264 317 395
#     4  12  23  39  62 100 136 170 215 283 332 409
#     4  11  21  36  63  99 135 169 219 277 337 395
#     4  10  23  42  65  92 130 172 225 282 344 405
#     4   9  20  42  62  87 129 176 223 266 319 405
#
# _framework density 20.947977999999999
#
# number of rings (size 3 to 8) (size 9 to 14) (size 15 to 20)
#    0.000    1.500    4.167    0.750    1.167    0.667 
#    3.000    0.833    0.000    4.000    0.000    0.000 
#    0.000    0.000    0.000    0.000    0.000    0.000 
#
# Total GULP energy -267562.589890 kJ/mol
# GULP energy per Si atom -5574.220623 kJ/mol
# Density = 2.090030 g / cm^3
# Si number density = 20.947978 Si / 1000 Ang^3
#
#
#
# Elastic Constant Matrix: (Units=GPa)
#
#
# Indices 1 2 3 4 5 6 
#
# 1 59.6179 13.0842 19.1979 0.0000 0.0000 0.0000
# 2 13.0842 68.3697 50.4319 0.0000 0.0000 0.0000
# 3 19.1979 50.4319 66.0252 0.0000 0.0000 0.0000
# 4 0.0000 0.0000 0.0000 10.4565 0.0000 0.0000
# 5 0.0000 0.0000 0.0000 0.0000 33.3950 0.0000
# 6 0.0000 0.0000 0.0000 0.0000 0.0000 27.0097
#
#
#
# Elastic Compliance Matrix: (Units=1/GPa)
#
#
# Indices 1 2 3 4 5 6 
#
# 1 0.018535 0.000981 -0.006139 0.000000 0.000000 0.000000
# 2 0.000981 0.033555 -0.025915 0.000000 0.000000 0.000000
# 3 -0.006139 -0.025915 0.036725 0.000000 0.000000 0.000000
# 4 0.000000 0.000000 0.000000 0.095634 0.000000 0.000000
# 5 0.000000 0.000000 0.000000 0.000000 0.029945 0.000000
# 6 0.000000 0.000000 0.000000 0.000000 0.000000 0.037024
#
#
# Mechanical properties :
#
#
# Convention : Reuss Voigt Hill
#
# Bulk Modulus (GPa) = 37.49638 39.93785 38.71711
# Shear Modulus (GPa) = 15.50616 21.59216 18.54916
#
# Velocity S-wave (km/s) = 2.72365 3.21402 2.97894
# Velocity P-wave (km/s) = 5.27538 5.73409 5.50951
#
# Compressibility (1/GPa) = 0.02666924
#
# Stress axis : x y z
#
# Youngs Moduli (GPa) = 53.95219 29.80220 27.22913
#
# Poissons Ratio (x) = -0.02924 0.16715
# Poissons Ratio (y) = -0.05293 0.70565
# Poissons Ratio (z) = 0.33119 0.77233
#
# Static dielectric constant tensor:
#      x y z
#    x 1.764440 0.000000 0.000000 
#    y 0.000000 1.792050 0.000000 
#    z 0.000000 0.000000 1.764940 
# 
# From -- ./inp_files/33309.got.cif
#   From: 2010.05.17/outbox.cif.g08.bks.cpg/sg72_17_cif.got.tgz:33309.got - 2010.06.03 17:03:01.
