data_PCOD9527847
_publ_section_title
;
Structure prediction by ZEFSAII (Michael W. Deem and Ramdas Pophale) SiO2 
 PCOD9527847
Probable space group: I B A M
;
_chemical_formula_sum "Si O2"
_cell_formula_units_Z 112
_cell_length_a 28.098714
_cell_length_b 14.709624
_cell_length_c 13.770095
_cell_angle_alpha 90.000000
_cell_angle_beta 90.000000
_cell_angle_gamma 90.000000
_cell_volume 5691.476566
_symmetry_space_group_name_H-M "I B A M"
_symmetry_group_IT_number 72
_symmetry_cell_setting 'orthorhombic'
loop_
_space_group_symop_operation_xyz
x,y,z
-x,-y,z
x,-y,1/2-z
-x,y,1/2-z
-x,-y,-z
x,y,-z
-x,y,1/2+z
x,-y,1/2+z
1/2+x,1/2+y,1/2+z
1/2-x,1/2-y,1/2+z
1/2+x,1/2-y,-z
1/2-x,1/2+y,-z
1/2-x,1/2-y,1/2-z
1/2+x,1/2+y,1/2-z
1/2-x,1/2+y,z
1/2+x,1/2-y,z
loop_
_atom_site_type_symbol
_atom_site_label
_atom_site_fract_x
_atom_site_fract_y
_atom_site_fract_z
Si Si1 0.849643 0.026414 0.384682
Si Si2 0.931621 0.695657 0.785991
Si Si3 0.984328 0.395194 0.110967
Si Si4 0.339185 0.904440 0.228758
Si Si5 0.387208 0.361170 0.784592
Si Si6 0.755757 0.093737 0.884809
Si Si7 0.813470 0.266345 0.885581
O O1 0.852764 0.044848 0.500000
O O2 0.856964 0.110045 0.311425
O O3 0.889350 0.952950 0.348430
O O4 0.799102 0.976083 0.364290
O O5 0.946377 0.638248 0.690015
O O6 0.878464 0.664066 0.813711
O O7 0.930629 0.801649 0.756337
O O8 0.969621 0.667078 0.866344
O O9 0.000000 0.500000 0.126092
O O10 0.968069 0.385430 0.000000
O O11 0.294367 0.926619 0.162009
O O12 0.317148 0.856952 0.323809
O O13 0.363916 0.000000 0.250000
O O14 0.359813 0.291791 0.855588
O O15 0.771715 0.196173 0.856909
O O16 0.751228 0.093292 0.000000
O O17 0.811315 0.282890 0.000000
#
# Coordination Sequence:
#
# PCOD9527847 Si02
#       7
#    16  16  16  16  16  16  16
#     4   9  18  34  56  82 115 156 200 237 275 328
#     4  10  21  38  55  87 115 139 185 232 290 346
#     4  10  21  39  64  84 111 147 182 230 290 358
#     4  11  22  32  54  79 112 146 180 237 282 332
#     4   9  18  32  59  84 112 151 191 241 276 331
#     4   9  19  35  52  74 108 151 196 234 272 321
#     4   9  19  36  53  73 106 150 196 236 277 330
#
# _framework density 19.678547999999999
#
# number of rings (size 3 to 8) (size 9 to 14) (size 15 to 20)
#    0.000    2.429    0.000    3.429    4.000    4.571 
#    0.000    2.143    0.000    6.857    0.000    8.000 
#    0.000    0.000    0.000    0.000    0.000    0.000 
#
# Total GULP energy -312012.105113 kJ/mol
# GULP energy per Si atom -5571.644734 kJ/mol
# Density = 1.963376 g / cm^3
# Si number density = 19.678548 Si / 1000 Ang^3
#
#
#
# Elastic Constant Matrix: (Units=GPa)
#
#
# Indices 1 2 3 4 5 6 
#
# 1 44.2502 21.9493 6.3130 0.0000 0.0000 0.0000
# 2 21.9493 51.9058 6.8332 0.0000 0.0000 0.0000
# 3 6.3130 6.8332 72.6165 0.0000 0.0000 0.0000
# 4 0.0000 0.0000 0.0000 17.6162 0.0000 0.0000
# 5 0.0000 0.0000 0.0000 0.0000 10.5884 0.0000
# 6 0.0000 0.0000 0.0000 0.0000 0.0000 21.5704
#
#
#
# Elastic Compliance Matrix: (Units=1/GPa)
#
#
# Indices 1 2 3 4 5 6 
#
# 1 0.028731 -0.011969 -0.001372 0.000000 0.000000 0.000000
# 2 -0.011969 0.024493 -0.001264 0.000000 0.000000 0.000000
# 3 -0.001372 -0.001264 0.014009 0.000000 0.000000 0.000000
# 4 0.000000 0.000000 0.000000 0.056766 0.000000 0.000000
# 5 0.000000 0.000000 0.000000 0.000000 0.094443 0.000000
# 6 0.000000 0.000000 0.000000 0.000000 0.000000 0.046360
#
#
# Mechanical properties :
#
#
# Convention : Reuss Voigt Hill
#
# Bulk Modulus (GPa) = 26.29896 26.55151 26.42523
# Shear Modulus (GPa) = 16.30324 18.86679 17.58502
#
# Velocity S-wave (km/s) = 2.88145 3.09973 2.99258
# Velocity P-wave (km/s) = 4.94607 5.13157 5.03967
#
# Compressibility (1/GPa) = 0.03802432
#
# Stress axis : x y z
#
# Youngs Moduli (GPa) = 34.80507 40.82721 71.38172
#
# Poissons Ratio (x) = 0.48866 0.09790
# Poissons Ratio (y) = 0.41658 0.09025
# Poissons Ratio (z) = 0.04774 0.05162
#
# Static dielectric constant tensor:
#      x y z
#    x 1.708830 0.000000 0.000000 
#    y 0.000000 1.755880 0.000000 
#    z 0.000000 0.000000 1.679910 
# 
# From -- ./inp_files/25967.got.cif
#   From: 2010.05.17/outbox.cif.g08.bks.cpg/sg72_13_cif.got.tgz:25967.got - 2010.06.03 17:03:01.
