data_PCOD9527262
_publ_section_title
;
Structure prediction by ZEFSAII (Michael W. Deem and Ramdas Pophale) SiO2 
 PCOD9527262
Probable space group: I B A M
;
_chemical_formula_sum "Si O2"
_cell_formula_units_Z 88
_cell_length_a 20.133467
_cell_length_b 8.486070
_cell_length_c 22.035050
_cell_angle_alpha 90.000000
_cell_angle_beta 90.000000
_cell_angle_gamma 90.000000
_cell_volume 3764.776660
_symmetry_space_group_name_H-M "I B A M"
_symmetry_group_IT_number 72
_symmetry_cell_setting 'orthorhombic'
loop_
_space_group_symop_operation_xyz
x,y,z
-x,-y,z
x,-y,1/2-z
-x,y,1/2-z
-x,-y,-z
x,y,-z
-x,y,1/2+z
x,-y,1/2+z
1/2+x,1/2+y,1/2+z
1/2-x,1/2-y,1/2+z
1/2+x,1/2-y,-z
1/2-x,1/2+y,-z
1/2-x,1/2-y,1/2-z
1/2+x,1/2+y,1/2-z
1/2-x,1/2+y,z
1/2+x,1/2-y,z
loop_
_atom_site_type_symbol
_atom_site_label
_atom_site_fract_x
_atom_site_fract_y
_atom_site_fract_z
Si Si1 0.500000 0.500000 0.403173
Si Si2 0.435309 0.180746 0.433340
Si Si3 0.902072 0.532773 0.682496
Si Si4 0.253237 0.001620 0.649202
Si Si5 0.890428 0.091430 0.810952
Si Si6 0.218694 0.747185 0.433562
O O1 0.486979 0.327254 0.432390
O O2 0.433916 0.514893 0.363390
O O3 0.440696 0.100641 0.500000
O O4 0.360807 0.252778 0.433366
O O5 0.434524 0.064023 0.374290
O O6 0.928061 0.500000 0.750000
O O7 0.824360 0.480321 0.680066
O O8 0.903430 0.722515 0.680608
O O9 0.187750 0.058169 0.682566
O O10 0.258046 0.070399 0.580766
O O11 0.242403 0.821516 0.629891
O O12 0.912020 0.000000 0.750000
O O13 0.243577 0.791401 0.500000
#
# Coordination Sequence:
#
# PCOD9527262 Si02
#       6
#     8  16  16  16  16  16
#     4  12  24  46  70  98 134 186 244 292 351 424
#     4  10  23  45  71 101 140 183 234 291 353 427
#     4  11  25  44  70 100 140 182 230 297 366 435
#     4  11  21  39  64  99 135 176 226 289 361 432
#     4  12  26  42  66  99 136 182 239 292 357 432
#     4  10  20  37  62  97 137 177 223 281 352 428
#
# _framework density 23.374559999999999
#
# number of rings (size 3 to 8) (size 9 to 14) (size 15 to 20)
#    0.000    1.091    3.636    2.727    2.545    2.909 
#    0.000    3.636    0.000    0.000    0.000    0.000 
#    0.000    0.000    0.000    0.000    0.000    0.000 
#
# Total GULP energy -245100.618784 kJ/mol
# GULP energy per Si atom -5570.468609 kJ/mol
# Density = 2.332136 g / cm^3
# Si number density = 23.374560 Si / 1000 Ang^3
#
#
#
# Elastic Constant Matrix: (Units=GPa)
#
#
# Indices 1 2 3 4 5 6 
#
# 1 93.5183 2.7659 32.6668 0.0000 0.0000 0.0000
# 2 2.7659 84.8765 68.7629 0.0000 0.0000 0.0000
# 3 32.6668 68.7629 182.4403 0.0000 0.0000 0.0000
# 4 0.0000 0.0000 0.0000 27.4341 0.0000 0.0000
# 5 0.0000 0.0000 0.0000 0.0000 4.8194 0.0000
# 6 0.0000 0.0000 0.0000 0.0000 0.0000 31.1140
#
#
#
# Elastic Compliance Matrix: (Units=1/GPa)
#
#
# Indices 1 2 3 4 5 6 
#
# 1 0.011611 0.001880 -0.002788 0.000000 0.000000 0.000000
# 2 0.001880 0.017265 -0.006844 0.000000 0.000000 0.000000
# 3 -0.002788 -0.006844 0.008560 0.000000 0.000000 0.000000
# 4 0.000000 0.000000 0.000000 0.036451 0.000000 0.000000
# 5 0.000000 0.000000 0.000000 0.000000 0.207494 0.000000
# 6 0.000000 0.000000 0.000000 0.000000 0.000000 0.032140
#
#
# Mechanical properties :
#
#
# Convention : Reuss Voigt Hill
#
# Bulk Modulus (GPa) = 45.59301 63.24735 54.42018
# Shear Modulus (GPa) = 14.86609 29.78281 22.32445
#
# Velocity S-wave (km/s) = 2.52463 3.57340 3.09378
# Velocity P-wave (km/s) = 5.29585 6.64399 6.00785
#
# Compressibility (1/GPa) = 0.02193319
#
# Stress axis : x y z
#
# Youngs Moduli (GPa) = 86.12349 57.91986 116.82338
#
# Poissons Ratio (x) = -0.10889 0.32566
# Poissons Ratio (y) = -0.16192 0.79954
# Poissons Ratio (z) = 0.24008 0.39640
#
# Static dielectric constant tensor:
#      x y z
#    x 1.862700 0.000000 0.000000 
#    y 0.000000 1.934590 0.000000 
#    z 0.000000 0.000000 1.882690 
# 
# From -- ./inp_files/45244.got.cif
#   From: 2010.05.17/outbox.cif.g08.bks.cpg/sg72_23_cif.got.tgz:45244.got - 2010.06.03 17:03:01.
