data_PCOD9527662
_publ_section_title
;
Structure prediction by ZEFSAII (Michael W. Deem and Ramdas Pophale) SiO2 
 PCOD9527662
Probable space group: I B A M
;
_chemical_formula_sum "Si O2"
_cell_formula_units_Z 104
_cell_length_a 23.048030
_cell_length_b 24.058498
_cell_length_c 9.379028
_cell_angle_alpha 90.000000
_cell_angle_beta 90.000000
_cell_angle_gamma 90.000000
_cell_volume 5200.680252
_symmetry_space_group_name_H-M "I B A M"
_symmetry_group_IT_number 72
_symmetry_cell_setting 'orthorhombic'
loop_
_space_group_symop_operation_xyz
x,y,z
-x,-y,z
x,-y,1/2-z
-x,y,1/2-z
-x,-y,-z
x,y,-z
-x,y,1/2+z
x,-y,1/2+z
1/2+x,1/2+y,1/2+z
1/2-x,1/2-y,1/2+z
1/2+x,1/2-y,-z
1/2-x,1/2+y,-z
1/2-x,1/2-y,1/2-z
1/2+x,1/2+y,1/2-z
1/2-x,1/2+y,z
1/2+x,1/2-y,z
loop_
_atom_site_type_symbol
_atom_site_label
_atom_site_fract_x
_atom_site_fract_y
_atom_site_fract_z
Si Si1 0.500000 0.251241 0.750000
Si Si2 0.237998 0.586191 0.668411
Si Si3 0.350838 0.447636 0.328641
Si Si4 0.396684 0.055459 0.666785
Si Si5 0.054269 0.138472 0.164082
Si Si6 0.588310 0.164355 0.656702
Si Si7 0.717374 0.799497 0.829714
O O1 0.453767 0.295041 0.683863
O O2 0.536893 0.208815 0.656387
O O3 0.252184 0.589377 0.500000
O O4 0.288047 0.556757 0.757256
O O5 0.173694 0.560174 0.679620
O O6 0.235268 0.645575 0.744885
O O7 0.380327 0.500000 0.250000
O O8 0.347433 0.454646 0.500000
O O9 0.386182 0.391084 0.294771
O O10 0.411485 0.052063 0.500000
O O11 0.419149 0.113546 0.733750
O O12 0.415711 0.000000 0.750000
O O13 0.000000 0.114351 0.250000
O O14 0.045419 0.125920 0.000000
O O15 0.595164 0.138388 0.500000
O O16 0.647429 0.198847 0.684712
O O17 0.750000 0.750000 0.750000
O O18 0.730822 0.801048 0.000000
#
# Coordination Sequence:
#
# PCOD9527662 Si02
#       7
#     8  16  16  16  16  16  16
#     4  10  22  42  66  86 116 154 206 250 304 358
#     4  10  21  37  58  87 120 162 201 242 299 358
#     4  11  23  39  58  88 121 158 202 251 301 359
#     4  10  21  38  62  91 124 158 196 242 295 358
#     4   9  22  40  60  84 112 152 199 248 305 356
#     4  10  22  40  63  89 119 159 202 248 304 360
#     4  10  21  36  56  88 124 161 202 250 303 364
#
# _framework density 19.997384
#
# number of rings (size 3 to 8) (size 9 to 14) (size 15 to 20)
#    0.462    1.538    0.000    2.769    2.154    6.462 
#    0.000    1.923    0.000    1.846    0.000    0.000 
#    0.000    0.000    0.000    0.000    0.000    0.000 
#
# Total GULP energy -289746.925381 kJ/mol
# GULP energy per Si atom -5572.056257 kJ/mol
# Density = 1.995187 g / cm^3
# Si number density = 19.997384 Si / 1000 Ang^3
#
#
#
# Elastic Constant Matrix: (Units=GPa)
#
#
# Indices 1 2 3 4 5 6 
#
# 1 42.1122 36.0143 26.3118 0.0000 0.0000 0.0000
# 2 36.0143 113.2205 56.3685 0.0000 0.0000 0.0000
# 3 26.3118 56.3685 111.3985 0.0000 0.0000 0.0000
# 4 0.0000 0.0000 0.0000 30.9409 0.0000 0.0000
# 5 0.0000 0.0000 0.0000 0.0000 13.6967 0.0000
# 6 0.0000 0.0000 0.0000 0.0000 0.0000 4.8831
#
#
#
# Elastic Compliance Matrix: (Units=1/GPa)
#
#
# Indices 1 2 3 4 5 6 
#
# 1 0.033542 -0.008990 -0.003374 0.000000 0.000000 0.000000
# 2 -0.008990 0.014216 -0.005070 0.000000 0.000000 0.000000
# 3 -0.003374 -0.005070 0.012339 0.000000 0.000000 0.000000
# 4 0.000000 0.000000 0.000000 0.032320 0.000000 0.000000
# 5 0.000000 0.000000 0.000000 0.000000 0.073010 0.000000
# 6 0.000000 0.000000 0.000000 0.000000 0.000000 0.204787
#
#
# Mechanical properties :
#
#
# Convention : Reuss Voigt Hill
#
# Bulk Modulus (GPa) = 39.63492 56.01340 47.82416
# Shear Modulus (GPa) = 12.09217 19.77326 15.93272
#
# Velocity S-wave (km/s) = 2.46171 3.14792 2.82572
# Velocity P-wave (km/s) = 5.28612 6.42524 5.88331
#
# Compressibility (1/GPa) = 0.02523027
#
# Stress axis : x y z
#
# Youngs Moduli (GPa) = 29.81339 70.34268 81.04305
#
# Poissons Ratio (x) = 0.63237 0.27340
# Poissons Ratio (y) = 0.26802 0.41090
# Poissons Ratio (z) = 0.10058 0.35665
#
# Static dielectric constant tensor:
#      x y z
#    x 1.775610 0.000000 0.000000 
#    y 0.000000 1.822610 0.000000 
#    z 0.000000 0.000000 1.690790 
# 
# From -- ./inp_files/8148.got.cif
#   From: 2010.05.17/outbox.cif.g08.bks.cpg/sg72_5_cif.got.tgz:8148.got - 2010.06.03 17:03:01.
