data_PCOD9527398
_publ_section_title
;
Structure prediction by ZEFSAII (Michael W. Deem and Ramdas Pophale) SiO2 
 PCOD9527398
Probable space group: I B A M
;
_chemical_formula_sum "Si O2"
_cell_formula_units_Z 64
_cell_length_a 7.787587
_cell_length_b 27.167917
_cell_length_c 13.549496
_cell_angle_alpha 90.000000
_cell_angle_beta 90.000000
_cell_angle_gamma 90.000000
_cell_volume 2866.700976
_symmetry_space_group_name_H-M "I B A M"
_symmetry_group_IT_number 72
_symmetry_cell_setting 'orthorhombic'
loop_
_space_group_symop_operation_xyz
x,y,z
-x,-y,z
x,-y,1/2-z
-x,y,1/2-z
-x,-y,-z
x,y,-z
-x,y,1/2+z
x,-y,1/2+z
1/2+x,1/2+y,1/2+z
1/2-x,1/2-y,1/2+z
1/2+x,1/2-y,-z
1/2-x,1/2+y,-z
1/2-x,1/2-y,1/2-z
1/2+x,1/2+y,1/2-z
1/2-x,1/2+y,z
1/2+x,1/2-y,z
loop_
_atom_site_type_symbol
_atom_site_label
_atom_site_fract_x
_atom_site_fract_y
_atom_site_fract_z
Si Si1 0.308181 0.578873 0.214303
Si Si2 0.244549 0.315749 0.681735
Si Si3 0.883297 0.217741 0.887303
Si Si4 0.301549 0.984091 0.891598
O O1 0.500000 0.592428 0.250000
O O2 0.215675 0.626452 0.170298
O O3 0.217893 0.558139 0.311550
O O4 0.306511 0.532086 0.141656
O O5 0.116378 0.276254 0.635395
O O6 0.426636 0.303007 0.630576
O O7 0.269003 0.304894 0.798827
O O8 0.828353 0.208918 0.000000
O O9 0.500000 0.000000 0.891800
O O10 0.249598 0.967801 0.000000
#
# Coordination Sequence:
#
# PCOD9527398 Si02
#       4
#    16  16  16  16
#     4  11  21  40  64  94 125 162 200 259 312 361
#     4  10  22  40  59  91 124 160 208 253 303 366
#     4  10  20  39  60  83 122 163 204 254 300 355
#     4  10  23  43  64  92 124 160 206 254 310 378
#
# _framework density 22.325313000000001
#
# number of rings (size 3 to 8) (size 9 to 14) (size 15 to 20)
#    0.000    1.750    2.500    3.750    0.000    5.000 
#   18.000    0.000    0.000    0.000    0.000    0.000 
#    0.000    0.000    0.000    0.000    0.000    0.000 
#
# Total GULP energy -178905.490969 kJ/mol
# GULP energy per Si atom -5590.796593 kJ/mol
# Density = 2.227450 g / cm^3
# Si number density = 22.325313 Si / 1000 Ang^3
#
#
#
# Elastic Constant Matrix: (Units=GPa)
#
#
# Indices 1 2 3 4 5 6 
#
# 1 23.0030 0.2457 -1.1484 0.0000 0.0000 0.0000
# 2 0.2457 110.8365 -12.8146 -0.0001 0.0000 0.0000
# 3 -1.1484 -12.8146 109.5678 0.0000 0.0000 0.0000
# 4 0.0000 -0.0001 0.0000 -0.0063 0.0000 0.0000
# 5 0.0000 0.0000 0.0000 0.0000 17.7839 0.0000
# 6 0.0000 0.0000 0.0000 0.0000 0.0000 28.0024
#
#
#
# Elastic Compliance Matrix: (Units=1/GPa)
#
#
# Indices 1 2 3 4 5 6 
#
# 1 0.043496 -0.000044 0.000451 -0.000093 0.000000 0.000000
# 2 -0.000044 0.009146 0.001069 -0.000085 0.000000 0.000000
# 3 0.000451 0.001069 0.009257 0.000026 0.000000 0.000000
# 4 -0.000093 -0.000085 0.000026********** -0.000138 -0.000055
# 5 0.000000 0.000000 0.000000 -0.000138 0.056231 0.000000
# 6 0.000000 0.000000 0.000000 -0.000055 0.000000 0.035711
#
#
# Mechanical properties :
#
#
# Convention : Reuss Voigt Hill
#
# Bulk Modulus (GPa) = 15.42033 23.99695 19.70864
# Shear Modulus (GPa) = -0.03136 26.29766 13.13315
#
# Velocity S-wave (km/s) = -0.11865 3.43582 2.42804
# Velocity P-wave (km/s) = 2.62742 5.14897 4.08750
#
# Compressibility (1/GPa) = 0.06484944
#
# Stress axis : x y z
#
# Youngs Moduli (GPa) = 22.99082 109.33722 108.03166
#
# Poissons Ratio (x) = 0.00484 -0.04869
# Poissons Ratio (y) = 0.00102 -0.11551
# Poissons Ratio (z) = -0.01036 -0.11691
#
# Static dielectric constant tensor:
#      x y z
#    x 1.861630 0.000000 0.000000 
#    y 0.000000 1.820260 0.000000 
#    z 0.000000 0.000000 1.807900 
# 
# From -- ./inp_files/18979.got.cif
#   From: 2010.05.17/outbox.cif.g08.bks.cpg/sg72_10_cif.got.tgz:18979.got - 2010.06.03 17:03:01.
