data_PCOD9527837
_publ_section_title
;
Structure prediction by ZEFSAII (Michael W. Deem and Ramdas Pophale) SiO2 
 PCOD9527837
Probable space group: I B A M
;
_chemical_formula_sum "Si O2"
_cell_formula_units_Z 72
_cell_length_a 11.375424
_cell_length_b 23.983243
_cell_length_c 13.685001
_cell_angle_alpha 90.000000
_cell_angle_beta 90.000000
_cell_angle_gamma 90.000000
_cell_volume 3733.535924
_symmetry_space_group_name_H-M "I B A M"
_symmetry_group_IT_number 72
_symmetry_cell_setting 'orthorhombic'
loop_
_space_group_symop_operation_xyz
x,y,z
-x,-y,z
x,-y,1/2-z
-x,y,1/2-z
-x,-y,-z
x,y,-z
-x,y,1/2+z
x,-y,1/2+z
1/2+x,1/2+y,1/2+z
1/2-x,1/2-y,1/2+z
1/2+x,1/2-y,-z
1/2-x,1/2+y,-z
1/2-x,1/2-y,1/2-z
1/2+x,1/2+y,1/2-z
1/2-x,1/2+y,z
1/2+x,1/2-y,z
loop_
_atom_site_type_symbol
_atom_site_label
_atom_site_fract_x
_atom_site_fract_y
_atom_site_fract_z
Si Si1 0.872787 0.812551 0.774470
Si Si2 0.311785 0.000000 0.750000
Si Si3 0.681164 0.795930 0.615348
Si Si4 0.769597 0.592981 0.614509
Si Si5 0.948647 0.413648 0.387490
O O1 0.802651 0.799906 0.674791
O O2 0.887019 0.755285 0.834931
O O3 0.792596 0.853749 0.838433
O O4 0.000000 0.836594 0.750000
O O5 0.237167 0.960998 0.678221
O O6 0.390888 0.959750 0.818186
O O7 0.697297 0.786527 0.500000
O O8 0.613536 0.854274 0.628704
O O9 0.742499 0.588364 0.500000
O O10 0.911907 0.595030 0.624674
O O11 0.928847 0.431005 0.500000
#
# Coordination Sequence:
#
# PCOD9527837 Si02
#       5
#    16   8  16  16  16
#     4  11  25  41  64  90 124 165 207 247 304 369
#     4  12  21  36  65  94 127 160 206 257 306 359
#     4  10  23  41  64  91 124 160 200 252 308 368
#     4  11  23  39  63  94 126 160 202 256 313 366
#     4  10  21  37  62  95 125 157 200 254 312 363
#
# _framework density 19.284668
#
# number of rings (size 3 to 8) (size 9 to 14) (size 15 to 20)
#    0.000    1.333    2.222    3.333    6.222    3.556 
#    0.000    0.556    0.000    1.333    0.000    0.000 
#    0.000    0.000    0.000    0.000    0.000    0.000 
#
# Total GULP energy -201223.629682 kJ/mol
# GULP energy per Si atom -5589.545269 kJ/mol
# Density = 1.924078 g / cm^3
# Si number density = 19.284668 Si / 1000 Ang^3
#
#
#
# Elastic Constant Matrix: (Units=GPa)
#
#
# Indices 1 2 3 4 5 6 
#
# 1 35.1078 18.9479 29.8637 0.0000 0.0000 0.0000
# 2 18.9479 108.8440 65.5218 -0.0001 0.0000 -0.0001
# 3 29.8637 65.5218 152.0369 0.0000 0.0000 -0.0006
# 4 0.0000 -0.0001 0.0000 39.5061 0.0000 -0.0001
# 5 0.0000 0.0000 0.0000 0.0000 15.8475 0.0000
# 6 0.0000 -0.0001 -0.0006 -0.0001 0.0000 -23.7919
#
#
#
# Elastic Compliance Matrix: (Units=1/GPa)
#
#
# Indices 1 2 3 4 5 6 
#
# 1 0.034742 -0.002620 -0.005695 0.000000 0.000000 0.000000
# 2 -0.002620 0.012603 -0.004917 0.000000 0.000000 0.000000
# 3 -0.005695 -0.004917 0.009815 0.000000 0.000000 0.000000
# 4 0.000000 0.000000 0.000000 0.025313 0.000000 0.000000
# 5 0.000000 0.000000 0.000000 0.000000 0.063102 0.000000
# 6 0.000000 0.000000 0.000000 0.000000 0.000000 -0.042031
#
#
# Mechanical properties :
#
#
# Convention : Reuss Voigt Hill
#
# Bulk Modulus (GPa) = 32.57662 58.29504 45.43583
# Shear Modulus (GPa) = 35.65329 18.42268 27.03799
#
# Velocity S-wave (km/s) = 4.30442 3.09415 3.74845
# Velocity P-wave (km/s) = 6.45238 6.56196 6.50740
#
# Compressibility (1/GPa) = 0.03069686
#
# Stress axis : x y z
#
# Youngs Moduli (GPa) = 28.78355 79.34349 101.88420
#
# Poissons Ratio (x) = 0.20785 0.58025
# Poissons Ratio (y) = 0.07540 0.50097
# Poissons Ratio (z) = 0.16393 0.39013
#
# Static dielectric constant tensor:
#      x y z
#    x 1.649600 0.000000 0.000000 
#    y 0.000000 1.677910 0.000000 
#    z 0.000000 0.000000 1.692430 
# 
# From -- ./inp_files/11624.got.cif
#   From: 2010.05.17/outbox.cif.g08.bks.cpg/sg72_6_cif.got.tgz:11624.got - 2010.06.03 17:03:01.
