data_PCOD9527357
_publ_section_title
;
Structure prediction by ZEFSAII (Michael W. Deem and Ramdas Pophale) SiO2 
 PCOD9527357
Probable space group: I B A M
;
_chemical_formula_sum "Si O2"
_cell_formula_units_Z 72
_cell_length_a 8.425171
_cell_length_b 13.776977
_cell_length_c 27.571369
_cell_angle_alpha 90.000000
_cell_angle_beta 90.000000
_cell_angle_gamma 90.000000
_cell_volume 3200.302186
_symmetry_space_group_name_H-M "I B A M"
_symmetry_group_IT_number 72
_symmetry_cell_setting 'orthorhombic'
loop_
_space_group_symop_operation_xyz
x,y,z
-x,-y,z
x,-y,1/2-z
-x,y,1/2-z
-x,-y,-z
x,y,-z
-x,y,1/2+z
x,-y,1/2+z
1/2+x,1/2+y,1/2+z
1/2-x,1/2-y,1/2+z
1/2+x,1/2-y,-z
1/2-x,1/2+y,-z
1/2-x,1/2-y,1/2-z
1/2+x,1/2+y,1/2-z
1/2-x,1/2+y,z
1/2+x,1/2-y,z
loop_
_atom_site_type_symbol
_atom_site_label
_atom_site_fract_x
_atom_site_fract_y
_atom_site_fract_z
Si Si1 0.188478 0.014653 0.123668
Si Si2 0.145383 0.634512 0.554977
Si Si3 0.500000 0.261455 0.250000
Si Si4 0.165272 0.283867 0.396254
Si Si5 0.737170 0.854251 0.308986
O O1 0.272089 0.959399 0.078628
O O2 0.262449 0.963522 0.171459
O O3 0.224739 0.127154 0.119152
O O4 0.000000 0.000000 0.123653
O O5 0.094537 0.617028 0.500000
O O6 0.269938 0.723129 0.558124
O O7 0.002489 0.670123 0.589507
O O8 0.429253 0.191287 0.291896
O O9 0.357447 0.331611 0.234412
O O10 0.183158 0.206022 0.353227
#
# Coordination Sequence:
#
# PCOD9527357 Si02
#       5
#    16  16   8  16  16
#     4  11  23  40  63  89 125 168 207 252 312 379
#     4  11  24  40  63  94 124 163 213 261 310 368
#     4  10  20  38  64  88 122 156 198 260 304 362
#     4  11  22  41  64  87 125 166 205 257 316 376
#     4  10  21  40  61  89 121 159 203 249 310 369
#
# _framework density 22.497875000000001
#
# number of rings (size 3 to 8) (size 9 to 14) (size 15 to 20)
#    0.000    1.333    0.000    8.000    0.000    3.111 
#    0.000   11.667    0.000    0.000    0.000    0.000 
#    0.000    0.000    0.000    0.000    0.000    0.000 
#
# Total GULP energy -201259.763469 kJ/mol
# GULP energy per Si atom -5590.548985 kJ/mol
# Density = 2.244667 g / cm^3
# Si number density = 22.497875 Si / 1000 Ang^3
#
#
#
# Elastic Constant Matrix: (Units=GPa)
#
#
# Indices 1 2 3 4 5 6 
#
# 1 54.7663 -21.6514 -11.3498 0.0000 0.0000 0.0000
# 2 -21.6514 75.5808 -6.0213 0.0000 0.0000 0.0000
# 3 -11.3498 -6.0213 67.1992 0.0000 0.0000 0.0000
# 4 0.0000 0.0000 0.0000 8.4105 0.0000 0.0000
# 5 0.0000 0.0000 0.0000 0.0000 30.0875 0.0000
# 6 0.0000 0.0000 0.0000 0.0000 0.0000 34.4454
#
#
#
# Elastic Compliance Matrix: (Units=1/GPa)
#
#
# Indices 1 2 3 4 5 6 
#
# 1 0.021738 0.006567 0.004260 0.000000 0.000000 0.000000
# 2 0.006567 0.015310 0.002481 0.000000 0.000000 0.000000
# 3 0.004260 0.002481 0.015823 0.000000 0.000000 0.000000
# 4 0.000000 0.000000 0.000000 0.118899 0.000000 0.000000
# 5 0.000000 0.000000 0.000000 0.000000 0.033236 0.000000
# 6 0.000000 0.000000 0.000000 0.000000 0.000000 0.029031
#
#
# Mechanical properties :
#
#
# Convention : Reuss Voigt Hill
#
# Bulk Modulus (GPa) = 12.58081 13.27790 12.92935
# Shear Modulus (GPa) = 21.37501 30.35994 25.86747
#
# Velocity S-wave (km/s) = 3.08570 3.67748 3.39451
# Velocity P-wave (km/s) = 4.27779 4.89352 4.59598
#
# Compressibility (1/GPa) = 0.07948616
#
# Stress axis : x y z
#
# Youngs Moduli (GPa) = 46.00163 65.31823 63.19939
#
# Poissons Ratio (x) = -0.42893 -0.26923
# Poissons Ratio (y) = -0.30208 -0.15679
# Poissons Ratio (z) = -0.19597 -0.16205
#
# Static dielectric constant tensor:
#      x y z
#    x 1.874460 0.000000 0.000000 
#    y 0.000000 1.804640 0.000000 
#    z 0.000000 0.000000 1.866440 
# 
# From -- ./inp_files/50704.got.cif
#   From: 2010.05.17/outbox.cif.g08.bks.cpg/sg72_26_cif.got.tgz:50704.got - 2010.06.03 17:03:01.
