data_PCOD9527094
_publ_section_title
;
Structure prediction by ZEFSAII (Michael W. Deem and Ramdas Pophale) SiO2 
 PCOD9527094
Probable space group: I B A M
;
_chemical_formula_sum "Si O2"
_cell_formula_units_Z 88
_cell_length_a 26.156547
_cell_length_b 11.692744
_cell_length_c 14.374689
_cell_angle_alpha 90.000000
_cell_angle_beta 90.000000
_cell_angle_gamma 90.000000
_cell_volume 4396.380873
_symmetry_space_group_name_H-M "I B A M"
_symmetry_group_IT_number 72
_symmetry_cell_setting 'orthorhombic'
loop_
_space_group_symop_operation_xyz
x,y,z
-x,-y,z
x,-y,1/2-z
-x,y,1/2-z
-x,-y,-z
x,y,-z
-x,y,1/2+z
x,-y,1/2+z
1/2+x,1/2+y,1/2+z
1/2-x,1/2-y,1/2+z
1/2+x,1/2-y,-z
1/2-x,1/2+y,-z
1/2-x,1/2-y,1/2-z
1/2+x,1/2+y,1/2-z
1/2-x,1/2+y,z
1/2+x,1/2-y,z
loop_
_atom_site_type_symbol
_atom_site_label
_atom_site_fract_x
_atom_site_fract_y
_atom_site_fract_z
Si Si1 0.192432 0.500000 0.250000
Si Si2 0.060003 0.148568 0.886758
Si Si3 0.049588 0.884467 0.108658
Si Si4 0.724159 0.419337 0.104727
Si Si5 0.834757 0.154382 0.105569
Si Si6 0.159734 0.740326 0.700503
O O1 0.230200 0.550512 0.172618
O O2 0.160921 0.604203 0.293672
O O3 0.104093 0.211952 0.829482
O O4 0.001426 0.180997 0.860567
O O5 0.058710 0.014341 0.858188
O O6 0.069375 0.159323 0.000000
O O7 0.104334 0.826623 0.113010
O O8 0.038618 0.902084 0.000000
O O9 0.681681 0.521066 0.114149
O O10 0.697936 0.298916 0.127126
O O11 0.742651 0.422413 0.000000
O O12 0.817957 0.214527 0.200306
O O13 0.818838 0.189085 0.000000
#
# Coordination Sequence:
#
# PCOD9527094 Si02
#       6
#     8  16  16  16  16  16
#     4  12  28  44  56  87 125 170 218 260 306 376
#     4   9  17  31  57  92 126 155 191 248 310 372
#     4   8  15  30  54  91 127 150 186 243 311 374
#     4  11  23  41  64  88 117 160 211 266 324 375
#     4  10  20  36  60  88 122 158 198 256 319 371
#     4  12  23  40  61  86 124 164 212 256 309 375
#
# _framework density 20.016463999999999
#
# number of rings (size 3 to 8) (size 9 to 14) (size 15 to 20)
#    0.000    1.818    3.636    2.182    0.000    2.909 
#    0.000    1.818    0.000    2.182    0.000    3.818 
#    0.000    0.000    0.000    0.000    0.000    0.000 
#
# Total GULP energy -245235.690764 kJ/mol
# GULP energy per Si atom -5573.538426 kJ/mol
# Density = 1.997091 g / cm^3
# Si number density = 20.016464 Si / 1000 Ang^3
#
#
#
# Elastic Constant Matrix: (Units=GPa)
#
#
# Indices 1 2 3 4 5 6 
#
# 1 85.2259 33.2893 32.7088 0.0000 0.0000 0.0000
# 2 33.2893 91.9397 28.0658 0.0000 0.0000 0.0000
# 3 32.7088 28.0658 109.7828 0.0000 0.0000 0.0000
# 4 0.0000 0.0000 0.0000 -165.8804 0.0000 0.0000
# 5 0.0000 0.0000 0.0000 0.0000 24.1038 0.0000
# 6 0.0000 0.0000 0.0000 0.0000 0.0000 11.8105
#
#
#
# Elastic Compliance Matrix: (Units=1/GPa)
#
#
# Indices 1 2 3 4 5 6 
#
# 1 0.014674 -0.004315 -0.003269 0.000000 0.000000 0.000000
# 2 -0.004315 0.013066 -0.002055 0.000000 0.000000 0.000000
# 3 -0.003269 -0.002055 0.010608 0.000000 0.000000 0.000000
# 4 0.000000 0.000000 0.000000 -0.006028 0.000000 0.000000
# 5 0.000000 0.000000 0.000000 0.000000 0.041487 0.000000
# 6 0.000000 0.000000 0.000000 0.000000 0.000000 0.084671
#
#
# Mechanical properties :
#
#
# Convention : Reuss Voigt Hill
#
# Bulk Modulus (GPa) = 52.43619 52.78625 52.61122
# Shear Modulus (GPa) = 27.15748 -13.13426 7.01161
#
# Velocity S-wave (km/s) = 3.68741 -2.56437 1.87364
# Velocity P-wave (km/s) = 6.66204 4.20246 5.56972
#
# Compressibility (1/GPa) = 0.01907080
#
# Stress axis : x y z
#
# Youngs Moduli (GPa) = 68.15005 76.53248 94.26791
#
# Poissons Ratio (x) = 0.33025 0.30813
# Poissons Ratio (y) = 0.29408 0.19370
# Poissons Ratio (z) = 0.22276 0.15725
#
# Static dielectric constant tensor:
#      x y z
#    x 1.779820 0.000000 0.000000 
#    y 0.000000 1.728380 0.000000 
#    z 0.000000 0.000000 1.778120 
# 
# From -- ./inp_files/25828.got.cif
#   From: 2010.05.17/outbox.cif.g08.bks.cpg/sg72_13_cif.got.tgz:25828.got - 2010.06.03 17:03:01.
