data_PCOD9527688
_publ_section_title
;
Structure prediction by ZEFSAII (Michael W. Deem and Ramdas Pophale) SiO2 
 PCOD9527688
Probable space group: I B A M
;
_chemical_formula_sum "Si O2"
_cell_formula_units_Z 116
_cell_length_a 9.517893
_cell_length_b 27.610117
_cell_length_c 24.825219
_cell_angle_alpha 90.000000
_cell_angle_beta 90.000000
_cell_angle_gamma 90.000000
_cell_volume 6523.822760
_symmetry_space_group_name_H-M "I B A M"
_symmetry_group_IT_number 72
_symmetry_cell_setting 'orthorhombic'
loop_
_space_group_symop_operation_xyz
x,y,z
-x,-y,z
x,-y,1/2-z
-x,y,1/2-z
-x,-y,-z
x,y,-z
-x,y,1/2+z
x,-y,1/2+z
1/2+x,1/2+y,1/2+z
1/2-x,1/2-y,1/2+z
1/2+x,1/2-y,-z
1/2-x,1/2+y,-z
1/2-x,1/2-y,1/2-z
1/2+x,1/2+y,1/2-z
1/2-x,1/2+y,z
1/2+x,1/2-y,z
loop_
_atom_site_type_symbol
_atom_site_label
_atom_site_fract_x
_atom_site_fract_y
_atom_site_fract_z
Si Si1 0.562860 0.788081 0.808287
Si Si2 0.117347 0.389436 0.355918
Si Si3 0.331081 0.990882 0.310050
Si Si4 0.320769 0.663729 0.063453
Si Si5 0.647661 0.351001 0.563070
Si Si6 0.840775 0.438927 0.595078
Si Si7 0.290943 0.763187 0.126033
Si Si8 0.500000 0.000000 0.500000
O O1 0.500000 0.777835 0.750000
O O2 0.598946 0.844744 0.815151
O O3 0.444295 0.776600 0.852706
O O4 0.696791 0.756087 0.824354
O O5 0.187025 0.435560 0.327594
O O6 0.213194 0.369881 0.404293
O O7 0.968423 0.407277 0.379527
O O8 0.500000 0.000000 0.308181
O O9 0.275509 0.000000 0.250000
O O10 0.282014 0.026741 0.357262
O O11 0.481280 0.648200 0.074202
O O12 0.300592 0.718356 0.084811
O O13 0.294150 0.661054 0.000000
O O14 0.665698 0.338893 0.500000
O O15 0.723735 0.401725 0.574580
O O16 0.718851 0.309158 0.598525
O O17 0.908325 0.471394 0.547729
#
# Coordination Sequence:
#
# PCOD9527688 Si02
#       8
#    16  16  16  16  16  16  16   4
#     4  11  23  36  60  84 115 156 201 245 300 350
#     4  10  21  36  59  87 114 152 194 246 290 354
#     4   9  19  35  59  86 117 147 191 244 296 344
#     4  10  23  39  57  84 122 156 196 242 298 366
#     4  11  22  37  59  86 117 158 196 238 308 359
#     4  11  21  35  61  89 117 151 193 252 295 361
#     4  11  21  41  56  82 121 153 199 250 293 360
#     4  12  20  36  58  94 124 140 196 248 308 344
#
# _framework density 17.780985999999999
#
# number of rings (size 3 to 8) (size 9 to 14) (size 15 to 20)
#    0.000    1.517    5.517    0.828    4.828    0.000 
#    0.000    0.690    0.000    3.310    0.000    0.000 
#    0.000    0.000    0.000    0.000    0.000    0.000 
#
# Total GULP energy -323224.041699 kJ/mol
# GULP energy per Si atom -5572.828305 kJ/mol
# Density = 1.774052 g / cm^3
# Si number density = 17.780986 Si / 1000 Ang^3
#
#
#
# Elastic Constant Matrix: (Units=GPa)
#
#
# Indices 1 2 3 4 5 6 
#
# 1 40.3547 27.3838 7.5054 0.0000 0.0000 0.0000
# 2 27.3838 112.9023 35.3342 0.0000 0.0000 0.0000
# 3 7.5054 35.3342 69.9326 0.0000 0.0000 0.0000
# 4 0.0000 0.0000 0.0000 8.1897 0.0000 0.0000
# 5 0.0000 0.0000 0.0000 0.0000 21.2303 0.0000
# 6 0.0000 0.0000 0.0000 0.0000 0.0000 16.5324
#
#
#
# Elastic Compliance Matrix: (Units=1/GPa)
#
#
# Indices 1 2 3 4 5 6 
#
# 1 0.029679 -0.007366 0.000537 0.000000 0.000000 0.000000
# 2 -0.007366 0.012349 -0.005449 0.000000 0.000000 0.000000
# 3 0.000537 -0.005449 0.016995 0.000000 0.000000 0.000000
# 4 0.000000 0.000000 0.000000 0.122104 0.000000 0.000000
# 5 0.000000 0.000000 0.000000 0.000000 0.047102 0.000000
# 6 0.000000 0.000000 0.000000 0.000000 0.000000 0.060487
#
#
# Mechanical properties :
#
#
# Convention : Reuss Voigt Hill
#
# Bulk Modulus (GPa) = 29.01415 40.40405 34.70910
# Shear Modulus (GPa) = 15.39580 19.38823 17.39202
#
# Velocity S-wave (km/s) = 2.94574 3.30569 3.13089
# Velocity P-wave (km/s) = 5.28420 6.11086 5.71250
#
# Compressibility (1/GPa) = 0.03446594
#
# Stress axis : x y z
#
# Youngs Moduli (GPa) = 33.69367 80.97656 58.84069
#
# Poissons Ratio (x) = 0.59651 -0.03158
# Poissons Ratio (y) = 0.24820 0.32062
# Poissons Ratio (z) = -0.01808 0.44124
#
# Static dielectric constant tensor:
#      x y z
#    x 1.590340 0.000000 0.000000 
#    y 0.000000 1.599510 0.000000 
#    z 0.000000 0.000000 1.602550 
# 
# From -- ./inp_files/42686.got.cif
#   From: 2010.05.17/outbox.cif.g08.bks.cpg/sg72_22_cif.got.tgz:42686.got - 2010.06.03 17:03:01.
