data_PCOD9527258
_publ_section_title
;
Structure prediction by ZEFSAII (Michael W. Deem and Ramdas Pophale) SiO2 
 PCOD9527258
Probable space group: I B A M
;
_chemical_formula_sum "Si O2"
_cell_formula_units_Z 84
_cell_length_a 24.756866
_cell_length_b 9.505952
_cell_length_c 14.454799
_cell_angle_alpha 90.000000
_cell_angle_beta 90.000000
_cell_angle_gamma 90.000000
_cell_volume 3401.757414
_symmetry_space_group_name_H-M "I B A M"
_symmetry_group_IT_number 72
_symmetry_cell_setting 'orthorhombic'
loop_
_space_group_symop_operation_xyz
x,y,z
-x,-y,z
x,-y,1/2-z
-x,y,1/2-z
-x,-y,-z
x,y,-z
-x,y,1/2+z
x,-y,1/2+z
1/2+x,1/2+y,1/2+z
1/2-x,1/2-y,1/2+z
1/2+x,1/2-y,-z
1/2-x,1/2+y,-z
1/2-x,1/2-y,1/2-z
1/2+x,1/2+y,1/2-z
1/2-x,1/2+y,z
1/2+x,1/2-y,z
loop_
_atom_site_type_symbol
_atom_site_label
_atom_site_fract_x
_atom_site_fract_y
_atom_site_fract_z
Si Si1 0.246231 0.756605 0.105716
Si Si2 0.081053 0.669999 0.675618
Si Si3 0.587136 0.440595 0.500000
Si Si4 0.981556 0.764789 0.000000
Si Si5 0.654087 0.565954 0.344156
Si Si6 0.682658 0.991883 0.886959
Si Si7 0.000000 0.500000 0.750000
O O1 0.298493 0.653688 0.106971
O O2 0.269447 0.901656 0.143036
O O3 0.198036 0.663883 0.147504
O O4 0.231187 0.785153 0.000000
O O5 0.038364 0.678664 0.589978
O O6 0.108247 0.820882 0.682879
O O7 0.128136 0.561963 0.647573
O O8 0.047107 0.619404 0.763128
O O9 0.543892 0.314424 0.500000
O O10 0.552936 0.588360 0.500000
O O11 0.626150 0.453571 0.411568
O O12 0.673726 0.500000 0.250000
O O13 0.681645 0.990987 0.000000
#
# Coordination Sequence:
#
# PCOD9527258 Si02
#       7
#    16  16   8   8  16  16   4
#     4   9  17  34  60  89 121 155 200 247 307 370
#     4  10  22  42  60  81 121 164 203 251 309 360
#     4   9  18  34  59  94 118 146 205 249 305 370
#     4   9  18  37  63  82 110 157 200 254 303 354
#     4  10  20  37  62  93 123 157 194 258 315 364
#     4   9  17  36  63  88 116 158 199 251 307 369
#     4  12  28  42  54  84 124 166 216 250 288 372
#
# _framework density 24.693118999999999
#
# number of rings (size 3 to 8) (size 9 to 14) (size 15 to 20)
#    0.000    2.476    1.905    0.000    2.667    0.381 
#    5.143    1.905    0.000    0.000    0.000    0.000 
#    0.000    0.000    0.000    0.000    0.000    0.000 
#
# Total GULP energy -234292.890395 kJ/mol
# GULP energy per Si atom -5578.402152 kJ/mol
# Density = 2.463692 g / cm^3
# Si number density = 24.693119 Si / 1000 Ang^3
#
#
#
# Elastic Constant Matrix: (Units=GPa)
#
#
# Indices 1 2 3 4 5 6 
#
# 1 107.9651 65.4249 28.3535 0.0000 0.0000 0.0000
# 2 65.4249 85.5222 12.0028 0.0000 0.0000 0.0000
# 3 28.3535 12.0028 82.2855 0.0000 0.0000 0.0000
# 4 0.0000 0.0000 0.0000 3.1868 0.0000 0.0000
# 5 0.0000 0.0000 0.0000 0.0000 16.4669 0.0000
# 6 0.0000 0.0000 0.0000 0.0000 0.0000 58.8872
#
#
#
# Elastic Compliance Matrix: (Units=1/GPa)
#
#
# Indices 1 2 3 4 5 6 
#
# 1 0.018742 -0.013712 -0.004458 0.000000 0.000000 0.000000
# 2 -0.013712 0.021970 0.001520 0.000000 0.000000 0.000000
# 3 -0.004458 0.001520 0.013467 0.000000 0.000000 0.000000
# 4 0.000000 0.000000 0.000000 0.313796 0.000000 0.000000
# 5 0.000000 0.000000 0.000000 0.000000 0.060728 0.000000
# 6 0.000000 0.000000 0.000000 0.000000 0.000000 0.016982
#
#
# Mechanical properties :
#
#
# Convention : Reuss Voigt Hill
#
# Bulk Modulus (GPa) = 47.89502 54.14836 51.02169
# Shear Modulus (GPa) = 10.28925 27.04096 18.66510
#
# Velocity S-wave (km/s) = 2.04350 3.31279 2.75231
# Velocity P-wave (km/s) = 5.00061 6.05053 5.55045
#
# Compressibility (1/GPa) = 0.02087900
#
# Stress axis : x y z
#
# Youngs Moduli (GPa) = 53.35470 45.51750 74.25470
#
# Poissons Ratio (x) = 0.62416 0.33103
# Poissons Ratio (y) = 0.73162 -0.11289
# Poissons Ratio (z) = 0.23785 -0.06920
#
# Static dielectric constant tensor:
#      x y z
#    x 1.927650 0.000000 0.000000 
#    y 0.000000 1.953870 0.000000 
#    z 0.000000 0.000000 2.009440 
# 
# From -- ./inp_files/32441.got.cif
#   From: 2010.05.17/outbox.cif.g08.bks.cpg/sg72_17_cif.got.tgz:32441.got - 2010.06.03 17:03:01.
