data_PCOD9527242
_publ_section_title
;
Structure prediction by ZEFSAII (Michael W. Deem and Ramdas Pophale) SiO2 
 PCOD9527242
Probable space group: I B A M
;
_chemical_formula_sum "Si O2"
_cell_formula_units_Z 72
_cell_length_a 15.486148
_cell_length_b 15.379366
_cell_length_c 14.767076
_cell_angle_alpha 90.000000
_cell_angle_beta 90.000000
_cell_angle_gamma 90.000000
_cell_volume 3517.032228
_symmetry_space_group_name_H-M "I B A M"
_symmetry_group_IT_number 72
_symmetry_cell_setting 'orthorhombic'
loop_
_space_group_symop_operation_xyz
x,y,z
-x,-y,z
x,-y,1/2-z
-x,y,1/2-z
-x,-y,-z
x,y,-z
-x,y,1/2+z
x,-y,1/2+z
1/2+x,1/2+y,1/2+z
1/2-x,1/2-y,1/2+z
1/2+x,1/2-y,-z
1/2-x,1/2+y,-z
1/2-x,1/2-y,1/2-z
1/2+x,1/2+y,1/2-z
1/2-x,1/2+y,z
1/2+x,1/2-y,z
loop_
_atom_site_type_symbol
_atom_site_label
_atom_site_fract_x
_atom_site_fract_y
_atom_site_fract_z
Si Si1 0.081071 0.886123 0.500000
Si Si2 0.613506 0.408378 0.500000
Si Si3 0.337340 0.313729 0.316844
Si Si4 0.000000 0.280566 0.750000
Si Si5 0.428446 0.055704 0.344306
Si Si6 0.751401 0.130700 0.153408
O O1 0.122770 0.850735 0.591891
O O2 0.979703 0.863565 0.500000
O O3 0.094920 0.989213 0.500000
O O4 0.670493 0.384925 0.586553
O O5 0.414875 0.279016 0.251241
O O6 0.279337 0.231192 0.344890
O O7 0.281817 0.381378 0.257521
O O8 0.026060 0.350505 0.827541
O O9 0.332084 0.075200 0.375910
O O10 0.500000 0.000000 0.396430
O O11 0.416274 0.000000 0.250000
#
# Coordination Sequence:
#
# PCOD9527242 Si02
#       6
#     8   8  16   8  16  16
#     4  11  25  40  56  82 125 162 198 247 293 352
#     4  11  25  40  55  86 124 161 200 246 291 349
#     4  10  20  37  62  88 114 157 203 245 300 350
#     4   8  15  32  54  83 112 144 190 240 292 349
#     4   8  16  31  56  86 115 144 186 242 302 347
#     4  10  21  37  63  87 116 155 201 250 293 356
#
# _framework density 20.471806000000001
#
# number of rings (size 3 to 8) (size 9 to 14) (size 15 to 20)
#    0.000    2.667    0.000    2.000    3.111    0.000 
#    0.000    2.778    4.889    0.000    0.000    1.556 
#    0.000    0.000    0.000    0.000    0.000    0.000 
#
# Total GULP energy -200474.879909 kJ/mol
# GULP energy per Si atom -5568.746664 kJ/mol
# Density = 2.042521 g / cm^3
# Si number density = 20.471806 Si / 1000 Ang^3
#
#
#
# Elastic Constant Matrix: (Units=GPa)
#
#
# Indices 1 2 3 4 5 6 
#
# 1 156.4232 39.4329 72.1698 0.0000 0.0000 0.0000
# 2 39.4329 46.9854 26.3175 0.0000 0.0000 0.0000
# 3 72.1698 26.3175 105.4101 0.0000 0.0000 0.0000
# 4 0.0000 0.0000 0.0000 7.4693 0.0000 0.0000
# 5 0.0000 0.0000 0.0000 0.0000 68.4677 0.0000
# 6 0.0000 0.0000 0.0000 0.0000 0.0000 35.1611
#
#
#
# Elastic Compliance Matrix: (Units=1/GPa)
#
#
# Indices 1 2 3 4 5 6 
#
# 1 0.010453 -0.005539 -0.005774 0.000000 0.000000 0.000000
# 2 -0.005539 0.027678 -0.003118 0.000000 0.000000 0.000000
# 3 -0.005774 -0.003118 0.014218 0.000000 0.000000 0.000000
# 4 0.000000 0.000000 0.000000 0.133882 0.000000 0.000000
# 5 0.000000 0.000000 0.000000 0.000000 0.014605 0.000000
# 6 0.000000 0.000000 0.000000 0.000000 0.000000 0.028441
#
#
# Mechanical properties :
#
#
# Convention : Reuss Voigt Hill
#
# Bulk Modulus (GPa) = 42.57497 64.96210 53.76853
# Shear Modulus (GPa) = 18.79917 33.61284 26.20600
#
# Velocity S-wave (km/s) = 3.03363 4.05644 3.58173
# Velocity P-wave (km/s) = 5.75435 7.33083 6.58990
#
# Compressibility (1/GPa) = 0.02348798
#
# Stress axis : x y z
#
# Youngs Moduli (GPa) = 95.66475 36.12941 70.33108
#
# Poissons Ratio (x) = 0.20011 0.40609
# Poissons Ratio (y) = 0.52987 0.21931
# Poissons Ratio (z) = 0.55237 0.11266
#
# Static dielectric constant tensor:
#      x y z
#    x 1.766560 0.000000 0.000000 
#    y 0.000000 1.741360 0.000000 
#    z 0.000000 0.000000 1.743850 
# 
# From -- ./inp_files/21508.got.cif
#   From: 2010.05.17/outbox.cif.g08.bks.cpg/sg72_11_cif.got.tgz:21508.got - 2010.06.03 17:03:01.
