data_PCOD9527434
_publ_section_title
;
Structure prediction by ZEFSAII (Michael W. Deem and Ramdas Pophale) SiO2 
 PCOD9527434
Probable space group: I B A M
;
_chemical_formula_sum "Si O2"
_cell_formula_units_Z 88
_cell_length_a 14.677142
_cell_length_b 20.564887
_cell_length_c 14.733759
_cell_angle_alpha 90.000000
_cell_angle_beta 90.000000
_cell_angle_gamma 90.000000
_cell_volume 4447.145977
_symmetry_space_group_name_H-M "I B A M"
_symmetry_group_IT_number 72
_symmetry_cell_setting 'orthorhombic'
loop_
_space_group_symop_operation_xyz
x,y,z
-x,-y,z
x,-y,1/2-z
-x,y,1/2-z
-x,-y,-z
x,y,-z
-x,y,1/2+z
x,-y,1/2+z
1/2+x,1/2+y,1/2+z
1/2-x,1/2-y,1/2+z
1/2+x,1/2-y,-z
1/2-x,1/2+y,-z
1/2-x,1/2-y,1/2-z
1/2+x,1/2+y,1/2-z
1/2-x,1/2+y,z
1/2+x,1/2-y,z
loop_
_atom_site_type_symbol
_atom_site_label
_atom_site_fract_x
_atom_site_fract_y
_atom_site_fract_z
Si Si1 0.689040 0.111966 0.000000
Si Si2 0.732380 0.248842 0.500000
Si Si3 0.536798 0.313481 0.150625
Si Si4 0.762087 0.564682 0.195595
Si Si5 0.058947 0.278077 0.000000
Si Si6 0.749646 0.311868 0.815913
Si Si7 0.930739 0.942341 0.395415
O O1 0.766963 0.171344 0.000000
O O2 0.697403 0.074281 0.905470
O O3 0.591365 0.148492 0.000000
O O4 0.842232 0.242144 0.500000
O O5 0.701988 0.212805 0.408447
O O6 0.500000 0.301881 0.250000
O O7 0.644366 0.327146 0.160039
O O8 0.486083 0.375439 0.109476
O O9 0.515194 0.250806 0.089412
O O10 0.788070 0.500000 0.250000
O O11 0.784747 0.626755 0.258741
O O12 0.653992 0.561527 0.172593
O O13 0.750000 0.250000 0.750000
O O14 0.899774 0.953744 0.500000
O O15 0.000000 0.000000 0.371340
#
# Coordination Sequence:
#
# PCOD9527434 Si02
#       7
#     8   8  16  16   8  16  16
#     4  10  20  40  55  75 111 152 191 252 297 331
#     4   8  18  33  55  70 102 139 183 233 303 319
#     4  11  19  31  53  76 106 147 193 236 279 339
#     4  12  23  35  55  81 115 159 201 236 287 349
#     4   8  18  35  52  75 103 143 183 237 295 326
#     4  11  20  35  55  78 106 153 196 244 292 342
#     4  11  23  35  47  72 118 161 197 230 271 335
#
# _framework density 19.787970999999999
#
# number of rings (size 3 to 8) (size 9 to 14) (size 15 to 20)
#    0.545    0.909    5.455    1.091    0.000    0.727 
#    0.000    0.909    0.000    0.000    0.000    0.000 
#    0.000   17.455    0.000    0.000    0.000    0.000 
#
# Total GULP energy -245301.799010 kJ/mol
# GULP energy per Si atom -5575.040887 kJ/mol
# Density = 1.974293 g / cm^3
# Si number density = 19.787971 Si / 1000 Ang^3
#
#
#
# Elastic Constant Matrix: (Units=GPa)
#
#
# Indices 1 2 3 4 5 6 
#
# 1 20.6569 8.7881 0.0482 0.0000 0.0000 0.0000
# 2 8.7881 135.7433 75.4475 0.0000 -0.0001 0.0000
# 3 0.0482 75.4475 160.1462 0.0000 -0.0001 0.0000
# 4 0.0000 0.0000 0.0000 56.3139 0.0000 0.0000
# 5 0.0000 -0.0001 -0.0001 0.0000 22.1271 0.0000
# 6 0.0000 0.0000 0.0000 0.0000 0.0000 22.7895
#
#
#
# Elastic Compliance Matrix: (Units=1/GPa)
#
#
# Indices 1 2 3 4 5 6 
#
# 1 0.050276 -0.004398 0.002057 0.000000 0.000000 0.000000
# 2 -0.004398 0.010365 -0.004882 0.000000 0.000000 0.000000
# 3 0.002057 -0.004882 0.008544 0.000000 0.000000 0.000000
# 4 0.000000 0.000000 0.000000 0.017758 0.000000 0.000000
# 5 0.000000 0.000000 0.000000 0.000000 0.045194 0.000000
# 6 0.000000 0.000000 0.000000 0.000000 0.000000 0.043880
#
#
# Mechanical properties :
#
#
# Convention : Reuss Voigt Hill
#
# Bulk Modulus (GPa) = 18.26860 53.90154 36.08507
# Shear Modulus (GPa) = 23.95692 35.73028 29.84360
#
# Velocity S-wave (km/s) = 3.48326 4.25391 3.88773
# Velocity P-wave (km/s) = 5.04278 7.17122 6.19903
#
# Compressibility (1/GPa) = 0.05473874
#
# Stress axis : x y z
#
# Youngs Moduli (GPa) = 19.89009 96.47930 117.04736
#
# Poissons Ratio (x) = 0.42433 -0.24076
# Poissons Ratio (y) = 0.08748 0.57140
# Poissons Ratio (z) = -0.04091 0.47099
#
# Static dielectric constant tensor:
#      x y z
#    x 1.722760 0.000000 0.000000 
#    y 0.000000 1.694530 0.000000 
#    z 0.000000 0.000000 1.747890 
# 
# From -- ./inp_files/21742.got.cif
#   From: 2010.05.17/outbox.cif.g08.bks.cpg/sg72_11_cif.got.tgz:21742.got - 2010.06.03 17:03:01.
