data_PCOD9527192
_publ_section_title
;
Structure prediction by ZEFSAII (Michael W. Deem and Ramdas Pophale) SiO2 
 PCOD9527192
Probable space group: I B A M
;
_chemical_formula_sum "Si O2"
_cell_formula_units_Z 116
_cell_length_a 17.881845
_cell_length_b 11.641150
_cell_length_c 29.091968
_cell_angle_alpha 90.000000
_cell_angle_beta 90.000000
_cell_angle_gamma 90.000000
_cell_volume 6055.936499
_symmetry_space_group_name_H-M "I B A M"
_symmetry_group_IT_number 72
_symmetry_cell_setting 'orthorhombic'
loop_
_space_group_symop_operation_xyz
x,y,z
-x,-y,z
x,-y,1/2-z
-x,y,1/2-z
-x,-y,-z
x,y,-z
-x,y,1/2+z
x,-y,1/2+z
1/2+x,1/2+y,1/2+z
1/2-x,1/2-y,1/2+z
1/2+x,1/2-y,-z
1/2-x,1/2+y,-z
1/2-x,1/2-y,1/2-z
1/2+x,1/2+y,1/2-z
1/2-x,1/2+y,z
1/2+x,1/2-y,z
loop_
_atom_site_type_symbol
_atom_site_label
_atom_site_fract_x
_atom_site_fract_y
_atom_site_fract_z
Si Si1 0.418811 0.449366 0.445056
Si Si2 0.758587 0.080555 0.671947
Si Si3 0.117047 0.282256 0.667280
Si Si4 0.448342 0.822769 0.820597
Si Si5 0.384421 0.373592 0.258100
Si Si6 0.159038 0.258759 0.896276
Si Si7 0.500000 0.000000 0.750000
Si Si8 0.199501 0.114222 0.396970
O O1 0.500000 0.500000 0.429130
O O2 0.420684 0.444649 0.500000
O O3 0.395458 0.323839 0.425558
O O4 0.352569 0.533863 0.428082
O O5 0.672599 0.112697 0.676874
O O6 0.803882 0.102584 0.718598
O O7 0.794712 0.172352 0.636620
O O8 0.774186 0.959357 0.647772
O O9 0.120343 0.197710 0.711306
O O10 0.147570 0.214513 0.623207
O O11 0.032376 0.319406 0.661039
O O12 0.430291 0.702796 0.794564
O O13 0.391017 0.834967 0.862123
O O14 0.449020 0.919397 0.781678
O O15 0.416699 0.500000 0.250000
O O16 0.224750 0.334299 0.919310
#
# Coordination Sequence:
#
# PCOD9527192 Si02
#       8
#    16  16  16  16  16  16   4  16
#     4  10  21  40  66  97 124 150 193 252 315 378
#     4   9  20  34  50  77 110 147 198 241 290 353
#     4  11  20  35  52  77 110 152 202 244 302 343
#     4  11  24  38  53  80 116 162 209 253 299 357
#     4  11  20  37  52  77 107 152 205 256 300 347
#     4   9  21  38  58  84 118 154 199 244 298 369
#     4  12  24  40  46  84 118 168 210 250 304 348
#     4  10  20  37  59  86 113 153 190 243 303 368
#
# _framework density 19.154757
#
# number of rings (size 3 to 8) (size 9 to 14) (size 15 to 20)
#    0.000    1.793    2.759    1.241    1.931    1.655 
#    1.241    0.000    0.000    0.000    0.000    0.483 
#    0.000    0.000    0.000    0.000    0.000    0.000 
#
# Total GULP energy -323662.947868 kJ/mol
# GULP energy per Si atom -5580.395653 kJ/mol
# Density = 1.911116 g / cm^3
# Si number density = 19.154757 Si / 1000 Ang^3
#
#
#
# Elastic Constant Matrix: (Units=GPa)
#
#
# Indices 1 2 3 4 5 6 
#
# 1 139.6419 48.2513 28.9024 0.0000 0.0000 0.0000
# 2 48.2513 65.4149 10.6950 0.0000 0.0000 0.0000
# 3 28.9024 10.6950 46.0101 0.0000 0.0000 0.0000
# 4 0.0000 0.0000 0.0000 18.0446 0.0000 0.0000
# 5 0.0000 0.0000 0.0000 0.0000 13.6837 0.0000
# 6 0.0000 0.0000 0.0000 0.0000 0.0000 29.6476
#
#
#
# Elastic Compliance Matrix: (Units=1/GPa)
#
#
# Indices 1 2 3 4 5 6 
#
# 1 0.010630 -0.007016 -0.005047 0.000000 0.000000 0.000000
# 2 -0.007016 0.020521 -0.000363 0.000000 0.000000 0.000000
# 3 -0.005047 -0.000363 0.024989 0.000000 0.000000 0.000000
# 4 0.000000 0.000000 0.000000 0.055418 0.000000 0.000000
# 5 0.000000 0.000000 0.000000 0.000000 0.073080 0.000000
# 6 0.000000 0.000000 0.000000 0.000000 0.000000 0.033730
#
#
# Mechanical properties :
#
#
# Convention : Reuss Voigt Hill
#
# Bulk Modulus (GPa) = 31.95980 47.41825 39.68902
# Shear Modulus (GPa) = 19.71235 23.15640 21.43438
#
# Velocity S-wave (km/s) = 3.21145 3.48071 3.34879
# Velocity P-wave (km/s) = 5.52019 6.40023 5.97643
#
# Compressibility (1/GPa) = 0.03128931
#
# Stress axis : x y z
#
# Youngs Moduli (GPa) = 94.07446 48.72982 40.01777
#
# Poissons Ratio (x) = 0.34187 0.20195
# Poissons Ratio (y) = 0.66000 0.01453
# Poissons Ratio (z) = 0.47476 0.01769
#
# Static dielectric constant tensor:
#      x y z
#    x 1.695470 0.000000 0.000000 
#    y 0.000000 1.708110 0.000000 
#    z 0.000000 0.000000 1.640550 
# 
# From -- ./inp_files/52111.got.cif
#   From: 2010.05.17/outbox.cif.g08.bks.cpg/sg72_27_cif.got.tgz:52111.got - 2010.06.03 17:03:01.
