data_PCOD9527606
_publ_section_title
;
Structure prediction by ZEFSAII (Michael W. Deem and Ramdas Pophale) SiO2 
 PCOD9527606
Probable space group: I B A M
;
_chemical_formula_sum "Si O2"
_cell_formula_units_Z 68
_cell_length_a 20.718433
_cell_length_b 13.816164
_cell_length_c 11.035341
_cell_angle_alpha 90.000000
_cell_angle_beta 90.000000
_cell_angle_gamma 90.000000
_cell_volume 3158.858285
_symmetry_space_group_name_H-M "I B A M"
_symmetry_group_IT_number 72
_symmetry_cell_setting 'orthorhombic'
loop_
_space_group_symop_operation_xyz
x,y,z
-x,-y,z
x,-y,1/2-z
-x,y,1/2-z
-x,-y,-z
x,y,-z
-x,y,1/2+z
x,-y,1/2+z
1/2+x,1/2+y,1/2+z
1/2-x,1/2-y,1/2+z
1/2+x,1/2-y,-z
1/2-x,1/2+y,-z
1/2-x,1/2-y,1/2-z
1/2+x,1/2+y,1/2-z
1/2-x,1/2+y,z
1/2+x,1/2-y,z
loop_
_atom_site_type_symbol
_atom_site_label
_atom_site_fract_x
_atom_site_fract_y
_atom_site_fract_z
Si Si1 0.952003 0.867216 0.858319
Si Si2 0.245400 0.615446 0.361964
Si Si3 0.689947 0.594654 0.631433
Si Si4 0.098686 0.652112 0.643071
Si Si5 0.500000 0.000000 0.250000
O O1 0.885874 0.928364 0.859497
O O2 0.927523 0.758474 0.825093
O O3 0.000000 0.894513 0.750000
O O4 0.976690 0.868214 0.000000
O O5 0.254440 0.653254 0.500000
O O6 0.267819 0.502869 0.371653
O O7 0.289126 0.652758 0.250666
O O8 0.171586 0.626818 0.318920
O O9 0.697871 0.644202 0.500000
O O10 0.102974 0.652937 0.500000
O O11 0.047616 0.570954 0.678775
#
# Coordination Sequence:
#
# PCOD9527606 Si02
#       5
#    16  16  16  16   4
#     4  10  21  39  57  81 114 148 183 227 276 328
#     4   9  18  35  55  80 110 144 184 228 275 324
#     4   9  18  34  57  80 110 145 184 230 274 322
#     4  10  21  35  54  80 113 145 183 229 271 325
#     4  12  18  32  56  78 108 150 184 220 270 332
#
# _framework density 21.526765999999999
#
# number of rings (size 3 to 8) (size 9 to 14) (size 15 to 20)
#    0.000    2.353    1.176    1.765    0.000    1.882 
#    0.000    4.706    0.000   12.706    0.000    0.000 
#    0.000    0.000    0.000    0.000    0.000    0.000 
#
# Total GULP energy -189446.320664 kJ/mol
# GULP energy per Si atom -5571.950608 kJ/mol
# Density = 2.147777 g / cm^3
# Si number density = 21.526766 Si / 1000 Ang^3
#
#
#
# Elastic Constant Matrix: (Units=GPa)
#
#
# Indices 1 2 3 4 5 6 
#
# 1 135.6157 29.5506 77.3297 0.0000 0.0000 0.0000
# 2 29.5506 90.9286 13.4838 0.0000 0.0000 0.0000
# 3 77.3297 13.4838 168.9051 0.0000 0.0000 0.0000
# 4 0.0000 0.0000 0.0000 -10.9102 0.0000 0.0000
# 5 0.0000 0.0000 0.0000 0.0000 46.7630 0.0000
# 6 0.0000 0.0000 0.0000 0.0000 0.0000 25.9726
#
#
#
# Elastic Compliance Matrix: (Units=1/GPa)
#
#
# Indices 1 2 3 4 5 6 
#
# 1 0.010624 -0.002764 -0.004643 0.000000 0.000000 0.000000
# 2 -0.002764 0.011849 0.000320 0.000000 0.000000 0.000000
# 3 -0.004643 0.000320 0.008021 0.000000 0.000000 0.000000
# 4 0.000000 0.000000 0.000000 -0.091658 0.000000 0.000000
# 5 0.000000 0.000000 0.000000 0.000000 0.021384 0.000000
# 6 0.000000 0.000000 0.000000 0.000000 0.000000 0.038502
#
#
# Mechanical properties :
#
#
# Convention : Reuss Voigt Hill
#
# Bulk Modulus (GPa) = 61.28311 70.68638 65.98474
# Shear Modulus (GPa) = 272.68208 30.70411 151.69309
#
# Velocity S-wave (km/s) = 11.26704 3.78077 8.40358
# Velocity P-wave (km/s) = 14.06384 7.20879 11.17494
#
# Compressibility (1/GPa) = 0.01631771
#
# Stress axis : x y z
#
# Youngs Moduli (GPa) = 94.12972 84.39874 124.67669
#
# Poissons Ratio (x) = 0.23328 0.57889
# Poissons Ratio (y) = 0.26018 -0.03984
# Poissons Ratio (z) = 0.43706 -0.02697
#
# Static dielectric constant tensor:
#      x y z
#    x 1.806610 0.000000 0.000000 
#    y 0.000000 1.851900 0.000000 
#    z 0.000000 0.000000 1.996900 
# 
# From -- ./inp_files/13624.got.cif
#   From: 2010.05.17/outbox.cif.g08.bks.cpg/sg72_7_cif.got.tgz:13624.got - 2010.06.03 17:03:01.
