data_PCOD9527163
_publ_section_title
;
Structure prediction by ZEFSAII (Michael W. Deem and Ramdas Pophale) SiO2 
 PCOD9527163
Probable space group: I B A M
;
_chemical_formula_sum "Si O2"
_cell_formula_units_Z 116
_cell_length_a 28.164802
_cell_length_b 13.102928
_cell_length_c 17.316691
_cell_angle_alpha 90.000000
_cell_angle_beta 90.000000
_cell_angle_gamma 90.000000
_cell_volume 6390.575418
_symmetry_space_group_name_H-M "I B A M"
_symmetry_group_IT_number 72
_symmetry_cell_setting 'orthorhombic'
loop_
_space_group_symop_operation_xyz
x,y,z
-x,-y,z
x,-y,1/2-z
-x,y,1/2-z
-x,-y,-z
x,y,-z
-x,y,1/2+z
x,-y,1/2+z
1/2+x,1/2+y,1/2+z
1/2-x,1/2-y,1/2+z
1/2+x,1/2-y,-z
1/2-x,1/2+y,-z
1/2-x,1/2-y,1/2-z
1/2+x,1/2+y,1/2-z
1/2-x,1/2+y,z
1/2+x,1/2-y,z
loop_
_atom_site_type_symbol
_atom_site_label
_atom_site_fract_x
_atom_site_fract_y
_atom_site_fract_z
Si Si1 0.854583 0.524469 0.911436
Si Si2 0.348787 0.190982 0.727052
Si Si3 0.500000 0.000000 0.750000
Si Si4 0.570900 0.867653 0.848999
Si Si5 0.428969 0.543317 0.092546
Si Si6 0.834936 0.919611 0.820452
Si Si7 0.273429 0.081174 0.819964
Si Si8 0.981542 0.835845 0.406973
O O1 0.854802 0.615037 0.846880
O O2 0.899383 0.447122 0.902392
O O3 0.808052 0.459527 0.886848
O O4 0.852113 0.560736 0.000000
O O5 0.390554 0.165805 0.785956
O O6 0.350386 0.307543 0.704761
O O7 0.300180 0.173142 0.776082
O O8 0.531899 0.931697 0.804581
O O9 0.544319 0.768294 0.882601
O O10 0.375040 0.548031 0.119430
O O11 0.464422 0.635436 0.119057
O O12 0.451392 0.435231 0.118267
O O13 0.430554 0.544547 0.000000
O O14 0.780379 0.907985 0.847613
O O15 0.835710 0.000000 0.750000
O O16 0.272620 0.000000 0.750000
O O17 0.982439 0.834764 0.500000
#
# Coordination Sequence:
#
# PCOD9527163 Si02
#       8
#    16  16   4  16  16  16  16  16
#     4  10  20  38  59  82 108 146 189 227 280 347
#     4  10  20  37  56  80 115 151 177 234 288 330
#     4  12  24  36  54  82 116 140 178 244 276 320
#     4  11  21  38  58  82 112 148 189 231 281 327
#     4   9  20  37  54  81 119 149 184 235 287 329
#     4  11  21  34  56  87 110 146 191 232 275 340
#     4   8  18  36  57  79 111 144 182 229 280 330
#     4   9  19  38  59  78 111 157 189 225 279 341
#
# _framework density 18.151730000000001
#
# number of rings (size 3 to 8) (size 9 to 14) (size 15 to 20)
#    0.000    2.207    1.379    3.310    1.931    1.103 
#    0.000    3.448    0.000    0.000    0.000    0.000 
#    0.000    0.000    0.000    0.000    0.000    0.000 
#
# Total GULP energy -323030.910468 kJ/mol
# GULP energy per Si atom -5569.498456 kJ/mol
# Density = 1.811042 g / cm^3
# Si number density = 18.151730 Si / 1000 Ang^3
#
#
#
# Elastic Constant Matrix: (Units=GPa)
#
#
# Indices 1 2 3 4 5 6 
#
# 1 136.0908 35.3207 41.0011 0.0000 0.0000 0.0000
# 2 35.3207 97.4927 30.9572 0.0000 0.0000 0.0000
# 3 41.0011 30.9572 56.2438 0.0000 0.0000 0.0000
# 4 0.0000 0.0000 0.0000 31.1470 0.0000 0.0000
# 5 0.0000 0.0000 0.0000 0.0000 26.3642 0.0000
# 6 0.0000 0.0000 0.0000 0.0000 0.0000 23.3273
#
#
#
# Elastic Compliance Matrix: (Units=1/GPa)
#
#
# Indices 1 2 3 4 5 6 
#
# 1 0.009599 -0.001522 -0.006160 0.000000 0.000000 0.000000
# 2 -0.001522 0.012671 -0.005865 0.000000 0.000000 0.000000
# 3 -0.006160 -0.005865 0.025498 0.000000 0.000000 0.000000
# 4 0.000000 0.000000 0.000000 0.032106 0.000000 0.000000
# 5 0.000000 0.000000 0.000000 0.000000 0.037930 0.000000
# 6 0.000000 0.000000 0.000000 0.000000 0.000000 0.042868
#
#
# Mechanical properties :
#
#
# Convention : Reuss Voigt Hill
#
# Bulk Modulus (GPa) = 48.36735 56.04279 52.20507
# Shear Modulus (GPa) = 25.68626 28.33759 27.01192
#
# Velocity S-wave (km/s) = 3.76584 3.95543 3.86180
# Velocity P-wave (km/s) = 6.75372 7.19737 6.97907
#
# Compressibility (1/GPa) = 0.02067510
#
# Stress axis : x y z
#
# Youngs Moduli (GPa) = 104.17989 78.92204 39.21822
#
# Poissons Ratio (x) = 0.12009 0.24158
# Poissons Ratio (y) = 0.15852 0.23001
# Poissons Ratio (z) = 0.64174 0.46287
#
# Static dielectric constant tensor:
#      x y z
#    x 1.650780 0.000000 0.000000 
#    y 0.000000 1.651410 0.000000 
#    z 0.000000 0.000000 1.616900 
# 
# From -- ./inp_files/34001.got.cif
#   From: 2010.05.17/outbox.cif.g08.bks.cpg/sg72_18_cif.got.tgz:34001.got - 2010.06.03 17:03:01.
