data_PCOD9527840
_publ_section_title
;
Structure prediction by ZEFSAII (Michael W. Deem and Ramdas Pophale) SiO2 
 PCOD9527840
Probable space group: I B A M
;
_chemical_formula_sum "Si O2"
_cell_formula_units_Z 64
_cell_length_a 19.476489
_cell_length_b 8.861048
_cell_length_c 14.711336
_cell_angle_alpha 90.000000
_cell_angle_beta 90.000000
_cell_angle_gamma 90.000000
_cell_volume 2538.913318
_symmetry_space_group_name_H-M "I B A M"
_symmetry_group_IT_number 72
_symmetry_cell_setting 'orthorhombic'
loop_
_space_group_symop_operation_xyz
x,y,z
-x,-y,z
x,-y,1/2-z
-x,y,1/2-z
-x,-y,-z
x,y,-z
-x,y,1/2+z
x,-y,1/2+z
1/2+x,1/2+y,1/2+z
1/2-x,1/2-y,1/2+z
1/2+x,1/2-y,-z
1/2-x,1/2+y,-z
1/2-x,1/2-y,1/2-z
1/2+x,1/2+y,1/2-z
1/2-x,1/2+y,z
1/2+x,1/2-y,z
loop_
_atom_site_type_symbol
_atom_site_label
_atom_site_fract_x
_atom_site_fract_y
_atom_site_fract_z
Si Si1 0.791715 0.175351 0.636071
Si Si2 0.832959 0.146673 0.849700
Si Si3 0.528812 0.220852 0.397514
Si Si4 0.603902 0.924061 0.653271
O O1 0.809309 0.156230 0.744202
O O2 0.713712 0.216768 0.612587
O O3 0.836152 0.323166 0.611983
O O4 0.812560 0.010397 0.604093
O O5 0.913934 0.167185 0.859414
O O6 0.508317 0.262609 0.500000
O O7 0.460811 0.190516 0.339078
O O8 0.570690 0.062586 0.400182
O O9 0.623862 0.000000 0.750000
#
# Coordination Sequence:
#
# PCOD9527840 Si02
#       4
#    16  16  16  16
#     4  10  21  37  64  93 119 155 212 260 310 358
#     4  10  21  38  61  93 123 158 203 263 310 370
#     4  11  23  40  60  91 130 170 206 255 317 377
#     4  11  21  38  65  94 123 167 216 261 306 371
#
# _framework density 25.207635
#
# number of rings (size 3 to 8) (size 9 to 14) (size 15 to 20)
#    0.000    1.500    2.500    4.500    3.500    1.000 
#    0.000   12.500    0.000    0.000    0.000    0.000 
#    0.000    0.000    0.000    0.000    0.000    0.000 
#
# Total GULP energy -178745.297595 kJ/mol
# GULP energy per Si atom -5585.790550 kJ/mol
# Density = 2.515026 g / cm^3
# Si number density = 25.207635 Si / 1000 Ang^3
#
#
#
# Elastic Constant Matrix: (Units=GPa)
#
#
# Indices 1 2 3 4 5 6 
#
# 1 115.1428 22.8773 -15.4431 0.0000 0.0000 0.0000
# 2 22.8773 88.6384 -5.1077 0.0000 0.0000 0.0000
# 3 -15.4431 -5.1077 84.8117 0.0000 0.0000 0.0000
# 4 0.0000 0.0000 0.0000 -4.6826 0.0000 0.0000
# 5 0.0000 0.0000 0.0000 0.0000 -11.3651 0.0000
# 6 0.0000 0.0000 0.0000 0.0000 0.0000 45.6539
#
#
#
# Elastic Compliance Matrix: (Units=1/GPa)
#
#
# Indices 1 2 3 4 5 6 
#
# 1 0.009356 -0.002325 0.001564 0.000000 0.000000 0.000000
# 2 -0.002325 0.011899 0.000293 0.000000 0.000000 0.000000
# 3 0.001564 0.000293 0.012093 0.000000 0.000000 0.000000
# 4 0.000000 0.000000 0.000000 -0.213555 0.000000 0.000000
# 5 0.000000 0.000000 0.000000 0.000000 -0.087988 0.000000
# 6 0.000000 0.000000 0.000000 0.000000 0.000000 0.021904
#
#
# Mechanical properties :
#
#
# Convention : Reuss Voigt Hill
#
# Bulk Modulus (GPa) = 30.85203 32.58289 31.71746
# Shear Modulus (GPa) = -21.31734 25.00564 1.84415
#
# Velocity S-wave (km/s) = -2.91120 3.15300 0.85626
# Velocity P-wave (km/s) = 0.98268 5.11948 3.68610
#
# Compressibility (1/GPa) = 0.03241278
#
# Stress axis : x y z
#
# Youngs Moduli (GPa) = 106.87764 84.04276 82.69095
#
# Poissons Ratio (x) = 0.19538 -0.12930
# Poissons Ratio (y) = 0.24847 -0.02425
# Poissons Ratio (z) = -0.16712 -0.02465
#
# Static dielectric constant tensor:
#      x y z
#    x 1.969060 0.000000 0.000000 
#    y 0.000000 2.037390 0.000000 
#    z 0.000000 0.000000 2.112110 
# 
# From -- ./inp_files/32210.got.cif
#   From: 2010.05.17/outbox.cif.g08.bks.cpg/sg72_17_cif.got.tgz:32210.got - 2010.06.03 17:03:01.
