data_PCOD9527180
_publ_section_title
;
Structure prediction by ZEFSAII (Michael W. Deem and Ramdas Pophale) SiO2 
 PCOD9527180
Probable space group: I B A M
;
_chemical_formula_sum "Si O2"
_cell_formula_units_Z 112
_cell_length_a 28.114872
_cell_length_b 10.273724
_cell_length_c 18.419319
_cell_angle_alpha 90.000000
_cell_angle_beta 90.000000
_cell_angle_gamma 90.000000
_cell_volume 5320.317794
_symmetry_space_group_name_H-M "I B A M"
_symmetry_group_IT_number 72
_symmetry_cell_setting 'orthorhombic'
loop_
_space_group_symop_operation_xyz
x,y,z
-x,-y,z
x,-y,1/2-z
-x,y,1/2-z
-x,-y,-z
x,y,-z
-x,y,1/2+z
x,-y,1/2+z
1/2+x,1/2+y,1/2+z
1/2-x,1/2-y,1/2+z
1/2+x,1/2-y,-z
1/2-x,1/2+y,-z
1/2-x,1/2-y,1/2-z
1/2+x,1/2+y,1/2-z
1/2-x,1/2+y,z
1/2+x,1/2-y,z
loop_
_atom_site_type_symbol
_atom_site_label
_atom_site_fract_x
_atom_site_fract_y
_atom_site_fract_z
Si Si1 0.724910 0.712580 0.173646
Si Si2 0.442334 0.506928 0.078680
Si Si3 0.458518 0.200308 0.415731
Si Si4 0.268253 0.977911 0.582140
Si Si5 0.131623 0.299012 0.731401
Si Si6 0.963906 0.195860 0.809021
Si Si7 0.866952 0.445968 0.631186
O O1 0.750000 0.750000 0.250000
O O2 0.742535 0.581607 0.134902
O O3 0.669038 0.703497 0.194215
O O4 0.732338 0.835606 0.119496
O O5 0.500000 0.500000 0.073924
O O6 0.432587 0.658302 0.091319
O O7 0.434650 0.407802 0.143270
O O8 0.422853 0.466675 0.000000
O O9 0.474316 0.190054 0.500000
O O10 0.504237 0.213191 0.362570
O O11 0.418457 0.092857 0.399767
O O12 0.248847 0.975033 0.500000
O O13 0.323132 0.026540 0.578929
O O14 0.076582 0.264655 0.736720
O O15 0.130507 0.425530 0.680254
O O16 0.148427 0.334567 0.811871
O O17 0.000000 0.139219 0.750000
#
# Coordination Sequence:
#
# PCOD9527180 Si02
#       7
#    16  16  16  16  16  16  16
#     4  11  22  44  71  94 129 173 210 265 325 399
#     4   8  17  34  53  73 109 159 200 242 299 354
#     4  10  20  37  58  84 118 163 206 248 306 366
#     4  11  23  42  70 101 131 165 214 271 329 386
#     4  10  22  39  60  91 120 158 207 255 314 366
#     4  11  20  35  56  85 121 158 205 257 295 360
#     4  10  20  40  62  87 123 161 205 254 308 376
#
# _framework density 21.051375
#
# number of rings (size 3 to 8) (size 9 to 14) (size 15 to 20)
#    0.000    1.857    2.857    2.571    0.000    3.143 
#    2.571    9.286    0.000    0.000    0.000    0.000 
#    0.000    0.000    0.000    0.000    0.000    0.000 
#
# Total GULP energy -312156.878698 kJ/mol
# GULP energy per Si atom -5574.229977 kJ/mol
# Density = 2.100346 g / cm^3
# Si number density = 21.051375 Si / 1000 Ang^3
#
#
#
# Elastic Constant Matrix: (Units=GPa)
#
#
# Indices 1 2 3 4 5 6 
#
# 1 66.1615 3.3370 8.0933 0.0000 0.0000 0.0000
# 2 3.3370 9.4000 -3.6099 0.0000 0.0000 0.0000
# 3 8.0933 -3.6099 99.8923 0.0000 0.0000 0.0000
# 4 0.0000 0.0000 0.0000 9.6322 0.0000 0.0000
# 5 0.0000 0.0000 0.0000 0.0000 20.9786 0.0000
# 6 0.0000 0.0000 0.0000 0.0000 0.0000 20.3156
#
#
#
# Elastic Compliance Matrix: (Units=1/GPa)
#
#
# Indices 1 2 3 4 5 6 
#
# 1 0.015604 -0.006110 -0.001485 0.000000 0.000000 0.000000
# 2 -0.006110 0.110273 0.004480 0.000000 0.000000 0.000000
# 3 -0.001485 0.004480 0.010293 0.000000 0.000000 0.000000
# 4 0.000000 0.000000 0.000000 0.103818 0.000000 0.000000
# 5 0.000000 0.000000 0.000000 0.000000 0.047668 0.000000
# 6 0.000000 0.000000 0.000000 0.000000 0.000000 0.049223
#
#
# Mechanical properties :
#
#
# Convention : Reuss Voigt Hill
#
# Bulk Modulus (GPa) = 7.69585 21.23271 14.46428
# Shear Modulus (GPa) = 12.93922 21.36085 17.15003
#
# Velocity S-wave (km/s) = 2.48190 3.18889 2.85735
# Velocity P-wave (km/s) = 3.44627 4.86485 4.21566
#
# Compressibility (1/GPa) = 0.12994013
#
# Stress axis : x y z
#
# Youngs Moduli (GPa) = 64.08460 9.06844 97.15332
#
# Poissons Ratio (x) = 0.05541 0.14428
# Poissons Ratio (y) = 0.39155 -0.43526
# Poissons Ratio (z) = 0.09517 -0.04063
#
# Static dielectric constant tensor:
#      x y z
#    x 1.779160 0.000000 0.000000 
#    y 0.000000 1.794620 0.000000 
#    z 0.000000 0.000000 1.797140 
# 
# From -- ./inp_files/26358.got.cif
#   From: 2010.05.17/outbox.cif.g08.bks.cpg/sg72_14_cif.got.tgz:26358.got - 2010.06.03 17:03:01.
