data_PCOD9527965
_publ_section_title
;
Structure prediction by ZEFSAII (Michael W. Deem and Ramdas Pophale) SiO2 
 PCOD9527965
Probable space group: I B A M
;
_chemical_formula_sum "Si O2"
_cell_formula_units_Z 80
_cell_length_a 8.859668
_cell_length_b 14.660287
_cell_length_c 27.637694
_cell_angle_alpha 90.000000
_cell_angle_beta 90.000000
_cell_angle_gamma 90.000000
_cell_volume 3589.729502
_symmetry_space_group_name_H-M "I B A M"
_symmetry_group_IT_number 72
_symmetry_cell_setting 'orthorhombic'
loop_
_space_group_symop_operation_xyz
x,y,z
-x,-y,z
x,-y,1/2-z
-x,y,1/2-z
-x,-y,-z
x,y,-z
-x,y,1/2+z
x,-y,1/2+z
1/2+x,1/2+y,1/2+z
1/2-x,1/2-y,1/2+z
1/2+x,1/2-y,-z
1/2-x,1/2+y,-z
1/2-x,1/2-y,1/2-z
1/2+x,1/2+y,1/2-z
1/2-x,1/2+y,z
1/2+x,1/2-y,z
loop_
_atom_site_type_symbol
_atom_site_label
_atom_site_fract_x
_atom_site_fract_y
_atom_site_fract_z
Si Si1 0.367146 0.699526 0.715063
Si Si2 0.268626 0.047488 0.352531
Si Si3 0.206149 0.806293 0.445494
Si Si4 0.631181 0.618374 0.945180
Si Si5 0.403901 0.133662 0.856391
O O1 0.500000 0.670746 0.750000
O O2 0.250000 0.750000 0.750000
O O3 0.305151 0.613616 0.686298
O O4 0.414659 0.775866 0.675657
O O5 0.171633 0.049893 0.402015
O O6 0.431112 0.092484 0.363900
O O7 0.302629 0.946663 0.332880
O O8 0.244071 0.836513 0.500000
O O9 0.242512 0.698321 0.443697
O O10 0.317848 0.846906 0.406052
O O11 0.031964 0.833616 0.436753
O O12 0.630500 0.580150 0.000000
#
# Coordination Sequence:
#
# PCOD9527965 Si02
#       5
#    16  16  16  16  16
#     4  12  26  48  73  96 131 178 227 283 346 402
#     4  11  25  45  70 103 136 178 224 279 345 407
#     4  10  21  38  65  99 138 183 226 274 335 406
#     4  10  21  38  65  99 138 182 226 272 335 407
#     4  11  25  45  70 101 139 175 225 281 341 410
#
# _framework density 22.285802
#
# number of rings (size 3 to 8) (size 9 to 14) (size 15 to 20)
#    0.000    1.200    4.000    1.200    2.800    4.800 
#    0.000    5.000    0.000    0.000    0.000    0.000 
#    0.000    0.000    0.000    0.000    0.000    0.000 
#
# Total GULP energy -223788.120304 kJ/mol
# GULP energy per Si atom -5594.703008 kJ/mol
# Density = 2.223508 g / cm^3
# Si number density = 22.285802 Si / 1000 Ang^3
#
#
#
# Elastic Constant Matrix: (Units=GPa)
#
#
# Indices 1 2 3 4 5 6 
#
# 1 91.7251 24.8996 56.2463 0.0000 0.0000 0.0000
# 2 24.8996 96.2474 40.2191 0.0000 0.0000 0.0000
# 3 56.2463 40.2191 113.3335 0.0000 0.0000 0.0000
# 4 0.0000 0.0000 0.0000 -196.8031 0.0000 0.0000
# 5 0.0000 0.0000 0.0000 0.0000 36.2487 0.0000
# 6 0.0000 0.0000 0.0000 0.0000 0.0000 37.1419
#
#
#
# Elastic Compliance Matrix: (Units=1/GPa)
#
#
# Indices 1 2 3 4 5 6 
#
# 1 0.015745 -0.000949 -0.007477 0.000000 0.000000 0.000000
# 2 -0.000949 0.012256 -0.003879 0.000000 0.000000 0.000000
# 3 -0.007477 -0.003879 0.013911 0.000000 0.000000 0.000000
# 4 0.000000 0.000000 0.000000 -0.005081 0.000000 0.000000
# 5 0.000000 0.000000 0.000000 0.000000 0.027587 0.000000
# 6 0.000000 0.000000 0.000000 0.000000 0.000000 0.026924
#
#
# Mechanical properties :
#
#
# Convention : Reuss Voigt Hill
#
# Bulk Modulus (GPa) = 57.79477 60.44845 59.12161
# Shear Modulus (GPa) = 41.07851 -12.68645 14.19603
#
# Velocity S-wave (km/s) = 4.29798 -2.38851 2.52662
# Velocity P-wave (km/s) = 7.11477 4.42453 5.92437
#
# Compressibility (1/GPa) = 0.01730260
#
# Stress axis : x y z
#
# Youngs Moduli (GPa) = 63.51299 81.59236 71.88638
#
# Poissons Ratio (x) = 0.07740 0.53752
# Poissons Ratio (y) = 0.06025 0.27881
# Poissons Ratio (z) = 0.47491 0.31646
#
# Static dielectric constant tensor:
#      x y z
#    x 1.775310 0.000000 0.000000 
#    y 0.000000 1.851490 0.000000 
#    z 0.000000 0.000000 1.794460 
# 
# From -- ./inp_files/47196.got.cif
#   From: 2010.05.17/outbox.cif.g08.bks.cpg/sg72_24_cif.got.tgz:47196.got - 2010.06.03 17:03:01.
