data_PCOD9527684
_publ_section_title
;
Structure prediction by ZEFSAII (Michael W. Deem and Ramdas Pophale) SiO2 
 PCOD9527684
Probable space group: I B A M
;
_chemical_formula_sum "Si O2"
_cell_formula_units_Z 80
_cell_length_a 11.422129
_cell_length_b 12.548259
_cell_length_c 28.327397
_cell_angle_alpha 90.000000
_cell_angle_beta 90.000000
_cell_angle_gamma 90.000000
_cell_volume 4060.104427
_symmetry_space_group_name_H-M "I B A M"
_symmetry_group_IT_number 72
_symmetry_cell_setting 'orthorhombic'
loop_
_space_group_symop_operation_xyz
x,y,z
-x,-y,z
x,-y,1/2-z
-x,y,1/2-z
-x,-y,-z
x,y,-z
-x,y,1/2+z
x,-y,1/2+z
1/2+x,1/2+y,1/2+z
1/2-x,1/2-y,1/2+z
1/2+x,1/2-y,-z
1/2-x,1/2+y,-z
1/2-x,1/2-y,1/2-z
1/2+x,1/2+y,1/2-z
1/2-x,1/2+y,z
1/2+x,1/2-y,z
loop_
_atom_site_type_symbol
_atom_site_label
_atom_site_fract_x
_atom_site_fract_y
_atom_site_fract_z
Si Si1 0.030063 0.875680 0.801951
Si Si2 0.067016 0.761236 0.609959
Si Si3 0.606383 0.924463 0.094011
Si Si4 0.238101 0.909503 0.132936
Si Si5 0.845605 0.953456 0.947303
O O1 0.948519 0.819867 0.840384
O O2 0.163093 0.873174 0.822155
O O3 0.000000 0.832741 0.750000
O O4 0.000000 0.000000 0.801480
O O5 0.952440 0.687784 0.604322
O O6 0.179852 0.684174 0.613245
O O7 0.085307 0.849646 0.570017
O O8 0.326917 0.011959 0.136949
O O9 0.708899 0.920101 0.056073
O O10 0.500000 0.000000 0.078636
O O11 0.149542 0.953767 0.092439
O O12 0.873296 0.987630 0.000000
#
# Coordination Sequence:
#
# PCOD9527684 Si02
#       5
#    16  16  16  16  16
#     4  11  22  38  63  88 116 158 200 249 311 373
#     4  11  20  39  63  88 125 162 199 250 314 354
#     4   8  18  37  61  82 120 169 193 250 303 353
#     4   9  21  41  58  87 127 157 200 256 299 362
#     4  10  21  36  58  91 120 160 208 244 293 362
#
# _framework density 19.703928000000001
#
# number of rings (size 3 to 8) (size 9 to 14) (size 15 to 20)
#    1.200    1.000    2.000    1.200    0.000    2.800 
#    0.000    4.000    0.000    4.200    0.000    0.000 
#    0.000    0.000    0.000    0.000    0.000    0.000 
#
# Total GULP energy -222676.626643 kJ/mol
# GULP energy per Si atom -5566.915666 kJ/mol
# Density = 1.965908 g / cm^3
# Si number density = 19.703928 Si / 1000 Ang^3
#
#
#
# Elastic Constant Matrix: (Units=GPa)
#
#
# Indices 1 2 3 4 5 6 
#
# 1 108.7588 26.0802 23.1712 0.0000 0.0000 0.0000
# 2 26.0802 59.0611 21.0067 0.0000 0.0000 0.0000
# 3 23.1712 21.0067 97.7476 0.0000 0.0000 0.0000
# 4 0.0000 0.0000 0.0000 8.3096 0.0000 0.0000
# 5 0.0000 0.0000 0.0000 0.0000 21.3547 0.0000
# 6 0.0000 0.0000 0.0000 0.0000 0.0000 36.1080
#
#
#
# Elastic Compliance Matrix: (Units=1/GPa)
#
#
# Indices 1 2 3 4 5 6 
#
# 1 0.010515 -0.004068 -0.001618 0.000000 0.000000 0.000000
# 2 -0.004068 0.019906 -0.003314 0.000000 0.000000 0.000000
# 3 -0.001618 -0.003314 0.011326 0.000000 0.000000 0.000000
# 4 0.000000 0.000000 0.000000 0.120343 0.000000 0.000000
# 5 0.000000 0.000000 0.000000 0.000000 0.046828 0.000000
# 6 0.000000 0.000000 0.000000 0.000000 0.000000 0.027695
#
#
# Mechanical properties :
#
#
# Convention : Reuss Voigt Hill
#
# Bulk Modulus (GPa) = 42.10885 45.12041 43.61463
# Shear Modulus (GPa) = 19.04554 26.17507 22.61030
#
# Velocity S-wave (km/s) = 3.11237 3.64870 3.39116
# Velocity P-wave (km/s) = 5.85943 6.37962 6.12505
#
# Compressibility (1/GPa) = 0.02374798
#
# Stress axis : x y z
#
# Youngs Moduli (GPa) = 95.10357 50.23508 88.29045
#
# Poissons Ratio (x) = 0.20433 0.14289
# Poissons Ratio (y) = 0.38684 0.29258
# Poissons Ratio (z) = 0.15392 0.16647
#
# Static dielectric constant tensor:
#      x y z
#    x 1.755920 0.000000 0.000000 
#    y 0.000000 1.728520 0.000000 
#    z 0.000000 0.000000 1.676020 
# 
# From -- ./inp_files/47971.got.cif
#   From: 2010.05.17/outbox.cif.g08.bks.cpg/sg72_24_cif.got.tgz:47971.got - 2010.06.03 17:03:01.
