data_PCOD9527467
_publ_section_title
;
Structure prediction by ZEFSAII (Michael W. Deem and Ramdas Pophale) SiO2 
 PCOD9527467
Probable space group: I B A M
;
_chemical_formula_sum "Si O2"
_cell_formula_units_Z 80
_cell_length_a 13.871126
_cell_length_b 9.514911
_cell_length_c 24.234337
_cell_angle_alpha 90.000000
_cell_angle_beta 90.000000
_cell_angle_gamma 90.000000
_cell_volume 3198.509095
_symmetry_space_group_name_H-M "I B A M"
_symmetry_group_IT_number 72
_symmetry_cell_setting 'orthorhombic'
loop_
_space_group_symop_operation_xyz
x,y,z
-x,-y,z
x,-y,1/2-z
-x,y,1/2-z
-x,-y,-z
x,y,-z
-x,y,1/2+z
x,-y,1/2+z
1/2+x,1/2+y,1/2+z
1/2-x,1/2-y,1/2+z
1/2+x,1/2-y,-z
1/2-x,1/2+y,-z
1/2-x,1/2-y,1/2-z
1/2+x,1/2+y,1/2-z
1/2-x,1/2+y,z
1/2+x,1/2-y,z
loop_
_atom_site_type_symbol
_atom_site_label
_atom_site_fract_x
_atom_site_fract_y
_atom_site_fract_z
Si Si1 0.270664 0.535597 0.135899
Si Si2 0.772917 0.220517 0.937626
Si Si3 0.072050 0.795586 0.674214
Si Si4 0.500097 0.670775 0.560697
Si Si5 0.382457 0.850356 0.723439
O O1 0.266749 0.628567 0.080154
O O2 0.247996 0.383171 0.112967
O O3 0.375781 0.552409 0.165088
O O4 0.192427 0.603204 0.176720
O O5 0.889398 0.219231 0.937335
O O6 0.744812 0.179568 0.000000
O O7 0.143761 0.731067 0.720141
O O8 0.056174 0.755109 0.610352
O O9 0.967539 0.746406 0.697486
O O10 0.500000 0.500000 0.566687
O O11 0.461296 0.297272 0.500000
O O12 0.409527 0.000000 0.750000
#
# Coordination Sequence:
#
# PCOD9527467 Si02
#       5
#    16  16  16  16  16
#     4  12  24  43  72 102 138 186 243 288 362 430
#     4  11  24  42  68 103 144 182 232 297 360 431
#     4  11  22  41  69  95 129 180 233 288 352 420
#     4  10  20  40  67  96 131 172 225 295 359 418
#     4  11  25  46  66  95 144 188 232 295 362 428
#
# _framework density 25.011652999999999
#
# number of rings (size 3 to 8) (size 9 to 14) (size 15 to 20)
#    0.000    1.000    4.000    3.600    0.000    0.800 
#    0.000    6.000    0.000    3.600    0.000    0.000 
#    0.000    0.000    0.000    0.000    0.000    0.000 
#
# Total GULP energy -222810.902283 kJ/mol
# GULP energy per Si atom -5570.272557 kJ/mol
# Density = 2.495473 g / cm^3
# Si number density = 25.011653 Si / 1000 Ang^3
#
#
#
# Elastic Constant Matrix: (Units=GPa)
#
#
# Indices 1 2 3 4 5 6 
#
# 1 113.4159 9.3467 39.4626 0.0000 0.0000 0.0000
# 2 9.3467 70.9925 21.4313 0.0000 0.0000 0.0000
# 3 39.4626 21.4313 227.9319 0.0000 0.0000 0.0000
# 4 0.0000 0.0000 0.0000 -1.5099 0.0000 0.0000
# 5 0.0000 0.0000 0.0000 0.0000 -27.0923 0.0000
# 6 0.0000 0.0000 0.0000 0.0000 0.0000 18.8975
#
#
#
# Elastic Compliance Matrix: (Units=1/GPa)
#
#
# Indices 1 2 3 4 5 6 
#
# 1 0.009423 -0.000770 -0.001559 0.000000 0.000000 0.000000
# 2 -0.000770 0.014560 -0.001236 0.000000 0.000000 0.000000
# 3 -0.001559 -0.001236 0.004773 0.000000 0.000000 0.000000
# 4 0.000000 0.000000 0.000000 -0.662315 0.000000 0.000000
# 5 0.000000 0.000000 0.000000 0.000000 -0.036911 0.000000
# 6 0.000000 0.000000 0.000000 0.000000 0.000000 0.052917
#
#
# Mechanical properties :
#
#
# Convention : Reuss Voigt Hill
#
# Bulk Modulus (GPa) = 46.23777 61.42460 53.83118
# Shear Modulus (GPa) = -8.28894 20.86570 6.28838
#
# Velocity S-wave (km/s) = -1.82242 2.89145 1.58734
# Velocity P-wave (km/s) = 3.75477 5.97989 4.99286
#
# Compressibility (1/GPa) = 0.02162734
#
# Stress axis : x y z
#
# Youngs Moduli (GPa) = 106.12303 68.67937 209.49484
#
# Poissons Ratio (x) = 0.05288 0.32661
# Poissons Ratio (y) = 0.08171 0.25888
# Poissons Ratio (z) = 0.16545 0.08487
#
# Static dielectric constant tensor:
#      x y z
#    x 2.104390 0.000000 0.000000 
#    y 0.000000 1.966680 0.000000 
#    z 0.000000 0.000000 1.982630 
# 
# From -- ./inp_files/44073.got.cif
#   From: 2010.05.17/outbox.cif.g08.bks.cpg/sg72_23_cif.got.tgz:44073.got - 2010.06.03 17:03:01.
