data_PCOD9527106
_publ_section_title
;
Structure prediction by ZEFSAII (Michael W. Deem and Ramdas Pophale) SiO2 
 PCOD9527106
Probable space group: I B A M
;
_chemical_formula_sum "Si O2"
_cell_formula_units_Z 104
_cell_length_a 20.360204
_cell_length_b 9.963454
_cell_length_c 26.846807
_cell_angle_alpha 90.000000
_cell_angle_beta 90.000000
_cell_angle_gamma 90.000000
_cell_volume 5446.088393
_symmetry_space_group_name_H-M "I B A M"
_symmetry_group_IT_number 72
_symmetry_cell_setting 'orthorhombic'
loop_
_space_group_symop_operation_xyz
x,y,z
-x,-y,z
x,-y,1/2-z
-x,y,1/2-z
-x,-y,-z
x,y,-z
-x,y,1/2+z
x,-y,1/2+z
1/2+x,1/2+y,1/2+z
1/2-x,1/2-y,1/2+z
1/2+x,1/2-y,-z
1/2-x,1/2+y,-z
1/2-x,1/2-y,1/2-z
1/2+x,1/2+y,1/2-z
1/2-x,1/2+y,z
1/2+x,1/2-y,z
loop_
_atom_site_type_symbol
_atom_site_label
_atom_site_fract_x
_atom_site_fract_y
_atom_site_fract_z
Si Si1 0.099009 0.154761 0.554850
Si Si2 0.000000 0.000000 0.124017
Si Si3 0.734083 0.785187 0.371415
Si Si4 0.132618 0.581997 0.698245
Si Si5 0.988719 0.220775 0.695072
Si Si6 0.769730 0.021925 0.558104
Si Si7 0.124359 0.311891 0.642960
O O1 0.074835 0.180840 0.500000
O O2 0.115883 0.290180 0.584047
O O3 0.160635 0.054747 0.553523
O O4 0.046471 0.082753 0.588675
O O5 0.962004 0.895349 0.159131
O O6 0.685219 0.813195 0.325030
O O7 0.724300 0.653292 0.406516
O O8 0.807662 0.768700 0.348039
O O9 0.730107 0.910326 0.410008
O O10 0.146670 0.500000 0.750000
O O11 0.062527 0.657292 0.700484
O O12 0.130469 0.463769 0.658360
O O13 0.000000 0.166464 0.750000
O O14 0.059929 0.260697 0.672554
O O15 0.748490 0.049561 0.500000
#
# Coordination Sequence:
#
# PCOD9527106 Si02
#       7
#    16   8  16  16  16  16  16
#     4   9  19  36  60  87 124 165 203 258 323 376
#     4  10  20  36  60  92 120 156 210 266 312 382
#     4  11  22  41  60  95 129 160 215 265 318 377
#     4  12  24  41  65  89 127 173 212 264 321 376
#     4  11  22  40  64  89 122 168 217 259 315 382
#     4  10  20  37  61  88 122 165 207 259 318 378
#     4  10  22  40  60  92 123 163 213 260 311 377
#
# _framework density 19.096276
#
# number of rings (size 3 to 8) (size 9 to 14) (size 15 to 20)
#    0.000    1.538    3.077    2.308    0.000    1.231 
#    0.000    0.000    0.000    9.231    0.000    0.000 
#    0.000    0.000    0.000    0.000    0.000    0.000 
#
# Total GULP energy -289508.964353 kJ/mol
# GULP energy per Si atom -5567.480084 kJ/mol
# Density = 1.905281 g / cm^3
# Si number density = 19.096276 Si / 1000 Ang^3
#
#
#
# Elastic Constant Matrix: (Units=GPa)
#
#
# Indices 1 2 3 4 5 6 
#
# 1 67.7977 8.7951 49.6420 0.0000 0.0000 0.0000
# 2 8.7951 99.1374 61.4150 0.0000 0.0000 0.0000
# 3 49.6420 61.4150 141.7904 0.0000 0.0000 0.0000
# 4 0.0000 0.0000 0.0000 -26.2659 0.0000 0.0000
# 5 0.0000 0.0000 0.0000 0.0000 97.3251 0.0000
# 6 0.0000 0.0000 0.0000 0.0000 0.0000 1.3426
#
#
#
# Elastic Compliance Matrix: (Units=1/GPa)
#
#
# Indices 1 2 3 4 5 6 
#
# 1 0.020751 0.003635 -0.008839 0.000000 0.000000 0.000000
# 2 0.003635 0.014423 -0.007520 0.000000 0.000000 0.000000
# 3 -0.008839 -0.007520 0.013405 0.000000 0.000000 0.000000
# 4 0.000000 0.000000 0.000000 -0.038072 0.000000 0.000000
# 5 0.000000 0.000000 0.000000 0.000000 0.010275 0.000000
# 6 0.000000 0.000000 0.000000 0.000000 0.000000 0.744825
#
#
# Mechanical properties :
#
#
# Convention : Reuss Voigt Hill
#
# Bulk Modulus (GPa) = 43.23449 60.93663 52.08556
# Shear Modulus (GPa) = 6.25967 27.07193 16.66580
#
# Velocity S-wave (km/s) = 1.81248 3.76926 2.95740
# Velocity P-wave (km/s) = 5.20284 7.13601 6.24468
#
# Compressibility (1/GPa) = 0.02312968
#
# Stress axis : x y z
#
# Youngs Moduli (GPa) = 48.19158 69.33370 74.60152
#
# Poissons Ratio (x) = -0.25203 0.65943
# Poissons Ratio (y) = -0.17518 0.56099
# Poissons Ratio (z) = 0.42599 0.52138
#
# Static dielectric constant tensor:
#      x y z
#    x 1.790370 0.000000 0.000000 
#    y 0.000000 1.696970 0.000000 
#    z 0.000000 0.000000 1.697330 
# 
# From -- ./inp_files/49413.got.cif
#   From: 2010.05.17/outbox.cif.g08.bks.cpg/sg72_25_cif.got.tgz:49413.got - 2010.06.03 17:03:01.
