data_PCOD9527342
_publ_section_title
;
Structure prediction by ZEFSAII (Michael W. Deem and Ramdas Pophale) SiO2 
 PCOD9527342
Probable space group: I B A M
;
_chemical_formula_sum "Si O2"
_cell_formula_units_Z 96
_cell_length_a 10.092469
_cell_length_b 22.765460
_cell_length_c 21.583728
_cell_angle_alpha 90.000000
_cell_angle_beta 90.000000
_cell_angle_gamma 90.000000
_cell_volume 4959.070856
_symmetry_space_group_name_H-M "I B A M"
_symmetry_group_IT_number 72
_symmetry_cell_setting 'orthorhombic'
loop_
_space_group_symop_operation_xyz
x,y,z
-x,-y,z
x,-y,1/2-z
-x,y,1/2-z
-x,-y,-z
x,y,-z
-x,y,1/2+z
x,-y,1/2+z
1/2+x,1/2+y,1/2+z
1/2-x,1/2-y,1/2+z
1/2+x,1/2-y,-z
1/2-x,1/2+y,-z
1/2-x,1/2-y,1/2-z
1/2+x,1/2+y,1/2-z
1/2-x,1/2+y,z
1/2+x,1/2-y,z
loop_
_atom_site_type_symbol
_atom_site_label
_atom_site_fract_x
_atom_site_fract_y
_atom_site_fract_z
Si Si1 0.092830 0.679973 0.610499
Si Si2 0.315413 0.127525 0.126489
Si Si3 0.341320 0.996160 0.425270
Si Si4 0.321855 0.389033 0.930780
Si Si5 0.439591 0.688282 0.074112
Si Si6 0.152876 0.694918 0.746280
O O1 0.210809 0.661702 0.566017
O O2 0.050229 0.747498 0.604195
O O3 0.155867 0.667625 0.678034
O O4 0.961507 0.642222 0.600652
O O5 0.290476 0.059533 0.113163
O O6 0.204669 0.164212 0.090679
O O7 0.318797 0.150170 0.197572
O O8 0.325093 0.987446 0.500000
O O9 0.500000 0.000000 0.414445
O O10 0.257953 0.054143 0.406524
O O11 0.450402 0.358049 0.901539
O O12 0.364967 0.406451 0.000000
O O13 0.456193 0.694627 0.000000
O O14 0.250000 0.750000 0.750000
O O15 0.000000 0.715289 0.750000
#
# Coordination Sequence:
#
# PCOD9527342 Si02
#       6
#    16  16  16  16  16  16
#     4  11  21  37  60  87 119 160 203 247 303 369
#     4  11  22  38  60  86 116 159 206 246 299 363
#     4  10  20  38  63  86 117 162 206 247 301 365
#     4  10  22  38  58  88 124 159 199 252 307 362
#     4  11  23  35  56  92 126 156 196 253 310 368
#     4  10  22  38  59  87 116 155 199 244 301 356
#
# _framework density 19.358466
#
# number of rings (size 3 to 8) (size 9 to 14) (size 15 to 20)
#    0.000    1.500    3.333    2.000    2.333    4.000 
#    0.000    3.333    0.000    0.000    0.000    2.333 
#    0.000    0.000    0.000    0.000    0.000    0.000 
#
# Total GULP energy -267643.866868 kJ/mol
# GULP energy per Si atom -5575.913893 kJ/mol
# Density = 1.931441 g / cm^3
# Si number density = 19.358466 Si / 1000 Ang^3
#
#
#
# Elastic Constant Matrix: (Units=GPa)
#
#
# Indices 1 2 3 4 5 6 
#
# 1 53.5057 18.0828 13.7499 0.0000 0.0000 0.0000
# 2 18.0828 106.9072 9.0674 0.0000 0.0000 0.0000
# 3 13.7499 9.0674 53.9153 0.0000 0.0000 0.0000
# 4 0.0000 0.0000 0.0000 24.9314 0.0000 0.0000
# 5 0.0000 0.0000 0.0000 0.0000 19.2263 0.0000
# 6 0.0000 0.0000 0.0000 0.0000 0.0000 29.1633
#
#
#
# Elastic Compliance Matrix: (Units=1/GPa)
#
#
# Indices 1 2 3 4 5 6 
#
# 1 0.020991 -0.003141 -0.004825 0.000000 0.000000 0.000000
# 2 -0.003141 0.009959 -0.000874 0.000000 0.000000 0.000000
# 3 -0.004825 -0.000874 0.019925 0.000000 0.000000 0.000000
# 4 0.000000 0.000000 0.000000 0.040110 0.000000 0.000000
# 5 0.000000 0.000000 0.000000 0.000000 0.052012 0.000000
# 6 0.000000 0.000000 0.000000 0.000000 0.000000 0.034290
#
#
# Mechanical properties :
#
#
# Convention : Reuss Voigt Hill
#
# Bulk Modulus (GPa) = 30.12478 32.90317 31.51398
# Shear Modulus (GPa) = 24.26797 26.22607 25.24702
#
# Velocity S-wave (km/s) = 3.54448 3.68470 3.61527
# Velocity P-wave (km/s) = 5.68739 5.92759 5.80873
#
# Compressibility (1/GPa) = 0.03319526
#
# Stress axis : x y z
#
# Youngs Moduli (GPa) = 47.63900 100.40805 50.18794
#
# Poissons Ratio (x) = 0.31541 0.24216
# Poissons Ratio (y) = 0.14965 0.04386
# Poissons Ratio (z) = 0.22986 0.08774
#
# Static dielectric constant tensor:
#      x y z
#    x 1.675860 0.000000 0.000000 
#    y 0.000000 1.690240 0.000000 
#    z 0.000000 0.000000 1.761850 
# 
# From -- ./inp_files/42444.got.cif
#   From: 2010.05.17/outbox.cif.g08.bks.cpg/sg72_22_cif.got.tgz:42444.got - 2010.06.03 17:03:01.
