data_PCOD9527595
_publ_section_title
;
Structure prediction by ZEFSAII (Michael W. Deem and Ramdas Pophale) SiO2 
 PCOD9527595
Probable space group: I B A M
;
_chemical_formula_sum "Si O2"
_cell_formula_units_Z 96
_cell_length_a 12.316166
_cell_length_b 23.785266
_cell_length_c 14.473761
_cell_angle_alpha 90.000000
_cell_angle_beta 90.000000
_cell_angle_gamma 90.000000
_cell_volume 4239.991085
_symmetry_space_group_name_H-M "I B A M"
_symmetry_group_IT_number 72
_symmetry_cell_setting 'orthorhombic'
loop_
_space_group_symop_operation_xyz
x,y,z
-x,-y,z
x,-y,1/2-z
-x,y,1/2-z
-x,-y,-z
x,y,-z
-x,y,1/2+z
x,-y,1/2+z
1/2+x,1/2+y,1/2+z
1/2-x,1/2-y,1/2+z
1/2+x,1/2-y,-z
1/2-x,1/2+y,-z
1/2-x,1/2-y,1/2-z
1/2+x,1/2+y,1/2-z
1/2-x,1/2+y,z
1/2+x,1/2-y,z
loop_
_atom_site_type_symbol
_atom_site_label
_atom_site_fract_x
_atom_site_fract_y
_atom_site_fract_z
Si Si1 0.881887 0.776006 0.386971
Si Si2 0.489189 0.934719 0.112722
Si Si3 0.258223 0.883964 0.111704
Si Si4 0.324018 0.149736 0.112793
Si Si5 0.413013 0.335544 0.602244
Si Si6 0.956577 0.058373 0.145700
O O1 0.884462 0.777619 0.500000
O O2 0.793351 0.823485 0.358915
O O3 0.856095 0.712786 0.359759
O O4 0.003426 0.791818 0.354323
O O5 0.378191 0.902878 0.141071
O O6 0.592363 0.897820 0.143455
O O7 0.500000 0.000000 0.141193
O O8 0.488218 0.935137 0.000000
O O9 0.171327 0.931518 0.140655
O O10 0.259483 0.882264 0.000000
O O11 0.199578 0.144622 0.145225
O O12 0.325772 0.146381 0.000000
O O13 0.384974 0.312954 0.500000
O O14 0.488173 0.389893 0.595091
O O15 0.000000 0.062109 0.250000
O O16 0.000000 0.000000 0.107759
#
# Coordination Sequence:
#
# PCOD9527595 Si02
#       6
#    16  16  16  16  16  16
#     4   8  15  27  44  72 102 130 163 203 254 295
#     4   9  18  29  43  72 108 138 164 200 255 305
#     4   9  18  32  52  76 103 132 166 209 254 305
#     4   9  17  27  46  74 105 134 163 207 251 298
#     4   9  18  31  50  77 102 128 168 212 253 299
#     4  10  21  35  52  73  97 133 170 211 259 303
#
# _framework density 22.641558
#
# number of rings (size 3 to 8) (size 9 to 14) (size 15 to 20)
#    0.000    3.000    0.000    1.500    4.667    1.333 
#    0.000    0.000    0.000    5.000    0.000    0.000 
#    0.000    0.000    0.000    0.000    0.000    0.000 
#
# Total GULP energy -267802.357243 kJ/mol
# GULP energy per Si atom -5579.215776 kJ/mol
# Density = 2.259002 g / cm^3
# Si number density = 22.641558 Si / 1000 Ang^3
#
#
#
# Elastic Constant Matrix: (Units=GPa)
#
#
# Indices 1 2 3 4 5 6 
#
# 1 171.7601 39.8530 10.7303 0.0000 0.0000 0.0000
# 2 39.8530 91.0184 4.3237 -0.0002 0.0001 0.0000
# 3 10.7303 4.3237 81.6234 -0.0002 0.0001 0.0000
# 4 0.0000 -0.0002 -0.0002 2.0678 0.0001 0.0000
# 5 0.0000 0.0001 0.0001 0.0001 3.1325 0.0000
# 6 0.0000 0.0000 0.0000 0.0000 0.0000 14.7950
#
#
#
# Elastic Compliance Matrix: (Units=1/GPa)
#
#
# Indices 1 2 3 4 5 6 
#
# 1 0.006521 -0.002822 -0.000708 0.000000 0.000000 0.000000
# 2 -0.002822 0.012235 -0.000277 0.000001 0.000000 0.000000
# 3 -0.000708 -0.000277 0.012359 0.000001 0.000000 0.000000
# 4 0.000000 0.000001 0.000001 0.483599 -0.000010 0.000001
# 5 0.000000 0.000000 0.000000 -0.000010 0.319238 0.000000
# 6 0.000000 0.000000 0.000000 0.000001 0.000000 0.067591
#
#
# Mechanical properties :
#
#
# Convention : Reuss Voigt Hill
#
# Bulk Modulus (GPa) = 42.54903 50.46843 46.50873
# Shear Modulus (GPa) = 5.45262 23.29871 14.37566
#
# Velocity S-wave (km/s) = 1.55353 3.21132 2.52250
# Velocity P-wave (km/s) = 4.69587 6.00738 5.39165
#
# Compressibility (1/GPa) = 0.02350230
#
# Stress axis : x y z
#
# Youngs Moduli (GPa) = 153.35100 81.72986 80.91196
#
# Poissons Ratio (x) = 0.23061 0.05727
# Poissons Ratio (y) = 0.43270 0.02243
# Poissons Ratio (z) = 0.10854 0.02265
#
# Static dielectric constant tensor:
#      x y z
#    x 1.844270 0.000000 0.000000 
#    y 0.000000 1.795380 0.000000 
#    z 0.000000 0.000000 1.895610 
# 
# From -- ./inp_files/33281.got.cif
#   From: 2010.05.17/outbox.cif.g08.bks.cpg/sg72_17_cif.got.tgz:33281.got - 2010.06.03 17:03:01.
