data_PCOD9527841
_publ_section_title
;
Structure prediction by ZEFSAII (Michael W. Deem and Ramdas Pophale) SiO2 
 PCOD9527841
Probable space group: I B A M
;
_chemical_formula_sum "Si O2"
_cell_formula_units_Z 96
_cell_length_a 14.558814
_cell_length_b 19.876373
_cell_length_c 16.359364
_cell_angle_alpha 90.000000
_cell_angle_beta 90.000000
_cell_angle_gamma 90.000000
_cell_volume 4734.014147
_symmetry_space_group_name_H-M "I B A M"
_symmetry_group_IT_number 72
_symmetry_cell_setting 'orthorhombic'
loop_
_space_group_symop_operation_xyz
x,y,z
-x,-y,z
x,-y,1/2-z
-x,y,1/2-z
-x,-y,-z
x,y,-z
-x,y,1/2+z
x,-y,1/2+z
1/2+x,1/2+y,1/2+z
1/2-x,1/2-y,1/2+z
1/2+x,1/2-y,-z
1/2-x,1/2+y,-z
1/2-x,1/2-y,1/2-z
1/2+x,1/2+y,1/2-z
1/2-x,1/2+y,z
1/2+x,1/2-y,z
loop_
_atom_site_type_symbol
_atom_site_label
_atom_site_fract_x
_atom_site_fract_y
_atom_site_fract_z
Si Si1 0.297608 0.750303 0.588066
Si Si2 0.488122 0.284970 0.845771
Si Si3 0.119984 0.664700 0.591261
Si Si4 0.944211 0.933155 0.901389
Si Si5 0.259675 0.101821 0.096279
Si Si6 0.891102 0.578204 0.747658
O O1 0.344685 0.757312 0.500000
O O2 0.381041 0.733120 0.645102
O O3 0.221752 0.694112 0.585567
O O4 0.241134 0.818504 0.599996
O O5 0.500000 0.282754 0.750000
O O6 0.549852 0.225941 0.886987
O O7 0.513271 0.360747 0.875463
O O8 0.094895 0.637733 0.500000
O O9 0.132002 0.614330 0.667232
O O10 0.835337 0.934619 0.878872
O O11 0.946260 0.933672 0.000000
O O12 0.000000 0.000000 0.872925
O O13 0.341754 0.097932 0.162507
O O14 0.281506 0.085091 0.000000
O O15 0.869858 0.500000 0.750000
O O16 0.000000 0.588042 0.750000
#
# Coordination Sequence:
#
# PCOD9527841 Si02
#       6
#    16  16  16  16  16  16
#     4  10  21  37  64  95 125 166 219 272 329 400
#     4  12  24  37  63 100 133 173 221 286 347 407
#     4  11  23  42  67  93 129 174 221 278 338 400
#     4  10  22  42  65  92 136 185 232 285 346 420
#     4  10  21  42  69  96 132 180 225 279 349 416
#     4  11  26  44  63  94 132 170 224 286 339 409
#
# _framework density 20.278773000000001
#
# number of rings (size 3 to 8) (size 9 to 14) (size 15 to 20)
#    0.000    1.333    1.667    4.000    2.333    5.667 
#    0.000    5.000    0.000    0.000    0.000    0.000 
#    0.000    0.667    0.000    0.000    0.000    0.000 
#
# Total GULP energy -267313.712290 kJ/mol
# GULP energy per Si atom -5569.035673 kJ/mol
# Density = 2.023262 g / cm^3
# Si number density = 20.278773 Si / 1000 Ang^3
#
#
#
# Elastic Constant Matrix: (Units=GPa)
#
#
# Indices 1 2 3 4 5 6 
#
# 1 119.4776 29.2828 62.3585 0.0000 0.0000 0.0000
# 2 29.2828 94.4257 53.4780 0.0000 0.0000 0.0000
# 3 62.3585 53.4780 119.7716 0.0000 0.0000 -0.0001
# 4 0.0000 0.0000 0.0000 18.1004 0.0000 -0.0001
# 5 0.0000 0.0000 0.0000 0.0000 44.6067 0.0000
# 6 0.0000 0.0000 -0.0001 -0.0001 0.0000 -5.3002
#
#
#
# Elastic Compliance Matrix: (Units=1/GPa)
#
#
# Indices 1 2 3 4 5 6 
#
# 1 0.011497 -0.000235 -0.005881 0.000000 0.000000 0.000000
# 2 -0.000235 0.014180 -0.006209 0.000000 0.000000 0.000000
# 3 -0.005881 -0.006209 0.014183 0.000000 0.000000 0.000000
# 4 0.000000 0.000000 0.000000 0.055247 0.000000 -0.000001
# 5 0.000000 0.000000 0.000000 0.000000 0.022418 0.000000
# 6 0.000000 0.000000 0.000000 -0.000001 0.000000 -0.188672
#
#
# Mechanical properties :
#
#
# Convention : Reuss Voigt Hill
#
# Bulk Modulus (GPa) = 65.74393 69.32374 67.53383
# Shear Modulus (GPa) = -120.69486 24.05173 -48.32156
#
# Velocity S-wave (km/s) = -7.72315 3.44765 -4.88675
# Velocity P-wave (km/s) = 6.85849 7.07870 1.23876
#
# Compressibility (1/GPa) = 0.01521053
#
# Stress axis : x y z
#
# Youngs Moduli (GPa) = 86.98156 70.52388 70.50477
#
# Poissons Ratio (x) = 0.01655 0.41463
# Poissons Ratio (y) = 0.02041 0.43777
# Poissons Ratio (z) = 0.51153 0.43789
#
# Static dielectric constant tensor:
#      x y z
#    x 1.712510 0.000000 0.000000 
#    y 0.000000 1.780860 0.000000 
#    z 0.000000 0.000000 1.576120 
# 
# From -- ./inp_files/21805.got.cif
#   From: 2010.05.17/outbox.cif.g08.bks.cpg/sg72_11_cif.got.tgz:21805.got - 2010.06.03 17:03:01.
