data_PCOD9527217
_publ_section_title
;
Structure prediction by ZEFSAII (Michael W. Deem and Ramdas Pophale) SiO2 
 PCOD9527217
Probable space group: I B A M
;
_chemical_formula_sum "Si O2"
_cell_formula_units_Z 112
_cell_length_a 21.215808
_cell_length_b 16.163657
_cell_length_c 15.719239
_cell_angle_alpha 90.000000
_cell_angle_beta 90.000000
_cell_angle_gamma 90.000000
_cell_volume 5390.520718
_symmetry_space_group_name_H-M "I B A M"
_symmetry_group_IT_number 72
_symmetry_cell_setting 'orthorhombic'
loop_
_space_group_symop_operation_xyz
x,y,z
-x,-y,z
x,-y,1/2-z
-x,y,1/2-z
-x,-y,-z
x,y,-z
-x,y,1/2+z
x,-y,1/2+z
1/2+x,1/2+y,1/2+z
1/2-x,1/2-y,1/2+z
1/2+x,1/2-y,-z
1/2-x,1/2+y,-z
1/2-x,1/2-y,1/2-z
1/2+x,1/2+y,1/2-z
1/2-x,1/2+y,z
1/2+x,1/2-y,z
loop_
_atom_site_type_symbol
_atom_site_label
_atom_site_fract_x
_atom_site_fract_y
_atom_site_fract_z
Si Si1 0.464076 0.743053 0.600006
Si Si2 0.460354 0.915401 0.097396
Si Si3 0.336440 0.741442 0.704527
Si Si4 0.820643 0.921566 0.190042
Si Si5 0.801663 0.629940 0.596480
Si Si6 0.956198 0.076787 0.398490
Si Si7 0.641396 0.088754 0.246208
O O1 0.443063 0.737967 0.500000
O O2 0.499862 0.830657 0.609338
O O3 0.407010 0.734412 0.666633
O O4 0.510055 0.665058 0.615770
O O5 0.413263 0.919874 0.177884
O O6 0.500000 0.000000 0.100445
O O7 0.433149 0.910670 0.000000
O O8 0.317826 0.658801 0.750153
O O9 0.295923 0.774092 0.624507
O O10 0.330196 0.819938 0.769477
O O11 0.761954 0.914593 0.125758
O O12 0.887835 0.923569 0.143590
O O13 0.816539 0.000000 0.250000
O O14 0.814470 0.617776 0.500000
O O15 0.862631 0.601214 0.651271
O O16 0.948490 0.067026 0.500000
O O17 0.000000 0.000000 0.368708
O O18 0.675666 0.000000 0.250000
#
# Coordination Sequence:
#
# PCOD9527217 Si02
#       7
#    16  16  16  16  16  16  16
#     4  10  20  37  60  91 130 171 213 262 327 400
#     4  10  21  36  58  94 134 174 217 268 335 404
#     4  10  23  39  67  92 131 166 220 274 333 398
#     4  12  24  42  68  96 132 173 224 286 340 409
#     4  10  24  46  67  88 127 176 225 280 339 396
#     4  10  22  39  62  95 135 173 218 271 334 411
#     4  10  22  38  63  90 128 169 225 277 325 393
#
# _framework density 20.777214000000001
#
# number of rings (size 3 to 8) (size 9 to 14) (size 15 to 20)
#    0.857    0.857    0.000    4.286    0.000    5.714 
#    0.000    2.857    0.000    0.429    0.000    0.000 
#    0.000    0.000    0.000    0.000    0.000    0.000 
#
# Total GULP energy -311809.846486 kJ/mol
# GULP energy per Si atom -5568.032973 kJ/mol
# Density = 2.072992 g / cm^3
# Si number density = 20.777214 Si / 1000 Ang^3
#
#
#
# Elastic Constant Matrix: (Units=GPa)
#
#
# Indices 1 2 3 4 5 6 
#
# 1 108.9656 28.4343 64.9907 0.0000 0.0000 0.0000
# 2 28.4343 156.5711 38.8263 0.0000 0.0000 0.0000
# 3 64.9907 38.8263 130.7535 0.0000 0.0000 0.0000
# 4 0.0000 0.0000 0.0000 11.5516 0.0000 0.0000
# 5 0.0000 0.0000 0.0000 0.0000 50.4324 0.0000
# 6 0.0000 0.0000 0.0000 0.0000 0.0000 100.0966
#
#
#
# Elastic Compliance Matrix: (Units=1/GPa)
#
#
# Indices 1 2 3 4 5 6 
#
# 1 0.013143 -0.000828 -0.006287 0.000000 0.000000 0.000000
# 2 -0.000828 0.006947 -0.001651 0.000000 0.000000 0.000000
# 3 -0.006287 -0.001651 0.011263 0.000000 0.000000 0.000000
# 4 0.000000 0.000000 0.000000 0.086568 0.000000 0.000000
# 5 0.000000 0.000000 0.000000 0.000000 0.019829 0.000000
# 6 0.000000 0.000000 0.000000 0.000000 0.000000 0.009990
#
#
# Mechanical properties :
#
#
# Convention : Reuss Voigt Hill
#
# Bulk Modulus (GPa) = 72.35443 73.42142 72.88792
# Shear Modulus (GPa) = 29.43276 50.01870 39.72573
#
# Velocity S-wave (km/s) = 3.76784 4.91183 4.37737
# Velocity P-wave (km/s) = 7.33678 8.22085 7.79136
#
# Compressibility (1/GPa) = 0.01382085
#
# Stress axis : x y z
#
# Youngs Moduli (GPa) = 76.08674 143.95321 88.78502
#
# Poissons Ratio (x) = 0.11917 0.55818
# Poissons Ratio (y) = 0.06299 0.14661
# Poissons Ratio (z) = 0.47834 0.23771
#
# Static dielectric constant tensor:
#      x y z
#    x 1.770390 0.000000 0.000000 
#    y 0.000000 1.812600 0.000000 
#    z 0.000000 0.000000 1.754150 
# 
# From -- ./inp_files/22114.got.cif
#   From: 2010.05.17/outbox.cif.g08.bks.cpg/sg72_12_cif.got.tgz:22114.got - 2010.06.03 17:03:01.
