data_PCOD9527114
_publ_section_title
;
Structure prediction by ZEFSAII (Michael W. Deem and Ramdas Pophale) SiO2 
 PCOD9527114
Probable space group: I B A M
;
_chemical_formula_sum "Si O2"
_cell_formula_units_Z 104
_cell_length_a 22.482575
_cell_length_b 27.355007
_cell_length_c 8.972436
_cell_angle_alpha 90.000000
_cell_angle_beta 90.000000
_cell_angle_gamma 90.000000
_cell_volume 5518.146805
_symmetry_space_group_name_H-M "I B A M"
_symmetry_group_IT_number 72
_symmetry_cell_setting 'orthorhombic'
loop_
_space_group_symop_operation_xyz
x,y,z
-x,-y,z
x,-y,1/2-z
-x,y,1/2-z
-x,-y,-z
x,y,-z
-x,y,1/2+z
x,-y,1/2+z
1/2+x,1/2+y,1/2+z
1/2-x,1/2-y,1/2+z
1/2+x,1/2-y,-z
1/2-x,1/2+y,-z
1/2-x,1/2-y,1/2-z
1/2+x,1/2+y,1/2-z
1/2-x,1/2+y,z
1/2+x,1/2-y,z
loop_
_atom_site_type_symbol
_atom_site_label
_atom_site_fract_x
_atom_site_fract_y
_atom_site_fract_z
Si Si1 0.060232 0.892034 0.677119
Si Si2 0.327835 0.446055 0.179079
Si Si3 0.117954 0.356910 0.823660
Si Si4 0.308249 0.946642 0.179655
Si Si5 0.186906 0.260137 0.820413
Si Si6 0.421444 0.292362 0.166698
Si Si7 0.000000 0.703431 0.750000
O O1 0.059605 0.898475 0.500000
O O2 0.120073 0.914069 0.748329
O O3 0.059375 0.834766 0.720499
O O4 0.000000 0.913695 0.750000
O O5 0.332467 0.500000 0.250000
O O6 0.259754 0.429014 0.210560
O O7 0.335127 0.447872 0.000000
O O8 0.142397 0.408219 0.761929
O O9 0.165723 0.315175 0.786808
O O10 0.053342 0.333238 0.794195
O O11 0.119597 0.363361 0.000000
O O12 0.315615 0.000000 0.250000
O O13 0.312423 0.951334 0.000000
O O14 0.250000 0.250000 0.750000
O O15 0.139812 0.226449 0.735829
O O16 0.185049 0.253146 0.000000
O O17 0.463745 0.244541 0.156447
O O18 0.415606 0.313084 0.000000
#
# Coordination Sequence:
#
# PCOD9527114 Si02
#       7
#    16  16  16  16  16  16   8
#     4  12  25  40  60  87 118 156 203 250 299 357
#     4  10  21  39  63  89 119 155 197 246 306 365
#     4   9  19  36  58  84 116 157 199 244 301 358
#     4   9  19  38  63  89 119 155 194 244 300 360
#     4  10  21  36  55  83 117 153 195 244 299 360
#     4  11  22  37  58  82 116 158 200 246 299 355
#     4  10  20  36  61  84 119 158 208 248 294 360
#
# _framework density 18.846907000000002
#
# number of rings (size 3 to 8) (size 9 to 14) (size 15 to 20)
#    0.000    1.846    0.769    3.231    2.154    2.154 
#    0.000    6.538    0.000    1.846    0.000    0.000 
#    0.000    0.000    0.000    0.000    0.000    0.000 
#
# Total GULP energy -289619.550281 kJ/mol
# GULP energy per Si atom -5569.606736 kJ/mol
# Density = 1.880401 g / cm^3
# Si number density = 18.846907 Si / 1000 Ang^3
#
#
#
# Elastic Constant Matrix: (Units=GPa)
#
#
# Indices 1 2 3 4 5 6 
#
# 1 134.0449 66.3590 29.1001 0.0000 0.0000 0.0000
# 2 66.3590 68.7959 11.9035 0.0000 0.0000 0.0000
# 3 29.1001 11.9035 59.8065 0.0000 0.0000 0.0000
# 4 0.0000 0.0000 0.0000 23.0011 0.0000 0.0000
# 5 0.0000 0.0000 0.0000 0.0000 -19.3244 0.0000
# 6 0.0000 0.0000 0.0000 0.0000 0.0000 36.9240
#
#
#
# Elastic Compliance Matrix: (Units=1/GPa)
#
#
# Indices 1 2 3 4 5 6 
#
# 1 0.015465 -0.014101 -0.004718 0.000000 0.000000 0.000000
# 2 -0.014101 0.027911 0.001306 0.000000 0.000000 0.000000
# 3 -0.004718 0.001306 0.018756 0.000000 0.000000 0.000000
# 4 0.000000 0.000000 0.000000 0.043476 0.000000 0.000000
# 5 0.000000 0.000000 0.000000 0.000000 -0.051748 0.000000
# 6 0.000000 0.000000 0.000000 0.000000 0.000000 0.027083
#
#
# Mechanical properties :
#
#
# Convention : Reuss Voigt Hill
#
# Bulk Modulus (GPa) = 36.89217 53.04138 44.96678
# Shear Modulus (GPa) = 39.99811 18.47247 29.23529
#
# Velocity S-wave (km/s) = 4.61180 3.13410 3.94280
# Velocity P-wave (km/s) = 6.92643 6.42660 6.68119
#
# Compressibility (1/GPa) = 0.02710602
#
# Stress axis : x y z
#
# Youngs Moduli (GPa) = 64.66134 35.82784 53.31485
#
# Poissons Ratio (x) = 0.50521 0.25156
# Poissons Ratio (y) = 0.91179 -0.06962
# Poissons Ratio (z) = 0.30510 -0.04679
#
# Static dielectric constant tensor:
#      x y z
#    x 1.809420 0.000000 0.000000 
#    y 0.000000 1.659050 0.000000 
#    z 0.000000 0.000000 1.650190 
# 
# From -- ./inp_files/6148.got.cif
#   From: 2010.05.17/outbox.cif.g08.bks.cpg/sg72_4_cif.got.tgz:6148.got - 2010.06.03 17:03:01.
