data_PCOD9527426
_publ_section_title
;
Structure prediction by ZEFSAII (Michael W. Deem and Ramdas Pophale) SiO2 
 PCOD9527426
Probable space group: I B A M
;
_chemical_formula_sum "Si O2"
_cell_formula_units_Z 88
_cell_length_a 16.702471
_cell_length_b 10.252750
_cell_length_c 24.658512
_cell_angle_alpha 90.000000
_cell_angle_beta 90.000000
_cell_angle_gamma 90.000000
_cell_volume 4222.677946
_symmetry_space_group_name_H-M "I B A M"
_symmetry_group_IT_number 72
_symmetry_cell_setting 'orthorhombic'
loop_
_space_group_symop_operation_xyz
x,y,z
-x,-y,z
x,-y,1/2-z
-x,y,1/2-z
-x,-y,-z
x,y,-z
-x,y,1/2+z
x,-y,1/2+z
1/2+x,1/2+y,1/2+z
1/2-x,1/2-y,1/2+z
1/2+x,1/2-y,-z
1/2-x,1/2+y,-z
1/2-x,1/2-y,1/2-z
1/2+x,1/2+y,1/2-z
1/2-x,1/2+y,z
1/2+x,1/2-y,z
loop_
_atom_site_type_symbol
_atom_site_label
_atom_site_fract_x
_atom_site_fract_y
_atom_site_fract_z
Si Si1 0.692830 0.932951 0.692443
Si Si2 0.917260 0.387223 0.117611
Si Si3 0.142476 0.556950 0.000000
Si Si4 0.000000 0.000000 0.657512
Si Si5 0.541932 0.782486 0.695518
Si Si6 0.770381 0.158038 0.000000
Si Si7 0.342250 0.603520 0.385539
O O1 0.637203 0.804139 0.699418
O O2 0.773784 0.917648 0.658889
O O3 0.707418 0.000000 0.750000
O O4 0.635202 0.023354 0.656639
O O5 0.908865 0.428853 0.055053
O O6 0.873975 0.248538 0.121314
O O7 0.004012 0.356878 0.143436
O O8 0.206227 0.684340 0.000000
O O9 0.183192 0.412668 0.000000
O O10 0.080755 0.013677 0.622830
O O11 0.985261 0.132693 0.690318
O O12 0.500000 0.836599 0.750000
O O13 0.808106 0.097969 0.054233
#
# Coordination Sequence:
#
# PCOD9527426 Si02
#       7
#    16  16   8   8  16   8  16
#     4  12  24  38  67  94 129 171 220 265 323 389
#     4  10  22  41  62  95 131 166 215 263 325 382
#     4  10  20  40  66  95 135 168 214 279 319 393
#     4  10  25  45  64  94 134 169 221 268 332 392
#     4  11  23  42  66  92 131 175 213 268 326 390
#     4  10  20  39  67  92 130 169 219 273 333 383
#     4  10  24  42  65  96 128 173 215 273 325 393
#
# _framework density 20.839855
#
# number of rings (size 3 to 8) (size 9 to 14) (size 15 to 20)
#    0.000    1.455    3.636    0.818    2.545    4.000 
#    0.000    3.636    0.000    0.000    0.000    0.000 
#    0.000    0.000    0.000    0.000    0.000    0.000 
#
# Total GULP energy -245502.195560 kJ/mol
# GULP energy per Si atom -5579.595354 kJ/mol
# Density = 2.079242 g / cm^3
# Si number density = 20.839855 Si / 1000 Ang^3
#
#
#
# Elastic Constant Matrix: (Units=GPa)
#
#
# Indices 1 2 3 4 5 6 
#
# 1 116.5771 2.0356 49.3951 0.0000 0.0000 0.0000
# 2 2.0356 29.2887 20.7432 0.0000 0.0000 0.0000
# 3 49.3951 20.7432 148.9297 0.0000 0.0000 0.0000
# 4 0.0000 0.0000 0.0000 14.0554 0.0000 0.0000
# 5 0.0000 0.0000 0.0000 0.0000 -456.3026 0.0000
# 6 0.0000 0.0000 0.0000 0.0000 0.0000 8.1947
#
#
#
# Elastic Compliance Matrix: (Units=1/GPa)
#
#
# Indices 1 2 3 4 5 6 
#
# 1 0.010070 0.001848 -0.003597 0.000000 0.000000 0.000000
# 2 0.001848 0.038218 -0.005936 0.000000 0.000000 0.000000
# 3 -0.003597 -0.005936 0.008734 0.000000 0.000000 0.000000
# 4 0.000000 0.000000 0.000000 0.071147 0.000000 0.000000
# 5 0.000000 0.000000 0.000000 0.000000 -0.002192 0.000000
# 6 0.000000 0.000000 0.000000 0.000000 0.000000 0.122030
#
#
# Mechanical properties :
#
#
# Convention : Reuss Voigt Hill
#
# Bulk Modulus (GPa) = 24.00845 48.79371 36.40108
# Shear Modulus (GPa) = 18.03342 -71.96905 -26.96782
#
# Velocity S-wave (km/s) = 2.94485 -5.88297 -3.60119
# Velocity P-wave (km/s) = 4.80711 4.76248 0.46207
#
# Compressibility (1/GPa) = 0.04165200
#
# Stress axis : x y z
#
# Youngs Moduli (GPa) = 99.30548 26.16535 114.48936
#
# Poissons Ratio (x) = -0.04835 0.41184
# Poissons Ratio (y) = -0.18350 0.67961
# Poissons Ratio (z) = 0.35722 0.15532
#
# Static dielectric constant tensor:
#      x y z
#    x 1.781270 0.000000 0.000000 
#    y 0.000000 1.799380 0.000000 
#    z 0.000000 0.000000 1.867980 
# 
# From -- ./inp_files/44174.got.cif
#   From: 2010.05.17/outbox.cif.g08.bks.cpg/sg72_23_cif.got.tgz:44174.got - 2010.06.03 17:03:01.
