data_PCOD9527754
_publ_section_title
;
Structure prediction by ZEFSAII (Michael W. Deem and Ramdas Pophale) SiO2 
 PCOD9527754
Probable space group: I B A M
;
_chemical_formula_sum "Si O2"
_cell_formula_units_Z 72
_cell_length_a 16.378766
_cell_length_b 14.833295
_cell_length_c 14.511260
_cell_angle_alpha 90.000000
_cell_angle_beta 90.000000
_cell_angle_gamma 90.000000
_cell_volume 3525.526112
_symmetry_space_group_name_H-M "I B A M"
_symmetry_group_IT_number 72
_symmetry_cell_setting 'orthorhombic'
loop_
_space_group_symop_operation_xyz
x,y,z
-x,-y,z
x,-y,1/2-z
-x,y,1/2-z
-x,-y,-z
x,y,-z
-x,y,1/2+z
x,-y,1/2+z
1/2+x,1/2+y,1/2+z
1/2-x,1/2-y,1/2+z
1/2+x,1/2-y,-z
1/2-x,1/2+y,-z
1/2-x,1/2-y,1/2-z
1/2+x,1/2+y,1/2-z
1/2-x,1/2+y,z
1/2+x,1/2-y,z
loop_
_atom_site_type_symbol
_atom_site_label
_atom_site_fract_x
_atom_site_fract_y
_atom_site_fract_z
Si Si1 0.912940 0.049632 0.000000
Si Si2 0.423809 0.067189 0.000000
Si Si3 0.740675 0.586119 0.500000
Si Si4 0.254668 0.650153 0.794441
Si Si5 0.582703 0.635539 0.800037
Si Si6 0.421605 0.852300 0.302638
O O1 0.911094 0.106812 0.094032
O O2 0.000000 0.000000 0.000000
O O3 0.836492 0.980710 0.000000
O O4 0.328693 0.034384 0.000000
O O5 0.431310 0.126184 0.909115
O O6 0.500000 0.000000 0.000000
O O7 0.738599 0.645097 0.594154
O O8 0.250000 0.750000 0.750000
O O9 0.335332 0.605735 0.752706
O O10 0.165893 0.609869 0.770463
O O11 0.500000 0.603061 0.750000
O O12 0.580704 0.744239 0.792780
O O13 0.500000 0.888334 0.250000
#
# Coordination Sequence:
#
# PCOD9527754 Si02
#       6
#     8   8   8  16  16  16
#     4  12  25  37  55  85 121 158 191 238 293 347
#     4  10  21  37  57  83 115 146 179 232 291 341
#     4  10  22  38  56  84 118 148 189 240 291 348
#     4   9  19  37  60  82 109 147 190 240 287 339
#     4  10  21  38  59  83 113 154 197 236 285 345
#     4   9  19  37  59  83 109 144 191 234 277 338
#
# _framework density 20.422484000000001
#
# number of rings (size 3 to 8) (size 9 to 14) (size 15 to 20)
#    0.000    2.222    0.000    2.000    0.000    8.000 
#    0.000   11.111    0.000    2.667    0.000    0.000 
#    0.000    0.000    0.000    0.000    0.000    0.000 
#
# Total GULP energy -200777.918943 kJ/mol
# GULP energy per Si atom -5577.164415 kJ/mol
# Density = 2.037600 g / cm^3
# Si number density = 20.422484 Si / 1000 Ang^3
#
#
#
# Elastic Constant Matrix: (Units=GPa)
#
#
# Indices 1 2 3 4 5 6 
#
# 1 229.6959 36.8823 100.3052 0.0000 0.0000 0.0000
# 2 36.8823 60.0662 11.9181 0.0000 0.0000 0.0000
# 3 100.3052 11.9181 135.4268 0.0000 0.0000 0.0000
# 4 0.0000 0.0000 0.0000 107.4420 0.0000 0.0000
# 5 0.0000 0.0000 0.0000 0.0000 40.3612 0.0000
# 6 0.0000 0.0000 0.0000 0.0000 0.0000 4.8930
#
#
#
# Elastic Compliance Matrix: (Units=1/GPa)
#
#
# Indices 1 2 3 4 5 6 
#
# 1 0.007039 -0.003346 -0.004919 0.000000 0.000000 0.000000
# 2 -0.003346 0.018535 0.000847 0.000000 0.000000 0.000000
# 3 -0.004919 0.000847 0.010953 0.000000 0.000000 0.000000
# 4 0.000000 0.000000 0.000000 0.009307 0.000000 0.000000
# 5 0.000000 0.000000 0.000000 0.000000 0.024776 0.000000
# 6 0.000000 0.000000 0.000000 0.000000 0.000000 0.204372
#
#
# Mechanical properties :
#
#
# Convention : Reuss Voigt Hill
#
# Bulk Modulus (GPa) = 46.10264 80.37781 63.24022
# Shear Modulus (GPa) = 16.83230 48.94479 32.88855
#
# Velocity S-wave (km/s) = 2.87401 4.90083 4.01734
# Velocity P-wave (km/s) = 5.79972 8.45383 7.24927
#
# Compressibility (1/GPa) = 0.02169073
#
# Stress axis : x y z
#
# Youngs Moduli (GPa) = 142.06723 53.95260 91.30084
#
# Poissons Ratio (x) = 0.18053 0.44911
# Poissons Ratio (y) = 0.47537 -0.07735
# Poissons Ratio (z) = 0.69883 -0.04571
#
# Static dielectric constant tensor:
#      x y z
#    x 1.785870 0.000000 0.000000 
#    y 0.000000 1.609140 0.000000 
#    z 0.000000 0.000000 1.685600 
# 
# From -- ./inp_files/13646.got.cif
#   From: 2010.05.17/outbox.cif.g08.bks.cpg/sg72_7_cif.got.tgz:13646.got - 2010.06.03 17:03:01.
