data_PCOD9527767
_publ_section_title
;
Structure prediction by ZEFSAII (Michael W. Deem and Ramdas Pophale) SiO2 
 PCOD9527767
Probable space group: I B A M
;
_chemical_formula_sum "Si O2"
_cell_formula_units_Z 64
_cell_length_a 29.559002
_cell_length_b 5.115603
_cell_length_c 18.164042
_cell_angle_alpha 90.000000
_cell_angle_beta 90.000000
_cell_angle_gamma 90.000000
_cell_volume 2746.623286
_symmetry_space_group_name_H-M "I B A M"
_symmetry_group_IT_number 72
_symmetry_cell_setting 'orthorhombic'
loop_
_space_group_symop_operation_xyz
x,y,z
-x,-y,z
x,-y,1/2-z
-x,y,1/2-z
-x,-y,-z
x,y,-z
-x,y,1/2+z
x,-y,1/2+z
1/2+x,1/2+y,1/2+z
1/2-x,1/2-y,1/2+z
1/2+x,1/2-y,-z
1/2-x,1/2+y,-z
1/2-x,1/2-y,1/2-z
1/2+x,1/2+y,1/2-z
1/2-x,1/2+y,z
1/2+x,1/2-y,z
loop_
_atom_site_type_symbol
_atom_site_label
_atom_site_fract_x
_atom_site_fract_y
_atom_site_fract_z
Si Si1 0.451120 0.882978 0.082657
Si Si2 0.110046 0.754161 0.700216
Si Si3 0.722507 0.548617 0.910890
Si Si4 0.143711 0.579503 0.916541
O O1 0.410906 0.102425 0.082111
O O2 0.500000 0.000000 0.096749
O O3 0.432948 0.695919 0.146793
O O4 0.450833 0.766949 0.000000
O O5 0.099590 0.500000 0.750000
O O6 0.148116 0.646590 0.643999
O O7 0.120864 0.000000 0.750000
O O8 0.742829 0.275220 0.885343
O O9 0.673074 0.671351 0.895690
O O10 0.723917 0.532684 0.000000
O O11 0.157127 0.499298 0.000000
#
# Coordination Sequence:
#
# PCOD9527767 Si02
#       4
#    16  16  16  16
#     4   8  16  36  62  88 117 152 195 241 291 348
#     4  10  21  37  58  84 117 154 194 237 289 348
#     4   9  17  30  52  83 113 144 190 243 290 339
#     4   8  17  35  58  87 118 155 196 243 294 345
#
# _framework density 23.301337
#
# number of rings (size 3 to 8) (size 9 to 14) (size 15 to 20)
#    1.500    1.750    0.000    0.000    0.000    2.500 
#    0.000   10.000    0.000    7.500    0.000    0.000 
#    0.000    0.000    0.000    0.000    0.000    0.000 
#
# Total GULP energy -178206.595306 kJ/mol
# GULP energy per Si atom -5568.956103 kJ/mol
# Density = 2.324830 g / cm^3
# Si number density = 23.301337 Si / 1000 Ang^3
#
#
#
# Elastic Constant Matrix: (Units=GPa)
#
#
# Indices 1 2 3 4 5 6 
#
# 1 115.2741 4.3912 -0.9661 0.0000 0.0000 0.0000
# 2 4.3912 98.4042 45.2942 0.0000 0.0000 0.0000
# 3 -0.9661 45.2942 113.7707 0.0000 0.0000 0.0000
# 4 0.0000 0.0000 0.0000 -26.9361 0.0000 0.0000
# 5 0.0000 0.0000 0.0000 0.0000 9.7492 0.0000
# 6 0.0000 0.0000 0.0000 0.0000 0.0000 12.4581
#
#
#
# Elastic Compliance Matrix: (Units=1/GPa)
#
#
# Indices 1 2 3 4 5 6 
#
# 1 0.008697 -0.000517 0.000280 0.000000 0.000000 0.000000
# 2 -0.000517 0.012473 -0.004970 0.000000 0.000000 0.000000
# 3 0.000280 -0.004970 0.010771 0.000000 0.000000 0.000000
# 4 0.000000 0.000000 0.000000 -0.037125 0.000000 0.000000
# 5 0.000000 0.000000 0.000000 0.000000 0.102573 0.000000
# 6 0.000000 0.000000 0.000000 0.000000 0.000000 0.080269
#
#
# Mechanical properties :
#
#
# Convention : Reuss Voigt Hill
#
# Bulk Modulus (GPa) = 46.45542 47.20974 46.83258
# Shear Modulus (GPa) = 25.60860 17.63623 21.62241
#
# Velocity S-wave (km/s) = 3.31874 2.75412 3.04953
# Velocity P-wave (km/s) = 5.88774 5.51526 5.70454
#
# Compressibility (1/GPa) = 0.02152601
#
# Stress axis : x y z
#
# Youngs Moduli (GPa) = 114.98216 80.17385 92.84476
#
# Poissons Ratio (x) = 0.04143 -0.02596
# Poissons Ratio (y) = 0.05942 0.46145
# Poissons Ratio (z) = -0.03215 0.39847
#
# Static dielectric constant tensor:
#      x y z
#    x 1.956120 0.000000 0.000000 
#    y 0.000000 1.921520 0.000000 
#    z 0.000000 0.000000 1.994810 
# 
# From -- ./inp_files/34119.got.cif
#   From: 2010.05.17/outbox.cif.g08.bks.cpg/sg72_18_cif.got.tgz:34119.got - 2010.06.03 17:03:01.
