data_PCOD9527263
_publ_section_title
;
Structure prediction by ZEFSAII (Michael W. Deem and Ramdas Pophale) SiO2 
 PCOD9527263
Probable space group: I B A M
;
_chemical_formula_sum "Si O2"
_cell_formula_units_Z 80
_cell_length_a 26.786471
_cell_length_b 7.247251
_cell_length_c 18.400597
_cell_angle_alpha 90.000000
_cell_angle_beta 90.000000
_cell_angle_gamma 90.000000
_cell_volume 3572.076223
_symmetry_space_group_name_H-M "I B A M"
_symmetry_group_IT_number 72
_symmetry_cell_setting 'orthorhombic'
loop_
_space_group_symop_operation_xyz
x,y,z
-x,-y,z
x,-y,1/2-z
-x,y,1/2-z
-x,-y,-z
x,y,-z
-x,y,1/2+z
x,-y,1/2+z
1/2+x,1/2+y,1/2+z
1/2-x,1/2-y,1/2+z
1/2+x,1/2-y,-z
1/2-x,1/2+y,-z
1/2-x,1/2-y,1/2-z
1/2+x,1/2+y,1/2-z
1/2-x,1/2+y,z
1/2+x,1/2-y,z
loop_
_atom_site_type_symbol
_atom_site_label
_atom_site_fract_x
_atom_site_fract_y
_atom_site_fract_z
Si Si1 0.055595 0.417923 0.919479
Si Si2 0.054811 0.787789 0.725413
Si Si3 0.678842 0.479354 0.084083
Si Si4 0.628973 0.806360 0.155323
Si Si5 0.294997 0.057287 0.585367
O O1 0.059875 0.260493 0.858850
O O2 0.091570 0.587290 0.898939
O O3 0.000000 0.500000 0.918227
O O4 0.067311 0.348591 0.000000
O O5 0.100381 0.696371 0.768756
O O6 0.000000 0.715767 0.750000
O O7 0.055125 0.000000 0.750000
O O8 0.642017 0.597659 0.133164
O O9 0.682857 0.261041 0.096742
O O10 0.735401 0.555047 0.093477
O O11 0.665201 0.509536 0.000000
O O12 0.679471 0.920928 0.142509
O O13 0.304341 0.002928 0.500000
#
# Coordination Sequence:
#
# PCOD9527263 Si02
#       5
#    16  16  16  16  16
#     4  11  24  46  75 107 141 188 255 317 374 447
#     4  11  26  50  74 102 146 199 246 315 392 450
#     4  10  20  37  63 107 157 201 250 302 367 444
#     4  12  23  40  73 107 147 198 247 298 378 452
#     4  10  20  37  65 105 156 203 246 303 370 441
#
# _framework density 22.39594
#
# number of rings (size 3 to 8) (size 9 to 14) (size 15 to 20)
#    0.000    1.200    4.000    2.400    2.800    0.000 
#    0.000    4.000    0.000    8.400    0.000    0.000 
#    0.000    0.000    0.000    0.000    0.000    0.000 
#
# Total GULP energy -223817.108100 kJ/mol
# GULP energy per Si atom -5595.427703 kJ/mol
# Density = 2.234497 g / cm^3
# Si number density = 22.395940 Si / 1000 Ang^3
#
#
#
# Elastic Constant Matrix: (Units=GPa)
#
#
# Indices 1 2 3 4 5 6 
#
# 1 60.9087 7.8825 32.5129 0.0000 0.0000 0.0000
# 2 7.8825 107.7981 53.0469 0.0000 0.0000 0.0000
# 3 32.5129 53.0469 160.7873 0.0000 0.0000 0.0000
# 4 0.0000 0.0000 0.0000 47.8044 0.0000 0.0000
# 5 0.0000 0.0000 0.0000 0.0000 92.6848 0.0000
# 6 0.0000 0.0000 0.0000 0.0000 0.0000 13.4089
#
#
#
# Elastic Compliance Matrix: (Units=1/GPa)
#
#
# Indices 1 2 3 4 5 6 
#
# 1 0.018435 0.000581 -0.003919 0.000000 0.000000 0.000000
# 2 0.000581 0.011093 -0.003777 0.000000 0.000000 0.000000
# 3 -0.003919 -0.003777 0.008258 0.000000 0.000000 0.000000
# 4 0.000000 0.000000 0.000000 0.020919 0.000000 0.000000
# 5 0.000000 0.000000 0.000000 0.000000 0.010789 0.000000
# 6 0.000000 0.000000 0.000000 0.000000 0.000000 0.074577
#
#
# Mechanical properties :
#
#
# Convention : Reuss Voigt Hill
#
# Bulk Modulus (GPa) = 42.45511 57.37542 49.91526
# Shear Modulus (GPa) = 30.09255 46.51640 38.30447
#
# Velocity S-wave (km/s) = 3.66957 4.56236 4.14010
# Velocity P-wave (km/s) = 6.07883 7.30943 6.72235
#
# Compressibility (1/GPa) = 0.02355429
#
# Stress axis : x y z
#
# Youngs Moduli (GPa) = 54.24462 90.14802 121.09330
#
# Poissons Ratio (x) = -0.05235 0.47461
# Poissons Ratio (y) = -0.03150 0.45739
# Poissons Ratio (z) = 0.21260 0.34050
#
# Static dielectric constant tensor:
#      x y z
#    x 1.847850 0.000000 0.000000 
#    y 0.000000 1.861270 0.000000 
#    z 0.000000 0.000000 1.803030 
# 
# From -- ./inp_files/33756.got.cif
#   From: 2010.05.17/outbox.cif.g08.bks.cpg/sg72_17_cif.got.tgz:33756.got - 2010.06.03 17:03:01.
