data_PCOD9527792
_publ_section_title
;
Structure prediction by ZEFSAII (Michael W. Deem and Ramdas Pophale) SiO2 
 PCOD9527792
Probable space group: I B A M
;
_chemical_formula_sum "Si O2"
_cell_formula_units_Z 112
_cell_length_a 12.515692
_cell_length_b 31.199793
_cell_length_c 13.992009
_cell_angle_alpha 90.000000
_cell_angle_beta 90.000000
_cell_angle_gamma 90.000000
_cell_volume 5463.697614
_symmetry_space_group_name_H-M "I B A M"
_symmetry_group_IT_number 72
_symmetry_cell_setting 'orthorhombic'
loop_
_space_group_symop_operation_xyz
x,y,z
-x,-y,z
x,-y,1/2-z
-x,y,1/2-z
-x,-y,-z
x,y,-z
-x,y,1/2+z
x,-y,1/2+z
1/2+x,1/2+y,1/2+z
1/2-x,1/2-y,1/2+z
1/2+x,1/2-y,-z
1/2-x,1/2+y,-z
1/2-x,1/2-y,1/2-z
1/2+x,1/2+y,1/2-z
1/2-x,1/2+y,z
1/2+x,1/2-y,z
loop_
_atom_site_type_symbol
_atom_site_label
_atom_site_fract_x
_atom_site_fract_y
_atom_site_fract_z
Si Si1 0.191707 0.892185 0.384379
Si Si2 0.379682 0.487990 0.384374
Si Si3 0.872428 0.628750 0.235707
Si Si4 0.148585 0.724197 0.282473
Si Si5 0.962102 0.144271 0.884320
Si Si6 0.031778 0.758756 0.110402
Si Si7 0.721838 0.423686 0.384986
O O1 0.203466 0.889201 0.500000
O O2 0.298104 0.876977 0.330059
O O3 0.083704 0.866531 0.355742
O O4 0.163662 0.941426 0.357472
O O5 0.500000 0.500000 0.354263
O O6 0.383172 0.486923 0.500000
O O7 0.306941 0.528022 0.356550
O O8 0.841240 0.674881 0.191018
O O9 0.828730 0.592908 0.163809
O O10 0.000000 0.626677 0.250000
O O11 0.250000 0.750000 0.250000
O O12 0.082153 0.724984 0.182943
O O13 0.092455 0.750988 0.366792
O O14 0.936314 0.193255 0.857773
O O15 0.875542 0.108511 0.856104
O O16 0.962957 0.143531 0.000000
O O17 0.057566 0.752792 0.000000
O O18 0.728851 0.421942 0.500000
#
# Coordination Sequence:
#
# PCOD9527792 Si02
#       7
#    16  16  16  16  16  16  16
#     4  10  21  38  64  93 126 160 195 250 312 370
#     4   9  16  35  65  98 131 153 186 250 320 377
#     4  12  26  43  56  85 121 168 223 247 292 365
#     4  11  23  42  62  83 117 160 208 264 316 354
#     4   9  17  34  61  98 126 148 190 250 319 378
#     4  10  21  37  59  89 119 151 200 254 309 366
#     4  10  21  38  64  93 126 160 195 250 312 370
#
# _framework density 20.498939
#
# number of rings (size 3 to 8) (size 9 to 14) (size 15 to 20)
#    0.000    1.857    2.857    1.714    0.000    4.571 
#    0.000    2.143    0.000    2.571    0.000    0.000 
#    0.000    0.000    0.000    0.000    0.000    0.000 
#
# Total GULP energy -312632.798044 kJ/mol
# GULP energy per Si atom -5582.728537 kJ/mol
# Density = 2.045228 g / cm^3
# Si number density = 20.498939 Si / 1000 Ang^3
#
#
#
# Elastic Constant Matrix: (Units=GPa)
#
#
# Indices 1 2 3 4 5 6 
#
# 1 99.8653 14.1138 -5.0879 0.0000 0.0000 0.0000
# 2 14.1138 94.9156 -9.8276 -0.0001 0.0000 0.0000
# 3 -5.0879 -9.8276 65.5931 0.0003 -0.0002 -0.0001
# 4 0.0000 -0.0001 0.0003 24.7382 0.0001 0.0000
# 5 0.0000 0.0000 -0.0002 0.0001 29.4575 0.0002
# 6 0.0000 0.0000 -0.0001 0.0000 0.0002 34.7734
#
#
#
# Elastic Compliance Matrix: (Units=1/GPa)
#
#
# Indices 1 2 3 4 5 6 
#
# 1 0.010250 -0.001465 0.000576 0.000000 0.000000 0.000000
# 2 -0.001465 0.010911 0.001521 0.000000 0.000000 0.000000
# 3 0.000576 0.001521 0.015518 0.000000 0.000000 0.000000
# 4 0.000000 0.000000 0.000000 0.040423 0.000000 0.000000
# 5 0.000000 0.000000 0.000000 0.000000 0.033947 0.000000
# 6 0.000000 0.000000 0.000000 0.000000 0.000000 0.028758
#
#
# Mechanical properties :
#
#
# Convention : Reuss Voigt Hill
#
# Bulk Modulus (GPa) = 26.35511 28.75229 27.55370
# Shear Modulus (GPa) = 33.07094 35.20555 34.13825
#
# Velocity S-wave (km/s) = 4.02095 4.14869 4.08532
# Velocity P-wave (km/s) = 5.86874 6.08321 5.97694
#
# Compressibility (1/GPa) = 0.03794331
#
# Stress axis : x y z
#
# Youngs Moduli (GPa) = 97.56293 91.65107 64.44101
#
# Poissons Ratio (x) = 0.13423 -0.03709
# Poissons Ratio (y) = 0.14288 -0.09802
# Poissons Ratio (z) = -0.05616 -0.13941
#
# Static dielectric constant tensor:
#      x y z
#    x 1.872930 0.000000 0.000000 
#    y 0.000000 1.710260 0.000000 
#    z 0.000000 0.000000 1.764290 
# 
# From -- ./inp_files/20692.got.cif
#   From: 2010.05.17/outbox.cif.g08.bks.cpg/sg72_11_cif.got.tgz:20692.got - 2010.06.03 17:03:01.
