data_PCOD9527095
_publ_section_title
;
Structure prediction by ZEFSAII (Michael W. Deem and Ramdas Pophale) SiO2 
 PCOD9527095
Probable space group: I B A M
;
_chemical_formula_sum "Si O2"
_cell_formula_units_Z 96
_cell_length_a 10.005276
_cell_length_b 20.496037
_cell_length_c 23.773805
_cell_angle_alpha 90.000000
_cell_angle_beta 90.000000
_cell_angle_gamma 90.000000
_cell_volume 4875.258699
_symmetry_space_group_name_H-M "I B A M"
_symmetry_group_IT_number 72
_symmetry_cell_setting 'orthorhombic'
loop_
_space_group_symop_operation_xyz
x,y,z
-x,-y,z
x,-y,1/2-z
-x,y,1/2-z
-x,-y,-z
x,y,-z
-x,y,1/2+z
x,-y,1/2+z
1/2+x,1/2+y,1/2+z
1/2-x,1/2-y,1/2+z
1/2+x,1/2-y,-z
1/2-x,1/2+y,-z
1/2-x,1/2-y,1/2-z
1/2+x,1/2+y,1/2-z
1/2-x,1/2+y,z
1/2+x,1/2-y,z
loop_
_atom_site_type_symbol
_atom_site_label
_atom_site_fract_x
_atom_site_fract_y
_atom_site_fract_z
Si Si1 0.054172 0.793718 0.813737
Si Si2 0.359295 0.126537 0.436831
Si Si3 0.176211 0.615585 0.935668
Si Si4 0.791617 0.758247 0.120980
Si Si5 0.155141 0.505903 0.352996
Si Si6 0.583368 0.444327 0.691590
O O1 0.185248 0.752044 0.828570
O O2 0.083330 0.869721 0.827984
O O3 0.000000 0.788429 0.750000
O O4 0.936692 0.768124 0.853073
O O5 0.316091 0.111489 0.500000
O O6 0.519764 0.134810 0.436518
O O7 0.292187 0.192418 0.415229
O O8 0.336040 0.065302 0.396935
O O9 0.255460 0.679068 0.915866
O O10 0.190333 0.559035 0.888635
O O11 0.210387 0.595234 0.000000
O O12 0.266947 0.526706 0.307813
O O13 0.000000 0.500000 0.333472
O O14 0.500000 0.500000 0.658140
O O15 0.500000 0.438686 0.750000
#
# Coordination Sequence:
#
# PCOD9527095 Si02
#       6
#    16  16  16  16  16  16
#     4  11  24  40  63  90 121 167 212 260 320 375
#     4  10  20  36  60  88 123 162 204 255 315 372
#     4  10  21  37  61  93 125 160 208 258 315 375
#     4  12  21  40  61  90 124 165 205 262 315 374
#     4  10  20  38  64  90 122 166 213 258 307 374
#     4  10  21  40  62  88 126 168 203 257 324 372
#
# _framework density 19.691262999999999
#
# number of rings (size 3 to 8) (size 9 to 14) (size 15 to 20)
#    0.000    1.500    3.333    2.500    0.000    2.000 
#    0.000    1.667    0.000    2.000    0.000    0.000 
#    0.000    0.000    0.000    0.000    0.000    0.000 
#
# Total GULP energy -267631.464239 kJ/mol
# GULP energy per Si atom -5575.655505 kJ/mol
# Density = 1.964644 g / cm^3
# Si number density = 19.691263 Si / 1000 Ang^3
#
#
#
# Elastic Constant Matrix: (Units=GPa)
#
#
# Indices 1 2 3 4 5 6 
#
# 1 94.0635 37.6592 33.9645 0.0000 0.0000 0.0000
# 2 37.6592 80.2051 14.4153 0.0000 0.0000 0.0000
# 3 33.9645 14.4153 65.7419 0.0000 0.0000 0.0000
# 4 0.0000 0.0000 0.0000 12.4576 0.0000 0.0000
# 5 0.0000 0.0000 0.0000 0.0000 -13.7657 0.0000
# 6 0.0000 0.0000 0.0000 0.0000 0.0000 31.7311
#
#
#
# Elastic Compliance Matrix: (Units=1/GPa)
#
#
# Indices 1 2 3 4 5 6 
#
# 1 0.015463 -0.006064 -0.006659 0.000000 0.000000 0.000000
# 2 -0.006064 0.015357 -0.000235 0.000000 0.000000 0.000000
# 3 -0.006659 -0.000235 0.018703 0.000000 0.000000 0.000000
# 4 0.000000 0.000000 0.000000 0.080272 0.000000 0.000000
# 5 0.000000 0.000000 0.000000 0.000000 -0.072645 0.000000
# 6 0.000000 0.000000 0.000000 0.000000 0.000000 0.031515
#
#
# Mechanical properties :
#
#
# Convention : Reuss Voigt Hill
#
# Bulk Modulus (GPa) = 42.35824 45.78761 44.07293
# Shear Modulus (GPa) = 40.83262 16.34936 28.59099
#
# Velocity S-wave (km/s) = 4.55867 2.88459 3.81460
# Velocity P-wave (km/s) = 7.01901 5.86496 6.46777
#
# Compressibility (1/GPa) = 0.02360816
#
# Stress axis : x y z
#
# Youngs Moduli (GPa) = 64.66918 65.11537 53.46768
#
# Poissons Ratio (x) = 0.39484 0.35606
# Poissons Ratio (y) = 0.39214 0.01255
# Poissons Ratio (z) = 0.43065 0.01528
#
# Static dielectric constant tensor:
#      x y z
#    x 1.705950 0.000000 0.000000 
#    y 0.000000 1.699400 0.000000 
#    z 0.000000 0.000000 1.719300 
# 
# From -- ./inp_files/42449.got.cif
#   From: 2010.05.17/outbox.cif.g08.bks.cpg/sg72_22_cif.got.tgz:42449.got - 2010.06.03 17:03:01.
