data_PCOD9527238
_publ_section_title
;
Structure prediction by ZEFSAII (Michael W. Deem and Ramdas Pophale) SiO2 
 PCOD9527238
Probable space group: I B A M
;
_chemical_formula_sum "Si O2"
_cell_formula_units_Z 108
_cell_length_a 19.157560
_cell_length_b 14.588312
_cell_length_c 20.406483
_cell_angle_alpha 90.000000
_cell_angle_beta 90.000000
_cell_angle_gamma 90.000000
_cell_volume 5703.131680
_symmetry_space_group_name_H-M "I B A M"
_symmetry_group_IT_number 72
_symmetry_cell_setting 'orthorhombic'
loop_
_space_group_symop_operation_xyz
x,y,z
-x,-y,z
x,-y,1/2-z
-x,y,1/2-z
-x,-y,-z
x,y,-z
-x,y,1/2+z
x,-y,1/2+z
1/2+x,1/2+y,1/2+z
1/2-x,1/2-y,1/2+z
1/2+x,1/2-y,-z
1/2-x,1/2+y,-z
1/2-x,1/2-y,1/2-z
1/2+x,1/2+y,1/2-z
1/2-x,1/2+y,z
1/2+x,1/2-y,z
loop_
_atom_site_type_symbol
_atom_site_label
_atom_site_fract_x
_atom_site_fract_y
_atom_site_fract_z
Si Si1 0.795191 0.031230 0.576773
Si Si2 0.442074 0.424729 0.374678
Si Si3 0.500000 0.321688 0.250000
Si Si4 0.283605 0.854533 0.079261
Si Si5 0.311393 0.806639 0.423681
Si Si6 0.500000 0.000000 0.750000
Si Si7 0.432324 0.221224 0.576122
Si Si8 0.058536 0.661897 0.833185
O O1 0.813591 0.013322 0.500000
O O2 0.865563 0.031463 0.618481
O O3 0.755905 0.127801 0.579204
O O4 0.737692 0.956720 0.597745
O O5 0.500000 0.500000 0.394182
O O6 0.462579 0.385430 0.303370
O O7 0.439022 0.331349 0.417485
O O8 0.553277 0.251090 0.285758
O O9 0.218028 0.791609 0.097186
O O10 0.357407 0.814453 0.102173
O O11 0.287963 0.850289 0.000000
O O12 0.334774 0.804494 0.500000
O O13 0.372335 0.838104 0.376347
O O14 0.453328 0.931156 0.706747
O O15 0.438951 0.196173 0.500000
O O16 0.492902 0.175889 0.618485
#
# Coordination Sequence:
#
# PCOD9527238 Si02
#       8
#    16  16   8  16  16   4  16  16
#     4  10  21  36  59  92 124 156 189 238 311 373
#     4  11  22  38  62  84 120 161 202 247 291 350
#     4   9  23  43  59  80 118 162 211 255 291 331
#     4   9  19  35  56  86 130 157 178 230 305 376
#     4  10  20  38  62  94 125 148 189 250 312 372
#     4  10  24  44  60  76 114 160 216 258 284 330
#     4  10  20  37  61  93 123 154 189 243 313 366
#     4  10  22  40  65  81 115 160 207 250 295 354
#
# _framework density 18.936964
#
# number of rings (size 3 to 8) (size 9 to 14) (size 15 to 20)
#    0.000    2.074    1.481    1.111    6.222    1.185 
#    0.000    1.481    3.259    0.000    0.000    0.000 
#    0.000    0.000    0.000    0.000    0.000    0.000 
#
# Total GULP energy -301228.779764 kJ/mol
# GULP energy per Si atom -5578.310736 kJ/mol
# Density = 1.889386 g / cm^3
# Si number density = 18.936964 Si / 1000 Ang^3
#
#
#
# Elastic Constant Matrix: (Units=GPa)
#
#
# Indices 1 2 3 4 5 6 
#
# 1 94.7301 13.6028 27.8932 0.0000 0.0000 0.0000
# 2 13.6028 66.6754 9.1612 0.0000 0.0000 0.0000
# 3 27.8932 9.1612 44.2695 0.0000 0.0000 0.0000
# 4 0.0000 0.0000 0.0000 24.5353 0.0000 0.0000
# 5 0.0000 0.0000 0.0000 0.0000 -2.2900 0.0000
# 6 0.0000 0.0000 0.0000 0.0000 0.0000 22.2965
#
#
#
# Elastic Compliance Matrix: (Units=1/GPa)
#
#
# Indices 1 2 3 4 5 6 
#
# 1 0.013122 -0.001586 -0.007940 0.000000 0.000000 0.000000
# 2 -0.001586 0.015629 -0.002235 0.000000 0.000000 0.000000
# 3 -0.007940 -0.002235 0.028054 0.000000 0.000000 0.000000
# 4 0.000000 0.000000 0.000000 0.040758 0.000000 0.000000
# 5 0.000000 0.000000 0.000000 0.000000 -0.436672 0.000000
# 6 0.000000 0.000000 0.000000 0.000000 0.000000 0.044850
#
#
# Mechanical properties :
#
#
# Convention : Reuss Voigt Hill
#
# Bulk Modulus (GPa) = 30.04499 34.10993 32.07746
# Shear Modulus (GPa) = -19.25713 19.24286 -0.00714
#
# Velocity S-wave (km/s) = -3.19236 3.19117 -0.06146
# Velocity P-wave (km/s) = 1.52054 5.62402 4.11956
#
# Compressibility (1/GPa) = 0.03328342
#
# Stress axis : x y z
#
# Youngs Moduli (GPa) = 76.20870 63.98485 35.64565
#
# Poissons Ratio (x) = 0.10149 0.28301
# Poissons Ratio (y) = 0.12088 0.07966
# Poissons Ratio (z) = 0.60506 0.14300
#
# Static dielectric constant tensor:
#      x y z
#    x 1.634410 0.000000 0.000000 
#    y 0.000000 1.665450 0.000000 
#    z 0.000000 0.000000 1.661330 
# 
# From -- ./inp_files/39859.got.cif
#   From: 2010.05.17/outbox.cif.g08.bks.cpg/sg72_20_cif.got.tgz:39859.got - 2010.06.03 17:03:01.
