data_PCOD9527210
_publ_section_title
;
Structure prediction by ZEFSAII (Michael W. Deem and Ramdas Pophale) SiO2 
 PCOD9527210
Probable space group: I B A M
;
_chemical_formula_sum "Si O2"
_cell_formula_units_Z 112
_cell_length_a 13.302973
_cell_length_b 22.677961
_cell_length_c 19.920060
_cell_angle_alpha 90.000000
_cell_angle_beta 90.000000
_cell_angle_gamma 90.000000
_cell_volume 6009.569414
_symmetry_space_group_name_H-M "I B A M"
_symmetry_group_IT_number 72
_symmetry_cell_setting 'orthorhombic'
loop_
_space_group_symop_operation_xyz
x,y,z
-x,-y,z
x,-y,1/2-z
-x,y,1/2-z
-x,-y,-z
x,y,-z
-x,y,1/2+z
x,-y,1/2+z
1/2+x,1/2+y,1/2+z
1/2-x,1/2-y,1/2+z
1/2+x,1/2-y,-z
1/2-x,1/2+y,-z
1/2-x,1/2-y,1/2-z
1/2+x,1/2+y,1/2-z
1/2-x,1/2+y,z
1/2+x,1/2-y,z
loop_
_atom_site_type_symbol
_atom_site_label
_atom_site_fract_x
_atom_site_fract_y
_atom_site_fract_z
Si Si1 0.591971 0.108443 0.708074
Si Si2 0.189941 0.296592 0.192097
Si Si3 0.734504 0.113565 0.076280
Si Si4 0.488866 0.068247 0.577691
Si Si5 0.881242 0.989280 0.420877
Si Si6 0.693415 0.554331 0.298041
Si Si7 0.886628 0.815605 0.227944
O O1 0.500000 0.083005 0.750000
O O2 0.626323 0.167783 0.749791
O O3 0.548966 0.108774 0.631674
O O4 0.689917 0.068192 0.712345
O O5 0.205406 0.335691 0.126964
O O6 0.138434 0.234622 0.173218
O O7 0.304543 0.293165 0.218322
O O8 0.631507 0.076518 0.077759
O O9 0.831054 0.074066 0.097094
O O10 0.752160 0.133514 0.000000
O O11 0.522810 0.077379 0.500000
O O12 0.500000 0.000000 0.596636
O O13 0.862523 0.997116 0.500000
O O14 0.824928 0.035080 0.373952
O O15 0.000000 0.000000 0.409041
O O16 0.661156 0.500000 0.250000
O O17 0.637324 0.616240 0.285798
O O18 0.000000 0.809963 0.250000
#
# Coordination Sequence:
#
# PCOD9527210 Si02
#       7
#    16  16  16  16  16  16  16
#     4  11  21  34  59  86 120 158 198 246 293 361
#     4  10  21  41  60  88 118 155 205 251 299 365
#     4  10  20  37  60  87 119 160 203 243 296 368
#     4  10  21  33  52  84 124 163 193 237 302 364
#     4  10  22  39  60  85 120 162 199 245 306 366
#     4  11  25  37  57  93 120 155 200 253 306 368
#     4  10  23  38  61  88 118 155 195 256 312 356
#
# _framework density 18.636942000000001
#
# number of rings (size 3 to 8) (size 9 to 14) (size 15 to 20)
#    0.000    1.714    1.429    3.000    6.000    1.714 
#    0.000    0.714    0.000    6.000    0.000    0.000 
#    0.000    0.000    0.000    0.000    0.000    0.000 
#
# Total GULP energy -311855.993781 kJ/mol
# GULP energy per Si atom -5568.857032 kJ/mol
# Density = 1.859452 g / cm^3
# Si number density = 18.636942 Si / 1000 Ang^3
#
#
#
# Elastic Constant Matrix: (Units=GPa)
#
#
# Indices 1 2 3 4 5 6 
#
# 1 106.8819 56.9892 34.5179 0.0000 0.0000 0.0000
# 2 56.9892 122.4286 48.6089 0.0000 0.0000 0.0000
# 3 34.5179 48.6089 63.1931 0.0000 0.0000 0.0000
# 4 0.0000 0.0000 0.0000 1.1038 0.0000 0.0000
# 5 0.0000 0.0000 0.0000 0.0000 20.3153 0.0000
# 6 0.0000 0.0000 0.0000 0.0000 0.0000 -25.9615
#
#
#
# Elastic Compliance Matrix: (Units=1/GPa)
#
#
# Indices 1 2 3 4 5 6 
#
# 1 0.012965 -0.004640 -0.003512 0.000000 0.000000 0.000000
# 2 -0.004640 0.013420 -0.007788 0.000000 0.000000 0.000000
# 3 -0.003512 -0.007788 0.023734 0.000000 0.000000 0.000000
# 4 0.000000 0.000000 0.000000 0.905936 0.000000 0.000000
# 5 0.000000 0.000000 0.000000 0.000000 0.049224 0.000000
# 6 0.000000 0.000000 0.000000 0.000000 0.000000 -0.038519
#
#
# Mechanical properties :
#
#
# Convention : Reuss Voigt Hill
#
# Bulk Modulus (GPa) = 54.83384 63.63727 59.23556
# Shear Modulus (GPa) = 4.97651 9.25072 7.11361
#
# Velocity S-wave (km/s) = 1.63586 2.23034 1.95582
# Velocity P-wave (km/s) = 5.74926 6.39159 6.07892
#
# Compressibility (1/GPa) = 0.01823691
#
# Stress axis : x y z
#
# Youngs Moduli (GPa) = 77.13277 74.51355 42.13390
#
# Poissons Ratio (x) = 0.34578 0.14798
# Poissons Ratio (y) = 0.35793 0.32815
# Poissons Ratio (z) = 0.27091 0.58034
#
# Static dielectric constant tensor:
#      x y z
#    x 1.655520 0.000000 0.000000 
#    y 0.000000 1.779870 0.000000 
#    z 0.000000 0.000000 1.718830 
# 
# From -- ./inp_files/37301.got.cif
#   From: 2010.05.17/outbox.cif.g08.bks.cpg/sg72_19_cif.got.tgz:37301.got - 2010.06.03 17:03:01.
