data_PCOD9527346
_publ_section_title
;
Structure prediction by ZEFSAII (Michael W. Deem and Ramdas Pophale) SiO2 
 PCOD9527346
Probable space group: I B A M
;
_chemical_formula_sum "Si O2"
_cell_formula_units_Z 96
_cell_length_a 14.858851
_cell_length_b 20.756637
_cell_length_c 14.307475
_cell_angle_alpha 90.000000
_cell_angle_beta 90.000000
_cell_angle_gamma 90.000000
_cell_volume 4412.708241
_symmetry_space_group_name_H-M "I B A M"
_symmetry_group_IT_number 72
_symmetry_cell_setting 'orthorhombic'
loop_
_space_group_symop_operation_xyz
x,y,z
-x,-y,z
x,-y,1/2-z
-x,y,1/2-z
-x,-y,-z
x,y,-z
-x,y,1/2+z
x,-y,1/2+z
1/2+x,1/2+y,1/2+z
1/2-x,1/2-y,1/2+z
1/2+x,1/2-y,-z
1/2-x,1/2+y,-z
1/2-x,1/2-y,1/2-z
1/2+x,1/2+y,1/2-z
1/2-x,1/2+y,z
1/2+x,1/2-y,z
loop_
_atom_site_type_symbol
_atom_site_label
_atom_site_fract_x
_atom_site_fract_y
_atom_site_fract_z
Si Si1 0.314135 0.756517 0.609093
Si Si2 0.504281 0.290827 0.886762
Si Si3 0.144160 0.675981 0.606939
Si Si4 0.941946 0.936470 0.885867
Si Si5 0.249466 0.110505 0.111065
Si Si6 0.893613 0.571493 0.738758
O O1 0.331609 0.773391 0.500000
O O2 0.410405 0.738436 0.650581
O O3 0.247581 0.696983 0.608921
O O4 0.254879 0.815811 0.647465
O O5 0.581316 0.237587 0.868942
O O6 0.519982 0.365326 0.858272
O O7 0.499303 0.294650 0.000000
O O8 0.120578 0.657234 0.500000
O O9 0.135516 0.619626 0.680554
O O10 0.836463 0.930794 0.854482
O O11 0.942841 0.938632 0.000000
O O12 0.000000 0.000000 0.856750
O O13 0.349681 0.090126 0.140443
O O14 0.238424 0.110949 0.000000
O O15 0.858149 0.500000 0.750000
O O16 0.000000 0.571011 0.750000
#
# Coordination Sequence:
#
# PCOD9527346 Si02
#       6
#    16  16  16  16  16  16
#     4   9  17  31  58  91 120 156 204 255 307 374
#     4   9  16  30  54  87 124 160 207 260 310 373
#     4  10  20  38  63  88 120 160 206 262 316 374
#     4   9  17  31  56  90 128 167 208 258 320 387
#     4  10  20  39  64  91 126 168 209 258 327 391
#     4  11  26  43  59  86 122 161 214 269 317 380
#
# _framework density 21.755347
#
# number of rings (size 3 to 8) (size 9 to 14) (size 15 to 20)
#    0.000    2.333    1.667    1.000    0.000    4.667 
#    0.000    5.000    0.000    2.500    0.000    0.000 
#    0.000    0.667    0.000    0.000    0.000    0.000 
#
# Total GULP energy -267365.491220 kJ/mol
# GULP energy per Si atom -5570.114400 kJ/mol
# Density = 2.170583 g / cm^3
# Si number density = 21.755347 Si / 1000 Ang^3
#
#
#
# Elastic Constant Matrix: (Units=GPa)
#
#
# Indices 1 2 3 4 5 6 
#
# 1 132.6913 37.4821 11.3815 0.0000 0.0000 0.0000
# 2 37.4821 106.9604 16.2708 0.0000 0.0000 0.0000
# 3 11.3815 16.2708 52.5743 0.0000 0.0000 -0.0001
# 4 0.0000 0.0000 0.0000 6.6136 0.0000 0.0000
# 5 0.0000 0.0000 0.0000 0.0000 18.2010 0.0000
# 6 0.0000 0.0000 -0.0001 0.0000 0.0000 52.7712
#
#
#
# Elastic Compliance Matrix: (Units=1/GPa)
#
#
# Indices 1 2 3 4 5 6 
#
# 1 0.008410 -0.002802 -0.000953 0.000000 0.000000 0.000000
# 2 -0.002802 0.010745 -0.002719 0.000000 0.000000 0.000000
# 3 -0.000953 -0.002719 0.020068 0.000000 0.000000 0.000000
# 4 0.000000 0.000000 0.000000 0.151205 0.000000 0.000000
# 5 0.000000 0.000000 0.000000 0.000000 0.054942 0.000000
# 6 0.000000 0.000000 0.000000 0.000000 0.000000 0.018950
#
#
# Mechanical properties :
#
#
# Convention : Reuss Voigt Hill
#
# Bulk Modulus (GPa) = 38.05948 46.94387 42.50168
# Shear Modulus (GPa) = 17.48097 30.65660 24.06878
#
# Velocity S-wave (km/s) = 2.83773 3.75794 3.32978
# Velocity P-wave (km/s) = 5.31688 6.36038 5.86190
#
# Compressibility (1/GPa) = 0.02627466
#
# Stress axis : x y z
#
# Youngs Moduli (GPa) = 118.91255 93.06914 49.82940
#
# Poissons Ratio (x) = 0.26077 0.04751
# Poissons Ratio (y) = 0.33318 0.13547
# Poissons Ratio (z) = 0.11337 0.25303
#
# Static dielectric constant tensor:
#      x y z
#    x 1.786670 0.000000 0.000000 
#    y 0.000000 1.998170 0.000000 
#    z 0.000000 0.000000 1.876720 
# 
# From -- ./inp_files/21806.got.cif
#   From: 2010.05.17/outbox.cif.g08.bks.cpg/sg72_11_cif.got.tgz:21806.got - 2010.06.03 17:03:01.
