data_PCOD9527834
_publ_section_title
;
Structure prediction by ZEFSAII (Michael W. Deem and Ramdas Pophale) SiO2 
 PCOD9527834
Probable space group: I B A M
;
_chemical_formula_sum "Si O2"
_cell_formula_units_Z 72
_cell_length_a 9.164929
_cell_length_b 23.205823
_cell_length_c 16.859160
_cell_angle_alpha 90.000000
_cell_angle_beta 90.000000
_cell_angle_gamma 90.000000
_cell_volume 3585.601431
_symmetry_space_group_name_H-M "I B A M"
_symmetry_group_IT_number 72
_symmetry_cell_setting 'orthorhombic'
loop_
_space_group_symop_operation_xyz
x,y,z
-x,-y,z
x,-y,1/2-z
-x,y,1/2-z
-x,-y,-z
x,y,-z
-x,y,1/2+z
x,-y,1/2+z
1/2+x,1/2+y,1/2+z
1/2-x,1/2-y,1/2+z
1/2+x,1/2-y,-z
1/2-x,1/2+y,-z
1/2-x,1/2-y,1/2-z
1/2+x,1/2+y,1/2-z
1/2-x,1/2+y,z
1/2+x,1/2-y,z
loop_
_atom_site_type_symbol
_atom_site_label
_atom_site_fract_x
_atom_site_fract_y
_atom_site_fract_z
Si Si1 0.656771 0.622695 0.500000
Si Si2 0.000000 0.500000 0.870815
Si Si3 0.500000 0.102503 0.250000
Si Si4 0.674973 0.180678 0.644490
Si Si5 0.255051 0.998468 0.500000
Si Si6 0.353484 0.781827 0.090384
Si Si7 0.823086 0.131208 0.000000
O O1 0.747542 0.641865 0.422576
O O2 0.642633 0.553495 0.500000
O O3 0.492665 0.646143 0.500000
O O4 0.970254 0.557655 0.820660
O O5 0.860303 0.489974 0.924976
O O6 0.632681 0.143506 0.278303
O O7 0.517442 0.202211 0.612693
O O8 0.778756 0.236541 0.649137
O O9 0.199846 0.063393 0.500000
O O10 0.256939 0.838988 0.075354
O O11 0.350506 0.756415 0.000000
#
# Coordination Sequence:
#
# PCOD9527834 Si02
#       7
#     8   8   8  16   8  16   8
#     4  12  20  37  62  95 124 164 210 264 309 377
#     4  10  22  40  64  98 122 168 208 274 312 388
#     4  11  24  38  60  94 134 164 209 256 330 394
#     4  12  22  40  63  94 128 170 212 260 322 379
#     4  11  21  38  70  92 120 160 219 262 314 369
#     4  10  21  37  62  91 122 161 212 267 301 374
#     4  10  22  35  60 103 126 149 210 277 310 354
#
# _framework density 20.080311999999999
#
# number of rings (size 3 to 8) (size 9 to 14) (size 15 to 20)
#    0.667    0.444    4.444    3.000    3.111    0.889 
#    0.000    0.000    0.000    4.000    0.000    0.000 
#    0.000    0.000    0.000    0.000    0.000    0.000 
#
# Total GULP energy -200891.693209 kJ/mol
# GULP energy per Si atom -5580.324811 kJ/mol
# Density = 2.003461 g / cm^3
# Si number density = 20.080312 Si / 1000 Ang^3
#
#
#
# Elastic Constant Matrix: (Units=GPa)
#
#
# Indices 1 2 3 4 5 6 
#
# 1 115.5190 45.4499 19.5657 0.0000 0.0000 0.0000
# 2 45.4499 139.8732 24.0383 0.0000 0.0000 0.0000
# 3 19.5657 24.0383 67.1598 0.0000 0.0000 0.0000
# 4 0.0000 0.0000 0.0000 33.0700 0.0000 0.0000
# 5 0.0000 0.0000 0.0000 0.0000 28.0162 0.0000
# 6 0.0000 0.0000 0.0000 0.0000 0.0000 41.8034
#
#
#
# Elastic Compliance Matrix: (Units=1/GPa)
#
#
# Indices 1 2 3 4 5 6 
#
# 1 0.010146 -0.002972 -0.001892 0.000000 0.000000 0.000000
# 2 -0.002972 0.008488 -0.002172 0.000000 0.000000 0.000000
# 3 -0.001892 -0.002172 0.016219 0.000000 0.000000 0.000000
# 4 0.000000 0.000000 0.000000 0.030239 0.000000 0.000000
# 5 0.000000 0.000000 0.000000 0.000000 0.035694 0.000000
# 6 0.000000 0.000000 0.000000 0.000000 0.000000 0.023921
#
#
# Mechanical properties :
#
#
# Convention : Reuss Voigt Hill
#
# Bulk Modulus (GPa) = 48.12212 55.62886 51.87549
# Shear Modulus (GPa) = 34.31546 36.14446 35.22996
#
# Velocity S-wave (km/s) = 4.13838 4.24724 4.19316
# Velocity P-wave (km/s) = 6.84484 7.19829 7.02379
#
# Compressibility (1/GPa) = 0.02078046
#
# Stress axis : x y z
#
# Youngs Moduli (GPa) = 98.55845 117.80928 61.65722
#
# Poissons Ratio (x) = 0.35009 0.11667
# Poissons Ratio (y) = 0.29289 0.13395
# Poissons Ratio (z) = 0.18650 0.25593
#
# Static dielectric constant tensor:
#      x y z
#    x 1.647680 0.000000 0.000000 
#    y 0.000000 1.764800 0.000000 
#    z 0.000000 0.000000 1.730340 
# 
# From -- ./inp_files/28023.got.cif
#   From: 2010.05.17/outbox.cif.g08.bks.cpg/sg72_15_cif.got.tgz:28023.got - 2010.06.03 17:03:01.
