data_PCOD9527579
_publ_section_title
;
Structure prediction by ZEFSAII (Michael W. Deem and Ramdas Pophale) SiO2 
 PCOD9527579
Probable space group: I B A M
;
_chemical_formula_sum "Si O2"
_cell_formula_units_Z 96
_cell_length_a 20.120161
_cell_length_b 9.774952
_cell_length_c 24.761326
_cell_angle_alpha 90.000000
_cell_angle_beta 90.000000
_cell_angle_gamma 90.000000
_cell_volume 4869.899323
_symmetry_space_group_name_H-M "I B A M"
_symmetry_group_IT_number 72
_symmetry_cell_setting 'orthorhombic'
loop_
_space_group_symop_operation_xyz
x,y,z
-x,-y,z
x,-y,1/2-z
-x,y,1/2-z
-x,-y,-z
x,y,-z
-x,y,1/2+z
x,-y,1/2+z
1/2+x,1/2+y,1/2+z
1/2-x,1/2-y,1/2+z
1/2+x,1/2-y,-z
1/2-x,1/2+y,-z
1/2-x,1/2-y,1/2-z
1/2+x,1/2+y,1/2-z
1/2-x,1/2+y,z
1/2+x,1/2-y,z
loop_
_atom_site_type_symbol
_atom_site_label
_atom_site_fract_x
_atom_site_fract_y
_atom_site_fract_z
Si Si1 0.918655 0.342131 0.748326
Si Si2 0.436387 0.092939 0.565190
Si Si3 0.071457 0.828594 0.646523
Si Si4 0.181050 0.817241 0.937066
Si Si5 0.913992 0.140774 0.844647
Si Si6 0.293387 0.012366 0.936593
O O1 0.896766 0.500000 0.750000
O O2 0.900583 0.273051 0.691679
O O3 0.892980 0.242158 0.796094
O O4 0.000000 0.344249 0.750000
O O5 0.440589 0.099861 0.500000
O O6 0.429338 0.244591 0.590424
O O7 0.367679 0.020168 0.582461
O O8 0.500000 0.000000 0.583653
O O9 0.993267 0.850342 0.656934
O O10 0.102680 0.978557 0.655105
O O11 0.115784 0.808401 0.901020
O O12 0.232058 0.928304 0.913794
O O13 0.218024 0.672795 0.933718
O O14 0.164158 0.843311 0.000000
O O15 0.294367 0.972605 0.000000
#
# Coordination Sequence:
#
# PCOD9527579 Si02
#       6
#    16  16  16  16  16  16
#     4   9  19  34  57  83 111 149 197 243 287 351
#     4  10  21  35  57  88 121 153 193 245 300 357
#     4  10  21  34  57  84 120 152 189 241 300 353
#     4  10  21  37  58  83 116 155 198 240 285 349
#     4  10  21  36  54  87 119 151 191 245 297 344
#     4   9  20  36  55  79 111 154 197 235 280 344
#
# _framework density 19.712933
#
# number of rings (size 3 to 8) (size 9 to 14) (size 15 to 20)
#    0.000    2.333    0.000    1.500    9.333    4.667 
#    0.000    1.667    0.000    1.000    0.000    0.000 
#    0.000    0.000    0.000    0.000    0.000    0.000 
#
# Total GULP energy -267279.082291 kJ/mol
# GULP energy per Si atom -5568.314214 kJ/mol
# Density = 1.966807 g / cm^3
# Si number density = 19.712933 Si / 1000 Ang^3
#
#
#
# Elastic Constant Matrix: (Units=GPa)
#
#
# Indices 1 2 3 4 5 6 
#
# 1 36.0320 20.9021 24.5842 0.0000 0.0000 0.0000
# 2 20.9021 131.2634 53.4553 0.0000 0.0000 0.0000
# 3 24.5842 53.4553 77.4685 0.0000 0.0000 0.0000
# 4 0.0000 0.0000 0.0000 29.6261 0.0000 0.0000
# 5 0.0000 0.0000 0.0000 0.0000 3.8052 0.0000
# 6 0.0000 0.0000 0.0000 0.0000 0.0000 19.8716
#
#
#
# Elastic Compliance Matrix: (Units=1/GPa)
#
#
# Indices 1 2 3 4 5 6 
#
# 1 0.035630 -0.001487 -0.010281 0.000000 0.000000 0.000000
# 2 -0.001487 0.010658 -0.006882 0.000000 0.000000 0.000000
# 3 -0.010281 -0.006882 0.020920 0.000000 0.000000 0.000000
# 4 0.000000 0.000000 0.000000 0.033754 0.000000 0.000000
# 5 0.000000 0.000000 0.000000 0.000000 0.262801 0.000000
# 6 0.000000 0.000000 0.000000 0.000000 0.000000 0.050323
#
#
# Mechanical properties :
#
#
# Convention : Reuss Voigt Hill
#
# Bulk Modulus (GPa) = 33.43624 49.18301 41.30963
# Shear Modulus (GPa) = 10.83762 20.38206 15.60984
#
# Velocity S-wave (km/s) = 2.34727 3.21899 2.81705
# Velocity P-wave (km/s) = 4.93403 6.23054 5.61980
#
# Compressibility (1/GPa) = 0.02990767
#
# Stress axis : x y z
#
# Youngs Moduli (GPa) = 28.06597 93.82834 47.80091
#
# Poissons Ratio (x) = 0.13951 0.49145
# Poissons Ratio (y) = 0.04173 0.32898
# Poissons Ratio (z) = 0.28855 0.64576
#
# Static dielectric constant tensor:
#      x y z
#    x 1.693060 0.000000 0.000000 
#    y 0.000000 1.742570 0.000000 
#    z 0.000000 0.000000 1.701930 
# 
# From -- ./inp_files/49363.got.cif
#   From: 2010.05.17/outbox.cif.g08.bks.cpg/sg72_25_cif.got.tgz:49363.got - 2010.06.03 17:03:01.
