data_PCOD9527627
_publ_section_title
;
Structure prediction by ZEFSAII (Michael W. Deem and Ramdas Pophale) SiO2 
 PCOD9527627
Probable space group: I B A M
;
_chemical_formula_sum "Si O2"
_cell_formula_units_Z 48
_cell_length_a 11.769596
_cell_length_b 19.950672
_cell_length_c 9.111119
_cell_angle_alpha 90.000000
_cell_angle_beta 90.000000
_cell_angle_gamma 90.000000
_cell_volume 2139.394147
_symmetry_space_group_name_H-M "I B A M"
_symmetry_group_IT_number 72
_symmetry_cell_setting 'orthorhombic'
loop_
_space_group_symop_operation_xyz
x,y,z
-x,-y,z
x,-y,1/2-z
-x,y,1/2-z
-x,-y,-z
x,y,-z
-x,y,1/2+z
x,-y,1/2+z
1/2+x,1/2+y,1/2+z
1/2-x,1/2-y,1/2+z
1/2+x,1/2-y,-z
1/2-x,1/2+y,-z
1/2-x,1/2-y,1/2-z
1/2+x,1/2+y,1/2-z
1/2-x,1/2+y,z
1/2+x,1/2-y,z
loop_
_atom_site_type_symbol
_atom_site_label
_atom_site_fract_x
_atom_site_fract_y
_atom_site_fract_z
Si Si1 0.500000 0.600608 0.250000
Si Si2 0.659539 0.760217 0.000000
Si Si3 0.841540 0.873779 0.000000
Si Si4 0.157270 0.358966 0.000000
Si Si5 0.500000 0.804023 0.250000
Si Si6 0.845227 0.966285 0.500000
O O1 0.583595 0.640622 0.356686
O O2 0.580763 0.558158 0.139893
O O3 0.746815 0.699146 0.000000
O O4 0.580815 0.761876 0.857212
O O5 0.730527 0.829291 0.000000
O O6 0.826245 0.954256 0.000000
O O7 0.079249 0.347866 0.857528
O O8 0.226442 0.427657 0.000000
#
# Coordination Sequence:
#
# PCOD9527627 Si02
#       6
#     8   8   8   8   8   8
#     4  10  21  35  59  92 121 145 189 240 289 345
#     4  11  24  41  62  85 116 153 190 236 288 339
#     4  11  21  37  58  87 119 153 190 236 288 339
#     4  11  24  41  62  85 116 153 190 236 288 339
#     4  10  24  43  58  88 118 145 200 240 272 345
#     4  11  21  37  58  87 119 153 190 236 288 339
#
# _framework density 22.436257999999999
#
# number of rings (size 3 to 8) (size 9 to 14) (size 15 to 20)
#    0.000    1.333    0.000    7.000    0.000    8.000 
#    0.000    5.000    0.000    0.000    0.000    0.000 
#    0.000    0.000    0.000    0.000    0.000    0.000 
#
# Total GULP energy -134539.066082 kJ/mol
# GULP energy per Si atom -5605.794420 kJ/mol
# Density = 2.238519 g / cm^3
# Si number density = 22.436258 Si / 1000 Ang^3
#
#
#
# Elastic Constant Matrix: (Units=GPa)
#
#
# Indices 1 2 3 4 5 6 
#
# 1 161.4710 80.2962 86.7981 -0.0002 0.0000 0.0000
# 2 80.2962 106.1671 55.1325 0.0000 0.0000 0.0000
# 3 86.7981 55.1325 197.9051 -0.0013 -0.0002 0.0001
# 4 -0.0002 0.0000 -0.0013 -170.5781 -0.0011 0.0004
# 5 0.0000 0.0000 -0.0002 -0.0011 0.6104 0.0000
# 6 0.0000 0.0000 0.0001 0.0004 0.0000 41.9894
#
#
#
# Elastic Compliance Matrix: (Units=1/GPa)
#
#
# Indices 1 2 3 4 5 6 
#
# 1 0.011271 -0.006965 -0.003003 0.000000 -0.000001 0.000000
# 2 -0.006965 0.015316 -0.001212 0.000000 0.000001 0.000000
# 3 -0.003003 -0.001212 0.006708 0.000000 0.000002 0.000000
# 4 0.000000 0.000000 0.000000 -0.005862 -0.000011 0.000000
# 5 -0.000001 0.000001 0.000002 -0.000011 1.638235 -0.000001
# 6 0.000000 0.000000 0.000000 0.000000 -0.000001 0.023816
#
#
# Mechanical properties :
#
#
# Convention : Reuss Voigt Hill
#
# Bulk Modulus (GPa) = 91.45094 101.11076 96.28085
# Shear Modulus (GPa) = 2.91462 -9.37458 -3.22998
#
# Velocity S-wave (km/s) = 1.14100 -2.04631 -1.20115
# Velocity P-wave (km/s) = 6.52569 6.29130 6.40957
#
# Compressibility (1/GPa) = 0.01093482
#
# Stress axis : x y z
#
# Youngs Moduli (GPa) = 88.72519 65.29014 149.08407
#
# Poissons Ratio (x) = 0.45474 0.44768
# Poissons Ratio (y) = 0.61796 0.18071
# Poissons Ratio (z) = 0.26643 0.07914
#
# Static dielectric constant tensor:
#      x y z
#    x 1.794180 0.000000 0.000000 
#    y 0.000000 1.818110 0.000000 
#    z 0.000000 0.000000 1.841210 
# 
# From -- ./inp_files/2236.got.cif
#   From: 2010.05.17/outbox.cif.g08.bks.cpg/sg72_2_cif.got.tgz:2236.got - 2010.06.03 17:03:01.
