data_PCOD9527131
_publ_section_title
;
Structure prediction by ZEFSAII (Michael W. Deem and Ramdas Pophale) SiO2 
 PCOD9527131
Probable space group: I B A M
;
_chemical_formula_sum "Si O2"
_cell_formula_units_Z 120
_cell_length_a 24.917166
_cell_length_b 10.673201
_cell_length_c 17.299624
_cell_angle_alpha 90.000000
_cell_angle_beta 90.000000
_cell_angle_gamma 90.000000
_cell_volume 4600.764439
_symmetry_space_group_name_H-M "I B A M"
_symmetry_group_IT_number 72
_symmetry_cell_setting 'orthorhombic'
loop_
_space_group_symop_operation_xyz
x,y,z
-x,-y,z
x,-y,1/2-z
-x,y,1/2-z
-x,-y,-z
x,y,-z
-x,y,1/2+z
x,-y,1/2+z
1/2+x,1/2+y,1/2+z
1/2-x,1/2-y,1/2+z
1/2+x,1/2-y,-z
1/2-x,1/2+y,-z
1/2-x,1/2-y,1/2-z
1/2+x,1/2+y,1/2-z
1/2-x,1/2+y,z
1/2+x,1/2-y,z
loop_
_atom_site_type_symbol
_atom_site_label
_atom_site_fract_x
_atom_site_fract_y
_atom_site_fract_z
Si Si1 0.802088 0.357295 0.799573
Si Si2 0.401152 0.868954 0.413321
Si Si3 0.113874 0.929036 0.084043
Si Si4 0.519906 0.176825 0.906462
Si Si5 0.706696 0.835848 0.500000
Si Si6 0.365067 0.195733 0.351475
Si Si7 0.724838 0.576492 0.148617
Si Si8 0.443822 0.400635 0.681382
O O1 0.851755 0.393373 0.856482
O O2 0.827586 0.364984 0.713799
O O3 0.754018 0.548056 0.680409
O O4 0.781380 0.215976 0.814158
O O5 0.387309 0.916505 0.500000
O O6 0.400081 0.716787 0.415882
O O7 0.463761 0.895532 0.396665
O O8 0.162552 0.956349 0.140265
O O9 0.064784 0.014609 0.106605
O O10 0.133371 0.963614 0.000000
O O11 0.579350 0.128526 0.880199
O O12 0.514340 0.294881 0.846420
O O13 0.522981 0.203119 0.000000
O O14 0.667265 0.782194 0.430013
O O15 0.746495 0.894024 0.567388
O O16 0.390843 0.315622 0.308615
O O17 0.449094 0.500000 0.750000
#
# Coordination Sequence:
#
# PCOD9527131 Si02
#       8
#    16  16  16  16   8  16  16  16
#     4  11  26  50  74 118 157 213 260 343 390 491
#     4   9  20  39  71 106 156 200 264 323 403 478
#     4  10  20  38  59  97 140 194 247 315 376 469
#     4   9  19  40  68 107 149 213 255 334 403 488
#     4  12  26  50  74 109 141 217 262 331 388 499
#     4  10  24  46  72 104 159 199 270 321 409 478
#     4  11  27  46  76 107 156 204 268 323 410 459
#     4  10  20  36  62 100 149 199 250 315 390 476
#
# _framework density 26.082621
#
# number of rings (size 3 to 8) (size 9 to 14) (size 15 to 20)
#    0.800    1.067    1.333    2.000    4.667    2.133 
#    4.800    2.667    0.000    1.600    0.000    1.867 
#    0.000    8.533    0.000    0.000    0.000    0.000 
#
# Total GULP energy -334063.815984 kJ/mol
# GULP energy per Si atom -5567.730266 kJ/mol
# Density = 2.602326 g / cm^3
# Si number density = 26.082621 Si / 1000 Ang^3
#
#
#
# Elastic Constant Matrix: (Units=GPa)
#
#
# Indices 1 2 3 4 5 6 
#
# 1 143.1360 56.6036 61.3589 0.0000 0.0000 0.0000
# 2 56.6036 118.8562 63.4162 0.0000 0.0000 0.0000
# 3 61.3589 63.4162 163.1775 0.0000 0.0000 0.0000
# 4 0.0000 0.0000 0.0000 42.5572 0.0000 0.0000
# 5 0.0000 0.0000 0.0000 0.0000 -19.1687 0.0000
# 6 0.0000 0.0000 0.0000 0.0000 0.0000 53.1692
#
#
#
# Elastic Compliance Matrix: (Units=1/GPa)
#
#
# Indices 1 2 3 4 5 6 
#
# 1 0.009202 -0.003200 -0.002217 0.000000 0.000000 0.000000
# 2 -0.003200 0.011727 -0.003354 0.000000 0.000000 0.000000
# 3 -0.002217 -0.003354 0.008265 0.000000 0.000000 0.000000
# 4 0.000000 0.000000 0.000000 0.023498 0.000000 0.000000
# 5 0.000000 0.000000 0.000000 0.000000 -0.052169 0.000000
# 6 0.000000 0.000000 0.000000 0.000000 0.000000 0.018808
#
#
# Mechanical properties :
#
#
# Convention : Reuss Voigt Hill
#
# Bulk Modulus (GPa) = 85.81414 87.54745 86.68079
# Shear Modulus (GPa) = 122.67791 31.56428 77.12109
#
# Velocity S-wave (km/s) = 6.86560 3.48252 5.44355
# Velocity P-wave (km/s) = 9.78882 7.05754 8.53316
#
# Compressibility (1/GPa) = 0.01165309
#
# Stress axis : x y z
#
# Youngs Moduli (GPa) = 108.67354 85.27316 120.98543
#
# Poissons Ratio (x) = 0.27283 0.26819
# Poissons Ratio (y) = 0.34770 0.40583
# Poissons Ratio (z) = 0.24090 0.28604
#
# Static dielectric constant tensor:
#      x y z
#    x 2.102080 0.000000 0.000000 
#    y 0.000000 2.102880 0.000000 
#    z 0.000000 0.000000 2.019150 
# 
# From -- ./inp_files/34055.got.cif
#   From: 2010.05.17/outbox.cif.g08.bks.cpg/sg72_18_cif.got.tgz:34055.got - 2010.06.03 17:03:01.
