data_PCOD9527768
_publ_section_title
;
Structure prediction by ZEFSAII (Michael W. Deem and Ramdas Pophale) SiO2 
 PCOD9527768
Probable space group: I B A M
;
_chemical_formula_sum "Si O2"
_cell_formula_units_Z 104
_cell_length_a 15.775866
_cell_length_b 21.293701
_cell_length_c 15.829503
_cell_angle_alpha 90.000000
_cell_angle_beta 90.000000
_cell_angle_gamma 90.000000
_cell_volume 5317.550705
_symmetry_space_group_name_H-M "I B A M"
_symmetry_group_IT_number 72
_symmetry_cell_setting 'orthorhombic'
loop_
_space_group_symop_operation_xyz
x,y,z
-x,-y,z
x,-y,1/2-z
-x,y,1/2-z
-x,-y,-z
x,y,-z
-x,y,1/2+z
x,-y,1/2+z
1/2+x,1/2+y,1/2+z
1/2-x,1/2-y,1/2+z
1/2+x,1/2-y,-z
1/2-x,1/2+y,-z
1/2-x,1/2-y,1/2-z
1/2+x,1/2+y,1/2-z
1/2-x,1/2+y,z
1/2+x,1/2-y,z
loop_
_atom_site_type_symbol
_atom_site_label
_atom_site_fract_x
_atom_site_fract_y
_atom_site_fract_z
Si Si1 0.876557 0.552817 0.000000
Si Si2 0.840918 0.581942 0.500000
Si Si3 0.978970 0.741810 0.656920
Si Si4 0.866839 0.181152 0.602691
Si Si5 0.790305 0.221629 0.897514
Si Si6 0.278077 0.560727 0.157577
Si Si7 0.249434 0.921622 0.846465
Si Si8 0.991992 0.340854 0.000000
O O1 0.897294 0.480029 0.000000
O O2 0.821957 0.567298 0.084012
O O3 0.955299 0.597003 0.000000
O O4 0.785074 0.576919 0.417657
O O5 0.892980 0.644823 0.500000
O O6 0.879384 0.754312 0.641632
O O7 0.000000 0.717976 0.750000
O O8 0.041899 0.799596 0.639263
O O9 0.011389 0.695492 0.584580
O O10 0.869347 0.176667 0.500000
O O11 0.790888 0.232470 0.622688
O O12 0.847578 0.114178 0.645141
O O13 0.780903 0.149291 0.865691
O O14 0.796452 0.219782 0.000000
O O15 0.231514 0.573138 0.246779
O O16 0.304939 0.487437 0.145839
#
# Coordination Sequence:
#
# PCOD9527768 Si02
#       8
#     8   8  16  16  16  16  16   8
#     4  10  21  37  58  84 119 158 200 252 305 357
#     4  10  21  37  58  84 119 158 200 252 305 357
#     4  12  26  41  60  90 127 161 202 259 308 361
#     4  11  22  40  65  91 123 163 207 256 309 364
#     4  11  22  40  65  91 123 163 207 256 309 364
#     4  10  21  38  62  90 119 157 204 249 303 370
#     4  10  21  38  62  90 119 157 204 249 303 370
#     4  12  23  38  56  84 119 158 208 250 300 372
#
# _framework density 19.557876
#
# number of rings (size 3 to 8) (size 9 to 14) (size 15 to 20)
#    0.000    1.231    3.077    3.000    0.000    6.154 
#    0.000    0.769    0.000    9.231    0.000    0.000 
#    0.000    0.000    0.000    0.000    0.000    0.000 
#
# Total GULP energy -289704.949745 kJ/mol
# GULP energy per Si atom -5571.249034 kJ/mol
# Density = 1.951336 g / cm^3
# Si number density = 19.557876 Si / 1000 Ang^3
#
#
#
# Elastic Constant Matrix: (Units=GPa)
#
#
# Indices 1 2 3 4 5 6 
#
# 1 39.7515 0.8272 3.9470 0.0000 0.0000 0.0000
# 2 0.8272 67.2309 6.4762 0.0000 0.0001 0.0000
# 3 3.9470 6.4762 127.3061 0.0000 0.0000 0.0000
# 4 0.0000 0.0000 0.0000 63.1404 0.0003 0.0000
# 5 0.0000 0.0001 0.0000 0.0003 -172.3257 0.0000
# 6 0.0000 0.0000 0.0000 0.0000 0.0000 33.0049
#
#
#
# Elastic Compliance Matrix: (Units=1/GPa)
#
#
# Indices 1 2 3 4 5 6 
#
# 1 0.025238 -0.000236 -0.000770 0.000000 0.000000 0.000000
# 2 -0.000236 0.014950 -0.000753 0.000000 0.000000 0.000000
# 3 -0.000770 -0.000753 0.007917 0.000000 0.000000 0.000000
# 4 0.000000 0.000000 0.000000 0.015838 0.000000 0.000000
# 5 0.000000 0.000000 0.000000 0.000000 -0.005803 0.000000
# 6 0.000000 0.000000 0.000000 0.000000 0.000000 0.030298
#
#
# Mechanical properties :
#
#
# Convention : Reuss Voigt Hill
#
# Bulk Modulus (GPa) = 22.42921 28.53213 25.48067
# Shear Modulus (GPa) = 46.80807 -0.36685 23.22061
#
# Velocity S-wave (km/s) = 4.89745 -0.43356 3.44943
# Velocity P-wave (km/s) = 6.59341 3.79073 5.37786
#
# Compressibility (1/GPa) = 0.04458472
#
# Stress axis : x y z
#
# Youngs Moduli (GPa) = 39.62328 66.89152 126.30597
#
# Poissons Ratio (x) = 0.01581 0.09731
# Poissons Ratio (y) = 0.00936 0.09513
# Poissons Ratio (z) = 0.03053 0.05038
#
# Static dielectric constant tensor:
#      x y z
#    x 1.694900 0.000000 0.000000 
#    y 0.000000 1.752910 0.000000 
#    z 0.000000 0.000000 1.417750 
# 
# From -- ./inp_files/23400.got.cif
#   From: 2010.05.17/outbox.cif.g08.bks.cpg/sg72_12_cif.got.tgz:23400.got - 2010.06.03 17:03:01.
