data_PCOD9527349
_publ_section_title
;
Structure prediction by ZEFSAII (Michael W. Deem and Ramdas Pophale) SiO2 
 PCOD9527349
Probable space group: I B A M
;
_chemical_formula_sum "Si O2"
_cell_formula_units_Z 64
_cell_length_a 10.474330
_cell_length_b 18.369249
_cell_length_c 14.184020
_cell_angle_alpha 90.000000
_cell_angle_beta 90.000000
_cell_angle_gamma 90.000000
_cell_volume 2729.084536
_symmetry_space_group_name_H-M "I B A M"
_symmetry_group_IT_number 72
_symmetry_cell_setting 'orthorhombic'
loop_
_space_group_symop_operation_xyz
x,y,z
-x,-y,z
x,-y,1/2-z
-x,y,1/2-z
-x,-y,-z
x,y,-z
-x,y,1/2+z
x,-y,1/2+z
1/2+x,1/2+y,1/2+z
1/2-x,1/2-y,1/2+z
1/2+x,1/2-y,-z
1/2-x,1/2+y,-z
1/2-x,1/2-y,1/2-z
1/2+x,1/2+y,1/2-z
1/2-x,1/2+y,z
1/2+x,1/2-y,z
loop_
_atom_site_type_symbol
_atom_site_label
_atom_site_fract_x
_atom_site_fract_y
_atom_site_fract_z
Si Si1 0.633259 0.539297 0.384821
Si Si2 0.007767 0.696550 0.363363
Si Si3 0.778722 0.801141 0.156954
Si Si4 0.380586 0.040962 0.392266
O O1 0.500000 0.500000 0.361951
O O2 0.631052 0.552604 0.500000
O O3 0.673716 0.615310 0.334943
O O4 0.743381 0.481951 0.357012
O O5 0.099569 0.762512 0.390511
O O6 0.083296 0.624594 0.391364
O O7 0.000000 0.694520 0.250000
O O8 0.859750 0.697696 0.393470
O O9 0.750000 0.750000 0.250000
O O10 0.375169 0.014952 0.500000
O O11 0.500000 0.000000 0.347473
#
# Coordination Sequence:
#
# PCOD9527349 Si02
#       4
#    16  16  16  16
#     4  10  22  41  66  96 130 165 213 273 331 389
#     4  10  22  39  61  85 127 164 214 256 315 385
#     4  10  22  41  61  89 130 168 211 267 317 391
#     4  10  20  38  63  90 119 158 208 262 319 382
#
# _framework density 23.451087999999999
#
# number of rings (size 3 to 8) (size 9 to 14) (size 15 to 20)
#    0.000    2.000    2.500    0.000    3.500    1.500 
#    0.000    0.000    0.000    0.000    0.000    0.000 
#    0.000    0.000    0.000    0.000    0.000    0.000 
#
# Total GULP energy -178456.191565 kJ/mol
# GULP energy per Si atom -5576.755986 kJ/mol
# Density = 2.339771 g / cm^3
# Si number density = 23.451088 Si / 1000 Ang^3
#
#
#
# Elastic Constant Matrix: (Units=GPa)
#
#
# Indices 1 2 3 4 5 6 
#
# 1 286.0727 127.3370 13.0061 0.0000 0.0000 0.0000
# 2 127.3370 155.5164 2.6551 0.0000 0.0000 0.0000
# 3 13.0061 2.6551 119.1653 0.0000 0.0000 0.0000
# 4 0.0000 0.0000 0.0000 14.5051 0.0000 0.0000
# 5 0.0000 0.0000 0.0000 0.0000 108.7410 0.0000
# 6 0.0000 0.0000 0.0000 0.0000 0.0000 57.4591
#
#
#
# Elastic Compliance Matrix: (Units=1/GPa)
#
#
# Indices 1 2 3 4 5 6 
#
# 1 0.005530 -0.004520 -0.000503 0.000000 0.000000 0.000000
# 2 -0.004520 0.010126 0.000268 0.000000 0.000000 0.000000
# 3 -0.000503 0.000268 0.008441 0.000000 0.000000 0.000000
# 4 0.000000 0.000000 0.000000 0.068941 0.000000 0.000000
# 5 0.000000 0.000000 0.000000 0.000000 0.009196 0.000000
# 6 0.000000 0.000000 0.000000 0.000000 0.000000 0.017404
#
#
# Mechanical properties :
#
#
# Convention : Reuss Voigt Hill
#
# Bulk Modulus (GPa) = 68.55181 94.08342 81.31761
# Shear Modulus (GPa) = 37.31060 63.99146 50.65103
#
# Velocity S-wave (km/s) = 3.99306 5.22938 4.65247
# Velocity P-wave (km/s) = 7.11018 8.75603 7.97567
#
# Compressibility (1/GPa) = 0.01458751
#
# Stress axis : x y z
#
# Youngs Moduli (GPa) = 180.82395 98.75314 118.47460
#
# Poissons Ratio (x) = 0.44632 0.05958
# Poissons Ratio (y) = 0.81725 -0.03171
# Poissons Ratio (z) = 0.09093 -0.02643
#
# Static dielectric constant tensor:
#      x y z
#    x 1.905300 0.000000 0.000000 
#    y 0.000000 1.888240 0.000000 
#    z 0.000000 0.000000 1.988800 
# 
# From -- ./inp_files/19731.got.cif
#   From: 2010.05.17/outbox.cif.g08.bks.cpg/sg72_10_cif.got.tgz:19731.got - 2010.06.03 17:03:01.
