data_PCOD9527972
_publ_section_title
;
Structure prediction by ZEFSAII (Michael W. Deem and Ramdas Pophale) SiO2 
 PCOD9527972
Probable space group: I B A M
;
_chemical_formula_sum "Si O2"
_cell_formula_units_Z 56
_cell_length_a 29.651701
_cell_length_b 14.633380
_cell_length_c 5.586672
_cell_angle_alpha 90.000000
_cell_angle_beta 90.000000
_cell_angle_gamma 90.000000
_cell_volume 2424.082726
_symmetry_space_group_name_H-M "I B A M"
_symmetry_group_IT_number 72
_symmetry_cell_setting 'orthorhombic'
loop_
_space_group_symop_operation_xyz
x,y,z
-x,-y,z
x,-y,1/2-z
-x,y,1/2-z
-x,-y,-z
x,y,-z
-x,y,1/2+z
x,-y,1/2+z
1/2+x,1/2+y,1/2+z
1/2-x,1/2-y,1/2+z
1/2+x,1/2-y,-z
1/2-x,1/2+y,-z
1/2-x,1/2-y,1/2-z
1/2+x,1/2+y,1/2-z
1/2-x,1/2+y,z
1/2+x,1/2-y,z
loop_
_atom_site_type_symbol
_atom_site_label
_atom_site_fract_x
_atom_site_fract_y
_atom_site_fract_z
Si Si1 0.276646 0.238033 0.500000
Si Si2 0.291949 0.974290 0.000000
Si Si3 0.903819 0.202529 0.000000
Si Si4 0.393493 0.953765 0.500000
Si Si5 0.475107 0.179605 0.000000
Si Si6 0.425423 0.501052 0.500000
Si Si7 0.131460 0.184211 0.000000
O O1 0.250000 0.250000 0.750000
O O2 0.315203 0.314342 0.500000
O O3 0.298396 0.135463 0.500000
O O4 0.338759 0.035016 0.000000
O O5 0.268696 0.000000 0.750000
O O6 0.958095 0.216001 0.000000
O O7 0.883446 0.233689 0.254269
O O8 0.895904 0.093354 0.000000
O O9 0.425505 0.865776 0.500000
O O10 0.406874 0.000000 0.750000
O O11 0.500000 0.157962 0.750000
O O12 0.450657 0.500000 0.250000
O O13 0.393368 0.412440 0.500000
#
# Coordination Sequence:
#
# PCOD9527972 Si02
#       7
#     8   8   8   8   8   8   8
#     4  12  26  44  68 106 141 174 217 290 364 410
#     4  10  23  43  68  97 135 185 239 269 330 423
#     4  10  21  38  67  93 126 173 227 267 329 407
#     4  10  23  40  66  92 126 181 228 266 324 406
#     4  12  26  41  63 101 143 171 219 295 349 380
#     4   8  16  34  57  92 115 155 215 276 301 381
#     4  10  21  38  69  91 126 170 230 273 318 413
#
# _framework density 23.101524000000001
#
# number of rings (size 3 to 8) (size 9 to 14) (size 15 to 20)
#    0.000    1.714    0.000    3.429    8.000    1.714 
#    0.000   12.857    0.000   23.143    0.000    0.000 
#    0.000    0.000    0.000    0.000    0.000    0.000 
#
# Total GULP energy -155870.804385 kJ/mol
# GULP energy per Si atom -5566.814442 kJ/mol
# Density = 2.304894 g / cm^3
# Si number density = 23.101524 Si / 1000 Ang^3
#
#
#
# Elastic Constant Matrix: (Units=GPa)
#
#
# Indices 1 2 3 4 5 6 
#
# 1 70.9115 18.8637 48.0806 0.0000 0.0000 0.0000
# 2 18.8637 37.3415 18.0477 0.0000 0.0000 0.0000
# 3 48.0806 18.0477 287.9869 -0.0001 -0.0008 0.0001
# 4 0.0000 0.0000 -0.0001 20.2016 -0.0001 0.0000
# 5 0.0000 0.0000 -0.0008 -0.0001 45.4626 0.0001
# 6 0.0000 0.0000 0.0001 0.0000 0.0001 -19.7332
#
#
#
# Elastic Compliance Matrix: (Units=1/GPa)
#
#
# Indices 1 2 3 4 5 6 
#
# 1 0.017874 -0.007824 -0.002494 0.000000 0.000000 0.000000
# 2 -0.007824 0.031041 -0.000639 0.000000 0.000000 0.000000
# 3 -0.002494 -0.000639 0.003929 0.000000 0.000000 0.000000
# 4 0.000000 0.000000 0.000000 0.049501 0.000000 0.000000
# 5 0.000000 0.000000 0.000000 0.000000 0.021996 0.000000
# 6 0.000000 0.000000 0.000000 0.000000 0.000000 -0.050676
#
#
# Mechanical properties :
#
#
# Convention : Reuss Voigt Hill
#
# Bulk Modulus (GPa) = 32.33089 62.91377 47.62233
# Shear Modulus (GPa) = 47.21890 29.93607 38.57748
#
# Velocity S-wave (km/s) = 4.52594 3.60369 4.09089
# Velocity P-wave (km/s) = 6.42944 6.67894 6.55537
#
# Compressibility (1/GPa) = 0.03093017
#
# Stress axis : x y z
#
# Youngs Moduli (GPa) = 55.94584 32.21519 254.53132
#
# Poissons Ratio (x) = 0.25206 0.63477
# Poissons Ratio (y) = 0.43773 0.16265
# Poissons Ratio (z) = 0.13952 0.02059
#
# Static dielectric constant tensor:
#      x y z
#    x 1.840080 0.000000 0.000000 
#    y 0.000000 2.324370 0.000000 
#    z 0.000000 0.000000 1.895820 
# 
# From -- ./inp_files/991.got.cif
#   From: 2010.05.17/outbox.cif.g08.bks.cpg/sg72_1_cif.got.tgz:991.got - 2010.06.03 17:03:01.
