data_PCOD9527474
_publ_section_title
;
Structure prediction by ZEFSAII (Michael W. Deem and Ramdas Pophale) SiO2 
 PCOD9527474
Probable space group: I B A M
;
_chemical_formula_sum "Si O2"
_cell_formula_units_Z 88
_cell_length_a 19.317008
_cell_length_b 8.816339
_cell_length_c 22.979445
_cell_angle_alpha 90.000000
_cell_angle_beta 90.000000
_cell_angle_gamma 90.000000
_cell_volume 3913.521068
_symmetry_space_group_name_H-M "I B A M"
_symmetry_group_IT_number 72
_symmetry_cell_setting 'orthorhombic'
loop_
_space_group_symop_operation_xyz
x,y,z
-x,-y,z
x,-y,1/2-z
-x,y,1/2-z
-x,-y,-z
x,y,-z
-x,y,1/2+z
x,-y,1/2+z
1/2+x,1/2+y,1/2+z
1/2-x,1/2-y,1/2+z
1/2+x,1/2-y,-z
1/2-x,1/2+y,-z
1/2-x,1/2-y,1/2-z
1/2+x,1/2+y,1/2-z
1/2-x,1/2+y,z
1/2+x,1/2-y,z
loop_
_atom_site_type_symbol
_atom_site_label
_atom_site_fract_x
_atom_site_fract_y
_atom_site_fract_z
Si Si1 0.393032 0.682604 0.587087
Si Si2 0.254030 0.647791 0.068644
Si Si3 0.125489 0.840919 0.783945
Si Si4 0.998300 0.676330 0.500000
Si Si5 0.271080 0.882947 0.151890
Si Si6 0.580123 0.560246 0.500000
Si Si7 0.133721 0.500000 0.750000
O O1 0.323401 0.778961 0.575647
O O2 0.410656 0.657232 0.653645
O O3 0.454776 0.769793 0.555562
O O4 0.387230 0.520278 0.555384
O O5 0.298047 0.733343 0.119279
O O6 0.247581 0.481978 0.095464
O O7 0.272277 0.655955 0.000000
O O8 0.207070 0.843583 0.804766
O O9 0.105777 0.676132 0.755938
O O10 0.113788 0.000000 0.750000
O O11 0.000000 0.500000 0.500000
O O12 0.071770 0.761039 0.500000
O O13 0.322720 0.979144 0.190991
O O14 0.500000 0.500000 0.500000
#
# Coordination Sequence:
#
# PCOD9527474 Si02
#       7
#    16  16  16   8  16   8   8
#     4   9  18  37  59  84 118 143 192 248 285 355
#     4  11  20  34  52  78 120 158 201 250 294 333
#     4  11  22  36  58  84 117 166 208 246 289 329
#     4  10  20  40  70  94 109 144 182 236 317 385
#     4  11  20  33  53  76 115 171 207 238 281 333
#     4   8  16  36  66  82 107 144 172 222 307 369
#     4  12  20  38  56  80 121 164 225 252 264 332
#
# _framework density 22.486143999999999
#
# number of rings (size 3 to 8) (size 9 to 14) (size 15 to 20)
#    0.000    1.818    6.364    2.182    0.000    0.000 
#    3.273    1.818    0.000    4.909    0.000    0.000 
#    0.000    0.000    0.000    0.000    0.000    0.000 
#
# Total GULP energy -245092.242766 kJ/mol
# GULP energy per Si atom -5570.278245 kJ/mol
# Density = 2.243496 g / cm^3
# Si number density = 22.486144 Si / 1000 Ang^3
#
#
#
# Elastic Constant Matrix: (Units=GPa)
#
#
# Indices 1 2 3 4 5 6 
#
# 1 29.5635 12.5471 16.3859 0.0000 0.0000 0.0000
# 2 12.5471 171.4334 47.6302 0.0000 0.0000 0.0000
# 3 16.3859 47.6302 144.2345 0.0000 0.0000 0.0000
# 4 0.0000 0.0000 0.0000 40.1787 0.0000 0.0000
# 5 0.0000 0.0000 0.0000 0.0000 10.7713 0.0000
# 6 0.0000 0.0000 0.0000 0.0000 0.0000 14.8303
#
#
#
# Elastic Compliance Matrix: (Units=1/GPa)
#
#
# Indices 1 2 3 4 5 6 
#
# 1 0.036530 -0.001674 -0.003597 0.000000 0.000000 0.000000
# 2 -0.001674 0.006499 -0.001956 0.000000 0.000000 0.000000
# 3 -0.003597 -0.001956 0.007988 0.000000 0.000000 0.000000
# 4 0.000000 0.000000 0.000000 0.024889 0.000000 0.000000
# 5 0.000000 0.000000 0.000000 0.000000 0.092840 0.000000
# 6 0.000000 0.000000 0.000000 0.000000 0.000000 0.067430
#
#
# Mechanical properties :
#
#
# Convention : Reuss Voigt Hill
#
# Bulk Modulus (GPa) = 27.35078 55.37308 41.36193
# Shear Modulus (GPa) = 19.02467 31.06727 25.04597
#
# Velocity S-wave (km/s) = 2.91187 3.72105 3.34105
# Velocity P-wave (km/s) = 4.84718 6.56814 5.77216
#
# Compressibility (1/GPa) = 0.03656202
#
# Stress axis : x y z
#
# Youngs Moduli (GPa) = 27.37492 153.86643 125.19188
#
# Poissons Ratio (x) = 0.25760 0.45033
# Poissons Ratio (y) = 0.04583 0.24488
# Poissons Ratio (z) = 0.09847 0.30096
#
# Static dielectric constant tensor:
#      x y z
#    x 1.915670 0.000000 0.000000 
#    y 0.000000 1.969390 0.000000 
#    z 0.000000 0.000000 1.817260 
# 
# From -- ./inp_files/45304.got.cif
#   From: 2010.05.17/outbox.cif.g08.bks.cpg/sg72_23_cif.got.tgz:45304.got - 2010.06.03 17:03:01.
