data_PCOD9527079
_publ_section_title
;
Structure prediction by ZEFSAII (Michael W. Deem and Ramdas Pophale) SiO2 
 PCOD9527079
Probable space group: I B A M
;
_chemical_formula_sum "Si O2"
_cell_formula_units_Z 96
_cell_length_a 22.133441
_cell_length_b 13.049942
_cell_length_c 18.644705
_cell_angle_alpha 90.000000
_cell_angle_beta 90.000000
_cell_angle_gamma 90.000000
_cell_volume 5385.338854
_symmetry_space_group_name_H-M "I B A M"
_symmetry_group_IT_number 72
_symmetry_cell_setting 'orthorhombic'
loop_
_space_group_symop_operation_xyz
x,y,z
-x,-y,z
x,-y,1/2-z
-x,y,1/2-z
-x,-y,-z
x,y,-z
-x,y,1/2+z
x,-y,1/2+z
1/2+x,1/2+y,1/2+z
1/2-x,1/2-y,1/2+z
1/2+x,1/2-y,-z
1/2-x,1/2+y,-z
1/2-x,1/2-y,1/2-z
1/2+x,1/2+y,1/2-z
1/2-x,1/2+y,z
1/2+x,1/2-y,z
loop_
_atom_site_type_symbol
_atom_site_label
_atom_site_fract_x
_atom_site_fract_y
_atom_site_fract_z
Si Si1 0.448704 0.799061 0.802979
Si Si2 0.726269 0.692052 0.820828
Si Si3 0.336597 0.948554 0.826568
Si Si4 0.155673 0.349430 0.582509
Si Si5 0.403419 0.605459 0.709691
Si Si6 0.036396 0.209412 0.416562
O O1 0.500000 0.844406 0.750000
O O2 0.395190 0.877912 0.816225
O O3 0.424221 0.700469 0.759366
O O4 0.479693 0.760019 0.876041
O O5 0.750000 0.750000 0.750000
O O6 0.780556 0.622266 0.848982
O O7 0.702876 0.778372 0.875231
O O8 0.667737 0.622523 0.803919
O O9 0.321453 0.000000 0.750000
O O10 0.348304 0.040654 0.880772
O O11 0.172933 0.358533 0.500000
O O12 0.091284 0.291521 0.586678
O O13 0.415480 0.500000 0.750000
O O14 0.439666 0.618059 0.634887
O O15 0.026019 0.183387 0.500000
#
# Coordination Sequence:
#
# PCOD9527079 Si02
#       6
#    16  16  16  16  16  16
#     4  10  21  35  54  85 117 146 192 239 280 324
#     4  11  20  37  61  84 113 150 190 237 281 342
#     4  12  21  34  61  87 116 148 195 236 284 338
#     4  10  23  40  57  84 117 152 188 232 290 344
#     4  10  20  36  60  85 112 147 191 238 284 333
#     4   9  20  40  59  79 115 155 189 230 286 343
#
# _framework density 17.826176
#
# number of rings (size 3 to 8) (size 9 to 14) (size 15 to 20)
#    0.000    1.667    3.333    2.500    0.000    6.667 
#    0.000    3.333    0.000    0.000    0.000    0.000 
#    0.000    0.000    0.000    0.000    0.000    0.000 
#
# Total GULP energy -268061.097250 kJ/mol
# GULP energy per Si atom -5584.606193 kJ/mol
# Density = 1.778560 g / cm^3
# Si number density = 17.826176 Si / 1000 Ang^3
#
#
#
# Elastic Constant Matrix: (Units=GPa)
#
#
# Indices 1 2 3 4 5 6 
#
# 1 101.7899 40.3073 34.7430 0.0000 0.0000 0.0000
# 2 40.3073 103.3908 55.2787 0.0000 0.0000 0.0000
# 3 34.7430 55.2787 135.3322 0.0000 0.0000 0.0000
# 4 0.0000 0.0000 0.0000 23.5003 0.0000 0.0000
# 5 0.0000 0.0000 0.0000 0.0000 23.2305 0.0000
# 6 0.0000 0.0000 0.0000 0.0000 0.0000 4.9531
#
#
#
# Elastic Compliance Matrix: (Units=1/GPa)
#
#
# Indices 1 2 3 4 5 6 
#
# 1 0.011844 -0.003828 -0.001477 0.000000 0.000000 0.000000
# 2 -0.003828 0.013612 -0.004577 0.000000 0.000000 0.000000
# 3 -0.001477 -0.004577 0.009638 0.000000 0.000000 0.000000
# 4 0.000000 0.000000 0.000000 0.042553 0.000000 0.000000
# 5 0.000000 0.000000 0.000000 0.000000 0.043047 0.000000
# 6 0.000000 0.000000 0.000000 0.000000 0.000000 0.201892
#
#
# Mechanical properties :
#
#
# Convention : Reuss Voigt Hill
#
# Bulk Modulus (GPa) = 65.23343 66.79678 66.01510
# Shear Modulus (GPa) = 14.39016 24.34904 19.36960
#
# Velocity S-wave (km/s) = 2.84430 3.69984 3.29991
# Velocity P-wave (km/s) = 6.88914 7.47022 7.18556
#
# Compressibility (1/GPa) = 0.01532956
#
# Stress axis : x y z
#
# Youngs Moduli (GPa) = 84.43063 73.46726 103.75504
#
# Poissons Ratio (x) = 0.28121 0.15326
# Poissons Ratio (y) = 0.32317 0.47491
# Poissons Ratio (z) = 0.12472 0.33627
#
# Static dielectric constant tensor:
#      x y z
#    x 1.617130 0.000000 0.000000 
#    y 0.000000 1.258730 0.000000 
#    z 0.000000 0.000000 1.603540 
# 
# From -- ./inp_files/33257.got.cif
#   From: 2010.05.17/outbox.cif.g08.bks.cpg/sg72_17_cif.got.tgz:33257.got - 2010.06.03 17:03:01.
