data_PCOD9527590
_publ_section_title
;
Structure prediction by ZEFSAII (Michael W. Deem and Ramdas Pophale) SiO2 
 PCOD9527590
Probable space group: I B A M
;
_chemical_formula_sum "Si O2"
_cell_formula_units_Z 64
_cell_length_a 10.502294
_cell_length_b 19.851057
_cell_length_c 14.346119
_cell_angle_alpha 90.000000
_cell_angle_beta 90.000000
_cell_angle_gamma 90.000000
_cell_volume 2990.902371
_symmetry_space_group_name_H-M "I B A M"
_symmetry_group_IT_number 72
_symmetry_cell_setting 'orthorhombic'
loop_
_space_group_symop_operation_xyz
x,y,z
-x,-y,z
x,-y,1/2-z
-x,y,1/2-z
-x,-y,-z
x,y,-z
-x,y,1/2+z
x,-y,1/2+z
1/2+x,1/2+y,1/2+z
1/2-x,1/2-y,1/2+z
1/2+x,1/2-y,-z
1/2-x,1/2+y,-z
1/2-x,1/2-y,1/2-z
1/2+x,1/2+y,1/2-z
1/2-x,1/2+y,z
1/2+x,1/2-y,z
loop_
_atom_site_type_symbol
_atom_site_label
_atom_site_fract_x
_atom_site_fract_y
_atom_site_fract_z
Si Si1 0.086569 0.310539 0.113474
Si Si2 0.092033 0.942959 0.107074
Si Si3 0.870470 0.792539 0.386291
Si Si4 0.120979 0.463768 0.849484
O O1 0.223631 0.278618 0.137600
O O2 0.086445 0.385136 0.155045
O O3 0.969665 0.264119 0.142564
O O4 0.082800 0.318242 0.000000
O O5 0.093046 0.867571 0.148578
O O6 0.238766 0.966955 0.106802
O O7 0.049537 0.934011 0.000000
O O8 0.000000 0.000000 0.147664
O O9 0.874663 0.794914 0.500000
O O10 0.134131 0.500000 0.750000
O O11 0.000000 0.500000 0.896062
#
# Coordination Sequence:
#
# PCOD9527590 Si02
#       4
#    16  16  16  16
#     4   9  17  31  53  80 107 135 172 220 271 320
#     4   9  18  33  55  82 107 134 176 227 276 325
#     4   8  15  28  48  77 106 129 162 213 270 322
#     4  10  21  35  51  72 107 148 183 218 259 314
#
# _framework density 21.398225
#
# number of rings (size 3 to 8) (size 9 to 14) (size 15 to 20)
#    0.000    3.000    0.000    2.250    0.000    4.500 
#    0.000    5.000    0.000   37.500    0.000    0.000 
#    0.000    0.000    0.000    0.000    0.000    0.000 
#
# Total GULP energy -178486.759657 kJ/mol
# GULP energy per Si atom -5577.711239 kJ/mol
# Density = 2.134952 g / cm^3
# Si number density = 21.398225 Si / 1000 Ang^3
#
#
#
# Elastic Constant Matrix: (Units=GPa)
#
#
# Indices 1 2 3 4 5 6 
#
# 1 173.7160 115.4683 0.3083 0.0000 0.0000 0.0000
# 2 115.4683 130.9440 9.0891 0.0000 0.0000 0.0000
# 3 0.3083 9.0891 64.0743 0.0000 0.0000 0.0000
# 4 0.0000 0.0000 0.0000 23.7276 0.0000 0.0000
# 5 0.0000 0.0000 0.0000 0.0000 12.4266 0.0000
# 6 0.0000 0.0000 0.0000 0.0000 0.0000 50.2714
#
#
#
# Elastic Compliance Matrix: (Units=1/GPa)
#
#
# Indices 1 2 3 4 5 6 
#
# 1 0.014093 -0.012546 0.001712 0.000000 0.000000 0.000000
# 2 -0.012546 0.018882 -0.002618 0.000000 0.000000 0.000000
# 3 0.001712 -0.002618 0.015970 0.000000 0.000000 0.000000
# 4 0.000000 0.000000 0.000000 0.042145 0.000000 0.000000
# 5 0.000000 0.000000 0.000000 0.000000 0.080473 0.000000
# 6 0.000000 0.000000 0.000000 0.000000 0.000000 0.019892
#
#
# Mechanical properties :
#
#
# Convention : Reuss Voigt Hill
#
# Bulk Modulus (GPa) = 45.37168 68.71842 57.04505
# Shear Modulus (GPa) = 22.15272 33.54300 27.84786
#
# Velocity S-wave (km/s) = 3.22104 3.96354 3.61142
# Velocity P-wave (km/s) = 5.92309 7.28903 6.64127
#
# Compressibility (1/GPa) = 0.02204018
#
# Stress axis : x y z
#
# Youngs Moduli (GPa) = 70.95819 52.96079 62.61732
#
# Poissons Ratio (x) = 0.66445 -0.10719
# Poissons Ratio (y) = 0.89025 0.16394
# Poissons Ratio (z) = -0.12147 0.13866
#
# Static dielectric constant tensor:
#      x y z
#    x 1.763620 0.000000 0.000000 
#    y 0.000000 1.750500 0.000000 
#    z 0.000000 0.000000 1.832610 
# 
# From -- ./inp_files/19677.got.cif
#   From: 2010.05.17/outbox.cif.g08.bks.cpg/sg72_10_cif.got.tgz:19677.got - 2010.06.03 17:03:01.
