data_PCOD9527098
_publ_section_title
;
Structure prediction by ZEFSAII (Michael W. Deem and Ramdas Pophale) SiO2 
 PCOD9527098
Probable space group: I B A M
;
_chemical_formula_sum "Si O2"
_cell_formula_units_Z 96
_cell_length_a 11.662141
_cell_length_b 21.927080
_cell_length_c 19.172791
_cell_angle_alpha 90.000000
_cell_angle_beta 90.000000
_cell_angle_gamma 90.000000
_cell_volume 4902.802819
_symmetry_space_group_name_H-M "I B A M"
_symmetry_group_IT_number 72
_symmetry_cell_setting 'orthorhombic'
loop_
_space_group_symop_operation_xyz
x,y,z
-x,-y,z
x,-y,1/2-z
-x,y,1/2-z
-x,-y,-z
x,y,-z
-x,y,1/2+z
x,-y,1/2+z
1/2+x,1/2+y,1/2+z
1/2-x,1/2-y,1/2+z
1/2+x,1/2-y,-z
1/2-x,1/2+y,-z
1/2-x,1/2-y,1/2-z
1/2+x,1/2+y,1/2-z
1/2-x,1/2+y,z
1/2+x,1/2-y,z
loop_
_atom_site_type_symbol
_atom_site_label
_atom_site_fract_x
_atom_site_fract_y
_atom_site_fract_z
Si Si1 0.432084 0.562552 0.578502
Si Si2 0.079656 0.228746 0.686071
Si Si3 0.491187 0.929446 0.834894
Si Si4 0.698168 0.147567 0.327767
Si Si5 0.256645 0.383591 0.179381
Si Si6 0.911743 0.183626 0.580095
O O1 0.500000 0.500000 0.585721
O O2 0.381060 0.564606 0.500000
O O3 0.338989 0.570510 0.638578
O O4 0.519313 0.619472 0.583160
O O5 0.131939 0.294053 0.704259
O O6 0.183295 0.182387 0.669681
O O7 0.000000 0.206006 0.750000
O O8 0.994198 0.230531 0.620501
O O9 0.500000 0.928263 0.750000
O O10 0.600945 0.893351 0.862950
O O11 0.371064 0.895660 0.848978
O O12 0.500000 0.000000 0.856314
O O13 0.752132 0.110254 0.263249
O O14 0.794353 0.172975 0.378776
O O15 0.892916 0.200265 0.500000
#
# Coordination Sequence:
#
# PCOD9527098 Si02
#       6
#    16  16  16  16  16  16
#     4   9  20  39  62  86 121 163 200 250 307 356
#     4  11  21  37  64  89 115 156 201 252 306 368
#     4   9  20  36  54  85 123 159 194 242 297 354
#     4  11  22  36  63  85 121 159 197 252 308 366
#     4  10  20  36  60  89 116 152 207 250 295 365
#     4  10  23  40  58  88 121 154 200 252 306 365
#
# _framework density 19.580635999999998
#
# number of rings (size 3 to 8) (size 9 to 14) (size 15 to 20)
#    0.000    2.000    1.667    2.000    4.667    0.667 
#    0.000    1.667    0.000    1.000    0.000    0.000 
#    0.000    0.000    0.000    0.000    0.000    0.000 
#
# Total GULP energy -267797.436565 kJ/mol
# GULP energy per Si atom -5579.113262 kJ/mol
# Density = 1.953607 g / cm^3
# Si number density = 19.580636 Si / 1000 Ang^3
#
#
#
# Elastic Constant Matrix: (Units=GPa)
#
#
# Indices 1 2 3 4 5 6 
#
# 1 125.6240 30.7565 50.5523 0.0000 0.0000 0.0000
# 2 30.7565 62.2118 9.5855 0.0000 0.0000 0.0000
# 3 50.5523 9.5855 87.9512 0.0000 0.0000 0.0000
# 4 0.0000 0.0000 0.0000 14.7292 0.0000 0.0000
# 5 0.0000 0.0000 0.0000 0.0000 7.6143 0.0000
# 6 0.0000 0.0000 0.0000 0.0000 0.0000 17.8897
#
#
#
# Elastic Compliance Matrix: (Units=1/GPa)
#
#
# Indices 1 2 3 4 5 6 
#
# 1 0.011608 -0.004791 -0.006150 0.000000 0.000000 0.000000
# 2 -0.004791 0.018326 0.000757 0.000000 0.000000 0.000000
# 3 -0.006150 0.000757 0.014822 0.000000 0.000000 0.000000
# 4 0.000000 0.000000 0.000000 0.067892 0.000000 0.000000
# 5 0.000000 0.000000 0.000000 0.000000 0.131332 0.000000
# 6 0.000000 0.000000 0.000000 0.000000 0.000000 0.055898
#
#
# Mechanical properties :
#
#
# Convention : Reuss Voigt Hill
#
# Bulk Modulus (GPa) = 41.00452 50.84172 45.92312
# Shear Modulus (GPa) = 15.22639 20.37283 17.79961
#
# Velocity S-wave (km/s) = 2.79162 3.22911 3.01830
# Velocity P-wave (km/s) = 5.60158 6.31859 5.97086
#
# Compressibility (1/GPa) = 0.02438756
#
# Stress axis : x y z
#
# Youngs Moduli (GPa) = 86.14696 54.56642 67.46600
#
# Poissons Ratio (x) = 0.26144 0.41491
# Poissons Ratio (y) = 0.41275 -0.05105
# Poissons Ratio (z) = 0.52979 -0.04129
#
# Static dielectric constant tensor:
#      x y z
#    x 1.694850 0.000000 0.000000 
#    y 0.000000 1.676250 0.000000 
#    z 0.000000 0.000000 1.675080 
# 
# From -- ./inp_files/29463.got.cif
#   From: 2010.05.17/outbox.cif.g08.bks.cpg/sg72_15_cif.got.tgz:29463.got - 2010.06.03 17:03:01.
