data_PCOD9527384
_publ_section_title
;
Structure prediction by ZEFSAII (Michael W. Deem and Ramdas Pophale) SiO2 
 PCOD9527384
Probable space group: I B A M
;
_chemical_formula_sum "Si O2"
_cell_formula_units_Z 48
_cell_length_a 25.575361
_cell_length_b 5.354291
_cell_length_c 14.910628
_cell_angle_alpha 90.000000
_cell_angle_beta 90.000000
_cell_angle_gamma 90.000000
_cell_volume 2041.830462
_symmetry_space_group_name_H-M "I B A M"
_symmetry_group_IT_number 72
_symmetry_cell_setting 'orthorhombic'
loop_
_space_group_symop_operation_xyz
x,y,z
-x,-y,z
x,-y,1/2-z
-x,y,1/2-z
-x,-y,-z
x,y,-z
-x,y,1/2+z
x,-y,1/2+z
1/2+x,1/2+y,1/2+z
1/2-x,1/2-y,1/2+z
1/2+x,1/2-y,-z
1/2-x,1/2+y,-z
1/2-x,1/2-y,1/2-z
1/2+x,1/2+y,1/2-z
1/2-x,1/2+y,z
1/2+x,1/2-y,z
loop_
_atom_site_type_symbol
_atom_site_label
_atom_site_fract_x
_atom_site_fract_y
_atom_site_fract_z
Si Si1 0.477536 0.748808 0.853320
Si Si2 0.355255 0.335439 0.341068
Si Si3 0.284913 0.000000 0.250000
Si Si4 0.714573 0.474017 0.500000
O O1 0.500000 0.500000 0.895593
O O2 0.500000 0.749218 0.750000
O O3 0.415308 0.730566 0.857408
O O4 0.500000 0.000000 0.893961
O O5 0.354458 0.500000 0.250000
O O6 0.324317 0.926733 0.170596
O O7 0.323324 0.488489 0.414907
O O8 0.250000 0.250000 0.250000
O O9 0.745141 0.210828 0.500000
#
# Coordination Sequence:
#
# PCOD9527384 Si02
#       4
#    16  16   8   8
#     4  10  20  38  67 106 139 176 234 300 350 437
#     4  12  26  47  78 105 147 203 243 300 382 435
#     4  12  24  38  67  98 127 182 248 288 352 428
#     4  12  32  50  68 110 154 188 258 316 352 442
#
# _framework density 23.508317000000002
#
# number of rings (size 3 to 8) (size 9 to 14) (size 15 to 20)
#    0.000    0.667    5.000    4.000    4.667    0.000 
#    0.000    1.667    0.000    0.000    0.000    1.167 
#    0.000    0.000    0.000    0.000    0.000    0.000 
#
# Total GULP energy -134156.254199 kJ/mol
# GULP energy per Si atom -5589.843925 kJ/mol
# Density = 2.345481 g / cm^3
# Si number density = 23.508317 Si / 1000 Ang^3
#
#
#
# Elastic Constant Matrix: (Units=GPa)
#
#
# Indices 1 2 3 4 5 6 
#
# 1 260.4919 108.9133 44.1121 0.0000 0.0000 0.0000
# 2 108.9133 233.7589 34.3247 0.0000 0.0000 0.0000
# 3 44.1121 34.3247 106.8754 0.0000 0.0000 0.0000
# 4 0.0000 0.0000 0.0000 13.5580 0.0000 0.0000
# 5 0.0000 0.0000 0.0000 0.0000 19.3039 0.0000
# 6 0.0000 0.0000 0.0000 0.0000 0.0000 42.4155
#
#
#
# Elastic Compliance Matrix: (Units=1/GPa)
#
#
# Indices 1 2 3 4 5 6 
#
# 1 0.004951 -0.002106 -0.001367 0.000000 0.000000 0.000000
# 2 -0.002106 0.005385 -0.000860 0.000000 0.000000 0.000000
# 3 -0.001367 -0.000860 0.010197 0.000000 0.000000 0.000000
# 4 0.000000 0.000000 0.000000 0.073757 0.000000 0.000000
# 5 0.000000 0.000000 0.000000 0.000000 0.051803 0.000000
# 6 0.000000 0.000000 0.000000 0.000000 0.000000 0.023576
#
#
# Mechanical properties :
#
#
# Convention : Reuss Voigt Hill
#
# Bulk Modulus (GPa) = 84.26929 108.42516 96.34722
# Shear Modulus (GPa) = 27.42840 42.64053 35.03447
#
# Velocity S-wave (km/s) = 3.41948 4.26355 3.86463
# Velocity P-wave (km/s) = 7.17739 8.39401 7.80942
#
# Compressibility (1/GPa) = 0.01186672
#
# Stress axis : x y z
#
# Youngs Moduli (GPa) = 201.98220 185.68433 98.06539
#
# Poissons Ratio (x) = 0.39105 0.13406
# Poissons Ratio (y) = 0.42538 0.08437
# Poissons Ratio (z) = 0.27613 0.15976
#
# Static dielectric constant tensor:
#      x y z
#    x 1.973770 0.000000 0.000000 
#    y 0.000000 1.914290 0.000000 
#    z 0.000000 0.000000 1.958810 
# 
# From -- ./inp_files/25580.got.cif
#   From: 2010.05.17/outbox.cif.g08.bks.cpg/sg72_13_cif.got.tgz:25580.got - 2010.06.03 17:03:01.
