data_PCOD9527817
_publ_section_title
;
Structure prediction by ZEFSAII (Michael W. Deem and Ramdas Pophale) SiO2 
 PCOD9527817
Probable space group: I B A M
;
_chemical_formula_sum "Si O2"
_cell_formula_units_Z 104
_cell_length_a 27.958253
_cell_length_b 9.261286
_cell_length_c 21.512685
_cell_angle_alpha 90.000000
_cell_angle_beta 90.000000
_cell_angle_gamma 90.000000
_cell_volume 5570.266127
_symmetry_space_group_name_H-M "I B A M"
_symmetry_group_IT_number 72
_symmetry_cell_setting 'orthorhombic'
loop_
_space_group_symop_operation_xyz
x,y,z
-x,-y,z
x,-y,1/2-z
-x,y,1/2-z
-x,-y,-z
x,y,-z
-x,y,1/2+z
x,-y,1/2+z
1/2+x,1/2+y,1/2+z
1/2-x,1/2-y,1/2+z
1/2+x,1/2-y,-z
1/2-x,1/2+y,-z
1/2-x,1/2-y,1/2-z
1/2+x,1/2+y,1/2-z
1/2-x,1/2+y,z
1/2+x,1/2-y,z
loop_
_atom_site_type_symbol
_atom_site_label
_atom_site_fract_x
_atom_site_fract_y
_atom_site_fract_z
Si Si1 0.952189 0.419702 0.651288
Si Si2 0.196263 0.626430 0.159720
Si Si3 0.794712 0.961890 0.320352
Si Si4 0.533076 0.364450 0.928257
Si Si5 0.884946 0.632585 0.572450
Si Si6 0.630795 0.534190 0.071410
Si Si7 0.382003 0.000000 0.750000
O O1 0.967294 0.275739 0.614896
O O2 0.922485 0.530507 0.607391
O O3 0.916214 0.398493 0.708841
O O4 0.000000 0.500000 0.672148
O O5 0.210284 0.790878 0.171168
O O6 0.242906 0.532028 0.169969
O O7 0.169454 0.601120 0.094391
O O8 0.153529 0.590194 0.207062
O O9 0.810972 0.000000 0.250000
O O10 0.831171 0.005961 0.375418
O O11 0.500000 0.500000 0.908786
O O12 0.587064 0.423877 0.928158
O O13 0.519409 0.328155 0.000000
O O14 0.890920 0.609185 0.500000
O O15 0.889727 0.804530 0.585319
O O16 0.650163 0.539535 0.000000
#
# Coordination Sequence:
#
# PCOD9527817 Si02
#       7
#    16  16  16  16  16  16   8
#     4  11  22  36  60  84 114 153 193 236 294 344
#     4  10  22  37  56  83 110 151 188 238 290 335
#     4  11  22  35  60  84 112 149 197 235 286 345
#     4  10  21  37  61  90 120 152 191 240 293 350
#     4   9  19  37  58  82 115 151 193 235 285 348
#     4   9  20  38  57  84 120 153 188 241 293 339
#     4  10  23  40  58  76 116 150 195 240 286 344
#
# _framework density 18.670562
#
# number of rings (size 3 to 8) (size 9 to 14) (size 15 to 20)
#    0.000    2.000    0.769    2.077    2.154    4.308 
#    0.000    0.000    0.000    0.000    0.000    0.000 
#    0.000    0.000    0.000    0.000    0.000    0.000 
#
# Total GULP energy -290051.518542 kJ/mol
# GULP energy per Si atom -5577.913818 kJ/mol
# Density = 1.862807 g / cm^3
# Si number density = 18.670562 Si / 1000 Ang^3
#
#
#
# Elastic Constant Matrix: (Units=GPa)
#
#
# Indices 1 2 3 4 5 6 
#
# 1 99.8557 43.9890 39.7398 0.0000 0.0000 0.0000
# 2 43.9890 63.0967 19.0414 0.0000 0.0000 0.0000
# 3 39.7398 19.0414 53.3387 0.0000 0.0000 0.0000
# 4 0.0000 0.0000 0.0000 19.3186 0.0000 0.0000
# 5 0.0000 0.0000 0.0000 0.0000 85.6475 0.0000
# 6 0.0000 0.0000 0.0000 0.0000 0.0000 25.1054
#
#
#
# Elastic Compliance Matrix: (Units=1/GPa)
#
#
# Indices 1 2 3 4 5 6 
#
# 1 0.018358 -0.009718 -0.010208 0.000000 0.000000 0.000000
# 2 -0.009718 0.022907 -0.000937 0.000000 0.000000 0.000000
# 3 -0.010208 -0.000937 0.026688 0.000000 0.000000 0.000000
# 4 0.000000 0.000000 0.000000 0.051764 0.000000 0.000000
# 5 0.000000 0.000000 0.000000 0.000000 0.011676 0.000000
# 6 0.000000 0.000000 0.000000 0.000000 0.000000 0.039832
#
#
# Mechanical properties :
#
#
# Convention : Reuss Voigt Hill
#
# Bulk Modulus (GPa) = 38.12993 46.87017 42.50005
# Shear Modulus (GPa) = 22.55364 33.58235 28.06799
#
# Velocity S-wave (km/s) = 3.47937 4.24568 3.88148
# Velocity P-wave (km/s) = 6.05047 7.01375 6.54984
#
# Compressibility (1/GPa) = 0.02622612
#
# Stress axis : x y z
#
# Youngs Moduli (GPa) = 54.47164 43.65558 37.46943
#
# Poissons Ratio (x) = 0.42425 0.38251
# Poissons Ratio (y) = 0.52936 0.03511
# Poissons Ratio (z) = 0.55607 0.04091
#
# Static dielectric constant tensor:
#      x y z
#    x 1.633650 0.000000 0.000000 
#    y 0.000000 1.627030 0.000000 
#    z 0.000000 0.000000 1.705570 
# 
# From -- ./inp_files/40758.got.cif
#   From: 2010.05.17/outbox.cif.g08.bks.cpg/sg72_21_cif.got.tgz:40758.got - 2010.06.03 17:03:01.
