data_PCOD9527438
_publ_section_title
;
Structure prediction by ZEFSAII (Michael W. Deem and Ramdas Pophale) SiO2 
 PCOD9527438
Probable space group: I B A M
;
_chemical_formula_sum "Si O2"
_cell_formula_units_Z 64
_cell_length_a 7.302248
_cell_length_b 36.007056
_cell_length_c 10.926478
_cell_angle_alpha 90.000000
_cell_angle_beta 90.000000
_cell_angle_gamma 90.000000
_cell_volume 2872.925659
_symmetry_space_group_name_H-M "I B A M"
_symmetry_group_IT_number 72
_symmetry_cell_setting 'orthorhombic'
loop_
_space_group_symop_operation_xyz
x,y,z
-x,-y,z
x,-y,1/2-z
-x,y,1/2-z
-x,-y,-z
x,y,-z
-x,y,1/2+z
x,-y,1/2+z
1/2+x,1/2+y,1/2+z
1/2-x,1/2-y,1/2+z
1/2+x,1/2-y,-z
1/2-x,1/2+y,-z
1/2-x,1/2-y,1/2-z
1/2+x,1/2+y,1/2-z
1/2-x,1/2+y,z
1/2+x,1/2-y,z
loop_
_atom_site_type_symbol
_atom_site_label
_atom_site_fract_x
_atom_site_fract_y
_atom_site_fract_z
Si Si1 0.709077 0.176006 0.767751
Si Si2 0.210006 0.015987 0.629339
Si Si3 0.358118 0.397207 0.138847
Si Si4 0.739884 0.803380 0.000000
Si Si5 0.810028 0.282485 0.500000
O O1 0.500000 0.187748 0.750000
O O2 0.716132 0.134958 0.826034
O O3 0.791668 0.177852 0.630535
O O4 0.784102 0.202815 0.874934
O O5 0.290308 0.004080 0.500000
O O6 0.209568 0.060408 0.637559
O O7 0.297266 0.000000 0.750000
O O8 0.000000 0.000000 0.627709
O O9 0.500000 0.395096 0.250000
O O10 0.427570 0.390208 0.000000
O O11 0.517102 0.798926 0.000000
O O12 0.815779 0.761651 0.000000
#
# Coordination Sequence:
#
# PCOD9527438 Si02
#       5
#    16  16  16   8   8
#     4  10  22  40  57  82 118 157 192 229 293 350
#     4   9  16  30  50  78 112 146 183 228 289 337
#     4  11  22  35  57  87 119 151 191 245 288 338
#     4  10  22  36  62  84 108 151 189 237 287 346
#     4  10  20  40  60  82 112 149 191 237 289 344
#
# _framework density 22.276941999999998
#
# number of rings (size 3 to 8) (size 9 to 14) (size 15 to 20)
#    0.000    2.000    3.750    0.750    1.750    2.000 
#    0.000    0.000    0.000    0.750    0.000    3.500 
#    0.000    0.000    0.000    0.000    0.000    0.000 
#
# Total GULP energy -178391.847744 kJ/mol
# GULP energy per Si atom -5574.745242 kJ/mol
# Density = 2.222624 g / cm^3
# Si number density = 22.276942 Si / 1000 Ang^3
#
#
#
# Elastic Constant Matrix: (Units=GPa)
#
#
# Indices 1 2 3 4 5 6 
#
# 1 40.0682 -12.4642 21.1780 0.0000 0.0000 0.0000
# 2 -12.4642 109.8505 64.8907 -0.0001 0.0000 0.0000
# 3 21.1780 64.8907 287.0868 -0.0001 0.0000 0.0000
# 4 0.0000 -0.0001 -0.0001 44.7309 0.0000 0.0000
# 5 0.0000 0.0000 0.0000 0.0000 -1.1494 0.0000
# 6 0.0000 0.0000 0.0000 0.0000 0.0000 13.3707
#
#
#
# Elastic Compliance Matrix: (Units=1/GPa)
#
#
# Indices 1 2 3 4 5 6 
#
# 1 0.028265 0.005123 -0.003243 0.000000 0.000000 0.000000
# 2 0.005123 0.011435 -0.002962 0.000000 0.000000 0.000000
# 3 -0.003243 -0.002962 0.004392 0.000000 0.000000 0.000000
# 4 0.000000 0.000000 0.000000 0.022356 0.000000 0.000000
# 5 0.000000 0.000000 0.000000 0.000000 -0.870046 0.000000
# 6 0.000000 0.000000 0.000000 0.000000 0.000000 0.074791
#
#
# Mechanical properties :
#
#
# Convention : Reuss Voigt Hill
#
# Bulk Modulus (GPa) = 23.85134 64.91273 44.38203
# Shear Modulus (GPa) = -7.01590 35.61718 14.30064
#
# Velocity S-wave (km/s) = -1.77658 4.00288 2.53642
# Velocity P-wave (km/s) = 2.55376 7.11100 5.34266
#
# Compressibility (1/GPa) = 0.04192637
#
# Stress axis : x y z
#
# Youngs Moduli (GPa) = 35.37935 87.45448 227.68104
#
# Poissons Ratio (x) = -0.44801 0.73837
# Poissons Ratio (y) = -0.18124 0.67450
# Poissons Ratio (z) = 0.11473 0.25908
#
# Static dielectric constant tensor:
#      x y z
#    x 1.812680 0.000000 0.000000 
#    y 0.000000 1.859500 0.000000 
#    z 0.000000 0.000000 1.900580 
# 
# From -- ./inp_files/10544.got.cif
#   From: 2010.05.17/outbox.cif.g08.bks.cpg/sg72_6_cif.got.tgz:10544.got - 2010.06.03 17:03:01.
