data_PCOD9527382
_publ_section_title
;
Structure prediction by ZEFSAII (Michael W. Deem and Ramdas Pophale) SiO2 
 PCOD9527382
Probable space group: I B A M
;
_chemical_formula_sum "Si O2"
_cell_formula_units_Z 96
_cell_length_a 8.947331
_cell_length_b 20.690624
_cell_length_c 26.746108
_cell_angle_alpha 90.000000
_cell_angle_beta 90.000000
_cell_angle_gamma 90.000000
_cell_volume 4951.396286
_symmetry_space_group_name_H-M "I B A M"
_symmetry_group_IT_number 72
_symmetry_cell_setting 'orthorhombic'
loop_
_space_group_symop_operation_xyz
x,y,z
-x,-y,z
x,-y,1/2-z
-x,y,1/2-z
-x,-y,-z
x,y,-z
-x,y,1/2+z
x,-y,1/2+z
1/2+x,1/2+y,1/2+z
1/2-x,1/2-y,1/2+z
1/2+x,1/2-y,-z
1/2-x,1/2+y,-z
1/2-x,1/2-y,1/2-z
1/2+x,1/2+y,1/2-z
1/2-x,1/2+y,z
1/2+x,1/2-y,z
loop_
_atom_site_type_symbol
_atom_site_label
_atom_site_fract_x
_atom_site_fract_y
_atom_site_fract_z
Si Si1 0.590758 0.433099 0.059228
Si Si2 0.255893 0.261884 0.191037
Si Si3 0.467107 0.848862 0.691020
Si Si4 0.584113 0.315173 0.394245
Si Si5 0.427029 0.068648 0.098030
Si Si6 0.411720 0.194707 0.558380
O O1 0.500000 0.500000 0.062538
O O2 0.499761 0.378839 0.088882
O O3 0.753794 0.436860 0.083788
O O4 0.603732 0.416513 0.000000
O O5 0.250000 0.250000 0.250000
O O6 0.314544 0.190283 0.175965
O O7 0.102049 0.298680 0.178990
O O8 0.380158 0.307513 0.164853
O O9 0.500000 0.862894 0.750000
O O10 0.462857 0.910800 0.655450
O O11 0.492819 0.254339 0.414959
O O12 0.745748 0.312771 0.420249
O O13 0.498955 0.128414 0.067820
O O14 0.500000 0.000000 0.086183
O O15 0.404499 0.208654 0.500000
#
# Coordination Sequence:
#
# PCOD9527382 Si02
#       6
#    16  16  16  16  16  16
#     4  11  26  45  66  95 134 179 224 270 325 395
#     4  10  20  38  66  98 128 159 211 263 327 387
#     4  10  22  41  65  98 127 166 210 267 330 391
#     4  12  22  41  65  95 134 169 213 273 324 385
#     4  12  25  42  65  93 127 175 218 271 331 394
#     4  12  24  38  62  95 129 170 217 267 323 382
#
# _framework density 19.388469000000001
#
# number of rings (size 3 to 8) (size 9 to 14) (size 15 to 20)
#    0.000    0.833    3.333    4.000    2.333    3.000 
#    0.000    0.000    0.000    0.000    0.000    0.000 
#    0.000    0.000    0.000    0.000    0.000    0.000 
#
# Total GULP energy -267710.846386 kJ/mol
# GULP energy per Si atom -5577.309300 kJ/mol
# Density = 1.934434 g / cm^3
# Si number density = 19.388469 Si / 1000 Ang^3
#
#
#
# Elastic Constant Matrix: (Units=GPa)
#
#
# Indices 1 2 3 4 5 6 
#
# 1 147.9562 57.6451 44.3955 0.0000 0.0000 0.0000
# 2 57.6451 110.4504 38.1665 0.0000 0.0000 0.0000
# 3 44.3955 38.1665 133.5656 0.0000 0.0000 0.0000
# 4 0.0000 0.0000 0.0000 30.7419 0.0000 0.0000
# 5 0.0000 0.0000 0.0000 0.0000 28.8231 0.0000
# 6 0.0000 0.0000 0.0000 0.0000 0.0000 37.4415
#
#
#
# Elastic Compliance Matrix: (Units=1/GPa)
#
#
# Indices 1 2 3 4 5 6 
#
# 1 0.008858 -0.004001 -0.001801 0.000000 0.000000 0.000000
# 2 -0.004001 0.011853 -0.002057 0.000000 0.000000 0.000000
# 3 -0.001801 -0.002057 0.008673 0.000000 0.000000 0.000000
# 4 0.000000 0.000000 0.000000 0.032529 0.000000 0.000000
# 5 0.000000 0.000000 0.000000 0.000000 0.034694 0.000000
# 6 0.000000 0.000000 0.000000 0.000000 0.000000 0.026708
#
#
# Mechanical properties :
#
#
# Convention : Reuss Voigt Hill
#
# Bulk Modulus (GPa) = 73.17279 74.70958 73.94118
# Shear Modulus (GPa) = 34.82170 36.18565 35.50368
#
# Velocity S-wave (km/s) = 4.24252 4.32481 4.28387
# Velocity P-wave (km/s) = 7.86263 7.97216 7.91758
#
# Compressibility (1/GPa) = 0.01366628
#
# Stress axis : x y z
#
# Youngs Moduli (GPa) = 112.89408 84.36919 115.29456
#
# Poissons Ratio (x) = 0.33753 0.20765
# Poissons Ratio (y) = 0.45165 0.23718
# Poissons Ratio (z) = 0.20333 0.17356
#
# Static dielectric constant tensor:
#      x y z
#    x 1.734480 0.000000 0.000000 
#    y 0.000000 1.634100 0.000000 
#    z 0.000000 0.000000 1.745600 
# 
# From -- ./inp_files/47295.got.cif
#   From: 2010.05.17/outbox.cif.g08.bks.cpg/sg72_24_cif.got.tgz:47295.got - 2010.06.03 17:03:01.
