data_PCOD9527280
_publ_section_title
;
Structure prediction by ZEFSAII (Michael W. Deem and Ramdas Pophale) SiO2 
 PCOD9527280
Probable space group: I B A M
;
_chemical_formula_sum "Si O2"
_cell_formula_units_Z 96
_cell_length_a 24.953698
_cell_length_b 11.855657
_cell_length_c 14.059746
_cell_angle_alpha 90.000000
_cell_angle_beta 90.000000
_cell_angle_gamma 90.000000
_cell_volume 4159.470186
_symmetry_space_group_name_H-M "I B A M"
_symmetry_group_IT_number 72
_symmetry_cell_setting 'orthorhombic'
loop_
_space_group_symop_operation_xyz
x,y,z
-x,-y,z
x,-y,1/2-z
-x,y,1/2-z
-x,-y,-z
x,y,-z
-x,y,1/2+z
x,-y,1/2+z
1/2+x,1/2+y,1/2+z
1/2-x,1/2-y,1/2+z
1/2+x,1/2-y,-z
1/2-x,1/2+y,-z
1/2-x,1/2-y,1/2-z
1/2+x,1/2+y,1/2-z
1/2-x,1/2+y,z
1/2+x,1/2-y,z
loop_
_atom_site_type_symbol
_atom_site_label
_atom_site_fract_x
_atom_site_fract_y
_atom_site_fract_z
Si Si1 0.139239 0.947381 0.385691
Si Si2 0.363071 0.902830 0.614090
Si Si3 0.252982 0.374702 0.700907
Si Si4 0.030408 0.169604 0.116331
Si Si5 0.050797 0.575517 0.615534
Si Si6 0.910444 0.832026 0.383617
O O1 0.860691 0.053932 0.500000
O O2 0.190758 0.878827 0.354228
O O3 0.082675 0.897268 0.352599
O O4 0.135152 0.078514 0.355093
O O5 0.365985 0.903095 0.500000
O O6 0.301921 0.885929 0.642013
O O7 0.396097 0.793486 0.647729
O O8 0.393875 0.016196 0.645349
O O9 0.253898 0.500000 0.750000
O O10 0.250000 0.250000 0.750000
O O11 0.040662 0.297891 0.146168
O O12 0.970654 0.134925 0.145965
O O13 0.029959 0.163336 0.000000
O O14 0.051202 0.578949 0.500000
O O15 0.000000 0.500000 0.642551
O O16 0.911132 0.831155 0.500000
#
# Coordination Sequence:
#
# PCOD9527280 Si02
#       6
#    16  16  16  16  16  16
#     4  10  21  38  63  92 120 157 209 254 296 367
#     4  10  20  37  65  92 118 158 208 254 301 365
#     4  12  28  47  63  83 123 170 214 263 317 361
#     4   9  16  28  54  94 128 149 182 243 312 363
#     4   9  15  27  52  90 126 149 182 243 306 357
#     4   9  16  31  58  95 129 151 184 249 316 366
#
# _framework density 23.079863
#
# number of rings (size 3 to 8) (size 9 to 14) (size 15 to 20)
#    0.000    2.167    1.667    2.000    2.333    2.000 
#    0.000    1.667    0.000    9.500    0.000    0.000 
#    0.000    0.000    0.000    0.000    0.000    0.000 
#
# Total GULP energy -268195.717396 kJ/mol
# GULP energy per Si atom -5587.410779 kJ/mol
# Density = 2.302733 g / cm^3
# Si number density = 23.079863 Si / 1000 Ang^3
#
#
#
# Elastic Constant Matrix: (Units=GPa)
#
#
# Indices 1 2 3 4 5 6 
#
# 1 163.5184 42.4766 21.9187 0.0000 0.0000 0.0000
# 2 42.4766 121.6189 14.2010 0.0000 0.0000 0.0000
# 3 21.9187 14.2010 64.3112 0.0000 0.0000 0.0000
# 4 0.0000 0.0000 0.0000 18.9901 0.0000 0.0000
# 5 0.0000 0.0000 0.0000 0.0000 12.3254 0.0000
# 6 0.0000 0.0000 0.0000 0.0000 0.0000 44.8694
#
#
#
# Elastic Compliance Matrix: (Units=1/GPa)
#
#
# Indices 1 2 3 4 5 6 
#
# 1 0.006940 -0.002205 -0.001879 0.000000 0.000000 0.000000
# 2 -0.002205 0.009140 -0.001267 0.000000 0.000000 0.000000
# 3 -0.001879 -0.001267 0.016469 0.000000 0.000000 0.000000
# 4 0.000000 0.000000 0.000000 0.052659 0.000000 0.000000
# 5 0.000000 0.000000 0.000000 0.000000 0.081133 0.000000
# 6 0.000000 0.000000 0.000000 0.000000 0.000000 0.022287
#
#
# Mechanical properties :
#
#
# Convention : Reuss Voigt Hill
#
# Bulk Modulus (GPa) = 45.76731 56.29347 51.03039
# Shear Modulus (GPa) = 24.19997 33.29381 28.74689
#
# Velocity S-wave (km/s) = 3.24162 3.80221 3.53305
# Velocity P-wave (km/s) = 5.82098 6.61207 6.22909
#
# Compressibility (1/GPa) = 0.02184966
#
# Stress axis : x y z
#
# Youngs Moduli (GPa) = 144.09259 109.40564 60.71871
#
# Poissons Ratio (x) = 0.24119 0.11406
# Poissons Ratio (y) = 0.31765 0.07693
# Poissons Ratio (z) = 0.27068 0.13862
#
# Static dielectric constant tensor:
#      x y z
#    x 1.814270 0.000000 0.000000 
#    y 0.000000 1.876580 0.000000 
#    z 0.000000 0.000000 1.944890 
# 
# From -- ./inp_files/33270.got.cif
#   From: 2010.05.17/outbox.cif.g08.bks.cpg/sg72_17_cif.got.tgz:33270.got - 2010.06.03 17:03:01.
