data_PCOD9527671
_publ_section_title
;
Structure prediction by ZEFSAII (Michael W. Deem and Ramdas Pophale) SiO2 
 PCOD9527671
Probable space group: I B A M
;
_chemical_formula_sum "Si O2"
_cell_formula_units_Z 80
_cell_length_a 9.432709
_cell_length_b 25.259999
_cell_length_c 17.907564
_cell_angle_alpha 90.000000
_cell_angle_beta 90.000000
_cell_angle_gamma 90.000000
_cell_volume 4266.839212
_symmetry_space_group_name_H-M "I B A M"
_symmetry_group_IT_number 72
_symmetry_cell_setting 'orthorhombic'
loop_
_space_group_symop_operation_xyz
x,y,z
-x,-y,z
x,-y,1/2-z
-x,y,1/2-z
-x,-y,-z
x,y,-z
-x,y,1/2+z
x,-y,1/2+z
1/2+x,1/2+y,1/2+z
1/2-x,1/2-y,1/2+z
1/2+x,1/2-y,-z
1/2-x,1/2+y,-z
1/2-x,1/2-y,1/2-z
1/2+x,1/2+y,1/2-z
1/2-x,1/2+y,z
1/2+x,1/2-y,z
loop_
_atom_site_type_symbol
_atom_site_label
_atom_site_fract_x
_atom_site_fract_y
_atom_site_fract_z
Si Si1 0.268779 0.708226 0.181897
Si Si2 0.796609 0.637695 0.082675
Si Si3 0.341439 0.607309 0.726107
Si Si4 0.581667 0.054919 0.181244
Si Si5 0.502966 0.239814 0.913843
O O1 0.250000 0.750000 0.250000
O O2 0.242683 0.555957 0.287477
O O3 0.274110 0.649429 0.216154
O O4 0.140031 0.719279 0.125075
O O5 0.676001 0.636134 0.145553
O O6 0.904672 0.591375 0.108955
O O7 0.742224 0.628219 0.000000
O O8 0.500000 0.595917 0.750000
O O9 0.416043 0.718589 0.861314
O O10 0.500000 0.082310 0.250000
O O11 0.615260 0.191455 0.084670
O O12 0.500000 0.000000 0.168880
O O13 0.477665 0.256610 0.000000
#
# Coordination Sequence:
#
# PCOD9527671 Si02
#       5
#    16  16  16  16  16
#     4  12  21  35  57  81 116 164 206 245 293 360
#     4   9  20  36  58  84 121 155 196 250 306 361
#     4  10  21  36  57  88 118 159 205 245 309 362
#     4   9  18  35  61  90 114 150 200 245 302 372
#     4  11  23  37  53  83 119 159 204 251 294 350
#
# _framework density 18.749241000000001
#
# number of rings (size 3 to 8) (size 9 to 14) (size 15 to 20)
#    1.200    0.600    2.000    3.600    0.000    0.400 
#    0.000    3.000    0.000    1.200    0.000    5.600 
#    0.000    0.000    0.000    0.000    0.000    0.000 
#
# Total GULP energy -222679.577346 kJ/mol
# GULP energy per Si atom -5566.989434 kJ/mol
# Density = 1.870657 g / cm^3
# Si number density = 18.749241 Si / 1000 Ang^3
#
#
#
# Elastic Constant Matrix: (Units=GPa)
#
#
# Indices 1 2 3 4 5 6 
#
# 1 101.6422 19.3635 36.0038 0.0000 0.0000 0.0000
# 2 19.3635 78.7304 19.0549 0.0000 0.0000 0.0000
# 3 36.0038 19.0549 123.0477 0.0000 0.0000 0.0000
# 4 0.0000 0.0000 0.0000 17.2351 0.0000 0.0000
# 5 0.0000 0.0000 0.0000 0.0000 21.5350 0.0000
# 6 0.0000 0.0000 0.0000 0.0000 0.0000 16.1195
#
#
#
# Elastic Compliance Matrix: (Units=1/GPa)
#
#
# Indices 1 2 3 4 5 6 
#
# 1 0.011287 -0.002054 -0.002985 0.000000 0.000000 0.000000
# 2 -0.002054 0.013570 -0.001500 0.000000 0.000000 0.000000
# 3 -0.002985 -0.001500 0.009233 0.000000 0.000000 0.000000
# 4 0.000000 0.000000 0.000000 0.058021 0.000000 0.000000
# 5 0.000000 0.000000 0.000000 0.000000 0.046436 0.000000
# 6 0.000000 0.000000 0.000000 0.000000 0.000000 0.062037
#
#
# Mechanical properties :
#
#
# Convention : Reuss Voigt Hill
#
# Bulk Modulus (GPa) = 47.59197 50.25161 48.92179
# Shear Modulus (GPa) = 22.65883 26.24445 24.45164
#
# Velocity S-wave (km/s) = 3.48015 3.74540 3.61521
# Velocity P-wave (km/s) = 6.44881 6.75012 6.60118
#
# Compressibility (1/GPa) = 0.02101195
#
# Stress axis : x y z
#
# Youngs Moduli (GPa) = 88.59875 73.69292 108.31231
#
# Poissons Ratio (x) = 0.15134 0.32326
# Poissons Ratio (y) = 0.18195 0.16252
# Poissons Ratio (z) = 0.26442 0.11058
#
# Static dielectric constant tensor:
#      x y z
#    x 1.686370 0.000000 0.000000 
#    y 0.000000 1.680130 0.000000 
#    z 0.000000 0.000000 1.666090 
# 
# From -- ./inp_files/20216.got.cif
#   From: 2010.05.17/outbox.cif.g08.bks.cpg/sg72_11_cif.got.tgz:20216.got - 2010.06.03 17:03:01.
