data_PCOD9527640
_publ_section_title
;
Structure prediction by ZEFSAII (Michael W. Deem and Ramdas Pophale) SiO2 
 PCOD9527640
Probable space group: I B A M
;
_chemical_formula_sum "Si O2"
_cell_formula_units_Z 96
_cell_length_a 17.301435
_cell_length_b 13.835603
_cell_length_c 19.747052
_cell_angle_alpha 90.000000
_cell_angle_beta 90.000000
_cell_angle_gamma 90.000000
_cell_volume 4726.966093
_symmetry_space_group_name_H-M "I B A M"
_symmetry_group_IT_number 72
_symmetry_cell_setting 'orthorhombic'
loop_
_space_group_symop_operation_xyz
x,y,z
-x,-y,z
x,-y,1/2-z
-x,y,1/2-z
-x,-y,-z
x,y,-z
-x,y,1/2+z
x,-y,1/2+z
1/2+x,1/2+y,1/2+z
1/2-x,1/2-y,1/2+z
1/2+x,1/2-y,-z
1/2-x,1/2+y,-z
1/2-x,1/2-y,1/2-z
1/2+x,1/2+y,1/2-z
1/2-x,1/2+y,z
1/2+x,1/2-y,z
loop_
_atom_site_type_symbol
_atom_site_label
_atom_site_fract_x
_atom_site_fract_y
_atom_site_fract_z
Si Si1 0.890275 0.309886 0.076662
Si Si2 0.771705 0.636223 0.319488
Si Si3 0.030095 0.255147 0.172629
Si Si4 0.898480 0.047351 0.676711
Si Si5 0.826235 0.908692 0.576400
Si Si6 0.697038 0.845375 0.671636
O O1 0.830850 0.376135 0.119034
O O2 0.853632 0.202294 0.072074
O O3 0.966442 0.294592 0.121325
O O4 0.903890 0.343787 0.000000
O O5 0.688726 0.587704 0.323227
O O6 0.751105 0.750428 0.320630
O O7 0.806086 0.610514 0.246592
O O8 0.047338 0.140073 0.165335
O O9 0.110937 0.308975 0.156942
O O10 0.000000 0.269703 0.250000
O O11 0.913186 0.000000 0.750000
O O12 0.891164 0.967497 0.618187
O O13 0.817578 0.946667 0.500000
O O14 0.744757 0.907497 0.617261
#
# Coordination Sequence:
#
# PCOD9527640 Si02
#       6
#    16  16  16  16  16  16
#     4  10  21  36  53  78 113 147 180 225 278 327
#     4   9  17  33  55  76 101 139 186 229 264 310
#     4  11  21  33  55  84 113 144 183 226 272 329
#     4  11  21  33  55  84 113 144 183 226 272 329
#     4  10  21  36  53  78 113 147 180 225 278 327
#     4   9  17  33  55  76 101 139 186 229 264 310
#
# _framework density 20.309011000000002
#
# number of rings (size 3 to 8) (size 9 to 14) (size 15 to 20)
#    0.000    2.000    3.333    1.000    0.000    4.333 
#    0.000    5.000    0.000    1.000    0.000    2.333 
#    0.000    0.000    0.000    0.000    0.000    0.000 
#
# Total GULP energy -267740.562860 kJ/mol
# GULP energy per Si atom -5577.928393 kJ/mol
# Density = 2.026279 g / cm^3
# Si number density = 20.309011 Si / 1000 Ang^3
#
#
#
# Elastic Constant Matrix: (Units=GPa)
#
#
# Indices 1 2 3 4 5 6 
#
# 1 118.2407 12.2093 78.8074 0.0000 0.0000 0.0000
# 2 12.2093 34.5809 10.1947 0.0000 0.0000 0.0000
# 3 78.8074 10.1947 169.1166 0.0000 0.0000 0.0000
# 4 0.0000 0.0000 0.0000 5.6027 0.0000 0.0000
# 5 0.0000 0.0000 0.0000 0.0000 21.7926 0.0000
# 6 0.0000 0.0000 0.0000 0.0000 0.0000 22.2077
#
#
#
# Elastic Compliance Matrix: (Units=1/GPa)
#
#
# Indices 1 2 3 4 5 6 
#
# 1 0.012519 -0.002749 -0.005668 0.000000 0.000000 0.000000
# 2 -0.002749 0.030045 -0.000530 0.000000 0.000000 0.000000
# 3 -0.005668 -0.000530 0.008586 0.000000 0.000000 0.000000
# 4 0.000000 0.000000 0.000000 0.178484 0.000000 0.000000
# 5 0.000000 0.000000 0.000000 0.000000 0.045887 0.000000
# 6 0.000000 0.000000 0.000000 0.000000 0.000000 0.045029
#
#
# Mechanical properties :
#
#
# Convention : Reuss Voigt Hill
#
# Bulk Modulus (GPa) = 30.07025 58.26236 44.16631
# Shear Modulus (GPa) = 14.30490 24.63571 19.47031
#
# Velocity S-wave (km/s) = 2.65686 3.48666 3.09965
# Velocity P-wave (km/s) = 4.92447 6.70517 5.88259
#
# Compressibility (1/GPa) = 0.03325546
#
# Stress axis : x y z
#
# Youngs Moduli (GPa) = 79.87904 33.28387 116.46446
#
# Poissons Ratio (x) = 0.09150 0.66012
# Poissons Ratio (y) = 0.21959 0.06174
# Poissons Ratio (z) = 0.45276 0.01764
#
# Static dielectric constant tensor:
#      x y z
#    x 1.712870 0.000000 0.000000 
#    y 0.000000 1.775420 0.000000 
#    z 0.000000 0.000000 1.728250 
# 
# From -- ./inp_files/31601.got.cif
#   From: 2010.05.17/outbox.cif.g08.bks.cpg/sg72_16_cif.got.tgz:31601.got - 2010.06.03 17:03:01.
