data_PCOD9527148
_publ_section_title
;
Structure prediction by ZEFSAII (Michael W. Deem and Ramdas Pophale) SiO2 
 PCOD9527148
Probable space group: I B A M
;
_chemical_formula_sum "Si O2"
_cell_formula_units_Z 116
_cell_length_a 16.822913
_cell_length_b 12.181557
_cell_length_c 27.709083
_cell_angle_alpha 90.000000
_cell_angle_beta 90.000000
_cell_angle_gamma 90.000000
_cell_volume 5678.402252
_symmetry_space_group_name_H-M "I B A M"
_symmetry_group_IT_number 72
_symmetry_cell_setting 'orthorhombic'
loop_
_space_group_symop_operation_xyz
x,y,z
-x,-y,z
x,-y,1/2-z
-x,y,1/2-z
-x,-y,-z
x,y,-z
-x,y,1/2+z
x,-y,1/2+z
1/2+x,1/2+y,1/2+z
1/2-x,1/2-y,1/2+z
1/2+x,1/2-y,-z
1/2-x,1/2+y,-z
1/2-x,1/2-y,1/2-z
1/2+x,1/2+y,1/2-z
1/2-x,1/2+y,z
1/2+x,1/2-y,z
loop_
_atom_site_type_symbol
_atom_site_label
_atom_site_fract_x
_atom_site_fract_y
_atom_site_fract_z
Si Si1 0.927845 0.413193 0.053130
Si Si2 0.138300 0.830429 0.627278
Si Si3 0.258940 0.476830 0.555980
Si Si4 0.542856 0.749390 0.862454
Si Si5 0.414830 0.954584 0.694962
Si Si6 0.000000 0.000000 0.250000
Si Si7 0.281161 0.105013 0.350822
Si Si8 0.875096 0.059173 0.178570
O O1 0.836268 0.452997 0.053219
O O2 0.000000 0.500000 0.061535
O O3 0.932218 0.323390 0.093468
O O4 0.944077 0.367326 0.000000
O O5 0.183542 0.882425 0.579970
O O6 0.049398 0.779863 0.628302
O O7 0.189246 0.728136 0.645391
O O8 0.131987 0.933028 0.663504
O O9 0.283048 0.500000 0.500000
O O10 0.257242 0.570120 0.597676
O O11 0.572764 0.824427 0.816343
O O12 0.589248 0.635480 0.862737
O O13 0.500000 0.000000 0.678605
O O14 0.404255 0.000000 0.750000
O O15 0.347530 0.015045 0.663401
O O16 0.058821 0.072236 0.281149
O O17 0.212892 0.098099 0.310522
#
# Coordination Sequence:
#
# PCOD9527148 Si02
#       8
#    16  16  16  16  16   4  16  16
#     4  10  20  36  65 102 135 176 227 278 346 421
#     4  11  23  43  67  96 138 181 232 281 355 426
#     4  10  22  40  64  99 139 177 226 284 350 420
#     4  12  21  43  68  95 143 188 225 295 356 421
#     4  11  24  41  66 105 140 177 236 301 362 417
#     4  12  24  52  64  92 134 184 244 280 340 446
#     4  11  23  43  69 100 138 179 230 298 357 416
#     4  11  27  43  68  96 131 185 234 285 353 430
#
# _framework density 20.428280999999998
#
# number of rings (size 3 to 8) (size 9 to 14) (size 15 to 20)
#    0.000    1.103    4.138    2.069    2.897    3.310 
#    0.000    5.517    0.000    4.138    0.000    0.000 
#    0.000    0.000    0.000    0.000    0.000    0.000 
#
# Total GULP energy -322871.837380 kJ/mol
# GULP energy per Si atom -5566.755817 kJ/mol
# Density = 2.038179 g / cm^3
# Si number density = 20.428281 Si / 1000 Ang^3
#
#
#
# Elastic Constant Matrix: (Units=GPa)
#
#
# Indices 1 2 3 4 5 6 
#
# 1 124.1965 42.9782 56.0367 0.0000 0.0000 0.0000
# 2 42.9782 107.0096 40.4848 0.0000 0.0000 0.0000
# 3 56.0367 40.4848 96.1039 0.0000 0.0000 0.0000
# 4 0.0000 0.0000 0.0000 50.0369 0.0000 0.0000
# 5 0.0000 0.0000 0.0000 0.0000 24.8302 0.0000
# 6 0.0000 0.0000 0.0000 0.0000 0.0000 20.0152
#
#
#
# Elastic Compliance Matrix: (Units=1/GPa)
#
#
# Indices 1 2 3 4 5 6 
#
# 1 0.011448 -0.002465 -0.005637 0.000000 0.000000 0.000000
# 2 -0.002465 0.011648 -0.003469 0.000000 0.000000 0.000000
# 3 -0.005637 -0.003469 0.015153 0.000000 0.000000 0.000000
# 4 0.000000 0.000000 0.000000 0.019985 0.000000 0.000000
# 5 0.000000 0.000000 0.000000 0.000000 0.040273 0.000000
# 6 0.000000 0.000000 0.000000 0.000000 0.000000 0.049962
#
#
# Mechanical properties :
#
#
# Convention : Reuss Voigt Hill
#
# Bulk Modulus (GPa) = 66.19531 67.36772 66.78151
# Shear Modulus (GPa) = 28.30487 31.49715 29.90101
#
# Velocity S-wave (km/s) = 3.72637 3.93089 3.82999
# Velocity P-wave (km/s) = 7.14062 7.32474 7.23327
#
# Compressibility (1/GPa) = 0.01510681
#
# Stress axis : x y z
#
# Youngs Moduli (GPa) = 87.35052 85.85455 65.99148
#
# Poissons Ratio (x) = 0.21167 0.37197
# Poissons Ratio (y) = 0.21535 0.22893
# Poissons Ratio (z) = 0.49236 0.29784
#
# Static dielectric constant tensor:
#      x y z
#    x 1.906490 0.000000 0.000000 
#    y 0.000000 1.798310 0.000000 
#    z 0.000000 0.000000 1.832810 
# 
# From -- ./inp_files/49131.got.cif
#   From: 2010.05.17/outbox.cif.g08.bks.cpg/sg72_25_cif.got.tgz:49131.got - 2010.06.03 17:03:01.
