data_PCOD9527317
_publ_section_title
;
Structure prediction by ZEFSAII (Michael W. Deem and Ramdas Pophale) SiO2 
 PCOD9527317
Probable space group: I B A M
;
_chemical_formula_sum "Si O2"
_cell_formula_units_Z 88
_cell_length_a 26.335286
_cell_length_b 6.064994
_cell_length_c 23.191737
_cell_angle_alpha 90.000000
_cell_angle_beta 90.000000
_cell_angle_gamma 90.000000
_cell_volume 3704.261963
_symmetry_space_group_name_H-M "I B A M"
_symmetry_group_IT_number 72
_symmetry_cell_setting 'orthorhombic'
loop_
_space_group_symop_operation_xyz
x,y,z
-x,-y,z
x,-y,1/2-z
-x,y,1/2-z
-x,-y,-z
x,y,-z
-x,y,1/2+z
x,-y,1/2+z
1/2+x,1/2+y,1/2+z
1/2-x,1/2-y,1/2+z
1/2+x,1/2-y,-z
1/2-x,1/2+y,-z
1/2-x,1/2-y,1/2-z
1/2+x,1/2+y,1/2-z
1/2-x,1/2+y,z
1/2+x,1/2-y,z
loop_
_atom_site_type_symbol
_atom_site_label
_atom_site_fract_x
_atom_site_fract_y
_atom_site_fract_z
Si Si1 0.765974 0.637392 0.176359
Si Si2 0.944181 0.925768 0.315744
Si Si3 0.135942 0.786324 0.618196
Si Si4 0.523994 0.746014 0.000000
Si Si5 0.093638 0.633412 0.897785
Si Si6 0.303669 0.358692 0.065058
O O1 0.745782 0.883230 0.199356
O O2 0.825665 0.673698 0.164322
O O3 0.739310 0.632502 0.113284
O O4 0.897102 0.038025 0.347717
O O5 0.941363 0.000000 0.250000
O O6 0.930835 0.676885 0.334750
O O7 0.000000 0.000000 0.335864
O O8 0.095068 0.624522 0.591700
O O9 0.169174 0.904237 0.569841
O O10 0.500000 0.500000 0.000000
O O11 0.558960 0.746111 0.056641
O O12 0.500000 0.000000 0.000000
O O13 0.152017 0.698007 0.911786
O O14 0.288307 0.304903 0.000000
#
# Coordination Sequence:
#
# PCOD9527317 Si02
#       6
#    16  16  16   8  16  16
#     4  10  20  38  60  95 136 183 228 282 342 419
#     4  10  24  46  72 100 134 183 252 317 375 432
#     4  10  23  39  64  98 138 183 234 301 366 432
#     4  12  30  44  68 102 146 196 240 288 363 448
#     4  11  23  41  67  96 141 184 236 291 363 433
#     4  10  21  37  59  92 141 186 233 280 343 421
#
# _framework density 23.756419000000001
#
# number of rings (size 3 to 8) (size 9 to 14) (size 15 to 20)
#    0.000    1.636    2.727    0.545    8.909    3.636 
#    0.000    1.818    0.000    9.818    0.000    0.000 
#    0.000    0.000    0.000    0.000    0.000    0.000 
#
# Total GULP energy -245094.075448 kJ/mol
# GULP energy per Si atom -5570.319897 kJ/mol
# Density = 2.370235 g / cm^3
# Si number density = 23.756419 Si / 1000 Ang^3
#
#
#
# Elastic Constant Matrix: (Units=GPa)
#
#
# Indices 1 2 3 4 5 6 
#
# 1 79.2229 13.1322 7.0972 0.0000 0.0000 0.0000
# 2 13.1322 98.5126 19.5163 0.0000 0.0000 0.0000
# 3 7.0972 19.5163 49.1762 0.0000 0.0000 0.0000
# 4 0.0000 0.0000 0.0000 22.4723 0.0000 0.0000
# 5 0.0000 0.0000 0.0000 0.0000 -18.7174 0.0000
# 6 0.0000 0.0000 0.0000 0.0000 0.0000 48.4745
#
#
#
# Elastic Compliance Matrix: (Units=1/GPa)
#
#
# Indices 1 2 3 4 5 6 
#
# 1 0.012983 -0.001475 -0.001288 0.000000 0.000000 0.000000
# 2 -0.001475 0.011185 -0.004226 0.000000 0.000000 0.000000
# 3 -0.001288 -0.004226 0.022198 0.000000 0.000000 0.000000
# 4 0.000000 0.000000 0.000000 0.044499 0.000000 0.000000
# 5 0.000000 0.000000 0.000000 0.000000 -0.053426 0.000000
# 6 0.000000 0.000000 0.000000 0.000000 0.000000 0.020629
#
#
# Mechanical properties :
#
#
# Convention : Reuss Voigt Hill
#
# Bulk Modulus (GPa) = 30.87706 34.04478 32.46092
# Shear Modulus (GPa) = 60.35559 22.92362 41.63961
#
# Velocity S-wave (km/s) = 5.04591 3.10973 4.19115
# Velocity P-wave (km/s) = 6.85374 5.22070 6.09219
#
# Compressibility (1/GPa) = 0.03238651
#
# Stress axis : x y z
#
# Youngs Moduli (GPa) = 77.02624 89.40650 45.04901
#
# Poissons Ratio (x) = 0.13191 0.05803
# Poissons Ratio (y) = 0.11365 0.19037
# Poissons Ratio (z) = 0.09922 0.37783
#
# Static dielectric constant tensor:
#      x y z
#    x 1.883580 0.000000 0.000000 
#    y 0.000000 2.149660 0.000000 
#    z 0.000000 0.000000 2.010670 
# 
# From -- ./inp_files/46146.got.cif
#   From: 2010.05.17/outbox.cif.g08.bks.cpg/sg72_24_cif.got.tgz:46146.got - 2010.06.03 17:03:01.
