data_PCOD9527436
_publ_section_title
;
Structure prediction by ZEFSAII (Michael W. Deem and Ramdas Pophale) SiO2 
 PCOD9527436
Probable space group: I B A M
;
_chemical_formula_sum "Si O2"
_cell_formula_units_Z 72
_cell_length_a 28.709092
_cell_length_b 7.220815
_cell_length_c 15.147801
_cell_angle_alpha 90.000000
_cell_angle_beta 90.000000
_cell_angle_gamma 90.000000
_cell_volume 3140.185229
_symmetry_space_group_name_H-M "I B A M"
_symmetry_group_IT_number 72
_symmetry_cell_setting 'orthorhombic'
loop_
_space_group_symop_operation_xyz
x,y,z
-x,-y,z
x,-y,1/2-z
-x,y,1/2-z
-x,-y,-z
x,y,-z
-x,y,1/2+z
x,-y,1/2+z
1/2+x,1/2+y,1/2+z
1/2-x,1/2-y,1/2+z
1/2+x,1/2-y,-z
1/2-x,1/2+y,-z
1/2-x,1/2-y,1/2-z
1/2+x,1/2+y,1/2-z
1/2-x,1/2+y,z
1/2+x,1/2-y,z
loop_
_atom_site_type_symbol
_atom_site_label
_atom_site_fract_x
_atom_site_fract_y
_atom_site_fract_z
Si Si1 0.638861 0.201783 0.139748
Si Si2 0.986553 0.783449 0.652790
Si Si3 0.683116 0.302676 0.500000
Si Si4 0.209814 0.629359 0.500000
Si Si5 0.122990 0.259903 0.662011
Si Si6 0.443468 0.223103 0.500000
O O1 0.634719 0.287963 0.236774
O O2 0.632352 0.979707 0.152393
O O3 0.687154 0.224423 0.086456
O O4 0.596502 0.257944 0.076850
O O5 0.931352 0.767429 0.641301
O O6 0.000000 0.715395 0.750000
O O7 0.016920 0.694238 0.576928
O O8 0.000000 0.000000 0.647613
O O9 0.734914 0.380719 0.500000
O O10 0.653720 0.342587 0.411762
O O11 0.691011 0.080368 0.500000
#
# Coordination Sequence:
#
# PCOD9527436 Si02
#       6
#    16  16   8   8  16   8
#     4   9  20  37  63  84 120 149 206 252 299 347
#     4  11  23  38  55  86 128 162 201 238 292 354
#     4  10  21  39  63  86 123 150 204 249 312 364
#     4   9  20  40  59  93 114 155 197 255 307 366
#     4  10  20  40  59  87 117 163 193 252 297 360
#     4  11  20  38  57  83 113 163 195 253 282 354
#
# _framework density 22.928583
#
# number of rings (size 3 to 8) (size 9 to 14) (size 15 to 20)
#    0.000    2.000    2.222    1.667    0.000    2.667 
#    8.000    0.000    0.000    0.000    0.000    0.000 
#    0.000    0.000    0.000    0.000    0.000    0.000 
#
# Total GULP energy -200432.672593 kJ/mol
# GULP energy per Si atom -5567.574239 kJ/mol
# Density = 2.287640 g / cm^3
# Si number density = 22.928583 Si / 1000 Ang^3
#
#
#
# Elastic Constant Matrix: (Units=GPa)
#
#
# Indices 1 2 3 4 5 6 
#
# 1 225.8097 3.0803 128.0166 0.0000 0.0000 0.0000
# 2 3.0803 66.6822 12.2678 0.0000 0.0000 0.0000
# 3 128.0166 12.2678 249.2218 0.0000 0.0000 0.0000
# 4 0.0000 0.0000 0.0000 4.2514 0.0000 0.0000
# 5 0.0000 0.0000 0.0000 0.0000 74.0326 0.0000
# 6 0.0000 0.0000 0.0000 0.0000 0.0000 -15.7890
#
#
#
# Elastic Compliance Matrix: (Units=1/GPa)
#
#
# Indices 1 2 3 4 5 6 
#
# 1 0.006254 0.000305 -0.003228 0.000000 0.000000 0.000000
# 2 0.000305 0.015148 -0.000902 0.000000 0.000000 0.000000
# 3 -0.003228 -0.000902 0.005715 0.000000 0.000000 0.000000
# 4 0.000000 0.000000 0.000000 0.235216 0.000000 0.000000
# 5 0.000000 0.000000 0.000000 0.000000 0.013508 0.000000
# 6 0.000000 0.000000 0.000000 0.000000 0.000000 -0.063335
#
#
# Mechanical properties :
#
#
# Convention : Reuss Voigt Hill
#
# Bulk Modulus (GPa) = 51.36780 92.04922 71.70851
# Shear Modulus (GPa) = 22.06093 39.05560 30.55827
#
# Velocity S-wave (km/s) = 3.10523 4.13165 3.65466
# Velocity P-wave (km/s) = 5.94211 7.93687 7.01080
#
# Compressibility (1/GPa) = 0.01946745
#
# Stress axis : x y z
#
# Youngs Moduli (GPa) = 159.89499 66.01350 174.98514
#
# Poissons Ratio (x) = -0.02013 0.56477
# Poissons Ratio (y) = -0.04875 0.15789
# Poissons Ratio (z) = 0.51606 0.05956
#
# Static dielectric constant tensor:
#      x y z
#    x 1.778020 0.000000 0.000000 
#    y 0.000000 2.085000 0.000000 
#    z 0.000000 0.000000 1.827370 
# 
# From -- ./inp_files/18944.got.cif
#   From: 2010.05.17/outbox.cif.g08.bks.cpg/sg72_10_cif.got.tgz:18944.got - 2010.06.03 17:03:01.
