data_PCOD9527524
_publ_section_title
;
Structure prediction by ZEFSAII (Michael W. Deem and Ramdas Pophale) SiO2 
 PCOD9527524
Probable space group: I B A M
;
_chemical_formula_sum "Si O2"
_cell_formula_units_Z 60
_cell_length_a 5.115962
_cell_length_b 20.580736
_cell_length_c 24.124050
_cell_angle_alpha 90.000000
_cell_angle_beta 90.000000
_cell_angle_gamma 90.000000
_cell_volume 2540.027577
_symmetry_space_group_name_H-M "I B A M"
_symmetry_group_IT_number 72
_symmetry_cell_setting 'orthorhombic'
loop_
_space_group_symop_operation_xyz
x,y,z
-x,-y,z
x,-y,1/2-z
-x,y,1/2-z
-x,-y,-z
x,y,-z
-x,y,1/2+z
x,-y,1/2+z
1/2+x,1/2+y,1/2+z
1/2-x,1/2-y,1/2+z
1/2+x,1/2-y,-z
1/2-x,1/2+y,-z
1/2-x,1/2-y,1/2-z
1/2+x,1/2+y,1/2-z
1/2-x,1/2+y,z
1/2+x,1/2-y,z
loop_
_atom_site_type_symbol
_atom_site_label
_atom_site_fract_x
_atom_site_fract_y
_atom_site_fract_z
Si Si1 0.000000 0.203685 0.250000
Si Si2 0.326121 0.893156 0.305460
Si Si3 0.338276 0.104538 0.411514
Si Si4 0.151859 0.207243 0.500000
Si Si5 0.500000 0.000000 0.500000
Si Si6 0.000000 0.000000 0.149202
O O1 0.750000 0.250000 0.250000
O O2 0.925195 0.153717 0.298827
O O3 0.500000 0.887865 0.250000
O O4 0.490942 0.873761 0.359230
O O5 0.220374 0.965728 0.314247
O O6 0.216615 0.162665 0.446856
O O7 0.502405 0.057392 0.452012
O O8 0.115818 0.056510 0.388644
O O9 0.357075 0.266767 0.500000
#
# Coordination Sequence:
#
# PCOD9527524 Si02
#       6
#     8  16  16   8   4   8
#     4  12  28  51  76 109 160 216 268 322 386 480
#     4  12  27  50  77 119 164 215 265 336 404 487
#     4  11  26  46  81 115 158 211 263 349 406 490
#     4  11  30  54  82 116 159 214 278 331 402 497
#     4  10  20  50  66 112 152 192 268 330 432 456
#     4  12  26  46  80 126 158 205 271 334 418 482
#
# _framework density 23.621791999999999
#
# number of rings (size 3 to 8) (size 9 to 14) (size 15 to 20)
#    0.000    0.533    4.000    1.600    3.733   12.267 
#    0.000    0.000    0.000    0.000    0.000    0.000 
#    0.000    0.000    0.000    0.000    0.000    0.000 
#
# Total GULP energy -167474.762500 kJ/mol
# GULP energy per Si atom -5582.492083 kJ/mol
# Density = 2.356803 g / cm^3
# Si number density = 23.621792 Si / 1000 Ang^3
#
#
#
# Elastic Constant Matrix: (Units=GPa)
#
#
# Indices 1 2 3 4 5 6 
#
# 1 107.1739 25.6025 42.7166 0.0000 0.0000 0.0000
# 2 25.6025 97.6133 41.6738 0.0000 0.0000 0.0000
# 3 42.7166 41.6738 161.3733 0.0000 0.0000 0.0000
# 4 0.0000 0.0000 0.0000 25.1809 0.0000 0.0000
# 5 0.0000 0.0000 0.0000 0.0000 0.6548 0.0000
# 6 0.0000 0.0000 0.0000 0.0000 0.0000 60.0229
#
#
#
# Elastic Compliance Matrix: (Units=1/GPa)
#
#
# Indices 1 2 3 4 5 6 
#
# 1 0.010704 -0.001796 -0.002370 0.000000 0.000000 0.000000
# 2 -0.001796 0.011815 -0.002576 0.000000 0.000000 0.000000
# 3 -0.002370 -0.002576 0.007489 0.000000 0.000000 0.000000
# 4 0.000000 0.000000 0.000000 0.039713 0.000000 0.000000
# 5 0.000000 0.000000 0.000000 0.000000 1.527266 0.000000
# 6 0.000000 0.000000 0.000000 0.000000 0.000000 0.016660
#
#
# Mechanical properties :
#
#
# Convention : Reuss Voigt Hill
#
# Bulk Modulus (GPa) = 60.51117 65.12738 62.81928
# Shear Modulus (GPa) = 3.06253 34.24954 18.65603
#
# Velocity S-wave (km/s) = 1.13987 3.81190 2.81335
# Velocity P-wave (km/s) = 5.23495 6.85601 6.09957
#
# Compressibility (1/GPa) = 0.01652587
#
# Stress axis : x y z
#
# Youngs Moduli (GPa) = 93.42185 84.63650 133.52413
#
# Poissons Ratio (x) = 0.15199 0.31641
# Poissons Ratio (y) = 0.16777 0.34394
# Poissons Ratio (z) = 0.22138 0.21801
#
# Static dielectric constant tensor:
#      x y z
#    x 1.978090 0.000000 0.000000 
#    y 0.000000 1.895280 0.000000 
#    z 0.000000 0.000000 1.873080 
# 
# From -- ./inp_files/41371.got.cif
#   From: 2010.05.17/outbox.cif.g08.bks.cpg/sg72_21_cif.got.tgz:41371.got - 2010.06.03 17:03:01.
