data_PCOD9527898
_publ_section_title
;
Structure prediction by ZEFSAII (Michael W. Deem and Ramdas Pophale) SiO2 
 PCOD9527898
Probable space group: I B A M
;
_chemical_formula_sum "Si O2"
_cell_formula_units_Z 80
_cell_length_a 15.953371
_cell_length_b 19.241192
_cell_length_c 14.797733
_cell_angle_alpha 90.000000
_cell_angle_beta 90.000000
_cell_angle_gamma 90.000000
_cell_volume 4542.339859
_symmetry_space_group_name_H-M "I B A M"
_symmetry_group_IT_number 72
_symmetry_cell_setting 'orthorhombic'
loop_
_space_group_symop_operation_xyz
x,y,z
-x,-y,z
x,-y,1/2-z
-x,y,1/2-z
-x,-y,-z
x,y,-z
-x,y,1/2+z
x,-y,1/2+z
1/2+x,1/2+y,1/2+z
1/2-x,1/2-y,1/2+z
1/2+x,1/2-y,-z
1/2-x,1/2+y,-z
1/2-x,1/2-y,1/2-z
1/2+x,1/2+y,1/2-z
1/2-x,1/2+y,z
1/2+x,1/2-y,z
loop_
_atom_site_type_symbol
_atom_site_label
_atom_site_fract_x
_atom_site_fract_y
_atom_site_fract_z
Si Si1 0.228289 0.008130 0.000000
Si Si2 0.267116 0.749406 0.143931
Si Si3 0.453807 0.694077 0.155694
Si Si4 0.002905 0.707929 0.500000
Si Si5 0.675925 0.846631 0.000000
Si Si6 0.191696 0.357733 0.000000
Si Si7 0.413374 0.469267 0.648156
O O1 0.285803 0.076644 0.000000
O O2 0.165966 0.012398 0.913569
O O3 0.284660 0.938637 0.000000
O O4 0.250000 0.750000 0.250000
O O5 0.362771 0.725937 0.141217
O O6 0.211342 0.695244 0.087124
O O7 0.265996 0.821481 0.088148
O O8 0.500000 0.704701 0.250000
O O9 0.505477 0.738101 0.082989
O O10 0.434268 0.612493 0.147296
O O11 0.092473 0.665861 0.500000
O O12 0.924331 0.656447 0.500000
O O13 0.500000 0.500000 0.611100
O O14 0.402181 0.500000 0.750000
#
# Coordination Sequence:
#
# PCOD9527898 Si02
#       7
#     8  16  16   8   8   8  16
#     4  12  24  39  61  86 125 159 197 252 299 349
#     4  10  21  38  60  86 118 154 204 247 293 354
#     4  11  20  38  60  85 120 155 192 247 296 358
#     4  10  23  41  60  84 117 157 213 249 294 342
#     4  11  22  39  62  88 114 165 203 248 302 341
#     4   9  24  39  58  90 118 157 205 248 298 355
#     4  11  23  38  56  88 125 156 191 232 308 375
#
# _framework density 17.612068000000001
#
# number of rings (size 3 to 8) (size 9 to 14) (size 15 to 20)
#    0.000    1.400    4.000    2.700    2.800    3.600 
#    0.000    0.000    0.000    0.000    0.000    5.600 
#    0.000    0.000    0.000    0.000    0.000    0.000 
#
# Total GULP energy -222866.176213 kJ/mol
# GULP energy per Si atom -5571.654405 kJ/mol
# Density = 1.757198 g / cm^3
# Si number density = 17.612068 Si / 1000 Ang^3
#
#
#
# Elastic Constant Matrix: (Units=GPa)
#
#
# Indices 1 2 3 4 5 6 
#
# 1 90.5553 58.7065 48.9114 0.0000 0.0000 0.0000
# 2 58.7065 147.3275 63.7133 0.0000 0.0000 0.0000
# 3 48.9114 63.7133 129.8649 0.0000 0.0000 0.0000
# 4 0.0000 0.0000 0.0000 18.6174 0.0000 0.0000
# 5 0.0000 0.0000 0.0000 0.0000 38.6288 0.0000
# 6 0.0000 0.0000 0.0000 0.0000 0.0000 27.5069
#
#
#
# Elastic Compliance Matrix: (Units=1/GPa)
#
#
# Indices 1 2 3 4 5 6 
#
# 1 0.016193 -0.004843 -0.003723 0.000000 0.000000 0.000000
# 2 -0.004843 0.010064 -0.003114 0.000000 0.000000 0.000000
# 3 -0.003723 -0.003114 0.010630 0.000000 0.000000 0.000000
# 4 0.000000 0.000000 0.000000 0.053713 0.000000 0.000000
# 5 0.000000 0.000000 0.000000 0.000000 0.025887 0.000000
# 6 0.000000 0.000000 0.000000 0.000000 0.000000 0.036355
#
#
# Mechanical properties :
#
#
# Convention : Reuss Voigt Hill
#
# Bulk Modulus (GPa) = 73.91665 78.93443 76.42554
# Shear Modulus (GPa) = 27.66861 30.04505 28.85683
#
# Velocity S-wave (km/s) = 3.96789 4.13478 4.05219
# Velocity P-wave (km/s) = 7.94057 8.22866 8.08590
#
# Compressibility (1/GPa) = 0.01352875
#
# Stress axis : x y z
#
# Youngs Moduli (GPa) = 61.75379 99.36688 94.07258
#
# Poissons Ratio (x) = 0.48119 0.35024
# Poissons Ratio (y) = 0.29905 0.29290
# Poissons Ratio (z) = 0.22992 0.30938
#
# Static dielectric constant tensor:
#      x y z
#    x 1.596250 0.000000 0.000000 
#    y 0.000000 1.637450 0.000000 
#    z 0.000000 0.000000 1.556240 
# 
# From -- ./inp_files/23165.got.cif
#   From: 2010.05.17/outbox.cif.g08.bks.cpg/sg72_12_cif.got.tgz:23165.got - 2010.06.03 17:03:01.
