data_PCOD9527451
_publ_section_title
;
Structure prediction by ZEFSAII (Michael W. Deem and Ramdas Pophale) SiO2 
 PCOD9527451
Probable space group: I B A M
;
_chemical_formula_sum "Si O2"
_cell_formula_units_Z 56
_cell_length_a 5.396587
_cell_length_b 16.746328
_cell_length_c 27.924955
_cell_angle_alpha 90.000000
_cell_angle_beta 90.000000
_cell_angle_gamma 90.000000
_cell_volume 2523.662405
_symmetry_space_group_name_H-M "I B A M"
_symmetry_group_IT_number 72
_symmetry_cell_setting 'orthorhombic'
loop_
_space_group_symop_operation_xyz
x,y,z
-x,-y,z
x,-y,1/2-z
-x,y,1/2-z
-x,-y,-z
x,y,-z
-x,y,1/2+z
x,-y,1/2+z
1/2+x,1/2+y,1/2+z
1/2-x,1/2-y,1/2+z
1/2+x,1/2-y,-z
1/2-x,1/2+y,-z
1/2-x,1/2-y,1/2-z
1/2+x,1/2+y,1/2-z
1/2-x,1/2+y,z
1/2+x,1/2-y,z
loop_
_atom_site_type_symbol
_atom_site_label
_atom_site_fract_x
_atom_site_fract_y
_atom_site_fract_z
Si Si1 0.000000 0.800739 0.250000
Si Si2 0.570165 0.801611 0.500000
Si Si3 0.000000 0.000000 0.500000
Si Si4 0.644022 0.418808 0.825712
Si Si5 0.500000 0.000000 0.250000
Si Si6 0.143499 0.582226 0.076070
O O1 0.250000 0.750000 0.250000
O O2 0.981505 0.855454 0.297412
O O3 0.835534 0.758695 0.500000
O O4 0.532922 0.859085 0.545904
O O5 0.133531 0.944045 0.541405
O O6 0.500000 0.500000 0.839138
O O7 0.838636 0.446078 0.785359
O O8 0.763915 0.384427 0.873644
O O9 0.000000 0.500000 0.086449
#
# Coordination Sequence:
#
# PCOD9527451 Si02
#       6
#     8   8   4  16   4  16
#     4  12  28  46  69 105 156 196 236 298 370 448
#     4  11  28  47  70 102 152 193 230 293 369 447
#     4  10  20  40  64 104 132 166 232 312 366 410
#     4  12  24  43  75 105 137 191 248 309 357 431
#     4  12  20  44  72 106 144 170 250 306 370 404
#     4  11  25  42  76 104 138 186 252 306 364 427
#
# _framework density 22.189972999999998
#
# number of rings (size 3 to 8) (size 9 to 14) (size 15 to 20)
#    0.000    0.571    5.714    2.571    8.000    2.286 
#    0.000    0.000    0.000    0.000    0.000    0.000 
#    0.000    0.000    0.000    0.000    0.000    0.000 
#
# Total GULP energy -156214.968076 kJ/mol
# GULP energy per Si atom -5579.106003 kJ/mol
# Density = 2.213947 g / cm^3
# Si number density = 22.189973 Si / 1000 Ang^3
#
#
#
# Elastic Constant Matrix: (Units=GPa)
#
#
# Indices 1 2 3 4 5 6 
#
# 1 74.4527 19.0908 13.3303 0.0000 0.0000 0.0000
# 2 19.0908 63.6748 5.9187 0.0000 0.0000 0.0000
# 3 13.3303 5.9187 161.3134 0.0000 0.0000 0.0000
# 4 0.0000 0.0000 0.0000 -1.1230 0.0000 0.0000
# 5 0.0000 0.0000 0.0000 0.0000 2.4888 0.0000
# 6 0.0000 0.0000 0.0000 0.0000 0.0000 56.3008
#
#
#
# Elastic Compliance Matrix: (Units=1/GPa)
#
#
# Indices 1 2 3 4 5 6 
#
# 1 0.014728 -0.004317 -0.001059 0.000000 0.000000 0.000000
# 2 -0.004317 0.017024 -0.000268 0.000000 0.000000 0.000000
# 3 -0.001059 -0.000268 0.006296 0.000000 0.000000 0.000000
# 4 0.000000 0.000000 0.000000 -0.890468 0.000000 0.000000
# 5 0.000000 0.000000 0.000000 0.000000 0.401805 0.000000
# 6 0.000000 0.000000 0.000000 0.000000 0.000000 0.017762
#
#
# Mechanical properties :
#
#
# Convention : Reuss Voigt Hill
#
# Bulk Modulus (GPa) = 37.36803 41.79116 39.57959
# Shear Modulus (GPa) = -12.11696 28.94004 8.41154
#
# Velocity S-wave (km/s) = -2.33932 3.61528 1.94908
# Velocity P-wave (km/s) = 3.09517 6.02505 4.78964
#
# Compressibility (1/GPa) = 0.02676085
#
# Stress axis : x y z
#
# Youngs Moduli (GPa) = 67.89827 58.74026 158.82026
#
# Poissons Ratio (x) = 0.25360 0.16814
# Poissons Ratio (y) = 0.29314 0.04254
# Poissons Ratio (z) = 0.07188 0.01573
#
# Static dielectric constant tensor:
#      x y z
#    x 1.959930 0.000000 0.000000 
#    y 0.000000 1.853960 0.000000 
#    z 0.000000 0.000000 1.792990 
# 
# From -- ./inp_files/46493.got.cif
#   From: 2010.05.17/outbox.cif.g08.bks.cpg/sg72_24_cif.got.tgz:46493.got - 2010.06.03 17:03:01.
