data_PCOD9527430
_publ_section_title
;
Structure prediction by ZEFSAII (Michael W. Deem and Ramdas Pophale) SiO2 
 PCOD9527430
Probable space group: I B A M
;
_chemical_formula_sum "Si O2"
_cell_formula_units_Z 88
_cell_length_a 11.562182
_cell_length_b 23.799602
_cell_length_c 14.145284
_cell_angle_alpha 90.000000
_cell_angle_beta 90.000000
_cell_angle_gamma 90.000000
_cell_volume 3892.433191
_symmetry_space_group_name_H-M "I B A M"
_symmetry_group_IT_number 72
_symmetry_cell_setting 'orthorhombic'
loop_
_space_group_symop_operation_xyz
x,y,z
-x,-y,z
x,-y,1/2-z
-x,y,1/2-z
-x,-y,-z
x,y,-z
-x,y,1/2+z
x,-y,1/2+z
1/2+x,1/2+y,1/2+z
1/2-x,1/2-y,1/2+z
1/2+x,1/2-y,-z
1/2-x,1/2+y,-z
1/2-x,1/2-y,1/2-z
1/2+x,1/2+y,1/2-z
1/2-x,1/2+y,z
1/2+x,1/2-y,z
loop_
_atom_site_type_symbol
_atom_site_label
_atom_site_fract_x
_atom_site_fract_y
_atom_site_fract_z
Si Si1 0.630484 0.509978 0.138912
Si Si2 0.314957 0.084910 0.892592
Si Si3 0.000000 0.613717 0.250000
Si Si4 0.880684 0.861709 0.610871
Si Si5 0.149268 0.694444 0.615546
Si Si6 0.628742 0.324622 0.114325
O O1 0.500000 0.500000 0.102260
O O2 0.626396 0.500000 0.250000
O O3 0.724812 0.466396 0.102543
O O4 0.660391 0.574555 0.121807
O O5 0.412678 0.077478 0.813984
O O6 0.239998 0.138885 0.858902
O O7 0.359379 0.094387 0.000000
O O8 0.933871 0.653533 0.174333
O O9 0.890454 0.849688 0.500000
O O10 0.780764 0.820493 0.644730
O O11 0.010269 0.853573 0.647961
O O12 0.137165 0.687390 0.500000
O O13 0.127299 0.759390 0.639363
O O14 0.631663 0.327130 0.000000
#
# Coordination Sequence:
#
# PCOD9527430 Si02
#       6
#    16  16   8  16  16  16
#     4  11  22  39  65 104 140 172 221 290 349 404
#     4  11  24  44  70  99 139 184 230 287 344 405
#     4  12  26  44  63 100 138 189 238 270 334 420
#     4  10  20  39  68  97 130 173 227 285 343 405
#     4  10  23  43  65  94 137 184 230 284 345 412
#     4   9  20  39  66  98 131 172 225 287 346 405
#
# _framework density 22.607968
#
# number of rings (size 3 to 8) (size 9 to 14) (size 15 to 20)
#    0.000    1.636    1.818    2.182    2.545    1.455 
#    3.273    4.091    0.000    6.545    0.000    0.000 
#    0.000    0.000    0.000    0.000    0.000    0.000 
#
# Total GULP energy -246061.984197 kJ/mol
# GULP energy per Si atom -5592.317823 kJ/mol
# Density = 2.255651 g / cm^3
# Si number density = 22.607968 Si / 1000 Ang^3
#
#
#
# Elastic Constant Matrix: (Units=GPa)
#
#
# Indices 1 2 3 4 5 6 
#
# 1 105.6275 28.9972 45.1922 0.0000 0.0000 0.0000
# 2 28.9972 72.7823 9.1822 -0.0001 0.0000 0.0000
# 3 45.1922 9.1822 127.1999 0.0000 0.0001 -0.0001
# 4 0.0000 -0.0001 0.0000 26.8722 0.0001 0.0000
# 5 0.0000 0.0000 0.0001 0.0001 -11.0446 0.0000
# 6 0.0000 0.0000 -0.0001 0.0000 0.0000 -5.0786
#
#
#
# Elastic Compliance Matrix: (Units=1/GPa)
#
#
# Indices 1 2 3 4 5 6 
#
# 1 0.012440 -0.004439 -0.004099 0.000000 0.000000 0.000000
# 2 -0.004439 0.015450 0.000462 0.000000 0.000000 0.000000
# 3 -0.004099 0.000462 0.009285 0.000000 0.000000 0.000000
# 4 0.000000 0.000000 0.000000 0.037213 0.000000 0.000000
# 5 0.000000 0.000000 0.000000 0.000000 -0.090542 0.000000
# 6 0.000000 0.000000 0.000000 0.000000 0.000000 -0.196905
#
#
# Mechanical properties :
#
#
# Convention : Reuss Voigt Hill
#
# Bulk Modulus (GPa) = 47.57019 52.48364 50.02692
# Shear Modulus (GPa) = -26.32976 16.96567 -4.68205
#
# Velocity S-wave (km/s) = -3.41636 2.74237 -1.44065
# Velocity P-wave (km/s) = 2.35053 5.76997 4.40554
#
# Compressibility (1/GPa) = 0.02102157
#
# Stress axis : x y z
#
# Youngs Moduli (GPa) = 80.38822 64.72553 107.70428
#
# Poissons Ratio (x) = 0.28731 0.44150
# Poissons Ratio (y) = 0.35684 -0.04974
# Poissons Ratio (z) = 0.32953 -0.02989
#
# Static dielectric constant tensor:
#      x y z
#    x 1.853860 0.000000 0.000000 
#    y 0.000000 1.788370 0.000000 
#    z 0.000000 0.000000 1.850230 
# 
# From -- ./inp_files/20311.got.cif
#   From: 2010.05.17/outbox.cif.g08.bks.cpg/sg72_11_cif.got.tgz:20311.got - 2010.06.03 17:03:01.
