data_PCOD9527957
_publ_section_title
;
Structure prediction by ZEFSAII (Michael W. Deem and Ramdas Pophale) SiO2 
 PCOD9527957
Probable space group: I B A M
;
_chemical_formula_sum "Si O2"
_cell_formula_units_Z 56
_cell_length_a 25.287199
_cell_length_b 8.002002
_cell_length_c 11.294046
_cell_angle_alpha 90.000000
_cell_angle_beta 90.000000
_cell_angle_gamma 90.000000
_cell_volume 2285.330071
_symmetry_space_group_name_H-M "I B A M"
_symmetry_group_IT_number 72
_symmetry_cell_setting 'orthorhombic'
loop_
_space_group_symop_operation_xyz
x,y,z
-x,-y,z
x,-y,1/2-z
-x,y,1/2-z
-x,-y,-z
x,y,-z
-x,y,1/2+z
x,-y,1/2+z
1/2+x,1/2+y,1/2+z
1/2-x,1/2-y,1/2+z
1/2+x,1/2-y,-z
1/2-x,1/2+y,-z
1/2-x,1/2-y,1/2-z
1/2+x,1/2+y,1/2-z
1/2-x,1/2+y,z
1/2+x,1/2-y,z
loop_
_atom_site_type_symbol
_atom_site_label
_atom_site_fract_x
_atom_site_fract_y
_atom_site_fract_z
Si Si1 0.291212 0.000000 0.250000
Si Si2 0.660883 0.629815 0.500000
Si Si3 0.975307 0.812447 0.367777
Si Si4 0.755901 0.111510 0.000000
Si Si5 0.862036 0.182458 0.753424
O O1 0.325760 0.837725 0.283216
O O2 0.262324 0.044526 0.371629
O O3 0.718862 0.720289 0.500000
O O4 0.680798 0.434837 0.500000
O O5 0.627712 0.693358 0.387785
O O6 0.982137 0.740404 0.500000
O O7 0.913715 0.824910 0.333384
O O8 0.000000 0.728157 0.250000
O O9 0.000000 0.000000 0.372196
O O10 0.835688 0.000000 0.750000
#
# Coordination Sequence:
#
# PCOD9527957 Si02
#       5
#     8   8  16   8  16
#     4  10  26  44  63  98 138 170 221 280 316 398
#     4  10  26  40  65 101 129 175 225 277 322 394
#     4  10  21  38  64  98 129 165 213 271 320 390
#     4  10  24  46  64  95 138 168 227 279 322 386
#     4  11  24  40  68  95 129 177 220 265 334 391
#
# _framework density 24.504117000000001
#
# number of rings (size 3 to 8) (size 9 to 14) (size 15 to 20)
#    0.000    1.714    2.857    0.000   12.000    2.286 
#    0.000    0.714    0.000    1.714    0.000    0.000 
#    0.000    0.000    0.000    0.000    0.000    0.000 
#
# Total GULP energy -156089.633323 kJ/mol
# GULP energy per Si atom -5574.629762 kJ/mol
# Density = 2.444834 g / cm^3
# Si number density = 24.504117 Si / 1000 Ang^3
#
#
#
# Elastic Constant Matrix: (Units=GPa)
#
#
# Indices 1 2 3 4 5 6 
#
# 1 116.5018 36.2001 51.5231 0.0000 0.0000 0.0000
# 2 36.2001 80.0216 16.6148 0.0000 0.0000 0.0000
# 3 51.5231 16.6148 187.3047 0.0000 0.0000 0.0000
# 4 0.0000 0.0000 0.0000 15.5157 0.0000 0.0000
# 5 0.0000 0.0000 0.0000 0.0000 -43.6028 0.0000
# 6 0.0000 0.0000 0.0000 0.0000 0.0000 -44.6032
#
#
#
# Elastic Compliance Matrix: (Units=1/GPa)
#
#
# Indices 1 2 3 4 5 6 
#
# 1 0.011162 -0.004495 -0.002672 0.000000 0.000000 0.000000
# 2 -0.004495 0.014541 -0.000054 0.000000 0.000000 0.000000
# 3 -0.002672 -0.000054 0.006079 0.000000 0.000000 0.000000
# 4 0.000000 0.000000 0.000000 0.064451 0.000000 0.000000
# 5 0.000000 0.000000 0.000000 0.000000 -0.022934 0.000000
# 6 0.000000 0.000000 0.000000 0.000000 0.000000 -0.022420
#
#
# Mechanical properties :
#
#
# Convention : Reuss Voigt Hill
#
# Bulk Modulus (GPa) = 57.66422 65.83379 61.74901
# Shear Modulus (GPa) = 70.32559 4.09462 37.21010
#
# Velocity S-wave (km/s) = 5.36300 1.29407 3.90105
# Velocity P-wave (km/s) = 7.86973 5.39978 6.74871
#
# Compressibility (1/GPa) = 0.01734177
#
# Stress axis : x y z
#
# Youngs Moduli (GPa) = 89.59229 68.77108 164.51321
#
# Poissons Ratio (x) = 0.30910 0.43952
# Poissons Ratio (y) = 0.40268 0.00880
# Poissons Ratio (z) = 0.23936 0.00368
#
# Static dielectric constant tensor:
#      x y z
#    x 1.948620 0.000000 0.000000 
#    y 0.000000 2.011210 0.000000 
#    z 0.000000 0.000000 2.029310 
# 
# From -- ./inp_files/10415.got.cif
#   From: 2010.05.17/outbox.cif.g08.bks.cpg/sg72_6_cif.got.tgz:10415.got - 2010.06.03 17:03:01.
