data_PCOD9527975
_publ_section_title
;
Structure prediction by ZEFSAII (Michael W. Deem and Ramdas Pophale) SiO2 
 PCOD9527975
Probable space group: I B A M
;
_chemical_formula_sum "Si O2"
_cell_formula_units_Z 64
_cell_length_a 8.517280
_cell_length_b 26.979389
_cell_length_c 13.089604
_cell_angle_alpha 90.000000
_cell_angle_beta 90.000000
_cell_angle_gamma 90.000000
_cell_volume 3007.873328
_symmetry_space_group_name_H-M "I B A M"
_symmetry_group_IT_number 72
_symmetry_cell_setting 'orthorhombic'
loop_
_space_group_symop_operation_xyz
x,y,z
-x,-y,z
x,-y,1/2-z
-x,y,1/2-z
-x,-y,-z
x,y,-z
-x,y,1/2+z
x,-y,1/2+z
1/2+x,1/2+y,1/2+z
1/2-x,1/2-y,1/2+z
1/2+x,1/2-y,-z
1/2-x,1/2+y,-z
1/2-x,1/2-y,1/2-z
1/2+x,1/2+y,1/2-z
1/2-x,1/2+y,z
1/2+x,1/2-y,z
loop_
_atom_site_type_symbol
_atom_site_label
_atom_site_fract_x
_atom_site_fract_y
_atom_site_fract_z
Si Si1 0.406601 0.308320 0.500000
Si Si2 0.869361 0.630385 0.174579
Si Si3 0.878822 0.880155 0.171996
Si Si4 0.785693 0.554143 0.500000
Si Si5 0.974066 0.303119 0.000000
Si Si6 0.666862 0.940814 0.500000
O O1 0.457387 0.340015 0.597983
O O2 0.475605 0.253815 0.500000
O O3 0.214891 0.308149 0.500000
O O4 0.742035 0.649186 0.254860
O O5 0.951205 0.669650 0.099118
O O6 0.000000 0.607388 0.250000
O O7 0.792306 0.589595 0.101187
O O8 0.788930 0.918585 0.098254
O O9 0.000000 0.904604 0.250000
O O10 0.762142 0.495301 0.500000
O O11 0.974994 0.559620 0.500000
#
# Coordination Sequence:
#
# PCOD9527975 Si02
#       6
#     8  16  16   8   8   8
#     4  11  25  43  61  98 131 170 216 275 322 383
#     4  11  20  42  64  92 126 172 216 263 317 382
#     4  11  24  42  66  92 136 174 208 268 330 388
#     4  10  21  42  62 100 127 159 220 267 317 385
#     4  11  25  39  65  96 133 163 224 273 315 389
#     4  10  21  38  70  94 125 163 216 275 312 376
#
# _framework density 21.277493
#
# number of rings (size 3 to 8) (size 9 to 14) (size 15 to 20)
#    0.000    1.250    5.000    1.500    3.500    6.000 
#    0.000    3.750    0.000    0.000    0.000    0.000 
#    0.000    0.000    0.000    0.000    0.000    0.000 
#
# Total GULP energy -178707.185190 kJ/mol
# GULP energy per Si atom -5584.599537 kJ/mol
# Density = 2.122906 g / cm^3
# Si number density = 21.277493 Si / 1000 Ang^3
#
#
#
# Elastic Constant Matrix: (Units=GPa)
#
#
# Indices 1 2 3 4 5 6 
#
# 1 59.0500 13.2041 44.3474 -0.0001 0.0000 0.0000
# 2 13.2041 135.8249 57.5533 -0.0001 0.0000 0.0000
# 3 44.3474 57.5533 166.6932 -0.0003 -0.0001 -0.0001
# 4 -0.0001 -0.0001 -0.0003 0.2890 0.0000 0.0000
# 5 0.0000 0.0000 -0.0001 0.0000 31.3194 0.0000
# 6 0.0000 0.0000 -0.0001 0.0000 0.0000 28.3963
#
#
#
# Elastic Compliance Matrix: (Units=1/GPa)
#
#
# Indices 1 2 3 4 5 6 
#
# 1 0.021180 0.000385 -0.005768 -0.000002 0.000000 0.000000
# 2 0.000385 0.008631 -0.003082 0.000000 0.000000 0.000000
# 3 -0.005768 -0.003082 0.008598 0.000006 0.000000 0.000000
# 4 -0.000002 0.000000 0.000006 3.460455 0.000005 0.000004
# 5 0.000000 0.000000 0.000000 0.000005 0.031929 0.000000
# 6 0.000000 0.000000 0.000000 0.000004 0.000000 0.035216
#
#
# Mechanical properties :
#
#
# Convention : Reuss Voigt Hill
#
# Bulk Modulus (GPa) = 46.55760 65.75309 56.15535
# Shear Modulus (GPa) = 1.39272 28.43179 14.91226
#
# Velocity S-wave (km/s) = 0.80992 3.65942 2.65022
# Velocity P-wave (km/s) = 4.77528 6.98748 5.98449
#
# Compressibility (1/GPa) = 0.02147877
#
# Stress axis : x y z
#
# Youngs Moduli (GPa) = 47.21339 115.85973 116.30900
#
# Poissons Ratio (x) = -0.04460 0.67085
# Poissons Ratio (y) = -0.01818 0.35852
# Poissons Ratio (z) = 0.27232 0.35713
#
# Static dielectric constant tensor:
#      x y z
#    x 1.842190 0.000000 0.000000 
#    y 0.000000 1.721890 0.000000 
#    z 0.000000 0.000000 1.739400 
# 
# From -- ./inp_files/10590.got.cif
#   From: 2010.05.17/outbox.cif.g08.bks.cpg/sg72_6_cif.got.tgz:10590.got - 2010.06.03 17:03:01.
