data_PCOD9527747
_publ_section_title
;
Structure prediction by ZEFSAII (Michael W. Deem and Ramdas Pophale) SiO2 
 PCOD9527747
Probable space group: I B A M
;
_chemical_formula_sum "Si O2"
_cell_formula_units_Z 116
_cell_length_a 26.541750
_cell_length_b 23.537638
_cell_length_c 10.283362
_cell_angle_alpha 90.000000
_cell_angle_beta 90.000000
_cell_angle_gamma 90.000000
_cell_volume 6424.325805
_symmetry_space_group_name_H-M "I B A M"
_symmetry_group_IT_number 72
_symmetry_cell_setting 'orthorhombic'
loop_
_space_group_symop_operation_xyz
x,y,z
-x,-y,z
x,-y,1/2-z
-x,y,1/2-z
-x,-y,-z
x,y,-z
-x,y,1/2+z
x,-y,1/2+z
1/2+x,1/2+y,1/2+z
1/2-x,1/2-y,1/2+z
1/2+x,1/2-y,-z
1/2-x,1/2+y,-z
1/2-x,1/2-y,1/2-z
1/2+x,1/2+y,1/2-z
1/2-x,1/2+y,z
1/2+x,1/2-y,z
loop_
_atom_site_type_symbol
_atom_site_label
_atom_site_fract_x
_atom_site_fract_y
_atom_site_fract_z
Si Si1 0.157781 0.831854 0.157203
Si Si2 0.000000 0.500000 0.250000
Si Si3 0.312530 0.110653 0.650823
Si Si4 0.562664 0.188692 0.639967
Si Si5 0.041876 0.180648 0.650552
Si Si6 0.210877 0.049676 0.652473
Si Si7 0.929074 0.596412 0.147857
Si Si8 0.683180 0.790051 0.851026
O O1 0.099011 0.832206 0.195907
O O2 0.184033 0.890972 0.188381
O O3 0.186935 0.774734 0.200666
O O4 0.157398 0.826323 0.000000
O O5 0.962928 0.541089 0.169745
O O6 0.309961 0.130918 0.500000
O O7 0.270412 0.062586 0.664238
O O8 0.369212 0.088033 0.674363
O O9 0.300305 0.161693 0.750233
O O10 0.549424 0.162423 0.500000
O O11 0.538409 0.250625 0.648506
O O12 0.553699 0.145979 0.756123
O O13 0.622652 0.200863 0.639666
O O14 0.035739 0.161616 0.500000
O O15 0.000000 0.158478 0.750000
O O16 0.199981 0.037341 0.500000
O O17 0.196020 0.000000 0.750000
O O18 0.933075 0.615632 0.000000
O O19 0.703068 0.795491 0.000000
#
# Coordination Sequence:
#
# PCOD9527747 Si02
#       8
#    16   4  16  16  16  16  16  16
#     4   8  16  33  54  77 109 142 171 208 256 311
#     4  12  26  36  48  66  94 136 180 222 258 296
#     4   9  19  35  54  77 104 131 166 219 273 310
#     4   8  16  31  50  72  99 130 162 203 251 303
#     4   9  17  30  51  79 107 136 167 199 246 305
#     4  10  21  37  57  78 103 138 176 215 261 310
#     4  10  22  38  51  67  94 130 174 219 260 302
#     4   8  14  29  53  78 103 134 169 202 252 316
#
# _framework density 18.056370000000001
#
# number of rings (size 3 to 8) (size 9 to 14) (size 15 to 20)
#    0.000    3.034    0.000    1.862    1.931    2.759 
#    0.000    3.448    0.000    0.414    0.000    2.897 
#    0.000    0.000    0.000    0.000    0.000    0.000 
#
# Total GULP energy -323158.640874 kJ/mol
# GULP energy per Si atom -5571.700705 kJ/mol
# Density = 1.801527 g / cm^3
# Si number density = 18.056370 Si / 1000 Ang^3
#
#
#
# Elastic Constant Matrix: (Units=GPa)
#
#
# Indices 1 2 3 4 5 6 
#
# 1 56.9521 20.7424 22.3574 0.0000 0.0000 0.0000
# 2 20.7424 88.7768 47.9131 0.0000 0.0000 0.0000
# 3 22.3574 47.9131 83.9149 0.0000 0.0000 0.0000
# 4 0.0000 0.0000 0.0000 25.5223 0.0000 0.0000
# 5 0.0000 0.0000 0.0000 0.0000 18.9241 0.0000
# 6 0.0000 0.0000 0.0000 0.0000 0.0000 21.7530
#
#
#
# Elastic Compliance Matrix: (Units=1/GPa)
#
#
# Indices 1 2 3 4 5 6 
#
# 1 0.020016 -0.002600 -0.003849 0.000000 0.000000 0.000000
# 2 -0.002600 0.016619 -0.008796 0.000000 0.000000 0.000000
# 3 -0.003849 -0.008796 0.017965 0.000000 0.000000 0.000000
# 4 0.000000 0.000000 0.000000 0.039181 0.000000 0.000000
# 5 0.000000 0.000000 0.000000 0.000000 0.052843 0.000000
# 6 0.000000 0.000000 0.000000 0.000000 0.000000 0.045971
#
#
# Mechanical properties :
#
#
# Convention : Reuss Voigt Hill
#
# Bulk Modulus (GPa) = 41.47528 45.74106 43.60817
# Shear Modulus (GPa) = 21.63369 22.48193 22.05781
#
# Velocity S-wave (km/s) = 3.46514 3.53242 3.49894
# Velocity P-wave (km/s) = 6.24735 6.48265 6.36608
#
# Compressibility (1/GPa) = 0.02411075
#
# Stress axis : x y z
#
# Youngs Moduli (GPa) = 49.95944 60.17190 55.66465
#
# Poissons Ratio (x) = 0.15642 0.21423
# Poissons Ratio (y) = 0.12988 0.48965
# Poissons Ratio (z) = 0.19227 0.52930
#
# Static dielectric constant tensor:
#      x y z
#    x 1.656980 0.000000 0.000000 
#    y 0.000000 1.604490 0.000000 
#    z 0.000000 0.000000 1.631280 
# 
# From -- ./inp_files/9342.got.cif
#   From: 2010.05.17/outbox.cif.g08.bks.cpg/sg72_5_cif.got.tgz:9342.got - 2010.06.03 17:03:01.
