data_PCOD9527311
_publ_section_title
;
Structure prediction by ZEFSAII (Michael W. Deem and Ramdas Pophale) SiO2 
 PCOD9527311
Probable space group: I B A M
;
_chemical_formula_sum "Si O2"
_cell_formula_units_Z 68
_cell_length_a 15.318533
_cell_length_b 8.067656
_cell_length_c 28.370927
_cell_angle_alpha 90.000000
_cell_angle_beta 90.000000
_cell_angle_gamma 90.000000
_cell_volume 3506.211216
_symmetry_space_group_name_H-M "I B A M"
_symmetry_group_IT_number 72
_symmetry_cell_setting 'orthorhombic'
loop_
_space_group_symop_operation_xyz
x,y,z
-x,-y,z
x,-y,1/2-z
-x,y,1/2-z
-x,-y,-z
x,y,-z
-x,y,1/2+z
x,-y,1/2+z
1/2+x,1/2+y,1/2+z
1/2-x,1/2-y,1/2+z
1/2+x,1/2-y,-z
1/2-x,1/2+y,-z
1/2-x,1/2-y,1/2-z
1/2+x,1/2+y,1/2-z
1/2-x,1/2+y,z
1/2+x,1/2-y,z
loop_
_atom_site_type_symbol
_atom_site_label
_atom_site_fract_x
_atom_site_fract_y
_atom_site_fract_z
Si Si1 0.851517 0.306172 0.195645
Si Si2 0.000000 0.000000 0.077330
Si Si3 0.639378 0.541659 0.500000
Si Si4 0.072206 0.358328 0.599545
Si Si5 0.298036 0.500000 0.750000
Si Si6 0.500000 0.000000 0.750000
Si Si7 0.838416 0.650702 0.500000
O O1 0.855706 0.347570 0.140536
O O2 0.765608 0.389067 0.217796
O O3 0.850430 0.117818 0.214338
O O4 0.936704 0.390084 0.218113
O O5 0.921605 0.927012 0.044960
O O6 0.034127 0.830756 0.101161
O O7 0.735420 0.615560 0.500000
O O8 0.652201 0.346423 0.500000
O O9 0.113700 0.402172 0.548407
O O10 0.000000 0.500000 0.609365
#
# Coordination Sequence:
#
# PCOD9527311 Si02
#       7
#    16   8   8  16   8   4   8
#     4  10  21  41  63  93 121 165 207 265 329 388
#     4   9  22  40  58  87 130 162 212 261 318 373
#     4   9  20  40  57  86 123 169 214 267 308 369
#     4  11  23  41  63  93 129 172 214 269 322 387
#     4   9  22  42  64  87 130 156 208 277 324 390
#     4  10  20  38  60  88 120 152 212 254 316 388
#     4  10  23  36  62  94 125 174 220 256 321 384
#
# _framework density 19.394154
#
# number of rings (size 3 to 8) (size 9 to 14) (size 15 to 20)
#    0.000    2.118    1.176    1.059    3.294    6.118 
#    4.235    0.000    0.000    0.000    0.000    0.000 
#    0.000    0.000    0.000    0.000    0.000    0.000 
#
# Total GULP energy -189407.880744 kJ/mol
# GULP energy per Si atom -5570.820022 kJ/mol
# Density = 1.935001 g / cm^3
# Si number density = 19.394154 Si / 1000 Ang^3
#
#
#
# Elastic Constant Matrix: (Units=GPa)
#
#
# Indices 1 2 3 4 5 6 
#
# 1 75.1532 25.1462 29.4764 0.0000 0.0000 0.0000
# 2 25.1462 61.6416 33.4632 0.0000 0.0000 0.0000
# 3 29.4764 33.4632 123.0110 0.0000 0.0000 0.0000
# 4 0.0000 0.0000 0.0000 23.2428 0.0000 0.0000
# 5 0.0000 0.0000 0.0000 0.0000 39.2134 0.0000
# 6 0.0000 0.0000 0.0000 0.0000 0.0000 -3.1082
#
#
#
# Elastic Compliance Matrix: (Units=1/GPa)
#
#
# Indices 1 2 3 4 5 6 
#
# 1 0.015998 -0.005215 -0.002415 0.000000 0.000000 0.000000
# 2 -0.005215 0.020734 -0.004391 0.000000 0.000000 0.000000
# 3 -0.002415 -0.004391 0.009902 0.000000 0.000000 0.000000
# 4 0.000000 0.000000 0.000000 0.043024 0.000000 0.000000
# 5 0.000000 0.000000 0.000000 0.000000 0.025502 0.000000
# 6 0.000000 0.000000 0.000000 0.000000 0.000000 -0.321734
#
#
# Mechanical properties :
#
#
# Convention : Reuss Voigt Hill
#
# Bulk Modulus (GPa) = 44.26161 48.44192 46.35177
# Shear Modulus (GPa) = -28.57123 23.31760 -2.62681
#
# Velocity S-wave (km/s) = -3.84238 3.47118 -1.16506
# Velocity P-wave (km/s) = 1.78509 6.41072 4.70552
#
# Compressibility (1/GPa) = 0.02259294
#
# Stress axis : x y z
#
# Youngs Moduli (GPa) = 62.50631 48.23016 100.98584
#
# Poissons Ratio (x) = 0.25154 0.24386
# Poissons Ratio (y) = 0.32600 0.44339
# Poissons Ratio (z) = 0.15094 0.21176
#
# Static dielectric constant tensor:
#      x y z
#    x 1.546370 0.000000 0.000000 
#    y 0.000000 1.674570 0.000000 
#    z 0.000000 0.000000 1.738990 
# 
# From -- ./inp_files/47005.got.cif
#   From: 2010.05.17/outbox.cif.g08.bks.cpg/sg72_24_cif.got.tgz:47005.got - 2010.06.03 17:03:01.
