data_PCOD9527340
_publ_section_title
;
Structure prediction by ZEFSAII (Michael W. Deem and Ramdas Pophale) SiO2 
 PCOD9527340
Probable space group: I B A M
;
_chemical_formula_sum "Si O2"
_cell_formula_units_Z 116
_cell_length_a 8.718519
_cell_length_b 26.558190
_cell_length_c 23.325378
_cell_angle_alpha 90.000000
_cell_angle_beta 90.000000
_cell_angle_gamma 90.000000
_cell_volume 5400.946587
_symmetry_space_group_name_H-M "I B A M"
_symmetry_group_IT_number 72
_symmetry_cell_setting 'orthorhombic'
loop_
_space_group_symop_operation_xyz
x,y,z
-x,-y,z
x,-y,1/2-z
-x,y,1/2-z
-x,-y,-z
x,y,-z
-x,y,1/2+z
x,-y,1/2+z
1/2+x,1/2+y,1/2+z
1/2-x,1/2-y,1/2+z
1/2+x,1/2-y,-z
1/2-x,1/2+y,-z
1/2-x,1/2-y,1/2-z
1/2+x,1/2+y,1/2-z
1/2-x,1/2+y,z
1/2+x,1/2-y,z
loop_
_atom_site_type_symbol
_atom_site_label
_atom_site_fract_x
_atom_site_fract_y
_atom_site_fract_z
Si Si1 0.800057 0.677923 0.389499
Si Si2 0.123876 0.599650 0.200491
Si Si3 0.687483 0.644140 0.063830
Si Si4 0.487069 0.260858 0.431014
Si Si5 0.666577 0.481770 0.827427
Si Si6 0.364415 0.585686 0.939101
Si Si7 0.615592 0.939092 0.612921
Si Si8 0.000000 0.500000 0.000000
O O1 0.814073 0.651449 0.327353
O O2 0.658213 0.716254 0.397936
O O3 0.951400 0.707486 0.409076
O O4 0.754278 0.631393 0.430744
O O5 0.255689 0.558967 0.215146
O O6 0.000000 0.607643 0.250000
O O7 0.037161 0.571598 0.148325
O O8 0.624470 0.698943 0.079307
O O9 0.532370 0.610499 0.060592
O O10 0.802150 0.614412 0.103742
O O11 0.754057 0.647634 0.000000
O O12 0.457601 0.260509 0.500000
O O13 0.500000 0.500000 0.809777
O O14 0.641468 0.451190 0.886559
O O15 0.777119 0.526641 0.847060
O O16 0.330909 0.559903 0.000000
O O17 0.579177 0.964901 0.551926
#
# Coordination Sequence:
#
# PCOD9527340 Si02
#       8
#    16  16  16  16  16  16  16   4
#     4  10  22  40  65  92 128 177 228 278 340 412
#     4  11  27  50  66  88 133 185 235 290 344 406
#     4   9  18  32  55  89 134 174 206 262 331 412
#     4  10  20  38  63 102 139 172 219 273 352 429
#     4  11  22  38  67  98 126 171 228 280 342 408
#     4   9  18  32  56  92 137 174 206 261 331 403
#     4  12  23  39  63  94 136 178 222 279 343 420
#     4  12  24  40  56 108 136 172 230 266 348 444
#
# _framework density 21.477717999999999
#
# number of rings (size 3 to 8) (size 9 to 14) (size 15 to 20)
#    0.000    1.655    3.448    2.069    2.897    1.379 
#    2.483    2.069    0.000    0.000    0.000    0.000 
#    0.000    0.000    0.000    0.000    0.000    0.000 
#
# Total GULP energy -323650.123862 kJ/mol
# GULP energy per Si atom -5580.174549 kJ/mol
# Density = 2.142883 g / cm^3
# Si number density = 21.477718 Si / 1000 Ang^3
#
#
#
# Elastic Constant Matrix: (Units=GPa)
#
#
# Indices 1 2 3 4 5 6 
#
# 1 100.3657 63.3666 39.4417 0.0000 0.0000 0.0000
# 2 63.3666 99.2337 33.6397 0.0000 0.0000 0.0000
# 3 39.4417 33.6397 100.3198 0.0000 0.0000 0.0000
# 4 0.0000 0.0000 0.0000 0.6776 0.0000 0.0000
# 5 0.0000 0.0000 0.0000 0.0000 9.2559 0.0000
# 6 0.0000 0.0000 0.0000 0.0000 0.0000 50.5772
#
#
#
# Elastic Compliance Matrix: (Units=1/GPa)
#
#
# Indices 1 2 3 4 5 6 
#
# 1 0.017770 -0.010130 -0.003589 0.000000 0.000000 0.000000
# 2 -0.010130 0.017145 -0.001766 0.000000 0.000000 0.000000
# 3 -0.003589 -0.001766 0.011972 0.000000 0.000000 0.000000
# 4 0.000000 0.000000 0.000000 1.475867 -0.000002 0.000000
# 5 0.000000 0.000000 0.000000 -0.000002 0.108039 0.000000
# 6 0.000000 0.000000 0.000000 0.000000 0.000000 0.019772
#
#
# Mechanical properties :
#
#
# Convention : Reuss Voigt Hill
#
# Bulk Modulus (GPa) = 62.83670 63.64614 63.24142
# Shear Modulus (GPa) = 2.96412 23.00022 12.98217
#
# Velocity S-wave (km/s) = 1.17605 3.27599 2.46122
# Velocity P-wave (km/s) = 5.58250 6.63381 6.13073
#
# Compressibility (1/GPa) = 0.01591427
#
# Stress axis : x y z
#
# Youngs Moduli (GPa) = 56.27437 58.32660 83.53086
#
# Poissons Ratio (x) = 0.59087 0.29983
# Poissons Ratio (y) = 0.57008 0.14753
# Poissons Ratio (z) = 0.20200 0.10302
#
# Static dielectric constant tensor:
#      x y z
#    x 1.895330 0.000000 0.000000 
#    y 0.000000 1.818000 0.000000 
#    z 0.000000 0.000000 1.764300 
# 
# From -- ./inp_files/42754.got.cif
#   From: 2010.05.17/outbox.cif.g08.bks.cpg/sg72_22_cif.got.tgz:42754.got - 2010.06.03 17:03:01.
