data_PCOD9527120
_publ_section_title
;
Structure prediction by ZEFSAII (Michael W. Deem and Ramdas Pophale) SiO2 
 PCOD9527120
Probable space group: I B A M
;
_chemical_formula_sum "Si O2"
_cell_formula_units_Z 96
_cell_length_a 15.483466
_cell_length_b 19.297710
_cell_length_c 15.605239
_cell_angle_alpha 90.000000
_cell_angle_beta 90.000000
_cell_angle_gamma 90.000000
_cell_volume 4662.774201
_symmetry_space_group_name_H-M "I B A M"
_symmetry_group_IT_number 72
_symmetry_cell_setting 'orthorhombic'
loop_
_space_group_symop_operation_xyz
x,y,z
-x,-y,z
x,-y,1/2-z
-x,y,1/2-z
-x,-y,-z
x,y,-z
-x,y,1/2+z
x,-y,1/2+z
1/2+x,1/2+y,1/2+z
1/2-x,1/2-y,1/2+z
1/2+x,1/2-y,-z
1/2-x,1/2+y,-z
1/2-x,1/2-y,1/2-z
1/2+x,1/2+y,1/2-z
1/2-x,1/2+y,z
1/2+x,1/2-y,z
loop_
_atom_site_type_symbol
_atom_site_label
_atom_site_fract_x
_atom_site_fract_y
_atom_site_fract_z
Si Si1 0.816760 0.326411 0.900020
Si Si2 0.715929 0.081171 0.233336
Si Si3 0.508450 0.798336 0.151746
Si Si4 0.064012 0.562215 0.402534
Si Si5 0.097952 0.082127 0.236883
Si Si6 0.124338 0.183799 0.901969
O O1 0.816502 0.382581 0.821846
O O2 0.723003 0.291555 0.893634
O O3 0.895976 0.276731 0.876616
O O4 0.823140 0.351192 0.000000
O O5 0.644720 0.081627 0.158416
O O6 0.814483 0.107259 0.213868
O O7 0.726488 0.000000 0.250000
O O8 0.500000 0.819845 0.250000
O O9 0.489774 0.866806 0.097077
O O10 0.439236 0.738717 0.139060
O O11 0.091079 0.544480 0.500000
O O12 0.000000 0.500000 0.372048
O O13 0.119050 0.108861 0.141823
O O14 0.000000 0.109372 0.250000
O O15 0.092811 0.000000 0.250000
O O16 0.101017 0.178016 0.000000
#
# Coordination Sequence:
#
# PCOD9527120 Si02
#       6
#    16  16  16  16  16  16
#     4  10  21  39  61  88 124 168 210 259 320 381
#     4  10  20  36  61  89 121 164 214 259 314 387
#     4  12  23  39  63  88 124 170 209 260 320 385
#     4  11  24  40  60  90 131 172 216 271 326 386
#     4   9  19  40  64  88 121 161 208 259 319 383
#     4  10  22  40  62  92 127 162 209 263 319 383
#
# _framework density 20.588602000000002
#
# number of rings (size 3 to 8) (size 9 to 14) (size 15 to 20)
#    0.000    1.667    1.667    3.000    0.000    2.667 
#    3.000    5.000    0.000    0.500    0.000    0.000 
#    0.000    0.000    0.000    0.000    0.000    0.000 
#
# Total GULP energy -267314.912680 kJ/mol
# GULP energy per Si atom -5569.060681 kJ/mol
# Density = 2.054174 g / cm^3
# Si number density = 20.588602 Si / 1000 Ang^3
#
#
#
# Elastic Constant Matrix: (Units=GPa)
#
#
# Indices 1 2 3 4 5 6 
#
# 1 161.4464 19.8648 66.1734 0.0000 0.0000 0.0000
# 2 19.8648 63.3726 14.9807 0.0000 -0.0001 0.0000
# 3 66.1734 14.9807 99.9634 0.0000 -0.0003 0.0000
# 4 0.0000 0.0000 0.0000 12.5585 -0.0002 0.0000
# 5 0.0000 -0.0001 -0.0003 -0.0002 272.0549 0.0001
# 6 0.0000 0.0000 0.0000 0.0000 0.0001 12.6681
#
#
#
# Elastic Compliance Matrix: (Units=1/GPa)
#
#
# Indices 1 2 3 4 5 6 
#
# 1 0.008619 -0.001403 -0.005495 0.000000 0.000000 0.000000
# 2 -0.001403 0.016588 -0.001557 0.000000 0.000000 0.000000
# 3 -0.005495 -0.001557 0.013875 0.000000 0.000000 0.000000
# 4 0.000000 0.000000 0.000000 0.079628 0.000000 0.000000
# 5 0.000000 0.000000 0.000000 0.000000 0.003676 0.000000
# 6 0.000000 0.000000 0.000000 0.000000 0.000000 0.078939
#
#
# Mechanical properties :
#
#
# Convention : Reuss Voigt Hill
#
# Bulk Modulus (GPa) = 45.10461 58.53558 51.82010
# Shear Modulus (GPa) = 22.16073 74.37385 48.26729
#
# Velocity S-wave (km/s) = 3.28435 6.01683 4.84712
# Velocity P-wave (km/s) = 6.02808 8.76142 7.51998
#
# Compressibility (1/GPa) = 0.02217068
#
# Stress axis : x y z
#
# Youngs Moduli (GPa) = 116.02218 60.28631 72.07279
#
# Poissons Ratio (x) = 0.08456 0.39607
# Poissons Ratio (y) = 0.16274 0.11224
# Poissons Ratio (z) = 0.63759 0.09388
#
# Static dielectric constant tensor:
#      x y z
#    x 1.870610 0.000000 0.000000 
#    y 0.000000 1.880210 0.000000 
#    z 0.000000 0.000000 1.730990 
# 
# From -- ./inp_files/21780.got.cif
#   From: 2010.05.17/outbox.cif.g08.bks.cpg/sg72_11_cif.got.tgz:21780.got - 2010.06.03 17:03:01.
