data_PCOD9527888
_publ_section_title
;
Structure prediction by ZEFSAII (Michael W. Deem and Ramdas Pophale) SiO2 
 PCOD9527888
Probable space group: I B A M
;
_chemical_formula_sum "Si O2"
_cell_formula_units_Z 64
_cell_length_a 8.407092
_cell_length_b 14.795529
_cell_length_c 25.714800
_cell_angle_alpha 90.000000
_cell_angle_beta 90.000000
_cell_angle_gamma 90.000000
_cell_volume 3198.596432
_symmetry_space_group_name_H-M "I B A M"
_symmetry_group_IT_number 72
_symmetry_cell_setting 'orthorhombic'
loop_
_space_group_symop_operation_xyz
x,y,z
-x,-y,z
x,-y,1/2-z
-x,y,1/2-z
-x,-y,-z
x,y,-z
-x,y,1/2+z
x,-y,1/2+z
1/2+x,1/2+y,1/2+z
1/2-x,1/2-y,1/2+z
1/2+x,1/2-y,-z
1/2-x,1/2+y,-z
1/2-x,1/2-y,1/2-z
1/2+x,1/2+y,1/2-z
1/2-x,1/2+y,z
1/2+x,1/2-y,z
loop_
_atom_site_type_symbol
_atom_site_label
_atom_site_fract_x
_atom_site_fract_y
_atom_site_fract_z
Si Si1 0.092879 0.095453 0.058332
Si Si2 0.317862 0.026964 0.146041
Si Si3 0.702778 0.694247 0.699012
Si Si4 0.379727 0.343115 0.146792
O O1 0.245072 0.074600 0.094485
O O2 0.971594 0.155860 0.091955
O O3 0.127840 0.127185 0.000000
O O4 0.000000 0.000000 0.054576
O O5 0.296090 0.100328 0.191843
O O6 0.500000 0.000000 0.140034
O O7 0.209703 0.938191 0.154904
O O8 0.750000 0.750000 0.750000
O O9 0.519194 0.670706 0.689263
O O10 0.757039 0.762278 0.653280
#
# Coordination Sequence:
#
# PCOD9527888 Si02
#       4
#    16  16  16  16
#     4   8  16  34  59  85 116 154 193 239 298 360
#     4  10  21  38  60  88 122 157 200 255 307 364
#     4  11  22  38  59  84 118 160 203 251 305 363
#     4  10  21  38  59  87 120 156 200 251 303 362
#
# _framework density 20.008775
#
# number of rings (size 3 to 8) (size 9 to 14) (size 15 to 20)
#    0.000    2.250    0.000    4.500    0.000    1.500 
#    0.000   13.750    0.000    6.000    0.000    0.000 
#    0.000    0.000    0.000    0.000    0.000    0.000 
#
# Total GULP energy -178519.939757 kJ/mol
# GULP energy per Si atom -5578.748117 kJ/mol
# Density = 1.996323 g / cm^3
# Si number density = 20.008775 Si / 1000 Ang^3
#
#
#
# Elastic Constant Matrix: (Units=GPa)
#
#
# Indices 1 2 3 4 5 6 
#
# 1 123.5216 60.8409 83.6075 0.0000 0.0000 0.0000
# 2 60.8409 121.1062 52.3038 0.0000 0.0000 0.0000
# 3 83.6075 52.3038 92.6181 0.0000 0.0000 0.0000
# 4 0.0000 0.0000 0.0000 24.9900 0.0000 0.0000
# 5 0.0000 0.0000 0.0000 0.0000 14.8483 0.0000
# 6 0.0000 0.0000 0.0000 0.0000 0.0000 40.1916
#
#
#
# Elastic Compliance Matrix: (Units=1/GPa)
#
#
# Indices 1 2 3 4 5 6 
#
# 1 0.021729 -0.003233 -0.017789 0.000000 0.000000 0.000000
# 2 -0.003233 0.011402 -0.003520 0.000000 0.000000 0.000000
# 3 -0.017789 -0.003520 0.028844 0.000000 0.000000 0.000000
# 4 0.000000 0.000000 0.000000 0.040016 0.000000 0.000000
# 5 0.000000 0.000000 0.000000 0.000000 0.067348 0.000000
# 6 0.000000 0.000000 0.000000 0.000000 0.000000 0.024881
#
#
# Mechanical properties :
#
#
# Convention : Reuss Voigt Hill
#
# Bulk Modulus (GPa) = 77.58501 81.19448 79.38974
# Shear Modulus (GPa) = 20.19371 25.37222 22.78297
#
# Velocity S-wave (km/s) = 3.18030 3.56484 3.37805
# Velocity P-wave (km/s) = 7.23502 7.59023 7.41475
#
# Compressibility (1/GPa) = 0.01288909
#
# Stress axis : x y z
#
# Youngs Moduli (GPa) = 46.02056 87.70488 34.66962
#
# Poissons Ratio (x) = 0.28358 0.61675
# Poissons Ratio (y) = 0.14880 0.12204
# Poissons Ratio (z) = 0.81868 0.30873
#
# Static dielectric constant tensor:
#      x y z
#    x 1.712760 0.000000 0.000000 
#    y 0.000000 1.705740 0.000000 
#    z 0.000000 0.000000 1.777370 
# 
# From -- ./inp_files/43914.got.cif
#   From: 2010.05.17/outbox.cif.g08.bks.cpg/sg72_22_cif.got.tgz:43914.got - 2010.06.03 17:03:01.
