data_PCOD9527067
_publ_section_title
;
Structure prediction by ZEFSAII (Michael W. Deem and Ramdas Pophale) SiO2 
 PCOD9527067
Probable space group: I B A M
;
_chemical_formula_sum "Si O2"
_cell_formula_units_Z 96
_cell_length_a 22.090297
_cell_length_b 10.416909
_cell_length_c 21.624374
_cell_angle_alpha 90.000000
_cell_angle_beta 90.000000
_cell_angle_gamma 90.000000
_cell_volume 4976.041219
_symmetry_space_group_name_H-M "I B A M"
_symmetry_group_IT_number 72
_symmetry_cell_setting 'orthorhombic'
loop_
_space_group_symop_operation_xyz
x,y,z
-x,-y,z
x,-y,1/2-z
-x,y,1/2-z
-x,-y,-z
x,y,-z
-x,y,1/2+z
x,-y,1/2+z
1/2+x,1/2+y,1/2+z
1/2-x,1/2-y,1/2+z
1/2+x,1/2-y,-z
1/2-x,1/2+y,-z
1/2-x,1/2-y,1/2-z
1/2+x,1/2+y,1/2-z
1/2-x,1/2+y,z
1/2+x,1/2-y,z
loop_
_atom_site_type_symbol
_atom_site_label
_atom_site_fract_x
_atom_site_fract_y
_atom_site_fract_z
Si Si1 0.355168 0.877166 0.688745
Si Si2 0.026273 0.646319 0.570083
Si Si3 0.383776 0.173034 0.315221
Si Si4 0.600953 0.262958 0.430963
Si Si5 0.733386 0.691934 0.645082
Si Si6 0.709918 0.568695 0.927592
O O1 0.399214 0.820300 0.741931
O O2 0.375804 0.829500 0.622140
O O3 0.286278 0.829855 0.695357
O O4 0.356113 0.029846 0.685539
O O5 0.053587 0.652882 0.500000
O O6 0.068406 0.673419 0.629092
O O7 0.000000 0.500000 0.575962
O O8 0.971220 0.748794 0.571475
O O9 0.331774 0.274857 0.328147
O O10 0.618656 0.218048 0.500000
O O11 0.638139 0.394820 0.421555
O O12 0.727605 0.562161 0.605721
O O13 0.754700 0.811935 0.603055
O O14 0.723950 0.560352 0.000000
#
# Coordination Sequence:
#
# PCOD9527067 Si02
#       6
#    16  16  16  16  16  16
#     4  10  21  37  56  89 121 156 199 250 302 355
#     4  10  20  36  59  88 122 159 203 257 306 354
#     4  11  22  36  58  89 119 160 203 250 303 364
#     4   9  19  38  58  82 118 158 197 248 306 350
#     4  11  21  40  57  88 124 160 204 248 312 369
#     4  10  21  36  60  88 122 162 205 254 307 366
#
# _framework density 19.292446000000002
#
# number of rings (size 3 to 8) (size 9 to 14) (size 15 to 20)
#    0.000    1.833    3.333    1.000    0.000    2.667 
#    0.000    0.833    0.000    3.000    0.000    4.667 
#    0.000    0.000    0.000    0.000    0.000    0.000 
#
# Total GULP energy -267335.231028 kJ/mol
# GULP energy per Si atom -5569.483980 kJ/mol
# Density = 1.924854 g / cm^3
# Si number density = 19.292446 Si / 1000 Ang^3
#
#
#
# Elastic Constant Matrix: (Units=GPa)
#
#
# Indices 1 2 3 4 5 6 
#
# 1 54.6071 14.0736 31.3739 0.0000 0.0000 0.0000
# 2 14.0736 83.1323 35.0456 0.0000 0.0000 0.0000
# 3 31.3739 35.0456 97.3272 0.0000 0.0000 0.0000
# 4 0.0000 0.0000 0.0000 20.2851 0.0000 0.0000
# 5 0.0000 0.0000 0.0000 0.0000 32.2851 0.0000
# 6 0.0000 0.0000 0.0000 0.0000 0.0000 19.3649
#
#
#
# Elastic Compliance Matrix: (Units=1/GPa)
#
#
# Indices 1 2 3 4 5 6 
#
# 1 0.022531 -0.000887 -0.006943 0.000000 0.000000 0.000000
# 2 -0.000887 0.014217 -0.004833 0.000000 0.000000 0.000000
# 3 -0.006943 -0.004833 0.014253 0.000000 0.000000 0.000000
# 4 0.000000 0.000000 0.000000 0.049297 0.000000 0.000000
# 5 0.000000 0.000000 0.000000 0.000000 0.030974 0.000000
# 6 0.000000 0.000000 0.000000 0.000000 0.000000 0.051640
#
#
# Mechanical properties :
#
#
# Convention : Reuss Voigt Hill
#
# Bulk Modulus (GPa) = 38.95141 44.00585 41.47863
# Shear Modulus (GPa) = 23.06311 24.69194 23.87752
#
# Velocity S-wave (km/s) = 3.46128 3.58142 3.52186
# Velocity P-wave (km/s) = 6.01728 6.32151 6.17127
#
# Compressibility (1/GPa) = 0.02567301
#
# Stress axis : x y z
#
# Youngs Moduli (GPa) = 44.38423 70.33985 70.15982
#
# Poissons Ratio (x) = 0.06240 0.48715
# Poissons Ratio (y) = 0.03937 0.33909
# Poissons Ratio (z) = 0.30818 0.33996
#
# Static dielectric constant tensor:
#      x y z
#    x 1.720740 0.000000 0.000000 
#    y 0.000000 1.646350 0.000000 
#    z 0.000000 0.000000 1.750010 
# 
# From -- ./inp_files/45657.got.cif
#   From: 2010.05.17/outbox.cif.g08.bks.cpg/sg72_23_cif.got.tgz:45657.got - 2010.06.03 17:03:01.
