data_PCOD9527698
_publ_section_title
;
Structure prediction by ZEFSAII (Michael W. Deem and Ramdas Pophale) SiO2 
 PCOD9527698
Probable space group: I B A M
;
_chemical_formula_sum "Si O2"
_cell_formula_units_Z 120
_cell_length_a 10.351954
_cell_length_b 25.268333
_cell_length_c 20.362242
_cell_angle_alpha 90.000000
_cell_angle_beta 90.000000
_cell_angle_gamma 90.000000
_cell_volume 5326.286456
_symmetry_space_group_name_H-M "I B A M"
_symmetry_group_IT_number 72
_symmetry_cell_setting 'orthorhombic'
loop_
_space_group_symop_operation_xyz
x,y,z
-x,-y,z
x,-y,1/2-z
-x,y,1/2-z
-x,-y,-z
x,y,-z
-x,y,1/2+z
x,-y,1/2+z
1/2+x,1/2+y,1/2+z
1/2-x,1/2-y,1/2+z
1/2+x,1/2-y,-z
1/2-x,1/2+y,-z
1/2-x,1/2-y,1/2-z
1/2+x,1/2+y,1/2-z
1/2-x,1/2+y,z
1/2+x,1/2-y,z
loop_
_atom_site_type_symbol
_atom_site_label
_atom_site_fract_x
_atom_site_fract_y
_atom_site_fract_z
Si Si1 0.768462 0.406724 0.426246
Si Si2 0.151544 0.507888 0.323729
Si Si3 0.000000 0.908834 0.750000
Si Si4 0.988808 0.676658 0.070517
Si Si5 0.014835 0.061918 0.102439
Si Si6 0.591059 0.759696 0.310790
Si Si7 0.765459 0.836940 0.230230
Si Si8 0.708826 0.097798 0.610330
O O1 0.797807 0.429767 0.500000
O O2 0.815711 0.438495 0.361692
O O3 0.850097 0.352739 0.425249
O O4 0.613801 0.407541 0.419751
O O5 0.209575 0.500000 0.250000
O O6 0.188727 0.463906 0.377054
O O7 0.000000 0.500000 0.316162
O O8 0.021328 0.939416 0.682313
O O9 0.879337 0.870268 0.738062
O O10 0.990924 0.718617 0.129058
O O11 0.099275 0.631198 0.073882
O O12 0.000114 0.703429 0.000000
O O13 0.143673 0.095469 0.084134
O O14 0.000000 0.000000 0.080859
O O15 0.500000 0.745693 0.250000
O O16 0.680537 0.806684 0.282918
O O17 0.677278 0.707629 0.319427
O O18 0.693748 0.877940 0.183704
#
# Coordination Sequence:
#
# PCOD9527698 Si02
#       8
#    16  16   8  16  16  16  16  16
#     4  11  25  43  61  88 131 181 222 264 325 399
#     4  11  24  38  64 100 134 171 223 278 327 383
#     4  10  21  36  60  92 132 156 208 271 324 390
#     4  11  25  44  68  95 129 174 222 276 332 392
#     4  11  23  37  59  94 131 178 216 265 330 384
#     4  11  21  40  70  95 127 160 218 271 333 396
#     4  10  22  37  65 101 124 164 208 272 335 389
#     4  11  23  40  64 100 133 171 218 275 327 388
#
# _framework density 22.529769000000002
#
# number of rings (size 3 to 8) (size 9 to 14) (size 15 to 20)
#    0.000    1.200    4.667    1.000    5.600    1.600 
#    0.000    0.667    0.000    0.800    0.000    0.000 
#    0.000    0.000    0.000    0.000    0.000    0.000 
#
# Total GULP energy -334835.776985 kJ/mol
# GULP energy per Si atom -5580.596283 kJ/mol
# Density = 2.247849 g / cm^3
# Si number density = 22.529769 Si / 1000 Ang^3
#
#
#
# Elastic Constant Matrix: (Units=GPa)
#
#
# Indices 1 2 3 4 5 6 
#
# 1 87.8075 -10.9021 1.4212 0.0000 0.0000 0.0000
# 2 -10.9021 36.2967 5.2902 0.0000 0.0000 0.0000
# 3 1.4212 5.2902 109.8753 0.0000 0.0000 0.0000
# 4 0.0000 0.0000 0.0000 1.7655 0.0000 0.0000
# 5 0.0000 0.0000 0.0000 0.0000 11.5214 0.0000
# 6 0.0000 0.0000 0.0000 0.0000 0.0000 19.1397
#
#
#
# Elastic Compliance Matrix: (Units=1/GPa)
#
#
# Indices 1 2 3 4 5 6 
#
# 1 0.011841 0.003604 -0.000327 0.000000 0.000000 0.000000
# 2 0.003604 0.028842 -0.001435 0.000000 0.000000 0.000000
# 3 -0.000327 -0.001435 0.009175 0.000000 0.000000 0.000000
# 4 0.000000 0.000000 0.000000 0.566418 0.000000 0.000000
# 5 0.000000 0.000000 0.000000 0.000000 0.086795 0.000000
# 6 0.000000 0.000000 0.000000 0.000000 0.000000 0.052247
#
#
# Mechanical properties :
#
#
# Convention : Reuss Voigt Hill
#
# Bulk Modulus (GPa) = 18.67661 25.06645 21.87153
# Shear Modulus (GPa) = 6.49788 22.36333 14.43060
#
# Velocity S-wave (km/s) = 1.70012 3.15399 2.53358
# Velocity P-wave (km/s) = 3.48735 4.94102 4.27640
#
# Compressibility (1/GPa) = 0.05354290
#
# Stress axis : x y z
#
# Youngs Moduli (GPa) = 84.44988 34.67112 108.99710
#
# Poissons Ratio (x) = -0.12496 0.03561
# Poissons Ratio (y) = -0.30438 0.15644
# Poissons Ratio (z) = 0.02759 0.04976
#
# Static dielectric constant tensor:
#      x y z
#    x 1.892810 0.000000 0.000000 
#    y 0.000000 1.804450 0.000000 
#    z 0.000000 0.000000 1.880690 
# 
# From -- ./inp_files/37356.got.cif
#   From: 2010.05.17/outbox.cif.g08.bks.cpg/sg72_19_cif.got.tgz:37356.got - 2010.06.03 17:03:01.
