data_PCOD9527466
_publ_section_title
;
Structure prediction by ZEFSAII (Michael W. Deem and Ramdas Pophale) SiO2 
 PCOD9527466
Probable space group: I B A M
;
_chemical_formula_sum "Si O2"
_cell_formula_units_Z 120
_cell_length_a 12.820723
_cell_length_b 18.531855
_cell_length_c 22.195375
_cell_angle_alpha 90.000000
_cell_angle_beta 90.000000
_cell_angle_gamma 90.000000
_cell_volume 5273.438646
_symmetry_space_group_name_H-M "I B A M"
_symmetry_group_IT_number 72
_symmetry_cell_setting 'orthorhombic'
loop_
_space_group_symop_operation_xyz
x,y,z
-x,-y,z
x,-y,1/2-z
-x,y,1/2-z
-x,-y,-z
x,y,-z
-x,y,1/2+z
x,-y,1/2+z
1/2+x,1/2+y,1/2+z
1/2-x,1/2-y,1/2+z
1/2+x,1/2-y,-z
1/2-x,1/2+y,-z
1/2-x,1/2-y,1/2-z
1/2+x,1/2+y,1/2-z
1/2-x,1/2+y,z
1/2+x,1/2-y,z
loop_
_atom_site_type_symbol
_atom_site_label
_atom_site_fract_x
_atom_site_fract_y
_atom_site_fract_z
Si Si1 0.741482 0.777050 0.852754
Si Si2 0.830924 0.567729 0.388993
Si Si3 0.297420 0.074427 0.668523
Si Si4 0.923324 0.063348 0.116735
Si Si5 0.452076 0.134480 0.429600
Si Si6 0.701771 0.496513 0.500000
Si Si7 0.619597 0.795658 0.734756
Si Si8 0.934399 0.787018 0.570665
O O1 0.731751 0.860336 0.870618
O O2 0.668990 0.763108 0.794630
O O3 0.849830 0.751006 0.824048
O O4 0.681828 0.733719 0.905439
O O5 0.831315 0.508382 0.336322
O O6 0.775269 0.533307 0.446856
O O7 0.948292 0.589461 0.406542
O O8 0.173440 0.075309 0.661427
O O9 0.353960 0.111503 0.610304
O O10 0.334664 0.124847 0.722310
O O11 0.973523 0.141466 0.104219
O O12 0.000000 0.000000 0.137020
O O13 0.873079 0.037657 0.053494
O O14 0.429964 0.120296 0.500000
O O15 0.492148 0.216828 0.423377
O O16 0.500000 0.801761 0.750000
O O17 0.927719 0.802323 0.500000
#
# Coordination Sequence:
#
# PCOD9527466 Si02
#       8
#    16  16  16  16  16   8  16  16
#     4  10  23  44  66  98 137 184 237 304 355 437
#     4  10  21  40  65 100 139 184 236 293 367 443
#     4  11  24  41  64 102 136 187 240 298 365 431
#     4  11  23  42  63  95 144 192 240 290 354 435
#     4  10  21  37  62  99 140 182 231 300 364 438
#     4  10  21  38  61  98 140 184 232 291 364 430
#     4  11  23  45  70  98 138 189 239 300 369 423
#     4  10  20  40  67  95 139 189 243 305 365 443
#
# _framework density 22.755548999999998
#
# number of rings (size 3 to 8) (size 9 to 14) (size 15 to 20)
#    0.000    1.600    2.667    2.200    4.667    1.067 
#    9.600    0.667    0.000    0.000    0.000    5.600 
#    0.000    0.000    0.000    0.000    0.000    0.000 
#
# Total GULP energy -334401.431347 kJ/mol
# GULP energy per Si atom -5573.357189 kJ/mol
# Density = 2.270376 g / cm^3
# Si number density = 22.755549 Si / 1000 Ang^3
#
#
#
# Elastic Constant Matrix: (Units=GPa)
#
#
# Indices 1 2 3 4 5 6 
#
# 1 94.5960 46.3556 26.3262 0.0000 0.0000 0.0000
# 2 46.3556 131.9783 2.6362 0.0000 0.0000 0.0000
# 3 26.3262 2.6362 29.8491 0.0000 0.0000 0.0000
# 4 0.0000 0.0000 0.0000 24.3002 0.0000 0.0000
# 5 0.0000 0.0000 0.0000 0.0000 30.5407 0.0000
# 6 0.0000 0.0000 0.0000 0.0000 0.0000 19.3435
#
#
#
# Elastic Compliance Matrix: (Units=1/GPa)
#
#
# Indices 1 2 3 4 5 6 
#
# 1 0.017649 -0.005898 -0.015045 0.000000 0.000000 0.000000
# 2 -0.005898 0.009562 0.004358 0.000000 0.000000 0.000000
# 3 -0.015045 0.004358 0.046386 0.000000 0.000000 0.000000
# 4 0.000000 0.000000 0.000000 0.041152 0.000000 0.000000
# 5 0.000000 0.000000 0.000000 0.000000 0.032743 0.000000
# 6 0.000000 0.000000 0.000000 0.000000 0.000000 0.051697
#
#
# Mechanical properties :
#
#
# Convention : Reuss Voigt Hill
#
# Bulk Modulus (GPa) = 24.73671 45.22881 34.98276
# Shear Modulus (GPa) = 20.33885 26.91055 23.62470
#
# Velocity S-wave (km/s) = 2.99289 3.44262 3.22560
# Velocity P-wave (km/s) = 4.77885 5.97672 5.41104
#
# Compressibility (1/GPa) = 0.04042575
#
# Stress axis : x y z
#
# Youngs Moduli (GPa) = 56.66145 104.58422 21.55811
#
# Poissons Ratio (x) = 0.61687 0.32434
# Poissons Ratio (y) = 0.33421 -0.09394
# Poissons Ratio (z) = 0.85246 -0.45575
#
# Static dielectric constant tensor:
#      x y z
#    x 1.884190 0.000000 0.000000 
#    y 0.000000 1.891580 0.000000 
#    z 0.000000 0.000000 1.811970 
# 
# From -- ./inp_files/43592.got.cif
#   From: 2010.05.17/outbox.cif.g08.bks.cpg/sg72_22_cif.got.tgz:43592.got - 2010.06.03 17:03:01.
