data_PCOD9527537
_publ_section_title
;
Structure prediction by ZEFSAII (Michael W. Deem and Ramdas Pophale) SiO2 
 PCOD9527537
Probable space group: I B A M
;
_chemical_formula_sum "Si O2"
_cell_formula_units_Z 80
_cell_length_a 21.655240
_cell_length_b 23.730631
_cell_length_c 9.785139
_cell_angle_alpha 90.000000
_cell_angle_beta 90.000000
_cell_angle_gamma 90.000000
_cell_volume 5028.509638
_symmetry_space_group_name_H-M "I B A M"
_symmetry_group_IT_number 72
_symmetry_cell_setting 'orthorhombic'
loop_
_space_group_symop_operation_xyz
x,y,z
-x,-y,z
x,-y,1/2-z
-x,y,1/2-z
-x,-y,-z
x,y,-z
-x,y,1/2+z
x,-y,1/2+z
1/2+x,1/2+y,1/2+z
1/2-x,1/2-y,1/2+z
1/2+x,1/2-y,-z
1/2-x,1/2+y,-z
1/2-x,1/2-y,1/2-z
1/2+x,1/2+y,1/2-z
1/2-x,1/2+y,z
1/2+x,1/2-y,z
loop_
_atom_site_type_symbol
_atom_site_label
_atom_site_fract_x
_atom_site_fract_y
_atom_site_fract_z
Si Si1 0.771657 0.117835 0.663531
Si Si2 0.134966 0.330307 0.712812
Si Si3 0.767965 0.500000 0.750000
Si Si4 0.054123 0.394810 0.500000
Si Si5 0.303946 0.719197 0.338304
Si Si6 0.638568 0.002728 0.000000
Si Si7 0.091187 0.370314 0.000000
O O1 0.785672 0.117275 0.500000
O O2 0.700750 0.140179 0.678853
O O3 0.772271 0.056326 0.732628
O O4 0.811686 0.161254 0.754878
O O5 0.084149 0.364164 0.629317
O O6 0.141573 0.265151 0.670434
O O7 0.117171 0.337821 0.869259
O O8 0.815558 0.504429 0.625713
O O9 0.081434 0.458713 0.500000
O O10 0.981925 0.381951 0.500000
O O11 0.288347 0.711006 0.500000
O O12 0.250000 0.750000 0.250000
O O13 0.617274 0.066671 0.000000
#
# Coordination Sequence:
#
# PCOD9527537 Si02
#       7
#    16  16   8   8  16   8   8
#     4  11  21  34  52  74 100 132 168 209 256 312
#     4  11  20  36  49  69  99 126 167 223 261 300
#     4  12  20  32  53  70 106 136 165 212 260 296
#     4  12  21  40  48  67 101 135 181 226 261 280
#     4  10  21  32  53  74  94 125 164 212 263 317
#     4  12  21  36  48  68  98 140 178 222 257 288
#     4  12  25  30  54  73  91 139 185 218 255 306
#
# _framework density 15.909288
#
# number of rings (size 3 to 8) (size 9 to 14) (size 15 to 20)
#    0.000    0.800    7.000    2.700    8.400    0.000 
#    0.000    3.000    0.000    0.000    0.000    0.000 
#    0.000    0.000    0.000    5.400    0.000    0.000 
#
# Total GULP energy -222916.512510 kJ/mol
# GULP energy per Si atom -5572.912813 kJ/mol
# Density = 1.587308 g / cm^3
# Si number density = 15.909288 Si / 1000 Ang^3
#
#
#
# Elastic Constant Matrix: (Units=GPa)
#
#
# Indices 1 2 3 4 5 6 
#
# 1 10.4724 15.0594 8.8301 0.0000 0.0000 0.0000
# 2 15.0594 123.8389 30.1164 0.0000 0.0000 0.0000
# 3 8.8301 30.1164 127.3623 0.0000 0.0000 0.0000
# 4 0.0000 0.0000 0.0000 25.2695 0.0000 0.0000
# 5 0.0000 0.0000 0.0000 0.0000 15.5663 0.0000
# 6 0.0000 0.0000 0.0000 0.0000 0.0000 7.8816
#
#
#
# Elastic Compliance Matrix: (Units=1/GPa)
#
#
# Indices 1 2 3 4 5 6 
#
# 1 0.118784 -0.013201 -0.005114 0.000000 0.000000 0.000000
# 2 -0.013201 0.010035 -0.001458 0.000000 0.000000 0.000000
# 3 -0.005114 -0.001458 0.008551 0.000000 0.000000 0.000000
# 4 0.000000 0.000000 0.000000 0.039573 0.000000 0.000000
# 5 0.000000 0.000000 0.000000 0.000000 0.064241 0.000000
# 6 0.000000 0.000000 0.000000 0.000000 0.000000 0.126877
#
#
# Mechanical properties :
#
#
# Convention : Reuss Voigt Hill
#
# Bulk Modulus (GPa) = 10.22236 41.07615 25.64926
# Shear Modulus (GPa) = 11.35808 23.58799 17.47303
#
# Velocity S-wave (km/s) = 2.67484 3.85470 3.31764
# Velocity P-wave (km/s) = 3.99738 6.75919 5.55274
#
# Compressibility (1/GPa) = 0.09782473
#
# Stress axis : x y z
#
# Youngs Moduli (GPa) = 8.41863 99.65309 116.94769
#
# Poissons Ratio (x) = 1.31553 0.59804
# Poissons Ratio (y) = 0.11114 0.17047
# Poissons Ratio (z) = 0.04305 0.14526
#
# Static dielectric constant tensor:
#      x y z
#    x 1.521120 0.000000 0.000000 
#    y 0.000000 1.590910 0.000000 
#    z 0.000000 0.000000 1.560970 
# 
# From -- ./inp_files/5731.got.cif
#   From: 2010.05.17/outbox.cif.g08.bks.cpg/sg72_3_cif.got.tgz:5731.got - 2010.06.03 17:03:01.
