data_PCOD9527495
_publ_section_title
;
Structure prediction by ZEFSAII (Michael W. Deem and Ramdas Pophale) SiO2 
 PCOD9527495
Probable space group: I B A M
;
_chemical_formula_sum "Si O2"
_cell_formula_units_Z 68
_cell_length_a 12.576207
_cell_length_b 13.202738
_cell_length_c 18.107839
_cell_angle_alpha 90.000000
_cell_angle_beta 90.000000
_cell_angle_gamma 90.000000
_cell_volume 3006.632216
_symmetry_space_group_name_H-M "I B A M"
_symmetry_group_IT_number 72
_symmetry_cell_setting 'orthorhombic'
loop_
_space_group_symop_operation_xyz
x,y,z
-x,-y,z
x,-y,1/2-z
-x,y,1/2-z
-x,-y,-z
x,y,-z
-x,y,1/2+z
x,-y,1/2+z
1/2+x,1/2+y,1/2+z
1/2-x,1/2-y,1/2+z
1/2+x,1/2-y,-z
1/2-x,1/2+y,-z
1/2-x,1/2-y,1/2-z
1/2+x,1/2+y,1/2-z
1/2-x,1/2+y,z
1/2+x,1/2-y,z
loop_
_atom_site_type_symbol
_atom_site_label
_atom_site_fract_x
_atom_site_fract_y
_atom_site_fract_z
Si Si1 0.172201 0.881073 0.660777
Si Si2 0.950550 0.689657 0.500000
Si Si3 0.849825 0.500000 0.750000
Si Si4 0.121324 0.652577 0.626320
Si Si5 0.500000 0.500000 0.250000
Si Si6 0.774647 0.889078 0.000000
Si Si7 0.731711 0.340227 0.500000
O O1 0.275053 0.922575 0.703536
O O2 0.161565 0.759411 0.659742
O O3 0.175422 0.920364 0.576540
O O4 0.072579 0.928900 0.700701
O O5 0.021161 0.672921 0.572646
O O6 0.146296 0.391522 0.500000
O O7 0.292138 0.267957 0.500000
O O8 0.904946 0.428081 0.689624
O O9 0.218671 0.612875 0.573964
O O10 0.889555 0.200323 0.000000
#
# Coordination Sequence:
#
# PCOD9527495 Si02
#       7
#    16   8   8  16   4   8   8
#     4  10  22  44  66  95 136 178 223 300 333 408
#     4   9  19  39  71  99 125 185 238 289 343 409
#     4  11  24  39  62  98 142 186 219 279 372 420
#     4  10  20  41  69  97 135 183 236 280 350 416
#     4  10  24  42  70 110 134 166 238 264 362 424
#     4   8  18  41  69  90 127 176 225 280 351 382
#     4   7  17  37  68  92 124 178 234 288 332 395
#
# _framework density 22.616668000000001
#
# number of rings (size 3 to 8) (size 9 to 14) (size 15 to 20)
#    0.706    1.882    0.000    1.412    0.000    6.118 
#    4.235    4.706    0.000    0.000    0.000    0.000 
#    0.000    0.000    0.000    0.000    0.000    0.000 
#
# Total GULP energy -189708.994258 kJ/mol
# GULP energy per Si atom -5579.676302 kJ/mol
# Density = 2.256519 g / cm^3
# Si number density = 22.616668 Si / 1000 Ang^3
#
#
#
# Elastic Constant Matrix: (Units=GPa)
#
#
# Indices 1 2 3 4 5 6 
#
# 1 92.5945 30.3191 61.5033 0.0000 0.0000 0.0000
# 2 30.3191 125.1870 53.1651 0.0000 0.0000 0.0000
# 3 61.5033 53.1651 162.4147 0.0000 0.0000 0.0000
# 4 0.0000 0.0000 0.0000 66.9847 0.0000 0.0000
# 5 0.0000 0.0000 0.0000 0.0000 -273.1089 0.0000
# 6 0.0000 0.0000 0.0000 0.0000 0.0000 -23.0805
#
#
#
# Elastic Compliance Matrix: (Units=1/GPa)
#
#
# Indices 1 2 3 4 5 6 
#
# 1 0.014632 -0.001383 -0.005088 0.000000 0.000000 0.000000
# 2 -0.001383 0.009409 -0.002556 0.000000 0.000000 0.000000
# 3 -0.005088 -0.002556 0.008921 0.000000 0.000000 0.000000
# 4 0.000000 0.000000 0.000000 0.014929 0.000000 0.000000
# 5 0.000000 0.000000 0.000000 0.000000 -0.003662 0.000000
# 6 0.000000 0.000000 0.000000 0.000000 0.000000 -0.043327
#
#
# Mechanical properties :
#
#
# Convention : Reuss Voigt Hill
#
# Bulk Modulus (GPa) = 67.08312 74.46346 70.77329
# Shear Modulus (GPa) = 208.98019 -30.16036 89.40991
#
# Velocity S-wave (km/s) = 9.62297 -3.65574 6.29433
# Velocity P-wave (km/s) = 12.37716 3.89569 9.17525
#
# Compressibility (1/GPa) = 0.01490688
#
# Stress axis : x y z
#
# Youngs Moduli (GPa) = 68.34167 106.28658 112.09936
#
# Poissons Ratio (x) = 0.14698 0.57040
# Poissons Ratio (y) = 0.09451 0.28654
# Poissons Ratio (z) = 0.34774 0.27168
#
# Static dielectric constant tensor:
#      x y z
#    x 1.844370 0.000000 0.000000 
#    y 0.000000 1.331720 0.000000 
#    z 0.000000 0.000000 1.854100 
# 
# From -- ./inp_files/31294.got.cif
#   From: 2010.05.17/outbox.cif.g08.bks.cpg/sg72_16_cif.got.tgz:31294.got - 2010.06.03 17:03:01.
