data_PCOD9527338
_publ_section_title
;
Structure prediction by ZEFSAII (Michael W. Deem and Ramdas Pophale) SiO2 
 PCOD9527338
Probable space group: I B A M
;
_chemical_formula_sum "Si O2"
_cell_formula_units_Z 56
_cell_length_a 23.612192
_cell_length_b 5.005971
_cell_length_c 20.980581
_cell_angle_alpha 90.000000
_cell_angle_beta 90.000000
_cell_angle_gamma 90.000000
_cell_volume 2479.945553
_symmetry_space_group_name_H-M "I B A M"
_symmetry_group_IT_number 72
_symmetry_cell_setting 'orthorhombic'
loop_
_space_group_symop_operation_xyz
x,y,z
-x,-y,z
x,-y,1/2-z
-x,y,1/2-z
-x,-y,-z
x,y,-z
-x,y,1/2+z
x,-y,1/2+z
1/2+x,1/2+y,1/2+z
1/2-x,1/2-y,1/2+z
1/2+x,1/2-y,-z
1/2-x,1/2+y,-z
1/2-x,1/2-y,1/2-z
1/2+x,1/2+y,1/2-z
1/2-x,1/2+y,z
1/2+x,1/2-y,z
loop_
_atom_site_type_symbol
_atom_site_label
_atom_site_fract_x
_atom_site_fract_y
_atom_site_fract_z
Si Si1 0.437680 0.126998 0.640412
Si Si2 0.210627 0.900116 0.070936
Si Si3 0.123366 0.105200 0.683793
Si Si4 0.542518 0.243915 0.000000
O O1 0.430219 0.408217 0.675084
O O2 0.424647 0.199953 0.566257
O O3 0.500000 0.000000 0.643149
O O4 0.396685 0.909030 0.673097
O O5 0.237734 0.607521 0.075659
O O6 0.166937 0.948587 0.126930
O O7 0.184769 0.929289 0.000000
O O8 0.149091 0.000000 0.750000
O O9 0.500000 0.500000 0.000000
O O10 0.500000 0.000000 0.000000
#
# Coordination Sequence:
#
# PCOD9527338 Si02
#       4
#    16  16  16   8
#     4  11  24  41  64  94 136 180 222 272 324 393
#     4  10  23  44  69  95 125 165 217 278 342 401
#     4  12  26  41  65  99 133 177 222 267 337 405
#     4  10  20  38  62  92 124 168 230 278 324 374
#
# _framework density 22.581140000000001
#
# number of rings (size 3 to 8) (size 9 to 14) (size 15 to 20)
#    0.000    1.143    0.000    6.857    4.000    4.571 
#    0.000    0.000    0.000    0.000    0.000    0.000 
#    0.000    0.000    0.000    0.000    0.000    0.000 
#
# Total GULP energy -156423.810007 kJ/mol
# GULP energy per Si atom -5586.564643 kJ/mol
# Density = 2.252974 g / cm^3
# Si number density = 22.581140 Si / 1000 Ang^3
#
#
#
# Elastic Constant Matrix: (Units=GPa)
#
#
# Indices 1 2 3 4 5 6 
#
# 1 43.0988 -7.1539 41.4305 0.0000 0.0000 0.0000
# 2 -7.1539 112.6594 19.8977 0.0000 0.0000 0.0000
# 3 41.4305 19.8977 167.2676 0.0000 0.0000 0.0000
# 4 0.0000 0.0000 0.0000 30.1646 0.0000 0.0000
# 5 0.0000 0.0000 0.0000 0.0000 14.6646 0.0000
# 6 0.0000 0.0000 0.0000 0.0000 0.0000 18.5633
#
#
#
# Elastic Compliance Matrix: (Units=1/GPa)
#
#
# Indices 1 2 3 4 5 6 
#
# 1 0.031733 0.003476 -0.008273 0.000000 0.000000 0.000000
# 2 0.003476 0.009448 -0.001985 0.000000 0.000000 0.000000
# 3 -0.008273 -0.001985 0.008264 0.000000 0.000000 0.000000
# 4 0.000000 0.000000 0.000000 0.033151 0.000000 0.000000
# 5 0.000000 0.000000 0.000000 0.000000 0.068192 0.000000
# 6 0.000000 0.000000 0.000000 0.000000 0.000000 0.053870
#
#
# Mechanical properties :
#
#
# Convention : Reuss Voigt Hill
#
# Bulk Modulus (GPa) = 27.87064 47.93049 37.90057
# Shear Modulus (GPa) = 21.72203 30.60190 26.16197
#
# Velocity S-wave (km/s) = 3.10490 3.68529 3.40748
# Velocity P-wave (km/s) = 5.02226 6.27539 5.68347
#
# Compressibility (1/GPa) = 0.03588005
#
# Stress axis : x y z
#
# Youngs Moduli (GPa) = 31.51324 105.84667 121.00963
#
# Poissons Ratio (x) = -0.36795 1.00116
# Poissons Ratio (y) = -0.10955 0.24019
# Poissons Ratio (z) = 0.26072 0.21010
#
# Static dielectric constant tensor:
#      x y z
#    x 1.796710 0.000000 0.000000 
#    y 0.000000 1.812620 0.000000 
#    z 0.000000 0.000000 1.959120 
# 
# From -- ./inp_files/33641.got.cif
#   From: 2010.05.17/outbox.cif.g08.bks.cpg/sg72_17_cif.got.tgz:33641.got - 2010.06.03 17:03:01.
