data_PCOD9527151
_publ_section_title
;
Structure prediction by ZEFSAII (Michael W. Deem and Ramdas Pophale) SiO2 
 PCOD9527151
Probable space group: I B A M
;
_chemical_formula_sum "Si O2"
_cell_formula_units_Z 40
_cell_length_a 13.563987
_cell_length_b 5.181072
_cell_length_c 20.803250
_cell_angle_alpha 90.000000
_cell_angle_beta 90.000000
_cell_angle_gamma 90.000000
_cell_volume 1461.969057
_symmetry_space_group_name_H-M "I B A M"
_symmetry_group_IT_number 72
_symmetry_cell_setting 'orthorhombic'
loop_
_space_group_symop_operation_xyz
x,y,z
-x,-y,z
x,-y,1/2-z
-x,y,1/2-z
-x,-y,-z
x,y,-z
-x,y,1/2+z
x,-y,1/2+z
1/2+x,1/2+y,1/2+z
1/2-x,1/2-y,1/2+z
1/2+x,1/2-y,-z
1/2-x,1/2+y,-z
1/2-x,1/2-y,1/2-z
1/2+x,1/2+y,1/2-z
1/2-x,1/2+y,z
1/2+x,1/2-y,z
loop_
_atom_site_type_symbol
_atom_site_label
_atom_site_fract_x
_atom_site_fract_y
_atom_site_fract_z
Si Si1 0.317438 0.012871 0.500000
Si Si2 0.611831 0.666975 0.815860
Si Si3 0.391925 0.173253 0.365971
O O1 0.234008 0.235379 0.500000
O O2 0.382863 0.057343 0.436434
O O3 0.615787 0.500000 0.750000
O O4 0.653411 0.460938 0.866566
O O5 0.500847 0.750443 0.838869
O O6 0.654180 0.956095 0.818892
#
# Coordination Sequence:
#
# PCOD9527151 Si02
#       3
#     8  16  16
#     4  12  26  44  62  84 126 180 222 248 278 350
#     4  10  20  36  65  99 125 149 189 263 337 378
#     4  10  21  37  62  92 126 159 201 252 313 366
#
# _framework density 27.36036
#
# number of rings (size 3 to 8) (size 9 to 14) (size 15 to 20)
#    0.000    1.600    0.000    6.000    0.000   12.800 
#    0.000    0.000    0.000   36.000    0.000    0.000 
#    0.000    0.000    0.000    0.000    0.000    0.000 
#
# Total GULP energy -111552.395097 kJ/mol
# GULP energy per Si atom -5577.619755 kJ/mol
# Density = 2.729809 g / cm^3
# Si number density = 27.360360 Si / 1000 Ang^3
#
#
#
# Elastic Constant Matrix: (Units=GPa)
#
#
# Indices 1 2 3 4 5 6 
#
# 1 122.5212 -1.6369 8.5115 0.0000 0.0000 0.0000
# 2 -1.6369 303.0843 59.2494 0.0000 0.0000 0.0000
# 3 8.5115 59.2494 201.0560 0.0000 0.0000 0.0000
# 4 0.0000 0.0000 0.0000 53.4498 0.0000 0.0000
# 5 0.0000 0.0000 0.0000 0.0000 35.1905 0.0000
# 6 0.0000 0.0000 0.0000 0.0000 0.0000 5.0713
#
#
#
# Elastic Compliance Matrix: (Units=1/GPa)
#
#
# Indices 1 2 3 4 5 6 
#
# 1 0.008190 0.000119 -0.000382 0.000000 0.000000 0.000000
# 2 0.000119 0.003503 -0.001037 0.000000 0.000000 0.000000
# 3 -0.000382 -0.001037 0.005296 0.000000 0.000000 0.000000
# 4 0.000000 0.000000 0.000000 0.018709 0.000000 0.000000
# 5 0.000000 0.000000 0.000000 0.000000 0.028417 0.000000
# 6 0.000000 0.000000 0.000000 0.000000 0.000000 0.197188
#
#
# Mechanical properties :
#
#
# Convention : Reuss Voigt Hill
#
# Bulk Modulus (GPa) = 69.50218 84.32327 76.91272
# Shear Modulus (GPa) = 18.60823 56.11148 37.35986
#
# Velocity S-wave (km/s) = 2.61073 4.53352 3.69924
# Velocity P-wave (km/s) = 5.87755 7.63480 6.81307
#
# Compressibility (1/GPa) = 0.01438804
#
# Stress axis : x y z
#
# Youngs Moduli (GPa) = 122.10069 285.48334 188.83682
#
# Poissons Ratio (x) = -0.03393 0.07209
# Poissons Ratio (y) = -0.01451 0.19588
# Poissons Ratio (z) = 0.04661 0.29613
#
# Static dielectric constant tensor:
#      x y z
#    x 2.860680 0.000000 0.000000 
#    y 0.000000 2.490700 0.000000 
#    z 0.000000 0.000000 2.163930 
# 
# From -- ./inp_files/30967.got.cif
#   From: 2010.05.17/outbox.cif.g08.bks.cpg/sg72_16_cif.got.tgz:30967.got - 2010.06.03 17:03:01.
