data_PCOD9527251
_publ_section_title
;
Structure prediction by ZEFSAII (Michael W. Deem and Ramdas Pophale) SiO2 
 PCOD9527251
Probable space group: I B A M
;
_chemical_formula_sum "Si O2"
_cell_formula_units_Z 104
_cell_length_a 8.998870
_cell_length_b 26.167719
_cell_length_c 21.284461
_cell_angle_alpha 90.000000
_cell_angle_beta 90.000000
_cell_angle_gamma 90.000000
_cell_volume 5012.062779
_symmetry_space_group_name_H-M "I B A M"
_symmetry_group_IT_number 72
_symmetry_cell_setting 'orthorhombic'
loop_
_space_group_symop_operation_xyz
x,y,z
-x,-y,z
x,-y,1/2-z
-x,y,1/2-z
-x,-y,-z
x,y,-z
-x,y,1/2+z
x,-y,1/2+z
1/2+x,1/2+y,1/2+z
1/2-x,1/2-y,1/2+z
1/2+x,1/2-y,-z
1/2-x,1/2+y,-z
1/2-x,1/2-y,1/2-z
1/2+x,1/2+y,1/2-z
1/2-x,1/2+y,z
1/2+x,1/2-y,z
loop_
_atom_site_type_symbol
_atom_site_label
_atom_site_fract_x
_atom_site_fract_y
_atom_site_fract_z
Si Si1 0.015766 0.234891 0.643191
Si Si2 0.678066 0.887847 0.570210
Si Si3 0.000000 0.392874 0.250000
Si Si4 0.120249 0.422287 0.381359
Si Si5 0.703156 0.815598 0.685076
Si Si6 0.743668 0.814144 0.075647
Si Si7 0.331610 0.511787 0.575791
O O1 0.126062 0.199716 0.683524
O O2 0.124670 0.273986 0.605341
O O3 0.902682 0.266605 0.686468
O O4 0.908042 0.204110 0.596102
O O5 0.712267 0.870953 0.500000
O O6 0.520905 0.917015 0.572735
O O7 0.672659 0.840881 0.616956
O O8 0.794321 0.930057 0.592946
O O9 0.951600 0.422914 0.188078
O O10 0.860042 0.356389 0.266261
O O11 0.209676 0.369739 0.394619
O O12 0.220045 0.471173 0.394349
O O13 0.728850 0.816155 0.000000
O O14 0.500000 0.500000 0.592810
O O15 0.315890 0.508158 0.500000
#
# Coordination Sequence:
#
# PCOD9527251 Si02
#       7
#    16  16   8  16  16  16  16
#     4  10  22  38  57  90 124 165 205 255 313 369
#     4  10  20  37  62  90 126 163 199 252 313 382
#     4  10  22  44  65  86 120 168 224 261 294 352
#     4  11  22  40  63  89 122 163 214 255 301 372
#     4  10  22  40  60  89 124 165 214 254 308 362
#     4  11  21  36  59  91 127 161 200 256 315 379
#     4  10  22  39  65  99 130 157 193 255 329 391
#
# _framework density 20.749939000000001
#
# number of rings (size 3 to 8) (size 9 to 14) (size 15 to 20)
#    0.000    1.692    3.077    2.308    2.154    4.923 
#    0.000    6.154    0.000    3.692    0.000    0.000 
#    0.000    0.000    0.000    0.000    0.000    0.000 
#
# Total GULP energy -290608.065272 kJ/mol
# GULP energy per Si atom -5588.616640 kJ/mol
# Density = 2.070271 g / cm^3
# Si number density = 20.749939 Si / 1000 Ang^3
#
#
#
# Elastic Constant Matrix: (Units=GPa)
#
#
# Indices 1 2 3 4 5 6 
#
# 1 98.9309 9.8809 1.5102 0.0000 0.0000 0.0000
# 2 9.8809 28.4891 7.3867 0.0000 0.0000 0.0000
# 3 1.5102 7.3867 55.4300 -0.0001 0.0000 0.0000
# 4 0.0000 0.0000 -0.0001 10.9880 0.0000 0.0000
# 5 0.0000 0.0000 0.0000 0.0000 18.0398 0.0000
# 6 0.0000 0.0000 0.0000 0.0000 0.0000 30.8203
#
#
#
# Elastic Compliance Matrix: (Units=1/GPa)
#
#
# Indices 1 2 3 4 5 6 
#
# 1 0.010473 -0.003686 0.000206 0.000000 0.000000 0.000000
# 2 -0.003686 0.037654 -0.004917 0.000000 0.000000 0.000000
# 3 0.000206 -0.004917 0.018690 0.000000 0.000000 0.000000
# 4 0.000000 0.000000 0.000000 0.091008 0.000000 0.000000
# 5 0.000000 0.000000 0.000000 0.000000 0.055433 0.000000
# 6 0.000000 0.000000 0.000000 0.000000 0.000000 0.032446
#
#
# Mechanical properties :
#
#
# Convention : Reuss Voigt Hill
#
# Bulk Modulus (GPa) = 19.99074 24.48952 22.24013
# Shear Modulus (GPa) = 17.90995 22.90778 20.40887
#
# Velocity S-wave (km/s) = 2.94110 3.32624 3.13958
# Velocity P-wave (km/s) = 4.60309 5.15555 4.88713
#
# Compressibility (1/GPa) = 0.05002316
#
# Stress axis : x y z
#
# Youngs Moduli (GPa) = 95.48326 26.55730 53.50320
#
# Poissons Ratio (x) = 0.09788 -0.01101
# Poissons Ratio (y) = 0.35193 0.26310
# Poissons Ratio (z) = -0.01965 0.13060
#
# Static dielectric constant tensor:
#      x y z
#    x 1.747640 0.000000 0.000000 
#    y 0.000000 1.754360 0.000000 
#    z 0.000000 0.000000 1.729500 
# 
# From -- ./inp_files/36135.got.cif
#   From: 2010.05.17/outbox.cif.g08.bks.cpg/sg72_19_cif.got.tgz:36135.got - 2010.06.03 17:03:01.
