data_PCOD9527670
_publ_section_title
;
Structure prediction by ZEFSAII (Michael W. Deem and Ramdas Pophale) SiO2 
 PCOD9527670
Probable space group: I B A M
;
_chemical_formula_sum "Si O2"
_cell_formula_units_Z 116
_cell_length_a 25.106071
_cell_length_b 9.601890
_cell_length_c 26.052984
_cell_angle_alpha 90.000000
_cell_angle_beta 90.000000
_cell_angle_gamma 90.000000
_cell_volume 6280.481661
_symmetry_space_group_name_H-M "I B A M"
_symmetry_group_IT_number 72
_symmetry_cell_setting 'orthorhombic'
loop_
_space_group_symop_operation_xyz
x,y,z
-x,-y,z
x,-y,1/2-z
-x,y,1/2-z
-x,-y,-z
x,y,-z
-x,y,1/2+z
x,-y,1/2+z
1/2+x,1/2+y,1/2+z
1/2-x,1/2-y,1/2+z
1/2+x,1/2-y,-z
1/2-x,1/2+y,-z
1/2-x,1/2-y,1/2-z
1/2+x,1/2+y,1/2-z
1/2-x,1/2+y,z
1/2+x,1/2-y,z
loop_
_atom_site_type_symbol
_atom_site_label
_atom_site_fract_x
_atom_site_fract_y
_atom_site_fract_z
Si Si1 0.709905 0.353506 0.779510
Si Si2 0.415950 0.312184 0.556745
Si Si3 0.268174 0.023739 0.875726
Si Si4 0.862603 0.345244 0.060802
Si Si5 0.168062 0.039272 0.560923
Si Si6 0.439362 0.956438 0.876066
Si Si7 0.351758 0.101903 0.702118
Si Si8 0.500000 0.500000 0.500000
O O1 0.703940 0.500000 0.750000
O O2 0.750000 0.250000 0.750000
O O3 0.736372 0.384182 0.834396
O O4 0.656194 0.262835 0.783314
O O5 0.400659 0.253116 0.500000
O O6 0.366243 0.404032 0.576122
O O7 0.432729 0.188245 0.593342
O O8 0.464015 0.417544 0.543714
O O9 0.306877 0.106342 0.914164
O O10 0.222719 0.948416 0.908358
O O11 0.307328 0.929043 0.841515
O O12 0.866225 0.179147 0.068007
O O13 0.908674 0.427302 0.090250
O O14 0.863866 0.373616 0.000000
O O15 0.178715 0.027763 0.500000
O O16 0.407691 0.937091 0.823065
O O17 0.500000 0.000000 0.869631
O O18 0.340994 0.000000 0.750000
#
# Coordination Sequence:
#
# PCOD9527670 Si02
#       8
#    16  16  16  16  16  16  16   4
#     4  12  21  36  64  92 120 158 198 249 305 365
#     4   9  20  37  59  88 119 162 201 249 301 352
#     4  11  20  36  60  86 128 159 203 244 302 369
#     4  10  23  37  58  91 124 165 207 245 299 368
#     4  10  21  36  57  87 126 168 201 243 305 362
#     4  11  25  40  63  89 115 157 206 264 308 359
#     4  11  23  42  60  88 121 154 206 252 313 375
#     4   8  20  36  66  80 124 170 202 252 286 356
#
# _framework density 18.469920999999999
#
# number of rings (size 3 to 8) (size 9 to 14) (size 15 to 20)
#    0.414    1.103    2.759    2.483    1.931    2.483 
#    0.000    2.759    0.000    0.000    0.000    0.000 
#    0.000    0.000    0.000    0.000    0.000    0.000 
#
# Total GULP energy -323115.441012 kJ/mol
# GULP energy per Si atom -5570.955880 kJ/mol
# Density = 1.842788 g / cm^3
# Si number density = 18.469921 Si / 1000 Ang^3
#
#
#
# Elastic Constant Matrix: (Units=GPa)
#
#
# Indices 1 2 3 4 5 6 
#
# 1 116.0999 58.1706 49.6310 0.0000 0.0000 0.0000
# 2 58.1706 108.0613 47.4480 0.0000 0.0000 0.0000
# 3 49.6310 47.4480 62.4287 0.0000 0.0000 0.0000
# 4 0.0000 0.0000 0.0000 12.2515 0.0000 0.0000
# 5 0.0000 0.0000 0.0000 0.0000 17.7916 0.0000
# 6 0.0000 0.0000 0.0000 0.0000 0.0000 26.7224
#
#
#
# Elastic Compliance Matrix: (Units=1/GPa)
#
#
# Indices 1 2 3 4 5 6 
#
# 1 0.014117 -0.004010 -0.008176 0.000000 0.000000 0.000000
# 2 -0.004010 0.015028 -0.008234 0.000000 0.000000 0.000000
# 3 -0.008176 -0.008234 0.028776 0.000000 0.000000 0.000000
# 4 0.000000 0.000000 0.000000 0.081623 0.000000 0.000000
# 5 0.000000 0.000000 0.000000 0.000000 0.056206 0.000000
# 6 0.000000 0.000000 0.000000 0.000000 0.000000 0.037422
#
#
# Mechanical properties :
#
#
# Convention : Reuss Voigt Hill
#
# Bulk Modulus (GPa) = 58.53975 66.34322 62.44148
# Shear Modulus (GPa) = 17.87595 20.10911 18.99253
#
# Velocity S-wave (km/s) = 3.11439 3.30320 3.21018
# Velocity P-wave (km/s) = 6.68551 7.10955 6.90079
#
# Compressibility (1/GPa) = 0.01708241
#
# Stress axis : x y z
#
# Youngs Moduli (GPa) = 70.83513 66.54305 34.75086
#
# Poissons Ratio (x) = 0.26681 0.28412
# Poissons Ratio (y) = 0.28402 0.28614
# Poissons Ratio (z) = 0.57914 0.54792
#
# Static dielectric constant tensor:
#      x y z
#    x 1.628660 0.000000 0.000000 
#    y 0.000000 1.656240 0.000000 
#    z 0.000000 0.000000 1.659820 
# 
# From -- ./inp_files/45984.got.cif
#   From: 2010.05.17/outbox.cif.g08.bks.cpg/sg72_23_cif.got.tgz:45984.got - 2010.06.03 17:03:01.
