data_PCOD9527355
_publ_section_title
;
Structure prediction by ZEFSAII (Michael W. Deem and Ramdas Pophale) SiO2 
 PCOD9527355
Probable space group: I B A M
;
_chemical_formula_sum "Si O2"
_cell_formula_units_Z 96
_cell_length_a 8.029161
_cell_length_b 23.005114
_cell_length_c 26.730336
_cell_angle_alpha 90.000000
_cell_angle_beta 90.000000
_cell_angle_gamma 90.000000
_cell_volume 4937.407518
_symmetry_space_group_name_H-M "I B A M"
_symmetry_group_IT_number 72
_symmetry_cell_setting 'orthorhombic'
loop_
_space_group_symop_operation_xyz
x,y,z
-x,-y,z
x,-y,1/2-z
-x,y,1/2-z
-x,-y,-z
x,y,-z
-x,y,1/2+z
x,-y,1/2+z
1/2+x,1/2+y,1/2+z
1/2-x,1/2-y,1/2+z
1/2+x,1/2-y,-z
1/2-x,1/2+y,-z
1/2-x,1/2-y,1/2-z
1/2+x,1/2+y,1/2-z
1/2-x,1/2+y,z
1/2+x,1/2-y,z
loop_
_atom_site_type_symbol
_atom_site_label
_atom_site_fract_x
_atom_site_fract_y
_atom_site_fract_z
Si Si1 0.997214 0.795453 0.304611
Si Si2 0.916972 0.276018 0.094847
Si Si3 0.307261 0.505634 0.189950
Si Si4 0.311314 0.133856 0.835206
Si Si5 0.199339 0.380385 0.837313
Si Si6 0.731118 0.833821 0.445409
O O1 0.986477 0.752802 0.352755
O O2 0.839650 0.839688 0.311080
O O3 0.000000 0.765770 0.250000
O O4 0.168706 0.832286 0.304655
O O5 0.800324 0.329221 0.112980
O O6 0.844081 0.221909 0.065723
O O7 0.049621 0.306113 0.059762
O O8 0.500000 0.500000 0.174778
O O9 0.300727 0.500000 0.250000
O O10 0.236538 0.566229 0.169174
O O11 0.214375 0.448040 0.173131
O O12 0.509374 0.136808 0.823462
O O13 0.237741 0.373432 0.896367
O O14 0.762579 0.859243 0.500000
#
# Coordination Sequence:
#
# PCOD9527355 Si02
#       6
#    16  16  16  16  16  16
#     4  11  22  38  57  87 130 165 196 248 307 364
#     4  10  21  39  56  91 121 158 202 251 309 371
#     4  11  22  39  61  88 121 167 208 250 301 359
#     4  11  22  39  60  83 127 159 204 252 291 359
#     4  10  23  39  60  92 119 161 211 252 306 361
#     4  10  20  38  64  87 118 157 204 259 310 360
#
# _framework density 19.443403
#
# number of rings (size 3 to 8) (size 9 to 14) (size 15 to 20)
#    0.000    1.500    3.333    2.000    0.000    4.000 
#    6.000    0.000    0.000    9.500    0.000    0.000 
#    0.000    0.000    0.000    0.000    0.000    0.000 
#
# Total GULP energy -267367.275958 kJ/mol
# GULP energy per Si atom -5570.151582 kJ/mol
# Density = 1.939915 g / cm^3
# Si number density = 19.443403 Si / 1000 Ang^3
#
#
#
# Elastic Constant Matrix: (Units=GPa)
#
#
# Indices 1 2 3 4 5 6 
#
# 1 58.4113 17.7998 27.8703 0.0000 0.0000 0.0000
# 2 17.7998 96.1446 13.4776 0.0000 0.0000 0.0000
# 3 27.8703 13.4776 101.0299 0.0000 0.0000 0.0000
# 4 0.0000 0.0000 0.0000 8.3711 0.0000 0.0000
# 5 0.0000 0.0000 0.0000 0.0000 29.0451 0.0000
# 6 0.0000 0.0000 0.0000 0.0000 0.0000 88.0784
#
#
#
# Elastic Compliance Matrix: (Units=1/GPa)
#
#
# Indices 1 2 3 4 5 6 
#
# 1 0.020567 -0.003070 -0.005264 0.000000 0.000000 0.000000
# 2 -0.003070 0.011057 -0.000628 0.000000 0.000000 0.000000
# 3 -0.005264 -0.000628 0.011434 0.000000 0.000000 0.000000
# 4 0.000000 0.000000 0.000000 0.119459 0.000000 0.000000
# 5 0.000000 0.000000 0.000000 0.000000 0.034429 0.000000
# 6 0.000000 0.000000 0.000000 0.000000 0.000000 0.011354
#
#
# Mechanical properties :
#
#
# Convention : Reuss Voigt Hill
#
# Bulk Modulus (GPa) = 39.78642 41.54236 40.66439
# Shear Modulus (GPa) = 21.31258 38.19478 29.75368
#
# Velocity S-wave (km/s) = 3.31438 4.43697 3.91611
# Velocity P-wave (km/s) = 5.92908 6.90370 6.43487
#
# Compressibility (1/GPa) = 0.02513421
#
# Stress axis : x y z
#
# Youngs Moduli (GPa) = 48.62108 90.43722 87.45800
#
# Poissons Ratio (x) = 0.27762 0.46040
# Poissons Ratio (y) = 0.14926 0.05494
# Poissons Ratio (z) = 0.25595 0.05682
#
# Static dielectric constant tensor:
#      x y z
#    x 1.772850 0.000000 0.000000 
#    y 0.000000 1.674270 0.000000 
#    z 0.000000 0.000000 1.671650 
# 
# From -- ./inp_files/47320.got.cif
#   From: 2010.05.17/outbox.cif.g08.bks.cpg/sg72_24_cif.got.tgz:47320.got - 2010.06.03 17:03:01.
