data_PCOD9527185
_publ_section_title
;
Structure prediction by ZEFSAII (Michael W. Deem and Ramdas Pophale) SiO2 
 PCOD9527185
Probable space group: I B A M
;
_chemical_formula_sum "Si O2"
_cell_formula_units_Z 96
_cell_length_a 16.060430
_cell_length_b 20.587156
_cell_length_c 15.698705
_cell_angle_alpha 90.000000
_cell_angle_beta 90.000000
_cell_angle_gamma 90.000000
_cell_volume 5190.597495
_symmetry_space_group_name_H-M "I B A M"
_symmetry_group_IT_number 72
_symmetry_cell_setting 'orthorhombic'
loop_
_space_group_symop_operation_xyz
x,y,z
-x,-y,z
x,-y,1/2-z
-x,y,1/2-z
-x,-y,-z
x,y,-z
-x,y,1/2+z
x,-y,1/2+z
1/2+x,1/2+y,1/2+z
1/2-x,1/2-y,1/2+z
1/2+x,1/2-y,-z
1/2-x,1/2+y,-z
1/2-x,1/2-y,1/2-z
1/2+x,1/2+y,1/2-z
1/2-x,1/2+y,z
1/2+x,1/2-y,z
loop_
_atom_site_type_symbol
_atom_site_label
_atom_site_fract_x
_atom_site_fract_y
_atom_site_fract_z
Si Si1 0.988827 0.577936 0.094143
Si Si2 0.332107 0.069258 0.704765
Si Si3 0.643257 0.836492 0.151120
Si Si4 0.788063 0.136166 0.098203
Si Si5 0.694428 0.271385 0.092807
Si Si6 0.905181 0.798132 0.265957
O O1 0.920507 0.590207 0.165594
O O2 0.000000 0.500000 0.095240
O O3 0.074007 0.616452 0.110800
O O4 0.957484 0.596217 0.000000
O O5 0.311904 0.122285 0.775568
O O6 0.262796 0.073867 0.631609
O O7 0.338647 0.000000 0.750000
O O8 0.717807 0.809770 0.093837
O O9 0.599188 0.773538 0.191537
O O10 0.722337 0.196251 0.101556
O O11 0.858974 0.155423 0.166019
O O12 0.815877 0.130490 0.000000
O O13 0.642178 0.292204 0.175305
O O14 0.653389 0.280322 0.000000
O O15 0.000000 0.817185 0.250000
#
# Coordination Sequence:
#
# PCOD9527185 Si02
#       6
#    16  16  16  16  16  16
#     4  11  23  34  48  80 120 158 197 232 272 338
#     4  12  21  35  56  80 114 160 197 229 281 344
#     4  11  20  37  55  81 117 155 193 232 280 345
#     4  10  21  39  59  83 116 152 193 241 292 347
#     4  10  20  37  59  82 114 152 192 244 296 343
#     4  11  21  37  60  87 113 147 195 247 299 346
#
# _framework density 18.494980000000002
#
# number of rings (size 3 to 8) (size 9 to 14) (size 15 to 20)
#    0.000    1.167    5.000    3.500    0.000    1.333 
#    0.000    0.000    0.000    0.500    0.000    1.167 
#    0.000    0.000    0.000    0.000    0.000    0.000 
#
# Total GULP energy -267885.264767 kJ/mol
# GULP energy per Si atom -5580.943016 kJ/mol
# Density = 1.845288 g / cm^3
# Si number density = 18.494980 Si / 1000 Ang^3
#
#
#
# Elastic Constant Matrix: (Units=GPa)
#
#
# Indices 1 2 3 4 5 6 
#
# 1 89.5174 20.5256 48.0663 0.0000 0.0000 0.0000
# 2 20.5256 38.3339 14.4323 0.0000 0.0000 0.0000
# 3 48.0663 14.4323 135.6148 0.0000 0.0000 0.0000
# 4 0.0000 0.0000 0.0000 10.7864 0.0000 0.0000
# 5 0.0000 0.0000 0.0000 0.0000 6.2402 0.0000
# 6 0.0000 0.0000 0.0000 0.0000 0.0000 23.7215
#
#
#
# Elastic Compliance Matrix: (Units=1/GPa)
#
#
# Indices 1 2 3 4 5 6 
#
# 1 0.015145 -0.006343 -0.004693 0.000000 0.000000 0.000000
# 2 -0.006343 0.029832 -0.000927 0.000000 0.000000 0.000000
# 3 -0.004693 -0.000927 0.009136 0.000000 0.000000 0.000000
# 4 0.000000 0.000000 0.000000 0.092709 0.000000 0.000000
# 5 0.000000 0.000000 0.000000 0.000000 0.160251 0.000000
# 6 0.000000 0.000000 0.000000 0.000000 0.000000 0.042156
#
#
# Mechanical properties :
#
#
# Convention : Reuss Voigt Hill
#
# Bulk Modulus (GPa) = 33.12565 47.72384 40.42474
# Shear Modulus (GPa) = 13.04748 20.17909 16.61329
#
# Velocity S-wave (km/s) = 2.65893 3.30670 3.00035
# Velocity P-wave (km/s) = 5.23221 6.35914 5.82300
#
# Compressibility (1/GPa) = 0.03018809
#
# Stress axis : x y z
#
# Youngs Moduli (GPa) = 66.02756 33.52160 109.45963
#
# Poissons Ratio (x) = 0.21261 0.51369
# Poissons Ratio (y) = 0.41878 0.10144
# Poissons Ratio (z) = 0.30987 0.03106
#
# Static dielectric constant tensor:
#      x y z
#    x 1.638330 0.000000 0.000000 
#    y 0.000000 1.633790 0.000000 
#    z 0.000000 0.000000 1.694430 
# 
# From -- ./inp_files/21837.got.cif
#   From: 2010.05.17/outbox.cif.g08.bks.cpg/sg72_11_cif.got.tgz:21837.got - 2010.06.03 17:03:01.
