data_PCOD9527306
_publ_section_title
;
Structure prediction by ZEFSAII (Michael W. Deem and Ramdas Pophale) SiO2 
 PCOD9527306
Probable space group: I B A M
;
_chemical_formula_sum "Si O2"
_cell_formula_units_Z 112
_cell_length_a 31.485742
_cell_length_b 11.452049
_cell_length_c 15.791504
_cell_angle_alpha 90.000000
_cell_angle_beta 90.000000
_cell_angle_gamma 90.000000
_cell_volume 5694.041455
_symmetry_space_group_name_H-M "I B A M"
_symmetry_group_IT_number 72
_symmetry_cell_setting 'orthorhombic'
loop_
_space_group_symop_operation_xyz
x,y,z
-x,-y,z
x,-y,1/2-z
-x,y,1/2-z
-x,-y,-z
x,y,-z
-x,y,1/2+z
x,-y,1/2+z
1/2+x,1/2+y,1/2+z
1/2-x,1/2-y,1/2+z
1/2+x,1/2-y,-z
1/2-x,1/2+y,-z
1/2-x,1/2-y,1/2-z
1/2+x,1/2+y,1/2-z
1/2-x,1/2+y,z
1/2+x,1/2-y,z
loop_
_atom_site_type_symbol
_atom_site_label
_atom_site_fract_x
_atom_site_fract_y
_atom_site_fract_z
Si Si1 0.068613 0.540402 0.344918
Si Si2 0.876884 0.032718 0.651709
Si Si3 0.780172 0.000656 0.854130
Si Si4 0.513173 0.834118 0.098976
Si Si5 0.463192 0.582732 0.399466
Si Si6 0.139655 0.286818 0.100151
Si Si7 0.235162 0.260930 0.847125
O O1 0.077255 0.500000 0.250000
O O2 0.050403 0.429136 0.394723
O O3 0.109447 0.603806 0.382470
O O4 0.028004 0.626225 0.349161
O O5 0.829651 0.001602 0.619367
O O6 0.882696 0.169948 0.634827
O O7 0.876738 0.000000 0.750000
O O8 0.916390 0.965646 0.613107
O O9 0.760753 0.873691 0.881703
O O10 0.778657 0.000000 0.750000
O O11 0.759085 0.123309 0.882425
O O12 0.530596 0.712811 0.132984
O O13 0.499890 0.826909 0.000000
O O14 0.500000 0.500000 0.363448
O O15 0.470174 0.590130 0.500000
O O16 0.185300 0.290844 0.145325
O O17 0.146681 0.274221 0.000000
O O18 0.250000 0.250000 0.750000
#
# Coordination Sequence:
#
# PCOD9527306 Si02
#       7
#    16  16  16  16  16  16  16
#     4  11  23  38  60  86 122 164 214 263 313 372
#     4  10  21  37  60  90 124 157 203 258 313 378
#     4   8  16  33  56  83 116 155 196 251 310 369
#     4  10  20  38  60  82 122 168 210 262 323 384
#     4  10  21  37  57  83 117 159 205 255 316 378
#     4  11  23  41  65  94 127 169 213 256 322 401
#     4   9  18  36  61  87 121 163 212 256 316 385
#
# _framework density 19.669685000000001
#
# number of rings (size 3 to 8) (size 9 to 14) (size 15 to 20)
#    0.000    2.143    0.000    4.714    2.000    3.143 
#    5.143    3.571    0.000    0.000    0.000    0.000 
#    0.000    0.000    0.000    0.000    0.000    0.000 
#
# Total GULP energy -312277.119566 kJ/mol
# GULP energy per Si atom -5576.377135 kJ/mol
# Density = 1.962492 g / cm^3
# Si number density = 19.669685 Si / 1000 Ang^3
#
#
#
# Elastic Constant Matrix: (Units=GPa)
#
#
# Indices 1 2 3 4 5 6 
#
# 1 85.6419 86.3051 15.8659 0.0000 0.0000 0.0000
# 2 86.3051 157.4567 7.1463 0.0000 0.0000 0.0000
# 3 15.8659 7.1463 54.4497 0.0000 0.0000 0.0000
# 4 0.0000 0.0000 0.0000 21.7299 0.0000 0.0000
# 5 0.0000 0.0000 0.0000 0.0000 84.8882 0.0000
# 6 0.0000 0.0000 0.0000 0.0000 0.0000 31.5596
#
#
#
# Elastic Compliance Matrix: (Units=1/GPa)
#
#
# Indices 1 2 3 4 5 6 
#
# 1 0.028012 -0.015073 -0.006184 0.000000 0.000000 0.000000
# 2 -0.015073 0.014500 0.002489 0.000000 0.000000 0.000000
# 3 -0.006184 0.002489 0.019841 0.000000 0.000000 0.000000
# 4 0.000000 0.000000 0.000000 0.046020 0.000000 0.000000
# 5 0.000000 0.000000 0.000000 0.000000 0.011780 0.000000
# 6 0.000000 0.000000 0.000000 0.000000 0.000000 0.031686
#
#
# Mechanical properties :
#
#
# Convention : Reuss Voigt Hill
#
# Bulk Modulus (GPa) = 40.29592 57.35367 48.82480
# Shear Modulus (GPa) = 25.29747 40.18425 32.74086
#
# Velocity S-wave (km/s) = 3.59013 4.52481 4.08430
# Velocity P-wave (km/s) = 6.14135 7.51799 6.86427
#
# Compressibility (1/GPa) = 0.02481641
#
# Stress axis : x y z
#
# Youngs Moduli (GPa) = 35.69848 68.96534 50.40103
#
# Poissons Ratio (x) = 1.03955 0.31169
# Poissons Ratio (y) = 0.53810 -0.12546
# Poissons Ratio (z) = 0.22076 -0.17166
#
# Static dielectric constant tensor:
#      x y z
#    x 1.657550 0.000000 0.000000 
#    y 0.000000 1.726870 0.000000 
#    z 0.000000 0.000000 1.690000 
# 
# From -- ./inp_files/26332.got.cif
#   From: 2010.05.17/outbox.cif.g08.bks.cpg/sg72_14_cif.got.tgz:26332.got - 2010.06.03 17:03:01.
