data_PCOD9527406
_publ_section_title
;
Structure prediction by ZEFSAII (Michael W. Deem and Ramdas Pophale) SiO2 
 PCOD9527406
Probable space group: I B A M
;
_chemical_formula_sum "Si O2"
_cell_formula_units_Z 88
_cell_length_a 16.125775
_cell_length_b 11.559624
_cell_length_c 23.178552
_cell_angle_alpha 90.000000
_cell_angle_beta 90.000000
_cell_angle_gamma 90.000000
_cell_volume 4320.665104
_symmetry_space_group_name_H-M "I B A M"
_symmetry_group_IT_number 72
_symmetry_cell_setting 'orthorhombic'
loop_
_space_group_symop_operation_xyz
x,y,z
-x,-y,z
x,-y,1/2-z
-x,y,1/2-z
-x,-y,-z
x,y,-z
-x,y,1/2+z
x,-y,1/2+z
1/2+x,1/2+y,1/2+z
1/2-x,1/2-y,1/2+z
1/2+x,1/2-y,-z
1/2-x,1/2+y,-z
1/2-x,1/2-y,1/2-z
1/2+x,1/2+y,1/2-z
1/2-x,1/2+y,z
1/2+x,1/2-y,z
loop_
_atom_site_type_symbol
_atom_site_label
_atom_site_fract_x
_atom_site_fract_y
_atom_site_fract_z
Si Si1 0.137986 0.969647 0.500000
Si Si2 0.435615 0.216395 0.500000
Si Si3 0.364080 0.755934 0.308349
Si Si4 0.690512 0.614520 0.290666
Si Si5 0.950686 0.380525 0.095876
Si Si6 0.593666 0.527452 0.124231
Si Si7 0.834949 0.474566 0.000000
O O1 0.114040 0.834633 0.500000
O O2 0.236870 0.982647 0.500000
O O3 0.100076 0.027783 0.556217
O O4 0.493256 0.205318 0.557092
O O5 0.377405 0.101923 0.500000
O O6 0.370995 0.699417 0.244904
O O7 0.276173 0.821149 0.304125
O O8 0.428614 0.839198 0.340091
O O9 0.369139 0.645139 0.350252
O O10 0.703635 0.500000 0.250000
O O11 0.649682 0.573722 0.349441
O O12 0.869881 0.407863 0.056511
O O13 0.000000 0.500000 0.098594
O O14 0.500000 0.500000 0.143269
#
# Coordination Sequence:
#
# PCOD9527406 Si02
#       7
#     8   8  16  16  16  16   8
#     4  12  23  36  59  91 117 152 204 238 281 360
#     4   9  20  38  56  84 122 156 192 247 299 350
#     4  10  20  39  63  85 116 159 195 247 299 340
#     4   9  21  41  63  87 118 157 202 240 290 357
#     4   9  18  37  61  86 118 153 195 244 302 356
#     4  11  24  40  59  88 124 157 196 245 300 357
#     4   9  20  34  55  85 120 158 192 239 304 358
#
# _framework density 20.367234
#
# number of rings (size 3 to 8) (size 9 to 14) (size 15 to 20)
#    0.000    2.182    0.000    3.545    0.000    7.636 
#    0.000   14.545    0.000    0.000    0.000    0.000 
#    0.000    0.000    0.000    0.000    0.000    0.000 
#
# Total GULP energy -245562.127666 kJ/mol
# GULP energy per Si atom -5580.957447 kJ/mol
# Density = 2.032088 g / cm^3
# Si number density = 20.367234 Si / 1000 Ang^3
#
#
#
# Elastic Constant Matrix: (Units=GPa)
#
#
# Indices 1 2 3 4 5 6 
#
# 1 69.3129 18.0263 6.8633 0.0000 0.0000 0.0000
# 2 18.0263 51.0547 16.0066 0.0000 0.0000 0.0000
# 3 6.8633 16.0066 85.2313 0.0000 0.0000 0.0000
# 4 0.0000 0.0000 0.0000 17.3672 0.0000 0.0000
# 5 0.0000 0.0000 0.0000 0.0000 32.5680 0.0000
# 6 0.0000 0.0000 0.0000 0.0000 0.0000 19.4407
#
#
#
# Elastic Compliance Matrix: (Units=1/GPa)
#
#
# Indices 1 2 3 4 5 6 
#
# 1 0.015891 -0.005535 -0.000240 0.000000 0.000000 0.000000
# 2 -0.005535 0.022740 -0.003825 0.000000 0.000000 0.000000
# 3 -0.000240 -0.003825 0.012470 0.000000 0.000000 0.000000
# 4 0.000000 0.000000 0.000000 0.057580 0.000000 0.000000
# 5 0.000000 0.000000 0.000000 0.000000 0.030705 0.000000
# 6 0.000000 0.000000 0.000000 0.000000 0.000000 0.051438
#
#
# Mechanical properties :
#
#
# Convention : Reuss Voigt Hill
#
# Bulk Modulus (GPa) = 31.34720 31.93237 31.63979
# Shear Modulus (GPa) = 22.65938 24.85537 23.75737
#
# Velocity S-wave (km/s) = 3.33910 3.49716 3.41904
# Velocity P-wave (km/s) = 5.50368 5.65855 5.58165
#
# Compressibility (1/GPa) = 0.03190078
#
# Stress axis : x y z
#
# Youngs Moduli (GPa) = 62.92991 43.97447 80.18959
#
# Poissons Ratio (x) = 0.24342 0.01925
# Poissons Ratio (y) = 0.34834 0.30672
# Poissons Ratio (z) = 0.01511 0.16820
#
# Static dielectric constant tensor:
#      x y z
#    x 1.712630 0.000000 0.000000 
#    y 0.000000 1.756640 0.000000 
#    z 0.000000 0.000000 1.727410 
# 
# From -- ./inp_files/44179.got.cif
#   From: 2010.05.17/outbox.cif.g08.bks.cpg/sg72_23_cif.got.tgz:44179.got - 2010.06.03 17:03:01.
