data_PCOD9527976
_publ_section_title
;
Structure prediction by ZEFSAII (Michael W. Deem and Ramdas Pophale) SiO2 
 PCOD9527976
Probable space group: I B A M
;
_chemical_formula_sum "Si O2"
_cell_formula_units_Z 84
_cell_length_a 24.507302
_cell_length_b 13.049927
_cell_length_c 14.574012
_cell_angle_alpha 90.000000
_cell_angle_beta 90.000000
_cell_angle_gamma 90.000000
_cell_volume 4661.038687
_symmetry_space_group_name_H-M "I B A M"
_symmetry_group_IT_number 72
_symmetry_cell_setting 'orthorhombic'
loop_
_space_group_symop_operation_xyz
x,y,z
-x,-y,z
x,-y,1/2-z
-x,y,1/2-z
-x,-y,-z
x,y,-z
-x,y,1/2+z
x,-y,1/2+z
1/2+x,1/2+y,1/2+z
1/2-x,1/2-y,1/2+z
1/2+x,1/2-y,-z
1/2-x,1/2+y,-z
1/2-x,1/2-y,1/2-z
1/2+x,1/2+y,1/2-z
1/2-x,1/2+y,z
1/2+x,1/2-y,z
loop_
_atom_site_type_symbol
_atom_site_label
_atom_site_fract_x
_atom_site_fract_y
_atom_site_fract_z
Si Si1 0.912499 0.423320 0.387697
Si Si2 0.825653 0.749535 0.888924
Si Si3 0.793648 0.814187 0.607545
Si Si4 0.000000 0.500000 0.250000
Si Si5 0.834923 0.390906 0.895791
Si Si6 0.715877 0.465096 0.149272
O O1 0.923004 0.425840 0.500000
O O2 0.876541 0.322474 0.368014
O O3 0.874810 0.521419 0.360863
O O4 0.963977 0.432369 0.320770
O O5 0.768774 0.696031 0.858201
O O6 0.821994 0.865185 0.851986
O O7 0.824348 0.757478 0.000000
O O8 0.790285 0.789345 0.500000
O O9 0.829353 0.721732 0.649444
O O10 0.811421 0.931512 0.612151
O O11 0.772883 0.434147 0.897769
O O12 0.854342 0.376441 0.000000
O O13 0.731632 0.500000 0.250000
#
# Coordination Sequence:
#
# PCOD9527976 Si02
#       6
#    16  16  16   4  16  16
#     4  10  21  39  57  79 105 139 179 225 275 319
#     4   9  18  33  52  70 103 146 179 209 253 310
#     4   9  16  29  48  71 101 141 175 196 232 307
#     4  12  26  36  60  78 102 132 182 244 280 318
#     4   9  18  32  50  70 102 142 176 209 249 304
#     4  11  20  26  43  77 113 144 171 204 242 314
#
# _framework density 18.021733000000001
#
# number of rings (size 3 to 8) (size 9 to 14) (size 15 to 20)
#    0.000    2.286    1.905    3.143    1.333    4.571 
#    0.000    0.000    0.000    0.000    0.000    6.000 
#    0.000   16.762    0.000    0.000    0.000    0.000 
#
# Total GULP energy -233864.742516 kJ/mol
# GULP energy per Si atom -5568.208155 kJ/mol
# Density = 1.798071 g / cm^3
# Si number density = 18.021733 Si / 1000 Ang^3
#
#
#
# Elastic Constant Matrix: (Units=GPa)
#
#
# Indices 1 2 3 4 5 6 
#
# 1 59.8342 50.3426 29.5454 0.0000 0.0000 0.0000
# 2 50.3426 171.9129 26.3243 0.0000 0.0000 0.0000
# 3 29.5454 26.3243 63.1862 0.0000 0.0000 0.0000
# 4 0.0000 0.0000 0.0000 -182.9775 0.0000 0.0000
# 5 0.0000 0.0000 0.0000 0.0000 9.0637 0.0000
# 6 0.0000 0.0000 0.0000 0.0000 0.0000 9.0010
#
#
#
# Elastic Compliance Matrix: (Units=1/GPa)
#
#
# Indices 1 2 3 4 5 6 
#
# 1 0.027004 -0.006381 -0.009968 0.000000 0.000000 0.000000
# 2 -0.006381 0.007721 -0.000233 0.000000 0.000000 0.000000
# 3 -0.009968 -0.000233 0.020584 0.000000 0.000000 0.000000
# 4 0.000000 0.000000 0.000000 -0.005465 0.000000 0.000000
# 5 0.000000 0.000000 0.000000 0.000000 0.110330 0.000000
# 6 0.000000 0.000000 0.000000 0.000000 0.000000 0.111099
#
#
# Mechanical properties :
#
#
# Convention : Reuss Voigt Hill
#
# Bulk Modulus (GPa) = 45.15793 56.37312 50.76552
# Shear Modulus (GPa) = 16.03489 -20.40114 -2.18313
#
# Velocity S-wave (km/s) = 2.98611 -3.36822 -1.10182
# Velocity P-wave (km/s) = 6.08285 4.02766 5.15864
#
# Compressibility (1/GPa) = 0.02214451
#
# Stress axis : x y z
#
# Youngs Moduli (GPa) = 37.03113 129.51204 48.58041
#
# Poissons Ratio (x) = 0.82648 0.48427
# Poissons Ratio (y) = 0.23631 0.01131
# Poissons Ratio (z) = 0.36914 0.03016
#
# Static dielectric constant tensor:
#      x y z
#    x 1.592990 0.000000 0.000000 
#    y 0.000000 1.688360 0.000000 
#    z 0.000000 0.000000 1.663150 
# 
# From -- ./inp_files/25005.got.cif
#   From: 2010.05.17/outbox.cif.g08.bks.cpg/sg72_13_cif.got.tgz:25005.got - 2010.06.03 17:03:01.
