data_PCOD9527015
_publ_section_title
;
Structure prediction by ZEFSAII (Michael W. Deem and Ramdas Pophale) SiO2 
 PCOD9527015
Probable space group: I B A M
;
_chemical_formula_sum "Si O2"
_cell_formula_units_Z 112
_cell_length_a 20.497639
_cell_length_b 10.780018
_cell_length_c 28.038333
_cell_angle_alpha 90.000000
_cell_angle_beta 90.000000
_cell_angle_gamma 90.000000
_cell_volume 6195.487935
_symmetry_space_group_name_H-M "I B A M"
_symmetry_group_IT_number 72
_symmetry_cell_setting 'orthorhombic'
loop_
_space_group_symop_operation_xyz
x,y,z
-x,-y,z
x,-y,1/2-z
-x,y,1/2-z
-x,-y,-z
x,y,-z
-x,y,1/2+z
x,-y,1/2+z
1/2+x,1/2+y,1/2+z
1/2-x,1/2-y,1/2+z
1/2+x,1/2-y,-z
1/2-x,1/2+y,-z
1/2-x,1/2-y,1/2-z
1/2+x,1/2+y,1/2-z
1/2-x,1/2+y,z
1/2+x,1/2-y,z
loop_
_atom_site_type_symbol
_atom_site_label
_atom_site_fract_x
_atom_site_fract_y
_atom_site_fract_z
Si Si1 0.389393 0.748692 0.363710
Si Si2 0.314103 0.182962 0.695368
Si Si3 0.827444 0.118948 0.221885
Si Si4 0.707428 0.516219 0.055170
Si Si5 0.424714 0.008062 0.192745
Si Si6 0.751551 0.764391 0.898433
Si Si7 0.057141 0.101115 0.555381
O O1 0.366212 0.641625 0.326961
O O2 0.405518 0.861551 0.329371
O O3 0.324921 0.790803 0.391723
O O4 0.442175 0.703018 0.402304
O O5 0.249367 0.104632 0.709066
O O6 0.331564 0.264914 0.741663
O O7 0.288469 0.267601 0.652127
O O8 0.373904 0.098873 0.678052
O O9 0.851472 0.000000 0.250000
O O10 0.749129 0.621745 0.082976
O O11 0.720613 0.375019 0.070023
O O12 0.629970 0.543479 0.060771
O O13 0.723495 0.532932 0.000000
O O14 0.500000 0.000000 0.178790
O O15 0.421118 0.000000 0.250000
O O16 0.052140 0.146282 0.500000
O O17 0.000000 0.000000 0.561992
#
# Coordination Sequence:
#
# PCOD9527015 Si02
#       7
#    16  16  16  16  16  16  16
#     4  10  21  38  56  83 112 147 188 235 287 337
#     4  10  21  34  55  79 112 147 191 231 278 342
#     4  10  21  33  56  82 111 146 185 240 281 330
#     4  10  20  36  56  83 115 145 184 237 295 347
#     4  11  22  38  54  75 113 156 191 222 277 345
#     4  10  21  33  57  85 111 144 185 237 291 343
#     4   9  20  39  61  83 111 150 194 240 288 347
#
# _framework density 18.077672
#
# number of rings (size 3 to 8) (size 9 to 14) (size 15 to 20)
#    0.000    2.000    1.429    1.714   10.000    1.714 
#    0.000    0.000    0.000    0.429    0.000    0.000 
#    0.000    0.000    0.000    0.000    0.000    0.000 
#
# Total GULP energy -311970.237791 kJ/mol
# GULP energy per Si atom -5570.897103 kJ/mol
# Density = 1.803653 g / cm^3
# Si number density = 18.077672 Si / 1000 Ang^3
#
#
#
# Elastic Constant Matrix: (Units=GPa)
#
#
# Indices 1 2 3 4 5 6 
#
# 1 51.2405 26.6180 18.7199 0.0000 0.0000 0.0000
# 2 26.6180 59.8279 23.7181 0.0000 0.0000 0.0000
# 3 18.7199 23.7181 87.9919 0.0000 0.0000 0.0000
# 4 0.0000 0.0000 0.0000 37.0054 0.0000 0.0000
# 5 0.0000 0.0000 0.0000 0.0000 8.1333 0.0000
# 6 0.0000 0.0000 0.0000 0.0000 0.0000 9.2081
#
#
#
# Elastic Compliance Matrix: (Units=1/GPa)
#
#
# Indices 1 2 3 4 5 6 
#
# 1 0.025941 -0.010473 -0.002696 0.000000 0.000000 0.000000
# 2 -0.010473 0.022942 -0.003956 0.000000 0.000000 0.000000
# 3 -0.002696 -0.003956 0.013005 0.000000 0.000000 0.000000
# 4 0.000000 0.000000 0.000000 0.027023 0.000000 0.000000
# 5 0.000000 0.000000 0.000000 0.000000 0.122951 0.000000
# 6 0.000000 0.000000 0.000000 0.000000 0.000000 0.108600
#
#
# Mechanical properties :
#
#
# Convention : Reuss Voigt Hill
#
# Bulk Modulus (GPa) = 36.18126 37.46360 36.82243
# Shear Modulus (GPa) = 13.73914 19.53631 16.63772
#
# Velocity S-wave (km/s) = 2.75981 3.29095 3.03701
# Velocity P-wave (km/s) = 5.49665 5.93373 5.71937
#
# Compressibility (1/GPa) = 0.02763862
#
# Stress axis : x y z
#
# Youngs Moduli (GPa) = 38.54912 43.58766 76.89592
#
# Poissons Ratio (x) = 0.45647 0.20731
# Poissons Ratio (y) = 0.40371 0.30421
# Poissons Ratio (z) = 0.10393 0.17244
#
# Static dielectric constant tensor:
#      x y z
#    x 1.621190 0.000000 0.000000 
#    y 0.000000 1.666950 0.000000 
#    z 0.000000 0.000000 1.674380 
# 
# From -- ./inp_files/45413.got.cif
#   From: 2010.05.17/outbox.cif.g08.bks.cpg/sg72_23_cif.got.tgz:45413.got - 2010.06.03 17:03:01.
