data_PCOD9527190
_publ_section_title
;
Structure prediction by ZEFSAII (Michael W. Deem and Ramdas Pophale) SiO2 
 PCOD9527190
Probable space group: I B A M
;
_chemical_formula_sum "Si O2"
_cell_formula_units_Z 112
_cell_length_a 10.863137
_cell_length_b 31.271716
_cell_length_c 15.801309
_cell_angle_alpha 90.000000
_cell_angle_beta 90.000000
_cell_angle_gamma 90.000000
_cell_volume 5367.845854
_symmetry_space_group_name_H-M "I B A M"
_symmetry_group_IT_number 72
_symmetry_cell_setting 'orthorhombic'
loop_
_space_group_symop_operation_xyz
x,y,z
-x,-y,z
x,-y,1/2-z
-x,y,1/2-z
-x,-y,-z
x,y,-z
-x,y,1/2+z
x,-y,1/2+z
1/2+x,1/2+y,1/2+z
1/2-x,1/2-y,1/2+z
1/2+x,1/2-y,-z
1/2-x,1/2+y,-z
1/2-x,1/2-y,1/2-z
1/2+x,1/2+y,1/2-z
1/2-x,1/2+y,z
1/2+x,1/2-y,z
loop_
_atom_site_type_symbol
_atom_site_label
_atom_site_fract_x
_atom_site_fract_y
_atom_site_fract_z
Si Si1 0.918270 0.887050 0.100095
Si Si2 0.801681 0.416688 0.596960
Si Si3 0.168202 0.163209 0.596808
Si Si4 0.815135 0.334589 0.099377
Si Si5 0.197154 0.953252 0.728835
Si Si6 0.558787 0.921758 0.841213
Si Si7 0.374742 0.749437 0.302551
O O1 0.826619 0.847270 0.119802
O O2 0.887274 0.923694 0.168600
O O3 0.056204 0.870188 0.107174
O O4 0.896261 0.899261 0.000000
O O5 0.755805 0.424075 0.500000
O O6 0.790267 0.365204 0.612616
O O7 0.730075 0.435017 0.678130
O O8 0.941440 0.433646 0.602546
O O9 0.173126 0.176958 0.500000
O O10 0.137330 0.204877 0.648553
O O11 0.885027 0.377952 0.124151
O O12 0.867363 0.292750 0.143175
O O13 0.823253 0.328048 0.000000
O O14 0.327885 0.953933 0.676577
O O15 0.148888 0.000000 0.750000
O O16 0.500000 0.913193 0.750000
O O17 0.500000 0.749707 0.250000
O O18 0.250000 0.750000 0.250000
#
# Coordination Sequence:
#
# PCOD9527190 Si02
#       7
#    16  16  16  16  16  16  16
#     4   9  20  41  67  92 128 176 223 269 333 397
#     4  10  22  38  60  88 125 166 209 258 322 394
#     4  10  23  43  63  87 123 174 219 268 327 392
#     4  10  20  37  59  85 119 162 208 262 317 379
#     4  10  22  39  65  95 125 162 211 271 331 396
#     4   9  19  35  59  85 122 156 203 252 317 386
#     4  12  27  39  61  94 130 167 221 276 332 393
#
# _framework density 20.864979000000002
#
# number of rings (size 3 to 8) (size 9 to 14) (size 15 to 20)
#    0.000    2.000    0.000    2.143   10.000    3.714 
#    0.000    3.571    0.000    2.571    0.000    0.000 
#    0.000    0.000    0.000    0.000    0.000    0.000 
#
# Total GULP energy -312390.218695 kJ/mol
# GULP energy per Si atom -5578.396762 kJ/mol
# Density = 2.081749 g / cm^3
# Si number density = 20.864979 Si / 1000 Ang^3
#
#
#
# Elastic Constant Matrix: (Units=GPa)
#
#
# Indices 1 2 3 4 5 6 
#
# 1 63.6329 7.7259 25.0746 0.0003 0.0000 0.0000
# 2 7.7259 75.9907 55.0245 0.0004 0.0000 0.0000
# 3 25.0746 55.0245 93.0504 0.0009 0.0000 -0.0001
# 4 0.0003 0.0004 0.0009 -110.5564 -0.0001 -0.0002
# 5 0.0000 0.0000 0.0000 -0.0001 26.9789 0.0000
# 6 0.0000 0.0000 -0.0001 -0.0002 0.0000 7.5364
#
#
#
# Elastic Compliance Matrix: (Units=1/GPa)
#
#
# Indices 1 2 3 4 5 6 
#
# 1 0.017948 0.002933 -0.006571 0.000000 0.000000 0.000000
# 2 0.002933 0.023493 -0.014683 0.000000 0.000000 0.000000
# 3 -0.006571 -0.014683 0.021200 0.000000 0.000000 0.000000
# 4 0.000000 0.000000 0.000000 -0.009045 0.000000 0.000000
# 5 0.000000 0.000000 0.000000 0.000000 0.037066 0.000000
# 6 0.000000 0.000000 0.000000 0.000000 0.000000 0.132690
#
#
# Mechanical properties :
#
#
# Convention : Reuss Voigt Hill
#
# Bulk Modulus (GPa) = 38.46120 45.36934 41.91527
# Shear Modulus (GPa) = 18.61084 -5.55162 6.52961
#
# Velocity S-wave (km/s) = 2.98982 -1.63295 1.77095
# Velocity P-wave (km/s) = 5.51290 4.27038 4.93093
#
# Compressibility (1/GPa) = 0.02600023
#
# Stress axis : x y z
#
# Youngs Moduli (GPa) = 55.71537 42.56569 47.16929
#
# Poissons Ratio (x) = -0.12486 0.30996
# Poissons Ratio (y) = -0.16344 0.69258
# Poissons Ratio (z) = 0.36612 0.62499
#
# Static dielectric constant tensor:
#      x y z
#    x 1.804470 0.000000 0.000000 
#    y 0.000000 1.781730 0.000000 
#    z 0.000000 0.000000 1.746960 
# 
# From -- ./inp_files/20740.got.cif
#   From: 2010.05.17/outbox.cif.g08.bks.cpg/sg72_11_cif.got.tgz:20740.got - 2010.06.03 17:03:01.
