data_PCOD9527944
_publ_section_title
;
Structure prediction by ZEFSAII (Michael W. Deem and Ramdas Pophale) SiO2 
 PCOD9527944
Probable space group: I B A M
;
_chemical_formula_sum "Si O2"
_cell_formula_units_Z 68
_cell_length_a 28.293469
_cell_length_b 5.048015
_cell_length_c 20.178499
_cell_angle_alpha 90.000000
_cell_angle_beta 90.000000
_cell_angle_gamma 90.000000
_cell_volume 2882.011391
_symmetry_space_group_name_H-M "I B A M"
_symmetry_group_IT_number 72
_symmetry_cell_setting 'orthorhombic'
loop_
_space_group_symop_operation_xyz
x,y,z
-x,-y,z
x,-y,1/2-z
-x,y,1/2-z
-x,-y,-z
x,y,-z
-x,y,1/2+z
x,-y,1/2+z
1/2+x,1/2+y,1/2+z
1/2-x,1/2-y,1/2+z
1/2+x,1/2-y,-z
1/2-x,1/2+y,-z
1/2-x,1/2-y,1/2-z
1/2+x,1/2+y,1/2-z
1/2-x,1/2+y,z
1/2+x,1/2-y,z
loop_
_atom_site_type_symbol
_atom_site_label
_atom_site_fract_x
_atom_site_fract_y
_atom_site_fract_z
Si Si1 0.219573 0.797384 0.000000
Si Si2 0.922768 0.608828 0.860939
Si Si3 0.717544 0.812859 0.145895
Si Si4 0.375842 0.416498 0.820044
Si Si5 0.000000 0.500000 0.250000
Si Si6 0.533120 0.247725 0.000000
O O1 0.197299 0.726860 0.929443
O O2 0.265886 0.605001 0.000000
O O3 0.908019 0.301220 0.856449
O O4 0.963650 0.637275 0.803689
O O5 0.939635 0.713293 0.931460
O O6 0.876322 0.793855 0.852121
O O7 0.759916 0.600173 0.153659
O O8 0.674453 0.721713 0.190878
O O9 0.396780 0.500000 0.750000
O O10 0.500000 0.500000 0.000000
O O11 0.500000 0.000000 0.000000
#
# Coordination Sequence:
#
# PCOD9527944 Si02
#       6
#     8  16  16  16   4   8
#     4   8  16  32  54  84 114 159 219 260 311 397
#     4  12  27  44  72 101 137 182 228 290 348 417
#     4  10  21  38  63  90 128 179 222 278 347 413
#     4  12  25  44  65 102 139 175 236 288 342 424
#     4  12  24  48  76  94 136 188 232 262 368 428
#     4  12  26  46  72 108 140 180 240 294 355 433
#
# _framework density 23.594629999999999
#
# number of rings (size 3 to 8) (size 9 to 14) (size 15 to 20)
#    0.000    0.941    3.529    2.824    0.000    3.765 
#    0.000    2.353    0.000    0.000    0.000    0.000 
#    0.000    0.000    0.000    0.000    0.000    0.000 
#
# Total GULP energy -189561.079837 kJ/mol
# GULP energy per Si atom -5575.325878 kJ/mol
# Density = 2.354093 g / cm^3
# Si number density = 23.594630 Si / 1000 Ang^3
#
#
#
# Elastic Constant Matrix: (Units=GPa)
#
#
# Indices 1 2 3 4 5 6 
#
# 1 68.0520 11.9763 23.2792 0.0000 0.0000 0.0000
# 2 11.9763 117.8121 27.1320 0.0000 0.0000 0.0000
# 3 23.2792 27.1320 105.0118 0.0000 0.0000 0.0000
# 4 0.0000 0.0000 0.0000 18.7598 0.0000 0.0000
# 5 0.0000 0.0000 0.0000 0.0000 3.9837 0.0000
# 6 0.0000 0.0000 0.0000 0.0000 0.0000 25.4033
#
#
#
# Elastic Compliance Matrix: (Units=1/GPa)
#
#
# Indices 1 2 3 4 5 6 
#
# 1 0.015982 -0.000860 -0.003321 0.000000 0.000000 0.000000
# 2 -0.000860 0.009071 -0.002153 0.000000 0.000000 0.000000
# 3 -0.003321 -0.002153 0.010815 0.000000 0.000000 0.000000
# 4 0.000000 0.000000 0.000000 0.053305 0.000000 0.000000
# 5 0.000000 0.000000 0.000000 0.000000 0.251024 0.000000
# 6 0.000000 0.000000 0.000000 0.000000 0.000000 0.039365
#
#
# Mechanical properties :
#
#
# Convention : Reuss Voigt Hill
#
# Bulk Modulus (GPa) = 43.10171 46.18343 44.64257
# Shear Modulus (GPa) = 12.50112 24.86192 18.68152
#
# Velocity S-wave (km/s) = 2.30430 3.24961 2.81689
# Velocity P-wave (km/s) = 5.03855 5.80484 5.43522
#
# Compressibility (1/GPa) = 0.02320093
#
# Stress axis : x y z
#
# Youngs Moduli (GPa) = 62.57072 110.23685 92.46245
#
# Poissons Ratio (x) = 0.09479 0.30704
# Poissons Ratio (y) = 0.05380 0.19909
# Poissons Ratio (z) = 0.20778 0.23736
#
# Static dielectric constant tensor:
#      x y z
#    x 1.898870 0.000000 0.000000 
#    y 0.000000 1.909720 0.000000 
#    z 0.000000 0.000000 1.829830 
# 
# From -- ./inp_files/40609.got.cif
#   From: 2010.05.17/outbox.cif.g08.bks.cpg/sg72_21_cif.got.tgz:40609.got - 2010.06.03 17:03:01.
