data_PCOD9527707
_publ_section_title
;
Structure prediction by ZEFSAII (Michael W. Deem and Ramdas Pophale) SiO2 
 PCOD9527707
Probable space group: I B A M
;
_chemical_formula_sum "Si O2"
_cell_formula_units_Z 80
_cell_length_a 17.159998
_cell_length_b 15.631964
_cell_length_c 14.689648
_cell_angle_alpha 90.000000
_cell_angle_beta 90.000000
_cell_angle_gamma 90.000000
_cell_volume 3940.416857
_symmetry_space_group_name_H-M "I B A M"
_symmetry_group_IT_number 72
_symmetry_cell_setting 'orthorhombic'
loop_
_space_group_symop_operation_xyz
x,y,z
-x,-y,z
x,-y,1/2-z
-x,y,1/2-z
-x,-y,-z
x,y,-z
-x,y,1/2+z
x,-y,1/2+z
1/2+x,1/2+y,1/2+z
1/2-x,1/2-y,1/2+z
1/2+x,1/2-y,-z
1/2-x,1/2+y,-z
1/2-x,1/2-y,1/2-z
1/2+x,1/2+y,1/2-z
1/2-x,1/2+y,z
1/2+x,1/2-y,z
loop_
_atom_site_type_symbol
_atom_site_label
_atom_site_fract_x
_atom_site_fract_y
_atom_site_fract_z
Si Si1 0.139604 0.126747 0.711474
Si Si2 0.439194 0.202058 0.166189
Si Si3 0.187614 0.600248 0.736488
Si Si4 0.088179 0.035912 0.893010
Si Si5 0.051144 0.576723 0.599212
O O1 0.092116 0.202100 0.662918
O O2 0.230403 0.147031 0.725305
O O3 0.102860 0.105454 0.812039
O O4 0.137029 0.044250 0.645746
O O5 0.500000 0.198445 0.250000
O O6 0.364085 0.142586 0.184412
O O7 0.493109 0.156947 0.092933
O O8 0.204134 0.500000 0.750000
O O9 0.128459 0.602697 0.651945
O O10 0.104404 0.058169 0.000000
O O11 0.000000 0.000000 0.888689
O O12 0.073867 0.544687 0.500000
O O13 0.000000 0.500000 0.643978
#
# Coordination Sequence:
#
# PCOD9527707 Si02
#       5
#    16  16  16  16  16
#     4  11  21  39  59  91 122 162 206 260 325 380
#     4  10  21  36  62  85 116 157 204 249 301 376
#     4  11  20  37  59  88 118 161 206 253 316 385
#     4  10  21  37  60  85 120 165 212 258 309 379
#     4  10  21  37  60  89 120 158 208 256 304 372
#
# _framework density 20.302420999999999
#
# number of rings (size 3 to 8) (size 9 to 14) (size 15 to 20)
#    0.000    1.600    4.000    3.000    0.000    1.600 
#    0.000    7.000    0.000    2.400    0.000    0.000 
#    0.000    0.000    0.000    0.000    0.000    0.000 
#
# Total GULP energy -222791.955650 kJ/mol
# GULP energy per Si atom -5569.798891 kJ/mol
# Density = 2.025621 g / cm^3
# Si number density = 20.302421 Si / 1000 Ang^3
#
#
#
# Elastic Constant Matrix: (Units=GPa)
#
#
# Indices 1 2 3 4 5 6 
#
# 1 124.8782 11.5227 24.1295 0.0000 0.0000 0.0000
# 2 11.5227 82.7525 8.4040 0.0000 0.0000 0.0000
# 3 24.1295 8.4040 86.9772 0.0000 0.0000 0.0000
# 4 0.0000 0.0000 0.0000 0.8596 0.0000 0.0000
# 5 0.0000 0.0000 0.0000 0.0000 8.8964 0.0000
# 6 0.0000 0.0000 0.0000 0.0000 0.0000 26.9512
#
#
#
# Elastic Compliance Matrix: (Units=1/GPa)
#
#
# Indices 1 2 3 4 5 6 
#
# 1 0.008536 -0.000957 -0.002276 0.000000 0.000000 0.000000
# 2 -0.000957 0.012311 -0.000924 0.000000 0.000000 0.000000
# 3 -0.002276 -0.000924 0.012218 0.000000 0.000000 0.000000
# 4 0.000000 0.000000 0.000000 1.163285 0.000000 0.000000
# 5 0.000000 0.000000 0.000000 0.000000 0.112406 0.000000
# 6 0.000000 0.000000 0.000000 0.000000 0.000000 0.037104
#
#
# Mechanical properties :
#
#
# Convention : Reuss Voigt Hill
#
# Bulk Modulus (GPa) = 40.40212 42.52448 41.46330
# Shear Modulus (GPa) = 3.66993 24.04489 13.85741
#
# Velocity S-wave (km/s) = 1.34594 3.44515 2.61540
# Velocity P-wave (km/s) = 4.72850 6.06765 5.43945
#
# Compressibility (1/GPa) = 0.02475118
#
# Stress axis : x y z
#
# Youngs Moduli (GPa) = 117.15317 81.22572 81.84760
#
# Poissons Ratio (x) = 0.07777 0.18625
# Poissons Ratio (y) = 0.11217 0.07562
# Poissons Ratio (z) = 0.26658 0.07505
#
# Static dielectric constant tensor:
#      x y z
#    x 1.736530 0.000000 0.000000 
#    y 0.000000 1.790230 0.000000 
#    z 0.000000 0.000000 1.756080 
# 
# From -- ./inp_files/23122.got.cif
#   From: 2010.05.17/outbox.cif.g08.bks.cpg/sg72_12_cif.got.tgz:23122.got - 2010.06.03 17:03:01.
