data_PCOD9527572
_publ_section_title
;
Structure prediction by ZEFSAII (Michael W. Deem and Ramdas Pophale) SiO2 
 PCOD9527572
Probable space group: I B A M
;
_chemical_formula_sum "Si O2"
_cell_formula_units_Z 76
_cell_length_a 13.374335
_cell_length_b 19.165704
_cell_length_c 15.457684
_cell_angle_alpha 90.000000
_cell_angle_beta 90.000000
_cell_angle_gamma 90.000000
_cell_volume 3962.245661
_symmetry_space_group_name_H-M "I B A M"
_symmetry_group_IT_number 72
_symmetry_cell_setting 'orthorhombic'
loop_
_space_group_symop_operation_xyz
x,y,z
-x,-y,z
x,-y,1/2-z
-x,y,1/2-z
-x,-y,-z
x,y,-z
-x,y,1/2+z
x,-y,1/2+z
1/2+x,1/2+y,1/2+z
1/2-x,1/2-y,1/2+z
1/2+x,1/2-y,-z
1/2-x,1/2+y,-z
1/2-x,1/2-y,1/2-z
1/2+x,1/2+y,1/2-z
1/2-x,1/2+y,z
1/2+x,1/2-y,z
loop_
_atom_site_type_symbol
_atom_site_label
_atom_site_fract_x
_atom_site_fract_y
_atom_site_fract_z
Si Si1 0.073894 0.899846 0.000000
Si Si2 0.877384 0.266687 0.600866
Si Si3 0.000000 0.000000 0.750000
Si Si4 0.000000 0.718836 0.250000
Si Si5 0.658486 0.449034 0.000000
Si Si6 0.647283 0.388317 0.167260
Si Si7 0.335840 0.317964 0.839897
O O1 0.105552 0.858243 0.085400
O O2 0.956597 0.919223 0.000000
O O3 0.141161 0.969230 0.000000
O O4 0.901266 0.275147 0.500000
O O5 0.891476 0.185606 0.628952
O O6 0.761719 0.283370 0.619416
O O7 0.943399 0.312842 0.667075
O O8 0.934085 0.052386 0.691938
O O9 0.911677 0.763022 0.296727
O O10 0.707994 0.421170 0.087787
O O11 0.694294 0.368053 0.259561
#
# Coordination Sequence:
#
# PCOD9527572 Si02
#       7
#     8  16   4   8   8  16  16
#     4  11  20  31  50  80 115 161 198 235 293 362
#     4  11  22  39  58  84 118 164 209 253 303 368
#     4  12  22  34  56  88 120 164 198 240 308 384
#     4  10  21  34  56  79 110 151 203 248 300 352
#     4  11  20  29  50  80 115 158 202 230 291 375
#     4  11  20  34  50  76 120 156 197 240 286 362
#     4  11  22  36  56  80 119 164 205 253 298 360
#
# _framework density 19.181041
#
# number of rings (size 3 to 8) (size 9 to 14) (size 15 to 20)
#    0.000    1.053    2.105   11.368    1.474    0.000 
#    0.000    0.000    0.000    0.000    0.000    0.000 
#    0.000   60.632    0.000    0.000    0.000    0.000 
#
# Total GULP energy -211824.465131 kJ/mol
# GULP energy per Si atom -5574.328030 kJ/mol
# Density = 1.913738 g / cm^3
# Si number density = 19.181041 Si / 1000 Ang^3
#
#
#
# Elastic Constant Matrix: (Units=GPa)
#
#
# Indices 1 2 3 4 5 6 
#
# 1 58.8167 13.8309 25.0272 0.0000 0.0000 0.0000
# 2 13.8309 42.7881 18.1466 0.0000 0.0000 0.0000
# 3 25.0272 18.1466 178.5670 0.0000 0.0000 0.0000
# 4 0.0000 0.0000 0.0000 21.3739 0.0000 0.0000
# 5 0.0000 0.0000 0.0000 0.0000 18.8669 0.0000
# 6 0.0000 0.0000 0.0000 0.0000 0.0000 13.4313
#
#
#
# Elastic Compliance Matrix: (Units=1/GPa)
#
#
# Indices 1 2 3 4 5 6 
#
# 1 0.019158 -0.005282 -0.002148 0.000000 0.000000 0.000000
# 2 -0.005282 0.025880 -0.001890 0.000000 0.000000 0.000000
# 3 -0.002148 -0.001890 0.006093 0.000000 0.000000 0.000000
# 4 0.000000 0.000000 0.000000 0.046786 0.000000 0.000000
# 5 0.000000 0.000000 0.000000 0.000000 0.053003 0.000000
# 6 0.000000 0.000000 0.000000 0.000000 0.000000 0.074453
#
#
# Mechanical properties :
#
#
# Convention : Reuss Voigt Hill
#
# Bulk Modulus (GPa) = 30.77711 43.79791 37.28751
# Shear Modulus (GPa) = 19.61996 25.61224 22.61610
#
# Velocity S-wave (km/s) = 3.20172 3.65813 3.43751
# Velocity P-wave (km/s) = 5.45422 6.38170 5.93610
#
# Compressibility (1/GPa) = 0.03249168
#
# Stress axis : x y z
#
# Youngs Moduli (GPa) = 52.19717 38.64042 164.11495
#
# Poissons Ratio (x) = 0.20408 0.35258
# Poissons Ratio (y) = 0.27568 0.31013
# Poissons Ratio (z) = 0.11214 0.07302
#
# Static dielectric constant tensor:
#      x y z
#    x 1.672700 0.000000 0.000000 
#    y 0.000000 1.679530 0.000000 
#    z 0.000000 0.000000 1.780530 
# 
# From -- ./inp_files/21638.got.cif
#   From: 2010.05.17/outbox.cif.g08.bks.cpg/sg72_11_cif.got.tgz:21638.got - 2010.06.03 17:03:01.
