data_PCOD9527427
_publ_section_title
;
Structure prediction by ZEFSAII (Michael W. Deem and Ramdas Pophale) SiO2 
 PCOD9527427
Probable space group: I B A M
;
_chemical_formula_sum "Si O2"
_cell_formula_units_Z 80
_cell_length_a 12.404484
_cell_length_b 12.409816
_cell_length_c 20.117623
_cell_angle_alpha 90.000000
_cell_angle_beta 90.000000
_cell_angle_gamma 90.000000
_cell_volume 3096.853855
_symmetry_space_group_name_H-M "I B A M"
_symmetry_group_IT_number 72
_symmetry_cell_setting 'orthorhombic'
loop_
_space_group_symop_operation_xyz
x,y,z
-x,-y,z
x,-y,1/2-z
-x,y,1/2-z
-x,-y,-z
x,y,-z
-x,y,1/2+z
x,-y,1/2+z
1/2+x,1/2+y,1/2+z
1/2-x,1/2-y,1/2+z
1/2+x,1/2-y,-z
1/2-x,1/2+y,-z
1/2-x,1/2-y,1/2-z
1/2+x,1/2+y,1/2-z
1/2-x,1/2+y,z
1/2+x,1/2-y,z
loop_
_atom_site_type_symbol
_atom_site_label
_atom_site_fract_x
_atom_site_fract_y
_atom_site_fract_z
Si Si1 0.422222 0.248424 0.924305
Si Si2 0.381209 0.410925 0.427388
Si Si3 0.644306 0.029723 0.574920
Si Si4 0.385566 0.366397 0.712675
Si Si5 0.234730 0.347214 0.832025
O O1 0.533398 0.314564 0.927548
O O2 0.440816 0.122327 0.907047
O O3 0.336305 0.303434 0.875516
O O4 0.381000 0.252926 0.000000
O O5 0.396314 0.469028 0.500000
O O6 0.253438 0.397021 0.427807
O O7 0.394741 0.447067 0.350525
O O8 0.626028 0.987891 0.500000
O O9 0.673516 0.937832 0.626255
O O10 0.500000 0.361401 0.750000
O O11 0.288958 0.387487 0.763998
O O12 0.347371 0.249700 0.684944
#
# Coordination Sequence:
#
# PCOD9527427 Si02
#       5
#    16  16  16  16  16
#     4  10  20  39  67  97 136 179 220 280 342 398
#     4  10  21  40  66  92 130 177 222 278 341 401
#     4  10  22  41  69 104 134 176 236 283 336 404
#     4  11  23  43  65  96 139 178 224 275 344 411
#     4  11  23  40  69  96 135 177 228 282 336 407
#
# _framework density 25.832668999999999
#
# number of rings (size 3 to 8) (size 9 to 14) (size 15 to 20)
#    0.000    1.600    4.000    0.600    0.000    2.400 
#    0.000    5.000    4.400    3.600    0.000    0.000 
#    0.000    0.000    0.000    0.000    0.000    0.000 
#
# Total GULP energy -223338.325116 kJ/mol
# GULP energy per Si atom -5583.458128 kJ/mol
# Density = 2.577387 g / cm^3
# Si number density = 25.832669 Si / 1000 Ang^3
#
#
#
# Elastic Constant Matrix: (Units=GPa)
#
#
# Indices 1 2 3 4 5 6 
#
# 1 125.5452 22.1936 50.7981 0.0000 0.0000 0.0000
# 2 22.1936 128.8314 53.8872 0.0000 0.0000 0.0000
# 3 50.7981 53.8872 170.4178 0.0000 0.0000 0.0000
# 4 0.0000 0.0000 0.0000 8.8494 0.0000 0.0000
# 5 0.0000 0.0000 0.0000 0.0000 49.1135 0.0000
# 6 0.0000 0.0000 0.0000 0.0000 0.0000 30.4101
#
#
#
# Elastic Compliance Matrix: (Units=1/GPa)
#
#
# Indices 1 2 3 4 5 6 
#
# 1 0.009085 -0.000498 -0.002551 0.000000 0.000000 0.000000
# 2 -0.000498 0.008973 -0.002689 0.000000 0.000000 0.000000
# 3 -0.002551 -0.002689 0.007478 0.000000 0.000000 0.000000
# 4 0.000000 0.000000 0.000000 0.113002 0.000000 0.000000
# 5 0.000000 0.000000 0.000000 0.000000 0.020361 0.000000
# 6 0.000000 0.000000 0.000000 0.000000 0.000000 0.032884
#
#
# Mechanical properties :
#
#
# Convention : Reuss Voigt Hill
#
# Bulk Modulus (GPa) = 71.11752 75.39468 73.25610
# Shear Modulus (GPa) = 24.04478 37.53563 30.79021
#
# Velocity S-wave (km/s) = 3.05419 3.81600 3.45615
# Velocity P-wave (km/s) = 6.32671 6.97603 6.65929
#
# Compressibility (1/GPa) = 0.01406123
#
# Stress axis : x y z
#
# Youngs Moduli (GPa) = 110.06712 111.45139 133.71866
#
# Poissons Ratio (x) = 0.05553 0.34106
# Poissons Ratio (y) = 0.05484 0.35952
# Poissons Ratio (z) = 0.28074 0.29965
#
# Static dielectric constant tensor:
#      x y z
#    x 2.022490 0.000000 0.000000 
#    y 0.000000 2.139110 0.000000 
#    z 0.000000 0.000000 2.074050 
# 
# From -- ./inp_files/37846.got.cif
#   From: 2010.05.17/outbox.cif.g08.bks.cpg/sg72_19_cif.got.tgz:37846.got - 2010.06.03 17:03:01.
