data_PCOD9527312
_publ_section_title
;
Structure prediction by ZEFSAII (Michael W. Deem and Ramdas Pophale) SiO2 
 PCOD9527312
Probable space group: I B A M
;
_chemical_formula_sum "Si O2"
_cell_formula_units_Z 96
_cell_length_a 30.221808
_cell_length_b 10.435082
_cell_length_c 16.507612
_cell_angle_alpha 90.000000
_cell_angle_beta 90.000000
_cell_angle_gamma 90.000000
_cell_volume 5205.956811
_symmetry_space_group_name_H-M "I B A M"
_symmetry_group_IT_number 72
_symmetry_cell_setting 'orthorhombic'
loop_
_space_group_symop_operation_xyz
x,y,z
-x,-y,z
x,-y,1/2-z
-x,y,1/2-z
-x,-y,-z
x,y,-z
-x,y,1/2+z
x,-y,1/2+z
1/2+x,1/2+y,1/2+z
1/2-x,1/2-y,1/2+z
1/2+x,1/2-y,-z
1/2-x,1/2+y,-z
1/2-x,1/2-y,1/2-z
1/2+x,1/2+y,1/2-z
1/2-x,1/2+y,z
1/2+x,1/2-y,z
loop_
_atom_site_type_symbol
_atom_site_label
_atom_site_fract_x
_atom_site_fract_y
_atom_site_fract_z
Si Si1 0.374579 0.517548 0.903308
Si Si2 0.111470 0.283405 0.597873
Si Si3 0.693477 0.869248 0.198944
Si Si4 0.707658 0.378800 0.190127
Si Si5 0.985650 0.359856 0.155796
Si Si6 0.967199 0.890216 0.903266
O O1 0.380878 0.367457 0.883008
O O2 0.330210 0.581999 0.871754
O O3 0.417931 0.590233 0.870477
O O4 0.374014 0.524539 0.000000
O O5 0.108356 0.296612 0.500000
O O6 0.153665 0.354767 0.635870
O O7 0.066038 0.332839 0.638485
O O8 0.694357 0.748824 0.260858
O O9 0.742228 0.864206 0.157974
O O10 0.689016 0.000000 0.250000
O O11 0.709878 0.500000 0.250000
O O12 0.000000 0.500000 0.125705
O O13 0.000000 0.353720 0.250000
O O14 0.012494 0.247112 0.112988
O O15 0.964714 0.909410 0.000000
O O16 0.000000 0.000000 0.870556
#
# Coordination Sequence:
#
# PCOD9527312 Si02
#       6
#    16  16  16  16  16  16
#     4  10  21  37  64  94 121 158 210 260 302 365
#     4  11  23  42  65  90 124 167 205 252 317 373
#     4  10  23  39  63  92 126 159 205 259 308 374
#     4  10  20  39  63  91 121 164 204 253 316 362
#     4  11  26  41  60  90 125 163 201 251 305 370
#     4  10  20  38  60  88 123 156 199 252 300 358
#
# _framework density 18.440414000000001
#
# number of rings (size 3 to 8) (size 9 to 14) (size 15 to 20)
#    0.000    1.667    3.333    0.500    4.667    2.333 
#    0.000    2.500    0.000    0.000    0.000    0.000 
#    0.000    0.000    0.000    0.000    0.000    0.000 
#
# Total GULP energy -267842.089754 kJ/mol
# GULP energy per Si atom -5580.043537 kJ/mol
# Density = 1.839844 g / cm^3
# Si number density = 18.440414 Si / 1000 Ang^3
#
#
#
# Elastic Constant Matrix: (Units=GPa)
#
#
# Indices 1 2 3 4 5 6 
#
# 1 196.5186 74.0384 62.1254 0.0000 0.0000 0.0000
# 2 74.0384 128.7878 27.4168 0.0000 0.0000 0.0000
# 3 62.1254 27.4168 38.6992 0.0000 0.0000 0.0000
# 4 0.0000 0.0000 0.0000 23.9852 0.0000 0.0000
# 5 0.0000 0.0000 0.0000 0.0000 39.4090 0.0000
# 6 0.0000 0.0000 0.0000 0.0000 0.0000 31.3468
#
#
#
# Elastic Compliance Matrix: (Units=1/GPa)
#
#
# Indices 1 2 3 4 5 6 
#
# 1 0.011294 -0.003101 -0.015934 0.000000 0.000000 0.000000
# 2 -0.003101 0.009995 -0.002103 0.000000 0.000000 0.000000
# 3 -0.015934 -0.002103 0.052910 0.000000 0.000000 0.000000
# 4 0.000000 0.000000 0.000000 0.041692 0.000000 0.000000
# 5 0.000000 0.000000 0.000000 0.000000 0.025375 0.000000
# 6 0.000000 0.000000 0.000000 0.000000 0.000000 0.031901
#
#
# Mechanical properties :
#
#
# Convention : Reuss Voigt Hill
#
# Bulk Modulus (GPa) = 31.32550 76.79630 54.06090
# Shear Modulus (GPa) = 22.11560 32.30985 27.21273
#
# Velocity S-wave (km/s) = 3.46685 4.19038 3.84567
# Velocity P-wave (km/s) = 5.74889 8.07146 7.00707
#
# Compressibility (1/GPa) = 0.03192287
#
# Stress axis : x y z
#
# Youngs Moduli (GPa) = 88.54279 100.04969 18.89999
#
# Poissons Ratio (x) = 0.31022 0.30115
# Poissons Ratio (y) = 0.27454 0.03975
# Poissons Ratio (z) = 1.41084 0.21045
#
# Static dielectric constant tensor:
#      x y z
#    x 1.661910 0.000000 0.000000 
#    y 0.000000 1.623310 0.000000 
#    z 0.000000 0.000000 1.638260 
# 
# From -- ./inp_files/33260.got.cif
#   From: 2010.05.17/outbox.cif.g08.bks.cpg/sg72_17_cif.got.tgz:33260.got - 2010.06.03 17:03:01.
