data_PCOD9527758
_publ_section_title
;
Structure prediction by ZEFSAII (Michael W. Deem and Ramdas Pophale) SiO2 
 PCOD9527758
Probable space group: I B A M
;
_chemical_formula_sum "Si O2"
_cell_formula_units_Z 72
_cell_length_a 26.510612
_cell_length_b 14.391676
_cell_length_c 9.001649
_cell_angle_alpha 90.000000
_cell_angle_beta 90.000000
_cell_angle_gamma 90.000000
_cell_volume 3434.418393
_symmetry_space_group_name_H-M "I B A M"
_symmetry_group_IT_number 72
_symmetry_cell_setting 'orthorhombic'
loop_
_space_group_symop_operation_xyz
x,y,z
-x,-y,z
x,-y,1/2-z
-x,y,1/2-z
-x,-y,-z
x,y,-z
-x,y,1/2+z
x,-y,1/2+z
1/2+x,1/2+y,1/2+z
1/2-x,1/2-y,1/2+z
1/2+x,1/2-y,-z
1/2-x,1/2+y,-z
1/2-x,1/2-y,1/2-z
1/2+x,1/2+y,1/2-z
1/2-x,1/2+y,z
1/2+x,1/2-y,z
loop_
_atom_site_type_symbol
_atom_site_label
_atom_site_fract_x
_atom_site_fract_y
_atom_site_fract_z
Si Si1 0.265043 0.500000 0.750000
Si Si2 0.575172 0.905055 0.824028
Si Si3 0.449183 0.707820 0.179284
Si Si4 0.676081 0.870919 0.668149
Si Si5 0.160382 0.835673 0.673062
O O1 0.225367 0.434375 0.836036
O O2 0.303344 0.577482 0.809588
O O3 0.555629 0.813750 0.739088
O O4 0.635278 0.903474 0.788615
O O5 0.556266 0.000000 0.750000
O O6 0.565548 0.901167 0.000000
O O7 0.500000 0.667233 0.250000
O O8 0.396741 0.660592 0.235490
O O9 0.453293 0.707086 0.000000
O O10 0.653627 0.873702 0.500000
O O11 0.685752 0.763351 0.712321
O O12 0.150934 0.827759 0.500000
#
# Coordination Sequence:
#
# PCOD9527758 Si02
#       5
#     8  16  16  16  16
#     4  12  20  34  63  90 121 166 210 250 298 364
#     4  11  21  35  58  88 123 159 201 246 300 366
#     4  10  21  41  64  86 118 155 200 254 311 363
#     4  10  21  37  57  85 126 166 204 252 303 357
#     4   9  21  39  57  86 124 159 200 257 309 364
#
# _framework density 20.964248000000001
#
# number of rings (size 3 to 8) (size 9 to 14) (size 15 to 20)
#    0.000    1.778    1.111    5.333    0.000    1.333 
#    0.000   16.111    0.000    2.667    0.000    0.000 
#    0.000    0.000    0.000    0.000    0.000    0.000 
#
# Total GULP energy -200481.406064 kJ/mol
# GULP energy per Si atom -5568.927946 kJ/mol
# Density = 2.091653 g / cm^3
# Si number density = 20.964248 Si / 1000 Ang^3
#
#
#
# Elastic Constant Matrix: (Units=GPa)
#
#
# Indices 1 2 3 4 5 6 
#
# 1 147.9372 42.9495 28.7857 0.0000 0.0000 0.0000
# 2 42.9495 80.0709 6.6459 0.0000 0.0000 0.0000
# 3 28.7857 6.6459 85.8464 0.0000 0.0000 0.0000
# 4 0.0000 0.0000 0.0000 -138.1588 0.0000 0.0000
# 5 0.0000 0.0000 0.0000 0.0000 15.9502 0.0000
# 6 0.0000 0.0000 0.0000 0.0000 0.0000 9.1475
#
#
#
# Elastic Compliance Matrix: (Units=1/GPa)
#
#
# Indices 1 2 3 4 5 6 
#
# 1 0.008515 -0.004358 -0.002518 0.000000 0.000000 0.000000
# 2 -0.004358 0.014801 0.000316 0.000000 0.000000 0.000000
# 3 -0.002518 0.000316 0.012469 0.000000 0.000000 0.000000
# 4 0.000000 0.000000 0.000000 -0.007238 0.000000 0.000000
# 5 0.000000 0.000000 0.000000 0.000000 0.062695 0.000000
# 6 0.000000 0.000000 0.000000 0.000000 0.000000 0.109319
#
#
# Mechanical properties :
#
#
# Convention : Reuss Voigt Hill
#
# Bulk Modulus (GPa) = 44.12488 52.29073 48.20781
# Shear Modulus (GPa) = 22.60034 -6.91398 7.84318
#
# Velocity S-wave (km/s) = 3.28692 -1.81801 1.93632
# Velocity P-wave (km/s) = 5.95806 4.53763 5.29569
#
# Compressibility (1/GPa) = 0.02266295
#
# Stress axis : x y z
#
# Youngs Moduli (GPa) = 117.44180 67.56520 80.20194
#
# Poissons Ratio (x) = 0.29447 0.20193
# Poissons Ratio (y) = 0.51185 -0.02531
# Poissons Ratio (z) = 0.29569 -0.02133
#
# Static dielectric constant tensor:
#      x y z
#    x 1.845350 0.000000 0.000000 
#    y 0.000000 1.805820 0.000000 
#    z 0.000000 0.000000 1.744680 
# 
# From -- ./inp_files/7838.got.cif
#   From: 2010.05.17/outbox.cif.g08.bks.cpg/sg72_4_cif.got.tgz:7838.got - 2010.06.03 17:03:01.
