data_PCOD9527520
_publ_section_title
;
Structure prediction by ZEFSAII (Michael W. Deem and Ramdas Pophale) SiO2 
 PCOD9527520
Probable space group: I B A M
;
_chemical_formula_sum "Si O2"
_cell_formula_units_Z 64
_cell_length_a 21.711197
_cell_length_b 9.030477
_cell_length_c 17.608848
_cell_angle_alpha 90.000000
_cell_angle_beta 90.000000
_cell_angle_gamma 90.000000
_cell_volume 3452.434147
_symmetry_space_group_name_H-M "I B A M"
_symmetry_group_IT_number 72
_symmetry_cell_setting 'orthorhombic'
loop_
_space_group_symop_operation_xyz
x,y,z
-x,-y,z
x,-y,1/2-z
-x,y,1/2-z
-x,-y,-z
x,y,-z
-x,y,1/2+z
x,-y,1/2+z
1/2+x,1/2+y,1/2+z
1/2-x,1/2-y,1/2+z
1/2+x,1/2-y,-z
1/2-x,1/2+y,-z
1/2-x,1/2-y,1/2-z
1/2+x,1/2+y,1/2-z
1/2-x,1/2+y,z
1/2+x,1/2-y,z
loop_
_atom_site_type_symbol
_atom_site_label
_atom_site_fract_x
_atom_site_fract_y
_atom_site_fract_z
Si Si1 0.210077 0.975239 0.914047
Si Si2 0.901328 0.954001 0.000000
Si Si3 0.706299 0.189536 0.683623
Si Si4 0.900732 0.500000 0.750000
Si Si5 0.480054 0.752788 0.500000
Si Si6 0.500000 0.000000 0.875195
O O1 0.195299 0.819939 0.875845
O O2 0.145520 0.060033 0.928868
O O3 0.257387 0.061504 0.861321
O O4 0.235158 0.954408 0.000000
O O5 0.955256 0.835801 0.000000
O O6 0.929521 0.121057 0.000000
O O7 0.750000 0.250000 0.750000
O O8 0.644169 0.127999 0.720069
O O9 0.944408 0.453645 0.680321
O O10 0.478690 0.863282 0.427992
#
# Coordination Sequence:
#
# PCOD9527520 Si02
#       6
#    16   8  16   8   8   8
#     4  10  23  39  61  96 125 169 212 261 324 388
#     4   9  22  36  66  90 124 151 216 266 318 369
#     4  12  22  41  61  94 135 168 204 265 326 393
#     4  11  24  40  64  90 132 163 216 250 334 385
#     4  10  20  44  64  90 118 164 220 274 308 362
#     4  10  24  42  66  90 118 172 214 268 308 384
#
# _framework density 18.537645999999999
#
# number of rings (size 3 to 8) (size 9 to 14) (size 15 to 20)
#    0.750    0.750    2.500    2.250    3.500    0.000 
#    4.500    0.000    0.000    3.000    0.000    0.000 
#    0.000    0.000    0.000    0.000    0.000    0.000 
#
# Total GULP energy -178472.902641 kJ/mol
# GULP energy per Si atom -5577.278208 kJ/mol
# Density = 1.849545 g / cm^3
# Si number density = 18.537646 Si / 1000 Ang^3
#
#
#
# Elastic Constant Matrix: (Units=GPa)
#
#
# Indices 1 2 3 4 5 6 
#
# 1 96.5903 18.3076 46.6624 0.0000 0.0000 0.0000
# 2 18.3076 63.8276 43.7623 0.0000 0.0000 0.0000
# 3 46.6624 43.7623 128.3993 0.0000 0.0000 0.0000
# 4 0.0000 0.0000 0.0000 13.4085 0.0000 0.0000
# 5 0.0000 0.0000 0.0000 0.0000 26.7984 0.0000
# 6 0.0000 0.0000 0.0000 0.0000 0.0000 29.9343
#
#
#
# Elastic Compliance Matrix: (Units=1/GPa)
#
#
# Indices 1 2 3 4 5 6 
#
# 1 0.012576 -0.000618 -0.004360 0.000000 0.000000 0.000000
# 2 -0.000618 0.020475 -0.006754 0.000000 0.000000 0.000000
# 3 -0.004360 -0.006754 0.011675 0.000000 0.000000 0.000000
# 4 0.000000 0.000000 0.000000 0.074580 0.000000 0.000000
# 5 0.000000 0.000000 0.000000 0.000000 0.037316 0.000000
# 6 0.000000 0.000000 0.000000 0.000000 0.000000 0.033407
#
#
# Mechanical properties :
#
#
# Convention : Reuss Voigt Hill
#
# Bulk Modulus (GPa) = 47.03106 56.25352 51.64229
# Shear Modulus (GPa) = 22.66761 26.03389 24.35075
#
# Velocity S-wave (km/s) = 3.50063 3.75157 3.62827
# Velocity P-wave (km/s) = 6.46257 7.01264 6.74322
#
# Compressibility (1/GPa) = 0.02126254
#
# Stress axis : x y z
#
# Youngs Moduli (GPa) = 79.51435 48.83958 85.65623
#
# Poissons Ratio (x) = 0.03018 0.37344
# Poissons Ratio (y) = 0.04914 0.57852
# Poissons Ratio (z) = 0.34667 0.32986
#
# Static dielectric constant tensor:
#      x y z
#    x 1.642490 0.000000 0.000000 
#    y 0.000000 1.631770 0.000000 
#    z 0.000000 0.000000 1.633610 
# 
# From -- ./inp_files/33089.got.cif
#   From: 2010.05.17/outbox.cif.g08.bks.cpg/sg72_17_cif.got.tgz:33089.got - 2010.06.03 17:03:01.
