data_PCOD9527327
_publ_section_title
;
Structure prediction by ZEFSAII (Michael W. Deem and Ramdas Pophale) SiO2 
 PCOD9527327
Probable space group: I B A M
;
_chemical_formula_sum "Si O2"
_cell_formula_units_Z 96
_cell_length_a 18.771992
_cell_length_b 11.123158
_cell_length_c 22.595086
_cell_angle_alpha 90.000000
_cell_angle_beta 90.000000
_cell_angle_gamma 90.000000
_cell_volume 4717.940564
_symmetry_space_group_name_H-M "I B A M"
_symmetry_group_IT_number 72
_symmetry_cell_setting 'orthorhombic'
loop_
_space_group_symop_operation_xyz
x,y,z
-x,-y,z
x,-y,1/2-z
-x,y,1/2-z
-x,-y,-z
x,y,-z
-x,y,1/2+z
x,-y,1/2+z
1/2+x,1/2+y,1/2+z
1/2-x,1/2-y,1/2+z
1/2+x,1/2-y,-z
1/2-x,1/2+y,-z
1/2-x,1/2-y,1/2-z
1/2+x,1/2+y,1/2-z
1/2-x,1/2+y,z
1/2+x,1/2-y,z
loop_
_atom_site_type_symbol
_atom_site_label
_atom_site_fract_x
_atom_site_fract_y
_atom_site_fract_z
Si Si1 0.618289 0.189495 0.436778
Si Si2 0.711920 0.707791 0.155197
Si Si3 0.318581 0.928424 0.931518
Si Si4 0.464602 0.382995 0.314679
Si Si5 0.974409 0.370668 0.618140
Si Si6 0.695757 0.388157 0.217935
O O1 0.629116 0.248880 0.500000
O O2 0.642519 0.271233 0.383311
O O3 0.537100 0.149348 0.429312
O O4 0.668472 0.071730 0.433347
O O5 0.760860 0.615374 0.117217
O O6 0.686201 0.689386 0.222644
O O7 0.761512 0.823575 0.166588
O O8 0.396285 0.882299 0.910199
O O9 0.303146 0.890090 0.000000
O O10 0.500000 0.500000 0.345421
O O11 0.500000 0.374321 0.250000
O O12 0.472184 0.251046 0.343191
O O13 0.381668 0.416798 0.306814
O O14 0.000000 0.500000 0.646687
O O15 0.734283 0.500000 0.250000
#
# Coordination Sequence:
#
# PCOD9527327 Si02
#       6
#    16  16  16  16  16  16
#     4  10  21  37  59  88 117 155 201 249 300 357
#     4  11  22  37  60  86 123 151 203 248 299 359
#     4  10  20  38  62  87 118 156 199 249 303 357
#     4  11  21  37  61  86 119 161 201 244 299 360
#     4  10  21  39  62  89 118 155 204 254 298 353
#     4  11  22  38  58  86 117 161 198 241 300 360
#
# _framework density 20.347861000000002
#
# number of rings (size 3 to 8) (size 9 to 14) (size 15 to 20)
#    0.000    1.500    3.333    3.000    0.000    2.333 
#    0.000    0.000    0.000    4.000    0.000    0.000 
#    0.000    0.000    0.000    0.000    0.000    0.000 
#
# Total GULP energy -267226.508291 kJ/mol
# GULP energy per Si atom -5567.218923 kJ/mol
# Density = 2.030155 g / cm^3
# Si number density = 20.347861 Si / 1000 Ang^3
#
#
#
# Elastic Constant Matrix: (Units=GPa)
#
#
# Indices 1 2 3 4 5 6 
#
# 1 61.0249 -7.3613 2.9955 0.0000 0.0000 0.0000
# 2 -7.3613 67.6185 14.2704 0.0000 0.0000 0.0000
# 3 2.9955 14.2704 72.7319 0.0000 0.0000 0.0000
# 4 0.0000 0.0000 0.0000 29.1466 0.0000 0.0000
# 5 0.0000 0.0000 0.0000 0.0000 9.6952 0.0000
# 6 0.0000 0.0000 0.0000 0.0000 0.0000 14.8766
#
#
#
# Elastic Compliance Matrix: (Units=1/GPa)
#
#
# Indices 1 2 3 4 5 6 
#
# 1 0.016687 0.002046 -0.001089 0.000000 0.000000 0.000000
# 2 0.002046 0.015679 -0.003161 0.000000 0.000000 0.000000
# 3 -0.001089 -0.003161 0.014414 0.000000 0.000000 0.000000
# 4 0.000000 0.000000 0.000000 0.034309 0.000000 0.000000
# 5 0.000000 0.000000 0.000000 0.000000 0.103144 0.000000
# 6 0.000000 0.000000 0.000000 0.000000 0.000000 0.067219
#
#
# Mechanical properties :
#
#
# Convention : Reuss Voigt Hill
#
# Bulk Modulus (GPa) = 23.59939 24.57607 24.08773
# Shear Modulus (GPa) = 18.51971 23.50841 21.01406
#
# Velocity S-wave (km/s) = 3.02015 3.40270 3.21711
# Velocity P-wave (km/s) = 4.87698 5.24804 5.06591
#
# Compressibility (1/GPa) = 0.04237399
#
# Stress axis : x y z
#
# Youngs Moduli (GPa) = 59.92673 63.78099 69.37661
#
# Poissons Ratio (x) = -0.13052 0.07554
# Poissons Ratio (y) = -0.12264 0.21927
# Poissons Ratio (z) = 0.06525 0.20158
#
# Static dielectric constant tensor:
#      x y z
#    x 1.713980 0.000000 0.000000 
#    y 0.000000 1.892540 0.000000 
#    z 0.000000 0.000000 1.740030 
# 
# From -- ./inp_files/44831.got.cif
#   From: 2010.05.17/outbox.cif.g08.bks.cpg/sg72_23_cif.got.tgz:44831.got - 2010.06.03 17:03:01.
