data_PCOD9527709
_publ_section_title
;
Structure prediction by ZEFSAII (Michael W. Deem and Ramdas Pophale) SiO2 
 PCOD9527709
Probable space group: I B A M
;
_chemical_formula_sum "Si O2"
_cell_formula_units_Z 104
_cell_length_a 18.007499
_cell_length_b 9.611790
_cell_length_c 29.388971
_cell_angle_alpha 90.000000
_cell_angle_beta 90.000000
_cell_angle_gamma 90.000000
_cell_volume 5086.769438
_symmetry_space_group_name_H-M "I B A M"
_symmetry_group_IT_number 72
_symmetry_cell_setting 'orthorhombic'
loop_
_space_group_symop_operation_xyz
x,y,z
-x,-y,z
x,-y,1/2-z
-x,y,1/2-z
-x,-y,-z
x,y,-z
-x,y,1/2+z
x,-y,1/2+z
1/2+x,1/2+y,1/2+z
1/2-x,1/2-y,1/2+z
1/2+x,1/2-y,-z
1/2-x,1/2+y,-z
1/2-x,1/2-y,1/2-z
1/2+x,1/2+y,1/2-z
1/2-x,1/2+y,z
1/2+x,1/2-y,z
loop_
_atom_site_type_symbol
_atom_site_label
_atom_site_fract_x
_atom_site_fract_y
_atom_site_fract_z
Si Si1 0.414829 0.512770 0.393988
Si Si2 0.625356 0.805535 0.399111
Si Si3 0.500000 0.000000 0.897620
Si Si4 0.364268 0.807670 0.581605
Si Si5 0.743565 0.230833 0.661195
Si Si6 0.763467 0.416992 0.000000
Si Si7 0.841580 0.977480 0.699397
Si Si8 0.839096 0.682900 0.000000
O O1 0.500000 0.500000 0.406237
O O2 0.382650 0.360259 0.401090
O O3 0.378539 0.642216 0.420006
O O4 0.402458 0.541235 0.340212
O O5 0.559252 0.891817 0.375081
O O6 0.703432 0.820402 0.373191
O O7 0.622537 0.849417 0.452177
O O8 0.557684 0.890371 0.920726
O O9 0.322102 0.830932 0.629678
O O10 0.308645 0.861922 0.543490
O O11 0.791495 0.109877 0.684351
O O12 0.708693 0.339402 0.696327
O O13 0.766966 0.582812 0.000000
O O14 0.684921 0.342650 0.000000
O O15 0.870606 0.000000 0.750000
#
# Coordination Sequence:
#
# PCOD9527709 Si02
#       8
#    16  16   8  16  16   8  16   8
#     4  10  22  41  59  86 117 158 202 245 308 377
#     4  11  23  39  62  88 122 164 204 252 307 359
#     4  12  22  39  60  90 125 156 208 258 301 352
#     4  11  23  39  62  88 122 164 204 252 307 359
#     4  10  21  39  62  88 122 158 200 243 309 374
#     4  12  26  38  59  88 126 160 213 256 303 356
#     4  10  21  36  62  90 116 149 196 254 306 367
#     4  12  26  38  59  88 126 160 213 256 303 356
#
# _framework density 20.445195999999999
#
# number of rings (size 3 to 8) (size 9 to 14) (size 15 to 20)
#    0.000    1.231    4.615    1.385    2.154    1.538 
#    0.000    0.769    0.000    0.000    0.000    6.462 
#    0.000    0.000    0.000    0.000    0.000    0.000 
#
# Total GULP energy -289874.582058 kJ/mol
# GULP energy per Si atom -5574.511193 kJ/mol
# Density = 2.039866 g / cm^3
# Si number density = 20.445196 Si / 1000 Ang^3
#
#
#
# Elastic Constant Matrix: (Units=GPa)
#
#
# Indices 1 2 3 4 5 6 
#
# 1 43.1422 -10.4122 -11.3892 0.0000 0.0000 0.0000
# 2 -10.4122 97.3288 -4.3294 0.0000 0.0000 0.0000
# 3 -11.3892 -4.3294 64.9687 0.0000 0.0000 0.0000
# 4 0.0000 0.0000 0.0000 26.5866 0.0000 0.0000
# 5 0.0000 0.0000 0.0000 0.0000 12.0812 0.0000
# 6 0.0000 0.0000 0.0000 0.0000 0.0000 36.7247
#
#
#
# Elastic Compliance Matrix: (Units=1/GPa)
#
#
# Indices 1 2 3 4 5 6 
#
# 1 0.025088 0.002888 0.004590 0.000000 0.000000 0.000000
# 2 0.002888 0.010637 0.001215 0.000000 0.000000 0.000000
# 3 0.004590 0.001215 0.016278 0.000000 0.000000 0.000000
# 4 0.000000 0.000000 0.000000 0.037613 0.000000 0.000000
# 5 0.000000 0.000000 0.000000 0.000000 0.082773 0.000000
# 6 0.000000 0.000000 0.000000 0.000000 0.000000 0.027230
#
#
# Mechanical properties :
#
#
# Convention : Reuss Voigt Hill
#
# Bulk Modulus (GPa) = 14.41116 17.01979 15.71547
# Shear Modulus (GPa) = 24.34729 30.51654 27.43192
#
# Velocity S-wave (km/s) = 3.45462 3.86761 3.66694
# Velocity P-wave (km/s) = 4.79338 5.31857 5.06279
#
# Compressibility (1/GPa) = 0.06939069
#
# Stress axis : x y z
#
# Youngs Moduli (GPa) = 39.85966 94.00731 61.43364
#
# Poissons Ratio (x) = -0.27150 -0.28201
# Poissons Ratio (y) = -0.11512 -0.07465
# Poissons Ratio (z) = -0.18297 -0.11423
#
# Static dielectric constant tensor:
#      x y z
#    x 1.717090 0.000000 0.000000 
#    y 0.000000 1.951290 0.000000 
#    z 0.000000 0.000000 1.731930 
# 
# From -- ./inp_files/50938.got.cif
#   From: 2010.05.17/outbox.cif.g08.bks.cpg/sg72_26_cif.got.tgz:50938.got - 2010.06.03 17:03:01.
