data_PCOD9527123
_publ_section_title
;
Structure prediction by ZEFSAII (Michael W. Deem and Ramdas Pophale) SiO2 
 PCOD9527123
Probable space group: I B A M
;
_chemical_formula_sum "Si O2"
_cell_formula_units_Z 128
_cell_length_a 21.841498
_cell_length_b 10.917967
_cell_length_c 28.018333
_cell_angle_alpha 90.000000
_cell_angle_beta 90.000000
_cell_angle_gamma 90.000000
_cell_volume 6681.384897
_symmetry_space_group_name_H-M "I B A M"
_symmetry_group_IT_number 72
_symmetry_cell_setting 'orthorhombic'
loop_
_space_group_symop_operation_xyz
x,y,z
-x,-y,z
x,-y,1/2-z
-x,y,1/2-z
-x,-y,-z
x,y,-z
-x,y,1/2+z
x,-y,1/2+z
1/2+x,1/2+y,1/2+z
1/2-x,1/2-y,1/2+z
1/2+x,1/2-y,-z
1/2-x,1/2+y,-z
1/2-x,1/2-y,1/2-z
1/2+x,1/2+y,1/2-z
1/2-x,1/2+y,z
1/2+x,1/2-y,z
loop_
_atom_site_type_symbol
_atom_site_label
_atom_site_fract_x
_atom_site_fract_y
_atom_site_fract_z
Si Si1 0.894772 0.547358 0.445222
Si Si2 0.333019 0.652052 0.866260
Si Si3 0.703536 0.142647 0.208556
Si Si4 0.411694 0.225204 0.554294
Si Si5 0.454182 0.685573 0.444556
Si Si6 0.798580 0.574224 0.364070
Si Si7 0.931523 0.048821 0.154638
Si Si8 0.662213 0.721339 0.203713
O O1 0.874065 0.547930 0.500000
O O2 0.929242 0.417805 0.437935
O O3 0.930547 0.674615 0.438490
O O4 0.839086 0.542643 0.409088
O O5 0.310935 0.745205 0.826186
O O6 0.360547 0.728591 0.909803
O O7 0.272592 0.574687 0.877959
O O8 0.385933 0.565525 0.846718
O O9 0.662838 0.176106 0.254588
O O10 0.777050 0.142850 0.218477
O O11 0.690583 0.021777 0.178519
O O12 0.389965 0.235672 0.500000
O O13 0.472391 0.306542 0.559257
O O14 0.439135 0.647431 0.500000
O O15 0.432104 0.606478 0.399274
O O16 0.819736 0.706287 0.344411
O O17 0.898700 0.144406 0.191471
O O18 0.000000 0.000000 0.166076
#
# Coordination Sequence:
#
# PCOD9527123 Si02
#       8
#    16  16  16  16  16  16  16  16
#     4  10  20  36  61  90 118 153 201 256 312 362
#     4  11  23  36  58  89 120 161 203 247 309 366
#     4  10  21  40  63  86 119 154 207 263 305 367
#     4  10  20  37  60  86 118 160 205 248 303 372
#     4  10  21  38  62  89 117 158 207 253 299 372
#     4  11  20  37  65  87 121 155 206 259 309 368
#     4  12  23  39  61  89 127 163 202 252 312 381
#     4  10  22  39  62  91 115 158 207 256 314 366
#
# _framework density 19.157705
#
# number of rings (size 3 to 8) (size 9 to 14) (size 15 to 20)
#    0.000    1.500    5.000    0.750    0.000    3.250 
#    0.000    1.250    0.000    0.000    0.000    3.500 
#    0.000    0.000    0.000    0.000    0.000    0.000 
#
# Total GULP energy -356789.570581 kJ/mol
# GULP energy per Si atom -5574.837040 kJ/mol
# Density = 1.911410 g / cm^3
# Si number density = 19.157705 Si / 1000 Ang^3
#
#
#
# Elastic Constant Matrix: (Units=GPa)
#
#
# Indices 1 2 3 4 5 6 
#
# 1 109.2341 35.2878 45.9311 0.0000 0.0000 0.0000
# 2 35.2878 68.4714 29.3695 0.0000 0.0000 0.0000
# 3 45.9311 29.3695 71.8502 0.0000 0.0000 0.0000
# 4 0.0000 0.0000 0.0000 4.1054 0.0000 0.0000
# 5 0.0000 0.0000 0.0000 0.0000 26.4632 0.0000
# 6 0.0000 0.0000 0.0000 0.0000 0.0000 32.6436
#
#
#
# Elastic Compliance Matrix: (Units=1/GPa)
#
#
# Indices 1 2 3 4 5 6 
#
# 1 0.013326 -0.003897 -0.006926 0.000000 0.000000 0.000000
# 2 -0.003897 0.018849 -0.005214 0.000000 0.000000 0.000000
# 3 -0.006926 -0.005214 0.020476 0.000000 0.000000 0.000000
# 4 0.000000 0.000000 0.000000 0.243584 0.000000 0.000000
# 5 0.000000 0.000000 0.000000 0.000000 0.037788 0.000000
# 6 0.000000 0.000000 0.000000 0.000000 0.000000 0.030634
#
#
# Mechanical properties :
#
#
# Convention : Reuss Voigt Hill
#
# Bulk Modulus (GPa) = 48.59400 52.30362 50.44881
# Shear Modulus (GPa) = 12.38882 21.90690 17.14786
#
# Velocity S-wave (km/s) = 2.54574 3.38524 2.99505
# Velocity P-wave (km/s) = 5.83621 6.52998 6.19282
#
# Compressibility (1/GPa) = 0.02057867
#
# Stress axis : x y z
#
# Youngs Moduli (GPa) = 75.04305 53.05237 48.83691
#
# Poissons Ratio (x) = 0.20674 0.33823
# Poissons Ratio (y) = 0.29244 0.25462
# Poissons Ratio (z) = 0.51972 0.27660
#
# Static dielectric constant tensor:
#      x y z
#    x 1.652580 0.000000 0.000000 
#    y 0.000000 1.725030 0.000000 
#    z 0.000000 0.000000 1.685630 
# 
# From -- ./inp_files/45785.got.cif
#   From: 2010.05.17/outbox.cif.g08.bks.cpg/sg72_23_cif.got.tgz:45785.got - 2010.06.03 17:03:01.
