data_PCOD9527932
_publ_section_title
;
Structure prediction by ZEFSAII (Michael W. Deem and Ramdas Pophale) SiO2 
 PCOD9527932
Probable space group: I B A M
;
_chemical_formula_sum "Si O2"
_cell_formula_units_Z 96
_cell_length_a 14.944009
_cell_length_b 21.965126
_cell_length_c 14.264408
_cell_angle_alpha 90.000000
_cell_angle_beta 90.000000
_cell_angle_gamma 90.000000
_cell_volume 4682.249712
_symmetry_space_group_name_H-M "I B A M"
_symmetry_group_IT_number 72
_symmetry_cell_setting 'orthorhombic'
loop_
_space_group_symop_operation_xyz
x,y,z
-x,-y,z
x,-y,1/2-z
-x,y,1/2-z
-x,-y,-z
x,y,-z
-x,y,1/2+z
x,-y,1/2+z
1/2+x,1/2+y,1/2+z
1/2-x,1/2-y,1/2+z
1/2+x,1/2-y,-z
1/2-x,1/2+y,-z
1/2-x,1/2-y,1/2-z
1/2+x,1/2+y,1/2-z
1/2-x,1/2+y,z
1/2+x,1/2-y,z
loop_
_atom_site_type_symbol
_atom_site_label
_atom_site_fract_x
_atom_site_fract_y
_atom_site_fract_z
Si Si1 0.494383 0.306545 0.391907
Si Si2 0.950286 0.942659 0.150707
Si Si3 0.184054 0.839908 0.887013
Si Si4 0.288193 0.479179 0.888533
Si Si5 0.500000 0.104049 0.750000
Si Si6 0.386816 0.189453 0.614226
Si Si7 0.866777 0.500000 0.250000
O O1 0.508935 0.290233 0.500000
O O2 0.457914 0.375400 0.389461
O O3 0.594444 0.307775 0.348271
O O4 0.423890 0.256357 0.359904
O O5 0.000000 0.938360 0.250000
O O6 0.849310 0.966938 0.152620
O O7 0.000000 0.000000 0.101239
O O8 0.171370 0.912126 0.871078
O O9 0.283078 0.819969 0.855492
O O10 0.185026 0.832034 0.000000
O O11 0.194571 0.479531 0.835984
O O12 0.280381 0.487082 0.000000
O O13 0.452954 0.143971 0.669451
O O14 0.575169 0.056905 0.714946
O O15 0.389890 0.180472 0.500000
#
# Coordination Sequence:
#
# PCOD9527932 Si02
#       7
#    16  16  16  16   8  16   8
#     4  10  21  38  62  89 122 166 212 258 314 383
#     4  11  22  35  58  94 131 163 201 260 315 378
#     4   9  18  37  64  87 117 165 209 258 321 375
#     4  11  22  39  64  92 129 169 207 260 325 382
#     4  11  24  42  66  90 123 166 212 274 329 374
#     4  10  22  42  64  90 126 167 216 263 318 392
#     4  11  24  42  63  94 124 160 221 268 320 389
#
# _framework density 20.502965
#
# number of rings (size 3 to 8) (size 9 to 14) (size 15 to 20)
#    0.000    1.667    3.333    1.500    1.167    1.333 
#    3.000    2.500    0.000    0.000    0.000    0.000 
#    0.000    0.000    0.000    0.000    0.000    0.000 
#
# Total GULP energy -267737.087026 kJ/mol
# GULP energy per Si atom -5577.855980 kJ/mol
# Density = 2.045630 g / cm^3
# Si number density = 20.502965 Si / 1000 Ang^3
#
#
#
# Elastic Constant Matrix: (Units=GPa)
#
#
# Indices 1 2 3 4 5 6 
#
# 1 140.4625 65.8636 16.9551 0.0000 0.0000 0.0000
# 2 65.8636 119.3929 15.0090 0.0000 0.0000 0.0000
# 3 16.9551 15.0090 67.6097 0.0000 0.0000 0.0000
# 4 0.0000 0.0000 0.0000 19.3545 0.0000 0.0000
# 5 0.0000 0.0000 0.0000 0.0000 11.5799 0.0000
# 6 0.0000 0.0000 0.0000 0.0000 0.0000 37.9182
#
#
#
# Elastic Compliance Matrix: (Units=1/GPa)
#
#
# Indices 1 2 3 4 5 6 
#
# 1 0.009710 -0.005196 -0.001282 0.000000 0.000000 0.000000
# 2 -0.005196 0.011396 -0.001227 0.000000 0.000000 0.000000
# 3 -0.001282 -0.001227 0.015385 0.000000 0.000000 0.000000
# 4 0.000000 0.000000 0.000000 0.051668 0.000000 0.000000
# 5 0.000000 0.000000 0.000000 0.000000 0.086357 0.000000
# 6 0.000000 0.000000 0.000000 0.000000 0.000000 0.026373
#
#
# Mechanical properties :
#
#
# Convention : Reuss Voigt Hill
#
# Bulk Modulus (GPa) = 47.43280 58.12450 52.77865
# Shear Modulus (GPa) = 22.38902 29.07967 25.73434
#
# Velocity S-wave (km/s) = 3.30811 3.77014 3.54666
# Velocity P-wave (km/s) = 6.14624 6.88206 6.52453
#
# Compressibility (1/GPa) = 0.02108246
#
# Stress axis : x y z
#
# Youngs Moduli (GPa) = 102.98350 87.74923 65.00013
#
# Poissons Ratio (x) = 0.45591 0.08331
# Poissons Ratio (y) = 0.53506 0.07975
# Poissons Ratio (z) = 0.13200 0.10766
#
# Static dielectric constant tensor:
#      x y z
#    x 1.774630 0.000000 0.000000 
#    y 0.000000 1.732840 0.000000 
#    z 0.000000 0.000000 1.753450 
# 
# From -- ./inp_files/21906.got.cif
#   From: 2010.05.17/outbox.cif.g08.bks.cpg/sg72_11_cif.got.tgz:21906.got - 2010.06.03 17:03:01.
