data_PCOD9527465
_publ_section_title
;
Structure prediction by ZEFSAII (Michael W. Deem and Ramdas Pophale) SiO2 
 PCOD9527465
Probable space group: I B A M
;
_chemical_formula_sum "Si O2"
_cell_formula_units_Z 112
_cell_length_a 11.810549
_cell_length_b 15.906865
_cell_length_c 29.343714
_cell_angle_alpha 90.000000
_cell_angle_beta 90.000000
_cell_angle_gamma 90.000000
_cell_volume 5512.768587
_symmetry_space_group_name_H-M "I B A M"
_symmetry_group_IT_number 72
_symmetry_cell_setting 'orthorhombic'
loop_
_space_group_symop_operation_xyz
x,y,z
-x,-y,z
x,-y,1/2-z
-x,y,1/2-z
-x,-y,-z
x,y,-z
-x,y,1/2+z
x,-y,1/2+z
1/2+x,1/2+y,1/2+z
1/2-x,1/2-y,1/2+z
1/2+x,1/2-y,-z
1/2-x,1/2+y,-z
1/2-x,1/2-y,1/2-z
1/2+x,1/2+y,1/2-z
1/2-x,1/2+y,z
1/2+x,1/2-y,z
loop_
_atom_site_type_symbol
_atom_site_label
_atom_site_fract_x
_atom_site_fract_y
_atom_site_fract_z
Si Si1 0.615428 0.146770 0.658075
Si Si2 0.151441 0.189959 0.191699
Si Si3 0.867634 0.499221 0.589365
Si Si4 0.878711 0.387716 0.319932
Si Si5 0.619068 0.446849 0.552867
Si Si6 0.441265 0.340411 0.137240
Si Si7 0.337719 0.416479 0.225652
O O1 0.727288 0.149491 0.686753
O O2 0.512315 0.109962 0.687052
O O3 0.587664 0.242488 0.644284
O O4 0.636283 0.088712 0.614578
O O5 0.154152 0.289095 0.183216
O O6 0.123491 0.162167 0.243090
O O7 0.071902 0.152644 0.152255
O O8 0.865655 0.428732 0.629761
O O9 0.746236 0.485857 0.563247
O O10 0.000000 0.500000 0.569284
O O11 0.795183 0.428003 0.284128
O O12 0.500000 0.500000 0.558788
O O13 0.621258 0.421584 0.500000
O O14 0.598204 0.371791 0.588440
O O15 0.382540 0.398290 0.175232
O O16 0.379289 0.500000 0.250000
#
# Coordination Sequence:
#
# PCOD9527465 Si02
#       7
#    16  16  16  16  16  16  16
#     4  10  21  38  64  90 124 171 208 261 313 365
#     4  11  22  37  59  88 128 168 210 260 307 369
#     4  10  20  40  67  93 126 171 214 257 326 386
#     4  10  21  39  59  88 127 167 216 255 309 369
#     4  11  24  43  70  98 124 161 211 272 333 385
#     4  11  24  41  63  89 129 167 209 260 317 381
#     4  12  24  38  59  89 124 171 218 256 305 376
#
# _framework density 20.316471
#
# number of rings (size 3 to 8) (size 9 to 14) (size 15 to 20)
#    0.000    1.286    2.857    2.571    2.000    1.429 
#    0.000    1.429    0.000   16.286    0.000    0.000 
#    0.000    0.000    0.000    0.000    0.000    0.000 
#
# Total GULP energy -312068.823080 kJ/mol
# GULP energy per Si atom -5572.657555 kJ/mol
# Density = 2.027023 g / cm^3
# Si number density = 20.316471 Si / 1000 Ang^3
#
#
#
# Elastic Constant Matrix: (Units=GPa)
#
#
# Indices 1 2 3 4 5 6 
#
# 1 169.8641 19.5272 47.3261 0.0000 0.0000 0.0000
# 2 19.5272 77.0795 42.5013 0.0000 0.0000 0.0000
# 3 47.3261 42.5013 92.4514 0.0000 0.0000 0.0000
# 4 0.0000 0.0000 0.0000 2.2861 0.0000 0.0000
# 5 0.0000 0.0000 0.0000 0.0000 14.9256 0.0000
# 6 0.0000 0.0000 0.0000 0.0000 0.0000 26.2494
#
#
#
# Elastic Compliance Matrix: (Units=1/GPa)
#
#
# Indices 1 2 3 4 5 6 
#
# 1 0.006870 0.000266 -0.003639 0.000000 0.000000 0.000000
# 2 0.000266 0.017389 -0.008130 0.000000 0.000000 0.000000
# 3 -0.003639 -0.008130 0.016417 0.000000 0.000000 0.000000
# 4 0.000000 0.000000 0.000000 0.437435 0.000000 0.000000
# 5 0.000000 0.000000 0.000000 0.000000 0.066999 0.000000
# 6 0.000000 0.000000 0.000000 0.000000 0.000000 0.038096
#
#
# Mechanical properties :
#
#
# Convention : Reuss Voigt Hill
#
# Bulk Modulus (GPa) = 56.59392 62.01157 59.30275
# Shear Modulus (GPa) = 8.16854 24.02822 16.09838
#
# Velocity S-wave (km/s) = 2.00733 3.44277 2.81798
# Velocity P-wave (km/s) = 5.76968 6.81121 6.31196
#
# Compressibility (1/GPa) = 0.01766974
#
# Stress axis : x y z
#
# Youngs Moduli (GPa) = 145.55139 57.50687 60.91198
#
# Poissons Ratio (x) = -0.01531 0.22168
# Poissons Ratio (y) = -0.03874 0.49524
# Poissons Ratio (z) = 0.52971 0.46755
#
# Static dielectric constant tensor:
#      x y z
#    x 1.850880 0.000000 0.000000 
#    y 0.000000 1.749380 0.000000 
#    z 0.000000 0.000000 1.677670 
# 
# From -- ./inp_files/51445.got.cif
#   From: 2010.05.17/outbox.cif.g08.bks.cpg/sg72_26_cif.got.tgz:51445.got - 2010.06.03 17:03:01.
