data_PCOD9527577
_publ_section_title
;
Structure prediction by ZEFSAII (Michael W. Deem and Ramdas Pophale) SiO2 
 PCOD9527577
Probable space group: I B A M
;
_chemical_formula_sum "Si O2"
_cell_formula_units_Z 88
_cell_length_a 11.161429
_cell_length_b 13.493577
_cell_length_c 27.412697
_cell_angle_alpha 90.000000
_cell_angle_beta 90.000000
_cell_angle_gamma 90.000000
_cell_volume 4128.560550
_symmetry_space_group_name_H-M "I B A M"
_symmetry_group_IT_number 72
_symmetry_cell_setting 'orthorhombic'
loop_
_space_group_symop_operation_xyz
x,y,z
-x,-y,z
x,-y,1/2-z
-x,y,1/2-z
-x,-y,-z
x,y,-z
-x,y,1/2+z
x,-y,1/2+z
1/2+x,1/2+y,1/2+z
1/2-x,1/2-y,1/2+z
1/2+x,1/2-y,-z
1/2-x,1/2+y,-z
1/2-x,1/2-y,1/2-z
1/2+x,1/2+y,1/2-z
1/2-x,1/2+y,z
1/2+x,1/2-y,z
loop_
_atom_site_type_symbol
_atom_site_label
_atom_site_fract_x
_atom_site_fract_y
_atom_site_fract_z
Si Si1 0.000000 0.500000 0.370739
Si Si2 0.129782 0.136025 0.611392
Si Si3 0.797656 0.642290 0.362106
Si Si4 0.642026 0.129474 0.052917
Si Si5 0.642380 0.516997 0.304361
Si Si6 0.615054 0.635028 0.444060
O O1 0.099200 0.433040 0.344814
O O2 0.068802 0.576298 0.405437
O O3 0.149138 0.248106 0.631116
O O4 0.218503 0.124038 0.565851
O O5 0.174076 0.063694 0.654318
O O6 0.998516 0.110906 0.590409
O O7 0.688709 0.622831 0.324471
O O8 0.737968 0.612806 0.414578
O O9 0.610356 0.245494 0.052890
O O10 0.616250 0.086672 0.000000
O O11 0.500000 0.500000 0.301497
O O12 0.690743 0.500000 0.250000
O O13 0.611215 0.597219 0.500000
#
# Coordination Sequence:
#
# PCOD9527577 Si02
#       6
#     8  16  16  16  16  16
#     4  12  21  38  59  90 128 170 209 256 311 376
#     4  11  21  41  67  91 127 168 211 266 322 376
#     4  11  24  41  66  94 131 171 212 264 323 385
#     4  10  21  34  56  90 128 169 208 249 305 374
#     4  11  24  45  70  93 122 162 219 278 329 389
#     4  10  21  38  60  92 130 171 213 252 307 380
#
# _framework density 21.314934999999998
#
# number of rings (size 3 to 8) (size 9 to 14) (size 15 to 20)
#    0.000    1.273    5.455    0.818    0.000    2.909 
#    0.000    1.364    0.000    0.000    0.000    0.000 
#    0.000    0.000    0.000    0.000    0.000    0.000 
#
# Total GULP energy -245496.558818 kJ/mol
# GULP energy per Si atom -5579.467246 kJ/mol
# Density = 2.126642 g / cm^3
# Si number density = 21.314935 Si / 1000 Ang^3
#
#
#
# Elastic Constant Matrix: (Units=GPa)
#
#
# Indices 1 2 3 4 5 6 
#
# 1 66.8809 12.1097 -3.6389 0.0000 0.0000 0.0000
# 2 12.1097 87.3686 17.5208 0.0000 0.0000 0.0000
# 3 -3.6389 17.5208 90.9965 0.0000 0.0000 0.0000
# 4 0.0000 0.0000 0.0000 17.1210 0.0000 0.0000
# 5 0.0000 0.0000 0.0000 0.0000 9.2168 0.0000
# 6 0.0000 0.0000 0.0000 0.0000 0.0000 29.5770
#
#
#
# Elastic Compliance Matrix: (Units=1/GPa)
#
#
# Indices 1 2 3 4 5 6 
#
# 1 0.015436 -0.002354 0.001071 0.000000 0.000000 0.000000
# 2 -0.002354 0.012265 -0.002456 0.000000 0.000000 0.000000
# 3 0.001071 -0.002456 0.011505 0.000000 0.000000 0.000000
# 4 0.000000 0.000000 0.000000 0.058408 0.000000 0.000000
# 5 0.000000 0.000000 0.000000 0.000000 0.108497 0.000000
# 6 0.000000 0.000000 0.000000 0.000000 0.000000 0.033810
#
#
# Mechanical properties :
#
#
# Convention : Reuss Voigt Hill
#
# Bulk Modulus (GPa) = 31.51841 33.02548 32.27195
# Shear Modulus (GPa) = 19.38170 25.79994 22.59082
#
# Velocity S-wave (km/s) = 3.01873 3.48288 3.25908
# Velocity P-wave (km/s) = 5.19321 5.63042 5.41623
#
# Compressibility (1/GPa) = 0.03172749
#
# Stress axis : x y z
#
# Youngs Moduli (GPa) = 64.78168 81.53607 86.91830
#
# Poissons Ratio (x) = 0.19196 -0.09305
# Poissons Ratio (y) = 0.15251 0.21344
# Poissons Ratio (z) = -0.06935 0.20022
#
# Static dielectric constant tensor:
#      x y z
#    x 1.887340 0.000000 0.000000 
#    y 0.000000 1.791840 0.000000 
#    z 0.000000 0.000000 1.752850 
# 
# From -- ./inp_files/48026.got.cif
#   From: 2010.05.17/outbox.cif.g08.bks.cpg/sg72_25_cif.got.tgz:48026.got - 2010.06.03 17:03:01.
