data_PCOD9527017
_publ_section_title
;
Structure prediction by ZEFSAII (Michael W. Deem and Ramdas Pophale) SiO2 
 PCOD9527017
Probable space group: I B A M
;
_chemical_formula_sum "Si O2"
_cell_formula_units_Z 80
_cell_length_a 13.563082
_cell_length_b 11.123185
_cell_length_c 25.756234
_cell_angle_alpha 90.000000
_cell_angle_beta 90.000000
_cell_angle_gamma 90.000000
_cell_volume 3885.705749
_symmetry_space_group_name_H-M "I B A M"
_symmetry_group_IT_number 72
_symmetry_cell_setting 'orthorhombic'
loop_
_space_group_symop_operation_xyz
x,y,z
-x,-y,z
x,-y,1/2-z
-x,y,1/2-z
-x,-y,-z
x,y,-z
-x,y,1/2+z
x,-y,1/2+z
1/2+x,1/2+y,1/2+z
1/2-x,1/2-y,1/2+z
1/2+x,1/2-y,-z
1/2-x,1/2+y,-z
1/2-x,1/2-y,1/2-z
1/2+x,1/2+y,1/2-z
1/2-x,1/2+y,z
1/2+x,1/2-y,z
loop_
_atom_site_type_symbol
_atom_site_label
_atom_site_fract_x
_atom_site_fract_y
_atom_site_fract_z
Si Si1 0.377215 0.367775 0.000000
Si Si2 0.747271 0.765272 0.084825
Si Si3 0.792111 0.629803 0.809233
Si Si4 0.906235 0.418918 0.140990
Si Si5 0.100733 0.152793 0.000000
Si Si6 0.404594 0.713580 0.277120
O O1 0.316277 0.327214 0.050442
O O2 0.486481 0.310455 0.000000
O O3 0.391622 0.509411 0.000000
O O4 0.786025 0.708672 0.138233
O O5 0.670940 0.873414 0.097787
O O6 0.839781 0.802609 0.050132
O O7 0.844688 0.505601 0.821097
O O8 0.677897 0.618974 0.793624
O O9 0.851074 0.700602 0.765022
O O10 0.933971 0.300007 0.174311
O O11 0.000000 0.500000 0.124136
O O12 0.500000 0.661463 0.250000
#
# Coordination Sequence:
#
# PCOD9527017 Si02
#       6
#     8  16  16  16   8  16
#     4  10  22  42  63  83 115 165 192 246 316 370
#     4  10  23  39  59  91 118 150 207 251 301 358
#     4  10  21  34  58  87 123 153 200 249 294 353
#     4  11  21  35  61  89 120 161 199 250 299 359
#     4  10  22  42  63  81 121 159 194 250 316 364
#     4  10  20  36  56  86 120 164 200 239 300 353
#
# _framework density 20.588280000000001
#
# number of rings (size 3 to 8) (size 9 to 14) (size 15 to 20)
#    0.000    1.800    2.000    1.800    2.800    0.000 
#    0.000    1.000    0.000   20.400    0.000    0.000 
#    0.000    0.000    0.000    0.000    0.000    0.000 
#
# Total GULP energy -223430.118247 kJ/mol
# GULP energy per Si atom -5585.752956 kJ/mol
# Density = 2.054142 g / cm^3
# Si number density = 20.588280 Si / 1000 Ang^3
#
#
#
# Elastic Constant Matrix: (Units=GPa)
#
#
# Indices 1 2 3 4 5 6 
#
# 1 78.0381 -1.4352 -5.9392 0.0000 0.0000 0.0000
# 2 -1.4352 28.1718 -12.7358 0.0000 0.0000 0.0000
# 3 -5.9392 -12.7358 53.4163 0.0000 0.0000 0.0000
# 4 0.0000 0.0000 0.0000 14.6805 0.0000 0.0000
# 5 0.0000 0.0000 0.0000 0.0000 35.9125 0.0000
# 6 0.0000 0.0000 0.0000 0.0000 0.0000 30.8876
#
#
#
# Elastic Compliance Matrix: (Units=1/GPa)
#
#
# Indices 1 2 3 4 5 6 
#
# 1 0.012978 0.001472 0.001794 0.000000 0.000000 0.000000
# 2 0.001472 0.039952 0.009689 0.000000 0.000000 0.000000
# 3 0.001794 0.009689 0.021230 0.000000 0.000000 0.000000
# 4 0.000000 0.000000 0.000000 0.068117 0.000000 0.000000
# 5 0.000000 0.000000 0.000000 0.000000 0.027845 0.000000
# 6 0.000000 0.000000 0.000000 0.000000 0.000000 0.032375
#
#
# Mechanical properties :
#
#
# Convention : Reuss Voigt Hill
#
# Bulk Modulus (GPa) = 9.99295 13.26732 11.63013
# Shear Modulus (GPa) = 23.81579 28.27853 26.04716
#
# Velocity S-wave (km/s) = 3.40481 3.71013 3.56075
# Velocity P-wave (km/s) = 4.50791 4.98112 4.75041
#
# Compressibility (1/GPa) = 0.10007059
#
# Stress axis : x y z
#
# Youngs Moduli (GPa) = 77.05426 25.03022 47.10211
#
# Poissons Ratio (x) = -0.03685 -0.08450
# Poissons Ratio (y) = -0.11344 -0.45638
# Poissons Ratio (z) = -0.13823 -0.24252
#
# Static dielectric constant tensor:
#      x y z
#    x 1.747650 0.000000 0.000000 
#    y 0.000000 1.712640 0.000000 
#    z 0.000000 0.000000 1.728720 
# 
# From -- ./inp_files/48561.got.cif
#   From: 2010.05.17/outbox.cif.g08.bks.cpg/sg72_25_cif.got.tgz:48561.got - 2010.06.03 17:03:01.
