data_PCOD9527058
_publ_section_title
;
Structure prediction by ZEFSAII (Michael W. Deem and Ramdas Pophale) SiO2 
 PCOD9527058
Probable space group: I B A M
;
_chemical_formula_sum "Si O2"
_cell_formula_units_Z 96
_cell_length_a 25.815848
_cell_length_b 24.005842
_cell_length_c 8.778949
_cell_angle_alpha 90.000000
_cell_angle_beta 90.000000
_cell_angle_gamma 90.000000
_cell_volume 5440.588319
_symmetry_space_group_name_H-M "I B A M"
_symmetry_group_IT_number 72
_symmetry_cell_setting 'orthorhombic'
loop_
_space_group_symop_operation_xyz
x,y,z
-x,-y,z
x,-y,1/2-z
-x,y,1/2-z
-x,-y,-z
x,y,-z
-x,y,1/2+z
x,-y,1/2+z
1/2+x,1/2+y,1/2+z
1/2-x,1/2-y,1/2+z
1/2+x,1/2-y,-z
1/2-x,1/2+y,-z
1/2-x,1/2-y,1/2-z
1/2+x,1/2+y,1/2-z
1/2-x,1/2+y,z
1/2+x,1/2-y,z
loop_
_atom_site_type_symbol
_atom_site_label
_atom_site_fract_x
_atom_site_fract_y
_atom_site_fract_z
Si Si1 0.056530 0.439516 0.316862
Si Si2 0.192023 0.751310 0.318776
Si Si3 0.056249 0.939581 0.182558
Si Si4 0.845301 0.865983 0.682501
Si Si5 0.652334 0.861959 0.182042
Si Si6 0.747776 0.561469 0.681952
O O1 0.071442 0.500000 0.250000
O O2 0.053636 0.443754 0.500000
O O3 0.099465 0.393671 0.276964
O O4 0.000000 0.426078 0.250000
O O5 0.196075 0.754594 0.500000
O O6 0.250000 0.750000 0.250000
O O7 0.163292 0.805702 0.255201
O O8 0.162811 0.695366 0.268108
O O9 0.099875 0.894418 0.220672
O O10 0.000000 0.925497 0.250000
O O11 0.071058 0.000000 0.250000
O O12 0.052648 0.944325 0.000000
O O13 0.841245 0.861798 0.500000
O O14 0.800091 0.905933 0.744305
O O15 0.700210 0.903455 0.212935
O O16 0.651854 0.851091 0.000000
O O17 0.751798 0.500000 0.750000
O O18 0.740763 0.558506 0.500000
#
# Coordination Sequence:
#
# PCOD9527058 Si02
#       6
#    16  16  16  16  16  16
#     4  10  20  36  59  86 118 154 193 239 288 344
#     4  12  24  39  61  85 114 154 195 237 288 346
#     4  10  21  37  60  87 117 153 191 236 287 342
#     4  11  23  39  59  85 116 151 194 240 288 342
#     4  10  22  39  58  83 115 152 195 239 287 341
#     4  11  22  35  55  83 116 151 187 234 291 346
#
# _framework density 17.645150999999998
#
# number of rings (size 3 to 8) (size 9 to 14) (size 15 to 20)
#    0.000    1.333    1.667    5.500    0.000    6.000 
#    0.000    0.833    0.000    0.000    0.000    0.000 
#    0.000    0.000    0.000    0.000    0.000    0.000 
#
# Total GULP energy -268339.797137 kJ/mol
# GULP energy per Si atom -5590.412440 kJ/mol
# Density = 1.760499 g / cm^3
# Si number density = 17.645151 Si / 1000 Ang^3
#
#
#
# Elastic Constant Matrix: (Units=GPa)
#
#
# Indices 1 2 3 4 5 6 
#
# 1 128.5835 103.8724 74.3426 0.0000 0.0000 0.0000
# 2 103.8724 176.6663 88.5490 0.0000 0.0000 0.0000
# 3 74.3426 88.5490 94.7541 0.0000 0.0000 0.0000
# 4 0.0000 0.0000 0.0000 -30.9097 0.0000 0.0000
# 5 0.0000 0.0000 0.0000 0.0000 26.8483 0.0000
# 6 0.0000 0.0000 0.0000 0.0000 0.0000 14.2739
#
#
#
# Elastic Compliance Matrix: (Units=1/GPa)
#
#
# Indices 1 2 3 4 5 6 
#
# 1 0.017344 -0.006353 -0.007671 0.000000 0.000000 0.000000
# 2 -0.006353 0.012975 -0.007141 0.000000 0.000000 0.000000
# 3 -0.007671 -0.007141 0.023246 0.000000 0.000000 0.000000
# 4 0.000000 0.000000 0.000000 -0.032352 0.000000 0.000000
# 5 0.000000 0.000000 0.000000 0.000000 0.037246 0.000000
# 6 0.000000 0.000000 0.000000 0.000000 0.000000 0.070058
#
#
# Mechanical properties :
#
#
# Convention : Reuss Voigt Hill
#
# Bulk Modulus (GPa) = 89.00854 103.72576 96.36715
# Shear Modulus (GPa) = 28.63842 10.92514 19.78178
#
# Velocity S-wave (km/s) = 4.03304 2.49099 3.35190
# Velocity P-wave (km/s) = 8.49943 8.19666 8.34942
#
# Compressibility (1/GPa) = 0.01123488
#
# Stress axis : x y z
#
# Youngs Moduli (GPa) = 57.65654 77.07417 43.01882
#
# Poissons Ratio (x) = 0.48962 0.33001
# Poissons Ratio (y) = 0.36626 0.30719
# Poissons Ratio (z) = 0.44231 0.55037
#
# Static dielectric constant tensor:
#      x y z
#    x 1.583630 0.000000 0.000000 
#    y 0.000000 1.572840 0.000000 
#    z 0.000000 0.000000 1.592080 
# 
# From -- ./inp_files/5993.got.cif
#   From: 2010.05.17/outbox.cif.g08.bks.cpg/sg72_3_cif.got.tgz:5993.got - 2010.06.03 17:03:01.
