data_PCOD9527553
_publ_section_title
;
Structure prediction by ZEFSAII (Michael W. Deem and Ramdas Pophale) SiO2 
 PCOD9527553
Probable space group: I B A M
;
_chemical_formula_sum "Si O2"
_cell_formula_units_Z 112
_cell_length_a 13.235633
_cell_length_b 14.232495
_cell_length_c 27.342729
_cell_angle_alpha 90.000000
_cell_angle_beta 90.000000
_cell_angle_gamma 90.000000
_cell_volume 5150.716119
_symmetry_space_group_name_H-M "I B A M"
_symmetry_group_IT_number 72
_symmetry_cell_setting 'orthorhombic'
loop_
_space_group_symop_operation_xyz
x,y,z
-x,-y,z
x,-y,1/2-z
-x,y,1/2-z
-x,-y,-z
x,y,-z
-x,y,1/2+z
x,-y,1/2+z
1/2+x,1/2+y,1/2+z
1/2-x,1/2-y,1/2+z
1/2+x,1/2-y,-z
1/2-x,1/2+y,-z
1/2-x,1/2-y,1/2-z
1/2+x,1/2+y,1/2-z
1/2-x,1/2+y,z
1/2+x,1/2-y,z
loop_
_atom_site_type_symbol
_atom_site_label
_atom_site_fract_x
_atom_site_fract_y
_atom_site_fract_z
Si Si1 0.627103 0.288613 0.557730
Si Si2 0.186079 0.362254 0.121044
Si Si3 0.988067 0.112768 0.373438
Si Si4 0.204901 0.513654 0.196605
Si Si5 0.602280 0.614264 0.220095
Si Si6 0.004493 0.386794 0.442083
Si Si7 0.695811 0.691798 0.313671
O O1 0.642171 0.298331 0.500000
O O2 0.720454 0.337512 0.585786
O O3 0.527680 0.344314 0.576339
O O4 0.603673 0.177775 0.568349
O O5 0.172973 0.462568 0.147238
O O6 0.084730 0.345169 0.090951
O O7 0.202974 0.295979 0.167849
O O8 0.879303 0.143160 0.353536
O O9 0.062609 0.152517 0.331176
O O10 0.000000 0.000000 0.373264
O O11 0.154062 0.500000 0.250000
O O12 0.318496 0.468325 0.205620
O O13 0.208672 0.624110 0.187085
O O14 0.500000 0.589256 0.250000
O O15 0.653989 0.683482 0.258686
O O16 0.984240 0.372263 0.500000
O O17 0.000000 0.500000 0.434910
#
# Coordination Sequence:
#
# PCOD9527553 Si02
#       7
#    16  16  16  16  16  16  16
#     4  11  24  42  65  96 126 161 219 277 323 383
#     4  12  23  41  67  94 130 169 218 272 325 385
#     4  11  18  36  61  91 125 157 201 258 327 382
#     4  10  21  36  55  92 129 168 208 264 316 389
#     4   9  18  30  55  84 123 165 203 243 312 392
#     4  10  24  47  70  90 124 177 224 264 327 402
#     4  10  21  33  59  90 120 165 209 253 315 377
#
# _framework density 21.74455
#
# number of rings (size 3 to 8) (size 9 to 14) (size 15 to 20)
#    0.000    1.571    4.286    0.429    4.000    2.571 
#    0.000    0.000    0.000    0.000    0.000    0.000 
#    0.000    0.000    0.000    0.000    0.000    0.000 
#
# Total GULP energy -312111.092904 kJ/mol
# GULP energy per Si atom -5573.412373 kJ/mol
# Density = 2.169506 g / cm^3
# Si number density = 21.744550 Si / 1000 Ang^3
#
#
#
# Elastic Constant Matrix: (Units=GPa)
#
#
# Indices 1 2 3 4 5 6 
#
# 1 27.0574 -6.2792 21.7659 0.0000 0.0000 0.0000
# 2 -6.2792 86.0511 29.5371 0.0000 0.0000 0.0000
# 3 21.7659 29.5371 109.2305 0.0000 0.0000 0.0000
# 4 0.0000 0.0000 0.0000 35.5289 0.0000 0.0000
# 5 0.0000 0.0000 0.0000 0.0000 24.5218 0.0000
# 6 0.0000 0.0000 0.0000 0.0000 0.0000 8.6951
#
#
#
# Elastic Compliance Matrix: (Units=1/GPa)
#
#
# Indices 1 2 3 4 5 6 
#
# 1 0.048020 0.007483 -0.011592 0.000000 0.000000 0.000000
# 2 0.007483 0.013976 -0.005270 0.000000 0.000000 0.000000
# 3 -0.011592 -0.005270 0.012890 0.000000 0.000000 0.000000
# 4 0.000000 0.000000 0.000000 0.028146 0.000000 0.000000
# 5 0.000000 0.000000 0.000000 0.000000 0.040780 0.000000
# 6 0.000000 0.000000 0.000000 0.000000 0.000000 0.115007
#
#
# Mechanical properties :
#
#
# Convention : Reuss Voigt Hill
#
# Bulk Modulus (GPa) = 17.81659 34.70961 26.26310
# Shear Modulus (GPa) = 16.87547 25.57018 21.22282
#
# Velocity S-wave (km/s) = 2.78884 3.43291 3.12750
# Velocity P-wave (km/s) = 4.31063 5.63119 5.01457
#
# Compressibility (1/GPa) = 0.05612747
#
# Stress axis : x y z
#
# Youngs Moduli (GPa) = 20.82446 71.55049 77.57891
#
# Poissons Ratio (x) = -0.53543 0.89932
# Poissons Ratio (y) = -0.15583 0.40888
# Poissons Ratio (z) = 0.24140 0.37710
#
# Static dielectric constant tensor:
#      x y z
#    x 1.815410 0.000000 0.000000 
#    y 0.000000 1.874170 0.000000 
#    z 0.000000 0.000000 1.796310 
# 
# From -- ./inp_files/48681.got.cif
#   From: 2010.05.17/outbox.cif.g08.bks.cpg/sg72_25_cif.got.tgz:48681.got - 2010.06.03 17:03:01.
