data_PCOD9527172
_publ_section_title
;
Structure prediction by ZEFSAII (Michael W. Deem and Ramdas Pophale) SiO2 
 PCOD9527172
Probable space group: I B A M
;
_chemical_formula_sum "Si O2"
_cell_formula_units_Z 64
_cell_length_a 18.488679
_cell_length_b 13.935655
_cell_length_c 11.112775
_cell_angle_alpha 90.000000
_cell_angle_beta 90.000000
_cell_angle_gamma 90.000000
_cell_volume 2863.227059
_symmetry_space_group_name_H-M "I B A M"
_symmetry_group_IT_number 72
_symmetry_cell_setting 'orthorhombic'
loop_
_space_group_symop_operation_xyz
x,y,z
-x,-y,z
x,-y,1/2-z
-x,y,1/2-z
-x,-y,-z
x,y,-z
-x,y,1/2+z
x,-y,1/2+z
1/2+x,1/2+y,1/2+z
1/2-x,1/2-y,1/2+z
1/2+x,1/2-y,-z
1/2-x,1/2+y,-z
1/2-x,1/2-y,1/2-z
1/2+x,1/2+y,1/2-z
1/2-x,1/2+y,z
1/2+x,1/2-y,z
loop_
_atom_site_type_symbol
_atom_site_label
_atom_site_fract_x
_atom_site_fract_y
_atom_site_fract_z
Si Si1 0.288603 0.702624 0.865878
Si Si2 0.917367 0.961161 0.626930
Si Si3 0.081412 0.250003 0.284459
Si Si4 0.333338 0.936140 0.367148
O O1 0.250000 0.750000 0.750000
O O2 0.372134 0.718387 0.833273
O O3 0.249858 0.599508 0.866640
O O4 0.273918 0.743439 0.000000
O O5 0.883816 0.990950 0.500000
O O6 0.918758 0.846516 0.636920
O O7 0.884136 0.000000 0.750000
O O8 0.000000 0.000000 0.625979
O O9 0.119518 0.339255 0.349401
O O10 0.000000 0.274643 0.250000
O O11 0.348756 0.978438 0.500000
O O12 0.347017 0.000000 0.250000
#
# Coordination Sequence:
#
# PCOD9527172 Si02
#       4
#    16  16  16  16
#     4   9  21  41  67  95 128 173 227 280 338 401
#     4  10  20  37  57  87 130 173 211 259 329 409
#     4  11  22  40  67 105 139 175 217 282 350 416
#     4  10  23  45  67  93 131 181 234 280 328 396
#
# _framework density 22.352401
#
# number of rings (size 3 to 8) (size 9 to 14) (size 15 to 20)
#    0.000    2.000    2.500    0.750    0.000    9.500 
#    0.000    3.750    0.000    0.000    0.000    0.000 
#    0.000    0.000    0.000    0.000    0.000    0.000 
#
# Total GULP energy -178444.400607 kJ/mol
# GULP energy per Si atom -5576.387519 kJ/mol
# Density = 2.230153 g / cm^3
# Si number density = 22.352401 Si / 1000 Ang^3
#
#
#
# Elastic Constant Matrix: (Units=GPa)
#
#
# Indices 1 2 3 4 5 6 
#
# 1 122.5371 24.1161 42.0298 0.0000 0.0000 0.0000
# 2 24.1161 91.4474 63.6462 0.0000 0.0000 0.0000
# 3 42.0298 63.6462 247.5546 0.0000 0.0000 0.0000
# 4 0.0000 0.0000 0.0000 10.7940 0.0000 0.0000
# 5 0.0000 0.0000 0.0000 0.0000 162.5848 0.0000
# 6 0.0000 0.0000 0.0000 0.0000 0.0000 30.3932
#
#
#
# Elastic Compliance Matrix: (Units=1/GPa)
#
#
# Indices 1 2 3 4 5 6 
#
# 1 0.008846 -0.001568 -0.001099 0.000000 0.000000 0.000000
# 2 -0.001568 0.013596 -0.003229 0.000000 0.000000 0.000000
# 3 -0.001099 -0.003229 0.005056 0.000000 0.000000 0.000000
# 4 0.000000 0.000000 0.000000 0.092644 0.000000 0.000000
# 5 0.000000 0.000000 0.000000 0.000000 0.006151 0.000000
# 6 0.000000 0.000000 0.000000 0.000000 0.000000 0.032902
#
#
# Mechanical properties :
#
#
# Convention : Reuss Voigt Hill
#
# Bulk Modulus (GPa) = 63.66833 80.12481 71.89657
# Shear Modulus (GPa) = 28.37301 62.87086 45.62194
#
# Velocity S-wave (km/s) = 3.56666 5.30925 4.52268
# Velocity P-wave (km/s) = 6.74590 8.57369 7.71412
#
# Compressibility (1/GPa) = 0.01570640
#
# Stress axis : x y z
#
# Youngs Moduli (GPa) = 113.04172 73.54881 197.77181
#
# Poissons Ratio (x) = 0.11534 0.21730
# Poissons Ratio (y) = 0.17727 0.63868
# Poissons Ratio (z) = 0.12420 0.23752
#
# Static dielectric constant tensor:
#      x y z
#    x 1.850830 0.000000 0.000000 
#    y 0.000000 1.850120 0.000000 
#    z 0.000000 0.000000 1.827400 
# 
# From -- ./inp_files/13478.got.cif
#   From: 2010.05.17/outbox.cif.g08.bks.cpg/sg72_7_cif.got.tgz:13478.got - 2010.06.03 17:03:01.
