data_PCOD9527184
_publ_section_title
;
Structure prediction by ZEFSAII (Michael W. Deem and Ramdas Pophale) SiO2 
 PCOD9527184
Probable space group: I B A M
;
_chemical_formula_sum "Si O2"
_cell_formula_units_Z 80
_cell_length_a 26.260339
_cell_length_b 11.289931
_cell_length_c 14.102787
_cell_angle_alpha 90.000000
_cell_angle_beta 90.000000
_cell_angle_gamma 90.000000
_cell_volume 4181.157839
_symmetry_space_group_name_H-M "I B A M"
_symmetry_group_IT_number 72
_symmetry_cell_setting 'orthorhombic'
loop_
_space_group_symop_operation_xyz
x,y,z
-x,-y,z
x,-y,1/2-z
-x,y,1/2-z
-x,-y,-z
x,y,-z
-x,y,1/2+z
x,-y,1/2+z
1/2+x,1/2+y,1/2+z
1/2-x,1/2-y,1/2+z
1/2+x,1/2-y,-z
1/2-x,1/2+y,-z
1/2-x,1/2-y,1/2-z
1/2+x,1/2+y,1/2-z
1/2-x,1/2+y,z
1/2+x,1/2-y,z
loop_
_atom_site_type_symbol
_atom_site_label
_atom_site_fract_x
_atom_site_fract_y
_atom_site_fract_z
Si Si1 0.805552 0.304445 0.747310
Si Si2 0.089092 0.814868 0.711838
Si Si3 0.338462 0.010265 0.889345
Si Si4 0.558106 0.456047 0.606999
Si Si5 0.548923 0.079920 0.113241
O O1 0.750000 0.250000 0.750000
O O2 0.852047 0.217332 0.725900
O O3 0.810515 0.405956 0.667449
O O4 0.818985 0.368086 0.845993
O O5 0.066455 0.857710 0.812492
O O6 0.058412 0.702363 0.669563
O O7 0.087156 0.926043 0.640719
O O8 0.399045 0.994441 0.871486
O O9 0.329652 0.000043 0.000000
O O10 0.500000 0.500000 0.608509
O O11 0.571122 0.418343 0.500000
O O12 0.500000 0.000000 0.138599
O O13 0.545187 0.106734 0.000000
#
# Coordination Sequence:
#
# PCOD9527184 Si02
#       5
#    16  16  16  16  16
#     4  10  22  39  57  80 110 144 187 238 282 326
#     4  10  20  37  59  82 112 151 190 232 283 335
#     4   9  20  38  57  83 115 143 179 228 281 337
#     4  10  22  38  56  83 117 151 189 231 275 333
#     4   9  18  34  60  91 119 148 182 225 282 347
#
# _framework density 19.133457
#
# number of rings (size 3 to 8) (size 9 to 14) (size 15 to 20)
#    0.000    2.400    0.000    1.800    0.000    8.800 
#    0.000   13.000    0.000    0.600    0.000    0.000 
#    0.000    0.000    0.000    0.000    0.000    0.000 
#
# Total GULP energy -223396.846753 kJ/mol
# GULP energy per Si atom -5584.921169 kJ/mol
# Density = 1.908991 g / cm^3
# Si number density = 19.133457 Si / 1000 Ang^3
#
#
#
# Elastic Constant Matrix: (Units=GPa)
#
#
# Indices 1 2 3 4 5 6 
#
# 1 141.7321 74.4918 54.8826 0.0000 0.0000 0.0000
# 2 74.4918 88.1619 47.5844 0.0000 0.0000 0.0000
# 3 54.8826 47.5844 128.3618 0.0000 0.0000 0.0000
# 4 0.0000 0.0000 0.0000 9.2728 0.0000 0.0000
# 5 0.0000 0.0000 0.0000 0.0000 10.0011 0.0000
# 6 0.0000 0.0000 0.0000 0.0000 0.0000 24.1552
#
#
#
# Elastic Compliance Matrix: (Units=1/GPa)
#
#
# Indices 1 2 3 4 5 6 
#
# 1 0.013039 -0.010011 -0.001864 0.000000 0.000000 0.000000
# 2 -0.010011 0.021867 -0.003826 0.000000 0.000000 0.000000
# 3 -0.001864 -0.003826 0.010006 0.000000 0.000000 0.000000
# 4 0.000000 0.000000 0.000000 0.107843 0.000000 0.000000
# 5 0.000000 0.000000 0.000000 0.000000 0.099989 0.000000
# 6 0.000000 0.000000 0.000000 0.000000 0.000000 0.041399
#
#
# Mechanical properties :
#
#
# Convention : Reuss Voigt Hill
#
# Bulk Modulus (GPa) = 74.02027 79.13038 76.57532
# Shear Modulus (GPa) = 15.14942 20.77229 17.96085
#
# Velocity S-wave (km/s) = 2.81690 3.29850 3.06717
# Velocity P-wave (km/s) = 7.02497 7.48022 7.25617
#
# Compressibility (1/GPa) = 0.01350981
#
# Stress axis : x y z
#
# Youngs Moduli (GPa) = 76.69299 45.73199 99.94483
#
# Poissons Ratio (x) = 0.45784 0.18627
# Poissons Ratio (y) = 0.76779 0.38235
# Poissons Ratio (z) = 0.14294 0.17495
#
# Static dielectric constant tensor:
#      x y z
#    x 1.635420 0.000000 0.000000 
#    y 0.000000 1.638560 0.000000 
#    z 0.000000 0.000000 1.692880 
# 
# From -- ./inp_files/24894.got.cif
#   From: 2010.05.17/outbox.cif.g08.bks.cpg/sg72_13_cif.got.tgz:24894.got - 2010.06.03 17:03:01.
