data_PCOD9527950
_publ_section_title
;
Structure prediction by ZEFSAII (Michael W. Deem and Ramdas Pophale) SiO2 
 PCOD9527950
Probable space group: I B A M
;
_chemical_formula_sum "Si O2"
_cell_formula_units_Z 108
_cell_length_a 22.387140
_cell_length_b 15.984175
_cell_length_c 13.855341
_cell_angle_alpha 90.000000
_cell_angle_beta 90.000000
_cell_angle_gamma 90.000000
_cell_volume 4957.994718
_symmetry_space_group_name_H-M "I B A M"
_symmetry_group_IT_number 72
_symmetry_cell_setting 'orthorhombic'
loop_
_space_group_symop_operation_xyz
x,y,z
-x,-y,z
x,-y,1/2-z
-x,y,1/2-z
-x,-y,-z
x,y,-z
-x,y,1/2+z
x,-y,1/2+z
1/2+x,1/2+y,1/2+z
1/2-x,1/2-y,1/2+z
1/2+x,1/2-y,-z
1/2-x,1/2+y,-z
1/2-x,1/2-y,1/2-z
1/2+x,1/2+y,1/2-z
1/2-x,1/2+y,z
1/2+x,1/2-y,z
loop_
_atom_site_type_symbol
_atom_site_label
_atom_site_fract_x
_atom_site_fract_y
_atom_site_fract_z
Si Si1 0.117504 0.784689 0.208056
Si Si2 0.839153 0.134204 0.614162
Si Si3 0.815196 0.457311 0.390851
Si Si4 0.000000 0.713499 0.250000
Si Si5 0.393662 0.548947 0.386444
Si Si6 0.955694 0.575771 0.890011
Si Si7 0.500000 0.500000 0.250000
Si Si8 0.788570 0.635737 0.700472
O O1 0.116052 0.812386 0.320665
O O2 0.048927 0.762013 0.187326
O O3 0.137602 0.866155 0.148422
O O4 0.161722 0.707357 0.190406
O O5 0.841521 0.149723 0.500000
O O6 0.775859 0.160494 0.659922
O O7 0.855017 0.035804 0.630606
O O8 0.794525 0.440992 0.500000
O O9 0.886788 0.449888 0.386418
O O10 0.802655 0.552304 0.360414
O O11 0.787983 0.395205 0.311407
O O12 0.036197 0.652493 0.319722
O O13 0.406820 0.551523 0.500000
O O14 0.453807 0.544903 0.322445
O O15 0.000000 0.500000 0.863251
O O16 0.970789 0.598753 0.000000
#
# Coordination Sequence:
#
# PCOD9527950 Si02
#       8
#    16  16  16   8  16  16   4  16
#     4  12  25  44  69 107 141 175 231 288 350 410
#     4  11  26  49  72  97 136 183 233 287 351 418
#     4  10  22  40  66 100 136 181 228 269 332 412
#     4  12  24  40  65  97 144 178 214 289 341 401
#     4  11  26  46  74 104 135 182 233 289 350 417
#     4  10  21  38  63  95 132 180 228 266 328 412
#     4  12  20  48  76 100 144 178 242 284 340 422
#     4  11  24  43  71 104 139 180 227 287 341 408
#
# _framework density 21.782999
#
# number of rings (size 3 to 8) (size 9 to 14) (size 15 to 20)
#    0.000    1.037    2.963    2.667    6.222    2.963 
#    0.000    0.000    0.000    0.000    0.000    0.000 
#    0.000    0.000    0.000    0.000    0.000    0.000 
#
# Total GULP energy -301930.991527 kJ/mol
# GULP energy per Si atom -5591.314658 kJ/mol
# Density = 2.173342 g / cm^3
# Si number density = 21.782999 Si / 1000 Ang^3
#
#
#
# Elastic Constant Matrix: (Units=GPa)
#
#
# Indices 1 2 3 4 5 6 
#
# 1 56.5596 10.3578 12.4483 0.0000 0.0000 0.0000
# 2 10.3578 46.3914 -11.1651 0.0000 0.0000 0.0000
# 3 12.4483 -11.1651 93.0386 0.0000 0.0000 0.0000
# 4 0.0000 0.0000 0.0000 -29.8743 0.0000 0.0000
# 5 0.0000 0.0000 0.0000 0.0000 33.8391 0.0000
# 6 0.0000 0.0000 0.0000 0.0000 0.0000 4.4648
#
#
#
# Elastic Compliance Matrix: (Units=1/GPa)
#
#
# Indices 1 2 3 4 5 6 
#
# 1 0.019314 -0.005081 -0.003194 0.000000 0.000000 0.000000
# 2 -0.005081 0.023533 0.003504 0.000000 0.000000 0.000000
# 3 -0.003194 0.003504 0.011596 0.000000 0.000000 0.000000
# 4 0.000000 0.000000 0.000000 -0.033474 0.000000 0.000000
# 5 0.000000 0.000000 0.000000 0.000000 0.029552 0.000000
# 6 0.000000 0.000000 0.000000 0.000000 0.000000 0.223975
#
#
# Mechanical properties :
#
#
# Convention : Reuss Voigt Hill
#
# Bulk Modulus (GPa) = 22.27085 24.36350 23.31717
# Shear Modulus (GPa) = 16.72213 13.97581 15.34897
#
# Velocity S-wave (km/s) = 2.77369 2.53572 2.65737
# Velocity P-wave (km/s) = 4.52813 4.44770 4.48810
#
# Compressibility (1/GPa) = 0.04490175
#
# Stress axis : x y z
#
# Youngs Moduli (GPa) = 51.77624 42.49274 86.23627
#
# Poissons Ratio (x) = 0.21590 0.27543
# Poissons Ratio (y) = 0.26307 -0.30217
# Poissons Ratio (z) = 0.16537 -0.14889
#
# Static dielectric constant tensor:
#      x y z
#    x 1.891200 0.000000 0.000000 
#    y 0.000000 1.833700 0.000000 
#    z 0.000000 0.000000 1.788550 
# 
# From -- ./inp_files/25234.got.cif
#   From: 2010.05.17/outbox.cif.g08.bks.cpg/sg72_13_cif.got.tgz:25234.got - 2010.06.03 17:03:01.
