data_PCOD9527729
_publ_section_title
;
Structure prediction by ZEFSAII (Michael W. Deem and Ramdas Pophale) SiO2 
 PCOD9527729
Probable space group: I B A M
;
_chemical_formula_sum "Si O2"
_cell_formula_units_Z 80
_cell_length_a 9.065091
_cell_length_b 25.546215
_cell_length_c 18.505868
_cell_angle_alpha 90.000000
_cell_angle_beta 90.000000
_cell_angle_gamma 90.000000
_cell_volume 4285.566032
_symmetry_space_group_name_H-M "I B A M"
_symmetry_group_IT_number 72
_symmetry_cell_setting 'orthorhombic'
loop_
_space_group_symop_operation_xyz
x,y,z
-x,-y,z
x,-y,1/2-z
-x,y,1/2-z
-x,-y,-z
x,y,-z
-x,y,1/2+z
x,-y,1/2+z
1/2+x,1/2+y,1/2+z
1/2-x,1/2-y,1/2+z
1/2+x,1/2-y,-z
1/2-x,1/2+y,-z
1/2-x,1/2-y,1/2-z
1/2+x,1/2+y,1/2-z
1/2-x,1/2+y,z
1/2+x,1/2-y,z
loop_
_atom_site_type_symbol
_atom_site_label
_atom_site_fract_x
_atom_site_fract_y
_atom_site_fract_z
Si Si1 0.101263 0.353756 0.820647
Si Si2 0.580606 0.221247 0.584816
Si Si3 0.319135 0.628848 0.084472
Si Si4 0.540611 0.060699 0.415876
Si Si5 0.072097 0.824910 0.175951
O O1 0.272673 0.350529 0.803963
O O2 0.000000 0.349219 0.750000
O O3 0.053419 0.307542 0.874954
O O4 0.061459 0.406503 0.862746
O O5 0.551889 0.227606 0.500000
O O6 0.718324 0.181253 0.593298
O O7 0.601874 0.276513 0.622807
O O8 0.208150 0.580327 0.099980
O O9 0.458901 0.636057 0.135883
O O10 0.362885 0.625823 0.000000
O O11 0.516102 0.076360 0.500000
O O12 0.500000 0.000000 0.409489
O O13 0.000000 0.804988 0.250000
#
# Coordination Sequence:
#
# PCOD9527729 Si02
#       5
#    16  16  16  16  16
#     4  11  23  38  56  80 111 148 189 226 271 335
#     4  10  21  37  56  79 110 149 188 225 274 336
#     4   9  19  35  55  82 113 142 180 229 277 328
#     4   9  19  39  64  84 105 139 182 226 275 334
#     4  12  23  34  52  80 115 149 183 229 277 321
#
# _framework density 18.667313
#
# number of rings (size 3 to 8) (size 9 to 14) (size 15 to 20)
#    0.000    1.800    0.000    6.600    0.000    7.600 
#    0.000    1.000    0.000    4.800    0.000    0.000 
#    0.000    0.000    0.000    0.000    0.000    0.000 
#
# Total GULP energy -223412.197682 kJ/mol
# GULP energy per Si atom -5585.304942 kJ/mol
# Density = 1.862483 g / cm^3
# Si number density = 18.667313 Si / 1000 Ang^3
#
#
#
# Elastic Constant Matrix: (Units=GPa)
#
#
# Indices 1 2 3 4 5 6 
#
# 1 124.6632 40.9161 66.8473 0.0000 0.0000 0.0000
# 2 40.9161 76.9953 48.4092 0.0000 0.0000 0.0000
# 3 66.8473 48.4092 113.7191 -0.0001 0.0000 0.0000
# 4 0.0000 0.0000 -0.0001 4.5637 0.0000 0.0000
# 5 0.0000 0.0000 0.0000 0.0000 31.7264 0.0000
# 6 0.0000 0.0000 0.0000 0.0000 0.0000 6.2283
#
#
#
# Elastic Compliance Matrix: (Units=1/GPa)
#
#
# Indices 1 2 3 4 5 6 
#
# 1 0.012104 -0.002675 -0.005977 0.000000 0.000000 0.000000
# 2 -0.002675 0.018325 -0.006229 0.000000 0.000000 0.000000
# 3 -0.005977 -0.006229 0.014958 0.000000 0.000000 0.000000
# 4 0.000000 0.000000 0.000000 0.219119 0.000000 0.000000
# 5 0.000000 0.000000 0.000000 0.000000 0.031519 0.000000
# 6 0.000000 0.000000 0.000000 0.000000 0.000000 0.160557
#
#
# Mechanical properties :
#
#
# Convention : Reuss Voigt Hill
#
# Bulk Modulus (GPa) = 63.98794 69.74697 66.86745
# Shear Modulus (GPa) = 10.17186 19.11737 14.64461
#
# Velocity S-wave (km/s) = 2.33685 3.20364 2.80394
# Velocity P-wave (km/s) = 6.45241 7.15043 6.81037
#
# Compressibility (1/GPa) = 0.01562794
#
# Stress axis : x y z
#
# Youngs Moduli (GPa) = 82.61534 54.56942 66.85230
#
# Poissons Ratio (x) = 0.14595 0.39955
# Poissons Ratio (y) = 0.22097 0.41640
# Poissons Ratio (z) = 0.49377 0.33990
#
# Static dielectric constant tensor:
#      x y z
#    x 1.661530 0.000000 0.000000 
#    y 0.000000 1.629850 0.000000 
#    z 0.000000 0.000000 1.644320 
# 
# From -- ./inp_files/28147.got.cif
#   From: 2010.05.17/outbox.cif.g08.bks.cpg/sg72_15_cif.got.tgz:28147.got - 2010.06.03 17:03:01.
