data_PCOD9527578
_publ_section_title
;
Structure prediction by ZEFSAII (Michael W. Deem and Ramdas Pophale) SiO2 
 PCOD9527578
Probable space group: I B A M
;
_chemical_formula_sum "Si O2"
_cell_formula_units_Z 56
_cell_length_a 17.124149
_cell_length_b 17.803034
_cell_length_c 10.453825
_cell_angle_alpha 90.000000
_cell_angle_beta 90.000000
_cell_angle_gamma 90.000000
_cell_volume 3186.971978
_symmetry_space_group_name_H-M "I B A M"
_symmetry_group_IT_number 72
_symmetry_cell_setting 'orthorhombic'
loop_
_space_group_symop_operation_xyz
x,y,z
-x,-y,z
x,-y,1/2-z
-x,y,1/2-z
-x,-y,-z
x,y,-z
-x,y,1/2+z
x,-y,1/2+z
1/2+x,1/2+y,1/2+z
1/2-x,1/2-y,1/2+z
1/2+x,1/2-y,-z
1/2-x,1/2+y,-z
1/2-x,1/2-y,1/2-z
1/2+x,1/2+y,1/2-z
1/2-x,1/2+y,z
1/2+x,1/2-y,z
loop_
_atom_site_type_symbol
_atom_site_label
_atom_site_fract_x
_atom_site_fract_y
_atom_site_fract_z
Si Si1 0.000000 0.811797 0.250000
Si Si2 0.889307 0.936219 0.144828
Si Si3 0.792770 0.564688 0.647207
Si Si4 0.060232 0.335629 0.354643
O O1 0.055300 0.865501 0.331861
O O2 0.052127 0.753844 0.167290
O O3 0.798247 0.913893 0.160438
O O4 0.905893 0.000000 0.250000
O O5 0.899606 0.965167 0.000000
O O6 0.809064 0.500000 0.750000
O O7 0.802984 0.537940 0.500000
O O8 0.853600 0.632112 0.666580
O O9 0.036952 0.353615 0.500000
O O10 0.000000 0.368346 0.250000
#
# Coordination Sequence:
#
# PCOD9527578 Si02
#       4
#     8  16  16  16
#     4  10  21  34  57  76 110 140 178 216 265 318
#     4  10  21  37  58  81 107 141 179 222 267 317
#     4   9  19  37  57  80 108 140 181 222 265 314
#     4   9  20  36  54  79 110 143 178 219 266 317
#
# _framework density 17.571538
#
# number of rings (size 3 to 8) (size 9 to 14) (size 15 to 20)
#    0.857    1.714    0.000    1.286    0.000    6.286 
#    0.000    2.857    0.000    0.000    0.000    0.000 
#    0.000    0.000    0.000    0.000    0.000    0.000 
#
# Total GULP energy -155870.672422 kJ/mol
# GULP energy per Si atom -5566.809729 kJ/mol
# Density = 1.753154 g / cm^3
# Si number density = 17.571538 Si / 1000 Ang^3
#
#
#
# Elastic Constant Matrix: (Units=GPa)
#
#
# Indices 1 2 3 4 5 6 
#
# 1 96.5038 67.2490 65.3720 0.0000 0.0000 0.0000
# 2 67.2490 87.6714 57.4429 0.0000 0.0000 0.0000
# 3 65.3720 57.4429 118.7205 0.0000 0.0000 0.0000
# 4 0.0000 0.0000 0.0000 23.8070 0.0000 0.0000
# 5 0.0000 0.0000 0.0000 0.0000 23.0174 0.0000
# 6 0.0000 0.0000 0.0000 0.0000 0.0000 -2.9663
#
#
#
# Elastic Compliance Matrix: (Units=1/GPa)
#
#
# Indices 1 2 3 4 5 6 
#
# 1 0.025433 -0.015129 -0.006684 0.000000 0.000000 0.000000
# 2 -0.015129 0.025700 -0.004105 0.000000 0.000000 0.000000
# 3 -0.006684 -0.004105 0.014090 0.000000 0.000000 0.000000
# 4 0.000000 0.000000 0.000000 0.042004 0.000000 0.000000
# 5 0.000000 0.000000 0.000000 0.000000 0.043445 0.000000
# 6 0.000000 0.000000 0.000000 0.000000 0.000000 -0.337117
#
#
# Mechanical properties :
#
#
# Convention : Reuss Voigt Hill
#
# Bulk Modulus (GPa) = 74.69612 75.89153 75.29382
# Shear Modulus (GPa) = -38.41806 16.29373 -11.06217
#
# Velocity S-wave (km/s) = -4.68095 3.04843 -2.51181
# Velocity P-wave (km/s) = 3.65882 7.46153 5.87628
#
# Compressibility (1/GPa) = 0.01338758
#
# Stress axis : x y z
#
# Youngs Moduli (GPa) = 39.31932 38.91000 70.97401
#
# Poissons Ratio (x) = 0.58867 0.47440
# Poissons Ratio (y) = 0.59486 0.29132
# Poissons Ratio (z) = 0.26282 0.15971
#
# Static dielectric constant tensor:
#      x y z
#    x 1.597570 0.000000 0.000000 
#    y 0.000000 1.568520 0.000000 
#    z 0.000000 0.000000 1.613960 
# 
# From -- ./inp_files/3248.got.cif
#   From: 2010.05.17/outbox.cif.g08.bks.cpg/sg72_2_cif.got.tgz:3248.got - 2010.06.03 17:03:01.
