data_PCOD9527295
_publ_section_title
;
Structure prediction by ZEFSAII (Michael W. Deem and Ramdas Pophale) SiO2 
 PCOD9527295
Probable space group: I B A M
;
_chemical_formula_sum "Si O2"
_cell_formula_units_Z 104
_cell_length_a 9.364240
_cell_length_b 18.904059
_cell_length_c 30.914307
_cell_angle_alpha 90.000000
_cell_angle_beta 90.000000
_cell_angle_gamma 90.000000
_cell_volume 5472.516950
_symmetry_space_group_name_H-M "I B A M"
_symmetry_group_IT_number 72
_symmetry_cell_setting 'orthorhombic'
loop_
_space_group_symop_operation_xyz
x,y,z
-x,-y,z
x,-y,1/2-z
-x,y,1/2-z
-x,-y,-z
x,y,-z
-x,y,1/2+z
x,-y,1/2+z
1/2+x,1/2+y,1/2+z
1/2-x,1/2-y,1/2+z
1/2+x,1/2-y,-z
1/2-x,1/2+y,-z
1/2-x,1/2-y,1/2-z
1/2+x,1/2+y,1/2-z
1/2-x,1/2+y,z
1/2+x,1/2-y,z
loop_
_atom_site_type_symbol
_atom_site_label
_atom_site_fract_x
_atom_site_fract_y
_atom_site_fract_z
Si Si1 0.831601 0.987052 0.609625
Si Si2 0.334627 0.522813 0.704265
Si Si3 0.500000 0.775838 0.750000
Si Si4 0.730515 0.314862 0.303801
Si Si5 0.509317 0.783440 0.448552
Si Si6 0.384956 0.938546 0.551523
Si Si7 0.701168 0.319135 0.403756
O O1 0.773744 0.002907 0.658272
O O2 0.806743 0.904680 0.597390
O O3 0.756155 0.038843 0.576366
O O4 0.000000 0.000000 0.610105
O O5 0.500000 0.500000 0.705161
O O6 0.267882 0.500000 0.750000
O O7 0.327888 0.606449 0.701107
O O8 0.386690 0.732329 0.720939
O O9 0.388426 0.813509 0.782532
O O10 0.733993 0.296240 0.354443
O O11 0.495724 0.771272 0.500000
O O12 0.435875 0.859299 0.437811
O O13 0.438943 0.719890 0.421632
O O14 0.672659 0.793787 0.434999
O O15 0.364984 0.941555 0.500000
O O16 0.500000 0.000000 0.562878
#
# Coordination Sequence:
#
# PCOD9527295 Si02
#       7
#    16  16   8  16  16  16  16
#     4  10  22  39  62  92 121 160 206 255 304 366
#     4   9  18  37  59  85 117 156 199 243 300 358
#     4  10  20  38  58  86 120 154 204 240 296 362
#     4  10  21  38  61  87 119 161 199 248 305 361
#     4  11  24  41  63  89 121 163 206 255 315 374
#     4  10  21  41  62  84 117 161 202 247 313 372
#     4  11  23  41  61  90 127 157 208 255 309 372
#
# _framework density 19.004052999999999
#
# number of rings (size 3 to 8) (size 9 to 14) (size 15 to 20)
#    0.000    1.846    1.538    2.308    2.154    0.923 
#   11.077    0.385    0.000    0.000    0.000    0.000 
#    0.000    0.000    0.000    0.000    0.000    0.000 
#
# Total GULP energy -289963.934326 kJ/mol
# GULP energy per Si atom -5576.229506 kJ/mol
# Density = 1.896080 g / cm^3
# Si number density = 19.004053 Si / 1000 Ang^3
#
#
#
# Elastic Constant Matrix: (Units=GPa)
#
#
# Indices 1 2 3 4 5 6 
#
# 1 72.9817 4.9251 11.3257 0.0000 0.0000 0.0000
# 2 4.9251 27.3129 12.7909 0.0000 0.0000 0.0000
# 3 11.3257 12.7909 43.8089 0.0000 0.0000 0.0000
# 4 0.0000 0.0000 0.0000 19.4674 0.0000 0.0000
# 5 0.0000 0.0000 0.0000 0.0000 165.2315 0.0000
# 6 0.0000 0.0000 0.0000 0.0000 0.0000 -568.8279
#
#
#
# Elastic Compliance Matrix: (Units=1/GPa)
#
#
# Indices 1 2 3 4 5 6 
#
# 1 0.014297 -0.000981 -0.003410 0.000000 0.000000 0.000000
# 2 -0.000981 0.042479 -0.012149 0.000000 0.000000 0.000000
# 3 -0.003410 -0.012149 0.027255 0.000000 0.000000 0.000000
# 4 0.000000 0.000000 0.000000 0.051368 0.000000 0.000000
# 5 0.000000 0.000000 0.000000 0.000000 0.006052 0.000000
# 6 0.000000 0.000000 0.000000 0.000000 0.000000 -0.001758
#
#
# Mechanical properties :
#
#
# Convention : Reuss Voigt Hill
#
# Bulk Modulus (GPa) = 19.62644 22.46519 21.04581
# Shear Modulus (GPa) = 26.34942 -69.15503 -21.40281
#
# Velocity S-wave (km/s) = 3.72763 -6.03893 -3.35957
# Velocity P-wave (km/s) = 5.37373 6.06448 1.98758
#
# Compressibility (1/GPa) = 0.05095169
#
# Stress axis : x y z
#
# Youngs Moduli (GPa) = 69.94259 23.54095 36.69044
#
# Poissons Ratio (x) = 0.02310 0.12510
# Poissons Ratio (y) = 0.06864 0.44575
# Poissons Ratio (z) = 0.23849 0.28600
#
# Static dielectric constant tensor:
#      x y z
#    x 1.660890 0.000000 0.000000 
#    y 0.000000 1.639740 0.000000 
#    z 0.000000 0.000000 1.692360 
# 
# From -- ./inp_files/47425.got.cif
#   From: 2010.05.17/outbox.cif.g08.bks.cpg/sg72_24_cif.got.tgz:47425.got - 2010.06.03 17:03:01.
