data_PCOD9527781
_publ_section_title
;
Structure prediction by ZEFSAII (Michael W. Deem and Ramdas Pophale) SiO2 
 PCOD9527781
Probable space group: I B A M
;
_chemical_formula_sum "Si O2"
_cell_formula_units_Z 96
_cell_length_a 27.021586
_cell_length_b 14.415641
_cell_length_c 13.874165
_cell_angle_alpha 90.000000
_cell_angle_beta 90.000000
_cell_angle_gamma 90.000000
_cell_volume 5404.451817
_symmetry_space_group_name_H-M "I B A M"
_symmetry_group_IT_number 72
_symmetry_cell_setting 'orthorhombic'
loop_
_space_group_symop_operation_xyz
x,y,z
-x,-y,z
x,-y,1/2-z
-x,y,1/2-z
-x,-y,-z
x,y,-z
-x,y,1/2+z
x,-y,1/2+z
1/2+x,1/2+y,1/2+z
1/2-x,1/2-y,1/2+z
1/2+x,1/2-y,-z
1/2-x,1/2+y,-z
1/2-x,1/2-y,1/2-z
1/2+x,1/2+y,1/2-z
1/2-x,1/2+y,z
1/2+x,1/2-y,z
loop_
_atom_site_type_symbol
_atom_site_label
_atom_site_fract_x
_atom_site_fract_y
_atom_site_fract_z
Si Si1 0.818038 0.065484 0.500000
Si Si2 0.837249 0.232798 0.000000
Si Si3 0.687265 0.100115 0.795342
Si Si4 0.054120 0.907359 0.204928
Si Si5 0.242831 0.609341 0.500000
Si Si6 0.588561 0.443572 0.500000
Si Si7 0.634102 0.253588 0.294855
Si Si8 0.789628 0.893911 0.788461
O O1 0.806153 0.115007 0.600904
O O2 0.780567 0.977663 0.500000
O O3 0.875174 0.032284 0.500000
O O4 0.854472 0.282890 0.097576
O O5 0.779944 0.198695 0.000000
O O6 0.871518 0.140213 0.000000
O O7 0.709551 0.101227 0.903466
O O8 0.643074 0.171972 0.780580
O O9 0.733210 0.134519 0.729081
O O10 0.674860 0.000000 0.750000
O O11 0.084083 0.812131 0.216628
O O12 0.000000 0.899592 0.250000
O O13 0.079402 0.000000 0.250000
O O14 0.055062 0.932049 0.092933
O O15 0.675515 0.331927 0.276885
O O16 0.793113 0.000000 0.750000
#
# Coordination Sequence:
#
# PCOD9527781 Si02
#       8
#     8   8  16  16   8   8  16  16
#     4  11  18  30  54  75 111 148 181 217 262 330
#     4   9  18  30  56  73 103 139 178 222 258 322
#     4  11  23  35  50  73 110 148 185 224 264 317
#     4  10  21  37  59  82 107 138 176 228 284 340
#     4  11  18  34  49  75 109 145 184 222 260 307
#     4   9  18  33  51  83 107 143 174 214 271 327
#     4  11  21  36  53  79 107 141 184 225 273 326
#     4  11  19  31  50  76 104 143 177 216 263 317
#
# _framework density 17.763134000000001
#
# number of rings (size 3 to 8) (size 9 to 14) (size 15 to 20)
#    0.000    1.500    5.000    4.000    0.000    3.333 
#    0.000    2.500    0.000    0.500    0.000    0.000 
#    0.000    5.333    0.000    0.000    0.000    0.000 
#
# Total GULP energy -267744.124282 kJ/mol
# GULP energy per Si atom -5578.002589 kJ/mol
# Density = 1.772270 g / cm^3
# Si number density = 17.763134 Si / 1000 Ang^3
#
#
#
# Elastic Constant Matrix: (Units=GPa)
#
#
# Indices 1 2 3 4 5 6 
#
# 1 72.1186 34.9597 51.4287 0.0000 0.0000 0.0000
# 2 34.9597 46.9431 20.7638 0.0000 0.0000 0.0000
# 3 51.4287 20.7638 130.1071 0.0000 0.0000 0.0000
# 4 0.0000 0.0000 0.0000 15.0673 0.0000 0.0000
# 5 0.0000 0.0000 0.0000 0.0000 19.5190 0.0000
# 6 0.0000 0.0000 0.0000 0.0000 0.0000 19.5322
#
#
#
# Elastic Compliance Matrix: (Units=1/GPa)
#
#
# Indices 1 2 3 4 5 6 
#
# 1 0.028260 -0.017328 -0.008405 0.000000 0.000000 0.000000
# 2 -0.017328 0.033545 0.001496 0.000000 0.000000 0.000000
# 3 -0.008405 0.001496 0.010770 0.000000 0.000000 0.000000
# 4 0.000000 0.000000 0.000000 0.066369 0.000000 0.000000
# 5 0.000000 0.000000 0.000000 0.000000 0.051232 0.000000
# 6 0.000000 0.000000 0.000000 0.000000 0.000000 0.051197
#
#
# Mechanical properties :
#
#
# Convention : Reuss Voigt Hill
#
# Bulk Modulus (GPa) = 41.49337 51.49701 46.49519
# Shear Modulus (GPa) = 16.78526 20.29148 18.53837
#
# Velocity S-wave (km/s) = 3.07734 3.38351 3.23405
# Velocity P-wave (km/s) = 6.00305 6.65718 6.33856
#
# Compressibility (1/GPa) = 0.02410024
#
# Stress axis : x y z
#
# Youngs Moduli (GPa) = 35.38625 29.81053 92.85389
#
# Poissons Ratio (x) = 0.51655 0.78044
# Poissons Ratio (y) = 0.61317 -0.13890
# Poissons Ratio (z) = 0.29742 -0.04459
#
# Static dielectric constant tensor:
#      x y z
#    x 1.597960 0.000000 0.000000 
#    y 0.000000 1.637230 0.000000 
#    z 0.000000 0.000000 1.674340 
# 
# From -- ./inp_files/16887.got.cif
#   From: 2010.05.17/outbox.cif.g08.bks.cpg/sg72_9_cif.got.tgz:16887.got - 2010.06.03 17:03:01.
