data_PCOD9527742
_publ_section_title
;
Structure prediction by ZEFSAII (Michael W. Deem and Ramdas Pophale) SiO2 
 PCOD9527742
Probable space group: I B A M
;
_chemical_formula_sum "Si O2"
_cell_formula_units_Z 64
_cell_length_a 5.244976
_cell_length_b 14.018822
_cell_length_c 37.785401
_cell_angle_alpha 90.000000
_cell_angle_beta 90.000000
_cell_angle_gamma 90.000000
_cell_volume 2778.299510
_symmetry_space_group_name_H-M "I B A M"
_symmetry_group_IT_number 72
_symmetry_cell_setting 'orthorhombic'
loop_
_space_group_symop_operation_xyz
x,y,z
-x,-y,z
x,-y,1/2-z
-x,y,1/2-z
-x,-y,-z
x,y,-z
-x,y,1/2+z
x,-y,1/2+z
1/2+x,1/2+y,1/2+z
1/2-x,1/2-y,1/2+z
1/2+x,1/2-y,-z
1/2-x,1/2+y,-z
1/2-x,1/2-y,1/2-z
1/2+x,1/2+y,1/2-z
1/2-x,1/2+y,z
1/2+x,1/2-y,z
loop_
_atom_site_type_symbol
_atom_site_label
_atom_site_fract_x
_atom_site_fract_y
_atom_site_fract_z
Si Si1 0.048650 0.185355 0.539459
Si Si2 0.693700 0.893651 0.859855
Si Si3 0.996184 0.314235 0.710335
Si Si4 0.696373 0.393218 0.388348
O O1 0.069414 0.142324 0.500000
O O2 0.274051 0.264114 0.542079
O O3 0.096652 0.114504 0.571903
O O4 0.574235 0.885378 0.820998
O O5 0.477452 0.848775 0.884979
O O6 0.975293 0.850004 0.863526
O O7 0.749143 0.000253 0.874018
O O8 0.217813 0.233569 0.707513
O O9 0.000000 0.356252 0.750000
#
# Coordination Sequence:
#
# PCOD9527742 Si02
#       4
#    16  16  16  16
#     4  10  21  37  58  85 117 153 194 242 294 348
#     4  10  21  37  56  83 117 151 192 237 289 350
#     4  10  21  37  59  86 115 149 189 237 292 348
#     4  10  21  37  56  84 117 153 195 237 289 349
#
# _framework density 23.035671000000001
#
# number of rings (size 3 to 8) (size 9 to 14) (size 15 to 20)
#    0.000    2.000    0.000    3.000    0.000    6.000 
#    0.000    7.500    0.000    6.000    0.000    0.000 
#    0.000    0.000    0.000    0.000    0.000    0.000 
#
# Total GULP energy -178543.496382 kJ/mol
# GULP energy per Si atom -5579.484262 kJ/mol
# Density = 2.298324 g / cm^3
# Si number density = 23.035671 Si / 1000 Ang^3
#
#
#
# Elastic Constant Matrix: (Units=GPa)
#
#
# Indices 1 2 3 4 5 6 
#
# 1 174.8330 -10.6998 20.2086 0.0000 0.0000 0.0000
# 2 -10.6998 73.8754 38.0124 0.0000 0.0000 0.0000
# 3 20.2086 38.0124 214.0578 0.0000 0.0000 0.0000
# 4 0.0000 0.0000 0.0000 37.6310 0.0000 0.0000
# 5 0.0000 0.0000 0.0000 0.0000 39.9506 0.0000
# 6 0.0000 0.0000 0.0000 0.0000 0.0000 16.7975
#
#
#
# Elastic Compliance Matrix: (Units=1/GPa)
#
#
# Indices 1 2 3 4 5 6 
#
# 1 0.005886 0.001253 -0.000778 0.000000 0.000000 0.000000
# 2 0.001253 0.015164 -0.002811 0.000000 0.000000 0.000000
# 3 -0.000778 -0.002811 0.005244 0.000000 0.000000 0.000000
# 4 0.000000 0.000000 0.000000 0.026574 0.000000 0.000000
# 5 0.000000 0.000000 0.000000 0.000000 0.025031 0.000000
# 6 0.000000 0.000000 0.000000 0.000000 0.000000 0.059533
#
#
# Mechanical properties :
#
#
# Convention : Reuss Voigt Hill
#
# Bulk Modulus (GPa) = 46.24888 61.97876 54.11382
# Shear Modulus (GPa) = 33.48677 46.55880 40.02279
#
# Velocity S-wave (km/s) = 3.81687 4.50061 4.17277
# Velocity P-wave (km/s) = 6.28850 7.34652 6.83800
#
# Compressibility (1/GPa) = 0.02162215
#
# Stress axis : x y z
#
# Youngs Moduli (GPa) = 169.88374 65.94456 190.68274
#
# Poissons Ratio (x) = -0.08263 0.14839
# Poissons Ratio (y) = -0.21286 0.53604
# Poissons Ratio (z) = 0.13221 0.18538
#
# Static dielectric constant tensor:
#      x y z
#    x 2.004960 0.000000 0.000000 
#    y 0.000000 2.292300 0.000000 
#    z 0.000000 0.000000 1.881310 
# 
# From -- ./inp_files/50148.got.cif
#   From: 2010.05.17/outbox.cif.g08.bks.cpg/sg72_26_cif.got.tgz:50148.got - 2010.06.03 17:03:01.
