data_PCOD9527032
_publ_section_title
;
Structure prediction by ZEFSAII (Michael W. Deem and Ramdas Pophale) SiO2 
 PCOD9527032
Probable space group: I B A M
;
_chemical_formula_sum "Si O2"
_cell_formula_units_Z 116
_cell_length_a 25.951174
_cell_length_b 8.865529
_cell_length_c 23.519258
_cell_angle_alpha 90.000000
_cell_angle_beta 90.000000
_cell_angle_gamma 90.000000
_cell_volume 5411.096519
_symmetry_space_group_name_H-M "I B A M"
_symmetry_group_IT_number 72
_symmetry_cell_setting 'orthorhombic'
loop_
_space_group_symop_operation_xyz
x,y,z
-x,-y,z
x,-y,1/2-z
-x,y,1/2-z
-x,-y,-z
x,y,-z
-x,y,1/2+z
x,-y,1/2+z
1/2+x,1/2+y,1/2+z
1/2-x,1/2-y,1/2+z
1/2+x,1/2-y,-z
1/2-x,1/2+y,-z
1/2-x,1/2-y,1/2-z
1/2+x,1/2+y,1/2-z
1/2-x,1/2+y,z
1/2+x,1/2-y,z
loop_
_atom_site_type_symbol
_atom_site_label
_atom_site_fract_x
_atom_site_fract_y
_atom_site_fract_z
Si Si1 0.759663 0.722731 0.140450
Si Si2 0.542416 0.124264 0.066332
Si Si3 0.232326 0.466689 0.437470
Si Si4 0.650586 0.169244 0.773095
Si Si5 0.882186 0.643704 0.438258
Si Si6 0.425885 0.659875 0.839898
Si Si7 0.500000 0.500000 0.250000
Si Si8 0.639815 0.643576 0.839354
O O1 0.779630 0.631446 0.085593
O O2 0.760368 0.890652 0.115931
O O3 0.795544 0.702492 0.195031
O O4 0.700970 0.670800 0.151046
O O5 0.546613 0.274900 0.103848
O O6 0.500000 0.000000 0.085575
O O7 0.593773 0.021606 0.068400
O O8 0.532216 0.160083 0.000000
O O9 0.257181 0.468921 0.500000
O O10 0.179120 0.377185 0.441731
O O11 0.605780 0.195208 0.818255
O O12 0.635573 0.286854 0.723610
O O13 0.652640 0.000000 0.750000
O O14 0.900393 0.703215 0.500000
O O15 0.890491 0.752740 0.385104
O O16 0.465623 0.601473 0.792357
O O17 0.384239 0.523093 0.845810
#
# Coordination Sequence:
#
# PCOD9527032 Si02
#       8
#    16  16  16  16  16  16   4  16
#     4  11  22  37  61  93 126 174 218 272 336 399
#     4  10  23  44  71 101 128 167 226 284 343 413
#     4  10  20  36  57  85 124 167 215 268 326 398
#     4  12  24  42  64  92 130 177 229 276 336 408
#     4   9  20  40  63  90 126 166 214 273 330 395
#     4  12  26  45  69  96 138 174 224 283 344 409
#     4  12  28  48  64  96 132 176 214 278 336 406
#     4  11  23  41  63  94 134 172 222 275 338 410
#
# _framework density 21.437429000000002
#
# number of rings (size 3 to 8) (size 9 to 14) (size 15 to 20)
#    0.000    1.241    1.379    4.966    1.931    3.310 
#    0.000    3.793    0.000    0.000    0.000    0.000 
#    0.000    0.000    0.000    0.000    0.000    0.000 
#
# Total GULP energy -323462.620790 kJ/mol
# GULP energy per Si atom -5576.941738 kJ/mol
# Density = 2.138864 g / cm^3
# Si number density = 21.437429 Si / 1000 Ang^3
#
#
#
# Elastic Constant Matrix: (Units=GPa)
#
#
# Indices 1 2 3 4 5 6 
#
# 1 63.0251 18.0221 37.5236 0.0000 0.0000 0.0000
# 2 18.0221 68.4085 41.0284 0.0000 0.0000 0.0000
# 3 37.5236 41.0284 110.9422 0.0000 0.0000 0.0000
# 4 0.0000 0.0000 0.0000 32.4319 0.0000 0.0000
# 5 0.0000 0.0000 0.0000 0.0000 7.5539 0.0000
# 6 0.0000 0.0000 0.0000 0.0000 0.0000 22.4534
#
#
#
# Elastic Compliance Matrix: (Units=1/GPa)
#
#
# Indices 1 2 3 4 5 6 
#
# 1 0.019996 -0.001557 -0.006187 0.000000 0.000000 0.000000
# 2 -0.001557 0.018906 -0.006465 0.000000 0.000000 0.000000
# 3 -0.006187 -0.006465 0.013497 0.000000 0.000000 0.000000
# 4 0.000000 0.000000 0.000000 0.030834 0.000000 0.000000
# 5 0.000000 0.000000 0.000000 0.000000 0.132382 0.000000
# 6 0.000000 0.000000 0.000000 0.000000 0.000000 0.044537
#
#
# Mechanical properties :
#
#
# Convention : Reuss Voigt Hill
#
# Bulk Modulus (GPa) = 41.70129 48.39154 45.04642
# Shear Modulus (GPa) = 16.85984 22.20795 19.53389
#
# Velocity S-wave (km/s) = 2.80745 3.22210 3.02189
# Velocity P-wave (km/s) = 5.47757 6.03862 5.76493
#
# Compressibility (1/GPa) = 0.02398007
#
# Stress axis : x y z
#
# Youngs Moduli (GPa) = 50.01092 52.89409 74.08893
#
# Poissons Ratio (x) = 0.08235 0.45841
# Poissons Ratio (y) = 0.07786 0.47899
# Poissons Ratio (z) = 0.30943 0.34196
#
# Static dielectric constant tensor:
#      x y z
#    x 1.826350 0.000000 0.000000 
#    y 0.000000 1.825370 0.000000 
#    z 0.000000 0.000000 1.837380 
# 
# From -- ./inp_files/46010.got.cif
#   From: 2010.05.17/outbox.cif.g08.bks.cpg/sg72_24_cif.got.tgz:46010.got - 2010.06.03 17:03:01.
