data_PCOD9527740
_publ_section_title
;
Structure prediction by ZEFSAII (Michael W. Deem and Ramdas Pophale) SiO2 
 PCOD9527740
Probable space group: I B A M
;
_chemical_formula_sum "Si O2"
_cell_formula_units_Z 80
_cell_length_a 5.109320
_cell_length_b 24.628365
_cell_length_c 26.439561
_cell_angle_alpha 90.000000
_cell_angle_beta 90.000000
_cell_angle_gamma 90.000000
_cell_volume 3327.000950
_symmetry_space_group_name_H-M "I B A M"
_symmetry_group_IT_number 72
_symmetry_cell_setting 'orthorhombic'
loop_
_space_group_symop_operation_xyz
x,y,z
-x,-y,z
x,-y,1/2-z
-x,y,1/2-z
-x,-y,-z
x,y,-z
-x,y,1/2+z
x,-y,1/2+z
1/2+x,1/2+y,1/2+z
1/2-x,1/2-y,1/2+z
1/2+x,1/2-y,-z
1/2-x,1/2+y,-z
1/2-x,1/2-y,1/2-z
1/2+x,1/2+y,1/2-z
1/2-x,1/2+y,z
1/2+x,1/2-y,z
loop_
_atom_site_type_symbol
_atom_site_label
_atom_site_fract_x
_atom_site_fract_y
_atom_site_fract_z
Si Si1 0.250798 0.538489 0.053860
Si Si2 0.282418 0.271616 0.806528
Si Si3 0.461716 0.626366 0.847220
Si Si4 0.541692 0.710980 0.558538
Si Si5 0.999494 0.564094 0.844790
O O1 0.500000 0.500000 0.061573
O O2 0.171960 0.570931 0.103171
O O3 0.000000 0.500000 0.049585
O O4 0.284686 0.567160 0.000000
O O5 0.250000 0.250000 0.750000
O O6 0.498168 0.231950 0.831137
O O7 0.405672 0.329853 0.809887
O O8 0.446929 0.663377 0.899176
O O9 0.205075 0.603172 0.816755
O O10 0.702314 0.582835 0.852405
O O11 0.548617 0.690128 0.500000
O O12 0.777617 0.753870 0.563556
O O13 0.000000 0.500000 0.831228
#
# Coordination Sequence:
#
# PCOD9527740 Si02
#       5
#    16  16  16  16  16
#     4   9  17  31  49  68 100 151 206 259 298 317
#     4  10  21  39  64  96 124 144 182 250 318 377
#     4  12  22  36  61  87 119 164 205 245 309 367
#     4  10  21  37  56  82 119 159 203 257 313 373
#     4  11  23  37  53  82 122 163 210 254 290 349
#
# _framework density 24.045677999999999
#
# number of rings (size 3 to 8) (size 9 to 14) (size 15 to 20)
#    0.000    1.600    0.000    6.600    0.000    1.600 
#    0.000    0.000    0.000    0.000    0.000   42.000 
#    0.000    0.000    0.000    0.000    0.000    0.000 
#
# Total GULP energy -222896.123027 kJ/mol
# GULP energy per Si atom -5572.403076 kJ/mol
# Density = 2.399095 g / cm^3
# Si number density = 24.045678 Si / 1000 Ang^3
#
#
#
# Elastic Constant Matrix: (Units=GPa)
#
#
# Indices 1 2 3 4 5 6 
#
# 1 187.1142 46.9913 -10.2341 0.0000 0.0000 0.0000
# 2 46.9913 129.5584 0.7040 0.0000 0.0000 0.0000
# 3 -10.2341 0.7040 53.9307 0.0000 0.0000 0.0000
# 4 0.0000 0.0000 0.0000 -2.9489 0.0000 0.0000
# 5 0.0000 0.0000 0.0000 0.0000 19.7314 0.0000
# 6 0.0000 0.0000 0.0000 0.0000 0.0000 50.7580
#
#
#
# Elastic Compliance Matrix: (Units=1/GPa)
#
#
# Indices 1 2 3 4 5 6 
#
# 1 0.005951 -0.002165 0.001158 0.000000 0.000000 0.000000
# 2 -0.002165 0.008507 -0.000522 0.000000 0.000000 0.000000
# 3 0.001158 -0.000522 0.018769 0.000000 0.000000 0.000000
# 4 0.000000 0.000000 0.000000 -0.339106 0.000000 0.000000
# 5 0.000000 0.000000 0.000000 0.000000 0.050681 0.000000
# 6 0.000000 0.000000 0.000000 0.000000 0.000000 0.019701
#
#
# Mechanical properties :
#
#
# Convention : Reuss Voigt Hill
#
# Bulk Modulus (GPa) = 33.14720 49.50285 41.32503
# Shear Modulus (GPa) = -22.48378 35.71756 6.61689
#
# Velocity S-wave (km/s) = -3.06117 3.85828 1.66065
# Velocity P-wave (km/s) = 1.14921 6.36240 4.57169
#
# Compressibility (1/GPa) = 0.03016846
#
# Stress axis : x y z
#
# Youngs Moduli (GPa) = 168.02992 117.55628 53.27995
#
# Poissons Ratio (x) = 0.25449 -0.06168
# Poissons Ratio (y) = 0.36376 0.02780
# Poissons Ratio (z) = -0.19451 0.06135
#
# Static dielectric constant tensor:
#      x y z
#    x 2.030090 0.000000 0.000000 
#    y 0.000000 2.016420 0.000000 
#    z 0.000000 0.000000 -2.574850 
# 
# From -- ./inp_files/50271.got.cif
#   From: 2010.05.17/outbox.cif.g08.bks.cpg/sg72_26_cif.got.tgz:50271.got - 2010.06.03 17:03:01.
