data_PCOD9527886
_publ_section_title
;
Structure prediction by ZEFSAII (Michael W. Deem and Ramdas Pophale) SiO2 
 PCOD9527886
Probable space group: I B A M
;
_chemical_formula_sum "Si O2"
_cell_formula_units_Z 52
_cell_length_a 5.178475
_cell_length_b 23.242757
_cell_length_c 21.319776
_cell_angle_alpha 90.000000
_cell_angle_beta 90.000000
_cell_angle_gamma 90.000000
_cell_volume 2566.091648
_symmetry_space_group_name_H-M "I B A M"
_symmetry_group_IT_number 72
_symmetry_cell_setting 'orthorhombic'
loop_
_space_group_symop_operation_xyz
x,y,z
-x,-y,z
x,-y,1/2-z
-x,y,1/2-z
-x,-y,-z
x,y,-z
-x,y,1/2+z
x,-y,1/2+z
1/2+x,1/2+y,1/2+z
1/2-x,1/2-y,1/2+z
1/2+x,1/2-y,-z
1/2-x,1/2+y,-z
1/2-x,1/2-y,1/2-z
1/2+x,1/2+y,1/2-z
1/2-x,1/2+y,z
1/2+x,1/2-y,z
loop_
_atom_site_type_symbol
_atom_site_label
_atom_site_fract_x
_atom_site_fract_y
_atom_site_fract_z
Si Si1 0.000000 0.500000 0.750000
Si Si2 0.498222 0.780314 0.324435
Si Si3 0.121536 0.935919 0.928138
Si Si4 0.364784 0.910768 0.352484
O O1 0.156643 0.543280 0.795583
O O2 0.500000 0.768537 0.250000
O O3 0.763794 0.756726 0.351731
O O4 0.455507 0.847959 0.331350
O O5 0.909233 0.903361 0.886556
O O6 0.405001 0.933502 0.897667
O O7 0.134368 0.915879 0.000000
O O8 0.000000 0.000000 0.928470
#
# Coordination Sequence:
#
# PCOD9527886 Si02
#       4
#     4  16  16  16
#     4  12  24  38  58 106 124 158 180 250 332 354
#     4  10  21  38  59  86 119 163 201 236 295 364
#     4  11  23  40  61  88 122 167 204 237 296 365
#     4  12  23  40  63  91 131 151 196 259 296 366
#
# _framework density 20.264279999999999
#
# number of rings (size 3 to 8) (size 9 to 14) (size 15 to 20)
#    0.000    0.923    4.615    2.769    0.000    4.923 
#    0.000    0.000    0.000   18.462    0.000    0.000 
#    0.000    0.000    0.000    0.000    0.000    0.000 
#
# Total GULP energy -145176.054774 kJ/mol
# GULP energy per Si atom -5583.694414 kJ/mol
# Density = 2.021816 g / cm^3
# Si number density = 20.264280 Si / 1000 Ang^3
#
#
#
# Elastic Constant Matrix: (Units=GPa)
#
#
# Indices 1 2 3 4 5 6 
#
# 1 100.8767 32.0357 45.7237 0.0000 0.0000 0.0000
# 2 32.0357 96.1735 2.2235 0.0000 0.0000 0.0000
# 3 45.7237 2.2235 77.6812 0.0000 0.0000 0.0000
# 4 0.0000 0.0000 0.0000 5.5122 0.0000 0.0000
# 5 0.0000 0.0000 0.0000 0.0000 9.7818 0.0000
# 6 0.0000 0.0000 0.0000 0.0000 0.0000 34.7489
#
#
#
# Elastic Compliance Matrix: (Units=1/GPa)
#
#
# Indices 1 2 3 4 5 6 
#
# 1 0.015591 -0.004985 -0.009034 0.000000 0.000000 0.000000
# 2 -0.004985 0.011998 0.002590 0.000000 0.000000 0.000000
# 3 -0.009034 0.002590 0.018117 0.000000 0.000000 0.000000
# 4 0.000000 0.000000 0.000000 0.181417 0.000000 0.000000
# 5 0.000000 0.000000 0.000000 0.000000 0.102231 0.000000
# 6 0.000000 0.000000 0.000000 0.000000 0.000000 0.028778
#
#
# Mechanical properties :
#
#
# Convention : Reuss Voigt Hill
#
# Bulk Modulus (GPa) = 43.76502 48.29970 46.03236
# Shear Modulus (GPa) = 12.86656 22.99182 17.92919
#
# Velocity S-wave (km/s) = 2.52253 3.37203 2.97773
# Velocity P-wave (km/s) = 5.48892 6.24880 5.88114
#
# Compressibility (1/GPa) = 0.02284930
#
# Stress axis : x y z
#
# Youngs Moduli (GPa) = 64.13987 83.34486 55.19799
#
# Poissons Ratio (x) = 0.41543 0.49867
# Poissons Ratio (y) = 0.31971 -0.14299
# Poissons Ratio (z) = 0.57946 -0.21590
#
# Static dielectric constant tensor:
#      x y z
#    x 1.756150 0.000000 0.000000 
#    y 0.000000 1.714070 0.000000 
#    z 0.000000 0.000000 1.721030 
# 
# From -- ./inp_files/26857.got.cif
#   From: 2010.05.17/outbox.cif.g08.bks.cpg/sg72_14_cif.got.tgz:26857.got - 2010.06.03 17:03:01.
