data_PCOD9527631
_publ_section_title
;
Structure prediction by ZEFSAII (Michael W. Deem and Ramdas Pophale) SiO2 
 PCOD9527631
Probable space group: I B A M
;
_chemical_formula_sum "Si O2"
_cell_formula_units_Z 72
_cell_length_a 8.693792
_cell_length_b 18.509285
_cell_length_c 20.839784
_cell_angle_alpha 90.000000
_cell_angle_beta 90.000000
_cell_angle_gamma 90.000000
_cell_volume 3353.452053
_symmetry_space_group_name_H-M "I B A M"
_symmetry_group_IT_number 72
_symmetry_cell_setting 'orthorhombic'
loop_
_space_group_symop_operation_xyz
x,y,z
-x,-y,z
x,-y,1/2-z
-x,y,1/2-z
-x,-y,-z
x,y,-z
-x,y,1/2+z
x,-y,1/2+z
1/2+x,1/2+y,1/2+z
1/2-x,1/2-y,1/2+z
1/2+x,1/2-y,-z
1/2-x,1/2+y,-z
1/2-x,1/2-y,1/2-z
1/2+x,1/2+y,1/2-z
1/2-x,1/2+y,z
1/2+x,1/2-y,z
loop_
_atom_site_type_symbol
_atom_site_label
_atom_site_fract_x
_atom_site_fract_y
_atom_site_fract_z
Si Si1 0.147622 0.906246 0.000000
Si Si2 0.567863 0.721875 0.500000
Si Si3 0.998899 0.389849 0.000000
Si Si4 0.868916 0.219152 0.800890
Si Si5 0.514884 0.420773 0.359833
Si Si6 0.213349 0.344275 0.393133
O O1 0.069143 0.931727 0.066029
O O2 0.092724 0.822005 0.000000
O O3 0.330204 0.923097 0.000000
O O4 0.532344 0.804741 0.500000
O O5 0.672091 0.699191 0.440203
O O6 0.894353 0.396851 0.063936
O O7 0.750000 0.250000 0.750000
O O8 0.865453 0.140648 0.834788
O O9 0.880541 0.283837 0.853324
O O10 0.000000 0.208017 0.750000
O O11 0.500000 0.500000 0.329789
O O12 0.341725 0.388725 0.354427
#
# Coordination Sequence:
#
# PCOD9527631 Si02
#       6
#     8   8   8  16  16  16
#     4  10  21  35  64  97 128 174 211 270 332 400
#     4   9  17  32  58  91 129 169 212 261 324 399
#     4  11  19  31  63  94 135 161 214 271 334 377
#     4  12  25  42  66  95 127 169 225 277 320 380
#     4  11  24  45  68  93 133 176 220 261 334 408
#     4  10  21  39  60  97 128 169 216 270 326 390
#
# _framework density 21.470412
#
# number of rings (size 3 to 8) (size 9 to 14) (size 15 to 20)
#    0.000    1.333    2.222    6.333    3.111    0.444 
#    0.000    2.222    0.000    1.333    0.000    0.000 
#    0.000    0.000    0.000    0.000    0.000    0.000 
#
# Total GULP energy -200423.143387 kJ/mol
# GULP energy per Si atom -5567.309539 kJ/mol
# Density = 2.142154 g / cm^3
# Si number density = 21.470412 Si / 1000 Ang^3
#
#
#
# Elastic Constant Matrix: (Units=GPa)
#
#
# Indices 1 2 3 4 5 6 
#
# 1 52.3229 18.4496 24.5706 0.0000 0.0000 0.0000
# 2 18.4496 120.3725 38.2420 0.0000 0.0000 0.0000
# 3 24.5706 38.2420 96.5408 0.0000 0.0000 0.0000
# 4 0.0000 0.0000 0.0000 0.6010 0.0000 0.0000
# 5 0.0000 0.0000 0.0000 0.0000 25.6154 0.0000
# 6 0.0000 0.0000 0.0000 0.0000 0.0000 17.0589
#
#
#
# Elastic Compliance Matrix: (Units=1/GPa)
#
#
# Indices 1 2 3 4 5 6 
#
# 1 0.022052 -0.001827 -0.004889 0.000000 0.000000 0.000000
# 2 -0.001827 0.009655 -0.003360 0.000000 0.000000 0.000000
# 3 -0.004889 -0.003360 0.012933 0.000000 0.000000 0.000000
# 4 0.000000 0.000000 0.000000 1.663920 0.000000 0.000000
# 5 0.000000 0.000000 0.000000 0.000000 0.039039 0.000000
# 6 0.000000 0.000000 0.000000 0.000000 0.000000 0.058621
#
#
# Mechanical properties :
#
#
# Convention : Reuss Voigt Hill
#
# Bulk Modulus (GPa) = 40.83318 47.97340 44.40329
# Shear Modulus (GPa) = 2.72549 21.18665 11.95607
#
# Velocity S-wave (km/s) = 1.12791 3.14472 2.36235
# Velocity P-wave (km/s) = 4.55586 5.96474 5.30726
#
# Compressibility (1/GPa) = 0.02448989
#
# Stress axis : x y z
#
# Youngs Moduli (GPa) = 45.34738 103.57468 77.31930
#
# Poissons Ratio (x) = 0.18921 0.37800
# Poissons Ratio (y) = 0.08284 0.25976
# Poissons Ratio (z) = 0.22170 0.34797
#
# Static dielectric constant tensor:
#      x y z
#    x 1.802740 0.000000 0.000000 
#    y 0.000000 1.793060 0.000000 
#    z 0.000000 0.000000 1.876160 
# 
# From -- ./inp_files/35683.got.cif
#   From: 2010.05.17/outbox.cif.g08.bks.cpg/sg72_18_cif.got.tgz:35683.got - 2010.06.03 17:03:01.
