data_PCOD9527370
_publ_section_title
;
Structure prediction by ZEFSAII (Michael W. Deem and Ramdas Pophale) SiO2 
 PCOD9527370
Probable space group: I B A M
;
_chemical_formula_sum "Si O2"
_cell_formula_units_Z 96
_cell_length_a 9.828541
_cell_length_b 23.093020
_cell_length_c 18.266773
_cell_angle_alpha 90.000000
_cell_angle_beta 90.000000
_cell_angle_gamma 90.000000
_cell_volume 4146.022143
_symmetry_space_group_name_H-M "I B A M"
_symmetry_group_IT_number 72
_symmetry_cell_setting 'orthorhombic'
loop_
_space_group_symop_operation_xyz
x,y,z
-x,-y,z
x,-y,1/2-z
-x,y,1/2-z
-x,-y,-z
x,y,-z
-x,y,1/2+z
x,-y,1/2+z
1/2+x,1/2+y,1/2+z
1/2-x,1/2-y,1/2+z
1/2+x,1/2-y,-z
1/2-x,1/2+y,-z
1/2-x,1/2-y,1/2-z
1/2+x,1/2+y,1/2-z
1/2-x,1/2+y,z
1/2+x,1/2-y,z
loop_
_atom_site_type_symbol
_atom_site_label
_atom_site_fract_x
_atom_site_fract_y
_atom_site_fract_z
Si Si1 0.987069 0.569161 0.583346
Si Si2 0.774323 0.712222 0.589624
Si Si3 0.884240 0.949960 0.581874
Si Si4 0.912147 0.314317 0.412587
Si Si5 0.562819 0.369103 0.177067
Si Si6 0.771454 0.534711 0.316397
O O1 0.942369 0.582912 0.500000
O O2 0.099655 0.617039 0.602102
O O3 0.871668 0.577641 0.643058
O O4 0.000000 0.500000 0.584461
O O5 0.766149 0.705012 0.500000
O O6 0.934098 0.705138 0.610048
O O7 0.712036 0.774629 0.612474
O O8 0.668268 0.669009 0.629939
O O9 0.836494 0.935799 0.500000
O O10 0.949499 0.895270 0.622410
O O11 0.774536 0.985086 0.627733
O O12 0.000000 0.000000 0.575550
O O13 0.911237 0.307232 0.500000
O O14 0.500000 0.340672 0.250000
O O15 0.643056 0.426579 0.206266
O O16 0.835149 0.500000 0.250000
#
# Coordination Sequence:
#
# PCOD9527370 Si02
#       6
#    16  16  16  16  16  16
#     4  10  21  39  64  91 122 162 211 265 322 387
#     4  10  20  38  65  90 120 164 214 265 322 386
#     4   9  18  29  48  80 113 149 200 247 293 362
#     4   9  19  38  64  92 121 160 210 265 321 379
#     4  11  20  34  56  84 120 164 205 258 319 377
#     4  11  20  34  57  82 122 167 203 250 321 383
#
# _framework density 23.154724999999999
#
# number of rings (size 3 to 8) (size 9 to 14) (size 15 to 20)
#    0.000    2.000    3.333    1.000    0.000    1.667 
#    3.000    0.833    3.667    0.000    0.000    0.000 
#    0.000    0.000    0.000    0.000    0.000    0.000 
#
# Total GULP energy -267785.603267 kJ/mol
# GULP energy per Si atom -5578.866735 kJ/mol
# Density = 2.310202 g / cm^3
# Si number density = 23.154725 Si / 1000 Ang^3
#
#
#
# Elastic Constant Matrix: (Units=GPa)
#
#
# Indices 1 2 3 4 5 6 
#
# 1 54.7958 31.4532 3.6906 0.0000 0.0000 0.0000
# 2 31.4532 113.2531 4.7950 0.0000 0.0000 0.0000
# 3 3.6906 4.7950 60.8144 0.0000 0.0000 0.0000
# 4 0.0000 0.0000 0.0000 4.6799 0.0000 0.0000
# 5 0.0000 0.0000 0.0000 0.0000 9.7998 0.0000
# 6 0.0000 0.0000 0.0000 0.0000 0.0000 42.7045
#
#
#
# Elastic Compliance Matrix: (Units=1/GPa)
#
#
# Indices 1 2 3 4 5 6 
#
# 1 0.021754 -0.006006 -0.000847 0.000000 0.000000 0.000000
# 2 -0.006006 0.010517 -0.000465 0.000000 0.000000 0.000000
# 3 -0.000847 -0.000465 0.016532 0.000000 0.000000 0.000000
# 4 0.000000 0.000000 0.000000 0.213678 0.000000 0.000000
# 5 0.000000 0.000000 0.000000 0.000000 0.102043 0.000000
# 6 0.000000 0.000000 0.000000 0.000000 0.000000 0.023417
#
#
# Mechanical properties :
#
#
# Convention : Reuss Voigt Hill
#
# Bulk Modulus (GPa) = 29.26672 34.30453 31.78563
# Shear Modulus (GPa) = 12.07834 24.03181 18.05507
#
# Velocity S-wave (km/s) = 2.28641 3.22511 2.79544
# Velocity P-wave (km/s) = 4.43140 5.35873 4.91697
#
# Compressibility (1/GPa) = 0.03416850
#
# Stress axis : x y z
#
# Youngs Moduli (GPa) = 45.96864 95.08045 60.49053
#
# Poissons Ratio (x) = 0.57103 0.05121
# Poissons Ratio (y) = 0.27608 0.02812
# Poissons Ratio (z) = 0.03892 0.04419
#
# Static dielectric constant tensor:
#      x y z
#    x 1.949290 0.000000 0.000000 
#    y 0.000000 1.896410 0.000000 
#    z 0.000000 0.000000 1.719430 
# 
# From -- ./inp_files/29477.got.cif
#   From: 2010.05.17/outbox.cif.g08.bks.cpg/sg72_15_cif.got.tgz:29477.got - 2010.06.03 17:03:01.
