data_PCOD9527462
_publ_section_title
;
Structure prediction by ZEFSAII (Michael W. Deem and Ramdas Pophale) SiO2 
 PCOD9527462
Probable space group: I B A M
;
_chemical_formula_sum "Si O2"
_cell_formula_units_Z 72
_cell_length_a 18.433793
_cell_length_b 8.316986
_cell_length_c 24.596322
_cell_angle_alpha 90.000000
_cell_angle_beta 90.000000
_cell_angle_gamma 90.000000
_cell_volume 3770.950631
_symmetry_space_group_name_H-M "I B A M"
_symmetry_group_IT_number 72
_symmetry_cell_setting 'orthorhombic'
loop_
_space_group_symop_operation_xyz
x,y,z
-x,-y,z
x,-y,1/2-z
-x,y,1/2-z
-x,-y,-z
x,y,-z
-x,y,1/2+z
x,-y,1/2+z
1/2+x,1/2+y,1/2+z
1/2-x,1/2-y,1/2+z
1/2+x,1/2-y,-z
1/2-x,1/2+y,-z
1/2-x,1/2-y,1/2-z
1/2+x,1/2+y,1/2-z
1/2-x,1/2+y,z
1/2+x,1/2-y,z
loop_
_atom_site_type_symbol
_atom_site_label
_atom_site_fract_x
_atom_site_fract_y
_atom_site_fract_z
Si Si1 0.199359 0.897145 0.198558
Si Si2 0.933583 0.669657 0.718156
Si Si3 0.724507 0.340474 0.878759
Si Si4 0.846917 0.446147 0.563609
Si Si5 0.500000 0.000000 0.382975
O O1 0.134081 0.784768 0.216467
O O2 0.257379 0.780903 0.170574
O O3 0.225851 0.000000 0.250000
O O4 0.178705 0.018803 0.149676
O O5 0.918252 0.500000 0.750000
O O6 0.964321 0.628078 0.658657
O O7 0.000000 0.748276 0.750000
O O8 0.797092 0.425099 0.902941
O O9 0.685710 0.229723 0.922839
O O10 0.841011 0.482099 0.500000
O O11 0.930676 0.446245 0.582257
#
# Coordination Sequence:
#
# PCOD9527462 Si02
#       5
#    16  16  16  16   8
#     4  11  22  37  60  89 122 165 195 240 307 368
#     4   9  21  38  60  84 123 163 198 240 301 372
#     4  10  24  40  60  92 125 154 208 257 297 375
#     4  11  22  42  67  88 116 164 209 259 309 353
#     4  10  20  40  66  88 124 152 212 252 308 362
#
# _framework density 19.093329000000001
#
# number of rings (size 3 to 8) (size 9 to 14) (size 15 to 20)
#    0.000    2.000    2.222    1.667    6.222    1.333 
#    0.000    0.000    0.000    1.333    0.000    0.000 
#    0.000    0.000    0.000    0.000    0.000    0.000 
#
# Total GULP energy -200794.956542 kJ/mol
# GULP energy per Si atom -5577.637682 kJ/mol
# Density = 1.904987 g / cm^3
# Si number density = 19.093329 Si / 1000 Ang^3
#
#
#
# Elastic Constant Matrix: (Units=GPa)
#
#
# Indices 1 2 3 4 5 6 
#
# 1 98.6980 42.6129 38.0996 0.0000 0.0000 0.0000
# 2 42.6129 82.4221 36.6910 0.0000 0.0000 0.0000
# 3 38.0996 36.6910 106.1936 0.0000 0.0000 0.0000
# 4 0.0000 0.0000 0.0000 25.6392 0.0000 0.0000
# 5 0.0000 0.0000 0.0000 0.0000 15.1231 0.0000
# 6 0.0000 0.0000 0.0000 0.0000 0.0000 25.6568
#
#
#
# Elastic Compliance Matrix: (Units=1/GPa)
#
#
# Indices 1 2 3 4 5 6 
#
# 1 0.013775 -0.005816 -0.002933 0.000000 0.000000 0.000000
# 2 -0.005816 0.016794 -0.003716 0.000000 0.000000 0.000000
# 3 -0.002933 -0.003716 0.011753 0.000000 0.000000 0.000000
# 4 0.000000 0.000000 0.000000 0.039003 0.000000 0.000000
# 5 0.000000 0.000000 0.000000 0.000000 0.066124 0.000000
# 6 0.000000 0.000000 0.000000 0.000000 0.000000 0.038976
#
#
# Mechanical properties :
#
#
# Convention : Reuss Voigt Hill
#
# Bulk Modulus (GPa) = 57.49620 58.01340 57.75480
# Shear Modulus (GPa) = 23.02543 24.61118 23.81831
#
# Velocity S-wave (km/s) = 3.47643 3.59415 3.53578
# Velocity P-wave (km/s) = 6.80388 6.90463 6.85444
#
# Compressibility (1/GPa) = 0.01739245
#
# Stress axis : x y z
#
# Youngs Moduli (GPa) = 72.59430 59.54550 85.08693
#
# Poissons Ratio (x) = 0.34634 0.24952
# Poissons Ratio (y) = 0.42224 0.31615
# Poissons Ratio (z) = 0.21289 0.22125
#
# Static dielectric constant tensor:
#      x y z
#    x 1.653750 0.000000 0.000000 
#    y 0.000000 1.691860 0.000000 
#    z 0.000000 0.000000 1.684130 
# 
# From -- ./inp_files/44684.got.cif
#   From: 2010.05.17/outbox.cif.g08.bks.cpg/sg72_23_cif.got.tgz:44684.got - 2010.06.03 17:03:01.
