data_PCOD9527213
_publ_section_title
;
Structure prediction by ZEFSAII (Michael W. Deem and Ramdas Pophale) SiO2 
 PCOD9527213
Probable space group: I B A M
;
_chemical_formula_sum "Si O2"
_cell_formula_units_Z 112
_cell_length_a 12.226651
_cell_length_b 18.156435
_cell_length_c 26.882278
_cell_angle_alpha 90.000000
_cell_angle_beta 90.000000
_cell_angle_gamma 90.000000
_cell_volume 5967.661253
_symmetry_space_group_name_H-M "I B A M"
_symmetry_group_IT_number 72
_symmetry_cell_setting 'orthorhombic'
loop_
_space_group_symop_operation_xyz
x,y,z
-x,-y,z
x,-y,1/2-z
-x,y,1/2-z
-x,-y,-z
x,y,-z
-x,y,1/2+z
x,-y,1/2+z
1/2+x,1/2+y,1/2+z
1/2-x,1/2-y,1/2+z
1/2+x,1/2-y,-z
1/2-x,1/2+y,-z
1/2-x,1/2-y,1/2-z
1/2+x,1/2+y,1/2-z
1/2-x,1/2+y,z
1/2+x,1/2-y,z
loop_
_atom_site_type_symbol
_atom_site_label
_atom_site_fract_x
_atom_site_fract_y
_atom_site_fract_z
Si Si1 0.801927 0.689238 0.688545
Si Si2 0.831164 0.970018 0.942323
Si Si3 0.080467 0.061115 0.652180
Si Si4 0.080908 0.431546 0.445155
Si Si5 0.026845 0.674961 0.365739
Si Si6 0.224786 0.641917 0.703361
Si Si7 0.396876 0.665453 0.115711
O O1 0.799306 0.639447 0.738033
O O2 0.765506 0.773555 0.697335
O O3 0.712603 0.658755 0.649314
O O4 0.925189 0.694180 0.669499
O O5 0.701509 0.961715 0.933646
O O6 0.879103 0.888462 0.931049
O O7 0.879278 0.025311 0.900543
O O8 0.850943 0.991442 0.000000
O O9 0.182651 0.086038 0.684836
O O10 0.002726 0.130988 0.642594
O O11 0.000000 0.000000 0.675362
O O12 0.088412 0.396693 0.500000
O O13 0.000000 0.500000 0.447154
O O14 0.028437 0.375822 0.406786
O O15 0.119553 0.636122 0.332356
O O16 0.078949 0.748271 0.390286
#
# Coordination Sequence:
#
# PCOD9527213 Si02
#       7
#    16  16  16  16  16  16  16
#     4  10  20  37  60  88 119 156 202 247 303 359
#     4  10  21  39  61  85 120 164 203 248 306 370
#     4  10  21  38  59  86 123 159 201 247 302 356
#     4  10  21  38  61  85 115 158 202 244 306 370
#     4  11  20  37  65  86 121 155 197 259 302 356
#     4  10  21  36  60  90 119 157 203 243 302 364
#     4  10  21  36  59  89 121 153 198 254 302 359
#
# _framework density 18.76782
#
# number of rings (size 3 to 8) (size 9 to 14) (size 15 to 20)
#    0.000    1.857    2.857    1.286    0.000    3.714 
#    0.000    5.000    0.000    1.714    0.000    0.000 
#    0.000    0.000    0.000    0.000    0.000    0.000 
#
# Total GULP energy -312221.901233 kJ/mol
# GULP energy per Si atom -5575.391093 kJ/mol
# Density = 1.872510 g / cm^3
# Si number density = 18.767820 Si / 1000 Ang^3
#
#
#
# Elastic Constant Matrix: (Units=GPa)
#
#
# Indices 1 2 3 4 5 6 
#
# 1 113.6241 9.9610 17.1956 0.0000 0.0000 0.0000
# 2 9.9610 35.9068 19.0218 0.0000 0.0000 0.0000
# 3 17.1956 19.0218 46.4561 0.0000 0.0000 0.0000
# 4 0.0000 0.0000 0.0000 11.9335 0.0000 0.0000
# 5 0.0000 0.0000 0.0000 0.0000 24.4314 0.0000
# 6 0.0000 0.0000 0.0000 0.0000 0.0000 34.4886
#
#
#
# Elastic Compliance Matrix: (Units=1/GPa)
#
#
# Indices 1 2 3 4 5 6 
#
# 1 0.009350 -0.000971 -0.003063 0.000000 0.000000 0.000000
# 2 -0.000971 0.035665 -0.014244 0.000000 0.000000 0.000000
# 3 -0.003063 -0.014244 0.028492 0.000000 0.000000 0.000000
# 4 0.000000 0.000000 0.000000 0.083798 0.000000 0.000000
# 5 0.000000 0.000000 0.000000 0.000000 0.040931 0.000000
# 6 0.000000 0.000000 0.000000 0.000000 0.000000 0.028995
#
#
# Mechanical properties :
#
#
# Convention : Reuss Voigt Hill
#
# Bulk Modulus (GPa) = 27.06335 32.03819 29.55077
# Shear Modulus (GPa) = 18.10918 24.15794 21.13356
#
# Velocity S-wave (km/s) = 3.10966 3.59165 3.35931
# Velocity P-wave (km/s) = 5.22922 5.85729 5.55214
#
# Compressibility (1/GPa) = 0.03695035
#
# Stress axis : x y z
#
# Youngs Moduli (GPa) = 106.95598 28.03872 35.09780
#
# Poissons Ratio (x) = 0.02722 0.10751
# Poissons Ratio (y) = 0.10385 0.49993
# Poissons Ratio (z) = 0.32762 0.39938
#
# Static dielectric constant tensor:
#      x y z
#    x 1.644350 0.000000 0.000000 
#    y 0.000000 1.638640 0.000000 
#    z 0.000000 0.000000 1.687320 
# 
# From -- ./inp_files/43538.got.cif
#   From: 2010.05.17/outbox.cif.g08.bks.cpg/sg72_22_cif.got.tgz:43538.got - 2010.06.03 17:03:01.
