data_PCOD9527987
_publ_section_title
;
Structure prediction by ZEFSAII (Michael W. Deem and Ramdas Pophale) SiO2 
 PCOD9527987
Probable space group: I B A M
;
_chemical_formula_sum "Si O2"
_cell_formula_units_Z 88
_cell_length_a 29.643081
_cell_length_b 5.137848
_cell_length_c 28.099628
_cell_angle_alpha 90.000000
_cell_angle_beta 90.000000
_cell_angle_gamma 90.000000
_cell_volume 4279.619552
_symmetry_space_group_name_H-M "I B A M"
_symmetry_group_IT_number 72
_symmetry_cell_setting 'orthorhombic'
loop_
_space_group_symop_operation_xyz
x,y,z
-x,-y,z
x,-y,1/2-z
-x,y,1/2-z
-x,-y,-z
x,y,-z
-x,y,1/2+z
x,-y,1/2+z
1/2+x,1/2+y,1/2+z
1/2-x,1/2-y,1/2+z
1/2+x,1/2-y,-z
1/2-x,1/2+y,-z
1/2-x,1/2-y,1/2-z
1/2+x,1/2+y,1/2-z
1/2-x,1/2+y,z
1/2+x,1/2-y,z
loop_
_atom_site_type_symbol
_atom_site_label
_atom_site_fract_x
_atom_site_fract_y
_atom_site_fract_z
Si Si1 0.722894 0.375265 0.072765
Si Si2 0.000000 0.500000 0.829167
Si Si3 0.426092 0.000000 0.750000
Si Si4 0.720364 0.366334 0.814006
Si Si5 0.899718 0.827662 0.500000
Si Si6 0.848323 0.676045 0.000000
Si Si7 0.472852 0.755567 0.424119
Si Si8 0.636408 0.500000 0.250000
O O1 0.737919 0.666948 0.060517
O O2 0.715348 0.365744 0.129085
O O3 0.679964 0.271163 0.045225
O O4 0.040651 0.420886 0.793790
O O5 0.023178 0.700885 0.866830
O O6 0.394898 0.749685 0.738380
O O7 0.754561 0.599545 0.801050
O O8 0.671672 0.413056 0.790973
O O9 0.857896 0.628946 0.500000
O O10 0.926033 0.759245 0.548640
O O11 0.891546 0.135991 0.500000
O O12 0.500000 0.500000 0.436202
O O13 0.500000 0.000000 0.443737
#
# Coordination Sequence:
#
# PCOD9527987 Si02
#       8
#    16   8   8  16   8   8  16   8
#     4  10  21  39  60  82 117 169 208 236 287 366
#     4   9  26  43  68  84 120 169 212 243 316 372
#     4  11  26  41  62  93 126 157 206 263 306 369
#     4  10  21  39  64  88 122 163 204 241 300 370
#     4  12  24  38  60  96 124 150 200 260 306 354
#     4  12  24  36  58  92 128 154 194 260 306 342
#     4  10  22  41  68  84 115 161 201 242 296 372
#     4  12  24  38  64  93 128 153 198 264 314 352
#
# _framework density 20.562577000000001
#
# number of rings (size 3 to 8) (size 9 to 14) (size 15 to 20)
#    0.545    0.909    0.000    4.909    2.545    3.636 
#    0.000    0.000    0.000    0.000    0.000    0.000 
#    0.000    0.000    0.000    0.000    0.000    0.000 
#
# Total GULP energy -245433.667180 kJ/mol
# GULP energy per Si atom -5578.037890 kJ/mol
# Density = 2.051578 g / cm^3
# Si number density = 20.562577 Si / 1000 Ang^3
#
#
#
# Elastic Constant Matrix: (Units=GPa)
#
#
# Indices 1 2 3 4 5 6 
#
# 1 90.9881 20.2520 44.7765 0.0000 0.0000 0.0000
# 2 20.2520 100.1957 25.0493 0.0000 0.0000 0.0000
# 3 44.7765 25.0493 110.9152 0.0000 0.0000 0.0000
# 4 0.0000 0.0000 0.0000 19.1512 0.0000 0.0000
# 5 0.0000 0.0000 0.0000 0.0000 154.3891 0.0000
# 6 0.0000 0.0000 0.0000 0.0000 0.0000 41.7206
#
#
#
# Elastic Compliance Matrix: (Units=1/GPa)
#
#
# Indices 1 2 3 4 5 6 
#
# 1 0.013923 -0.001493 -0.005283 0.000000 0.000000 0.000000
# 2 -0.001493 0.010738 -0.001822 0.000000 0.000000 0.000000
# 3 -0.005283 -0.001822 0.011560 0.000000 0.000000 0.000000
# 4 0.000000 0.000000 0.000000 0.052216 0.000000 0.000000
# 5 0.000000 0.000000 0.000000 0.000000 0.006477 0.000000
# 6 0.000000 0.000000 0.000000 0.000000 0.000000 0.023969
#
#
# Mechanical properties :
#
#
# Convention : Reuss Voigt Hill
#
# Bulk Modulus (GPa) = 52.56730 53.58385 53.07558
# Shear Modulus (GPa) = 35.10687 57.18692 46.14689
#
# Velocity S-wave (km/s) = 4.13645 5.27935 4.74246
# Velocity P-wave (km/s) = 6.95943 7.95472 7.47366
#
# Compressibility (1/GPa) = 0.01902323
#
# Stress axis : x y z
#
# Youngs Moduli (GPa) = 71.82436 93.12843 86.50258
#
# Poissons Ratio (x) = 0.13907 0.45703
# Poissons Ratio (y) = 0.10725 0.15763
# Poissons Ratio (z) = 0.37948 0.16970
#
# Static dielectric constant tensor:
#      x y z
#    x 1.721930 0.000000 0.000000 
#    y 0.000000 1.725880 0.000000 
#    z 0.000000 0.000000 1.765980 
# 
# From -- ./inp_files/52378.got.cif
#   From: 2010.05.17/outbox.cif.g08.bks.cpg/sg72_27_cif.got.tgz:52378.got - 2010.06.03 17:03:01.
