data_PCOD9527052
_publ_section_title
;
Structure prediction by ZEFSAII (Michael W. Deem and Ramdas Pophale) SiO2 
 PCOD9527052
Probable space group: I B A M
;
_chemical_formula_sum "Si O2"
_cell_formula_units_Z 72
_cell_length_a 7.723570
_cell_length_b 15.617094
_cell_length_c 28.211299
_cell_angle_alpha 90.000000
_cell_angle_beta 90.000000
_cell_angle_gamma 90.000000
_cell_volume 3402.838950
_symmetry_space_group_name_H-M "I B A M"
_symmetry_group_IT_number 72
_symmetry_cell_setting 'orthorhombic'
loop_
_space_group_symop_operation_xyz
x,y,z
-x,-y,z
x,-y,1/2-z
-x,y,1/2-z
-x,-y,-z
x,y,-z
-x,y,1/2+z
x,-y,1/2+z
1/2+x,1/2+y,1/2+z
1/2-x,1/2-y,1/2+z
1/2+x,1/2-y,-z
1/2-x,1/2+y,-z
1/2-x,1/2-y,1/2-z
1/2+x,1/2+y,1/2-z
1/2-x,1/2+y,z
1/2+x,1/2-y,z
loop_
_atom_site_type_symbol
_atom_site_label
_atom_site_fract_x
_atom_site_fract_y
_atom_site_fract_z
Si Si1 0.500000 0.500000 0.097375
Si Si2 0.857947 0.875178 0.322039
Si Si3 0.706664 0.661173 0.724378
Si Si4 0.650777 0.072543 0.447549
Si Si5 0.986346 0.394875 0.851149
O O1 0.574227 0.568054 0.134795
O O2 0.662119 0.466804 0.066522
O O3 0.031382 0.826172 0.305735
O O4 0.809592 0.905579 0.268351
O O5 0.670362 0.850360 0.342078
O O6 0.750000 0.750000 0.750000
O O7 0.854067 0.631888 0.689184
O O8 0.660284 0.112159 0.500000
O O9 0.591033 0.128280 0.402608
O O10 0.500000 0.000000 0.449964
O O11 0.000000 0.500000 0.849529
#
# Coordination Sequence:
#
# PCOD9527052 Si02
#       5
#     8  16  16  16  16
#     4  12  19  39  58  96 124 164 200 260 314 380
#     4  11  23  36  60  84 125 161 206 247 309 381
#     4  11  26  40  56  86 127 170 213 257 308 379
#     4  10  20  36  58  90 128 161 201 258 323 377
#     4  11  21  39  61  90 126 165 207 257 317 376
#
# _framework density 21.158802999999999
#
# number of rings (size 3 to 8) (size 9 to 14) (size 15 to 20)
#    0.000    1.111    6.667    1.000    6.222    7.111 
#    0.000    0.000    0.000    0.000    0.000    7.778 
#    0.000    0.000    0.000    0.000    0.000    0.000 
#
# Total GULP energy -200432.973336 kJ/mol
# GULP energy per Si atom -5567.582593 kJ/mol
# Density = 2.111064 g / cm^3
# Si number density = 21.158803 Si / 1000 Ang^3
#
#
#
# Elastic Constant Matrix: (Units=GPa)
#
#
# Indices 1 2 3 4 5 6 
#
# 1 197.8973 17.8696 76.2997 0.0000 0.0000 0.0000
# 2 17.8696 32.4485 32.1910 0.0000 0.0000 0.0000
# 3 76.2997 32.1910 180.8831 0.0000 0.0000 0.0000
# 4 0.0000 0.0000 0.0000 35.9154 0.0000 0.0000
# 5 0.0000 0.0000 0.0000 0.0000 19.7136 0.0000
# 6 0.0000 0.0000 0.0000 0.0000 0.0000 19.7180
#
#
#
# Elastic Compliance Matrix: (Units=1/GPa)
#
#
# Indices 1 2 3 4 5 6 
#
# 1 0.006060 -0.000973 -0.002383 0.000000 0.000000 0.000000
# 2 -0.000973 0.037582 -0.006278 0.000000 0.000000 0.000000
# 3 -0.002383 -0.006278 0.007651 0.000000 0.000000 0.000000
# 4 0.000000 0.000000 0.000000 0.027843 0.000000 0.000000
# 5 0.000000 0.000000 0.000000 0.000000 0.050726 0.000000
# 6 0.000000 0.000000 0.000000 0.000000 0.000000 0.050715
#
#
# Mechanical properties :
#
#
# Convention : Reuss Voigt Hill
#
# Bulk Modulus (GPa) = 31.22582 73.77216 52.49899
# Shear Modulus (GPa) = 23.75073 34.06064 28.90569
#
# Velocity S-wave (km/s) = 3.35401 4.01654 3.70013
# Velocity P-wave (km/s) = 5.45793 7.51344 6.56661
#
# Compressibility (1/GPa) = 0.03202478
#
# Stress axis : x y z
#
# Youngs Moduli (GPa) = 165.02365 26.60852 130.70473
#
# Poissons Ratio (x) = 0.02589 0.31146
# Poissons Ratio (y) = 0.16059 0.82054
# Poissons Ratio (z) = 0.39324 0.16704
#
# Static dielectric constant tensor:
#      x y z
#    x 1.856410 0.000000 0.000000 
#    y 0.000000 1.898730 0.000000 
#    z 0.000000 0.000000 1.770740 
# 
# From -- ./inp_files/47033.got.cif
#   From: 2010.05.17/outbox.cif.g08.bks.cpg/sg72_24_cif.got.tgz:47033.got - 2010.06.03 17:03:01.
