data_PCOD9527409
_publ_section_title
;
Structure prediction by ZEFSAII (Michael W. Deem and Ramdas Pophale) SiO2 
 PCOD9527409
Probable space group: I B A M
;
_chemical_formula_sum "Si O2"
_cell_formula_units_Z 88
_cell_length_a 27.938263
_cell_length_b 11.280150
_cell_length_c 13.701097
_cell_angle_alpha 90.000000
_cell_angle_beta 90.000000
_cell_angle_gamma 90.000000
_cell_volume 4317.870541
_symmetry_space_group_name_H-M "I B A M"
_symmetry_group_IT_number 72
_symmetry_cell_setting 'orthorhombic'
loop_
_space_group_symop_operation_xyz
x,y,z
-x,-y,z
x,-y,1/2-z
-x,y,1/2-z
-x,-y,-z
x,y,-z
-x,y,1/2+z
x,-y,1/2+z
1/2+x,1/2+y,1/2+z
1/2-x,1/2-y,1/2+z
1/2+x,1/2-y,-z
1/2-x,1/2+y,-z
1/2-x,1/2-y,1/2-z
1/2+x,1/2+y,1/2-z
1/2-x,1/2+y,z
1/2+x,1/2-y,z
loop_
_atom_site_type_symbol
_atom_site_label
_atom_site_fract_x
_atom_site_fract_y
_atom_site_fract_z
Si Si1 0.370598 0.000000 0.750000
Si Si2 0.298971 0.145930 0.115919
Si Si3 0.554053 0.358726 0.241677
Si Si4 0.809109 0.879700 0.117650
Si Si5 0.389732 0.202861 0.386190
Si Si6 0.140120 0.125138 0.385329
O O1 0.336531 0.933404 0.673415
O O2 0.399678 0.905470 0.814001
O O3 0.245167 0.124854 0.153375
O O4 0.316716 0.281287 0.125554
O O5 0.300390 0.117380 0.000000
O O6 0.551428 0.500000 0.250000
O O7 0.500000 0.312108 0.250000
O O8 0.574359 0.309149 0.140179
O O9 0.594565 0.330555 0.323118
O O10 0.838008 0.759725 0.140052
O O11 0.839584 0.996199 0.144740
O O12 0.806551 0.884152 0.000000
O O13 0.390807 0.171997 0.500000
O O14 0.127191 0.119923 0.500000
#
# Coordination Sequence:
#
# PCOD9527409 Si02
#       6
#     8  16  16  16  16  16
#     4  12  24  38  61  86 120 168 215 256 304 376
#     4  10  22  37  58  90 127 170 214 257 307 375
#     4  11  23  41  68  98 126 160 212 268 321 383
#     4   9  20  37  60  91 129 168 207 254 313 378
#     4  11  24  43  63  89 129 167 206 264 319 372
#     4  10  20  39  63  91 131 169 209 263 318 377
#
# _framework density 20.380417999999999
#
# number of rings (size 3 to 8) (size 9 to 14) (size 15 to 20)
#    0.000    1.636    3.636    0.545    2.545    2.909 
#    0.000    2.273    0.000    1.091    0.000    0.000 
#    0.000    0.000    0.000    0.000    0.000    0.000 
#
# Total GULP energy -245650.371410 kJ/mol
# GULP energy per Si atom -5582.962987 kJ/mol
# Density = 2.033403 g / cm^3
# Si number density = 20.380418 Si / 1000 Ang^3
#
#
#
# Elastic Constant Matrix: (Units=GPa)
#
#
# Indices 1 2 3 4 5 6 
#
# 1 93.7631 7.1303 25.1833 0.0000 0.0000 0.0000
# 2 7.1303 80.2352 27.2801 0.0000 0.0000 0.0000
# 3 25.1833 27.2801 107.4811 0.0000 0.0000 0.0000
# 4 0.0000 0.0000 0.0000 33.0313 0.0000 0.0000
# 5 0.0000 0.0000 0.0000 0.0000 17.0569 0.0000
# 6 0.0000 0.0000 0.0000 0.0000 0.0000 5.4887
#
#
#
# Elastic Compliance Matrix: (Units=1/GPa)
#
#
# Indices 1 2 3 4 5 6 
#
# 1 0.011382 -0.000115 -0.002638 0.000000 0.000000 0.000000
# 2 -0.000115 0.013642 -0.003436 0.000000 0.000000 0.000000
# 3 -0.002638 -0.003436 0.010794 0.000000 0.000000 0.000000
# 4 0.000000 0.000000 0.000000 0.030274 0.000000 0.000000
# 5 0.000000 0.000000 0.000000 0.000000 0.058627 0.000000
# 6 0.000000 0.000000 0.000000 0.000000 0.000000 0.182191
#
#
# Mechanical properties :
#
#
# Convention : Reuss Voigt Hill
#
# Bulk Modulus (GPa) = 42.65863 44.51853 43.58858
# Shear Modulus (GPa) = 15.28581 25.90777 20.59679
#
# Velocity S-wave (km/s) = 2.74163 3.56927 3.18247
# Velocity P-wave (km/s) = 5.56764 6.23518 5.91084
#
# Compressibility (1/GPa) = 0.02344192
#
# Stress axis : x y z
#
# Youngs Moduli (GPa) = 87.85515 73.30492 92.64394
#
# Poissons Ratio (x) = 0.00840 0.24438
# Poissons Ratio (y) = 0.01007 0.31828
# Poissons Ratio (z) = 0.23175 0.25184
#
# Static dielectric constant tensor:
#      x y z
#    x 1.712340 0.000000 0.000000 
#    y 0.000000 1.767450 0.000000 
#    z 0.000000 0.000000 1.753550 
# 
# From -- ./inp_files/25816.got.cif
#   From: 2010.05.17/outbox.cif.g08.bks.cpg/sg72_13_cif.got.tgz:25816.got - 2010.06.03 17:03:01.
