data_PCOD9527719
_publ_section_title
;
Structure prediction by ZEFSAII (Michael W. Deem and Ramdas Pophale) SiO2 
 PCOD9527719
Probable space group: I B A M
;
_chemical_formula_sum "Si O2"
_cell_formula_units_Z 64
_cell_length_a 28.530352
_cell_length_b 19.065847
_cell_length_c 5.418675
_cell_angle_alpha 90.000000
_cell_angle_beta 90.000000
_cell_angle_gamma 90.000000
_cell_volume 2947.517127
_symmetry_space_group_name_H-M "I B A M"
_symmetry_group_IT_number 72
_symmetry_cell_setting 'orthorhombic'
loop_
_space_group_symop_operation_xyz
x,y,z
-x,-y,z
x,-y,1/2-z
-x,y,1/2-z
-x,-y,-z
x,y,-z
-x,y,1/2+z
x,-y,1/2+z
1/2+x,1/2+y,1/2+z
1/2-x,1/2-y,1/2+z
1/2+x,1/2-y,-z
1/2-x,1/2+y,-z
1/2-x,1/2-y,1/2-z
1/2+x,1/2+y,1/2-z
1/2-x,1/2+y,z
1/2+x,1/2-y,z
loop_
_atom_site_type_symbol
_atom_site_label
_atom_site_fract_x
_atom_site_fract_y
_atom_site_fract_z
Si Si1 0.518817 0.919769 0.500000
Si Si2 0.832766 0.668417 0.500000
Si Si3 0.813308 0.480938 0.000000
Si Si4 0.158112 0.177670 0.500000
Si Si5 0.095680 0.180027 0.000000
Si Si6 0.709962 0.463644 0.500000
Si Si7 0.606649 0.837511 0.500000
Si Si8 0.946731 0.968834 0.000000
O O1 0.500000 0.886367 0.750000
O O2 0.573371 0.904761 0.500000
O O3 0.500000 0.000000 0.500000
O O4 0.799692 0.600844 0.500000
O O5 0.815336 0.747688 0.500000
O O6 0.863202 0.661798 0.749847
O O7 0.839557 0.500000 0.250000
O O8 0.766188 0.526839 0.000000
O O9 0.126474 0.172810 0.251387
O O10 0.194728 0.115674 0.500000
O O11 0.079695 0.261808 0.000000
O O12 0.058727 0.115488 0.000000
O O13 0.692570 0.500000 0.750000
O O14 0.924818 0.000000 0.750000
O O15 0.000000 0.000000 0.000000
#
# Coordination Sequence:
#
# PCOD9527719 Si02
#       8
#     8   8   8   8   8   8   8   8
#     4  10  21  40  57  84 123 149 195 236 293 359
#     4  10  21  40  62  87 120 155 201 246 294 347
#     4  10  21  40  57  88 125 153 195 241 292 353
#     4  10  21  37  61  88 117 154 195 243 297 350
#     4  10  21  37  59  86 117 150 198 247 290 344
#     4  10  21  37  58  87 124 155 195 236 296 359
#     4  10  21  40  61  88 117 156 200 244 294 350
#     4  10  21  37  53  80 115 152 193 235 292 352
#
# _framework density 21.713189
#
# number of rings (size 3 to 8) (size 9 to 14) (size 15 to 20)
#    0.000    2.000    0.000    3.000    0.000    3.000 
#   18.000    5.000    0.000    0.000    0.000    0.000 
#    0.000    0.000    0.000    0.000    0.000    0.000 
#
# Total GULP energy -178450.313548 kJ/mol
# GULP energy per Si atom -5576.572298 kJ/mol
# Density = 2.166377 g / cm^3
# Si number density = 21.713189 Si / 1000 Ang^3
#
#
#
# Elastic Constant Matrix: (Units=GPa)
#
#
# Indices 1 2 3 4 5 6 
#
# 1 40.2874 45.6598 16.2580 0.0000 0.0000 0.0000
# 2 45.6598 179.4206 29.2483 0.0000 0.0000 0.0000
# 3 16.2580 29.2483 215.3305 0.0000 0.0000 0.0000
# 4 0.0000 0.0000 0.0000 5.6603 0.0000 0.0000
# 5 0.0000 0.0000 0.0000 0.0000 31.9214 0.0000
# 6 0.0000 0.0000 0.0000 0.0000 0.0000 23.5424
#
#
#
# Elastic Compliance Matrix: (Units=1/GPa)
#
#
# Indices 1 2 3 4 5 6 
#
# 1 0.035337 -0.008752 -0.001479 0.000000 0.000000 0.000000
# 2 -0.008752 0.007867 -0.000408 0.000000 0.000000 0.000000
# 3 -0.001479 -0.000408 0.004811 0.000000 0.000000 0.000000
# 4 0.000000 0.000000 0.000000 0.176668 0.000000 0.000000
# 5 0.000000 0.000000 0.000000 0.000000 0.031327 0.000000
# 6 0.000000 0.000000 0.000000 0.000000 0.000000 0.042476
#
#
# Mechanical properties :
#
#
# Convention : Reuss Voigt Hill
#
# Bulk Modulus (GPa) = 37.40000 68.59673 52.99837
# Shear Modulus (GPa) = 15.21249 35.14967 25.18108
#
# Velocity S-wave (km/s) = 2.64978 4.02782 3.40915
# Velocity P-wave (km/s) = 5.15982 7.30013 6.32122
#
# Compressibility (1/GPa) = 0.02673797
#
# Stress axis : x y z
#
# Youngs Moduli (GPa) = 28.29870 127.11111 207.85216
#
# Poissons Ratio (x) = 1.11243 0.30748
# Poissons Ratio (y) = 0.24766 0.08477
# Poissons Ratio (z) = 0.04186 0.05184
#
# Static dielectric constant tensor:
#      x y z
#    x 2.011690 0.000000 0.000000 
#    y 0.000000 1.812950 0.000000 
#    z 0.000000 0.000000 1.885790 
# 
# From -- ./inp_files/1018.got.cif
#   From: 2010.05.17/outbox.cif.g08.bks.cpg/sg72_1_cif.got.tgz:1018.got - 2010.06.03 17:03:01.
