data_PCOD9527366
_publ_section_title
;
Structure prediction by ZEFSAII (Michael W. Deem and Ramdas Pophale) SiO2 
 PCOD9527366
Probable space group: I B A M
;
_chemical_formula_sum "Si O2"
_cell_formula_units_Z 80
_cell_length_a 7.508737
_cell_length_b 24.741102
_cell_length_c 17.799306
_cell_angle_alpha 90.000000
_cell_angle_beta 90.000000
_cell_angle_gamma 90.000000
_cell_volume 3306.655891
_symmetry_space_group_name_H-M "I B A M"
_symmetry_group_IT_number 72
_symmetry_cell_setting 'orthorhombic'
loop_
_space_group_symop_operation_xyz
x,y,z
-x,-y,z
x,-y,1/2-z
-x,y,1/2-z
-x,-y,-z
x,y,-z
-x,y,1/2+z
x,-y,1/2+z
1/2+x,1/2+y,1/2+z
1/2-x,1/2-y,1/2+z
1/2+x,1/2-y,-z
1/2-x,1/2+y,-z
1/2-x,1/2-y,1/2-z
1/2+x,1/2+y,1/2-z
1/2-x,1/2+y,z
1/2+x,1/2-y,z
loop_
_atom_site_type_symbol
_atom_site_label
_atom_site_fract_x
_atom_site_fract_y
_atom_site_fract_z
Si Si1 0.288164 0.515390 0.081349
Si Si2 0.812624 0.117217 0.333831
Si Si3 0.767998 0.083328 0.825974
Si Si4 0.106689 0.726075 0.830112
Si Si5 0.294320 0.183670 0.414354
O O1 0.500000 0.500000 0.078516
O O2 0.255050 0.578268 0.098229
O O3 0.229239 0.477233 0.149120
O O4 0.215302 0.500318 0.000000
O O5 0.717321 0.095860 0.258699
O O6 0.761671 0.180369 0.333928
O O7 0.021847 0.101141 0.329194
O O8 0.683651 0.122734 0.887054
O O9 0.177043 0.785039 0.851698
O O10 0.000000 0.724110 0.750000
O O11 0.982620 0.711250 0.900293
O O12 0.231570 0.187476 0.500000
#
# Coordination Sequence:
#
# PCOD9527366 Si02
#       5
#    16  16  16  16  16
#     4   9  18  34  59  92 130 166 208 264 322 378
#     4  10  21  37  65  94 124 168 217 268 317 388
#     4  10  20  38  64  95 127 165 216 265 324 384
#     4  12  25  44  66  93 128 172 217 270 327 397
#     4  12  26  42  65  93 129 167 214 271 329 391
#
# _framework density 24.193629000000001
#
# number of rings (size 3 to 8) (size 9 to 14) (size 15 to 20)
#    0.000    1.400    2.000    3.600    2.800    4.800 
#    0.000    1.000    0.000    2.400    0.000    0.000 
#    0.000    0.000    0.000    0.000    0.000    0.000 
#
# Total GULP energy -223251.447285 kJ/mol
# GULP energy per Si atom -5581.286182 kJ/mol
# Density = 2.413856 g / cm^3
# Si number density = 24.193629 Si / 1000 Ang^3
#
#
#
# Elastic Constant Matrix: (Units=GPa)
#
#
# Indices 1 2 3 4 5 6 
#
# 1 43.5350 -3.8942 -3.6491 0.0000 0.0000 0.0000
# 2 -3.8942 81.2113 31.1334 0.0000 0.0000 0.0000
# 3 -3.6491 31.1334 106.9396 0.0000 0.0000 0.0000
# 4 0.0000 0.0000 0.0000 29.0933 0.0000 0.0000
# 5 0.0000 0.0000 0.0000 0.0000 15.4171 0.0000
# 6 0.0000 0.0000 0.0000 0.0000 0.0000 19.3681
#
#
#
# Elastic Compliance Matrix: (Units=1/GPa)
#
#
# Indices 1 2 3 4 5 6 
#
# 1 0.023095 0.000906 0.000524 0.000000 0.000000 0.000000
# 2 0.000906 0.013896 -0.004015 0.000000 0.000000 0.000000
# 3 0.000524 -0.004015 0.010538 0.000000 0.000000 0.000000
# 4 0.000000 0.000000 0.000000 0.034372 0.000000 0.000000
# 5 0.000000 0.000000 0.000000 0.000000 0.064863 0.000000
# 6 0.000000 0.000000 0.000000 0.000000 0.000000 0.051631
#
#
# Mechanical properties :
#
#
# Convention : Reuss Voigt Hill
#
# Bulk Modulus (GPa) = 23.60669 30.98513 27.29591
# Shear Modulus (GPa) = 22.96913 26.64876 24.80894
#
# Velocity S-wave (km/s) = 3.08456 3.32245 3.20571
# Velocity P-wave (km/s) = 4.73968 5.24911 5.00089
#
# Compressibility (1/GPa) = 0.04236087
#
# Stress axis : x y z
#
# Youngs Moduli (GPa) = 43.29935 71.96271 94.89698
#
# Poissons Ratio (x) = -0.06523 -0.04974
# Poissons Ratio (y) = -0.03925 0.38098
# Poissons Ratio (z) = -0.02270 0.28890
#
# Static dielectric constant tensor:
#      x y z
#    x 2.088140 0.000000 0.000000 
#    y 0.000000 1.872160 0.000000 
#    z 0.000000 0.000000 1.861920 
# 
# From -- ./inp_files/28186.got.cif
#   From: 2010.05.17/outbox.cif.g08.bks.cpg/sg72_15_cif.got.tgz:28186.got - 2010.06.03 17:03:01.
