data_PCOD9527351
_publ_section_title
;
Structure prediction by ZEFSAII (Michael W. Deem and Ramdas Pophale) SiO2 
 PCOD9527351
Probable space group: I B A M
;
_chemical_formula_sum "Si O2"
_cell_formula_units_Z 104
_cell_length_a 13.322708
_cell_length_b 17.497092
_cell_length_c 25.347845
_cell_angle_alpha 90.000000
_cell_angle_beta 90.000000
_cell_angle_gamma 90.000000
_cell_volume 5908.801867
_symmetry_space_group_name_H-M "I B A M"
_symmetry_group_IT_number 72
_symmetry_cell_setting 'orthorhombic'
loop_
_space_group_symop_operation_xyz
x,y,z
-x,-y,z
x,-y,1/2-z
-x,y,1/2-z
-x,-y,-z
x,y,-z
-x,y,1/2+z
x,-y,1/2+z
1/2+x,1/2+y,1/2+z
1/2-x,1/2-y,1/2+z
1/2+x,1/2-y,-z
1/2-x,1/2+y,-z
1/2-x,1/2-y,1/2-z
1/2+x,1/2+y,1/2-z
1/2-x,1/2+y,z
1/2+x,1/2-y,z
loop_
_atom_site_type_symbol
_atom_site_label
_atom_site_fract_x
_atom_site_fract_y
_atom_site_fract_z
Si Si1 0.235515 0.176579 0.178911
Si Si2 0.614689 0.166257 0.500000
Si Si3 0.099610 0.771942 0.775594
Si Si4 0.569871 0.386043 0.372574
Si Si5 0.237998 0.514738 0.000000
Si Si6 0.271481 0.275244 0.919109
Si Si7 0.354745 0.449881 0.609074
Si Si8 0.126716 0.650094 0.500000
O O1 0.163709 0.187963 0.229136
O O2 0.343875 0.198944 0.200838
O O3 0.225820 0.242725 0.134832
O O4 0.217099 0.098703 0.147431
O O5 0.655858 0.081064 0.500000
O O6 0.665904 0.210217 0.549638
O O7 0.493545 0.161114 0.500000
O O8 0.072018 0.834237 0.820209
O O9 0.000000 0.742589 0.750000
O O10 0.646778 0.341845 0.410624
O O11 0.613807 0.470510 0.364049
O O12 0.457622 0.399683 0.395052
O O13 0.306036 0.528879 0.052529
O O14 0.176481 0.434927 0.000000
O O15 0.177754 0.306674 0.951180
#
# Coordination Sequence:
#
# PCOD9527351 Si02
#       8
#    16   8  16  16   8  16  16   8
#     4  10  21  37  60  88 122 156 197 252 303 352
#     4  11  24  35  63  83 112 167 210 245 296 369
#     4  10  20  38  63  91 120 156 202 252 308 364
#     4  10  22  37  60  92 123 156 197 251 316 355
#     4  12  23  42  58  89 124 166 202 242 304 365
#     4  10  22  39  57  90 117 155 203 255 301 350
#     4  11  22  38  61  90 125 162 195 251 302 370
#     4  11  24  40  60  82 126 161 206 249 297 371
#
# _framework density 17.600861999999999
#
# number of rings (size 3 to 8) (size 9 to 14) (size 15 to 20)
#    0.000    1.538    4.615    0.231    2.154    3.077 
#    0.000    0.000    0.000    0.000    0.000    1.077 
#    0.000    0.000    0.000    0.000    0.000    0.000 
#
# Total GULP energy -289652.212068 kJ/mol
# GULP energy per Si atom -5570.234847 kJ/mol
# Density = 1.756080 g / cm^3
# Si number density = 17.600862 Si / 1000 Ang^3
#
#
#
# Elastic Constant Matrix: (Units=GPa)
#
#
# Indices 1 2 3 4 5 6 
#
# 1 112.7056 49.1592 38.1668 0.0000 0.0000 0.0000
# 2 49.1592 67.9283 9.7407 0.0000 0.0000 0.0000
# 3 38.1668 9.7407 52.2181 0.0000 0.0000 0.0000
# 4 0.0000 0.0000 0.0000 -4.2781 0.0000 0.0000
# 5 0.0000 0.0000 0.0000 0.0000 11.5303 0.0000
# 6 0.0000 0.0000 0.0000 0.0000 0.0000 28.4677
#
#
#
# Elastic Compliance Matrix: (Units=1/GPa)
#
#
# Indices 1 2 3 4 5 6 
#
# 1 0.017219 -0.010949 -0.010543 0.000000 0.000000 0.000000
# 2 -0.010949 0.022089 0.003882 0.000000 0.000000 0.000000
# 3 -0.010543 0.003882 0.026132 0.000000 0.000000 0.000000
# 4 0.000000 0.000000 0.000000 -0.233748 0.000000 0.000000
# 5 0.000000 0.000000 0.000000 0.000000 0.086728 0.000000
# 6 0.000000 0.000000 0.000000 0.000000 0.000000 0.035128
#
#
# Mechanical properties :
#
#
# Convention : Reuss Voigt Hill
#
# Bulk Modulus (GPa) = 33.09048 47.44282 40.26665
# Shear Modulus (GPa) = -4305.31376 16.19634 -2144.55871
#
# Velocity S-wave (km/s) = -49.51153 3.03677 -34.94402
# Velocity P-wave (km/s) = 57.00597 6.26972 40.06477
#
# Compressibility (1/GPa) = 0.03022017
#
# Stress axis : x y z
#
# Youngs Moduli (GPa) = 58.07655 45.27241 38.26717
#
# Poissons Ratio (x) = 0.49570 0.40344
# Poissons Ratio (y) = 0.63589 -0.14857
# Poissons Ratio (z) = 0.61229 -0.17577
#
# Static dielectric constant tensor:
#      x y z
#    x 1.609200 0.000000 0.000000 
#    y 0.000000 1.591490 0.000000 
#    z 0.000000 0.000000 1.639270 
# 
# From -- ./inp_files/48202.got.cif
#   From: 2010.05.17/outbox.cif.g08.bks.cpg/sg72_25_cif.got.tgz:48202.got - 2010.06.03 17:03:01.
