data_PCOD9527813
_publ_section_title
;
Structure prediction by ZEFSAII (Michael W. Deem and Ramdas Pophale) SiO2 
 PCOD9527813
Probable space group: I B A M
;
_chemical_formula_sum "Si O2"
_cell_formula_units_Z 112
_cell_length_a 16.705764
_cell_length_b 15.829994
_cell_length_c 24.087630
_cell_angle_alpha 90.000000
_cell_angle_beta 90.000000
_cell_angle_gamma 90.000000
_cell_volume 6370.025395
_symmetry_space_group_name_H-M "I B A M"
_symmetry_group_IT_number 72
_symmetry_cell_setting 'orthorhombic'
loop_
_space_group_symop_operation_xyz
x,y,z
-x,-y,z
x,-y,1/2-z
-x,y,1/2-z
-x,-y,-z
x,y,-z
-x,y,1/2+z
x,-y,1/2+z
1/2+x,1/2+y,1/2+z
1/2-x,1/2-y,1/2+z
1/2+x,1/2-y,-z
1/2-x,1/2+y,-z
1/2-x,1/2-y,1/2-z
1/2+x,1/2+y,1/2-z
1/2-x,1/2+y,z
1/2+x,1/2-y,z
loop_
_atom_site_type_symbol
_atom_site_label
_atom_site_fract_x
_atom_site_fract_y
_atom_site_fract_z
Si Si1 0.408746 0.679218 0.230265
Si Si2 0.019376 0.598316 0.563409
Si Si3 0.323004 0.341790 0.157587
Si Si4 0.406136 0.522774 0.850173
Si Si5 0.142170 0.696207 0.366655
Si Si6 0.316271 0.642185 0.064965
Si Si7 0.643124 0.204482 0.564862
O O1 0.500000 0.682517 0.250000
O O2 0.351279 0.692710 0.282779
O O3 0.396693 0.587376 0.201583
O O4 0.393136 0.750335 0.184302
O O5 0.048853 0.612551 0.500000
O O6 0.082957 0.627500 0.608633
O O7 0.000000 0.500000 0.568772
O O8 0.938477 0.652542 0.570224
O O9 0.359712 0.435045 0.155306
O O10 0.227693 0.340740 0.150783
O O11 0.355371 0.282117 0.107820
O O12 0.500000 0.500000 0.857040
O O13 0.366496 0.573904 0.900941
O O14 0.155317 0.765639 0.415046
O O15 0.220681 0.645449 0.076843
O O16 0.327961 0.630105 0.000000
O O17 0.651012 0.231873 0.500000
#
# Coordination Sequence:
#
# PCOD9527813 Si02
#       7
#    16  16  16  16  16  16  16
#     4  11  21  39  63  82 116 154 197 239 289 355
#     4  10  21  37  61  86 115 154 195 238 288 349
#     4  11  22  37  61  87 116 151 194 243 291 350
#     4  11  23  36  58  91 116 153 193 240 293 353
#     4  10  22  38  59  87 113 153 198 241 292 344
#     4   9  20  38  58  84 122 154 187 237 292 349
#     4   9  20  39  60  86 116 153 194 236 290 351
#
# _framework density 17.582346999999999
#
# number of rings (size 3 to 8) (size 9 to 14) (size 15 to 20)
#    0.000    1.857    1.429    2.143    4.000    1.429 
#    0.000    0.000    3.143    0.857    0.000    0.000 
#    0.000    0.000    0.000    0.000    0.000    0.000 
#
# Total GULP energy -312557.419576 kJ/mol
# GULP energy per Si atom -5581.382492 kJ/mol
# Density = 1.754233 g / cm^3
# Si number density = 17.582347 Si / 1000 Ang^3
#
#
#
# Elastic Constant Matrix: (Units=GPa)
#
#
# Indices 1 2 3 4 5 6 
#
# 1 97.5410 61.1966 74.2823 0.0000 0.0000 0.0000
# 2 61.1966 95.0471 62.6733 0.0000 0.0000 0.0000
# 3 74.2823 62.6733 117.0806 0.0000 0.0000 0.0000
# 4 0.0000 0.0000 0.0000 4.2043 0.0000 0.0000
# 5 0.0000 0.0000 0.0000 0.0000 31.8727 0.0000
# 6 0.0000 0.0000 0.0000 0.0000 0.0000 24.8423
#
#
#
# Elastic Compliance Matrix: (Units=1/GPa)
#
#
# Indices 1 2 3 4 5 6 
#
# 1 0.023287 -0.008116 -0.010430 0.000000 0.000000 0.000000
# 2 -0.008116 0.019089 -0.005069 0.000000 0.000000 0.000000
# 3 -0.010430 -0.005069 0.017872 0.000000 0.000000 0.000000
# 4 0.000000 0.000000 0.000000 0.237852 0.000000 0.000000
# 5 0.000000 0.000000 0.000000 0.000000 0.031375 0.000000
# 6 0.000000 0.000000 0.000000 0.000000 0.000000 0.040254
#
#
# Mechanical properties :
#
#
# Convention : Reuss Voigt Hill
#
# Bulk Modulus (GPa) = 76.81814 78.44146 77.62980
# Shear Modulus (GPa) = 11.86805 19.61828 15.74317
#
# Velocity S-wave (km/s) = 2.60089 3.34397 2.99556
# Velocity P-wave (km/s) = 7.26670 7.72141 7.49750
#
# Compressibility (1/GPa) = 0.01301776
#
# Stress axis : x y z
#
# Youngs Moduli (GPa) = 42.94233 52.38550 55.95309
#
# Poissons Ratio (x) = 0.42516 0.58360
# Poissons Ratio (y) = 0.34852 0.28364
# Poissons Ratio (z) = 0.44789 0.26556
#
# Static dielectric constant tensor:
#      x y z
#    x 1.593770 0.000000 0.000000 
#    y 0.000000 1.571880 0.000000 
#    z 0.000000 0.000000 1.597520 
# 
# From -- ./inp_files/44328.got.cif
#   From: 2010.05.17/outbox.cif.g08.bks.cpg/sg72_23_cif.got.tgz:44328.got - 2010.06.03 17:03:01.
