data_PCOD9527810
_publ_section_title
;
Structure prediction by ZEFSAII (Michael W. Deem and Ramdas Pophale) SiO2 
 PCOD9527810
Probable space group: I B A M
;
_chemical_formula_sum "Si O2"
_cell_formula_units_Z 116
_cell_length_a 23.398926
_cell_length_b 28.253334
_cell_length_c 8.250696
_cell_angle_alpha 90.000000
_cell_angle_beta 90.000000
_cell_angle_gamma 90.000000
_cell_volume 5454.515914
_symmetry_space_group_name_H-M "I B A M"
_symmetry_group_IT_number 72
_symmetry_cell_setting 'orthorhombic'
loop_
_space_group_symop_operation_xyz
x,y,z
-x,-y,z
x,-y,1/2-z
-x,y,1/2-z
-x,-y,-z
x,y,-z
-x,y,1/2+z
x,-y,1/2+z
1/2+x,1/2+y,1/2+z
1/2-x,1/2-y,1/2+z
1/2+x,1/2-y,-z
1/2-x,1/2+y,-z
1/2-x,1/2-y,1/2-z
1/2+x,1/2+y,1/2-z
1/2-x,1/2+y,z
1/2+x,1/2-y,z
loop_
_atom_site_type_symbol
_atom_site_label
_atom_site_fract_x
_atom_site_fract_y
_atom_site_fract_z
Si Si1 0.631613 0.171589 0.807858
Si Si2 0.934086 0.052118 0.805609
Si Si3 0.755825 0.849414 0.192603
Si Si4 0.226130 0.451217 0.693167
Si Si5 0.623235 0.351697 0.308733
Si Si6 0.561911 0.262320 0.193872
Si Si7 0.596028 0.930042 0.805693
Si Si8 0.500000 0.000000 0.250000
O O1 0.699219 0.171786 0.771390
O O2 0.605438 0.221267 0.754520
O O3 0.601054 0.126254 0.724809
O O4 0.622895 0.166054 0.000000
O O5 0.897002 0.096867 0.745241
O O6 0.000000 0.057741 0.750000
O O7 0.914432 0.000000 0.750000
O O8 0.933520 0.052989 0.000000
O O9 0.756558 0.904063 0.251812
O O10 0.818475 0.831452 0.232225
O O11 0.746694 0.848134 0.000000
O O12 0.252020 0.500000 0.750000
O O13 0.226397 0.450498 0.500000
O O14 0.159497 0.447539 0.742351
O O15 0.632273 0.355830 0.500000
O O16 0.575615 0.312688 0.272444
O O17 0.500000 0.246253 0.250000
O O18 0.564548 0.267239 0.000000
O O19 0.548590 0.959682 0.706964
O O20 0.586078 0.938685 0.000000
#
# Coordination Sequence:
#
# PCOD9527810 Si02
#       8
#    16  16  16  16  16  16  16   4
#     4  10  23  43  65  90 121 160 207 258 312 371
#     4  10  21  37  60  91 127 167 207 249 301 360
#     4  10  22  40  62  89 121 160 204 254 310 368
#     4   9  18  34  53  77 110 152 198 245 299 357
#     4  11  24  41  64  95 127 163 207 254 304 366
#     4  11  25  44  67  95 125 162 204 252 310 368
#     4  10  22  37  55  83 119 159 204 254 310 365
#     4  12  22  36  56  90 122 164 212 262 310 372
#
# _framework density 21.266781999999999
#
# number of rings (size 3 to 8) (size 9 to 14) (size 15 to 20)
#    0.000    1.793    0.690    3.931    0.966   10.483 
#    0.000    2.759    0.000    0.000    0.000    0.000 
#    0.000    0.000    0.000    0.000    0.000    0.000 
#
# Total GULP energy -323549.446475 kJ/mol
# GULP energy per Si atom -5578.438732 kJ/mol
# Density = 2.121838 g / cm^3
# Si number density = 21.266782 Si / 1000 Ang^3
#
#
#
# Elastic Constant Matrix: (Units=GPa)
#
#
# Indices 1 2 3 4 5 6 
#
# 1 71.9125 22.7486 1.8569 0.0000 0.0000 0.0000
# 2 22.7486 97.1445 7.9488 0.0000 0.0000 0.0000
# 3 1.8569 7.9488 26.6644 0.0000 0.0000 0.0000
# 4 0.0000 0.0000 0.0000 21.9606 0.0000 0.0000
# 5 0.0000 0.0000 0.0000 0.0000 21.0738 0.0000
# 6 0.0000 0.0000 0.0000 0.0000 0.0000 4.1036
#
#
#
# Elastic Compliance Matrix: (Units=1/GPa)
#
#
# Indices 1 2 3 4 5 6 
#
# 1 0.015018 -0.003517 0.000003 0.000000 0.000000 0.000000
# 2 -0.003517 0.011375 -0.003146 0.000000 0.000000 0.000000
# 3 0.000003 -0.003146 0.038441 0.000000 0.000000 0.000000
# 4 0.000000 0.000000 0.000000 0.045536 0.000000 0.000000
# 5 0.000000 0.000000 0.000000 0.000000 0.047452 0.000000
# 6 0.000000 0.000000 0.000000 0.000000 0.000000 0.243686
#
#
# Mechanical properties :
#
#
# Convention : Reuss Voigt Hill
#
# Bulk Modulus (GPa) = 19.41254 28.98110 24.19682
# Shear Modulus (GPa) = 11.57408 20.30543 15.93976
#
# Velocity S-wave (km/s) = 2.33541 3.09333 2.74070
# Velocity P-wave (km/s) = 4.05217 5.13958 4.62792
#
# Compressibility (1/GPa) = 0.05151308
#
# Stress axis : x y z
#
# Youngs Moduli (GPa) = 66.58544 87.91235 26.01403
#
# Poissons Ratio (x) = 0.30919 -0.00007
# Poissons Ratio (y) = 0.23419 0.08184
# Poissons Ratio (z) = -0.00017 0.27657
#
# Static dielectric constant tensor:
#      x y z
#    x 1.732960 0.000000 0.000000 
#    y 0.000000 1.785300 0.000000 
#    z 0.000000 0.000000 1.769740 
# 
# From -- ./inp_files/7280.got.cif
#   From: 2010.05.17/outbox.cif.g08.bks.cpg/sg72_4_cif.got.tgz:7280.got - 2010.06.03 17:03:01.
