data_PCOD9527517
_publ_section_title
;
Structure prediction by ZEFSAII (Michael W. Deem and Ramdas Pophale) SiO2 
 PCOD9527517
Probable space group: I B A M
;
_chemical_formula_sum "Si O2"
_cell_formula_units_Z 64
_cell_length_a 23.514342
_cell_length_b 5.452717
_cell_length_c 20.129215
_cell_angle_alpha 90.000000
_cell_angle_beta 90.000000
_cell_angle_gamma 90.000000
_cell_volume 2580.908614
_symmetry_space_group_name_H-M "I B A M"
_symmetry_group_IT_number 72
_symmetry_cell_setting 'orthorhombic'
loop_
_space_group_symop_operation_xyz
x,y,z
-x,-y,z
x,-y,1/2-z
-x,y,1/2-z
-x,-y,-z
x,y,-z
-x,y,1/2+z
x,-y,1/2+z
1/2+x,1/2+y,1/2+z
1/2-x,1/2-y,1/2+z
1/2+x,1/2-y,-z
1/2-x,1/2+y,-z
1/2-x,1/2-y,1/2-z
1/2+x,1/2+y,1/2-z
1/2-x,1/2+y,z
1/2+x,1/2-y,z
loop_
_atom_site_type_symbol
_atom_site_label
_atom_site_fract_x
_atom_site_fract_y
_atom_site_fract_z
Si Si1 0.285135 0.781204 0.500000
Si Si2 0.712649 0.222063 0.350385
Si Si3 0.937575 0.761192 0.422206
Si Si4 0.565164 0.758357 0.631428
Si Si5 0.123883 0.500000 0.750000
O O1 0.251968 0.525922 0.500000
O O2 0.310892 0.784831 0.426176
O O3 0.744229 0.485807 0.342393
O O4 0.664146 0.165250 0.296683
O O5 0.947746 0.803471 0.500000
O O6 0.915056 0.487485 0.412826
O O7 0.997760 0.754008 0.382294
O O8 0.908883 0.003233 0.392575
O O9 0.584329 0.828371 0.704793
#
# Coordination Sequence:
#
# PCOD9527517 Si02
#       5
#     8  16  16  16   8
#     4   8  16  36  62  86 112 161 224 261 312 386
#     4  10  22  42  67  89 130 181 220 268 336 404
#     4  10  20  43  68  90 126 176 220 263 335 394
#     4  10  22  37  63  93 130 167 214 271 320 398
#     4  12  26  41  62 106 140 168 224 275 344 398
#
# _framework density 24.797470000000001
#
# number of rings (size 3 to 8) (size 9 to 14) (size 15 to 20)
#    0.000    2.000    0.000    4.500    0.000    7.000 
#    6.750    5.000    5.500    0.000    0.000    0.000 
#    0.000    0.000    0.000    0.000    0.000    0.000 
#
# Total GULP energy -178807.184110 kJ/mol
# GULP energy per Si atom -5587.724503 kJ/mol
# Density = 2.474103 g / cm^3
# Si number density = 24.797470 Si / 1000 Ang^3
#
#
#
# Elastic Constant Matrix: (Units=GPa)
#
#
# Indices 1 2 3 4 5 6 
#
# 1 52.0287 45.2541 54.3132 0.0000 0.0000 0.0000
# 2 45.2541 239.4902 53.0960 0.0000 0.0000 0.0000
# 3 54.3132 53.0960 214.1487 0.0000 0.0000 0.0000
# 4 0.0000 0.0000 0.0000 39.0071 0.0000 0.0000
# 5 0.0000 0.0000 0.0000 0.0000 20.9854 0.0000
# 6 0.0000 0.0000 0.0000 0.0000 0.0000 31.1392
#
#
#
# Elastic Compliance Matrix: (Units=1/GPa)
#
#
# Indices 1 2 3 4 5 6 
#
# 1 0.029595 -0.004157 -0.006475 0.000000 0.000000 0.000000
# 2 -0.004157 0.005002 -0.000186 0.000000 0.000000 0.000000
# 3 -0.006475 -0.000186 0.006358 0.000000 0.000000 0.000000
# 4 0.000000 0.000000 0.000000 0.025636 0.000000 0.000000
# 5 0.000000 0.000000 0.000000 0.000000 0.047652 0.000000
# 6 0.000000 0.000000 0.000000 0.000000 0.000000 0.032114
#
#
# Mechanical properties :
#
#
# Convention : Reuss Voigt Hill
#
# Bulk Modulus (GPa) = 51.76157 90.11046 70.93602
# Shear Modulus (GPa) = 28.66407 41.75997 35.21202
#
# Velocity S-wave (km/s) = 3.40358 4.10816 3.77236
# Velocity P-wave (km/s) = 6.03033 7.67594 6.90235
#
# Compressibility (1/GPa) = 0.01931935
#
# Stress axis : x y z
#
# Youngs Moduli (GPa) = 33.78899 199.91088 157.27950
#
# Poissons Ratio (x) = 0.83097 1.01846
# Poissons Ratio (y) = 0.14045 0.02926
# Poissons Ratio (z) = 0.21880 0.03719
#
# Static dielectric constant tensor:
#      x y z
#    x 0.893370 0.000000 0.000000 
#    y 0.000000 1.968500 0.000000 
#    z 0.000000 0.000000 1.961010 
# 
# From -- ./inp_files/45863.got.cif
#   From: 2010.05.17/outbox.cif.g08.bks.cpg/sg72_23_cif.got.tgz:45863.got - 2010.06.03 17:03:01.
