data_PCOD9527700
_publ_section_title
;
Structure prediction by ZEFSAII (Michael W. Deem and Ramdas Pophale) SiO2 
 PCOD9527700
Probable space group: I B A M
;
_chemical_formula_sum "Si O2"
_cell_formula_units_Z 64
_cell_length_a 25.206614
_cell_length_b 5.975661
_cell_length_c 20.649145
_cell_angle_alpha 90.000000
_cell_angle_beta 90.000000
_cell_angle_gamma 90.000000
_cell_volume 3110.301836
_symmetry_space_group_name_H-M "I B A M"
_symmetry_group_IT_number 72
_symmetry_cell_setting 'orthorhombic'
loop_
_space_group_symop_operation_xyz
x,y,z
-x,-y,z
x,-y,1/2-z
-x,y,1/2-z
-x,-y,-z
x,y,-z
-x,y,1/2+z
x,-y,1/2+z
1/2+x,1/2+y,1/2+z
1/2-x,1/2-y,1/2+z
1/2+x,1/2-y,-z
1/2-x,1/2+y,-z
1/2-x,1/2-y,1/2-z
1/2+x,1/2+y,1/2-z
1/2-x,1/2+y,z
1/2+x,1/2-y,z
loop_
_atom_site_type_symbol
_atom_site_label
_atom_site_fract_x
_atom_site_fract_y
_atom_site_fract_z
Si Si1 0.844357 0.500000 0.250000
Si Si2 0.942932 0.385218 0.927329
Si Si3 0.151261 0.287976 0.875874
Si Si4 0.222505 0.211542 0.000000
Si Si5 0.084780 0.892970 0.187845
O O1 0.817780 0.596973 0.184925
O O2 0.881354 0.306557 0.220087
O O3 0.895590 0.550684 0.903897
O O4 0.948436 0.202168 0.871294
O O5 0.000000 0.500000 0.930760
O O6 0.929721 0.301393 0.000000
O O7 0.123550 0.072129 0.845013
O O8 0.187976 0.222118 0.934935
O O9 0.251312 0.460106 0.000000
O O10 0.057003 0.000000 0.250000
#
# Coordination Sequence:
#
# PCOD9527700 Si02
#       5
#     8  16  16   8  16
#     4   8  18  38  67  92 126 172 220 266 339 392
#     4  10  21  36  60  96 135 176 222 269 331 402
#     4  10  21  41  66  93 133 176 215 282 331 400
#     4  12  30  46  71 105 131 173 230 284 352 416
#     4   9  19  37  63  88 127 176 219 268 329 393
#
# _framework density 20.576782000000001
#
# number of rings (size 3 to 8) (size 9 to 14) (size 15 to 20)
#    0.000    2.250    1.250    0.000    8.750    1.000 
#    0.000   32.500    0.000    0.000    0.000    0.000 
#    0.000    0.000    0.000    0.000    0.000    0.000 
#
# Total GULP energy -178164.801412 kJ/mol
# GULP energy per Si atom -5567.650044 kJ/mol
# Density = 2.052995 g / cm^3
# Si number density = 20.576782 Si / 1000 Ang^3
#
#
#
# Elastic Constant Matrix: (Units=GPa)
#
#
# Indices 1 2 3 4 5 6 
#
# 1 45.0068 28.5479 47.9590 0.0000 0.0000 0.0000
# 2 28.5479 83.3491 72.8406 0.0000 0.0000 0.0000
# 3 47.9590 72.8406 242.8990 0.0000 0.0000 0.0000
# 4 0.0000 0.0000 0.0000 51.6752 0.0000 0.0000
# 5 0.0000 0.0000 0.0000 0.0000 -85.6028 0.0000
# 6 0.0000 0.0000 0.0000 0.0000 0.0000 2.5387
#
#
#
# Elastic Compliance Matrix: (Units=1/GPa)
#
#
# Indices 1 2 3 4 5 6 
#
# 1 0.030984 -0.007136 -0.003978 0.000000 0.000000 0.000000
# 2 -0.007136 0.017902 -0.003960 0.000000 0.000000 0.000000
# 3 -0.003978 -0.003960 0.006090 0.000000 0.000000 0.000000
# 4 0.000000 0.000000 0.000000 0.019352 0.000000 0.000000
# 5 0.000000 0.000000 0.000000 0.000000 -0.011682 0.000000
# 6 0.000000 0.000000 0.000000 0.000000 0.000000 0.393902
#
#
# Mechanical properties :
#
#
# Convention : Reuss Voigt Hill
#
# Bulk Modulus (GPa) = 40.27521 74.43890 57.35705
# Shear Modulus (GPa) = 10.10162 8.51605 9.30883
#
# Velocity S-wave (km/s) = 2.21808 2.03658 2.12927
# Velocity P-wave (km/s) = 5.11620 6.46412 5.82925
#
# Compressibility (1/GPa) = 0.02482917
#
# Stress axis : x y z
#
# Youngs Moduli (GPa) = 32.27488 55.85881 164.21243
#
# Poissons Ratio (x) = 0.39862 0.65317
# Poissons Ratio (y) = 0.23032 0.65021
# Poissons Ratio (z) = 0.12838 0.22118
#
# Static dielectric constant tensor:
#      x y z
#    x 1.698550 0.000000 0.000000 
#    y 0.000000 1.814020 0.000000 
#    z 0.000000 0.000000 1.766200 
# 
# From -- ./inp_files/34787.got.cif
#   From: 2010.05.17/outbox.cif.g08.bks.cpg/sg72_18_cif.got.tgz:34787.got - 2010.06.03 17:03:01.
