data_PCOD9527753
_publ_section_title
;
Structure prediction by ZEFSAII (Michael W. Deem and Ramdas Pophale) SiO2 
 PCOD9527753
Probable space group: I B A M
;
_chemical_formula_sum "Si O2"
_cell_formula_units_Z 60
_cell_length_a 14.005155
_cell_length_b 5.378603
_cell_length_c 34.603977
_cell_angle_alpha 90.000000
_cell_angle_beta 90.000000
_cell_angle_gamma 90.000000
_cell_volume 2606.654217
_symmetry_space_group_name_H-M "I B A M"
_symmetry_group_IT_number 72
_symmetry_cell_setting 'orthorhombic'
loop_
_space_group_symop_operation_xyz
x,y,z
-x,-y,z
x,-y,1/2-z
-x,y,1/2-z
-x,-y,-z
x,y,-z
-x,y,1/2+z
x,-y,1/2+z
1/2+x,1/2+y,1/2+z
1/2-x,1/2-y,1/2+z
1/2+x,1/2-y,-z
1/2-x,1/2+y,-z
1/2-x,1/2-y,1/2-z
1/2+x,1/2+y,1/2-z
1/2-x,1/2+y,z
1/2+x,1/2-y,z
loop_
_atom_site_type_symbol
_atom_site_label
_atom_site_fract_x
_atom_site_fract_y
_atom_site_fract_z
Si Si1 0.616905 0.499096 0.626550
Si Si2 0.891244 0.890360 0.211111
Si Si3 0.500000 0.000000 0.250000
Si Si4 0.613839 0.999423 0.416210
Si Si5 0.305093 0.893222 0.500000
O O1 0.500000 0.500000 0.628021
O O2 0.652574 0.548627 0.670107
O O3 0.646144 0.232806 0.609794
O O4 0.644998 0.729707 0.599250
O O5 0.921955 0.611137 0.219906
O O6 0.844055 0.000000 0.250000
O O7 0.000000 0.000000 0.210922
O O8 0.641000 0.047161 0.460365
O O9 0.500000 0.000000 0.413492
O O10 0.278804 0.601291 0.500000
#
# Coordination Sequence:
#
# PCOD9527753 Si02
#       5
#    16  16   4  16   8
#     4   9  18  29  49  75 110 146 183 219 265 319
#     4   8  15  22  36  64 103 150 182 210 256 319
#     4   8  14  20  36  58 104 150 186 196 266 312
#     4  10  21  37  57  83 110 144 180 227 274 327
#     4  12  25  42  63  82 110 140 180 226 283 340
#
# _framework density 23.018014999999998
#
# number of rings (size 3 to 8) (size 9 to 14) (size 15 to 20)
#    0.000    2.933    0.000    2.000   13.067    0.000 
#    0.000    5.333    0.000    0.000    0.000    0.000 
#    0.000   21.333    0.000    0.000    0.000    0.000 
#
# Total GULP energy -167216.177426 kJ/mol
# GULP energy per Si atom -5573.872581 kJ/mol
# Density = 2.296562 g / cm^3
# Si number density = 23.018015 Si / 1000 Ang^3
#
#
#
# Elastic Constant Matrix: (Units=GPa)
#
#
# Indices 1 2 3 4 5 6 
#
# 1 58.9252 -6.6125 2.6305 0.0000 0.0000 0.0000
# 2 -6.6125 85.4703 51.4205 0.0000 0.0000 0.0000
# 3 2.6305 51.4205 186.7893 0.0000 0.0000 0.0000
# 4 0.0000 0.0000 0.0000 41.6191 0.0000 0.0000
# 5 0.0000 0.0000 0.0000 0.0000 -16.6886 0.0000
# 6 0.0000 0.0000 0.0000 0.0000 0.0000 -15.8024
#
#
#
# Elastic Compliance Matrix: (Units=1/GPa)
#
#
# Indices 1 2 3 4 5 6 
#
# 1 0.017202 0.001770 -0.000729 0.000000 0.000000 0.000000
# 2 0.001770 0.014204 -0.003935 0.000000 0.000000 0.000000
# 3 -0.000729 -0.003935 0.006447 0.000000 0.000000 0.000000
# 4 0.000000 0.000000 0.000000 0.024027 0.000000 0.000000
# 5 0.000000 0.000000 0.000000 0.000000 -0.059921 0.000000
# 6 0.000000 0.000000 0.000000 0.000000 0.000000 -0.063281
#
#
# Mechanical properties :
#
#
# Convention : Reuss Voigt Hill
#
# Bulk Modulus (GPa) = 31.18812 47.34021 39.26416
# Shear Modulus (GPa) = -111.49763 20.74204 -45.37780
#
# Velocity S-wave (km/s) = -6.96738 3.00513 -4.44487
# Velocity P-wave (km/s) = 7.15172 5.71422 3.04095
#
# Compressibility (1/GPa) = 0.03206350
#
# Stress axis : x y z
#
# Youngs Moduli (GPa) = 58.13343 70.40093 155.10605
#
# Poissons Ratio (x) = -0.12459 0.11314
# Poissons Ratio (y) = -0.10288 0.61037
# Poissons Ratio (z) = 0.04240 0.27704
#
# Static dielectric constant tensor:
#      x y z
#    x 2.343400 0.000000 0.000000 
#    y 0.000000 1.300130 0.000000 
#    z 0.000000 0.000000 1.872630 
# 
# From -- ./inp_files/51949.got.cif
#   From: 2010.05.17/outbox.cif.g08.bks.cpg/sg72_26_cif.got.tgz:51949.got - 2010.06.03 17:03:01.
