data_PCOD9527296
_publ_section_title
;
Structure prediction by ZEFSAII (Michael W. Deem and Ramdas Pophale) SiO2 
 PCOD9527296
Probable space group: I B A M
;
_chemical_formula_sum "Si O2"
_cell_formula_units_Z 116
_cell_length_a 26.145075
_cell_length_b 9.375030
_cell_length_c 24.833494
_cell_angle_alpha 90.000000
_cell_angle_beta 90.000000
_cell_angle_gamma 90.000000
_cell_volume 6086.959133
_symmetry_space_group_name_H-M "I B A M"
_symmetry_group_IT_number 72
_symmetry_cell_setting 'orthorhombic'
loop_
_space_group_symop_operation_xyz
x,y,z
-x,-y,z
x,-y,1/2-z
-x,y,1/2-z
-x,-y,-z
x,y,-z
-x,y,1/2+z
x,-y,1/2+z
1/2+x,1/2+y,1/2+z
1/2-x,1/2-y,1/2+z
1/2+x,1/2-y,-z
1/2-x,1/2+y,-z
1/2-x,1/2-y,1/2-z
1/2+x,1/2+y,1/2-z
1/2-x,1/2+y,z
1/2+x,1/2-y,z
loop_
_atom_site_type_symbol
_atom_site_label
_atom_site_fract_x
_atom_site_fract_y
_atom_site_fract_z
Si Si1 0.459714 0.614010 0.133222
Si Si2 0.000000 0.500000 0.250000
Si Si3 0.629077 0.436249 0.692746
Si Si4 0.096644 0.654661 0.062288
Si Si5 0.107346 0.683343 0.563405
Si Si6 0.546797 0.781374 0.174610
Si Si7 0.693889 0.341843 0.403347
Si Si8 0.286490 0.338793 0.562568
O O1 0.500000 0.500000 0.107311
O O2 0.410755 0.535517 0.158985
O O3 0.437589 0.737242 0.095314
O O4 0.495724 0.685867 0.177948
O O5 0.963856 0.582129 0.290965
O O6 0.642901 0.500000 0.750000
O O7 0.594969 0.296349 0.700091
O O8 0.676079 0.393536 0.655350
O O9 0.110210 0.487369 0.071206
O O10 0.058467 0.694003 0.111144
O O11 0.145464 0.759039 0.070289
O O12 0.078443 0.668981 0.000000
O O13 0.099209 0.707227 0.500000
O O14 0.160486 0.761522 0.577858
O O15 0.708302 0.490715 0.432123
O O16 0.740533 0.231634 0.404419
O O17 0.276054 0.304566 0.500000
#
# Coordination Sequence:
#
# PCOD9527296 Si02
#       8
#    16   4  16  16  16  16  16  16
#     4  10  20  38  58  87 120 159 206 254 302 366
#     4  12  20  36  52  88 120 156 216 260 296 364
#     4  10  21  40  61  85 119 160 206 258 311 364
#     4  10  21  38  57  86 127 160 197 252 316 376
#     4  10  21  36  57  87 123 162 198 245 306 368
#     4  10  22  34  60  87 118 164 208 256 310 364
#     4  11  22  39  62  91 118 157 202 253 309 371
#     4  11  21  36  61  89 117 153 196 246 302 368
#
# _framework density 19.057134000000001
#
# number of rings (size 3 to 8) (size 9 to 14) (size 15 to 20)
#    0.000    1.655    1.379    3.724    0.000    3.862 
#    0.000    2.414    0.000    0.000    0.000    0.000 
#    0.000    0.000    0.000    0.000    0.000    0.000 
#
# Total GULP energy -323526.199566 kJ/mol
# GULP energy per Si atom -5578.037924 kJ/mol
# Density = 1.901376 g / cm^3
# Si number density = 19.057134 Si / 1000 Ang^3
#
#
#
# Elastic Constant Matrix: (Units=GPa)
#
#
# Indices 1 2 3 4 5 6 
#
# 1 83.1954 36.8785 46.5909 0.0000 0.0000 0.0000
# 2 36.8785 104.9548 40.8253 0.0000 0.0000 0.0000
# 3 46.5909 40.8253 94.3561 0.0000 0.0000 0.0000
# 4 0.0000 0.0000 0.0000 -19.7752 0.0000 0.0000
# 5 0.0000 0.0000 0.0000 0.0000 8.1896 0.0000
# 6 0.0000 0.0000 0.0000 0.0000 0.0000 39.1842
#
#
#
# Elastic Compliance Matrix: (Units=1/GPa)
#
#
# Indices 1 2 3 4 5 6 
#
# 1 0.017548 -0.003361 -0.007210 0.000000 0.000000 0.000000
# 2 -0.003361 0.012100 -0.003576 0.000000 0.000000 0.000000
# 3 -0.007210 -0.003576 0.015706 0.000000 0.000000 0.000000
# 4 0.000000 0.000000 0.000000 -0.050568 0.000000 0.000000
# 5 0.000000 0.000000 0.000000 0.000000 0.122106 0.000000
# 6 0.000000 0.000000 0.000000 0.000000 0.000000 0.025521
#
#
# Mechanical properties :
#
#
# Convention : Reuss Voigt Hill
#
# Bulk Modulus (GPa) = 58.62078 59.01064 58.81571
# Shear Modulus (GPa) = 28.34594 16.06715 22.20655
#
# Velocity S-wave (km/s) = 3.86089 2.90678 3.41730
# Velocity P-wave (km/s) = 7.12058 6.50370 6.81912
#
# Compressibility (1/GPa) = 0.01705880
#
# Stress axis : x y z
#
# Youngs Moduli (GPa) = 56.98734 82.64623 63.67179
#
# Poissons Ratio (x) = 0.27779 0.45910
# Poissons Ratio (y) = 0.19154 0.22766
# Poissons Ratio (z) = 0.41090 0.29551
#
# Static dielectric constant tensor:
#      x y z
#    x 1.657350 0.000000 0.000000 
#    y 0.000000 1.706520 0.000000 
#    z 0.000000 0.000000 1.642300 
# 
# From -- ./inp_files/45982.got.cif
#   From: 2010.05.17/outbox.cif.g08.bks.cpg/sg72_23_cif.got.tgz:45982.got - 2010.06.03 17:03:01.
