data_PCOD9527396
_publ_section_title
;
Structure prediction by ZEFSAII (Michael W. Deem and Ramdas Pophale) SiO2 
 PCOD9527396
Probable space group: I B A M
;
_chemical_formula_sum "Si O2"
_cell_formula_units_Z 96
_cell_length_a 9.737615
_cell_length_b 20.475196
_cell_length_c 24.496835
_cell_angle_alpha 90.000000
_cell_angle_beta 90.000000
_cell_angle_gamma 90.000000
_cell_volume 4884.168568
_symmetry_space_group_name_H-M "I B A M"
_symmetry_group_IT_number 72
_symmetry_cell_setting 'orthorhombic'
loop_
_space_group_symop_operation_xyz
x,y,z
-x,-y,z
x,-y,1/2-z
-x,y,1/2-z
-x,-y,-z
x,y,-z
-x,y,1/2+z
x,-y,1/2+z
1/2+x,1/2+y,1/2+z
1/2-x,1/2-y,1/2+z
1/2+x,1/2-y,-z
1/2-x,1/2+y,-z
1/2-x,1/2-y,1/2-z
1/2+x,1/2+y,1/2-z
1/2-x,1/2+y,z
1/2+x,1/2-y,z
loop_
_atom_site_type_symbol
_atom_site_label
_atom_site_fract_x
_atom_site_fract_y
_atom_site_fract_z
Si Si1 0.839327 0.014102 0.665578
Si Si2 0.747145 0.127289 0.169948
Si Si3 0.485631 0.313496 0.619434
Si Si4 0.041164 0.669620 0.877330
Si Si5 0.227982 0.091675 0.063433
Si Si6 0.774433 0.842102 0.208662
O O1 0.807787 0.030891 0.602425
O O2 0.800576 0.080610 0.696685
O O3 0.757569 0.949795 0.681899
O O4 0.000000 0.000000 0.673919
O O5 0.605542 0.142726 0.140372
O O6 0.762741 0.166017 0.227000
O O7 0.876810 0.147047 0.132945
O O8 0.521616 0.241820 0.598765
O O9 0.386385 0.354043 0.579713
O O10 0.399006 0.307661 0.676286
O O11 0.127397 0.622367 0.916824
O O12 0.136449 0.676349 0.823399
O O13 0.226625 0.076955 0.000000
#
# Coordination Sequence:
#
# PCOD9527396 Si02
#       6
#    16  16  16  16  16  16
#     4  10  20  39  58  88 117 149 199 254 288 347
#     4  12  20  35  61  86 118 160 198 228 290 356
#     4  10  21  38  59  88 117 154 198 244 283 347
#     4  10  23  39  55  87 126 153 193 242 286 353
#     4  10  23  44  63  83 115 155 196 257 317 337
#     4  10  22  34  56  88 124 163 186 233 290 347
#
# _framework density 19.655339999999999
#
# number of rings (size 3 to 8) (size 9 to 14) (size 15 to 20)
#    0.000    2.000    3.333    3.500    0.000    8.333 
#    0.000    5.833    0.000    0.000    0.000    0.000 
#    0.000    0.000    0.000    0.000    0.000    0.000 
#
# Total GULP energy -268144.047678 kJ/mol
# GULP energy per Si atom -5586.334327 kJ/mol
# Density = 1.961060 g / cm^3
# Si number density = 19.655340 Si / 1000 Ang^3
#
#
#
# Elastic Constant Matrix: (Units=GPa)
#
#
# Indices 1 2 3 4 5 6 
#
# 1 124.7069 -0.2891 12.6161 0.0000 0.0000 0.0000
# 2 -0.2891 32.4884 -15.2387 0.0000 0.0000 0.0000
# 3 12.6161 -15.2387 88.3356 0.0000 0.0000 0.0000
# 4 0.0000 0.0000 0.0000 10.9848 0.0000 0.0000
# 5 0.0000 0.0000 0.0000 0.0000 7.4382 0.0000
# 6 0.0000 0.0000 0.0000 0.0000 0.0000 61.7308
#
#
#
# Elastic Compliance Matrix: (Units=1/GPa)
#
#
# Indices 1 2 3 4 5 6 
#
# 1 0.008144 -0.000515 -0.001252 0.000000 0.000000 0.000000
# 2 -0.000515 0.033523 0.005856 0.000000 0.000000 0.000000
# 3 -0.001252 0.005856 0.012510 0.000000 0.000000 0.000000
# 4 0.000000 0.000000 0.000000 0.091035 0.000000 0.000000
# 5 0.000000 0.000000 0.000000 0.000000 0.134440 0.000000
# 6 0.000000 0.000000 0.000000 0.000000 0.000000 0.016199
#
#
# Mechanical properties :
#
#
# Convention : Reuss Voigt Hill
#
# Bulk Modulus (GPa) = 16.03696 26.63416 21.33556
# Shear Modulus (GPa) = 16.20972 32.59362 24.40167
#
# Velocity S-wave (km/s) = 2.87487 4.07659 3.52728
# Velocity P-wave (km/s) = 4.38140 5.97814 5.24093
#
# Compressibility (1/GPa) = 0.06235595
#
# Stress axis : x y z
#
# Youngs Moduli (GPa) = 122.78580 29.83060 79.93889
#
# Poissons Ratio (x) = 0.01536 0.10008
# Poissons Ratio (y) = 0.06320 -0.46816
# Poissons Ratio (z) = 0.15372 -0.17470
#
# Static dielectric constant tensor:
#      x y z
#    x 1.662680 0.000000 0.000000 
#    y 0.000000 1.717320 0.000000 
#    z 0.000000 0.000000 1.687390 
# 
# From -- ./inp_files/47482.got.cif
#   From: 2010.05.17/outbox.cif.g08.bks.cpg/sg72_24_cif.got.tgz:47482.got - 2010.06.03 17:03:01.
