data_PCOD9527487
_publ_section_title
;
Structure prediction by ZEFSAII (Michael W. Deem and Ramdas Pophale) SiO2 
 PCOD9527487
Probable space group: I B A M
;
_chemical_formula_sum "Si O2"
_cell_formula_units_Z 96
_cell_length_a 10.823881
_cell_length_b 14.662983
_cell_length_c 25.703289
_cell_angle_alpha 90.000000
_cell_angle_beta 90.000000
_cell_angle_gamma 90.000000
_cell_volume 4079.378844
_symmetry_space_group_name_H-M "I B A M"
_symmetry_group_IT_number 72
_symmetry_cell_setting 'orthorhombic'
loop_
_space_group_symop_operation_xyz
x,y,z
-x,-y,z
x,-y,1/2-z
-x,y,1/2-z
-x,-y,-z
x,y,-z
-x,y,1/2+z
x,-y,1/2+z
1/2+x,1/2+y,1/2+z
1/2-x,1/2-y,1/2+z
1/2+x,1/2-y,-z
1/2-x,1/2+y,-z
1/2-x,1/2-y,1/2-z
1/2+x,1/2+y,1/2-z
1/2-x,1/2+y,z
1/2+x,1/2-y,z
loop_
_atom_site_type_symbol
_atom_site_label
_atom_site_fract_x
_atom_site_fract_y
_atom_site_fract_z
Si Si1 0.906555 0.130442 0.826693
Si Si2 0.645484 0.644054 0.389362
Si Si3 0.823043 0.686876 0.292593
Si Si4 0.258861 0.500000 0.750000
Si Si5 0.279965 0.825154 0.085183
Si Si6 0.598912 0.419105 0.000000
Si Si7 0.094654 0.756880 0.000000
Si Si8 0.579320 0.086494 0.000000
O O1 0.926092 0.235875 0.806355
O O2 0.791004 0.138537 0.865650
O O3 0.028762 0.104502 0.858454
O O4 0.856004 0.056579 0.786122
O O5 0.753512 0.660575 0.346959
O O6 0.616697 0.749740 0.403395
O O7 0.667279 0.590297 0.443848
O O8 0.750000 0.750000 0.250000
O O9 0.828975 0.584363 0.269047
O O10 0.182091 0.771518 0.049391
O O11 0.335164 0.903513 0.050020
O O12 0.500000 0.500000 0.000000
O O13 0.508491 0.333363 0.000000
O O14 0.021267 0.665245 0.000000
O O15 0.500000 0.000000 0.000000
#
# Coordination Sequence:
#
# PCOD9527487 Si02
#       8
#    16  16  16   8  16   8   8   8
#     4  10  21  39  64  93 123 169 214 270 335 399
#     4  11  22  41  65  93 135 170 218 273 339 397
#     4   9  22  40  65  95 120 168 220 276 335 402
#     4  10  22  41  62  89 128 154 214 275 342 385
#     4  10  20  41  63  89 132 174 215 264 325 402
#     4  12  24  37  60  99 135 170 224 271 334 416
#     4  11  20  43  63  88 137 177 208 266 321 392
#     4  11  22  40  62  95 130 176 224 261 324 396
#
# _framework density 23.532993000000001
#
# number of rings (size 3 to 8) (size 9 to 14) (size 15 to 20)
#    0.000    1.667    3.333    0.500    2.333    3.333 
#   15.000    0.000    0.000    9.000    0.000    0.000 
#    0.000    0.000    0.000    0.000    0.000    0.000 
#
# Total GULP energy -267624.523725 kJ/mol
# GULP energy per Si atom -5575.510911 kJ/mol
# Density = 2.347943 g / cm^3
# Si number density = 23.532993 Si / 1000 Ang^3
#
#
#
# Elastic Constant Matrix: (Units=GPa)
#
#
# Indices 1 2 3 4 5 6 
#
# 1 48.3007 27.9605 26.1954 0.0000 0.0000 0.0000
# 2 27.9605 181.3381 54.1990 0.0000 0.0000 0.0000
# 3 26.1954 54.1990 141.6860 0.0000 0.0000 0.0000
# 4 0.0000 0.0000 0.0000 -31.1190 0.0000 0.0000
# 5 0.0000 0.0000 0.0000 0.0000 21.9176 0.0000
# 6 0.0000 0.0000 0.0000 0.0000 0.0000 22.0746
#
#
#
# Elastic Compliance Matrix: (Units=1/GPa)
#
#
# Indices 1 2 3 4 5 6 
#
# 1 0.024123 -0.002695 -0.003429 0.000000 0.000000 0.000000
# 2 -0.002695 0.006527 -0.001999 0.000000 0.000000 0.000000
# 3 -0.003429 -0.001999 0.008456 0.000000 0.000000 0.000000
# 4 0.000000 0.000000 0.000000 -0.032135 0.000000 0.000000
# 5 0.000000 0.000000 0.000000 0.000000 0.045625 0.000000
# 6 0.000000 0.000000 0.000000 0.000000 0.000000 0.045301
#
#
# Mechanical properties :
#
#
# Convention : Reuss Voigt Hill
#
# Bulk Modulus (GPa) = 43.74073 65.33719 54.53896
# Shear Modulus (GPa) = 41.06281 20.10597 30.58439
#
# Velocity S-wave (km/s) = 4.18174 2.92614 3.60896
# Velocity P-wave (km/s) = 6.47636 6.26424 6.37118
#
# Compressibility (1/GPa) = 0.02286199
#
# Stress axis : x y z
#
# Youngs Moduli (GPa) = 41.45370 153.19945 118.25303
#
# Poissons Ratio (x) = 0.41282 0.40552
# Poissons Ratio (y) = 0.11170 0.23636
# Poissons Ratio (z) = 0.14215 0.30621
#
# Static dielectric constant tensor:
#      x y z
#    x 1.940310 0.000000 0.000000 
#    y 0.000000 1.920370 0.000000 
#    z 0.000000 0.000000 2.158830 
# 
# From -- ./inp_files/51439.got.cif
#   From: 2010.05.17/outbox.cif.g08.bks.cpg/sg72_26_cif.got.tgz:51439.got - 2010.06.03 17:03:01.
