data_PCOD9527997
_publ_section_title
;
Structure prediction by ZEFSAII (Michael W. Deem and Ramdas Pophale) SiO2 
 PCOD9527997
Probable space group: I B A M
;
_chemical_formula_sum "Si O2"
_cell_formula_units_Z 100
_cell_length_a 7.655222
_cell_length_b 31.610898
_cell_length_c 21.018448
_cell_angle_alpha 90.000000
_cell_angle_beta 90.000000
_cell_angle_gamma 90.000000
_cell_volume 5086.221481
_symmetry_space_group_name_H-M "I B A M"
_symmetry_group_IT_number 72
_symmetry_cell_setting 'orthorhombic'
loop_
_space_group_symop_operation_xyz
x,y,z
-x,-y,z
x,-y,1/2-z
-x,y,1/2-z
-x,-y,-z
x,y,-z
-x,y,1/2+z
x,-y,1/2+z
1/2+x,1/2+y,1/2+z
1/2-x,1/2-y,1/2+z
1/2+x,1/2-y,-z
1/2-x,1/2+y,-z
1/2-x,1/2-y,1/2-z
1/2+x,1/2+y,1/2-z
1/2-x,1/2+y,z
1/2+x,1/2-y,z
loop_
_atom_site_type_symbol
_atom_site_label
_atom_site_fract_x
_atom_site_fract_y
_atom_site_fract_z
Si Si1 0.500000 0.000000 0.250000
Si Si2 0.691263 0.438929 0.270455
Si Si3 0.384452 0.288343 0.811782
Si Si4 0.763357 0.793401 0.135412
Si Si5 0.237209 0.368199 0.129855
Si Si6 0.708444 0.271229 0.000000
Si Si7 0.162049 0.821817 0.000000
Si Si8 0.391121 0.121738 0.814977
O O1 0.644443 0.029664 0.213834
O O2 0.500000 0.455074 0.250000
O O3 0.668744 0.404692 0.327878
O O4 0.765225 0.415549 0.207158
O O5 0.500000 0.297021 0.750000
O O6 0.303318 0.242319 0.816376
O O7 0.529422 0.288710 0.866803
O O8 0.249815 0.325096 0.827901
O O9 0.717216 0.838362 0.162902
O O10 0.695309 0.784697 0.064962
O O11 0.305265 0.352184 0.061600
O O12 0.037340 0.384063 0.130941
O O13 0.528365 0.298777 0.000000
O O14 0.708395 0.219622 0.000000
O O15 0.500000 0.129428 0.750000
#
# Coordination Sequence:
#
# PCOD9527997 Si02
#       8
#     4  16  16  16  16   8   8  16
#     4  12  22  48  72 116 136 160 198 264 362 430
#     4  11  23  43  73 106 137 164 203 271 348 424
#     4  12  22  34  53  79 115 169 220 280 340 380
#     4  12  22  35  52  77 119 169 227 277 323 381
#     4  11  21  40  60  89 130 173 227 275 329 393
#     4  12  24  40  50  82 121 182 253 283 315 375
#     4  12  26  40  58  81 130 192 238 297 321 372
#     4  10  21  39  60  92 127 162 213 274 333 401
#
# _framework density 19.660961
#
# number of rings (size 3 to 8) (size 9 to 14) (size 15 to 20)
#    0.000    0.640    5.600    5.520    2.240    0.000 
#    0.000    0.000    0.000    0.480    0.000    1.120 
#    0.000    0.000    0.000    0.000    0.000    0.000 
#
# Total GULP energy -278532.647401 kJ/mol
# GULP energy per Si atom -5570.652948 kJ/mol
# Density = 1.961621 g / cm^3
# Si number density = 19.660961 Si / 1000 Ang^3
#
#
#
# Elastic Constant Matrix: (Units=GPa)
#
#
# Indices 1 2 3 4 5 6 
#
# 1 101.4666 28.5698 4.6845 0.0000 0.0000 0.0000
# 2 28.5698 88.4749 19.2626 0.0000 0.0000 0.0000
# 3 4.6845 19.2626 88.5017 0.0000 0.0000 0.0000
# 4 0.0000 0.0000 0.0000 6.3516 0.0000 0.0000
# 5 0.0000 0.0000 0.0000 0.0000 20.8075 0.0000
# 6 0.0000 0.0000 0.0000 0.0000 0.0000 28.1723
#
#
#
# Elastic Compliance Matrix: (Units=1/GPa)
#
#
# Indices 1 2 3 4 5 6 
#
# 1 0.010844 -0.003545 0.000198 0.000000 0.000000 0.000000
# 2 -0.003545 0.013024 -0.002647 0.000000 0.000000 0.000000
# 3 0.000198 -0.002647 0.011865 0.000000 0.000000 0.000000
# 4 0.000000 0.000000 0.000000 0.157441 0.000000 0.000000
# 5 0.000000 0.000000 0.000000 0.000000 0.048060 0.000000
# 6 0.000000 0.000000 0.000000 0.000000 0.000000 0.035496
#
#
# Mechanical properties :
#
#
# Convention : Reuss Voigt Hill
#
# Bulk Modulus (GPa) = 42.11526 42.60857 42.36192
# Shear Modulus (GPa) = 16.85585 26.12802 21.49193
#
# Velocity S-wave (km/s) = 2.93119 3.64940 3.30983
# Velocity P-wave (km/s) = 5.73786 6.28301 6.01661
#
# Compressibility (1/GPa) = 0.02374436
#
# Stress axis : x y z
#
# Youngs Moduli (GPa) = 92.21307 76.78357 84.28231
#
# Poissons Ratio (x) = 0.27219 -0.01665
# Poissons Ratio (y) = 0.32688 0.22309
# Poissons Ratio (z) = -0.01821 0.20325
#
# Static dielectric constant tensor:
#      x y z
#    x 1.793480 0.000000 0.000000 
#    y 0.000000 1.782050 0.000000 
#    z 0.000000 0.000000 1.747150 
# 
# From -- ./inp_files/36289.got.cif
#   From: 2010.05.17/outbox.cif.g08.bks.cpg/sg72_19_cif.got.tgz:36289.got - 2010.06.03 17:03:01.
