data_PCOD9527175
_publ_section_title
;
Structure prediction by ZEFSAII (Michael W. Deem and Ramdas Pophale) SiO2 
 PCOD9527175
Probable space group: I B A M
;
_chemical_formula_sum "Si O2"
_cell_formula_units_Z 84
_cell_length_a 16.640582
_cell_length_b 26.248932
_cell_length_c 10.618026
_cell_angle_alpha 90.000000
_cell_angle_beta 90.000000
_cell_angle_gamma 90.000000
_cell_volume 4637.927269
_symmetry_space_group_name_H-M "I B A M"
_symmetry_group_IT_number 72
_symmetry_cell_setting 'orthorhombic'
loop_
_space_group_symop_operation_xyz
x,y,z
-x,-y,z
x,-y,1/2-z
-x,y,1/2-z
-x,-y,-z
x,y,-z
-x,y,1/2+z
x,-y,1/2+z
1/2+x,1/2+y,1/2+z
1/2-x,1/2-y,1/2+z
1/2+x,1/2-y,-z
1/2-x,1/2+y,-z
1/2-x,1/2-y,1/2-z
1/2+x,1/2+y,1/2-z
1/2-x,1/2+y,z
1/2+x,1/2-y,z
loop_
_atom_site_type_symbol
_atom_site_label
_atom_site_fract_x
_atom_site_fract_y
_atom_site_fract_z
Si Si1 0.868647 0.578731 0.649610
Si Si2 0.057222 0.120007 0.862277
Si Si3 0.000000 0.500000 0.750000
Si Si4 0.649672 0.722885 0.357238
Si Si5 0.804846 0.961962 0.855306
Si Si6 0.163748 0.693242 0.851203
O O1 0.864300 0.582748 0.500000
O O2 0.783591 0.554916 0.689151
O O3 0.869595 0.637929 0.691536
O O4 0.940083 0.539800 0.681187
O O5 0.084865 0.178211 0.848853
O O6 0.137416 0.086461 0.859639
O O7 0.000000 0.104752 0.750000
O O8 0.018896 0.112958 0.000000
O O9 0.646927 0.744880 0.500000
O O10 0.738567 0.697262 0.344630
O O11 0.636603 0.763578 0.246891
O O12 0.837164 0.000000 0.750000
O O13 0.800196 0.982114 0.000000
O O14 0.142960 0.701738 0.000000
#
# Coordination Sequence:
#
# PCOD9527175 Si02
#       6
#    16  16   4  16  16  16
#     4  10  20  37  58  81 112 149 190 232 285 340
#     4  10  21  37  58  81 115 152 189 234 285 339
#     4  12  22  36  60  86 114 148 198 240 288 344
#     4   9  17  33  56  83 110 144 188 232 279 335
#     4  10  20  38  60  82 110 150 188 230 283 338
#     4   9  17  33  58  82 110 147 186 230 281 338
#
# _framework density 18.111539
#
# number of rings (size 3 to 8) (size 9 to 14) (size 15 to 20)
#    0.000    2.286    2.857    0.286    0.000    1.905 
#    1.714    4.762    0.000    0.000    0.000    0.000 
#    0.000    0.000    0.000    0.000    0.000    0.000 
#
# Total GULP energy -233849.445199 kJ/mol
# GULP energy per Si atom -5567.843933 kJ/mol
# Density = 1.807032 g / cm^3
# Si number density = 18.111539 Si / 1000 Ang^3
#
#
#
# Elastic Constant Matrix: (Units=GPa)
#
#
# Indices 1 2 3 4 5 6 
#
# 1 47.9756 13.5264 23.6200 0.0000 0.0000 0.0000
# 2 13.5264 105.0390 53.4179 -0.0001 0.0000 0.0000
# 3 23.6200 53.4179 85.9829 -0.0004 -0.0002 0.0000
# 4 0.0000 -0.0001 -0.0004 19.2210 -0.0001 0.0000
# 5 0.0000 0.0000 -0.0002 -0.0001 20.1910 0.0000
# 6 0.0000 0.0000 0.0000 0.0000 0.0000 28.4563
#
#
#
# Elastic Compliance Matrix: (Units=1/GPa)
#
#
# Indices 1 2 3 4 5 6 
#
# 1 0.024115 0.000385 -0.006864 0.000000 0.000000 0.000000
# 2 0.000385 0.013924 -0.008756 0.000000 0.000000 0.000000
# 3 -0.006864 -0.008756 0.018955 0.000000 0.000000 0.000000
# 4 0.000000 0.000000 0.000000 0.052026 0.000000 0.000000
# 5 0.000000 0.000000 0.000000 0.000000 0.049527 0.000000
# 6 0.000000 0.000000 0.000000 0.000000 0.000000 0.035142
#
#
# Mechanical properties :
#
#
# Convention : Reuss Voigt Hill
#
# Bulk Modulus (GPa) = 37.70084 46.68066 42.19075
# Shear Modulus (GPa) = 21.45932 23.46922 22.46427
#
# Velocity S-wave (km/s) = 3.44589 3.60365 3.52565
# Velocity P-wave (km/s) = 6.05750 6.56848 6.31816
#
# Compressibility (1/GPa) = 0.02652460
#
# Stress axis : x y z
#
# Youngs Moduli (GPa) = 41.46873 71.82081 52.75523
#
# Poissons Ratio (x) = -0.02767 0.36210
# Poissons Ratio (y) = -0.01597 0.46192
# Poissons Ratio (z) = 0.28463 0.62886
#
# Static dielectric constant tensor:
#      x y z
#    x 1.643190 0.000000 0.000000 
#    y 0.000000 1.650650 0.000000 
#    z 0.000000 0.000000 1.607170 
# 
# From -- ./inp_files/12854.got.cif
#   From: 2010.05.17/outbox.cif.g08.bks.cpg/sg72_7_cif.got.tgz:12854.got - 2010.06.03 17:03:01.
