data_PCOD9527158
_publ_section_title
;
Structure prediction by ZEFSAII (Michael W. Deem and Ramdas Pophale) SiO2 
 PCOD9527158
Probable space group: I B A M
;
_chemical_formula_sum "Si O2"
_cell_formula_units_Z 104
_cell_length_a 17.261901
_cell_length_b 13.044375
_cell_length_c 22.639081
_cell_angle_alpha 90.000000
_cell_angle_beta 90.000000
_cell_angle_gamma 90.000000
_cell_volume 5097.657939
_symmetry_space_group_name_H-M "I B A M"
_symmetry_group_IT_number 72
_symmetry_cell_setting 'orthorhombic'
loop_
_space_group_symop_operation_xyz
x,y,z
-x,-y,z
x,-y,1/2-z
-x,y,1/2-z
-x,-y,-z
x,y,-z
-x,y,1/2+z
x,-y,1/2+z
1/2+x,1/2+y,1/2+z
1/2-x,1/2-y,1/2+z
1/2+x,1/2-y,-z
1/2-x,1/2+y,-z
1/2-x,1/2-y,1/2-z
1/2+x,1/2+y,1/2-z
1/2-x,1/2+y,z
1/2+x,1/2-y,z
loop_
_atom_site_type_symbol
_atom_site_label
_atom_site_fract_x
_atom_site_fract_y
_atom_site_fract_z
Si Si1 0.796813 0.618837 0.500000
Si Si2 0.864705 0.830084 0.683302
Si Si3 0.136673 0.190736 0.820858
Si Si4 0.581009 0.731106 0.000000
Si Si5 0.799988 0.370446 0.133279
Si Si6 0.998125 0.887756 0.398599
Si Si7 0.247890 0.113725 0.500000
Si Si8 0.699062 0.892556 0.368458
O O1 0.888555 0.651508 0.500000
O O2 0.777484 0.657391 0.434332
O O3 0.754739 0.509359 0.500000
O O4 0.881169 0.825914 0.752461
O O5 0.859058 0.713695 0.658070
O O6 0.931843 0.891010 0.650967
O O7 0.782339 0.879101 0.664130
O O8 0.221830 0.143576 0.829971
O O9 0.143818 0.311038 0.836963
O O10 0.077214 0.140623 0.866275
O O11 0.530535 0.697699 0.944300
O O12 0.661262 0.662159 0.000000
O O13 0.825484 0.488663 0.134366
O O14 0.000000 0.000000 0.427408
O O15 0.289243 0.137750 0.437526
#
# Coordination Sequence:
#
# PCOD9527158 Si02
#       8
#     8  16  16   8  16  16   8  16
#     4  10  20  36  69  89 118 158 191 254 318 351
#     4  11  22  40  59  85 127 165 202 248 308 362
#     4  11  25  37  58  92 120 163 209 248 301 368
#     4  12  21  44  64  93 126 160 197 255 316 374
#     4  10  20  38  66  89 120 153 205 260 312 353
#     4  12  26  41  61  88 124 164 197 250 308 374
#     4  10  20  36  67  96 118 152 202 250 317 362
#     4  10  20  38  64  94 117 155 208 260 303 364
#
# _framework density 20.401526
#
# number of rings (size 3 to 8) (size 9 to 14) (size 15 to 20)
#    0.000    1.231    3.077    4.385    2.154    6.154 
#    0.000    0.769    0.000    3.692    0.000    0.000 
#    0.000    0.000    0.000    0.000    0.000    0.000 
#
# Total GULP energy -290004.698445 kJ/mol
# GULP energy per Si atom -5577.013432 kJ/mol
# Density = 2.035509 g / cm^3
# Si number density = 20.401526 Si / 1000 Ang^3
#
#
#
# Elastic Constant Matrix: (Units=GPa)
#
#
# Indices 1 2 3 4 5 6 
#
# 1 29.3825 -0.5887 -15.4817 0.0000 0.0000 0.0000
# 2 -0.5887 93.6076 -11.4742 0.0000 0.0000 0.0000
# 3 -15.4817 -11.4742 92.6387 0.0000 0.0000 0.0000
# 4 0.0000 0.0000 0.0000 -3.0476 0.0000 0.0000
# 5 0.0000 0.0000 0.0000 0.0000 40.2659 0.0000
# 6 0.0000 0.0000 0.0000 0.0000 0.0000 20.2355
#
#
#
# Elastic Compliance Matrix: (Units=1/GPa)
#
#
# Indices 1 2 3 4 5 6 
#
# 1 0.037415 0.001017 0.006379 0.000000 0.000000 0.000000
# 2 0.001017 0.010875 0.001517 0.000000 0.000000 0.000000
# 3 0.006379 0.001517 0.012049 0.000000 0.000000 0.000000
# 4 0.000000 0.000000 0.000000 -0.328132 0.000000 0.000000
# 5 0.000000 0.000000 0.000000 0.000000 0.024835 0.000000
# 6 0.000000 0.000000 0.000000 0.000000 0.000000 0.049418
#
#
# Mechanical properties :
#
#
# Convention : Reuss Voigt Hill
#
# Bulk Modulus (GPa) = 12.79346 17.83774 15.31560
# Shear Modulus (GPa) = -26.98161 27.70232 0.36036
#
# Velocity S-wave (km/s) = -3.64060 3.68891 0.42073
# Velocity P-wave (km/s) = 3.37454 5.18713 2.78557
#
# Compressibility (1/GPa) = 0.07816491
#
# Stress axis : x y z
#
# Youngs Moduli (GPa) = 26.72712 91.95198 82.99762
#
# Poissons Ratio (x) = -0.09353 -0.52942
# Poissons Ratio (y) = -0.02719 -0.12591
# Poissons Ratio (z) = -0.17049 -0.13949
#
# Static dielectric constant tensor:
#      x y z
#    x 1.694230 0.000000 0.000000 
#    y 0.000000 1.801110 0.000000 
#    z 0.000000 0.000000 1.752680 
# 
# From -- ./inp_files/38307.got.cif
#   From: 2010.05.17/outbox.cif.g08.bks.cpg/sg72_20_cif.got.tgz:38307.got - 2010.06.03 17:03:01.
