data_PCOD9527528
_publ_section_title
;
Structure prediction by ZEFSAII (Michael W. Deem and Ramdas Pophale) SiO2 
 PCOD9527528
Probable space group: I B A M
;
_chemical_formula_sum "Si O2"
_cell_formula_units_Z 96
_cell_length_a 25.860712
_cell_length_b 25.311364
_cell_length_c 9.977846
_cell_angle_alpha 90.000000
_cell_angle_beta 90.000000
_cell_angle_gamma 90.000000
_cell_volume 6531.197606
_symmetry_space_group_name_H-M "I B A M"
_symmetry_group_IT_number 72
_symmetry_cell_setting 'orthorhombic'
loop_
_space_group_symop_operation_xyz
x,y,z
-x,-y,z
x,-y,1/2-z
-x,y,1/2-z
-x,-y,-z
x,y,-z
-x,y,1/2+z
x,-y,1/2+z
1/2+x,1/2+y,1/2+z
1/2-x,1/2-y,1/2+z
1/2+x,1/2-y,-z
1/2-x,1/2+y,-z
1/2-x,1/2-y,1/2-z
1/2+x,1/2+y,1/2-z
1/2-x,1/2+y,z
1/2+x,1/2-y,z
loop_
_atom_site_type_symbol
_atom_site_label
_atom_site_fract_x
_atom_site_fract_y
_atom_site_fract_z
Si Si1 0.702692 0.728546 0.342810
Si Si2 0.104474 0.419383 0.000000
Si Si3 0.403750 0.041695 0.000000
Si Si4 0.271566 0.082658 0.500000
Si Si5 0.060488 0.378266 0.274502
Si Si6 0.778024 0.460147 0.000000
Si Si7 0.243542 0.626004 0.788400
Si Si8 0.645150 0.798686 0.152957
O O1 0.705602 0.744265 0.500000
O O2 0.750000 0.750000 0.250000
O O3 0.711258 0.665757 0.333681
O O4 0.654347 0.754149 0.265529
O O5 0.084215 0.479680 0.000000
O O6 0.085259 0.390901 0.868029
O O7 0.166192 0.417667 0.000000
O O8 0.426556 0.072645 0.127459
O O9 0.340944 0.043584 0.000000
O O10 0.253386 0.112430 0.367291
O O11 0.259267 0.020302 0.500000
O O12 0.090539 0.327922 0.333759
O O13 0.000000 0.371005 0.250000
O O14 0.758655 0.427750 0.128307
O O15 0.189637 0.656820 0.820891
O O16 0.652728 0.779511 0.000000
#
# Coordination Sequence:
#
# PCOD9527528 Si02
#       8
#    16   8   8   8  16   8  16  16
#     4  10  21  31  51  71  90 116 147 191 241 280
#     4  11  23  34  50  66  85 121 165 209 237 293
#     4  11  21  38  48  62  89 123 163 201 253 281
#     4  11  22  27  50  72  90 124 159 190 232 284
#     4  12  23  35  50  66  89 120 154 205 258 291
#     4  11  18  35  48  64  94 128 155 192 240 274
#     4  11  18  33  48  67  93 116 150 194 231 275
#     4  11  21  36  49  66  90 117 153 201 243 290
#
# _framework density 14.698683000000001
#
# number of rings (size 3 to 8) (size 9 to 14) (size 15 to 20)
#    0.000    1.000    5.833    3.000    7.000    4.667 
#    0.000    0.000    0.000    0.000    0.000    0.000 
#    0.000    0.000    0.000    0.000    0.000    5.000 
#
# Total GULP energy -267826.011780 kJ/mol
# GULP energy per Si atom -5579.708579 kJ/mol
# Density = 1.466523 g / cm^3
# Si number density = 14.698683 Si / 1000 Ang^3
#
#
#
# Elastic Constant Matrix: (Units=GPa)
#
#
# Indices 1 2 3 4 5 6 
#
# 1 24.9788 18.8650 10.5584 0.0000 0.0000 0.0000
# 2 18.8650 47.3926 24.4508 0.0000 0.0000 0.0000
# 3 10.5584 24.4508 140.4044 0.0000 0.0000 0.0000
# 4 0.0000 0.0000 0.0000 25.9036 0.0000 0.0000
# 5 0.0000 0.0000 0.0000 0.0000 17.5630 0.0000
# 6 0.0000 0.0000 0.0000 0.0000 0.0000 13.4993
#
#
#
# Elastic Compliance Matrix: (Units=1/GPa)
#
#
# Indices 1 2 3 4 5 6 
#
# 1 0.057260 -0.022602 -0.000370 0.000000 0.000000 0.000000
# 2 -0.022602 0.032105 -0.003891 0.000000 0.000000 0.000000
# 3 -0.000370 -0.003891 0.007828 0.000000 0.000000 0.000000
# 4 0.000000 0.000000 0.000000 0.038605 0.000000 0.000000
# 5 0.000000 0.000000 0.000000 0.000000 0.056938 0.000000
# 6 0.000000 0.000000 0.000000 0.000000 0.000000 0.074078
#
#
# Mechanical properties :
#
#
# Convention : Reuss Voigt Hill
#
# Bulk Modulus (GPa) = 23.00629 35.61381 29.31005
# Shear Modulus (GPa) = 14.92411 21.98662 18.45537
#
# Velocity S-wave (km/s) = 3.18989 3.87178 3.54726
# Velocity P-wave (km/s) = 5.40862 6.65353 6.06311
#
# Compressibility (1/GPa) = 0.04346638
#
# Stress axis : x y z
#
# Youngs Moduli (GPa) = 17.46415 31.14796 127.75064
#
# Poissons Ratio (x) = 0.70401 0.04725
# Poissons Ratio (y) = 0.39473 0.49711
# Poissons Ratio (z) = 0.00646 0.12120
#
# Static dielectric constant tensor:
#      x y z
#    x 1.481480 0.000000 0.000000 
#    y 0.000000 1.509850 0.000000 
#    z 0.000000 0.000000 1.515290 
# 
# From -- ./inp_files/7161.got.cif
#   From: 2010.05.17/outbox.cif.g08.bks.cpg/sg72_4_cif.got.tgz:7161.got - 2010.06.03 17:03:01.
