data_PCOD9527600
_publ_section_title
;
Structure prediction by ZEFSAII (Michael W. Deem and Ramdas Pophale) SiO2 
 PCOD9527600
Probable space group: I B A M
;
_chemical_formula_sum "Si O2"
_cell_formula_units_Z 116
_cell_length_a 32.177651
_cell_length_b 22.583902
_cell_length_c 8.531176
_cell_angle_alpha 90.000000
_cell_angle_beta 90.000000
_cell_angle_gamma 90.000000
_cell_volume 6199.579296
_symmetry_space_group_name_H-M "I B A M"
_symmetry_group_IT_number 72
_symmetry_cell_setting 'orthorhombic'
loop_
_space_group_symop_operation_xyz
x,y,z
-x,-y,z
x,-y,1/2-z
-x,y,1/2-z
-x,-y,-z
x,y,-z
-x,y,1/2+z
x,-y,1/2+z
1/2+x,1/2+y,1/2+z
1/2-x,1/2-y,1/2+z
1/2+x,1/2-y,-z
1/2-x,1/2+y,-z
1/2-x,1/2-y,1/2-z
1/2+x,1/2+y,1/2-z
1/2-x,1/2+y,z
1/2+x,1/2-y,z
loop_
_atom_site_type_symbol
_atom_site_label
_atom_site_fract_x
_atom_site_fract_y
_atom_site_fract_z
Si Si1 0.500000 0.000000 0.250000
Si Si2 0.564320 0.908381 0.809966
Si Si3 0.217892 0.669531 0.312748
Si Si4 0.806260 0.198280 0.687320
Si Si5 0.604891 0.333328 0.687896
Si Si6 0.454528 0.227877 0.187994
Si Si7 0.045097 0.933617 0.686705
Si Si8 0.838880 0.564723 0.313854
O O1 0.465153 0.049609 0.294491
O O2 0.555869 0.839995 0.771147
O O3 0.612350 0.923175 0.782639
O O4 0.555414 0.918171 0.000000
O O5 0.221431 0.670693 0.500000
O O6 0.198527 0.732829 0.261526
O O7 0.263964 0.666657 0.241121
O O8 0.188955 0.615878 0.260920
O O9 0.808973 0.196811 0.500000
O O10 0.847713 0.170917 0.758468
O O11 0.603205 0.335497 0.500000
O O12 0.580104 0.274386 0.742722
O O13 0.580486 0.389379 0.755433
O O14 0.500000 0.243669 0.250000
O O15 0.455410 0.230470 0.000000
O O16 0.043577 0.935064 0.500000
O O17 0.000000 0.913478 0.750000
O O18 0.051853 0.000000 0.750000
O O19 0.828097 0.500000 0.250000
O O20 0.833127 0.566250 0.500000
#
# Coordination Sequence:
#
# PCOD9527600 Si02
#       8
#     4  16  16  16  16  16  16  16
#     4  12  18  36  56  74 112 156 208 248 294 336
#     4  10  21  35  53  78 111 154 201 247 295 341
#     4  10  21  39  62  88 116 149 190 236 291 353
#     4  10  21  38  62  90 117 149 189 236 290 349
#     4  11  22  37  59  87 121 157 194 240 296 350
#     4  10  21  36  53  78 113 154 197 243 291 339
#     4  11  22  39  62  88 120 157 200 241 287 348
#     4  11  22  38  58  83 114 151 195 243 294 347
#
# _framework density 18.710947000000001
#
# number of rings (size 3 to 8) (size 9 to 14) (size 15 to 20)
#    0.000    1.517    1.379    4.759    0.000    4.966 
#    0.000    2.069    0.000    0.000    0.000    0.000 
#    0.000    0.000    0.000    0.000    0.000    0.000 
#
# Total GULP energy -323825.109692 kJ/mol
# GULP energy per Si atom -5583.191546 kJ/mol
# Density = 1.866836 g / cm^3
# Si number density = 18.710947 Si / 1000 Ang^3
#
#
#
# Elastic Constant Matrix: (Units=GPa)
#
#
# Indices 1 2 3 4 5 6 
#
# 1 142.0783 75.4241 44.0835 0.0000 0.0000 0.0000
# 2 75.4241 90.3528 32.1637 0.0000 0.0000 0.0000
# 3 44.0835 32.1637 64.2918 0.0000 0.0000 0.0000
# 4 0.0000 0.0000 0.0000 12.1413 0.0000 0.0000
# 5 0.0000 0.0000 0.0000 0.0000 25.9238 0.0000
# 6 0.0000 0.0000 0.0000 0.0000 0.0000 8.2487
#
#
#
# Elastic Compliance Matrix: (Units=1/GPa)
#
#
# Indices 1 2 3 4 5 6 
#
# 1 0.013606 -0.009778 -0.004438 0.000000 0.000000 0.000000
# 2 -0.009778 0.020493 -0.003547 0.000000 0.000000 0.000000
# 3 -0.004438 -0.003547 0.020372 0.000000 0.000000 0.000000
# 4 0.000000 0.000000 0.000000 0.082363 0.000000 0.000000
# 5 0.000000 0.000000 0.000000 0.000000 0.038575 0.000000
# 6 0.000000 0.000000 0.000000 0.000000 0.000000 0.121231
#
#
# Mechanical properties :
#
#
# Convention : Reuss Voigt Hill
#
# Bulk Modulus (GPa) = 52.78675 66.67392 59.73034
# Shear Modulus (GPa) = 14.77184 18.93288 16.85236
#
# Velocity S-wave (km/s) = 2.81281 3.18443 3.00437
# Velocity P-wave (km/s) = 6.23074 7.01654 6.63528
#
# Compressibility (1/GPa) = 0.01894415
#
# Stress axis : x y z
#
# Youngs Moduli (GPa) = 73.49550 48.79636 49.08806
#
# Poissons Ratio (x) = 0.47715 0.21783
# Poissons Ratio (y) = 0.71867 0.17414
# Poissons Ratio (z) = 0.32614 0.17310
#
# Static dielectric constant tensor:
#      x y z
#    x 1.613140 0.000000 0.000000 
#    y 0.000000 1.480910 0.000000 
#    z 0.000000 0.000000 1.659770 
# 
# From -- ./inp_files/8395.got.cif
#   From: 2010.05.17/outbox.cif.g08.bks.cpg/sg72_5_cif.got.tgz:8395.got - 2010.06.03 17:03:01.
