data_PCOD9527634
_publ_section_title
;
Structure prediction by ZEFSAII (Michael W. Deem and Ramdas Pophale) SiO2 
 PCOD9527634
Probable space group: I B A M
;
_chemical_formula_sum "Si O2"
_cell_formula_units_Z 104
_cell_length_a 16.269637
_cell_length_b 22.240108
_cell_length_c 14.480771
_cell_angle_alpha 90.000000
_cell_angle_beta 90.000000
_cell_angle_gamma 90.000000
_cell_volume 5239.700226
_symmetry_space_group_name_H-M "I B A M"
_symmetry_group_IT_number 72
_symmetry_cell_setting 'orthorhombic'
loop_
_space_group_symop_operation_xyz
x,y,z
-x,-y,z
x,-y,1/2-z
-x,y,1/2-z
-x,-y,-z
x,y,-z
-x,y,1/2+z
x,-y,1/2+z
1/2+x,1/2+y,1/2+z
1/2-x,1/2-y,1/2+z
1/2+x,1/2-y,-z
1/2-x,1/2+y,-z
1/2-x,1/2-y,1/2-z
1/2+x,1/2+y,1/2-z
1/2-x,1/2+y,z
1/2+x,1/2-y,z
loop_
_atom_site_type_symbol
_atom_site_label
_atom_site_fract_x
_atom_site_fract_y
_atom_site_fract_z
Si Si1 0.382187 0.722577 0.893106
Si Si2 0.294372 0.289921 0.898697
Si Si3 0.733974 0.000000 0.750000
Si Si4 0.142242 0.336323 0.392369
Si Si5 0.908930 0.472833 0.389074
Si Si6 0.300783 0.627638 0.222978
Si Si7 0.037686 0.343348 0.112595
O O1 0.292187 0.754397 0.893589
O O2 0.371719 0.660895 0.836932
O O3 0.436314 0.777501 0.853584
O O4 0.404380 0.710390 0.000000
O O5 0.359826 0.236267 0.889288
O O6 0.300266 0.337136 0.818777
O O7 0.300325 0.317561 0.000000
O O8 0.669199 0.999448 0.664238
O O9 0.793191 0.942544 0.758146
O O10 0.155439 0.352960 0.500000
O O11 0.216552 0.357878 0.331143
O O12 0.054717 0.359315 0.359646
O O13 0.900816 0.480013 0.500000
O O14 0.908230 0.401392 0.365456
O O15 0.000000 0.500000 0.365622
O O16 0.038115 0.338807 0.000000
#
# Coordination Sequence:
#
# PCOD9527634 Si02
#       7
#    16  16   8  16  16  16  16
#     4   9  17  31  52  75 100 127 160 209 262 308
#     4   9  18  33  50  69  96 130 166 207 255 301
#     4  12  25  34  48  70  97 138 186 214 238 298
#     4   9  17  31  54  81 106 129 158 201 253 310
#     4  10  21  36  51  71 106 144 172 203 245 298
#     4  11  21  34  48  70 101 136 174 213 256 298
#     4   9  17  31  53  81 108 134 165 203 253 311
#
# _framework density 19.848464
#
# number of rings (size 3 to 8) (size 9 to 14) (size 15 to 20)
#    0.000    2.308    0.000    5.308    0.000    4.308 
#    0.000    6.154    0.000    0.000    0.000    2.154 
#    0.000    4.923    0.000    0.000    0.000    0.000 
#
# Total GULP energy -290214.407846 kJ/mol
# GULP energy per Si atom -5581.046305 kJ/mol
# Density = 1.980329 g / cm^3
# Si number density = 19.848464 Si / 1000 Ang^3
#
#
#
# Elastic Constant Matrix: (Units=GPa)
#
#
# Indices 1 2 3 4 5 6 
#
# 1 8.1446 -1.5282 -2.5938 0.0000 0.0000 0.0000
# 2 -1.5282 96.9138 37.9538 0.0000 0.0000 0.0000
# 3 -2.5938 37.9538 82.6872 0.0000 0.0000 0.0000
# 4 0.0000 0.0000 0.0000 5.0188 0.0000 0.0000
# 5 0.0000 0.0000 0.0000 0.0000 27.6860 0.0000
# 6 0.0000 0.0000 0.0000 0.0000 0.0000 26.6882
#
#
#
# Elastic Compliance Matrix: (Units=1/GPa)
#
#
# Indices 1 2 3 4 5 6 
#
# 1 0.124042 0.000527 0.003649 0.000000 0.000000 0.000000
# 2 0.000527 0.012582 -0.005759 0.000000 0.000000 0.000000
# 3 0.003649 -0.005759 0.014851 0.000000 0.000000 0.000000
# 4 0.000000 0.000000 0.000000 0.199250 0.000000 0.000000
# 5 0.000000 0.000000 0.000000 0.000000 0.036119 0.000000
# 6 0.000000 0.000000 0.000000 0.000000 0.000000 0.037470
#
#
# Mechanical properties :
#
#
# Convention : Reuss Voigt Hill
#
# Bulk Modulus (GPa) = 6.74261 28.37879 17.56070
# Shear Modulus (GPa) = 10.48400 22.13953 16.31176
#
# Velocity S-wave (km/s) = 2.30076 3.34343 2.86984
# Velocity P-wave (km/s) = 3.23456 5.40679 4.45510
#
# Compressibility (1/GPa) = 0.14831051
#
# Stress axis : x y z
#
# Youngs Moduli (GPa) = 8.06177 79.47864 67.33327
#
# Poissons Ratio (x) = -0.04187 -0.24571
# Poissons Ratio (y) = -0.00425 0.38775
# Poissons Ratio (z) = -0.02942 0.45769
#
# Static dielectric constant tensor:
#      x y z
#    x 1.732440 0.000000 0.000000 
#    y 0.000000 1.741170 0.000000 
#    z 0.000000 0.000000 1.737500 
# 
# From -- ./inp_files/23486.got.cif
#   From: 2010.05.17/outbox.cif.g08.bks.cpg/sg72_12_cif.got.tgz:23486.got - 2010.06.03 17:03:01.
