data_PCOD9527936
_publ_section_title
;
Structure prediction by ZEFSAII (Michael W. Deem and Ramdas Pophale) SiO2 
 PCOD9527936
Probable space group: I B A M
;
_chemical_formula_sum "Si O2"
_cell_formula_units_Z 112
_cell_length_a 13.123883
_cell_length_b 12.689553
_cell_length_c 28.121652
_cell_angle_alpha 90.000000
_cell_angle_beta 90.000000
_cell_angle_gamma 90.000000
_cell_volume 4683.273312
_symmetry_space_group_name_H-M "I B A M"
_symmetry_group_IT_number 72
_symmetry_cell_setting 'orthorhombic'
loop_
_space_group_symop_operation_xyz
x,y,z
-x,-y,z
x,-y,1/2-z
-x,y,1/2-z
-x,-y,-z
x,y,-z
-x,y,1/2+z
x,-y,1/2+z
1/2+x,1/2+y,1/2+z
1/2-x,1/2-y,1/2+z
1/2+x,1/2-y,-z
1/2-x,1/2+y,-z
1/2-x,1/2-y,1/2-z
1/2+x,1/2+y,1/2-z
1/2-x,1/2+y,z
1/2+x,1/2-y,z
loop_
_atom_site_type_symbol
_atom_site_label
_atom_site_fract_x
_atom_site_fract_y
_atom_site_fract_z
Si Si1 0.256846 0.327964 0.604794
Si Si2 0.061897 0.892953 0.553430
Si Si3 0.239987 0.632260 0.789603
Si Si4 0.696657 0.407796 0.686839
Si Si5 0.457863 0.164979 0.944025
Si Si6 0.463559 0.764782 0.303310
Si Si7 0.374115 0.143390 0.379571
O O1 0.344521 0.406723 0.589287
O O2 0.261146 0.307847 0.661199
O O3 0.147680 0.350247 0.583824
O O4 0.303921 0.218487 0.587176
O O5 0.104119 0.879400 0.500000
O O6 0.992901 0.788811 0.562190
O O7 0.000000 0.000000 0.555071
O O8 0.262570 0.652356 0.734312
O O9 0.310627 0.529167 0.798165
O O10 0.116299 0.638308 0.793892
O O11 0.596877 0.337954 0.675465
O O12 0.789136 0.419047 0.649310
O O13 0.546296 0.100329 0.917539
O O14 0.448396 0.144292 0.000000
O O15 0.500000 0.735250 0.250000
O O16 0.550779 0.803026 0.339525
#
# Coordination Sequence:
#
# PCOD9527936 Si02
#       7
#    16  16  16  16  16  16  16
#     4  11  21  37  61  91 127 168 207 267 319 381
#     4   9  20  38  62  91 124 164 214 271 328 388
#     4  11  23  40  63  94 126 167 209 259 318 384
#     4  11  24  42  64  93 130 166 218 264 316 387
#     4  10  21  38  62  91 121 165 216 260 326 391
#     4  12  22  41  67  90 129 173 212 266 316 378
#     4  11  21  38  64  88 125 167 215 251 327 374
#
# _framework density 23.914897
#
# number of rings (size 3 to 8) (size 9 to 14) (size 15 to 20)
#    0.000    1.286    4.286    1.714    0.000    4.571 
#    0.000    4.286    0.000    2.571    0.000    0.000 
#    0.000    0.000    0.000    0.000    0.000    0.000 
#
# Total GULP energy -311900.582204 kJ/mol
# GULP energy per Si atom -5569.653254 kJ/mol
# Density = 2.386047 g / cm^3
# Si number density = 23.914897 Si / 1000 Ang^3
#
#
#
# Elastic Constant Matrix: (Units=GPa)
#
#
# Indices 1 2 3 4 5 6 
#
# 1 74.9270 -7.9209 39.4826 0.0000 0.0000 0.0000
# 2 -7.9209 31.4190 -1.1335 0.0000 0.0000 0.0000
# 3 39.4826 -1.1335 141.9352 0.0000 0.0000 0.0000
# 4 0.0000 0.0000 0.0000 15.9870 0.0000 0.0000
# 5 0.0000 0.0000 0.0000 0.0000 37.1663 0.0000
# 6 0.0000 0.0000 0.0000 0.0000 0.0000 18.4642
#
#
#
# Elastic Compliance Matrix: (Units=1/GPa)
#
#
# Indices 1 2 3 4 5 6 
#
# 1 0.016102 0.003899 -0.004448 0.000000 0.000000 0.000000
# 2 0.003899 0.032781 -0.000823 0.000000 0.000000 0.000000
# 3 -0.004448 -0.000823 0.008276 0.000000 0.000000 0.000000
# 4 0.000000 0.000000 0.000000 0.062551 0.000000 0.000000
# 5 0.000000 0.000000 0.000000 0.000000 0.026906 0.000000
# 6 0.000000 0.000000 0.000000 0.000000 0.000000 0.054159
#
#
# Mechanical properties :
#
#
# Convention : Reuss Voigt Hill
#
# Bulk Modulus (GPa) = 18.37694 34.34862 26.36278
# Shear Modulus (GPa) = 22.55728 28.84704 25.70216
#
# Velocity S-wave (km/s) = 3.07454 3.47686 3.28187
# Velocity P-wave (km/s) = 4.50607 5.52378 5.04068
#
# Compressibility (1/GPa) = 0.05441601
#
# Stress axis : x y z
#
# Youngs Moduli (GPa) = 62.10233 30.50536 120.82768
#
# Poissons Ratio (x) = -0.11894 0.53746
# Poissons Ratio (y) = -0.24214 0.09942
# Poissons Ratio (z) = 0.27624 0.02510
#
# Static dielectric constant tensor:
#      x y z
#    x 1.955610 0.000000 0.000000 
#    y 0.000000 2.078800 0.000000 
#    z 0.000000 0.000000 1.961520 
# 
# From -- ./inp_files/51470.got.cif
#   From: 2010.05.17/outbox.cif.g08.bks.cpg/sg72_26_cif.got.tgz:51470.got - 2010.06.03 17:03:01.
