data_PCOD9527506
_publ_section_title
;
Structure prediction by ZEFSAII (Michael W. Deem and Ramdas Pophale) SiO2 
 PCOD9527506
Probable space group: I B A M
;
_chemical_formula_sum "Si O2"
_cell_formula_units_Z 92
_cell_length_a 10.975981
_cell_length_b 20.096352
_cell_length_c 20.238172
_cell_angle_alpha 90.000000
_cell_angle_beta 90.000000
_cell_angle_gamma 90.000000
_cell_volume 4464.078862
_symmetry_space_group_name_H-M "I B A M"
_symmetry_group_IT_number 72
_symmetry_cell_setting 'orthorhombic'
loop_
_space_group_symop_operation_xyz
x,y,z
-x,-y,z
x,-y,1/2-z
-x,y,1/2-z
-x,-y,-z
x,y,-z
-x,y,1/2+z
x,-y,1/2+z
1/2+x,1/2+y,1/2+z
1/2-x,1/2-y,1/2+z
1/2+x,1/2-y,-z
1/2-x,1/2+y,-z
1/2-x,1/2-y,1/2-z
1/2+x,1/2+y,1/2-z
1/2-x,1/2+y,z
1/2+x,1/2-y,z
loop_
_atom_site_type_symbol
_atom_site_label
_atom_site_fract_x
_atom_site_fract_y
_atom_site_fract_z
Si Si1 0.330852 0.158461 0.360944
Si Si2 0.616757 0.192039 0.000000
Si Si3 0.370365 0.428724 0.633531
Si Si4 0.500000 0.500000 0.750000
Si Si5 0.500000 0.169752 0.250000
Si Si6 0.873072 0.261778 0.000000
Si Si7 0.364339 0.429442 0.922474
Si Si8 0.296316 0.799286 0.355677
O O1 0.399511 0.154181 0.431292
O O2 0.411473 0.132569 0.300959
O O3 0.208401 0.118765 0.374091
O O4 0.293771 0.235630 0.348134
O O5 0.758307 0.212399 0.000000
O O6 0.518314 0.252418 0.000000
O O7 0.417860 0.454266 0.703901
O O8 0.324771 0.495662 0.597126
O O9 0.493772 0.414480 0.592035
O O10 0.280867 0.367401 0.644887
O O11 0.596066 0.205205 0.300743
O O12 0.850708 0.296416 0.070328
O O13 0.341741 0.420771 0.000000
#
# Coordination Sequence:
#
# PCOD9527506 Si02
#       8
#    16   8  16   4   8   8  16  16
#     4  11  24  43  65  95 135 175 217 273 337 392
#     4  10  20  42  63  90 131 173 219 269 333 400
#     4  10  23  41  68  98 132 170 225 269 336 395
#     4   8  20  42  66  90 138 176 216 272 330 394
#     4  12  26  43  61  94 136 178 228 262 328 399
#     4  10  22  40  65  92 131 169 223 273 337 390
#     4  10  22  43  70 100 130 168 219 284 334 395
#     4  11  26  41  68  94 136 174 220 275 328 403
#
# _framework density 20.608954000000001
#
# number of rings (size 3 to 8) (size 9 to 14) (size 15 to 20)
#    0.000    1.739    2.609    1.565    9.739    2.087 
#    0.000    1.739    0.000    2.087    0.000    0.000 
#    0.000    0.000    0.000    0.000    0.000    0.000 
#
# Total GULP energy -256189.706612 kJ/mol
# GULP energy per Si atom -5569.341448 kJ/mol
# Density = 2.056205 g / cm^3
# Si number density = 20.608954 Si / 1000 Ang^3
#
#
#
# Elastic Constant Matrix: (Units=GPa)
#
#
# Indices 1 2 3 4 5 6 
#
# 1 61.8404 53.2572 32.2465 0.0000 0.0000 0.0000
# 2 53.2572 94.6315 31.1594 0.0000 0.0000 0.0000
# 3 32.2465 31.1594 164.1557 0.0000 0.0000 0.0000
# 4 0.0000 0.0000 0.0000 13.9666 0.0000 0.0000
# 5 0.0000 0.0000 0.0000 0.0000 20.5830 0.0000
# 6 0.0000 0.0000 0.0000 0.0000 0.0000 -22.7767
#
#
#
# Elastic Compliance Matrix: (Units=1/GPa)
#
#
# Indices 1 2 3 4 5 6 
#
# 1 0.032828 -0.017442 -0.003138 0.000000 0.000000 0.000000
# 2 -0.017442 0.020539 -0.000472 0.000000 0.000000 0.000000
# 3 -0.003138 -0.000472 0.006798 0.000000 0.000000 0.000000
# 4 0.000000 0.000000 0.000000 0.071600 0.000000 0.000000
# 5 0.000000 0.000000 0.000000 0.000000 0.048584 0.000000
# 6 0.000000 0.000000 0.000000 0.000000 0.000000 -0.043905
#
#
# Mechanical properties :
#
#
# Convention : Reuss Voigt Hill
#
# Bulk Modulus (GPa) = 55.36984 61.55041 58.46012
# Shear Modulus (GPa) = 27.09035 15.95222 21.52128
#
# Velocity S-wave (km/s) = 3.62953 2.78518 3.23502
# Velocity P-wave (km/s) = 6.67007 6.34615 6.51013
#
# Compressibility (1/GPa) = 0.01806037
#
# Stress axis : x y z
#
# Youngs Moduli (GPa) = 30.46189 48.68825 147.10536
#
# Poissons Ratio (x) = 0.84921 0.46161
# Poissons Ratio (y) = 0.53131 0.06949
# Poissons Ratio (z) = 0.09559 0.02300
#
# Static dielectric constant tensor:
#      x y z
#    x 1.793630 0.000000 0.000000 
#    y 0.000000 1.767230 0.000000 
#    z 0.000000 0.000000 1.760140 
# 
# From -- ./inp_files/36944.got.cif
#   From: 2010.05.17/outbox.cif.g08.bks.cpg/sg72_19_cif.got.tgz:36944.got - 2010.06.03 17:03:01.
