data_PCOD9527679
_publ_section_title
;
Structure prediction by ZEFSAII (Michael W. Deem and Ramdas Pophale) SiO2 
 PCOD9527679
Probable space group: I B A M
;
_chemical_formula_sum "Si O2"
_cell_formula_units_Z 112
_cell_length_a 19.423511
_cell_length_b 10.506793
_cell_length_c 23.722240
_cell_angle_alpha 90.000000
_cell_angle_beta 90.000000
_cell_angle_gamma 90.000000
_cell_volume 4841.206496
_symmetry_space_group_name_H-M "I B A M"
_symmetry_group_IT_number 72
_symmetry_cell_setting 'orthorhombic'
loop_
_space_group_symop_operation_xyz
x,y,z
-x,-y,z
x,-y,1/2-z
-x,y,1/2-z
-x,-y,-z
x,y,-z
-x,y,1/2+z
x,-y,1/2+z
1/2+x,1/2+y,1/2+z
1/2-x,1/2-y,1/2+z
1/2+x,1/2-y,-z
1/2-x,1/2+y,-z
1/2-x,1/2-y,1/2-z
1/2+x,1/2+y,1/2-z
1/2-x,1/2+y,z
1/2+x,1/2-y,z
loop_
_atom_site_type_symbol
_atom_site_label
_atom_site_fract_x
_atom_site_fract_y
_atom_site_fract_z
Si Si1 0.881231 0.741506 0.197694
Si Si2 0.426622 0.003784 0.863220
Si Si3 0.235699 0.100093 0.698586
Si Si4 0.413052 0.369085 0.937411
Si Si5 0.588765 0.279598 0.683071
Si Si6 0.681851 0.420135 0.892651
Si Si7 0.816807 0.620256 0.561425
O O1 0.921952 0.622124 0.173571
O O2 0.804941 0.679750 0.209677
O O3 0.921401 0.803662 0.250246
O O4 0.866420 0.844088 0.149800
O O5 0.422853 0.129976 0.825116
O O6 0.361953 0.020224 0.903447
O O7 0.500000 0.000000 0.894221
O O8 0.170790 0.189444 0.683816
O O9 0.224167 0.000000 0.750000
O O10 0.232099 0.010161 0.644336
O O11 0.443531 0.349757 0.872548
O O12 0.365747 0.493844 0.931896
O O13 0.364836 0.244696 0.939440
O O14 0.449060 0.372183 0.000000
O O15 0.740214 0.336195 0.921506
O O16 0.808788 0.563168 0.500000
#
# Coordination Sequence:
#
# PCOD9527679 Si02
#       7
#    16  16  16  16  16  16  16
#     4  12  22  33  56  91 129 161 203 255 320 387
#     4  11  24  41  60  88 127 174 215 257 308 373
#     4  11  20  32  56  87 126 157 194 252 317 386
#     4   9  20  36  55  81 118 160 200 250 312 376
#     4  10  21  36  58  86 122 164 208 255 317 380
#     4  11  20  34  56  91 123 155 196 256 323 383
#     4  10  21  39  60  85 120 166 212 258 314 377
#
# _framework density 23.134730000000001
#
# number of rings (size 3 to 8) (size 9 to 14) (size 15 to 20)
#    0.000    1.429    2.857    4.714    2.000    1.429 
#    0.000    0.714    0.000    7.714    0.000    5.000 
#    0.000    0.000    0.000    0.000    0.000    0.000 
#
# Total GULP energy -311910.808671 kJ/mol
# GULP energy per Si atom -5569.835869 kJ/mol
# Density = 2.308207 g / cm^3
# Si number density = 23.134730 Si / 1000 Ang^3
#
#
#
# Elastic Constant Matrix: (Units=GPa)
#
#
# Indices 1 2 3 4 5 6 
#
# 1 77.2442 25.2696 30.8515 0.0000 0.0000 0.0000
# 2 25.2696 52.2378 12.1605 0.0000 0.0000 0.0000
# 3 30.8515 12.1605 102.8484 0.0000 0.0000 0.0000
# 4 0.0000 0.0000 0.0000 -73.2680 0.0000 0.0000
# 5 0.0000 0.0000 0.0000 0.0000 35.3741 0.0000
# 6 0.0000 0.0000 0.0000 0.0000 0.0000 -12.1440
#
#
#
# Elastic Compliance Matrix: (Units=1/GPa)
#
#
# Indices 1 2 3 4 5 6 
#
# 1 0.017011 -0.007240 -0.004247 0.000000 0.000000 0.000000
# 2 -0.007240 0.022767 -0.000520 0.000000 0.000000 0.000000
# 3 -0.004247 -0.000520 0.011058 0.000000 0.000000 0.000000
# 4 0.000000 0.000000 0.000000 -0.013649 0.000000 0.000000
# 5 0.000000 0.000000 0.000000 0.000000 0.028269 0.000000
# 6 0.000000 0.000000 0.000000 0.000000 0.000000 -0.082345
#
#
# Mechanical properties :
#
#
# Convention : Reuss Voigt Hill
#
# Bulk Modulus (GPa) = 37.28280 40.98818 39.13549
# Shear Modulus (GPa) = 311.21816 0.92899 156.07357
#
# Velocity S-wave (km/s) = 11.61104 0.63437 8.22249
# Velocity P-wave (km/s) = 13.99663 4.27694 10.34886
#
# Compressibility (1/GPa) = 0.02682202
#
# Stress axis : x y z
#
# Youngs Moduli (GPa) = 58.78682 43.92387 90.42899
#
# Poissons Ratio (x) = 0.31802 0.38402
# Poissons Ratio (y) = 0.42563 0.04703
# Poissons Ratio (z) = 0.24965 0.02284
#
# Static dielectric constant tensor:
#      x y z
#    x 1.889440 0.000000 0.000000 
#    y 0.000000 1.847710 0.000000 
#    z 0.000000 0.000000 2.046570 
# 
# From -- ./inp_files/45434.got.cif
#   From: 2010.05.17/outbox.cif.g08.bks.cpg/sg72_23_cif.got.tgz:45434.got - 2010.06.03 17:03:01.
