data_PCOD9527871
_publ_section_title
;
Structure prediction by ZEFSAII (Michael W. Deem and Ramdas Pophale) SiO2 
 PCOD9527871
Probable space group: I B A M
;
_chemical_formula_sum "Si O2"
_cell_formula_units_Z 116
_cell_length_a 16.841709
_cell_length_b 18.833970
_cell_length_c 17.402165
_cell_angle_alpha 90.000000
_cell_angle_beta 90.000000
_cell_angle_gamma 90.000000
_cell_volume 5519.901342
_symmetry_space_group_name_H-M "I B A M"
_symmetry_group_IT_number 72
_symmetry_cell_setting 'orthorhombic'
loop_
_space_group_symop_operation_xyz
x,y,z
-x,-y,z
x,-y,1/2-z
-x,y,1/2-z
-x,-y,-z
x,y,-z
-x,y,1/2+z
x,-y,1/2+z
1/2+x,1/2+y,1/2+z
1/2-x,1/2-y,1/2+z
1/2+x,1/2-y,-z
1/2-x,1/2+y,-z
1/2-x,1/2-y,1/2-z
1/2+x,1/2+y,1/2-z
1/2-x,1/2+y,z
1/2+x,1/2-y,z
loop_
_atom_site_type_symbol
_atom_site_label
_atom_site_fract_x
_atom_site_fract_y
_atom_site_fract_z
Si Si1 0.051286 0.311488 0.909767
Si Si2 0.328902 0.854487 0.790659
Si Si3 0.232125 0.051370 0.182413
Si Si4 0.886711 0.148772 0.413480
Si Si5 0.561061 0.603539 0.873556
Si Si6 0.268525 0.419404 0.915905
Si Si7 0.000000 0.000000 0.750000
Si Si8 0.574474 0.243074 0.691559
O O1 0.096644 0.362248 0.849353
O O2 0.094407 0.233040 0.901420
O O3 0.961224 0.302816 0.878905
O O4 0.054120 0.329493 0.000000
O O5 0.305502 0.911231 0.725558
O O6 0.258221 0.861625 0.852520
O O7 0.351697 0.786732 0.739070
O O8 0.170510 0.109478 0.147840
O O9 0.199097 0.000000 0.250000
O O10 0.256804 0.996441 0.115810
O O11 0.854200 0.140497 0.500000
O O12 0.974199 0.112878 0.410450
O O13 0.636275 0.577524 0.920197
O O14 0.549195 0.550424 0.804465
O O15 0.585307 0.679463 0.840778
O O16 0.236176 0.402708 0.000000
O O17 0.500000 0.245941 0.750000
#
# Coordination Sequence:
#
# PCOD9527871 Si02
#       8
#    16  16  16  16  16  16   4  16
#     4   9  19  37  63  90 117 148 187 237 300 360
#     4  10  22  38  59  86 119 155 195 245 298 346
#     4  10  23  37  56  83 117 159 201 245 292 348
#     4  10  21  38  58  83 120 159 198 244 290 341
#     4  11  23  34  59  86 123 158 205 239 287 336
#     4  11  24  40  58  82 118 160 203 243 294 356
#     4  12  24  32  54  92 124 160 198 240 280 328
#     4   9  19  38  61  90 117 149 193 247 296 353
#
# _framework density 21.014868
#
# number of rings (size 3 to 8) (size 9 to 14) (size 15 to 20)
#    0.000    1.931    0.690    2.069    7.724    2.759 
#    0.000    3.448    0.000   33.517    0.000   17.379 
#    0.000    0.000    0.000    0.000    0.000    0.000 
#
# Total GULP energy -323194.978558 kJ/mol
# GULP energy per Si atom -5572.327217 kJ/mol
# Density = 2.096704 g / cm^3
# Si number density = 21.014868 Si / 1000 Ang^3
#
#
#
# Elastic Constant Matrix: (Units=GPa)
#
#
# Indices 1 2 3 4 5 6 
#
# 1 58.7531 30.9909 42.1674 0.0000 0.0000 0.0000
# 2 30.9909 34.3368 45.0483 0.0000 0.0000 0.0000
# 3 42.1674 45.0483 142.2895 0.0000 0.0000 0.0000
# 4 0.0000 0.0000 0.0000 12.3372 0.0000 0.0000
# 5 0.0000 0.0000 0.0000 0.0000 -108.9090 0.0000
# 6 0.0000 0.0000 0.0000 0.0000 0.0000 37.4520
#
#
#
# Elastic Compliance Matrix: (Units=1/GPa)
#
#
# Indices 1 2 3 4 5 6 
#
# 1 0.032515 -0.028573 -0.000590 0.000000 0.000000 0.000000
# 2 -0.028573 0.074923 -0.015253 0.000000 0.000000 0.000000
# 3 -0.000590 -0.015253 0.012032 0.000000 0.000000 0.000000
# 4 0.000000 0.000000 0.000000 0.081056 0.000000 0.000000
# 5 0.000000 0.000000 0.000000 0.000000 -0.009182 0.000000
# 6 0.000000 0.000000 0.000000 0.000000 0.000000 0.026701
#
#
# Mechanical properties :
#
#
# Convention : Reuss Voigt Hill
#
# Bulk Modulus (GPa) = 32.63842 52.42141 42.52991
# Shear Modulus (GPa) = 15.76841 -4.01246 5.87798
#
# Velocity S-wave (km/s) = 2.74222 -1.38329 1.67425
# Velocity P-wave (km/s) = 5.05877 4.73791 4.90096
#
# Compressibility (1/GPa) = 0.03063874
#
# Stress axis : x y z
#
# Youngs Moduli (GPa) = 30.75465 13.34700 83.11424
#
# Poissons Ratio (x) = 0.38137 0.04901
# Poissons Ratio (y) = 0.87876 1.26772
# Poissons Ratio (z) = 0.01814 0.20358
#
# Static dielectric constant tensor:
#      x y z
#    x 1.782000 0.000000 0.000000 
#    y 0.000000 1.784180 0.000000 
#    z 0.000000 0.000000 1.800510 
# 
# From -- ./inp_files/31751.got.cif
#   From: 2010.05.17/outbox.cif.g08.bks.cpg/sg72_16_cif.got.tgz:31751.got - 2010.06.03 17:03:01.
