data_PCOD9527694
_publ_section_title
;
Structure prediction by ZEFSAII (Michael W. Deem and Ramdas Pophale) SiO2 
 PCOD9527694
Probable space group: I B A M
;
_chemical_formula_sum "Si O2"
_cell_formula_units_Z 88
_cell_length_a 30.034663
_cell_length_b 14.893020
_cell_length_c 10.598799
_cell_angle_alpha 90.000000
_cell_angle_beta 90.000000
_cell_angle_gamma 90.000000
_cell_volume 4740.915254
_symmetry_space_group_name_H-M "I B A M"
_symmetry_group_IT_number 72
_symmetry_cell_setting 'orthorhombic'
loop_
_space_group_symop_operation_xyz
x,y,z
-x,-y,z
x,-y,1/2-z
-x,y,1/2-z
-x,-y,-z
x,y,-z
-x,y,1/2+z
x,-y,1/2+z
1/2+x,1/2+y,1/2+z
1/2-x,1/2-y,1/2+z
1/2+x,1/2-y,-z
1/2-x,1/2+y,-z
1/2-x,1/2-y,1/2-z
1/2+x,1/2+y,1/2-z
1/2-x,1/2+y,z
1/2+x,1/2-y,z
loop_
_atom_site_type_symbol
_atom_site_label
_atom_site_fract_x
_atom_site_fract_y
_atom_site_fract_z
Si Si1 0.407777 0.010227 0.500000
Si Si2 0.547153 0.186817 0.500000
Si Si3 0.895727 0.255411 0.233935
Si Si4 0.249301 0.816718 0.866117
Si Si5 0.663764 0.915941 0.306573
Si Si6 0.942745 0.705052 0.000000
Si Si7 0.841303 0.920359 0.649260
O O1 0.374216 0.030204 0.384266
O O2 0.438973 0.096846 0.500000
O O3 0.436075 0.918568 0.500000
O O4 0.568005 0.227461 0.626734
O O5 0.495598 0.215107 0.500000
O O6 0.861967 0.340235 0.227396
O O7 0.917725 0.258944 0.374027
O O8 0.869825 0.164788 0.198866
O O9 0.250000 0.750000 0.750000
O O10 0.297894 0.860141 0.873368
O O11 0.210173 0.888834 0.848425
O O12 0.239629 0.769496 0.000000
O O13 0.689794 0.000000 0.250000
O O14 0.851913 0.940014 0.500000
O O15 0.848188 0.000000 0.750000
#
# Coordination Sequence:
#
# PCOD9527694 Si02
#       7
#     8   8  16  16  16   8  16
#     4  10  21  36  59  94 131 179 210 251 312 394
#     4  12  21  42  64  95 131 168 214 268 320 395
#     4  11  23  40  66  93 126 171 213 263 332 391
#     4  11  23  39  62  92 131 171 217 266 312 383
#     4  11  20  37  60  91 130 171 210 251 314 380
#     4  10  25  38  63  97 132 169 210 265 330 393
#     4  11  25  44  66  96 126 172 225 275 335 388
#
# _framework density 18.561816
#
# number of rings (size 3 to 8) (size 9 to 14) (size 15 to 20)
#    0.000    1.091    5.455    1.364    1.273    0.727 
#    1.636    1.818    0.000    3.273    0.000    0.000 
#    0.000    0.000    0.000    0.000    0.000    0.000 
#
# Total GULP energy -244983.326644 kJ/mol
# GULP energy per Si atom -5567.802878 kJ/mol
# Density = 1.851957 g / cm^3
# Si number density = 18.561816 Si / 1000 Ang^3
#
#
#
# Elastic Constant Matrix: (Units=GPa)
#
#
# Indices 1 2 3 4 5 6 
#
# 1 91.8701 27.3890 31.0747 0.0000 0.0000 0.0000
# 2 27.3890 103.3872 64.1104 0.0000 0.0000 0.0000
# 3 31.0747 64.1104 143.6844 0.0000 0.0000 0.0000
# 4 0.0000 0.0000 0.0000 24.2156 0.0000 0.0000
# 5 0.0000 0.0000 0.0000 0.0000 84.2530 0.0000
# 6 0.0000 0.0000 0.0000 0.0000 0.0000 12.6177
#
#
#
# Elastic Compliance Matrix: (Units=1/GPa)
#
#
# Indices 1 2 3 4 5 6 
#
# 1 0.012091 -0.002187 -0.001639 0.000000 0.000000 0.000000
# 2 -0.002187 0.013768 -0.005670 0.000000 0.000000 0.000000
# 3 -0.001639 -0.005670 0.009844 0.000000 0.000000 0.000000
# 4 0.000000 0.000000 0.000000 0.041296 0.000000 0.000000
# 5 0.000000 0.000000 0.000000 0.000000 0.011869 0.000000
# 6 0.000000 0.000000 0.000000 0.000000 0.000000 0.079254
#
#
# Mechanical properties :
#
#
# Convention : Reuss Voigt Hill
#
# Bulk Modulus (GPa) = 59.84066 64.89888 62.36977
# Shear Modulus (GPa) = 25.94918 38.64176 32.29547
#
# Velocity S-wave (km/s) = 3.74302 4.56761 4.17572
# Velocity P-wave (km/s) = 7.14065 7.92824 7.54473
#
# Compressibility (1/GPa) = 0.01671105
#
# Stress axis : x y z
#
# Youngs Moduli (GPa) = 82.70381 72.63391 101.58293
#
# Poissons Ratio (x) = 0.15882 0.16653
# Poissons Ratio (y) = 0.18084 0.57598
# Poissons Ratio (z) = 0.13558 0.41184
#
# Static dielectric constant tensor:
#      x y z
#    x 1.647730 0.000000 0.000000 
#    y 0.000000 1.643730 0.000000 
#    z 0.000000 0.000000 1.728920 
# 
# From -- ./inp_files/16203.got.cif
#   From: 2010.05.17/outbox.cif.g08.bks.cpg/sg72_9_cif.got.tgz:16203.got - 2010.06.03 17:03:01.
