data_PCOD9527178
_publ_section_title
;
Structure prediction by ZEFSAII (Michael W. Deem and Ramdas Pophale) SiO2 
 PCOD9527178
Probable space group: I B A M
;
_chemical_formula_sum "Si O2"
_cell_formula_units_Z 104
_cell_length_a 24.889112
_cell_length_b 7.930282
_cell_length_c 25.548840
_cell_angle_alpha 90.000000
_cell_angle_beta 90.000000
_cell_angle_gamma 90.000000
_cell_volume 5042.770686
_symmetry_space_group_name_H-M "I B A M"
_symmetry_group_IT_number 72
_symmetry_cell_setting 'orthorhombic'
loop_
_space_group_symop_operation_xyz
x,y,z
-x,-y,z
x,-y,1/2-z
-x,y,1/2-z
-x,-y,-z
x,y,-z
-x,y,1/2+z
x,-y,1/2+z
1/2+x,1/2+y,1/2+z
1/2-x,1/2-y,1/2+z
1/2+x,1/2-y,-z
1/2-x,1/2+y,-z
1/2-x,1/2-y,1/2-z
1/2+x,1/2+y,1/2-z
1/2-x,1/2+y,z
1/2+x,1/2-y,z
loop_
_atom_site_type_symbol
_atom_site_label
_atom_site_fract_x
_atom_site_fract_y
_atom_site_fract_z
Si Si1 0.312102 0.438841 0.939115
Si Si2 0.523910 0.735575 0.305657
Si Si3 0.578385 0.774158 0.060158
Si Si4 0.000000 0.000000 0.609557
Si Si5 0.307051 0.058707 0.191344
Si Si6 0.779206 0.251232 0.623967
Si Si7 0.919256 0.444008 0.836948
O O1 0.365394 0.326422 0.934225
O O2 0.260953 0.333153 0.918563
O O3 0.313274 0.605483 0.903379
O O4 0.305447 0.483592 0.000000
O O5 0.500000 0.678831 0.250000
O O6 0.538349 0.595426 0.348482
O O7 0.471342 0.832679 0.326187
O O8 0.569715 0.878756 0.307905
O O9 0.532146 0.638746 0.076191
O O10 0.581954 0.932353 0.099881
O O11 0.571368 0.825181 0.000000
O O12 0.311399 0.898834 0.152272
O O13 0.296332 0.000000 0.250000
O O14 0.259527 0.170823 0.168194
O O15 0.365717 0.140335 0.186138
#
# Coordination Sequence:
#
# PCOD9527178 Si02
#       7
#    16  16  16   8  16  16  16
#     4  10  20  38  59  83 114 150 190 241 287 334
#     4  10  20  37  60  87 113 146 183 234 280 338
#     4  10  21  39  58  82 116 152 187 235 288 335
#     4  10  22  36  60  84 120 140 188 228 288 346
#     4  11  21  37  57  81 115 153 186 236 287 340
#     4  10  22  36  57  83 115 146 200 231 289 342
#     4  10  20  37  58  83 111 148 190 229 280 338
#
# _framework density 20.623583
#
# number of rings (size 3 to 8) (size 9 to 14) (size 15 to 20)
#    0.000    1.846    1.538    3.231    2.154    0.000 
#    0.000    7.692    0.000    0.000    0.000    0.000 
#    0.000    0.000    0.000    0.000    0.000    0.000 
#
# Total GULP energy -289950.669485 kJ/mol
# GULP energy per Si atom -5575.974413 kJ/mol
# Density = 2.057664 g / cm^3
# Si number density = 20.623583 Si / 1000 Ang^3
#
#
#
# Elastic Constant Matrix: (Units=GPa)
#
#
# Indices 1 2 3 4 5 6 
#
# 1 47.5393 -9.9922 16.4417 0.0000 0.0000 0.0000
# 2 -9.9922 42.0203 13.7851 0.0000 0.0000 0.0000
# 3 16.4417 13.7851 103.6286 0.0000 0.0000 0.0000
# 4 0.0000 0.0000 0.0000 11.6849 0.0000 0.0000
# 5 0.0000 0.0000 0.0000 0.0000 21.8521 0.0000
# 6 0.0000 0.0000 0.0000 0.0000 0.0000 5.7664
#
#
#
# Elastic Compliance Matrix: (Units=1/GPa)
#
#
# Indices 1 2 3 4 5 6 
#
# 1 0.024249 0.007349 -0.004825 0.000000 0.000000 0.000000
# 2 0.007349 0.027111 -0.004772 0.000000 0.000000 0.000000
# 3 -0.004825 -0.004772 0.011050 0.000000 0.000000 0.000000
# 4 0.000000 0.000000 0.000000 0.085580 0.000000 0.000000
# 5 0.000000 0.000000 0.000000 0.000000 0.045762 0.000000
# 6 0.000000 0.000000 0.000000 0.000000 0.000000 0.173419
#
#
# Mechanical properties :
#
#
# Convention : Reuss Voigt Hill
#
# Bulk Modulus (GPa) = 17.26713 25.96194 21.61453
# Shear Modulus (GPa) = 12.78862 19.39092 16.08977
#
# Velocity S-wave (km/s) = 2.49288 3.06964 2.79617
# Velocity P-wave (km/s) = 4.08370 5.01791 4.57471
#
# Compressibility (1/GPa) = 0.05791350
#
# Stress axis : x y z
#
# Youngs Moduli (GPa) = 41.23947 36.88508 90.49605
#
# Poissons Ratio (x) = -0.27107 0.43663
# Poissons Ratio (y) = -0.30307 0.43189
# Poissons Ratio (z) = 0.19898 0.17603
#
# Static dielectric constant tensor:
#      x y z
#    x 1.772780 0.000000 0.000000 
#    y 0.000000 1.780430 0.000000 
#    z 0.000000 0.000000 1.775390 
# 
# From -- ./inp_files/40771.got.cif
#   From: 2010.05.17/outbox.cif.g08.bks.cpg/sg72_21_cif.got.tgz:40771.got - 2010.06.03 17:03:01.
