data_PCOD9527313
_publ_section_title
;
Structure prediction by ZEFSAII (Michael W. Deem and Ramdas Pophale) SiO2 
 PCOD9527313
Probable space group: I B A M
;
_chemical_formula_sum "Si O2"
_cell_formula_units_Z 112
_cell_length_a 11.210228
_cell_length_b 28.917684
_cell_length_c 16.028318
_cell_angle_alpha 90.000000
_cell_angle_beta 90.000000
_cell_angle_gamma 90.000000
_cell_volume 5195.961248
_symmetry_space_group_name_H-M "I B A M"
_symmetry_group_IT_number 72
_symmetry_cell_setting 'orthorhombic'
loop_
_space_group_symop_operation_xyz
x,y,z
-x,-y,z
x,-y,1/2-z
-x,y,1/2-z
-x,-y,-z
x,y,-z
-x,y,1/2+z
x,-y,1/2+z
1/2+x,1/2+y,1/2+z
1/2-x,1/2-y,1/2+z
1/2+x,1/2-y,-z
1/2-x,1/2+y,-z
1/2-x,1/2-y,1/2-z
1/2+x,1/2+y,1/2-z
1/2-x,1/2+y,z
1/2+x,1/2-y,z
loop_
_atom_site_type_symbol
_atom_site_label
_atom_site_fract_x
_atom_site_fract_y
_atom_site_fract_z
Si Si1 0.894595 0.616290 0.813381
Si Si2 0.385340 0.283358 0.191335
Si Si3 0.556158 0.811258 0.903025
Si Si4 0.776508 0.845961 0.184712
Si Si5 0.027819 0.129689 0.599787
Si Si6 0.613951 0.472138 0.600113
Si Si7 0.372385 0.983444 0.847211
O O1 0.780796 0.621882 0.754698
O O2 0.874857 0.571438 0.867804
O O3 0.000000 0.602933 0.750000
O O4 0.945586 0.662409 0.857894
O O5 0.500000 0.283938 0.250000
O O6 0.406510 0.237487 0.137515
O O7 0.288244 0.297902 0.261693
O O8 0.392204 0.326857 0.128457
O O9 0.675356 0.841156 0.885646
O O10 0.530187 0.806226 0.000000
O O11 0.901019 0.862703 0.146808
O O12 0.009291 0.130655 0.500000
O O13 0.089851 0.081426 0.623537
O O14 0.500000 0.500000 0.633232
O O15 0.610094 0.472844 0.500000
O O16 0.739168 0.495889 0.623783
O O17 0.500000 0.000000 0.882545
O O18 0.374088 0.000000 0.750000
#
# Coordination Sequence:
#
# PCOD9527313 Si02
#       7
#    16  16  16  16  16  16  16
#     4  10  21  40  60  89 129 163 212 277 335 396
#     4  10  20  38  60  89 124 166 216 269 334 390
#     4  11  23  38  60  90 125 171 223 275 333 399
#     4  10  21  37  63  88 124 172 217 269 329 399
#     4  10  21  39  62  91 130 168 213 270 329 400
#     4  10  24  43  63  96 137 174 215 275 346 407
#     4  11  23  42  69  99 127 168 227 278 331 402
#
# _framework density 21.555204
#
# number of rings (size 3 to 8) (size 9 to 14) (size 15 to 20)
#    0.000    1.714    1.429    3.429    2.000    2.286 
#    0.000    5.714    0.000    0.000    0.000    0.000 
#    0.000    0.000    0.000    0.000    0.000    0.000 
#
# Total GULP energy -311886.344809 kJ/mol
# GULP energy per Si atom -5569.399014 kJ/mol
# Density = 2.150614 g / cm^3
# Si number density = 21.555204 Si / 1000 Ang^3
#
#
#
# Elastic Constant Matrix: (Units=GPa)
#
#
# Indices 1 2 3 4 5 6 
#
# 1 99.5410 18.4025 37.8041 0.0000 0.0000 0.0000
# 2 18.4025 84.3970 20.4794 -0.0001 0.0001 0.0000
# 3 37.8041 20.4794 70.6298 -0.0001 0.0001 0.0000
# 4 0.0000 -0.0001 -0.0001 20.6898 0.0000 0.0000
# 5 0.0000 0.0001 0.0001 0.0000 -24.0743 0.0000
# 6 0.0000 0.0000 0.0000 0.0000 0.0000 9.3863
#
#
#
# Elastic Compliance Matrix: (Units=1/GPa)
#
#
# Indices 1 2 3 4 5 6 
#
# 1 0.012723 -0.001207 -0.006460 0.000000 0.000000 0.000000
# 2 -0.001207 0.012860 -0.003083 0.000000 0.000000 0.000000
# 3 -0.006460 -0.003083 0.018510 0.000000 0.000000 0.000000
# 4 0.000000 0.000000 0.000000 0.048333 0.000000 0.000000
# 5 0.000000 0.000000 0.000000 0.000000 -0.041538 0.000000
# 6 0.000000 0.000000 0.000000 0.000000 0.000000 0.106538
#
#
# Mechanical properties :
#
#
# Convention : Reuss Voigt Hill
#
# Bulk Modulus (GPa) = 44.26039 45.32665 44.79352
# Shear Modulus (GPa) = 26.81614 13.05915 19.93765
#
# Velocity S-wave (km/s) = 3.53096 2.46407 3.04461
# Velocity P-wave (km/s) = 6.09932 5.40086 5.76069
#
# Compressibility (1/GPa) = 0.02259356
#
# Stress axis : x y z
#
# Youngs Moduli (GPa) = 78.60083 77.76069 54.02540
#
# Poissons Ratio (x) = 0.09383 0.34899
# Poissons Ratio (y) = 0.09484 0.16656
# Poissons Ratio (z) = 0.50774 0.23973
#
# Static dielectric constant tensor:
#      x y z
#    x 1.859780 0.000000 0.000000 
#    y 0.000000 1.893880 0.000000 
#    z 0.000000 0.000000 1.761850 
# 
# From -- ./inp_files/20655.got.cif
#   From: 2010.05.17/outbox.cif.g08.bks.cpg/sg72_11_cif.got.tgz:20655.got - 2010.06.03 17:03:01.
