data_PCOD9527343
_publ_section_title
;
Structure prediction by ZEFSAII (Michael W. Deem and Ramdas Pophale) SiO2 
 PCOD9527343
Probable space group: I B A M
;
_chemical_formula_sum "Si O2"
_cell_formula_units_Z 80
_cell_length_a 24.132848
_cell_length_b 8.155552
_cell_length_c 18.810885
_cell_angle_alpha 90.000000
_cell_angle_beta 90.000000
_cell_angle_gamma 90.000000
_cell_volume 3702.296249
_symmetry_space_group_name_H-M "I B A M"
_symmetry_group_IT_number 72
_symmetry_cell_setting 'orthorhombic'
loop_
_space_group_symop_operation_xyz
x,y,z
-x,-y,z
x,-y,1/2-z
-x,y,1/2-z
-x,-y,-z
x,y,-z
-x,y,1/2+z
x,-y,1/2+z
1/2+x,1/2+y,1/2+z
1/2-x,1/2-y,1/2+z
1/2+x,1/2-y,-z
1/2-x,1/2+y,-z
1/2-x,1/2-y,1/2-z
1/2+x,1/2+y,1/2-z
1/2-x,1/2+y,z
1/2+x,1/2-y,z
loop_
_atom_site_type_symbol
_atom_site_label
_atom_site_fract_x
_atom_site_fract_y
_atom_site_fract_z
Si Si1 0.477963 0.314546 0.324783
Si Si2 0.566959 0.847023 0.082465
Si Si3 0.681361 0.701634 0.915711
Si Si4 0.761565 0.498928 0.666868
Si Si5 0.876852 0.385333 0.679069
O O1 0.500000 0.500000 0.330464
O O2 0.500000 0.246257 0.250000
O O3 0.509974 0.212825 0.384341
O O4 0.412547 0.280520 0.319941
O O5 0.615117 0.709466 0.092611
O O6 0.593207 0.004430 0.119955
O O7 0.560482 0.877964 0.000000
O O8 0.711536 0.543026 0.885232
O O9 0.707264 0.842245 0.864695
O O10 0.692968 0.728214 0.000000
O O11 0.744982 0.500000 0.750000
O O12 0.811866 0.365121 0.664141
O O13 0.880330 0.500000 0.750000
#
# Coordination Sequence:
#
# PCOD9527343 Si02
#       5
#    16  16  16  16  16
#     4  11  23  38  58  88 119 155 197 247 305 358
#     4  10  22  39  60  86 116 158 203 245 297 363
#     4  10  21  39  59  86 123 160 198 249 310 364
#     4  10  21  37  60  90 119 158 206 253 299 360
#     4  10  20  38  63  86 118 157 204 249 295 359
#
# _framework density 21.608212000000002
#
# number of rings (size 3 to 8) (size 9 to 14) (size 15 to 20)
#    0.000    1.800    2.000    1.800    0.000    4.400 
#    3.600    0.000    0.000    0.000    0.000    0.000 
#    0.000    0.000    0.000    0.000    0.000    0.000 
#
# Total GULP energy -223231.540017 kJ/mol
# GULP energy per Si atom -5580.788500 kJ/mol
# Density = 2.155903 g / cm^3
# Si number density = 21.608212 Si / 1000 Ang^3
#
#
#
# Elastic Constant Matrix: (Units=GPa)
#
#
# Indices 1 2 3 4 5 6 
#
# 1 91.5673 8.9246 22.7789 0.0000 0.0000 0.0000
# 2 8.9246 27.8902 1.3967 0.0000 0.0000 0.0000
# 3 22.7789 1.3967 127.9636 0.0000 0.0000 0.0000
# 4 0.0000 0.0000 0.0000 16.3082 0.0000 0.0000
# 5 0.0000 0.0000 0.0000 0.0000 17.3160 0.0000
# 6 0.0000 0.0000 0.0000 0.0000 0.0000 34.9064
#
#
#
# Elastic Compliance Matrix: (Units=1/GPa)
#
#
# Indices 1 2 3 4 5 6 
#
# 1 0.011791 -0.003670 -0.002059 0.000000 0.000000 0.000000
# 2 -0.003670 0.037017 0.000249 0.000000 0.000000 0.000000
# 3 -0.002059 0.000249 0.008178 0.000000 0.000000 0.000000
# 4 0.000000 0.000000 0.000000 0.061319 0.000000 0.000000
# 5 0.000000 0.000000 0.000000 0.000000 0.057750 0.000000
# 6 0.000000 0.000000 0.000000 0.000000 0.000000 0.028648
#
#
# Mechanical properties :
#
#
# Convention : Reuss Voigt Hill
#
# Bulk Modulus (GPa) = 21.72628 34.84683 28.28656
# Shear Modulus (GPa) = 21.64462 27.99417 24.81940
#
# Velocity S-wave (km/s) = 3.16837 3.60326 3.39279
# Velocity P-wave (km/s) = 4.84368 5.78558 5.33546
#
# Compressibility (1/GPa) = 0.04602720
#
# Stress axis : x y z
#
# Youngs Moduli (GPa) = 84.81205 27.01479 122.27189
#
# Poissons Ratio (x) = 0.09914 0.25174
# Poissons Ratio (y) = 0.31125 -0.03048
# Poissons Ratio (z) = 0.17461 -0.00673
#
# Static dielectric constant tensor:
#      x y z
#    x 1.823050 0.000000 0.000000 
#    y 0.000000 1.865780 0.000000 
#    z 0.000000 0.000000 1.748620 
# 
# From -- ./inp_files/28126.got.cif
#   From: 2010.05.17/outbox.cif.g08.bks.cpg/sg72_15_cif.got.tgz:28126.got - 2010.06.03 17:03:01.
