data_PCOD9527667
_publ_section_title
;
Structure prediction by ZEFSAII (Michael W. Deem and Ramdas Pophale) SiO2 
 PCOD9527667
Probable space group: I B A M
;
_chemical_formula_sum "Si O2"
_cell_formula_units_Z 80
_cell_length_a 29.053286
_cell_length_b 8.538853
_cell_length_c 16.834584
_cell_angle_alpha 90.000000
_cell_angle_beta 90.000000
_cell_angle_gamma 90.000000
_cell_volume 4176.352863
_symmetry_space_group_name_H-M "I B A M"
_symmetry_group_IT_number 72
_symmetry_cell_setting 'orthorhombic'
loop_
_space_group_symop_operation_xyz
x,y,z
-x,-y,z
x,-y,1/2-z
-x,y,1/2-z
-x,-y,-z
x,y,-z
-x,y,1/2+z
x,-y,1/2+z
1/2+x,1/2+y,1/2+z
1/2-x,1/2-y,1/2+z
1/2+x,1/2-y,-z
1/2-x,1/2+y,-z
1/2-x,1/2-y,1/2-z
1/2+x,1/2+y,1/2-z
1/2-x,1/2+y,z
1/2+x,1/2-y,z
loop_
_atom_site_type_symbol
_atom_site_label
_atom_site_fract_x
_atom_site_fract_y
_atom_site_fract_z
Si Si1 0.277056 0.208195 0.331629
Si Si2 0.372444 0.608668 0.172464
Si Si3 0.553890 0.186370 0.742232
Si Si4 0.893043 0.199399 0.090578
Si Si5 0.200952 0.611633 0.090525
O O1 0.250000 0.250000 0.250000
O O2 0.324953 0.300058 0.337237
O O3 0.242241 0.266136 0.399335
O O4 0.288940 0.027902 0.348210
O O5 0.366805 0.500000 0.250000
O O6 0.414363 0.725024 0.193154
O O7 0.383018 0.484704 0.103490
O O8 0.500000 0.222735 0.750000
O O9 0.570962 0.245085 0.656386
O O10 0.560380 0.000000 0.750000
O O11 0.846290 0.296743 0.107355
O O12 0.906957 0.229692 0.000000
O O13 0.198747 0.552088 0.000000
#
# Coordination Sequence:
#
# PCOD9527667 Si02
#       5
#    16  16  16  16  16
#     4  12  22  35  56  83 114 155 204 246 286 345
#     4  10  21  36  57  84 115 152 194 243 296 348
#     4  10  21  41  65  88 116 153 192 239 299 360
#     4  10  22  40  61  87 119 154 198 248 298 356
#     4  11  23  37  55  81 118 159 195 241 297 346
#
# _framework density 19.155469
#
# number of rings (size 3 to 8) (size 9 to 14) (size 15 to 20)
#    0.000    1.400    0.000    7.200    0.000    6.800 
#    0.000    5.000    0.000    0.000    0.000    0.000 
#    0.000    0.000    0.000    0.000    0.000    0.000 
#
# Total GULP energy -223476.333801 kJ/mol
# GULP energy per Si atom -5586.908345 kJ/mol
# Density = 1.911187 g / cm^3
# Si number density = 19.155469 Si / 1000 Ang^3
#
#
#
# Elastic Constant Matrix: (Units=GPa)
#
#
# Indices 1 2 3 4 5 6 
#
# 1 154.6681 68.2242 60.3274 0.0000 0.0000 0.0000
# 2 68.2242 107.0167 47.6971 0.0000 0.0000 0.0000
# 3 60.3274 47.6971 93.2301 0.0000 0.0000 0.0000
# 4 0.0000 0.0000 0.0000 25.5223 0.0000 0.0000
# 5 0.0000 0.0000 0.0000 0.0000 17.6432 0.0000
# 6 0.0000 0.0000 0.0000 0.0000 0.0000 31.2608
#
#
#
# Elastic Compliance Matrix: (Units=1/GPa)
#
#
# Indices 1 2 3 4 5 6 
#
# 1 0.010128 -0.004580 -0.004210 0.000000 0.000000 0.000000
# 2 -0.004580 0.014176 -0.004289 0.000000 0.000000 0.000000
# 3 -0.004210 -0.004289 0.015645 0.000000 0.000000 0.000000
# 4 0.000000 0.000000 0.000000 0.039181 0.000000 0.000000
# 5 0.000000 0.000000 0.000000 0.000000 0.056679 0.000000
# 6 0.000000 0.000000 0.000000 0.000000 0.000000 0.031989
#
#
# Mechanical properties :
#
#
# Convention : Reuss Voigt Hill
#
# Bulk Modulus (GPa) = 72.51624 78.60137 75.55880
# Shear Modulus (GPa) = 25.18222 26.79635 25.98929
#
# Velocity S-wave (km/s) = 3.62971 3.74423 3.68741
# Velocity P-wave (km/s) = 7.45018 7.73400 7.59342
#
# Compressibility (1/GPa) = 0.01379001
#
# Stress axis : x y z
#
# Youngs Moduli (GPa) = 98.73619 70.54356 63.91937
#
# Poissons Ratio (x) = 0.32310 0.26913
# Poissons Ratio (y) = 0.45222 0.27413
# Poissons Ratio (z) = 0.41572 0.30253
#
# Static dielectric constant tensor:
#      x y z
#    x 1.628480 0.000000 0.000000 
#    y 0.000000 1.690160 0.000000 
#    z 0.000000 0.000000 1.678280 
# 
# From -- ./inp_files/33765.got.cif
#   From: 2010.05.17/outbox.cif.g08.bks.cpg/sg72_17_cif.got.tgz:33765.got - 2010.06.03 17:03:01.
