data_PCOD9527315
_publ_section_title
;
Structure prediction by ZEFSAII (Michael W. Deem and Ramdas Pophale) SiO2 
 PCOD9527315
Probable space group: I B A M
;
_chemical_formula_sum "Si O2"
_cell_formula_units_Z 120
_cell_length_a 11.246173
_cell_length_b 25.934808
_cell_length_c 22.714297
_cell_angle_alpha 90.000000
_cell_angle_beta 90.000000
_cell_angle_gamma 90.000000
_cell_volume 6625.018529
_symmetry_space_group_name_H-M "I B A M"
_symmetry_group_IT_number 72
_symmetry_cell_setting 'orthorhombic'
loop_
_space_group_symop_operation_xyz
x,y,z
-x,-y,z
x,-y,1/2-z
-x,y,1/2-z
-x,-y,-z
x,y,-z
-x,y,1/2+z
x,-y,1/2+z
1/2+x,1/2+y,1/2+z
1/2-x,1/2-y,1/2+z
1/2+x,1/2-y,-z
1/2-x,1/2+y,-z
1/2-x,1/2-y,1/2-z
1/2+x,1/2+y,1/2-z
1/2-x,1/2+y,z
1/2+x,1/2-y,z
loop_
_atom_site_type_symbol
_atom_site_label
_atom_site_fract_x
_atom_site_fract_y
_atom_site_fract_z
Si Si1 0.942635 0.198566 0.651959
Si Si2 0.876931 0.550758 0.715992
Si Si3 0.500000 0.000000 0.392222
Si Si4 0.205040 0.838024 0.134976
Si Si5 0.251224 0.731553 0.931701
Si Si6 0.959015 0.688632 0.639111
Si Si7 0.114022 0.395696 0.069015
Si Si8 0.738519 0.845795 0.230641
O O1 0.858969 0.198368 0.594502
O O2 0.858119 0.178641 0.704046
O O3 0.063330 0.166633 0.643831
O O4 0.975861 0.258829 0.658068
O O5 0.837398 0.500000 0.750000
O O6 0.913500 0.532124 0.651373
O O7 0.777276 0.593662 0.719062
O O8 0.000000 0.567906 0.750000
O O9 0.570186 0.954798 0.425779
O O10 0.244338 0.786589 0.100502
O O11 0.255577 0.885481 0.096921
O O12 0.262111 0.837035 0.199912
O O13 0.129220 0.703982 0.914069
O O14 0.264513 0.739420 0.000000
O O15 0.874077 0.675497 0.694184
O O16 0.035275 0.641640 0.612147
O O17 0.108491 0.380295 0.000000
#
# Coordination Sequence:
#
# PCOD9527315 Si02
#       8
#    16  16   8  16  16  16  16  16
#     4  10  23  38  56  87 123 161 201 240 288 360
#     4   9  18  34  62  90 120 150 195 254 314 366
#     4  10  20  38  60  92 114 145 195 262 318 360
#     4  11  23  36  57  85 119 159 200 243 292 359
#     4  10  21  38  56  81 118 165 203 237 285 350
#     4  10  22  38  58  87 119 159 196 246 292 362
#     4  12  23  39  60  89 120 154 197 252 309 364
#     4  11  22  38  61  86 122 161 198 250 307 361
#
# _framework density 18.113156
#
# number of rings (size 3 to 8) (size 9 to 14) (size 15 to 20)
#    0.000    1.733    2.667    3.000    0.000    8.533 
#    0.000    0.000    0.000    5.600    0.000    0.933 
#    0.000    0.000    0.000    0.000    0.000    0.000 
#
# Total GULP energy -334700.564532 kJ/mol
# GULP energy per Si atom -5578.342742 kJ/mol
# Density = 1.807193 g / cm^3
# Si number density = 18.113156 Si / 1000 Ang^3
#
#
#
# Elastic Constant Matrix: (Units=GPa)
#
#
# Indices 1 2 3 4 5 6 
#
# 1 80.3355 50.2891 41.0085 0.0000 0.0000 0.0000
# 2 50.2891 88.5549 35.8365 0.0000 0.0000 0.0000
# 3 41.0085 35.8365 136.0078 0.0000 0.0000 0.0000
# 4 0.0000 0.0000 0.0000 6.5272 0.0000 0.0000
# 5 0.0000 0.0000 0.0000 0.0000 -2.0711 0.0000
# 6 0.0000 0.0000 0.0000 0.0000 0.0000 23.5371
#
#
#
# Elastic Compliance Matrix: (Units=1/GPa)
#
#
# Indices 1 2 3 4 5 6 
#
# 1 0.020719 -0.010341 -0.003522 0.000000 0.000000 0.000000
# 2 -0.010341 0.017801 -0.001573 0.000000 0.000000 0.000000
# 3 -0.003522 -0.001573 0.008829 0.000000 0.000000 0.000000
# 4 0.000000 0.000000 0.000000 0.153205 0.000000 0.000000
# 5 0.000000 0.000000 0.000000 0.000000 -0.482830 0.000000
# 6 0.000000 0.000000 0.000000 0.000000 0.000000 0.042486
#
#
# Mechanical properties :
#
#
# Convention : Reuss Voigt Hill
#
# Bulk Modulus (GPa) = 60.68749 62.12958 61.40854
# Shear Modulus (GPa) = -24.57891 17.44958 -3.56467
#
# Velocity S-wave (km/s) = -3.68770 3.10718 -1.40438
# Velocity P-wave (km/s) = 3.93004 6.87372 5.59881
#
# Compressibility (1/GPa) = 0.01647786
#
# Stress axis : x y z
#
# Youngs Moduli (GPa) = 48.26506 56.17651 113.26378
#
# Poissons Ratio (x) = 0.58089 0.39897
# Poissons Ratio (y) = 0.49909 0.17811
# Poissons Ratio (z) = 0.17001 0.08834
#
# Static dielectric constant tensor:
#      x y z
#    x 1.669030 0.000000 0.000000 
#    y 0.000000 1.641280 0.000000 
#    z 0.000000 0.000000 1.625900 
# 
# From -- ./inp_files/37482.got.cif
#   From: 2010.05.17/outbox.cif.g08.bks.cpg/sg72_19_cif.got.tgz:37482.got - 2010.06.03 17:03:01.
