data_PCOD9527335
_publ_section_title
;
Structure prediction by ZEFSAII (Michael W. Deem and Ramdas Pophale) SiO2 
 PCOD9527335
Probable space group: I B A M
;
_chemical_formula_sum "Si O2"
_cell_formula_units_Z 80
_cell_length_a 18.561137
_cell_length_b 26.222386
_cell_length_c 8.612644
_cell_angle_alpha 90.000000
_cell_angle_beta 90.000000
_cell_angle_gamma 90.000000
_cell_volume 4191.922825
_symmetry_space_group_name_H-M "I B A M"
_symmetry_group_IT_number 72
_symmetry_cell_setting 'orthorhombic'
loop_
_space_group_symop_operation_xyz
x,y,z
-x,-y,z
x,-y,1/2-z
-x,y,1/2-z
-x,-y,-z
x,y,-z
-x,y,1/2+z
x,-y,1/2+z
1/2+x,1/2+y,1/2+z
1/2-x,1/2-y,1/2+z
1/2+x,1/2-y,-z
1/2-x,1/2+y,-z
1/2-x,1/2-y,1/2-z
1/2+x,1/2+y,1/2-z
1/2-x,1/2+y,z
1/2+x,1/2-y,z
loop_
_atom_site_type_symbol
_atom_site_label
_atom_site_fract_x
_atom_site_fract_y
_atom_site_fract_z
Si Si1 0.580554 0.346610 0.185578
Si Si2 0.419011 0.154406 0.687327
Si Si3 0.669071 0.749114 0.814167
Si Si4 0.837876 0.944264 0.313159
Si Si5 0.829896 0.444854 0.686452
O O1 0.500000 0.341275 0.250000
O O2 0.629080 0.301315 0.253832
O O3 0.613963 0.400085 0.240933
O O4 0.580008 0.343769 0.000000
O O5 0.500000 0.156190 0.750000
O O6 0.419318 0.156728 0.500000
O O7 0.374033 0.201891 0.752212
O O8 0.379875 0.101872 0.736651
O O9 0.750000 0.750000 0.750000
O O10 0.670077 0.749203 0.000000
O O11 0.843122 0.943191 0.500000
O O12 0.753715 0.935846 0.268779
O O13 0.858295 0.000000 0.250000
O O14 0.852225 0.500000 0.750000
O O15 0.831846 0.447033 0.500000
#
# Coordination Sequence:
#
# PCOD9527335 Si02
#       5
#    16  16  16  16  16
#     4  12  25  42  63  90 123 161 201 249 304 361
#     4  11  23  40  60  88 123 161 201 248 301 357
#     4  12  25  43  66  92 120 156 199 247 299 360
#     4  10  20  38  62  90 121 158 203 253 304 361
#     4   9  20  37  60  86 118 156 199 247 297 351
#
# _framework density 19.084320000000002
#
# number of rings (size 3 to 8) (size 9 to 14) (size 15 to 20)
#    0.000    1.200    0.000    6.600    0.000    4.800 
#    0.000    4.000    0.000    0.000    0.000    0.000 
#    0.000    0.000    0.000    0.000    0.000    0.000 
#
# Total GULP energy -223802.689622 kJ/mol
# GULP energy per Si atom -5595.067241 kJ/mol
# Density = 1.904088 g / cm^3
# Si number density = 19.084320 Si / 1000 Ang^3
#
#
#
# Elastic Constant Matrix: (Units=GPa)
#
#
# Indices 1 2 3 4 5 6 
#
# 1 168.9836 123.2758 68.8762 0.0000 0.0000 0.0000
# 2 123.2758 179.5987 70.9328 0.0000 0.0000 0.0000
# 3 68.8762 70.9328 132.5981 0.0000 0.0000 0.0000
# 4 0.0000 0.0000 0.0000 39.3615 0.0000 0.0000
# 5 0.0000 0.0000 0.0000 0.0000 37.8680 0.0000
# 6 0.0000 0.0000 0.0000 0.0000 0.0000 48.8156
#
#
#
# Elastic Compliance Matrix: (Units=1/GPa)
#
#
# Indices 1 2 3 4 5 6 
#
# 1 0.012427 -0.007582 -0.002399 0.000000 0.000000 0.000000
# 2 -0.007582 0.011686 -0.002313 0.000000 0.000000 0.000000
# 3 -0.002399 -0.002313 0.010025 0.000000 0.000000 0.000000
# 4 0.000000 0.000000 0.000000 0.025406 0.000000 0.000000
# 5 0.000000 0.000000 0.000000 0.000000 0.026408 0.000000
# 6 0.000000 0.000000 0.000000 0.000000 0.000000 0.020485
#
#
# Mechanical properties :
#
#
# Convention : Reuss Voigt Hill
#
# Bulk Modulus (GPa) = 104.71515 111.92777 108.32146
# Shear Modulus (GPa) = 37.25589 39.74876 38.50232
#
# Velocity S-wave (km/s) = 4.42313 4.56872 4.49651
# Velocity P-wave (km/s) = 9.00413 9.30630 9.15646
#
# Compressibility (1/GPa) = 0.00954972
#
# Stress axis : x y z
#
# Youngs Moduli (GPa) = 80.47067 85.57332 99.75233
#
# Poissons Ratio (x) = 0.64885 0.23929
# Poissons Ratio (y) = 0.61016 0.23070
# Poissons Ratio (z) = 0.19304 0.19791
#
# Static dielectric constant tensor:
#      x y z
#    x 1.633170 0.000000 0.000000 
#    y 0.000000 1.634880 0.000000 
#    z 0.000000 0.000000 1.640900 
# 
# From -- ./inp_files/4788.got.cif
#   From: 2010.05.17/outbox.cif.g08.bks.cpg/sg72_3_cif.got.tgz:4788.got - 2010.06.03 17:03:01.
