data_PCOD9527849
_publ_section_title
;
Structure prediction by ZEFSAII (Michael W. Deem and Ramdas Pophale) SiO2 
 PCOD9527849
Probable space group: I B A M
;
_chemical_formula_sum "Si O2"
_cell_formula_units_Z 72
_cell_length_a 8.438498
_cell_length_b 13.026344
_cell_length_c 29.958901
_cell_angle_alpha 90.000000
_cell_angle_beta 90.000000
_cell_angle_gamma 90.000000
_cell_volume 3293.165617
_symmetry_space_group_name_H-M "I B A M"
_symmetry_group_IT_number 72
_symmetry_cell_setting 'orthorhombic'
loop_
_space_group_symop_operation_xyz
x,y,z
-x,-y,z
x,-y,1/2-z
-x,y,1/2-z
-x,-y,-z
x,y,-z
-x,y,1/2+z
x,-y,1/2+z
1/2+x,1/2+y,1/2+z
1/2-x,1/2-y,1/2+z
1/2+x,1/2-y,-z
1/2-x,1/2+y,-z
1/2-x,1/2-y,1/2-z
1/2+x,1/2+y,1/2-z
1/2-x,1/2+y,z
1/2+x,1/2-y,z
loop_
_atom_site_type_symbol
_atom_site_label
_atom_site_fract_x
_atom_site_fract_y
_atom_site_fract_z
Si Si1 0.333574 0.940826 0.429888
Si Si2 0.701478 0.410678 0.500000
Si Si3 0.772495 0.628682 0.330611
Si Si4 0.461738 0.209871 0.000000
Si Si5 0.720624 0.000000 0.250000
Si Si6 0.566739 0.324193 0.704637
O O1 0.294495 0.917285 0.379148
O O2 0.368662 0.837213 0.457501
O O3 0.500000 0.000000 0.431234
O O4 0.214909 0.014626 0.457183
O O5 0.555854 0.332086 0.500000
O O6 0.861525 0.338640 0.500000
O O7 0.854123 0.563803 0.290661
O O8 0.585916 0.632947 0.320331
O O9 0.839630 0.743476 0.325160
O O10 0.825396 0.915557 0.276545
O O11 0.500000 0.271546 0.750000
#
# Coordination Sequence:
#
# PCOD9527849 Si02
#       6
#    16   8  16   8   8  16
#     4   9  21  38  58  87 119 153 196 243 295 360
#     4   9  19  41  64  86 116 153 195 245 301 357
#     4  11  22  37  59  86 115 153 198 242 292 351
#     4   9  19  39  62  82 116 153 189 243 298 349
#     4  10  21  40  59  82 123 162 197 250 297 344
#     4  10  21  38  56  81 116 154 196 242 291 346
#
# _framework density 21.863462999999999
#
# number of rings (size 3 to 8) (size 9 to 14) (size 15 to 20)
#    0.000    2.222    0.000    7.000    0.000    8.889 
#    0.000    5.556    0.000    0.000    0.000    0.000 
#    0.000    0.000    0.000    0.000    0.000    0.000 
#
# Total GULP energy -201103.906908 kJ/mol
# GULP energy per Si atom -5586.219636 kJ/mol
# Density = 2.181370 g / cm^3
# Si number density = 21.863463 Si / 1000 Ang^3
#
#
#
# Elastic Constant Matrix: (Units=GPa)
#
#
# Indices 1 2 3 4 5 6 
#
# 1 31.2955 24.7965 4.9703 0.0000 0.0000 0.0000
# 2 24.7965 121.7194 56.0632 0.0000 0.0000 0.0000
# 3 4.9703 56.0632 145.5027 0.0000 0.0000 0.0000
# 4 0.0000 0.0000 0.0000 19.8700 0.0000 0.0000
# 5 0.0000 0.0000 0.0000 0.0000 33.9223 0.0000
# 6 0.0000 0.0000 0.0000 0.0000 0.0000 32.4930
#
#
#
# Elastic Compliance Matrix: (Units=1/GPa)
#
#
# Indices 1 2 3 4 5 6 
#
# 1 0.038616 -0.008825 0.002081 0.000000 0.000000 0.000000
# 2 -0.008825 0.012005 -0.004324 0.000000 0.000000 0.000000
# 3 0.002081 -0.004324 0.008468 0.000000 0.000000 0.000000
# 4 0.000000 0.000000 0.000000 0.050327 0.000000 0.000000
# 5 0.000000 0.000000 0.000000 0.000000 0.029479 0.000000
# 6 0.000000 0.000000 0.000000 0.000000 0.000000 0.030776
#
#
# Mechanical properties :
#
#
# Convention : Reuss Voigt Hill
#
# Bulk Modulus (GPa) = 27.06201 52.24195 39.65198
# Shear Modulus (GPa) = 24.49484 31.43624 27.96554
#
# Velocity S-wave (km/s) = 3.35080 3.79600 3.58033
# Velocity P-wave (km/s) = 5.23212 6.56958 5.93862
#
# Compressibility (1/GPa) = 0.03695217
#
# Stress axis : x y z
#
# Youngs Moduli (GPa) = 25.89626 83.29703 118.09473
#
# Poissons Ratio (x) = 0.73513 -0.24580
# Poissons Ratio (y) = 0.22855 0.51067
# Poissons Ratio (z) = -0.05390 0.36020
#
# Static dielectric constant tensor:
#      x y z
#    x 1.855660 0.000000 0.000000 
#    y 0.000000 1.825360 0.000000 
#    z 0.000000 0.000000 1.775060 
# 
# From -- ./inp_files/50723.got.cif
#   From: 2010.05.17/outbox.cif.g08.bks.cpg/sg72_26_cif.got.tgz:50723.got - 2010.06.03 17:03:01.
