data_PCOD9527705
_publ_section_title
;
Structure prediction by ZEFSAII (Michael W. Deem and Ramdas Pophale) SiO2 
 PCOD9527705
Probable space group: I B A M
;
_chemical_formula_sum "Si O2"
_cell_formula_units_Z 64
_cell_length_a 12.342275
_cell_length_b 15.215813
_cell_length_c 16.188370
_cell_angle_alpha 90.000000
_cell_angle_beta 90.000000
_cell_angle_gamma 90.000000
_cell_volume 3040.139436
_symmetry_space_group_name_H-M "I B A M"
_symmetry_group_IT_number 72
_symmetry_cell_setting 'orthorhombic'
loop_
_space_group_symop_operation_xyz
x,y,z
-x,-y,z
x,-y,1/2-z
-x,y,1/2-z
-x,-y,-z
x,y,-z
-x,y,1/2+z
x,-y,1/2+z
1/2+x,1/2+y,1/2+z
1/2-x,1/2-y,1/2+z
1/2+x,1/2-y,-z
1/2-x,1/2+y,-z
1/2-x,1/2-y,1/2-z
1/2+x,1/2+y,1/2-z
1/2-x,1/2+y,z
1/2+x,1/2-y,z
loop_
_atom_site_type_symbol
_atom_site_label
_atom_site_fract_x
_atom_site_fract_y
_atom_site_fract_z
Si Si1 0.606975 0.062714 0.906570
Si Si2 0.525770 0.403543 0.152249
Si Si3 0.269359 0.099044 0.101080
Si Si4 0.969505 0.281245 0.845736
O O1 0.567130 0.156358 0.876463
O O2 0.500000 0.000000 0.904974
O O3 0.696698 0.999213 0.867753
O O4 0.641599 0.075941 0.000000
O O5 0.500000 0.500000 0.116349
O O6 0.500000 0.408949 0.250000
O O7 0.650991 0.382702 0.134844
O O8 0.464100 0.317329 0.118915
O O9 0.359312 0.166609 0.134694
O O10 0.272556 0.101302 0.000000
O O11 0.000000 0.273125 0.750000
#
# Coordination Sequence:
#
# PCOD9527705 Si02
#       4
#    16  16  16  16
#     4   8  16  33  56  84 117 149 186 233 283 340
#     4  10  24  42  59  83 120 159 200 248 297 351
#     4  10  22  40  62  89 121 157 195 240 298 355
#     4  10  21  36  61  93 121 153 198 244 291 349
#
# _framework density 21.051667999999999
#
# number of rings (size 3 to 8) (size 9 to 14) (size 15 to 20)
#    0.000    2.500    0.000    2.250    0.000   17.000 
#    0.000    2.500    0.000    0.000    0.000    0.000 
#    0.000    0.000    0.000    0.000    0.000    0.000 
#
# Total GULP energy -178249.781511 kJ/mol
# GULP energy per Si atom -5570.305672 kJ/mol
# Density = 2.100375 g / cm^3
# Si number density = 21.051668 Si / 1000 Ang^3
#
#
#
# Elastic Constant Matrix: (Units=GPa)
#
#
# Indices 1 2 3 4 5 6 
#
# 1 95.7115 37.5092 25.6297 0.0000 0.0000 0.0000
# 2 37.5092 197.4803 24.8806 0.0000 0.0000 0.0000
# 3 25.6297 24.8806 47.3489 0.0000 0.0000 0.0000
# 4 0.0000 0.0000 0.0000 49.3227 0.0000 0.0000
# 5 0.0000 0.0000 0.0000 0.0000 26.3941 0.0000
# 6 0.0000 0.0000 0.0000 0.0000 0.0000 21.3264
#
#
#
# Elastic Compliance Matrix: (Units=1/GPa)
#
#
# Indices 1 2 3 4 5 6 
#
# 1 0.012706 -0.001656 -0.006007 0.000000 0.000000 0.000000
# 2 -0.001656 0.005639 -0.002066 0.000000 0.000000 0.000000
# 3 -0.006007 -0.002066 0.025457 0.000000 0.000000 0.000000
# 4 0.000000 0.000000 0.000000 0.020275 0.000000 0.000000
# 5 0.000000 0.000000 0.000000 0.000000 0.037887 0.000000
# 6 0.000000 0.000000 0.000000 0.000000 0.000000 0.046890
#
#
# Mechanical properties :
#
#
# Convention : Reuss Voigt Hill
#
# Bulk Modulus (GPa) = 41.08154 57.39775 49.23965
# Shear Modulus (GPa) = 28.34018 36.24340 32.29179
#
# Velocity S-wave (km/s) = 3.67307 4.15377 3.92079
# Velocity P-wave (km/s) = 6.12744 7.09432 6.62854
#
# Compressibility (1/GPa) = 0.02434183
#
# Stress axis : x y z
#
# Youngs Moduli (GPa) = 78.70401 177.34362 39.28154
#
# Poissons Ratio (x) = 0.29377 0.23597
# Poissons Ratio (y) = 0.13037 0.08117
# Poissons Ratio (z) = 0.47279 0.36646
#
# Static dielectric constant tensor:
#      x y z
#    x 1.752110 0.000000 0.000000 
#    y 0.000000 1.862460 0.000000 
#    z 0.000000 0.000000 1.781760 
# 
# From -- ./inp_files/28765.got.cif
#   From: 2010.05.17/outbox.cif.g08.bks.cpg/sg72_15_cif.got.tgz:28765.got - 2010.06.03 17:03:01.
