data_PCOD9527704
_publ_section_title
;
Structure prediction by ZEFSAII (Michael W. Deem and Ramdas Pophale) SiO2 
 PCOD9527704
Probable space group: I B A M
;
_chemical_formula_sum "Si O2"
_cell_formula_units_Z 112
_cell_length_a 21.080429
_cell_length_b 11.538162
_cell_length_c 23.191338
_cell_angle_alpha 90.000000
_cell_angle_beta 90.000000
_cell_angle_gamma 90.000000
_cell_volume 5640.815339
_symmetry_space_group_name_H-M "I B A M"
_symmetry_group_IT_number 72
_symmetry_cell_setting 'orthorhombic'
loop_
_space_group_symop_operation_xyz
x,y,z
-x,-y,z
x,-y,1/2-z
-x,y,1/2-z
-x,-y,-z
x,y,-z
-x,y,1/2+z
x,-y,1/2+z
1/2+x,1/2+y,1/2+z
1/2-x,1/2-y,1/2+z
1/2+x,1/2-y,-z
1/2-x,1/2+y,-z
1/2-x,1/2-y,1/2-z
1/2+x,1/2+y,1/2-z
1/2-x,1/2+y,z
1/2+x,1/2-y,z
loop_
_atom_site_type_symbol
_atom_site_label
_atom_site_fract_x
_atom_site_fract_y
_atom_site_fract_z
Si Si1 0.932441 0.562641 0.065788
Si Si2 0.853897 0.135187 0.879519
Si Si3 0.627801 0.774553 0.657756
Si Si4 0.683245 0.888495 0.909337
Si Si5 0.074460 0.130632 0.263437
Si Si6 0.327829 0.592207 0.937118
Si Si7 0.268328 0.035289 0.313788
O O1 0.921179 0.655562 0.116638
O O2 0.874115 0.470755 0.070537
O O3 0.000000 0.500000 0.073691
O O4 0.931247 0.609790 0.000000
O O5 0.836424 0.254645 0.911249
O O6 0.906670 0.155427 0.829896
O O7 0.792951 0.085933 0.845299
O O8 0.863279 0.029068 0.923748
O O9 0.603402 0.715179 0.715728
O O10 0.656828 0.678851 0.614839
O O11 0.679994 0.865240 0.678624
O O12 0.750875 0.917916 0.938437
O O13 0.700282 0.923372 0.843840
O O14 0.000000 0.134032 0.250000
O O15 0.096568 0.000000 0.250000
O O16 0.347415 0.636587 0.000000
O O17 0.252177 0.000000 0.250000
#
# Coordination Sequence:
#
# PCOD9527704 Si02
#       7
#    16  16  16  16  16  16  16
#     4  10  23  43  66  89 123 170 217 264 313 374
#     4  11  22  39  63  93 127 165 209 255 317 386
#     4  11  22  42  63  93 123 166 209 261 320 383
#     4  10  22  38  61  92 126 162 206 261 311 386
#     4  11  24  40  63  88 123 167 207 262 314 375
#     4  11  23  39  62  95 128 164 207 263 325 379
#     4  10  21  36  61  92 124 158 199 255 321 378
#
# _framework density 19.855286
#
# number of rings (size 3 to 8) (size 9 to 14) (size 15 to 20)
#    0.000    1.429    2.857    2.143    4.000    2.286 
#    0.000    0.000    0.000    0.857    0.000    0.000 
#    0.000    0.000    0.000    0.000    0.000    0.000 
#
# Total GULP energy -312459.313186 kJ/mol
# GULP energy per Si atom -5579.630593 kJ/mol
# Density = 1.981009 g / cm^3
# Si number density = 19.855286 Si / 1000 Ang^3
#
#
#
# Elastic Constant Matrix: (Units=GPa)
#
#
# Indices 1 2 3 4 5 6 
#
# 1 78.2492 8.5703 14.3282 0.0000 0.0000 0.0000
# 2 8.5703 84.3609 9.5952 0.0000 0.0000 0.0000
# 3 14.3282 9.5952 65.6601 0.0000 0.0000 0.0000
# 4 0.0000 0.0000 0.0000 14.5211 0.0000 0.0000
# 5 0.0000 0.0000 0.0000 0.0000 10.5409 0.0000
# 6 0.0000 0.0000 0.0000 0.0000 0.0000 25.3550
#
#
#
# Elastic Compliance Matrix: (Units=1/GPa)
#
#
# Indices 1 2 3 4 5 6 
#
# 1 0.013402 -0.001046 -0.002772 0.000000 0.000000 0.000000
# 2 -0.001046 0.012136 -0.001545 0.000000 0.000000 0.000000
# 3 -0.002772 -0.001545 0.016061 0.000000 0.000000 0.000000
# 4 0.000000 0.000000 0.000000 0.068865 0.000000 0.000000
# 5 0.000000 0.000000 0.000000 0.000000 0.094869 0.000000
# 6 0.000000 0.000000 0.000000 0.000000 0.000000 0.039440
#
#
# Mechanical properties :
#
#
# Convention : Reuss Voigt Hill
#
# Bulk Modulus (GPa) = 32.39165 32.58419 32.48792
# Shear Modulus (GPa) = 18.81190 23.13514 20.97352
#
# Velocity S-wave (km/s) = 3.08141 3.41719 3.25363
# Velocity P-wave (km/s) = 5.38604 5.65827 5.52383
#
# Compressibility (1/GPa) = 0.03087216
#
# Stress axis : x y z
#
# Youngs Moduli (GPa) = 74.61689 82.40037 62.26432
#
# Poissons Ratio (x) = 0.08621 0.17257
# Poissons Ratio (y) = 0.07807 0.09621
# Poissons Ratio (z) = 0.20681 0.12732
#
# Static dielectric constant tensor:
#      x y z
#    x 1.690360 0.000000 0.000000 
#    y 0.000000 1.714510 0.000000 
#    z 0.000000 0.000000 1.712740 
# 
# From -- ./inp_files/45410.got.cif
#   From: 2010.05.17/outbox.cif.g08.bks.cpg/sg72_23_cif.got.tgz:45410.got - 2010.06.03 17:03:01.
