data_PCOD9527714
_publ_section_title
;
Structure prediction by ZEFSAII (Michael W. Deem and Ramdas Pophale) SiO2 
 PCOD9527714
Probable space group: I B A M
;
_chemical_formula_sum "Si O2"
_cell_formula_units_Z 48
_cell_length_a 19.281754
_cell_length_b 8.710164
_cell_length_c 15.438062
_cell_angle_alpha 90.000000
_cell_angle_beta 90.000000
_cell_angle_gamma 90.000000
_cell_volume 2592.779897
_symmetry_space_group_name_H-M "I B A M"
_symmetry_group_IT_number 72
_symmetry_cell_setting 'orthorhombic'
loop_
_space_group_symop_operation_xyz
x,y,z
-x,-y,z
x,-y,1/2-z
-x,y,1/2-z
-x,-y,-z
x,y,-z
-x,y,1/2+z
x,-y,1/2+z
1/2+x,1/2+y,1/2+z
1/2-x,1/2-y,1/2+z
1/2+x,1/2-y,-z
1/2-x,1/2+y,-z
1/2-x,1/2-y,1/2-z
1/2+x,1/2+y,1/2-z
1/2-x,1/2+y,z
1/2+x,1/2-y,z
loop_
_atom_site_type_symbol
_atom_site_label
_atom_site_fract_x
_atom_site_fract_y
_atom_site_fract_z
Si Si1 0.062813 0.397369 0.599274
Si Si2 0.325588 0.931396 0.000000
Si Si3 0.828714 0.064592 0.500000
Si Si4 0.577788 0.559725 0.155037
O O1 0.041771 0.347883 0.500000
O O2 0.130561 0.500577 0.581252
O O3 0.076758 0.244164 0.651541
O O4 0.000000 0.500000 0.633653
O O5 0.326487 0.748649 0.000000
O O6 0.248566 0.996828 0.000000
O O7 0.870085 0.003565 0.583337
O O8 0.500000 0.500000 0.135605
O O9 0.596382 0.500000 0.250000
#
# Coordination Sequence:
#
# PCOD9527714 Si02
#       4
#    16   8   8  16
#     4   9  18  37  63  89 117 151 205 240 296 345
#     4  10  21  36  63  90 110 162 200 246 297 362
#     4  12  21  40  61  84 124 158 200 246 303 354
#     4  11  23  38  60  91 120 157 199 246 297 355
#
# _framework density 18.512948000000002
#
# number of rings (size 3 to 8) (size 9 to 14) (size 15 to 20)
#    1.000    0.667    1.667    4.500    0.000    0.000 
#    0.000   18.333    0.000    0.000    0.000    0.000 
#    0.000    0.000    0.000    0.000    0.000    0.000 
#
# Total GULP energy -133950.107727 kJ/mol
# GULP energy per Si atom -5581.254489 kJ/mol
# Density = 1.847081 g / cm^3
# Si number density = 18.512948 Si / 1000 Ang^3
#
#
#
# Elastic Constant Matrix: (Units=GPa)
#
#
# Indices 1 2 3 4 5 6 
#
# 1 170.4456 85.2564 75.5978 0.0000 0.0000 0.0000
# 2 85.2564 210.0948 77.7640 0.0000 0.0000 0.0000
# 3 75.5978 77.7640 92.9605 0.0000 0.0000 0.0000
# 4 0.0000 0.0000 0.0000 -162.9263 0.0000 0.0000
# 5 0.0000 0.0000 0.0000 0.0000 -7.8612 0.0000
# 6 0.0000 0.0000 0.0000 0.0000 0.0000 37.1286
#
#
#
# Elastic Compliance Matrix: (Units=1/GPa)
#
#
# Indices 1 2 3 4 5 6 
#
# 1 0.009467 -0.001437 -0.006497 0.000000 0.000000 0.000000
# 2 -0.001437 0.007113 -0.004781 0.000000 0.000000 0.000000
# 3 -0.006497 -0.004781 0.020040 0.000000 0.000000 0.000000
# 4 0.000000 0.000000 0.000000 -0.006138 0.000000 0.000000
# 5 0.000000 0.000000 0.000000 0.000000 -0.127208 0.000000
# 6 0.000000 0.000000 0.000000 0.000000 0.000000 0.026933
#
#
# Mechanical properties :
#
#
# Convention : Reuss Voigt Hill
#
# Bulk Modulus (GPa) = 89.36677 105.63750 97.50213
# Shear Modulus (GPa) = -123.05853 -11.07293 -67.06573
#
# Velocity S-wave (km/s) = -8.16186 -2.44830 -6.02537
# Velocity P-wave (km/s) = 6.35955 7.01378 2.09156
#
# Compressibility (1/GPa) = 0.01118984
#
# Stress axis : x y z
#
# Youngs Moduli (GPa) = 105.62555 140.59461 49.89926
#
# Poissons Ratio (x) = 0.20205 0.32419
# Poissons Ratio (y) = 0.15179 0.23858
# Poissons Ratio (z) = 0.68624 0.67222
#
# Static dielectric constant tensor:
#      x y z
#    x 1.621280 0.000000 0.000000 
#    y 0.000000 1.624490 0.000000 
#    z 0.000000 0.000000 1.645000 
# 
# From -- ./inp_files/18051.got.cif
#   From: 2010.05.17/outbox.cif.g08.bks.cpg/sg72_10_cif.got.tgz:18051.got - 2010.06.03 17:03:01.
