data_PCOD9527288
_publ_section_title
;
Structure prediction by ZEFSAII (Michael W. Deem and Ramdas Pophale) SiO2 
 PCOD9527288
Probable space group: I B A M
;
_chemical_formula_sum "Si O2"
_cell_formula_units_Z 120
_cell_length_a 13.570506
_cell_length_b 15.910789
_cell_length_c 28.946676
_cell_angle_alpha 90.000000
_cell_angle_beta 90.000000
_cell_angle_gamma 90.000000
_cell_volume 6250.092688
_symmetry_space_group_name_H-M "I B A M"
_symmetry_group_IT_number 72
_symmetry_cell_setting 'orthorhombic'
loop_
_space_group_symop_operation_xyz
x,y,z
-x,-y,z
x,-y,1/2-z
-x,y,1/2-z
-x,-y,-z
x,y,-z
-x,y,1/2+z
x,-y,1/2+z
1/2+x,1/2+y,1/2+z
1/2-x,1/2-y,1/2+z
1/2+x,1/2-y,-z
1/2-x,1/2+y,-z
1/2-x,1/2-y,1/2-z
1/2+x,1/2+y,1/2-z
1/2-x,1/2+y,z
1/2+x,1/2-y,z
loop_
_atom_site_type_symbol
_atom_site_label
_atom_site_fract_x
_atom_site_fract_y
_atom_site_fract_z
Si Si1 0.361038 0.040326 0.649840
Si Si2 0.865744 0.393878 0.551147
Si Si3 0.361038 0.540326 0.649840
Si Si4 1.000000 0.750000 0.090749
Si Si5 0.000000 0.250000 0.750000
Si Si6 0.442860 0.364040 0.328773
Si Si7 0.865744 0.106121 0.051147
Si Si8 0.942860 0.364040 0.828773
O O1 0.379519 0.043460 0.594369
O O2 0.250000 0.069372 0.658545
O O3 0.444631 0.100259 0.670620
O O4 0.376599 0.946375 0.668015
O O5 0.887346 0.428114 0.500000
O O6 0.933270 0.313251 0.561530
O O7 0.750000 0.370161 0.552079
O O8 0.444631 0.600259 0.670620
O O9 0.376599 0.446375 0.668015
O O10 0.379519 0.543460 0.594369
O O11 0.934234 0.806273 0.125783
O O12 0.066730 0.813251 0.061530
O O13 0.065766 0.693727 0.125783
O O14 0.065442 0.192186 0.783552
O O15 0.065442 0.307814 0.716448
O O16 0.887345 0.071886 0.000000
#
# Coordination Sequence:
#
# PCOD9527288 Si02
#       8
#    16  16  16  16   8  16  16  16
#     4   9  18  34  53  73 101 133 166 202 243 292
#     4   9  17  30  49  73 102 136 170 203 238 281
#     4   9  18  34  53  73 101 133 166 202 243 292
#     4   9  17  31  49  72 102 132 165 203 247 291
#     4  10  20  38  56  72 102 124 158 212 250 304
#     4   9  19  35  53  73  97 131 163 202 255 294
#     4   9  17  30  49  73 102 136 170 203 238 281
#     4   9  19  35  53  73  97 131 163 202 255 294
#
# _framework density 19.199715000000001
#
# number of rings (size 3 to 8) (size 9 to 14) (size 15 to 20)
#    0.000    2.933    0.000    0.400    0.000    3.200 
#    0.000   20.000    0.000    3.200    0.000    0.000 
#    0.000    0.000    0.000    0.000    0.000    0.000 
#
# Total GULP energy -334404.867494 kJ/mol
# GULP energy per Si atom -5573.414458 kJ/mol
# Density = 1.915602 g / cm^3
# Si number density = 19.199715 Si / 1000 Ang^3
#
#
#
# Elastic Constant Matrix: (Units=GPa)
#
#
# Indices 1 2 3 4 5 6 
#
# 1 55.1021 2.1675 20.0275 0.0000 0.0000 0.0000
# 2 2.1675 68.2631 37.3926 0.0000 0.0000 0.0000
# 3 20.0275 37.3926 102.3393 0.0000 0.0000 0.0000
# 4 0.0000 0.0000 0.0000 0.0322 0.0000 0.0000
# 5 0.0000 0.0000 0.0000 0.0000 10.3632 0.0000
# 6 0.0000 0.0000 0.0000 0.0000 0.0000 11.4203
#
#
#
# Elastic Compliance Matrix: (Units=1/GPa)
#
#
# Indices 1 2 3 4 5 6 
#
# 1 0.019725 0.001861 -0.004540 0.000000 0.000000 0.000000
# 2 0.001861 0.018490 -0.007120 0.000000 0.000000 0.000000
# 3 -0.004540 -0.007120 0.013261 0.000000 0.000000 0.000000
# 4 0.000000 0.000000 0.000000 31.049770 0.000000 0.000000
# 5 0.000000 0.000000 0.000000 0.000000 0.096495 0.000000
# 6 0.000000 0.000000 0.000000 0.000000 0.000000 0.087563
#
#
# Mechanical properties :
#
#
# Convention : Reuss Voigt Hill
#
# Bulk Modulus (GPa) = 31.36979 38.31997 34.84488
# Shear Modulus (GPa) = 0.15967 15.43761 7.79864
#
# Velocity S-wave (km/s) = 0.28869 2.83866 2.01759
# Velocity P-wave (km/s) = 4.06021 5.54490 4.85959
#
# Compressibility (1/GPa) = 0.03187780
#
# Stress axis : x y z
#
# Youngs Moduli (GPa) = 50.69701 54.08246 75.40693
#
# Poissons Ratio (x) = -0.10062 0.34234
# Poissons Ratio (y) = -0.09432 0.53690
# Poissons Ratio (z) = 0.23016 0.38507
#
# Static dielectric constant tensor:
#      x y z
#    x 1.649940 0.000000 0.000000 
#    y 0.000000 1.659910 0.000000 
#    z 0.000000 0.000000 1.694310 
# 
# From -- ./inp_files/51910.got.cif
#   From: 2010.05.17/outbox.cif.g08.bks.cpg/sg72_26_cif.got.tgz:51910.got - 2010.06.03 17:03:01.
