data_PCOD9527621
_publ_section_title
;
Structure prediction by ZEFSAII (Michael W. Deem and Ramdas Pophale) SiO2 
 PCOD9527621
Probable space group: I B A M
;
_chemical_formula_sum "Si O2"
_cell_formula_units_Z 116
_cell_length_a 14.362789
_cell_length_b 16.791069
_cell_length_c 23.294447
_cell_angle_alpha 90.000000
_cell_angle_beta 90.000000
_cell_angle_gamma 90.000000
_cell_volume 5617.842142
_symmetry_space_group_name_H-M "I B A M"
_symmetry_group_IT_number 72
_symmetry_cell_setting 'orthorhombic'
loop_
_space_group_symop_operation_xyz
x,y,z
-x,-y,z
x,-y,1/2-z
-x,y,1/2-z
-x,-y,-z
x,y,-z
-x,y,1/2+z
x,-y,1/2+z
1/2+x,1/2+y,1/2+z
1/2-x,1/2-y,1/2+z
1/2+x,1/2-y,-z
1/2-x,1/2+y,-z
1/2-x,1/2-y,1/2-z
1/2+x,1/2+y,1/2-z
1/2-x,1/2+y,z
1/2+x,1/2-y,z
loop_
_atom_site_type_symbol
_atom_site_label
_atom_site_fract_x
_atom_site_fract_y
_atom_site_fract_z
Si Si1 0.645130 0.695356 0.787493
Si Si2 0.617949 0.851633 0.147642
Si Si3 0.292743 0.018509 0.934659
Si Si4 0.555126 0.641776 0.678525
Si Si5 0.412846 0.441946 0.433374
Si Si6 0.000000 0.000000 0.250000
Si Si7 0.821836 0.585781 0.764407
Si Si8 0.938085 0.420060 0.379008
O O1 0.661274 0.769047 0.830549
O O2 0.605609 0.704997 0.721255
O O3 0.555593 0.655157 0.817426
O O4 0.738557 0.646295 0.777789
O O5 0.677973 0.908825 0.106966
O O6 0.615111 0.894255 0.209449
O O7 0.514534 0.849618 0.119858
O O8 0.182682 0.008575 0.926770
O O9 0.353538 0.939606 0.922072
O O10 0.310870 0.042976 0.000000
O O11 0.587236 0.628363 0.613802
O O12 0.563990 0.556529 0.710718
O O13 0.500000 0.500000 0.422607
O O14 0.417487 0.414757 0.500000
O O15 0.779618 0.500000 0.750000
O O16 0.887945 0.582855 0.818530
O O17 0.000000 0.500000 0.384253
#
# Coordination Sequence:
#
# PCOD9527621 Si02
#       8
#    16  16  16  16  16   4  16  16
#     4  10  25  37  58  93 127 177 203 266 336 401
#     4  11  23  42  58  92 131 171 214 264 336 391
#     4  10  22  40  66  96 124 164 222 276 325 382
#     4  10  21  35  57  86 127 162 213 252 317 395
#     4  10  21  37  63  92 128 164 204 269 330 382
#     4   8  16  28  50  80 116 152 192 250 304 344
#     4  12  22  34  62  92 128 161 213 268 324 390
#     4  10  22  36  63  91 122 163 214 274 322 382
#
# _framework density 20.648496999999999
#
# number of rings (size 3 to 8) (size 9 to 14) (size 15 to 20)
#    0.000    1.793    3.448    1.655    9.655    2.483 
#    0.000    0.690    0.000    0.828    0.000    0.000 
#    0.000    0.000    0.000    0.000    0.000    0.000 
#
# Total GULP energy -323099.705851 kJ/mol
# GULP energy per Si atom -5570.684584 kJ/mol
# Density = 2.060150 g / cm^3
# Si number density = 20.648497 Si / 1000 Ang^3
#
#
#
# Elastic Constant Matrix: (Units=GPa)
#
#
# Indices 1 2 3 4 5 6 
#
# 1 111.2553 11.6857 17.0863 0.0000 0.0000 0.0000
# 2 11.6857 45.1548 1.6258 0.0000 0.0000 0.0000
# 3 17.0863 1.6258 82.8675 0.0000 0.0000 0.0000
# 4 0.0000 0.0000 0.0000 19.1697 0.0000 0.0000
# 5 0.0000 0.0000 0.0000 0.0000 29.1858 0.0000
# 6 0.0000 0.0000 0.0000 0.0000 0.0000 15.8025
#
#
#
# Elastic Compliance Matrix: (Units=1/GPa)
#
#
# Indices 1 2 3 4 5 6 
#
# 1 0.009535 -0.002398 -0.001919 0.000000 0.000000 0.000000
# 2 -0.002398 0.022765 0.000048 0.000000 0.000000 0.000000
# 3 -0.001919 0.000048 0.012462 0.000000 0.000000 0.000000
# 4 0.000000 0.000000 0.000000 0.052166 0.000000 0.000000
# 5 0.000000 0.000000 0.000000 0.000000 0.034263 0.000000
# 6 0.000000 0.000000 0.000000 0.000000 0.000000 0.063281
#
#
# Mechanical properties :
#
#
# Convention : Reuss Voigt Hill
#
# Bulk Modulus (GPa) = 27.60667 33.34147 30.47407
# Shear Modulus (GPa) = 23.24657 26.75693 25.00175
#
# Velocity S-wave (km/s) = 3.35897 3.60367 3.48347
# Velocity P-wave (km/s) = 5.33314 5.78770 5.56506
#
# Compressibility (1/GPa) = 0.03622313
#
# Stress axis : x y z
#
# Youngs Moduli (GPa) = 104.87711 43.92704 80.24281
#
# Poissons Ratio (x) = 0.10536 0.15398
# Poissons Ratio (y) = 0.25154 -0.00384
# Poissons Ratio (z) = 0.20125 -0.00210
#
# Static dielectric constant tensor:
#      x y z
#    x 1.776810 0.000000 0.000000 
#    y 0.000000 1.848920 0.000000 
#    z 0.000000 0.000000 1.756900 
# 
# From -- ./inp_files/44511.got.cif
#   From: 2010.05.17/outbox.cif.g08.bks.cpg/sg72_23_cif.got.tgz:44511.got - 2010.06.03 17:03:01.
