data_PCOD9527867
_publ_section_title
;
Structure prediction by ZEFSAII (Michael W. Deem and Ramdas Pophale) SiO2 
 PCOD9527867
Probable space group: I B A M
;
_chemical_formula_sum "Si O2"
_cell_formula_units_Z 116
_cell_length_a 21.519364
_cell_length_b 30.884143
_cell_length_c 9.226585
_cell_angle_alpha 90.000000
_cell_angle_beta 90.000000
_cell_angle_gamma 90.000000
_cell_volume 6132.054039
_symmetry_space_group_name_H-M "I B A M"
_symmetry_group_IT_number 72
_symmetry_cell_setting 'orthorhombic'
loop_
_space_group_symop_operation_xyz
x,y,z
-x,-y,z
x,-y,1/2-z
-x,y,1/2-z
-x,-y,-z
x,y,-z
-x,y,1/2+z
x,-y,1/2+z
1/2+x,1/2+y,1/2+z
1/2-x,1/2-y,1/2+z
1/2+x,1/2-y,-z
1/2-x,1/2+y,-z
1/2-x,1/2-y,1/2-z
1/2+x,1/2+y,1/2-z
1/2-x,1/2+y,z
1/2+x,1/2-y,z
loop_
_atom_site_type_symbol
_atom_site_label
_atom_site_fract_x
_atom_site_fract_y
_atom_site_fract_z
Si Si1 0.884395 0.063479 0.329818
Si Si2 0.766779 0.792625 0.162112
Si Si3 0.564499 0.175119 0.827483
Si Si4 0.561850 0.359072 0.329022
Si Si5 0.500000 0.500000 0.250000
Si Si6 0.695047 0.866222 0.327088
Si Si7 0.243487 0.041249 0.326879
Si Si8 0.912319 0.223168 0.337619
O O1 0.872161 0.068290 0.500000
O O2 0.889898 0.110259 0.252483
O O3 0.824336 0.045003 0.247294
O O4 0.947688 0.033708 0.316697
O O5 0.750000 0.750000 0.250000
O O6 0.741347 0.834098 0.244936
O O7 0.840567 0.789773 0.151504
O O8 0.740153 0.791357 0.000000
O O9 0.500000 0.164189 0.750000
O O10 0.624721 0.146967 0.783502
O O11 0.579174 0.226301 0.802840
O O12 0.556805 0.170061 0.000000
O O13 0.500000 0.374581 0.250000
O O14 0.562695 0.366251 0.500000
O O15 0.565428 0.308744 0.287851
O O16 0.699665 0.857788 0.500000
O O17 0.716833 0.915212 0.301668
O O18 0.236438 0.035347 0.500000
O O19 0.274234 0.000000 0.250000
O O20 0.939718 0.214795 0.500000
#
# Coordination Sequence:
#
# PCOD9527867 Si02
#       8
#    16  16  16  16   4  16  16  16
#     4  12  25  42  64  88 120 157 206 258 307 361
#     4  11  21  35  58  87 120 158 199 246 294 353
#     4  10  21  39  61  88 122 158 202 251 307 369
#     4  12  25  39  56  80 114 155 203 250 301 357
#     4  12  26  40  68  90 118 160 204 256 310 352
#     4  10  22  42  63  89 125 165 204 256 312 370
#     4  11  24  42  67  94 124 158 200 252 314 371
#     4  10  21  38  58  82 118 159 202 250 300 355
#
# _framework density 18.916988
#
# number of rings (size 3 to 8) (size 9 to 14) (size 15 to 20)
#    0.000    1.103    2.759    3.931    0.000    7.724 
#    0.000    0.000    0.000    0.414    0.000    2.897 
#    0.000    0.000    0.000    0.000    0.000    0.000 
#
# Total GULP energy -323487.979237 kJ/mol
# GULP energy per Si atom -5577.378952 kJ/mol
# Density = 1.887393 g / cm^3
# Si number density = 18.916988 Si / 1000 Ang^3
#
#
#
# Elastic Constant Matrix: (Units=GPa)
#
#
# Indices 1 2 3 4 5 6 
#
# 1 98.5494 46.8261 44.6668 0.0000 0.0000 0.0000
# 2 46.8261 123.6972 78.9237 0.0000 0.0000 0.0000
# 3 44.6668 78.9237 114.4637 0.0000 0.0000 0.0000
# 4 0.0000 0.0000 0.0000 12.4929 0.0000 0.0000
# 5 0.0000 0.0000 0.0000 0.0000 26.6780 0.0000
# 6 0.0000 0.0000 0.0000 0.0000 0.0000 26.2113
#
#
#
# Elastic Compliance Matrix: (Units=1/GPa)
#
#
# Indices 1 2 3 4 5 6 
#
# 1 0.012918 -0.002989 -0.002980 0.000000 0.000000 0.000000
# 2 -0.002989 0.015126 -0.009263 0.000000 0.000000 0.000000
# 3 -0.002980 -0.009263 0.016286 0.000000 0.000000 0.000000
# 4 0.000000 0.000000 0.000000 0.080046 0.000000 0.000000
# 5 0.000000 0.000000 0.000000 0.000000 0.037484 0.000000
# 6 0.000000 0.000000 0.000000 0.000000 0.000000 0.038151
#
#
# Mechanical properties :
#
#
# Convention : Reuss Voigt Hill
#
# Bulk Modulus (GPa) = 72.11805 75.28263 73.70034
# Shear Modulus (GPa) = 21.26775 24.16268 22.71522
#
# Velocity S-wave (km/s) = 3.35665 3.57781 3.46899
# Velocity P-wave (km/s) = 7.29582 7.54655 7.42224
#
# Compressibility (1/GPa) = 0.01386615
#
# Stress axis : x y z
#
# Youngs Moduli (GPa) = 77.41103 66.11169 61.40082
#
# Poissons Ratio (x) = 0.19759 0.18299
# Poissons Ratio (y) = 0.23136 0.56877
# Poissons Ratio (z) = 0.23071 0.61241
#
# Static dielectric constant tensor:
#      x y z
#    x 2.198150 0.000000 0.000000 
#    y 0.000000 1.702410 0.000000 
#    z 0.000000 0.000000 1.662220 
# 
# From -- ./inp_files/7344.got.cif
#   From: 2010.05.17/outbox.cif.g08.bks.cpg/sg72_4_cif.got.tgz:7344.got - 2010.06.03 17:03:01.
