data_PCOD9527037
_publ_section_title
;
Structure prediction by ZEFSAII (Michael W. Deem and Ramdas Pophale) SiO2 
 PCOD9527037
Probable space group: I B A M
;
_chemical_formula_sum "Si O2"
_cell_formula_units_Z 64
_cell_length_a 8.267242
_cell_length_b 12.117934
_cell_length_c 31.904347
_cell_angle_alpha 90.000000
_cell_angle_beta 90.000000
_cell_angle_gamma 90.000000
_cell_volume 3196.237875
_symmetry_space_group_name_H-M "I B A M"
_symmetry_group_IT_number 72
_symmetry_cell_setting 'orthorhombic'
loop_
_space_group_symop_operation_xyz
x,y,z
-x,-y,z
x,-y,1/2-z
-x,y,1/2-z
-x,-y,-z
x,y,-z
-x,y,1/2+z
x,-y,1/2+z
1/2+x,1/2+y,1/2+z
1/2-x,1/2-y,1/2+z
1/2+x,1/2-y,-z
1/2-x,1/2+y,-z
1/2-x,1/2-y,1/2-z
1/2+x,1/2+y,1/2-z
1/2-x,1/2+y,z
1/2+x,1/2-y,z
loop_
_atom_site_type_symbol
_atom_site_label
_atom_site_fract_x
_atom_site_fract_y
_atom_site_fract_z
Si Si1 0.411362 0.386017 0.449775
Si Si2 0.447487 0.382863 0.201531
Si Si3 0.146473 0.688143 0.342356
Si Si4 0.893245 0.310645 0.095605
O O1 0.500000 0.500000 0.437403
O O2 0.409885 0.379241 0.500000
O O3 0.228193 0.382374 0.432311
O O4 0.508422 0.280323 0.431475
O O5 0.500000 0.500000 0.182842
O O6 0.500000 0.381584 0.250000
O O7 0.256536 0.372259 0.192062
O O8 0.545779 0.284032 0.180383
O O9 0.274662 0.743142 0.373738
O O10 0.019558 0.629324 0.373345
#
# Coordination Sequence:
#
# PCOD9527037 Si02
#       4
#    16  16  16  16
#     4  10  20  36  58  82 112 149 188 235 288 339
#     4  10  20  36  58  82 112 149 185 229 279 332
#     4   9  19  35  55  81 111 144 184 230 279 332
#     4   9  19  35  55  81 111 145 184 232 281 335
#
# _framework density 20.023541999999999
#
# number of rings (size 3 to 8) (size 9 to 14) (size 15 to 20)
#    0.000    2.500    0.000    1.500    0.000    9.000 
#    0.000   17.500    0.000   27.000    0.000    0.000 
#    0.000    0.000    0.000    0.000    0.000    0.000 
#
# Total GULP energy -178321.578999 kJ/mol
# GULP energy per Si atom -5572.549344 kJ/mol
# Density = 1.997797 g / cm^3
# Si number density = 20.023542 Si / 1000 Ang^3
#
#
#
# Elastic Constant Matrix: (Units=GPa)
#
#
# Indices 1 2 3 4 5 6 
#
# 1 156.8412 56.1981 56.7812 0.0000 0.0000 0.0000
# 2 56.1981 93.8963 31.1657 0.0000 0.0000 0.0000
# 3 56.7812 31.1657 95.5212 0.0000 0.0000 0.0000
# 4 0.0000 0.0000 0.0000 -15.5504 0.0000 0.0000
# 5 0.0000 0.0000 0.0000 0.0000 47.2699 0.0000
# 6 0.0000 0.0000 0.0000 0.0000 0.0000 23.7360
#
#
#
# Elastic Compliance Matrix: (Units=1/GPa)
#
#
# Indices 1 2 3 4 5 6 
#
# 1 0.009422 -0.004239 -0.004217 0.000000 0.000000 0.000000
# 2 -0.004239 0.013851 -0.001999 0.000000 0.000000 0.000000
# 3 -0.004217 -0.001999 0.013628 0.000000 0.000000 0.000000
# 4 0.000000 0.000000 0.000000 -0.064307 0.000000 0.000000
# 5 0.000000 0.000000 0.000000 0.000000 0.021155 0.000000
# 6 0.000000 0.000000 0.000000 0.000000 0.000000 0.042130
#
#
# Mechanical properties :
#
#
# Convention : Reuss Voigt Hill
#
# Bulk Modulus (GPa) = 62.54297 70.50543 66.52420
# Shear Modulus (GPa) = 80.48933 24.56535 52.52734
#
# Velocity S-wave (km/s) = 6.34702 3.50640 5.12735
# Velocity P-wave (km/s) = 9.22038 7.18894 8.26729
#
# Compressibility (1/GPa) = 0.01598901
#
# Stress axis : x y z
#
# Youngs Moduli (GPa) = 106.13843 72.19807 73.37739
#
# Poissons Ratio (x) = 0.30606 0.30947
# Poissons Ratio (y) = 0.44994 0.14670
# Poissons Ratio (z) = 0.44764 0.14434
#
# Static dielectric constant tensor:
#      x y z
#    x 1.750530 0.000000 0.000000 
#    y 0.000000 1.980810 0.000000 
#    z 0.000000 0.000000 1.730360 
# 
# From -- ./inp_files/50578.got.cif
#   From: 2010.05.17/outbox.cif.g08.bks.cpg/sg72_26_cif.got.tgz:50578.got - 2010.06.03 17:03:01.
