data_PCOD9527862
_publ_section_title
;
Structure prediction by ZEFSAII (Michael W. Deem and Ramdas Pophale) SiO2 
 PCOD9527862
Probable space group: I B A M
;
_chemical_formula_sum "Si O2"
_cell_formula_units_Z 104
_cell_length_a 25.532578
_cell_length_b 23.916327
_cell_length_c 9.241341
_cell_angle_alpha 90.000000
_cell_angle_beta 90.000000
_cell_angle_gamma 90.000000
_cell_volume 5643.183153
_symmetry_space_group_name_H-M "I B A M"
_symmetry_group_IT_number 72
_symmetry_cell_setting 'orthorhombic'
loop_
_space_group_symop_operation_xyz
x,y,z
-x,-y,z
x,-y,1/2-z
-x,y,1/2-z
-x,-y,-z
x,y,-z
-x,y,1/2+z
x,-y,1/2+z
1/2+x,1/2+y,1/2+z
1/2-x,1/2-y,1/2+z
1/2+x,1/2-y,-z
1/2-x,1/2+y,-z
1/2-x,1/2-y,1/2-z
1/2+x,1/2+y,1/2-z
1/2-x,1/2+y,z
1/2+x,1/2-y,z
loop_
_atom_site_type_symbol
_atom_site_label
_atom_site_fract_x
_atom_site_fract_y
_atom_site_fract_z
Si Si1 0.088434 0.773334 0.664396
Si Si2 0.381456 0.829870 0.671581
Si Si3 0.555836 0.056347 0.672889
Si Si4 0.227951 0.694313 0.672802
Si Si5 0.416740 0.554659 0.662898
Si Si6 0.164277 0.856951 0.172644
Si Si7 0.500000 0.355674 0.750000
O O1 0.101466 0.758534 0.500000
O O2 0.081580 0.717954 0.759664
O O3 0.135186 0.808127 0.739516
O O4 0.038591 0.814306 0.665472
O O5 0.374886 0.819950 0.500000
O O6 0.406711 0.890574 0.693043
O O7 0.326176 0.823244 0.753254
O O8 0.500000 0.067481 0.750000
O O9 0.548891 0.047792 0.500000
O O10 0.576280 0.000000 0.750000
O O11 0.222087 0.703293 0.500000
O O12 0.250000 0.750000 0.750000
O O13 0.273938 0.648487 0.693589
O O14 0.431816 0.500000 0.750000
O O15 0.407697 0.536491 0.500000
O O16 0.364169 0.585663 0.717416
O O17 0.461291 0.602317 0.666766
O O18 0.153660 0.849410 0.000000
#
# Coordination Sequence:
#
# PCOD9527862 Si02
#       7
#    16  16  16  16  16  16   8
#     4  11  22  35  56  84 113 152 196 238 289 346
#     4  11  24  39  57  88 124 155 190 237 290 347
#     4  10  22  41  65  89 117 154 193 239 292 349
#     4  11  21  36  60  87 117 156 196 237 291 350
#     4  10  21  38  58  80 111 151 194 241 288 338
#     4   9  20  38  57  79 114 151 186 239 296 342
#     4  10  23  38  54  82 117 152 196 242 294 340
#
# _framework density 18.429314999999999
#
# number of rings (size 3 to 8) (size 9 to 14) (size 15 to 20)
#    0.000    1.692    1.538    3.000    1.077    8.615 
#    0.000    0.769    0.000    3.692    0.000    0.000 
#    0.000    0.000    0.000    0.000    0.000    0.000 
#
# Total GULP energy -290153.644079 kJ/mol
# GULP energy per Si atom -5579.877771 kJ/mol
# Density = 1.838737 g / cm^3
# Si number density = 18.429315 Si / 1000 Ang^3
#
#
#
# Elastic Constant Matrix: (Units=GPa)
#
#
# Indices 1 2 3 4 5 6 
#
# 1 88.9999 59.2633 40.9470 0.0000 0.0000 0.0000
# 2 59.2633 124.2180 66.9100 0.0000 0.0000 0.0000
# 3 40.9470 66.9100 112.1919 0.0000 0.0000 0.0000
# 4 0.0000 0.0000 0.0000 19.7570 0.0000 0.0000
# 5 0.0000 0.0000 0.0000 0.0000 13.6433 0.0000
# 6 0.0000 0.0000 0.0000 0.0000 0.0000 23.9005
#
#
#
# Elastic Compliance Matrix: (Units=1/GPa)
#
#
# Indices 1 2 3 4 5 6 
#
# 1 0.016763 -0.006927 -0.001987 0.000000 0.000000 0.000000
# 2 -0.006927 0.014723 -0.006252 0.000000 0.000000 0.000000
# 3 -0.001987 -0.006252 0.013367 0.000000 0.000000 0.000000
# 4 0.000000 0.000000 0.000000 0.050615 0.000000 0.000000
# 5 0.000000 0.000000 0.000000 0.000000 0.073296 0.000000
# 6 0.000000 0.000000 0.000000 0.000000 0.000000 0.041840
#
#
# Mechanical properties :
#
#
# Convention : Reuss Voigt Hill
#
# Bulk Modulus (GPa) = 68.86822 73.29447 71.08135
# Shear Modulus (GPa) = 20.34363 22.01278 21.17821
#
# Velocity S-wave (km/s) = 3.32606 3.45982 3.39360
# Velocity P-wave (km/s) = 7.22497 7.47111 7.34907
#
# Compressibility (1/GPa) = 0.01452048
#
# Stress axis : x y z
#
# Youngs Moduli (GPa) = 59.65633 67.91998 74.80962
#
# Poissons Ratio (x) = 0.47050 0.14862
# Poissons Ratio (y) = 0.41326 0.46775
# Poissons Ratio (z) = 0.11851 0.42467
#
# Static dielectric constant tensor:
#      x y z
#    x 1.651950 0.000000 0.000000 
#    y 0.000000 1.636180 0.000000 
#    z 0.000000 0.000000 1.628960 
# 
# From -- ./inp_files/8190.got.cif
#   From: 2010.05.17/outbox.cif.g08.bks.cpg/sg72_5_cif.got.tgz:8190.got - 2010.06.03 17:03:01.
