data_PCOD9527785
_publ_section_title
;
Structure prediction by ZEFSAII (Michael W. Deem and Ramdas Pophale) SiO2 
 PCOD9527785
Probable space group: I B A M
;
_chemical_formula_sum "Si O2"
_cell_formula_units_Z 96
_cell_length_a 18.649736
_cell_length_b 15.522021
_cell_length_c 14.826415
_cell_angle_alpha 90.000000
_cell_angle_beta 90.000000
_cell_angle_gamma 90.000000
_cell_volume 4291.974245
_symmetry_space_group_name_H-M "I B A M"
_symmetry_group_IT_number 72
_symmetry_cell_setting 'orthorhombic'
loop_
_space_group_symop_operation_xyz
x,y,z
-x,-y,z
x,-y,1/2-z
-x,y,1/2-z
-x,-y,-z
x,y,-z
-x,y,1/2+z
x,-y,1/2+z
1/2+x,1/2+y,1/2+z
1/2-x,1/2-y,1/2+z
1/2+x,1/2-y,-z
1/2-x,1/2+y,-z
1/2-x,1/2-y,1/2-z
1/2+x,1/2+y,1/2-z
1/2-x,1/2+y,z
1/2+x,1/2-y,z
loop_
_atom_site_type_symbol
_atom_site_label
_atom_site_fract_x
_atom_site_fract_y
_atom_site_fract_z
Si Si1 0.776102 0.004106 0.142242
Si Si2 0.771140 0.319563 0.135733
Si Si3 0.473435 0.095443 0.389962
Si Si4 0.073615 0.251607 0.397141
Si Si5 0.563997 0.440096 0.391390
Si Si6 0.184492 0.338769 0.845685
O O1 0.859889 0.016459 0.127058
O O2 0.734492 0.088559 0.109708
O O3 0.764760 0.000000 0.250000
O O4 0.745599 0.915481 0.103218
O O5 0.842834 0.275264 0.099790
O O6 0.790228 0.329914 0.241902
O O7 0.704273 0.256019 0.118056
O O8 0.470137 0.093489 0.500000
O O9 0.530603 0.167313 0.358594
O O10 0.395965 0.126941 0.355621
O O11 0.500000 0.000000 0.362026
O O12 0.047189 0.244525 0.500000
O O13 0.063413 0.157674 0.353864
O O14 0.500000 0.500000 0.357979
O O15 0.557735 0.434001 0.500000
#
# Coordination Sequence:
#
# PCOD9527785 Si02
#       6
#    16  16  16  16  16  16
#     4  10  21  38  59  85 115 147 190 236 284 345
#     4  10  21  37  59  85 117 153 190 240 289 346
#     4  10  22  39  61  88 119 154 196 246 294 347
#     4  10  21  39  59  85 118 150 192 240 286 344
#     4  10  22  39  57  81 115 151 189 236 287 341
#     4  10  21  38  57  87 120 150 193 239 293 351
#
# _framework density 22.367329000000002
#
# number of rings (size 3 to 8) (size 9 to 14) (size 15 to 20)
#    0.000    2.000    1.667    1.000    2.333    3.000 
#    0.000    2.500    0.000    0.000    0.000    0.000 
#    0.000    0.000    0.000    0.000    0.000    0.000 
#
# Total GULP energy -268068.795777 kJ/mol
# GULP energy per Si atom -5584.766579 kJ/mol
# Density = 2.231642 g / cm^3
# Si number density = 22.367329 Si / 1000 Ang^3
#
#
#
# Elastic Constant Matrix: (Units=GPa)
#
#
# Indices 1 2 3 4 5 6 
#
# 1 125.5739 74.1086 -8.7324 0.0000 0.0000 0.0000
# 2 74.1086 197.1087 20.1981 0.0000 0.0000 0.0000
# 3 -8.7324 20.1981 55.0642 0.0000 0.0000 0.0000
# 4 0.0000 0.0000 0.0000 -14.2655 0.0000 0.0000
# 5 0.0000 0.0000 0.0000 0.0000 26.0998 0.0000
# 6 0.0000 0.0000 0.0000 0.0000 0.0000 46.5859
#
#
#
# Elastic Compliance Matrix: (Units=1/GPa)
#
#
# Indices 1 2 3 4 5 6 
#
# 1 0.010790 -0.004397 0.003324 0.000000 0.000000 0.000000
# 2 -0.004397 0.007064 -0.003288 0.000000 0.000000 0.000000
# 3 0.003324 -0.003288 0.019894 0.000000 0.000000 0.000000
# 4 0.000000 0.000000 0.000000 -0.070099 0.000000 0.000000
# 5 0.000000 0.000000 0.000000 0.000000 0.038315 0.000000
# 6 0.000000 0.000000 0.000000 0.000000 0.000000 0.021466
#
#
# Mechanical properties :
#
#
# Convention : Reuss Voigt Hill
#
# Bulk Modulus (GPa) = 34.45414 60.98836 47.72125
# Shear Modulus (GPa) = 109.10765 31.16220 70.13492
#
# Velocity S-wave (km/s) = 6.99184 3.73661 5.60571
# Velocity P-wave (km/s) = 8.97877 6.77807 7.95489
#
# Compressibility (1/GPa) = 0.02902409
#
# Stress axis : x y z
#
# Youngs Moduli (GPa) = 92.68085 141.57080 50.26652
#
# Poissons Ratio (x) = 0.62253 -0.16709
# Poissons Ratio (y) = 0.40755 0.16529
# Poissons Ratio (z) = -0.30808 0.46553
#
# Static dielectric constant tensor:
#      x y z
#    x 1.767650 0.000000 0.000000 
#    y 0.000000 1.835650 0.000000 
#    z 0.000000 0.000000 1.904570 
# 
# From -- ./inp_files/38025.got.cif
#   From: 2010.05.17/outbox.cif.g08.bks.cpg/sg72_20_cif.got.tgz:38025.got - 2010.06.03 17:03:01.
