data_PCOD9527617
_publ_section_title
;
Structure prediction by ZEFSAII (Michael W. Deem and Ramdas Pophale) SiO2 
 PCOD9527617
Probable space group: I B A M
;
_chemical_formula_sum "Si O2"
_cell_formula_units_Z 68
_cell_length_a 17.001922
_cell_length_b 23.654601
_cell_length_c 7.882503
_cell_angle_alpha 90.000000
_cell_angle_beta 90.000000
_cell_angle_gamma 90.000000
_cell_volume 3170.135248
_symmetry_space_group_name_H-M "I B A M"
_symmetry_group_IT_number 72
_symmetry_cell_setting 'orthorhombic'
loop_
_space_group_symop_operation_xyz
x,y,z
-x,-y,z
x,-y,1/2-z
-x,y,1/2-z
-x,-y,-z
x,y,-z
-x,y,1/2+z
x,-y,1/2+z
1/2+x,1/2+y,1/2+z
1/2-x,1/2-y,1/2+z
1/2+x,1/2-y,-z
1/2-x,1/2+y,-z
1/2-x,1/2-y,1/2-z
1/2+x,1/2+y,1/2-z
1/2-x,1/2+y,z
1/2+x,1/2-y,z
loop_
_atom_site_type_symbol
_atom_site_label
_atom_site_fract_x
_atom_site_fract_y
_atom_site_fract_z
Si Si1 0.091489 0.831068 0.201708
Si Si2 0.809799 0.940227 0.800383
Si Si3 0.500000 0.000000 0.250000
Si Si4 0.408206 0.791595 0.296628
Si Si5 0.865081 0.583406 0.710446
O O1 0.141039 0.885007 0.255528
O O2 0.120260 0.769638 0.269545
O O3 0.000000 0.837471 0.250000
O O4 0.095374 0.828396 0.000000
O O5 0.720747 0.936805 0.732679
O O6 0.847188 0.000000 0.750000
O O7 0.801122 0.940425 0.000000
O O8 0.433495 0.047036 0.299635
O O9 0.500000 0.794689 0.250000
O O10 0.400730 0.790827 0.500000
O O11 0.370542 0.850523 0.242314
O O12 0.875403 0.577750 0.500000
#
# Coordination Sequence:
#
# PCOD9527617 Si02
#       5
#    16  16   4  16  16
#     4  10  21  39  63  88 115 151 194 242 296 351
#     4  11  23  40  59  85 120 154 194 243 293 346
#     4  12  18  36  60  86 122 160 196 232 282 340
#     4   9  18  35  57  84 117 153 196 241 286 341
#     4  10  21  35  56  86 121 158 195 238 286 340
#
# _framework density 21.450188000000001
#
# number of rings (size 3 to 8) (size 9 to 14) (size 15 to 20)
#    0.000    1.882    2.353    1.765    0.000    2.353 
#    0.000    4.706    0.000    0.000    0.000    0.000 
#    0.000    0.000    0.000    0.000    0.000    0.000 
#
# Total GULP energy -189421.249715 kJ/mol
# GULP energy per Si atom -5571.213227 kJ/mol
# Density = 2.140137 g / cm^3
# Si number density = 21.450188 Si / 1000 Ang^3
#
#
#
# Elastic Constant Matrix: (Units=GPa)
#
#
# Indices 1 2 3 4 5 6 
#
# 1 61.3149 66.2582 2.8977 0.0000 0.0000 0.0000
# 2 66.2582 239.1076 12.9726 0.0000 0.0000 0.0000
# 3 2.8977 12.9726 34.5961 0.0000 0.0000 0.0000
# 4 0.0000 0.0000 0.0000 -16.2925 0.0000 0.0000
# 5 0.0000 0.0000 0.0000 0.0000 -0.1913 0.0000
# 6 0.0000 0.0000 0.0000 0.0000 0.0000 38.9277
#
#
#
# Elastic Compliance Matrix: (Units=1/GPa)
#
#
# Indices 1 2 3 4 5 6 
#
# 1 0.023288 -0.006479 0.000479 0.000000 0.000000 0.000000
# 2 -0.006479 0.006072 -0.001734 0.000000 0.000000 0.000000
# 3 0.000479 -0.001734 0.029515 0.000000 0.000000 0.000000
# 4 0.000000 0.000000 0.000000 -0.061378 0.000000 0.000000
# 5 0.000000 0.000000 0.000000 0.000000 -5.227087 0.000000
# 6 0.000000 0.000000 0.000000 0.000000 0.000000 0.025689
#
#
# Mechanical properties :
#
#
# Convention : Reuss Voigt Hill
#
# Bulk Modulus (GPa) = 23.03808 55.47507 39.25658
# Shear Modulus (GPa) = -0.96638 21.34812 10.19087
#
# Velocity S-wave (km/s) = -0.67194 3.15817 2.18203
# Velocity P-wave (km/s) = 3.18772 6.26236 4.96884
#
# Compressibility (1/GPa) = 0.04340639
#
# Stress axis : x y z
#
# Youngs Moduli (GPa) = 42.93996 164.69688 33.88101
#
# Poissons Ratio (x) = 1.06713 -0.01623
# Poissons Ratio (y) = 0.27822 0.05875
# Poissons Ratio (z) = -0.02057 0.28559
#
# Static dielectric constant tensor:
#      x y z
#    x 1.687180 0.000000 0.000000 
#    y 0.000000 1.416750 0.000000 
#    z 0.000000 0.000000 1.804670 
# 
# From -- ./inp_files/4408.got.cif
#   From: 2010.05.17/outbox.cif.g08.bks.cpg/sg72_3_cif.got.tgz:4408.got - 2010.06.03 17:03:01.
