data_PCOD9527789
_publ_section_title
;
Structure prediction by ZEFSAII (Michael W. Deem and Ramdas Pophale) SiO2 
 PCOD9527789
Probable space group: I B A M
;
_chemical_formula_sum "Si O2"
_cell_formula_units_Z 64
_cell_length_a 10.899742
_cell_length_b 11.351382
_cell_length_c 21.481999
_cell_angle_alpha 90.000000
_cell_angle_beta 90.000000
_cell_angle_gamma 90.000000
_cell_volume 2657.906193
_symmetry_space_group_name_H-M "I B A M"
_symmetry_group_IT_number 72
_symmetry_cell_setting 'orthorhombic'
loop_
_space_group_symop_operation_xyz
x,y,z
-x,-y,z
x,-y,1/2-z
-x,y,1/2-z
-x,-y,-z
x,y,-z
-x,y,1/2+z
x,-y,1/2+z
1/2+x,1/2+y,1/2+z
1/2-x,1/2-y,1/2+z
1/2+x,1/2-y,-z
1/2-x,1/2+y,-z
1/2-x,1/2-y,1/2-z
1/2+x,1/2+y,1/2-z
1/2-x,1/2+y,z
1/2+x,1/2-y,z
loop_
_atom_site_type_symbol
_atom_site_label
_atom_site_fract_x
_atom_site_fract_y
_atom_site_fract_z
Si Si1 0.235774 0.206329 0.425394
Si Si2 0.128538 0.489910 0.858317
Si Si3 0.625875 0.183470 0.259378
Si Si4 0.469378 0.365999 0.424695
O O1 0.239777 0.209142 0.500000
O O2 0.276032 0.076855 0.401204
O O3 0.343264 0.299070 0.404800
O O4 0.090741 0.211315 0.409122
O O5 0.147952 0.611549 0.822715
O O6 0.111049 0.405339 0.798512
O O7 0.000000 0.500000 0.893987
O O8 0.500000 0.256710 0.250000
O O9 0.750000 0.250000 0.250000
O O10 0.500000 0.500000 0.402281
O O11 0.461657 0.373522 0.500000
#
# Coordination Sequence:
#
# PCOD9527789 Si02
#       4
#    16  16  16  16
#     4  10  21  37  59  87 122 163 204 252 308 368
#     4   9  20  37  57  84 116 152 197 247 304 371
#     4   9  19  38  61  83 111 148 193 250 310 366
#     4   9  20  38  57  83 121 162 206 253 302 365
#
# _framework density 24.079103
#
# number of rings (size 3 to 8) (size 9 to 14) (size 15 to 20)
#    0.000    2.750    0.000    1.500    0.000    8.500 
#    0.000    7.500    0.000    0.000    0.000    0.000 
#    0.000    0.000    0.000    0.000    0.000    0.000 
#
# Total GULP energy -178376.936034 kJ/mol
# GULP energy per Si atom -5574.279251 kJ/mol
# Density = 2.402430 g / cm^3
# Si number density = 24.079103 Si / 1000 Ang^3
#
#
#
# Elastic Constant Matrix: (Units=GPa)
#
#
# Indices 1 2 3 4 5 6 
#
# 1 232.1746 80.7815 33.3746 0.0000 0.0000 0.0000
# 2 80.7815 109.3886 37.9674 0.0000 0.0000 0.0000
# 3 33.3746 37.9674 22.2628 0.0000 0.0000 0.0000
# 4 0.0000 0.0000 0.0000 33.5841 0.0000 0.0000
# 5 0.0000 0.0000 0.0000 0.0000 32.3006 0.0000
# 6 0.0000 0.0000 0.0000 0.0000 0.0000 40.1505
#
#
#
# Elastic Compliance Matrix: (Units=1/GPa)
#
#
# Indices 1 2 3 4 5 6 
#
# 1 0.005904 -0.003156 -0.003468 0.000000 0.000000 0.000000
# 2 -0.003156 0.024090 -0.036352 0.000000 0.000000 0.000000
# 3 -0.003468 -0.036352 0.112111 0.000000 0.000000 0.000000
# 4 0.000000 0.000000 0.000000 0.029776 0.000000 0.000000
# 5 0.000000 0.000000 0.000000 0.000000 0.030959 0.000000
# 6 0.000000 0.000000 0.000000 0.000000 0.000000 0.024906
#
#
# Mechanical properties :
#
#
# Convention : Reuss Voigt Hill
#
# Bulk Modulus (GPa) = 17.80824 74.23032 46.01928
# Shear Modulus (GPa) = 15.04142 35.32054 25.18098
#
# Velocity S-wave (km/s) = 2.50205 3.83411 3.23733
# Velocity P-wave (km/s) = 3.96973 7.10599 5.75560
#
# Compressibility (1/GPa) = 0.05615378
#
# Stress axis : x y z
#
# Youngs Moduli (GPa) = 169.38444 41.51155 8.91969
#
# Poissons Ratio (x) = 0.13102 0.03093
# Poissons Ratio (y) = 0.53461 0.32424
# Poissons Ratio (z) = 0.58739 1.50901
#
# Static dielectric constant tensor:
#      x y z
#    x 1.910970 0.000000 0.000000 
#    y 0.000000 2.013800 0.000000 
#    z 0.000000 0.000000 1.869520 
# 
# From -- ./inp_files/47868.got.cif
#   From: 2010.05.17/outbox.cif.g08.bks.cpg/sg72_24_cif.got.tgz:47868.got - 2010.06.03 17:03:01.
