data_PCOD9527908
_publ_section_title
;
Structure prediction by ZEFSAII (Michael W. Deem and Ramdas Pophale) SiO2 
 PCOD9527908
Probable space group: I B A M
;
_chemical_formula_sum "Si O2"
_cell_formula_units_Z 88
_cell_length_a 21.614723
_cell_length_b 23.497764
_cell_length_c 8.868254
_cell_angle_alpha 90.000000
_cell_angle_beta 90.000000
_cell_angle_gamma 90.000000
_cell_volume 4504.165455
_symmetry_space_group_name_H-M "I B A M"
_symmetry_group_IT_number 72
_symmetry_cell_setting 'orthorhombic'
loop_
_space_group_symop_operation_xyz
x,y,z
-x,-y,z
x,-y,1/2-z
-x,y,1/2-z
-x,-y,-z
x,y,-z
-x,y,1/2+z
x,-y,1/2+z
1/2+x,1/2+y,1/2+z
1/2-x,1/2-y,1/2+z
1/2+x,1/2-y,-z
1/2-x,1/2+y,-z
1/2-x,1/2-y,1/2-z
1/2+x,1/2+y,1/2-z
1/2-x,1/2+y,z
1/2+x,1/2-y,z
loop_
_atom_site_type_symbol
_atom_site_label
_atom_site_fract_x
_atom_site_fract_y
_atom_site_fract_z
Si Si1 0.340173 0.354744 0.182609
Si Si2 0.000000 0.654445 0.750000
Si Si3 0.616002 0.231741 0.675578
Si Si4 0.296058 0.132440 0.817024
Si Si5 0.098973 0.441404 0.827378
Si Si6 0.438023 0.437285 0.680125
O O1 0.371881 0.295007 0.235015
O O2 0.270675 0.362954 0.241814
O O3 0.380051 0.403318 0.259987
O O4 0.342149 0.358889 0.000000
O O5 0.949814 0.699241 0.683649
O O6 0.953187 0.608583 0.826784
O O7 0.630029 0.237089 0.500000
O O8 0.666702 0.188354 0.737712
O O9 0.340738 0.081498 0.761837
O O10 0.291730 0.131047 0.000000
O O11 0.077086 0.500000 0.750000
O O12 0.115266 0.453144 0.000000
O O13 0.434652 0.500000 0.750000
O O14 0.500000 0.409939 0.750000
O O15 0.441756 0.439479 0.500000
#
# Coordination Sequence:
#
# PCOD9527908 Si02
#       6
#    16   8  16  16  16  16
#     4  11  22  38  62  92 124 159 201 247 301 361
#     4  10  21  38  60  90 125 166 206 252 304 360
#     4   9  20  37  58  86 123 162 202 248 298 355
#     4  10  21  40  61  86 121 160 204 253 304 358
#     4  11  23  39  62  90 123 163 209 257 310 367
#     4  11  23  42  64  89 119 154 194 242 299 356
#
# _framework density 19.537471
#
# number of rings (size 3 to 8) (size 9 to 14) (size 15 to 20)
#    0.000    1.636    0.000    5.182    1.273    3.636 
#    0.000   12.727    0.000    0.000    0.000    0.000 
#    0.000    0.000    0.000    0.000    0.000    0.000 
#
# Total GULP energy -245129.638669 kJ/mol
# GULP energy per Si atom -5571.128152 kJ/mol
# Density = 1.949300 g / cm^3
# Si number density = 19.537471 Si / 1000 Ang^3
#
#
#
# Elastic Constant Matrix: (Units=GPa)
#
#
# Indices 1 2 3 4 5 6 
#
# 1 127.5804 58.5688 38.8083 0.0000 0.0000 0.0000
# 2 58.5688 89.0673 39.2310 0.0000 0.0000 0.0000
# 3 38.8083 39.2310 122.8597 0.0000 0.0000 0.0000
# 4 0.0000 0.0000 0.0000 19.5256 0.0000 0.0000
# 5 0.0000 0.0000 0.0000 0.0000 0.8900 0.0000
# 6 0.0000 0.0000 0.0000 0.0000 0.0000 21.8174
#
#
#
# Elastic Compliance Matrix: (Units=1/GPa)
#
#
# Indices 1 2 3 4 5 6 
#
# 1 0.011433 -0.006898 -0.001409 0.000000 0.000000 0.000000
# 2 -0.006898 0.017226 -0.003322 0.000000 0.000000 0.000000
# 3 -0.001409 -0.003322 0.009645 0.000000 0.000000 0.000000
# 4 0.000000 0.000000 0.000000 0.051215 0.000000 0.000000
# 5 0.000000 0.000000 0.000000 0.000000 1.123640 0.000000
# 6 0.000000 0.000000 0.000000 0.000000 0.000000 0.045835
#
#
# Mechanical properties :
#
#
# Convention : Reuss Voigt Hill
#
# Bulk Modulus (GPa) = 66.45473 68.08042 67.26757
# Shear Modulus (GPa) = 3.88420 21.97319 12.92870
#
# Velocity S-wave (km/s) = 1.41152 3.35725 2.57522
# Velocity P-wave (km/s) = 6.06171 7.06752 6.58385
#
# Compressibility (1/GPa) = 0.01504784
#
# Stress axis : x y z
#
# Youngs Moduli (GPa) = 87.46335 58.05030 103.67919
#
# Poissons Ratio (x) = 0.40042 0.14608
# Poissons Ratio (y) = 0.60330 0.34441
# Poissons Ratio (z) = 0.12323 0.19283
#
# Static dielectric constant tensor:
#      x y z
#    x 1.742970 0.000000 0.000000 
#    y 0.000000 1.742350 0.000000 
#    z 0.000000 0.000000 1.669820 
# 
# From -- ./inp_files/6854.got.cif
#   From: 2010.05.17/outbox.cif.g08.bks.cpg/sg72_4_cif.got.tgz:6854.got - 2010.06.03 17:03:01.
