data_PCOD9527060
_publ_section_title
;
Structure prediction by ZEFSAII (Michael W. Deem and Ramdas Pophale) SiO2 
 PCOD9527060
Probable space group: I B A M
;
_chemical_formula_sum "Si O2"
_cell_formula_units_Z 96
_cell_length_a 22.364103
_cell_length_b 13.360133
_cell_length_c 14.305553
_cell_angle_alpha 90.000000
_cell_angle_beta 90.000000
_cell_angle_gamma 90.000000
_cell_volume 4274.318851
_symmetry_space_group_name_H-M "I B A M"
_symmetry_group_IT_number 72
_symmetry_cell_setting 'orthorhombic'
loop_
_space_group_symop_operation_xyz
x,y,z
-x,-y,z
x,-y,1/2-z
-x,y,1/2-z
-x,-y,-z
x,y,-z
-x,y,1/2+z
x,-y,1/2+z
1/2+x,1/2+y,1/2+z
1/2-x,1/2-y,1/2+z
1/2+x,1/2-y,-z
1/2-x,1/2+y,-z
1/2-x,1/2-y,1/2-z
1/2+x,1/2+y,1/2-z
1/2-x,1/2+y,z
1/2+x,1/2-y,z
loop_
_atom_site_type_symbol
_atom_site_label
_atom_site_fract_x
_atom_site_fract_y
_atom_site_fract_z
Si Si1 0.398355 0.257779 0.386643
Si Si2 0.214587 0.850072 0.279700
Si Si3 0.824364 0.395202 0.892540
Si Si4 0.146322 0.158465 0.393529
Si Si5 0.433181 0.032579 0.613917
Si Si6 0.511253 0.612696 0.886804
O O1 0.393102 0.260987 0.500000
O O2 0.340480 0.310945 0.342960
O O3 0.410042 0.142681 0.358538
O O4 0.457655 0.316903 0.356024
O O5 0.250000 0.750000 0.250000
O O6 0.264513 0.912017 0.334124
O O7 0.186946 0.893294 0.184379
O O8 0.838727 0.276578 0.893574
O O9 0.882804 0.453111 0.857670
O O10 0.813933 0.426134 0.000000
O O11 0.154086 0.120857 0.500000
O O12 0.077698 0.146905 0.363997
O O13 0.435327 0.032932 0.500000
O O14 0.500000 0.000000 0.643797
O O15 0.500000 0.500000 0.856000
O O16 0.508884 0.614019 0.000000
#
# Coordination Sequence:
#
# PCOD9527060 Si02
#       6
#    16  16  16  16  16  16
#     4  10  20  36  59  86 119 154 191 242 300 361
#     4  10  21  37  55  80 116 156 197 238 288 356
#     4   9  17  33  58  86 119 154 190 236 291 351
#     4   9  18  35  58  82 111 149 193 245 296 344
#     4   9  17  32  59  92 121 156 200 245 300 362
#     4   9  18  35  59  85 113 147 190 240 294 348
#
# _framework density 22.459720000000001
#
# number of rings (size 3 to 8) (size 9 to 14) (size 15 to 20)
#    0.000    2.667    0.000    1.500    0.000    5.333 
#    0.000   10.000    0.000   16.000    0.000    1.167 
#    0.000    0.667    0.000    0.000    0.000    0.000 
#
# Total GULP energy -268301.733337 kJ/mol
# GULP energy per Si atom -5589.619445 kJ/mol
# Density = 2.240860 g / cm^3
# Si number density = 22.459720 Si / 1000 Ang^3
#
#
#
# Elastic Constant Matrix: (Units=GPa)
#
#
# Indices 1 2 3 4 5 6 
#
# 1 218.5946 50.2734 82.7495 0.0000 0.0000 0.0000
# 2 50.2734 55.4525 27.8528 0.0000 0.0000 0.0000
# 3 82.7495 27.8528 119.0188 0.0000 0.0000 0.0000
# 4 0.0000 0.0000 0.0000 2.8931 0.0000 0.0000
# 5 0.0000 0.0000 0.0000 0.0000 -47.8544 0.0000
# 6 0.0000 0.0000 0.0000 0.0000 0.0000 39.9565
#
#
#
# Elastic Compliance Matrix: (Units=1/GPa)
#
#
# Indices 1 2 3 4 5 6 
#
# 1 0.007065 -0.004463 -0.003868 0.000000 0.000000 0.000000
# 2 -0.004463 0.023254 -0.002339 0.000000 0.000000 0.000000
# 3 -0.003868 -0.002339 0.011639 0.000000 0.000000 0.000000
# 4 0.000000 0.000000 0.000000 0.345647 0.000000 0.000000
# 5 0.000000 0.000000 0.000000 0.000000 -0.020897 0.000000
# 6 0.000000 0.000000 0.000000 0.000000 0.000000 0.025027
#
#
# Mechanical properties :
#
#
# Convention : Reuss Voigt Hill
#
# Bulk Modulus (GPa) = 48.49978 79.42412 63.96195
# Shear Modulus (GPa) = 11.90625 14.47839 13.19232
#
# Velocity S-wave (km/s) = 2.30492 2.54173 2.42622
# Velocity P-wave (km/s) = 5.35953 6.63728 6.03233
#
# Compressibility (1/GPa) = 0.02061865
#
# Stress axis : x y z
#
# Youngs Moduli (GPa) = 141.53936 43.00296 85.92067
#
# Poissons Ratio (x) = 0.19190 0.33233
# Poissons Ratio (y) = 0.63163 0.20099
# Poissons Ratio (z) = 0.54745 0.10060
#
# Static dielectric constant tensor:
#      x y z
#    x 1.811290 0.000000 0.000000 
#    y 0.000000 1.818730 0.000000 
#    z 0.000000 0.000000 1.891690 
# 
# From -- ./inp_files/24167.got.cif
#   From: 2010.05.17/outbox.cif.g08.bks.cpg/sg72_13_cif.got.tgz:24167.got - 2010.06.03 17:03:01.
