data_PCOD9527013
_publ_section_title
;
Structure prediction by ZEFSAII (Michael W. Deem and Ramdas Pophale) SiO2 
 PCOD9527013
Probable space group: I B A M
;
_chemical_formula_sum "Si O2"
_cell_formula_units_Z 80
_cell_length_a 8.949665
_cell_length_b 29.385236
_cell_length_c 15.396753
_cell_angle_alpha 90.000000
_cell_angle_beta 90.000000
_cell_angle_gamma 90.000000
_cell_volume 4049.161557
_symmetry_space_group_name_H-M "I B A M"
_symmetry_group_IT_number 72
_symmetry_cell_setting 'orthorhombic'
loop_
_space_group_symop_operation_xyz
x,y,z
-x,-y,z
x,-y,1/2-z
-x,y,1/2-z
-x,-y,-z
x,y,-z
-x,y,1/2+z
x,-y,1/2+z
1/2+x,1/2+y,1/2+z
1/2-x,1/2-y,1/2+z
1/2+x,1/2-y,-z
1/2-x,1/2+y,-z
1/2-x,1/2-y,1/2-z
1/2+x,1/2+y,1/2-z
1/2-x,1/2+y,z
1/2+x,1/2-y,z
loop_
_atom_site_type_symbol
_atom_site_label
_atom_site_fract_x
_atom_site_fract_y
_atom_site_fract_z
Si Si1 0.893339 0.205063 0.403995
Si Si2 0.181256 0.448118 0.756047
Si Si3 0.340638 0.874496 0.102803
Si Si4 0.788205 0.219602 0.165973
Si Si5 0.699274 0.117334 0.600858
O O1 0.952649 0.195007 0.500000
O O2 0.464073 0.285112 0.845982
O O3 0.787457 0.248766 0.406378
O O4 0.793284 0.162283 0.377115
O O5 0.234891 0.500000 0.750000
O O6 0.212389 0.419156 0.843599
O O7 0.235532 0.420637 0.671714
O O8 0.000000 0.449368 0.750000
O O9 0.280684 0.830375 0.154036
O O10 0.521585 0.872998 0.106511
O O11 0.298874 0.874500 0.000000
O O12 0.750000 0.250000 0.250000
O O13 0.729530 0.104850 0.500000
#
# Coordination Sequence:
#
# PCOD9527013 Si02
#       5
#    16  16  16  16  16
#     4  11  22  37  56  80 110 147 187 230 279 336
#     4   9  18  33  55  84 113 142 183 235 290 345
#     4  10  20  36  56  81 113 150 190 235 285 341
#     4  12  24  37  55  81 113 149 190 233 280 335
#     4   9  19  35  57  83 113 147 189 238 287 338
#
# _framework density 19.757176000000001
#
# number of rings (size 3 to 8) (size 9 to 14) (size 15 to 20)
#    0.000    1.800    0.000    4.800    0.000    5.600 
#    0.000    4.000    0.000    2.400    0.000    4.200 
#    0.000    0.000    0.000    0.000    0.000    0.000 
#
# Total GULP energy -223201.744178 kJ/mol
# GULP energy per Si atom -5580.043604 kJ/mol
# Density = 1.971221 g / cm^3
# Si number density = 19.757176 Si / 1000 Ang^3
#
#
#
# Elastic Constant Matrix: (Units=GPa)
#
#
# Indices 1 2 3 4 5 6 
#
# 1 58.2281 40.7743 42.7089 0.0000 0.0000 0.0000
# 2 40.7743 173.7155 80.3483 0.0000 0.0000 0.0000
# 3 42.7089 80.3483 147.2819 0.0001 0.0000 0.0000
# 4 0.0000 0.0000 0.0001 12.8441 0.0000 0.0000
# 5 0.0000 0.0000 0.0000 0.0000 16.7773 0.0000
# 6 0.0000 0.0000 0.0000 0.0000 0.0000 23.5591
#
#
#
# Elastic Compliance Matrix: (Units=1/GPa)
#
#
# Indices 1 2 3 4 5 6 
#
# 1 0.022993 -0.003094 -0.004980 0.000000 0.000000 0.000000
# 2 -0.003094 0.008115 -0.003530 0.000000 0.000000 0.000000
# 3 -0.004980 -0.003530 0.010160 0.000000 0.000000 0.000000
# 4 0.000000 0.000000 0.000000 0.077857 0.000000 0.000000
# 5 0.000000 0.000000 0.000000 0.000000 0.059604 0.000000
# 6 0.000000 0.000000 0.000000 0.000000 0.000000 0.042446
#
#
# Mechanical properties :
#
#
# Convention : Reuss Voigt Hill
#
# Bulk Modulus (GPa) = 55.36904 78.54318 66.95611
# Shear Modulus (GPa) = 19.96786 24.99571 22.48179
#
# Velocity S-wave (km/s) = 3.18254 3.56075 3.37694
# Velocity P-wave (km/s) = 6.44906 7.53298 7.01200
#
# Compressibility (1/GPa) = 0.01806064
#
# Stress axis : x y z
#
# Youngs Moduli (GPa) = 43.49218 123.22104 98.42854
#
# Poissons Ratio (x) = 0.38119 0.49015
# Poissons Ratio (y) = 0.13454 0.34748
# Poissons Ratio (z) = 0.21658 0.43500
#
# Static dielectric constant tensor:
#      x y z
#    x 1.681070 0.000000 0.000000 
#    y 0.000000 1.673690 0.000000 
#    z 0.000000 0.000000 1.821600 
# 
# From -- ./inp_files/23253.got.cif
#   From: 2010.05.17/outbox.cif.g08.bks.cpg/sg72_12_cif.got.tgz:23253.got - 2010.06.03 17:03:01.
