data_PCOD9527850
_publ_section_title
;
Structure prediction by ZEFSAII (Michael W. Deem and Ramdas Pophale) SiO2 
 PCOD9527850
Probable space group: I B A M
;
_chemical_formula_sum "Si O2"
_cell_formula_units_Z 112
_cell_length_a 13.563252
_cell_length_b 13.872354
_cell_length_c 29.647312
_cell_angle_alpha 90.000000
_cell_angle_beta 90.000000
_cell_angle_gamma 90.000000
_cell_volume 5578.267254
_symmetry_space_group_name_H-M "I B A M"
_symmetry_group_IT_number 72
_symmetry_cell_setting 'orthorhombic'
loop_
_space_group_symop_operation_xyz
x,y,z
-x,-y,z
x,-y,1/2-z
-x,y,1/2-z
-x,-y,-z
x,y,-z
-x,y,1/2+z
x,-y,1/2+z
1/2+x,1/2+y,1/2+z
1/2-x,1/2-y,1/2+z
1/2+x,1/2-y,-z
1/2-x,1/2+y,-z
1/2-x,1/2-y,1/2-z
1/2+x,1/2+y,1/2-z
1/2-x,1/2+y,z
1/2+x,1/2-y,z
loop_
_atom_site_type_symbol
_atom_site_label
_atom_site_fract_x
_atom_site_fract_y
_atom_site_fract_z
Si Si1 0.073983 0.755509 0.603722
Si Si2 0.211796 0.618630 0.291778
Si Si3 0.691572 0.109169 0.305028
Si Si4 0.773851 0.909870 0.901846
Si Si5 0.770048 0.864913 0.385347
Si Si6 0.492270 0.766343 0.799332
Si Si7 0.882173 0.713823 0.553000
O O1 0.129278 0.850071 0.584730
O O2 0.158416 0.674269 0.609492
O O3 0.024098 0.782873 0.651970
O O4 0.992941 0.711365 0.570860
O O5 0.248768 0.635916 0.240970
O O6 0.184662 0.506711 0.300812
O O7 0.286945 0.646936 0.331378
O O8 0.108623 0.673223 0.294830
O O9 0.747236 0.128929 0.351447
O O10 0.585860 0.161557 0.304695
O O11 0.682754 0.878716 0.933084
O O12 0.783353 0.023895 0.898183
O O13 0.834075 0.800023 0.418108
O O14 0.500000 0.715423 0.750000
O O15 0.876642 0.730206 0.500000
#
# Coordination Sequence:
#
# PCOD9527850 Si02
#       7
#    16  16  16  16  16  16  16
#     4  10  21  38  56  86 119 152 196 244 292 342
#     4   8  15  26  50  85 116 151 185 225 281 336
#     4   9  14  27  51  81 118 151 186 228 276 339
#     4  10  21  39  62  87 118 154 193 242 290 347
#     4   9  21  40  61  87 119 153 193 239 288 349
#     4   9  15  27  47  80 115 153 188 228 275 340
#     4  11  24  42  62  85 115 152 193 248 300 345
#
# _framework density 20.077919999999999
#
# number of rings (size 3 to 8) (size 9 to 14) (size 15 to 20)
#    0.000    2.571    1.429    0.429    0.000    5.714 
#    2.571    4.286    0.000    0.000    0.000    0.000 
#    0.000    0.000    0.000    0.000    0.000    0.000 
#
# Total GULP energy -312277.328109 kJ/mol
# GULP energy per Si atom -5576.380859 kJ/mol
# Density = 2.003222 g / cm^3
# Si number density = 20.077920 Si / 1000 Ang^3
#
#
#
# Elastic Constant Matrix: (Units=GPa)
#
#
# Indices 1 2 3 4 5 6 
#
# 1 38.6548 -10.2724 12.3427 0.0000 0.0000 0.0000
# 2 -10.2724 49.8142 -9.2802 0.0000 0.0000 0.0000
# 3 12.3427 -9.2802 94.2083 0.0000 0.0000 0.0000
# 4 0.0000 0.0000 0.0000 16.3259 0.0000 0.0000
# 5 0.0000 0.0000 0.0000 0.0000 13.7053 0.0000
# 6 0.0000 0.0000 0.0000 0.0000 0.0000 6.3579
#
#
#
# Elastic Compliance Matrix: (Units=1/GPa)
#
#
# Indices 1 2 3 4 5 6 
#
# 1 0.028280 0.005238 -0.003189 0.000000 0.000000 0.000000
# 2 0.005238 0.021420 0.001424 0.000000 0.000000 0.000000
# 3 -0.003189 0.001424 0.011173 0.000000 0.000000 0.000000
# 4 0.000000 0.000000 0.000000 0.061252 0.000000 0.000000
# 5 0.000000 0.000000 0.000000 0.000000 0.072964 0.000000
# 6 0.000000 0.000000 0.000000 0.000000 0.000000 0.157284
#
#
# Mechanical properties :
#
#
# Convention : Reuss Voigt Hill
#
# Bulk Modulus (GPa) = 14.74545 18.69527 16.72036
# Shear Modulus (GPa) = 13.58566 19.93698 16.76132
#
# Velocity S-wave (km/s) = 2.60407 3.15458 2.89245
# Velocity P-wave (km/s) = 4.04989 4.75395 4.41597
#
# Compressibility (1/GPa) = 0.06781755
#
# Stress axis : x y z
#
# Youngs Moduli (GPa) = 35.36044 46.68552 89.50256
#
# Poissons Ratio (x) = -0.24452 0.28544
# Poissons Ratio (y) = -0.18521 -0.12743
# Poissons Ratio (z) = 0.11277 -0.06647
#
# Static dielectric constant tensor:
#      x y z
#    x 1.713700 0.000000 0.000000 
#    y 0.000000 1.707800 0.000000 
#    z 0.000000 0.000000 1.766510 
# 
# From -- ./inp_files/51464.got.cif
#   From: 2010.05.17/outbox.cif.g08.bks.cpg/sg72_26_cif.got.tgz:51464.got - 2010.06.03 17:03:01.
