data_PCOD9527028
_publ_section_title
;
Structure prediction by ZEFSAII (Michael W. Deem and Ramdas Pophale) SiO2 
 PCOD9527028
Probable space group: I B A M
;
_chemical_formula_sum "Si O2"
_cell_formula_units_Z 128
_cell_length_a 24.204078
_cell_length_b 12.289560
_cell_length_c 23.248989
_cell_angle_alpha 90.000000
_cell_angle_beta 90.000000
_cell_angle_gamma 90.000000
_cell_volume 6915.585421
_symmetry_space_group_name_H-M "I B A M"
_symmetry_group_IT_number 72
_symmetry_cell_setting 'orthorhombic'
loop_
_space_group_symop_operation_xyz
x,y,z
-x,-y,z
x,-y,1/2-z
-x,y,1/2-z
-x,-y,-z
x,y,-z
-x,y,1/2+z
x,-y,1/2+z
1/2+x,1/2+y,1/2+z
1/2-x,1/2-y,1/2+z
1/2+x,1/2-y,-z
1/2-x,1/2+y,-z
1/2-x,1/2-y,1/2-z
1/2+x,1/2+y,1/2-z
1/2-x,1/2+y,z
1/2+x,1/2-y,z
loop_
_atom_site_type_symbol
_atom_site_label
_atom_site_fract_x
_atom_site_fract_y
_atom_site_fract_z
Si Si1 0.560129 0.195028 0.238984
Si Si2 0.954365 0.089688 0.337521
Si Si3 0.859076 0.734305 0.655934
Si Si4 0.116979 0.412353 0.866939
Si Si5 0.928418 0.622677 0.568055
Si Si6 0.839836 0.017474 0.818524
Si Si7 0.783425 0.530608 0.681900
Si Si8 0.543085 0.242754 0.067359
O O1 0.500000 0.148140 0.250000
O O2 0.551598 0.312832 0.208698
O O3 0.592874 0.211522 0.297531
O O4 0.592687 0.118348 0.195235
O O5 0.970387 0.150164 0.396331
O O6 0.894540 0.035454 0.344658
O O7 0.000000 0.000000 0.321683
O O8 0.886919 0.712930 0.594122
O O9 0.838757 0.855717 0.666039
O O10 0.811946 0.646234 0.669719
O O11 0.087398 0.515981 0.895815
O O12 0.180334 0.444391 0.854944
O O13 0.098532 0.311779 0.906871
O O14 0.920611 0.604462 0.500000
O O15 0.991450 0.660782 0.576952
O O16 0.845934 0.000000 0.750000
O O17 0.780735 0.967769 0.834711
O O18 0.786881 0.500000 0.750000
O O19 0.548034 0.262190 0.000000
#
# Coordination Sequence:
#
# PCOD9527028 Si02
#       8
#    16  16  16  16  16  16  16  16
#     4  11  21  33  55  85 122 153 186 240 300 358
#     4  11  23  38  57  87 119 151 195 241 300 351
#     4  11  21  38  59  87 118 154 195 240 288 348
#     4  10  20  36  57  84 121 153 194 243 287 348
#     4  10  21  38  59  85 118 159 200 238 288 347
#     4  11  23  38  62  85 117 160 189 235 292 357
#     4  10  22  38  57  86 120 154 194 234 288 349
#     4  10  21  37  59  85 116 157 202 242 288 346
#
# _framework density 18.508917
#
# number of rings (size 3 to 8) (size 9 to 14) (size 15 to 20)
#    0.000    1.500    2.500    3.750    0.000    6.250 
#    0.000    1.875    0.000   10.500    0.000    0.000 
#    0.000    0.000    0.000    0.000    0.000    0.000 
#
# Total GULP energy -357465.174307 kJ/mol
# GULP energy per Si atom -5585.393349 kJ/mol
# Density = 1.846679 g / cm^3
# Si number density = 18.508917 Si / 1000 Ang^3
#
#
#
# Elastic Constant Matrix: (Units=GPa)
#
#
# Indices 1 2 3 4 5 6 
#
# 1 109.3635 16.8343 21.9937 0.0000 0.0000 0.0000
# 2 16.8343 56.7504 14.1658 0.0000 0.0000 0.0000
# 3 21.9937 14.1658 55.6690 0.0000 0.0000 0.0000
# 4 0.0000 0.0000 0.0000 6.7893 0.0000 0.0000
# 5 0.0000 0.0000 0.0000 0.0000 19.5849 0.0000
# 6 0.0000 0.0000 0.0000 0.0000 0.0000 -56.7004
#
#
#
# Elastic Compliance Matrix: (Units=1/GPa)
#
#
# Indices 1 2 3 4 5 6 
#
# 1 0.010173 -0.002151 -0.003472 0.000000 0.000000 0.000000
# 2 -0.002151 0.019271 -0.004054 0.000000 0.000000 0.000000
# 3 -0.003472 -0.004054 0.020367 0.000000 0.000000 0.000000
# 4 0.000000 0.000000 0.000000 0.147290 0.000000 0.000000
# 5 0.000000 0.000000 0.000000 0.000000 0.051060 0.000000
# 6 0.000000 0.000000 0.000000 0.000000 0.000000 -0.017637
#
#
# Mechanical properties :
#
#
# Convention : Reuss Voigt Hill
#
# Bulk Modulus (GPa) = 32.83319 36.41895 34.62607
# Shear Modulus (GPa) = 19.22856 5.18738 12.20797
#
# Velocity S-wave (km/s) = 3.22666 1.67592 2.57100
# Velocity P-wave (km/s) = 5.62667 4.84398 5.24993
#
# Compressibility (1/GPa) = 0.03045698
#
# Stress axis : x y z
#
# Youngs Moduli (GPa) = 98.29805 51.89130 49.10010
#
# Poissons Ratio (x) = 0.11162 0.17047
# Poissons Ratio (y) = 0.21145 0.19905
# Poissons Ratio (z) = 0.34127 0.21036
#
# Static dielectric constant tensor:
#      x y z
#    x 1.638240 0.000000 0.000000 
#    y 0.000000 1.625230 0.000000 
#    z 0.000000 0.000000 1.626610 
# 
# From -- ./inp_files/43674.got.cif
#   From: 2010.05.17/outbox.cif.g08.bks.cpg/sg72_22_cif.got.tgz:43674.got - 2010.06.03 17:03:01.
