data_PCOD9527400
_publ_section_title
;
Structure prediction by ZEFSAII (Michael W. Deem and Ramdas Pophale) SiO2 
 PCOD9527400
Probable space group: I B A M
;
_chemical_formula_sum "Si O2"
_cell_formula_units_Z 68
_cell_length_a 27.378655
_cell_length_b 5.057313
_cell_length_c 20.413078
_cell_angle_alpha 90.000000
_cell_angle_beta 90.000000
_cell_angle_gamma 90.000000
_cell_volume 2826.444340
_symmetry_space_group_name_H-M "I B A M"
_symmetry_group_IT_number 72
_symmetry_cell_setting 'orthorhombic'
loop_
_space_group_symop_operation_xyz
x,y,z
-x,-y,z
x,-y,1/2-z
-x,y,1/2-z
-x,-y,-z
x,y,-z
-x,y,1/2+z
x,-y,1/2+z
1/2+x,1/2+y,1/2+z
1/2-x,1/2-y,1/2+z
1/2+x,1/2-y,-z
1/2-x,1/2+y,-z
1/2-x,1/2-y,1/2-z
1/2+x,1/2+y,1/2-z
1/2-x,1/2+y,z
1/2+x,1/2-y,z
loop_
_atom_site_type_symbol
_atom_site_label
_atom_site_fract_x
_atom_site_fract_y
_atom_site_fract_z
Si Si1 0.061574 0.674343 0.500000
Si Si2 0.935514 0.784557 0.143643
Si Si3 0.770036 0.083794 0.177824
Si Si4 0.125660 0.172957 0.500000
Si Si5 0.500000 0.000000 0.750000
Si Si6 0.130715 0.714590 0.858860
O O1 0.039800 0.741482 0.428442
O O2 0.108531 0.870102 0.500000
O O3 0.077939 0.368780 0.500000
O O4 0.969283 0.689451 0.202198
O O5 0.890038 0.578698 0.147058
O O6 0.914166 0.079220 0.149459
O O7 0.764906 0.798512 0.144289
O O8 0.751772 0.000000 0.250000
O O9 0.824199 0.198209 0.184709
O O10 0.150679 0.240861 0.567639
#
# Coordination Sequence:
#
# PCOD9527400 Si02
#       6
#     8  16  16   8   4  16
#     4   8  16  37  56  79 106 157 184 229 272 349
#     4  10  23  37  60  83 119 148 195 228 290 335
#     4  10  21  35  54  82 114 147 191 231 271 336
#     4   8  16  32  58  84 104 141 204 221 264 342
#     4  12  28  40  56  98 116 140 192 254 276 340
#     4  10  20  39  61  81 113 158 183 232 285 341
#
# _framework density 24.058496000000002
#
# number of rings (size 3 to 8) (size 9 to 14) (size 15 to 20)
#    0.000    2.353    0.000    1.412    3.294    2.353 
#    0.000    1.176    0.000    8.471    0.000    0.000 
#    0.000    0.000    0.000    0.000    0.000    0.000 
#
# Total GULP energy -189828.506521 kJ/mol
# GULP energy per Si atom -5583.191368 kJ/mol
# Density = 2.400374 g / cm^3
# Si number density = 24.058496 Si / 1000 Ang^3
#
#
#
# Elastic Constant Matrix: (Units=GPa)
#
#
# Indices 1 2 3 4 5 6 
#
# 1 56.3212 10.0131 33.7798 0.0000 0.0000 0.0000
# 2 10.0131 112.6724 -6.7921 0.0000 0.0000 0.0000
# 3 33.7798 -6.7921 113.6015 0.0000 0.0000 0.0000
# 4 0.0000 0.0000 0.0000 16.6352 0.0000 0.0000
# 5 0.0000 0.0000 0.0000 0.0000 -288.0902 0.0000
# 6 0.0000 0.0000 0.0000 0.0000 0.0000 27.6673
#
#
#
# Elastic Compliance Matrix: (Units=1/GPa)
#
#
# Indices 1 2 3 4 5 6 
#
# 1 0.022229 -0.002382 -0.006752 0.000000 0.000000 0.000000
# 2 -0.002382 0.009163 0.001256 0.000000 0.000000 0.000000
# 3 -0.006752 0.001256 0.010886 0.000000 0.000000 0.000000
# 4 0.000000 0.000000 0.000000 0.060114 0.000000 0.000000
# 5 0.000000 0.000000 0.000000 0.000000 -0.003471 0.000000
# 6 0.000000 0.000000 0.000000 0.000000 0.000000 0.036144
#
#
# Mechanical properties :
#
#
# Convention : Reuss Voigt Hill
#
# Bulk Modulus (GPa) = 37.70716 39.62185 38.66450
# Shear Modulus (GPa) = 31.31651 -32.38459 -0.53404
#
# Velocity S-wave (km/s) = 3.61180 -3.67287 -0.47166
# Velocity P-wave (km/s) = 5.75331 1.21735 3.97609
#
# Compressibility (1/GPa) = 0.02652016
#
# Stress axis : x y z
#
# Youngs Moduli (GPa) = 44.98694 109.13760 91.86435
#
# Poissons Ratio (x) = 0.26002 0.62029
# Poissons Ratio (y) = 0.10718 -0.11541
# Poissons Ratio (z) = 0.30376 -0.13711
#
# Static dielectric constant tensor:
#      x y z
#    x 1.881770 0.000000 0.000000 
#    y 0.000000 2.056620 0.000000 
#    z 0.000000 0.000000 2.014540 
# 
# From -- ./inp_files/34857.got.cif
#   From: 2010.05.17/outbox.cif.g08.bks.cpg/sg72_18_cif.got.tgz:34857.got - 2010.06.03 17:03:01.
