data_PCOD9527456
_publ_section_title
;
Structure prediction by ZEFSAII (Michael W. Deem and Ramdas Pophale) SiO2 
 PCOD9527456
Probable space group: I B A M
;
_chemical_formula_sum "Si O2"
_cell_formula_units_Z 88
_cell_length_a 20.180618
_cell_length_b 14.507349
_cell_length_c 14.372543
_cell_angle_alpha 90.000000
_cell_angle_beta 90.000000
_cell_angle_gamma 90.000000
_cell_volume 4207.810154
_symmetry_space_group_name_H-M "I B A M"
_symmetry_group_IT_number 72
_symmetry_cell_setting 'orthorhombic'
loop_
_space_group_symop_operation_xyz
x,y,z
-x,-y,z
x,-y,1/2-z
-x,y,1/2-z
-x,-y,-z
x,y,-z
-x,y,1/2+z
x,-y,1/2+z
1/2+x,1/2+y,1/2+z
1/2-x,1/2-y,1/2+z
1/2+x,1/2-y,-z
1/2-x,1/2+y,-z
1/2-x,1/2-y,1/2-z
1/2+x,1/2+y,1/2-z
1/2-x,1/2+y,z
1/2+x,1/2-y,z
loop_
_atom_site_type_symbol
_atom_site_label
_atom_site_fract_x
_atom_site_fract_y
_atom_site_fract_z
Si Si1 0.554111 0.080758 0.892130
Si Si2 0.893937 0.905504 0.889282
Si Si3 0.768756 0.144464 0.265544
Si Si4 0.511751 0.727401 0.113059
Si Si5 0.133587 0.113293 0.390024
Si Si6 0.659629 0.000000 0.750000
O O1 0.517167 0.173799 0.859630
O O2 0.500000 0.000000 0.890418
O O3 0.613702 0.048983 0.826742
O O4 0.575478 0.094352 0.000000
O O5 0.828573 0.869450 0.837837
O O6 0.958235 0.849128 0.858954
O O7 0.901071 0.014692 0.873562
O O8 0.886285 0.891987 0.000000
O O9 0.750000 0.250000 0.250000
O O10 0.799245 0.111233 0.167460
O O11 0.707107 0.079752 0.290835
O O12 0.584764 0.695077 0.142816
O O13 0.514866 0.727547 0.000000
O O14 0.145394 0.122607 0.500000
#
# Coordination Sequence:
#
# PCOD9527456 Si02
#       6
#    16  16  16  16  16   8
#     4  10  23  43  67  93 123 163 215 270 322 376
#     4  10  20  40  64  92 128 163 207 263 321 379
#     4  12  26  41  60  92 130 175 218 253 310 392
#     4   9  19  38  66  96 122 160 211 267 328 374
#     4  10  21  40  66  94 127 162 209 270 323 376
#     4  12  25  44  62  91 134 168 216 262 312 387
#
# _framework density 20.913492000000002
#
# number of rings (size 3 to 8) (size 9 to 14) (size 15 to 20)
#    0.000    1.636    1.818    1.909    2.545    5.091 
#    3.273    1.818    0.000    0.000    0.000    0.000 
#    0.000    0.000    0.000    0.000    0.000    0.000 
#
# Total GULP energy -245989.268481 kJ/mol
# GULP energy per Si atom -5590.665193 kJ/mol
# Density = 2.086589 g / cm^3
# Si number density = 20.913492 Si / 1000 Ang^3
#
#
#
# Elastic Constant Matrix: (Units=GPa)
#
#
# Indices 1 2 3 4 5 6 
#
# 1 70.1981 18.2449 18.9369 0.0000 0.0000 0.0000
# 2 18.2449 107.7362 13.3099 0.0000 0.0000 0.0000
# 3 18.9369 13.3099 67.2571 0.0000 0.0000 0.0000
# 4 0.0000 0.0000 0.0000 17.3002 0.0000 0.0000
# 5 0.0000 0.0000 0.0000 0.0000 -70.8450 0.0000
# 6 0.0000 0.0000 0.0000 0.0000 0.0000 45.7800
#
#
#
# Elastic Compliance Matrix: (Units=1/GPa)
#
#
# Indices 1 2 3 4 5 6 
#
# 1 0.015907 -0.002194 -0.004044 0.000000 0.000000 0.000000
# 2 -0.002194 0.009817 -0.001325 0.000000 0.000000 0.000000
# 3 -0.004044 -0.001325 0.016269 0.000000 0.000000 0.000000
# 4 0.000000 0.000000 0.000000 0.057803 0.000000 0.000000
# 5 0.000000 0.000000 0.000000 0.000000 -0.014115 0.000000
# 6 0.000000 0.000000 0.000000 0.000000 0.000000 0.021844
#
#
# Mechanical properties :
#
#
# Convention : Reuss Voigt Hill
#
# Bulk Modulus (GPa) = 37.22179 38.46388 37.84284
# Shear Modulus (GPa) = 37.99199 11.42703 24.70951
#
# Velocity S-wave (km/s) = 4.26681 2.34005 3.44104
# Velocity P-wave (km/s) = 6.48929 5.07276 5.82425
#
# Compressibility (1/GPa) = 0.02686599
#
# Stress axis : x y z
#
# Youngs Moduli (GPa) = 62.86649 101.86215 61.46548
#
# Poissons Ratio (x) = 0.22350 0.24860
# Poissons Ratio (y) = 0.13794 0.08144
# Poissons Ratio (z) = 0.25426 0.13497
#
# Static dielectric constant tensor:
#      x y z
#    x 1.703200 0.000000 0.000000 
#    y 0.000000 1.760630 0.000000 
#    z 0.000000 0.000000 1.779420 
# 
# From -- ./inp_files/24052.got.cif
#   From: 2010.05.17/outbox.cif.g08.bks.cpg/sg72_13_cif.got.tgz:24052.got - 2010.06.03 17:03:01.
