data_PCOD9527031
_publ_section_title
;
Structure prediction by ZEFSAII (Michael W. Deem and Ramdas Pophale) SiO2 
 PCOD9527031
Probable space group: I B A M
;
_chemical_formula_sum "Si O2"
_cell_formula_units_Z 96
_cell_length_a 14.344893
_cell_length_b 22.982769
_cell_length_c 13.491493
_cell_angle_alpha 90.000000
_cell_angle_beta 90.000000
_cell_angle_gamma 90.000000
_cell_volume 4447.947756
_symmetry_space_group_name_H-M "I B A M"
_symmetry_group_IT_number 72
_symmetry_cell_setting 'orthorhombic'
loop_
_space_group_symop_operation_xyz
x,y,z
-x,-y,z
x,-y,1/2-z
-x,y,1/2-z
-x,-y,-z
x,y,-z
-x,y,1/2+z
x,-y,1/2+z
1/2+x,1/2+y,1/2+z
1/2-x,1/2-y,1/2+z
1/2+x,1/2-y,-z
1/2-x,1/2+y,-z
1/2-x,1/2-y,1/2-z
1/2+x,1/2+y,1/2-z
1/2-x,1/2+y,z
1/2+x,1/2-y,z
loop_
_atom_site_type_symbol
_atom_site_label
_atom_site_fract_x
_atom_site_fract_y
_atom_site_fract_z
Si Si1 0.251063 0.281315 0.381364
Si Si2 0.653881 0.339309 0.617001
Si Si3 0.664935 0.564525 0.277424
Si Si4 0.942511 0.162106 0.618257
Si Si5 0.037240 0.434098 0.887867
Si Si6 0.145891 0.390998 0.304914
O O1 0.240301 0.292932 0.500000
O O2 0.219608 0.215675 0.364838
O O3 0.358538 0.294370 0.354620
O O4 0.187487 0.326982 0.322048
O O5 0.655739 0.351821 0.500000
O O6 0.678926 0.395732 0.680008
O O7 0.547668 0.322942 0.646950
O O8 0.637723 0.500000 0.250000
O O9 0.588977 0.599467 0.340563
O O10 0.766304 0.567193 0.329826
O O11 0.942521 0.159435 0.500000
O O12 0.106484 0.410627 0.802877
O O13 0.000000 0.500000 0.869080
O O14 0.942402 0.397508 0.876274
O O15 0.074515 0.430698 0.000000
#
# Coordination Sequence:
#
# PCOD9527031 Si02
#       6
#    16  16  16  16  16  16
#     4   9  19  39  63  87 120 159 201 251 308 370
#     4  10  22  41  62  90 125 158 203 258 312 368
#     4  11  23  39  60  87 120 159 208 257 306 364
#     4   9  20  39  62  87 119 161 201 247 308 367
#     4  10  20  36  57  85 124 164 205 254 306 364
#     4  10  20  37  59  86 119 160 207 251 308 370
#
# _framework density 21.582986999999999
#
# number of rings (size 3 to 8) (size 9 to 14) (size 15 to 20)
#    0.000    2.167    0.000    3.000    0.000    6.000 
#   12.000    1.667    0.000    0.000    0.000    0.000 
#    0.000    0.000    0.000    0.000    0.000    0.000 
#
# Total GULP energy -268185.775609 kJ/mol
# GULP energy per Si atom -5587.203659 kJ/mol
# Density = 2.153386 g / cm^3
# Si number density = 21.582987 Si / 1000 Ang^3
#
#
#
# Elastic Constant Matrix: (Units=GPa)
#
#
# Indices 1 2 3 4 5 6 
#
# 1 109.5912 48.5155 14.3159 0.0000 0.0000 0.0000
# 2 48.5155 107.4455 30.8613 0.0000 0.0000 0.0000
# 3 14.3159 30.8613 94.6967 0.0001 0.0000 0.0002
# 4 0.0000 0.0000 0.0001 28.5210 0.0000 0.0001
# 5 0.0000 0.0000 0.0000 0.0000 26.1695 0.0000
# 6 0.0000 0.0000 0.0002 0.0001 0.0000 -10.1260
#
#
#
# Elastic Compliance Matrix: (Units=1/GPa)
#
#
# Indices 1 2 3 4 5 6 
#
# 1 0.011405 -0.005135 -0.000051 0.000000 0.000000 0.000000
# 2 -0.005135 0.012580 -0.003324 0.000000 0.000000 0.000000
# 3 -0.000051 -0.003324 0.011651 0.000000 0.000000 0.000000
# 4 0.000000 0.000000 0.000000 0.035062 0.000000 0.000000
# 5 0.000000 0.000000 0.000000 0.000000 0.038212 0.000000
# 6 0.000000 0.000000 0.000000 0.000000 0.000000 -0.098756
#
#
# Mechanical properties :
#
#
# Convention : Reuss Voigt Hill
#
# Bulk Modulus (GPa) = 53.71350 55.45765 54.58557
# Shear Modulus (GPa) = 149.79484 23.44894 86.62189
#
# Velocity S-wave (km/s) = 8.33995 3.29972 6.34204
# Velocity P-wave (km/s) = 10.84807 6.34574 8.88676
#
# Compressibility (1/GPa) = 0.01861729
#
# Stress axis : x y z
#
# Youngs Moduli (GPa) = 87.68305 79.48911 85.83086
#
# Poissons Ratio (x) = 0.40818 0.00434
# Poissons Ratio (y) = 0.45026 0.28527
# Poissons Ratio (z) = 0.00444 0.26419
#
# Static dielectric constant tensor:
#      x y z
#    x 1.799210 0.000000 0.000000 
#    y 0.000000 1.752030 0.000000 
#    z 0.000000 0.000000 1.841020 
# 
# From -- ./inp_files/21820.got.cif
#   From: 2010.05.17/outbox.cif.g08.bks.cpg/sg72_11_cif.got.tgz:21820.got - 2010.06.03 17:03:01.
