data_PCOD9527716
_publ_section_title
;
Structure prediction by ZEFSAII (Michael W. Deem and Ramdas Pophale) SiO2 
 PCOD9527716
Probable space group: I B A M
;
_chemical_formula_sum "Si O2"
_cell_formula_units_Z 80
_cell_length_a 22.780874
_cell_length_b 7.602343
_cell_length_c 23.476988
_cell_angle_alpha 90.000000
_cell_angle_beta 90.000000
_cell_angle_gamma 90.000000
_cell_volume 4065.933020
_symmetry_space_group_name_H-M "I B A M"
_symmetry_group_IT_number 72
_symmetry_cell_setting 'orthorhombic'
loop_
_space_group_symop_operation_xyz
x,y,z
-x,-y,z
x,-y,1/2-z
-x,y,1/2-z
-x,-y,-z
x,y,-z
-x,y,1/2+z
x,-y,1/2+z
1/2+x,1/2+y,1/2+z
1/2-x,1/2-y,1/2+z
1/2+x,1/2-y,-z
1/2-x,1/2+y,-z
1/2-x,1/2-y,1/2-z
1/2+x,1/2+y,1/2-z
1/2-x,1/2+y,z
1/2+x,1/2-y,z
loop_
_atom_site_type_symbol
_atom_site_label
_atom_site_fract_x
_atom_site_fract_y
_atom_site_fract_z
Si Si1 0.500000 0.500000 0.145562
Si Si2 0.686131 0.195164 0.627604
Si Si3 0.635003 0.194734 0.254434
Si Si4 0.000000 0.251698 0.250000
Si Si5 0.823716 0.725460 0.868822
Si Si6 0.111250 0.024626 0.433706
O O1 0.513883 0.348028 0.191023
O O2 0.445767 0.452898 0.105729
O O3 0.662238 0.270566 0.688136
O O4 0.755690 0.222028 0.626845
O O5 0.655160 0.314641 0.580235
O O6 0.670741 0.986685 0.623356
O O7 0.564953 0.175356 0.262872
O O8 0.652122 0.277581 0.194156
O O9 0.661681 0.000000 0.250000
O O10 0.858878 0.841573 0.914262
O O11 0.096375 0.021150 0.500000
#
# Coordination Sequence:
#
# PCOD9527716 Si02
#       6
#     8  16  16   8  16  16
#     4  11  23  42  66  98 125 167 220 272 328 385
#     4  11  23  42  65  98 132 168 215 268 327 389
#     4  10  21  36  63  97 131 166 206 268 335 388
#     4  11  19  36  68  90 127 169 206 271 333 386
#     4  11  23  42  65  98 132 168 215 268 327 389
#     4  12  26  45  68  91 131 179 222 268 314 376
#
# _framework density 19.67568
#
# number of rings (size 3 to 8) (size 9 to 14) (size 15 to 20)
#    0.000    1.000    6.000    1.200    0.000    2.400 
#    0.000    1.000    0.000    2.400    0.000    0.000 
#    0.000    0.000    0.000    0.000    0.000    0.000 
#
# Total GULP energy -223006.402798 kJ/mol
# GULP energy per Si atom -5575.160070 kJ/mol
# Density = 1.963090 g / cm^3
# Si number density = 19.675680 Si / 1000 Ang^3
#
#
#
# Elastic Constant Matrix: (Units=GPa)
#
#
# Indices 1 2 3 4 5 6 
#
# 1 74.7504 -10.6919 5.6936 0.0000 0.0000 0.0000
# 2 -10.6919 73.8667 14.6987 0.0000 0.0000 0.0000
# 3 5.6936 14.6987 119.3755 0.0000 0.0000 0.0000
# 4 0.0000 0.0000 0.0000 24.9041 0.0000 0.0000
# 5 0.0000 0.0000 0.0000 0.0000 14.1387 0.0000
# 6 0.0000 0.0000 0.0000 0.0000 0.0000 22.6926
#
#
#
# Elastic Compliance Matrix: (Units=1/GPa)
#
#
# Indices 1 2 3 4 5 6 
#
# 1 0.013759 0.002176 -0.000924 0.000000 0.000000 0.000000
# 2 0.002176 0.014222 -0.001855 0.000000 0.000000 0.000000
# 3 -0.000924 -0.001855 0.008649 0.000000 0.000000 0.000000
# 4 0.000000 0.000000 0.000000 0.040154 0.000000 0.000000
# 5 0.000000 0.000000 0.000000 0.000000 0.070728 0.000000
# 6 0.000000 0.000000 0.000000 0.000000 0.000000 0.044067
#
#
# Mechanical properties :
#
#
# Convention : Reuss Voigt Hill
#
# Bulk Modulus (GPa) = 28.22969 31.93260 30.08115
# Shear Modulus (GPa) = 24.43854 29.56656 27.00255
#
# Velocity S-wave (km/s) = 3.52812 3.88067 3.70859
# Velocity P-wave (km/s) = 5.56557 6.02861 5.80171
#
# Compressibility (1/GPa) = 0.03542369
#
# Stress axis : x y z
#
# Youngs Moduli (GPa) = 72.67747 70.31404 115.61494
#
# Poissons Ratio (x) = -0.15297 0.10684
# Poissons Ratio (y) = -0.15811 0.21445
# Poissons Ratio (z) = 0.06716 0.13043
#
# Static dielectric constant tensor:
#      x y z
#    x 1.656700 0.000000 0.000000 
#    y 0.000000 1.746870 0.000000 
#    z 0.000000 0.000000 1.679090 
# 
# From -- ./inp_files/40115.got.cif
#   From: 2010.05.17/outbox.cif.g08.bks.cpg/sg72_21_cif.got.tgz:40115.got - 2010.06.03 17:03:01.
