data_PCOD9527418
_publ_section_title
;
Structure prediction by ZEFSAII (Michael W. Deem and Ramdas Pophale) SiO2 
 PCOD9527418
Probable space group: I B A M
;
_chemical_formula_sum "Si O2"
_cell_formula_units_Z 88
_cell_length_a 26.939228
_cell_length_b 10.596149
_cell_length_c 15.018008
_cell_angle_alpha 90.000000
_cell_angle_beta 90.000000
_cell_angle_gamma 90.000000
_cell_volume 4286.921528
_symmetry_space_group_name_H-M "I B A M"
_symmetry_group_IT_number 72
_symmetry_cell_setting 'orthorhombic'
loop_
_space_group_symop_operation_xyz
x,y,z
-x,-y,z
x,-y,1/2-z
-x,y,1/2-z
-x,-y,-z
x,y,-z
-x,y,1/2+z
x,-y,1/2+z
1/2+x,1/2+y,1/2+z
1/2-x,1/2-y,1/2+z
1/2+x,1/2-y,-z
1/2-x,1/2+y,-z
1/2-x,1/2-y,1/2-z
1/2+x,1/2+y,1/2-z
1/2-x,1/2+y,z
1/2+x,1/2-y,z
loop_
_atom_site_type_symbol
_atom_site_label
_atom_site_fract_x
_atom_site_fract_y
_atom_site_fract_z
Si Si1 0.854807 0.813658 0.690291
Si Si2 0.531430 0.371169 0.333042
Si Si3 0.633137 0.899375 0.670899
Si Si4 0.224819 0.000000 0.250000
Si Si5 0.072085 0.569344 0.500000
Si Si6 0.205035 0.598971 0.101825
Si Si7 0.033674 0.309479 0.500000
O O1 0.909141 0.879002 0.684739
O O2 0.855637 0.731121 0.780755
O O3 0.811616 0.915928 0.690636
O O4 0.836137 0.708185 0.619181
O O5 0.500000 0.500000 0.352014
O O6 0.500000 0.316268 0.250000
O O7 0.532511 0.277670 0.414728
O O8 0.594148 0.883209 0.592695
O O9 0.618944 0.000000 0.750000
O O10 0.678692 0.964347 0.619473
O O11 0.256104 0.092129 0.184237
O O12 0.075567 0.417007 0.500000
O O13 0.016842 0.615809 0.500000
O O14 0.223484 0.607949 0.000000
#
# Coordination Sequence:
#
# PCOD9527418 Si02
#       7
#    16  16  16   8   8  16   8
#     4  11  24  43  70  93 138 180 221 281 342 396
#     4  11  24  44  68  93 130 178 223 270 329 402
#     4  10  20  39  64  92 126 174 217 267 333 398
#     4  12  24  46  65 102 137 174 234 278 336 412
#     4  11  22  36  62  95 133 167 217 278 335 394
#     4  11  23  41  68  98 134 175 223 282 340 406
#     4  11  23  38  62  97 130 166 221 280 328 396
#
# _framework density 20.527552
#
# number of rings (size 3 to 8) (size 9 to 14) (size 15 to 20)
#    0.000    1.091    3.636    5.182    1.273    0.727 
#    1.636    1.818    0.000    0.000    0.000    0.000 
#    0.000    0.000    0.000    0.000    0.000    0.000 
#
# Total GULP energy -245130.935143 kJ/mol
# GULP energy per Si atom -5571.157617 kJ/mol
# Density = 2.048083 g / cm^3
# Si number density = 20.527552 Si / 1000 Ang^3
#
#
#
# Elastic Constant Matrix: (Units=GPa)
#
#
# Indices 1 2 3 4 5 6 
#
# 1 104.0505 13.9399 10.8705 0.0000 0.0000 0.0000
# 2 13.9399 67.3125 5.0678 0.0000 0.0000 0.0000
# 3 10.8705 5.0678 107.7602 0.0000 0.0000 0.0000
# 4 0.0000 0.0000 0.0000 112.7981 0.0000 0.0000
# 5 0.0000 0.0000 0.0000 0.0000 -0.2134 0.0000
# 6 0.0000 0.0000 0.0000 0.0000 0.0000 33.7283
#
#
#
# Elastic Compliance Matrix: (Units=1/GPa)
#
#
# Indices 1 2 3 4 5 6 
#
# 1 0.009974 -0.001997 -0.000912 0.000000 0.000000 0.000000
# 2 -0.001997 0.015309 -0.000519 0.000000 0.000000 0.000000
# 3 -0.000912 -0.000519 0.009396 0.000000 0.000000 0.000000
# 4 0.000000 0.000000 0.000000 0.008865 0.000000 0.000000
# 5 0.000000 0.000000 0.000000 0.000000 -4.685018 0.000000
# 6 0.000000 0.000000 0.000000 0.000000 0.000000 0.029649
#
#
# Mechanical properties :
#
#
# Convention : Reuss Voigt Hill
#
# Bulk Modulus (GPa) = 35.94084 37.65327 36.79705
# Shear Modulus (GPa) = -1.08797 45.87893 22.39548
#
# Velocity S-wave (km/s) = -0.72881 4.73270 3.30661
# Velocity P-wave (km/s) = 4.10346 6.94602 5.70463
#
# Compressibility (1/GPa) = 0.02782350
#
# Stress axis : x y z
#
# Youngs Moduli (GPa) = 100.26543 65.32259 106.42521
#
# Poissons Ratio (x) = 0.13043 0.09708
# Poissons Ratio (y) = 0.20021 0.05518
# Poissons Ratio (z) = 0.09146 0.03387
#
# Static dielectric constant tensor:
#      x y z
#    x 1.781820 0.000000 0.000000 
#    y 0.000000 1.762290 0.000000 
#    z 0.000000 0.000000 1.766650 
# 
# From -- ./inp_files/25863.got.cif
#   From: 2010.05.17/outbox.cif.g08.bks.cpg/sg72_13_cif.got.tgz:25863.got - 2010.06.03 17:03:01.
