data_PCOD9527910
_publ_section_title
;
Structure prediction by ZEFSAII (Michael W. Deem and Ramdas Pophale) SiO2 
 PCOD9527910
Probable space group: I B A M
;
_chemical_formula_sum "Si O2"
_cell_formula_units_Z 104
_cell_length_a 13.622583
_cell_length_b 19.590483
_cell_length_c 20.937453
_cell_angle_alpha 90.000000
_cell_angle_beta 90.000000
_cell_angle_gamma 90.000000
_cell_volume 5587.640490
_symmetry_space_group_name_H-M "I B A M"
_symmetry_group_IT_number 72
_symmetry_cell_setting 'orthorhombic'
loop_
_space_group_symop_operation_xyz
x,y,z
-x,-y,z
x,-y,1/2-z
-x,y,1/2-z
-x,-y,-z
x,y,-z
-x,y,1/2+z
x,-y,1/2+z
1/2+x,1/2+y,1/2+z
1/2-x,1/2-y,1/2+z
1/2+x,1/2-y,-z
1/2-x,1/2+y,-z
1/2-x,1/2-y,1/2-z
1/2+x,1/2+y,1/2-z
1/2-x,1/2+y,z
1/2+x,1/2-y,z
loop_
_atom_site_type_symbol
_atom_site_label
_atom_site_fract_x
_atom_site_fract_y
_atom_site_fract_z
Si Si1 0.220088 0.865570 0.616043
Si Si2 0.626166 0.232121 0.426765
Si Si3 0.899610 0.075510 0.500000
Si Si4 0.167131 0.079801 0.252242
Si Si5 0.737120 0.359668 0.621506
Si Si6 0.500000 0.695747 0.750000
Si Si7 0.081835 0.266352 0.874277
Si Si8 0.377774 0.584084 0.500000
O O1 0.326536 0.839482 0.594509
O O2 0.163167 0.907196 0.562457
O O3 0.217634 0.901867 0.684671
O O4 0.154794 0.796900 0.616471
O O5 0.657409 0.247151 0.500000
O O6 0.670207 0.290398 0.380122
O O7 0.509586 0.231343 0.421678
O O8 0.008165 0.111672 0.500000
O O9 0.902159 0.994757 0.500000
O O10 0.229646 0.093620 0.315832
O O11 0.086330 0.139980 0.260326
O O12 0.134120 0.000000 0.250000
O O13 0.848343 0.331948 0.618311
O O14 0.687461 0.397453 0.561471
O O15 0.532487 0.746418 0.693424
#
# Coordination Sequence:
#
# PCOD9527910 Si02
#       8
#    16  16   8  16  16   8  16   8
#     4  10  23  38  60  90 121 157 204 250 314 367
#     4  11  21  37  62  88 123 158 200 260 311 367
#     4  11  22  41  59  87 121 165 203 256 308 369
#     4  11  23  40  61  88 128 164 200 250 306 377
#     4  11  23  39  60  93 123 164 205 252 315 371
#     4  10  21  38  60  94 117 162 200 254 310 376
#     4  10  23  35  63  88 126 153 206 260 310 367
#     4  11  24  37  61  87 125 161 208 251 304 383
#
# _framework density 18.612507000000001
#
# number of rings (size 3 to 8) (size 9 to 14) (size 15 to 20)
#    0.000    1.385    3.077    2.077    6.462    1.846 
#    0.000    0.000    0.000    5.538    0.000    0.000 
#    0.000    0.000    0.000    0.000    0.000    0.000 
#
# Total GULP energy -289473.150528 kJ/mol
# GULP energy per Si atom -5566.791356 kJ/mol
# Density = 1.857014 g / cm^3
# Si number density = 18.612507 Si / 1000 Ang^3
#
#
#
# Elastic Constant Matrix: (Units=GPa)
#
#
# Indices 1 2 3 4 5 6 
#
# 1 50.8737 24.0895 56.7037 0.0000 0.0000 0.0000
# 2 24.0895 69.3551 63.3798 0.0000 0.0000 0.0000
# 3 56.7037 63.3798 103.3341 0.0000 0.0000 0.0000
# 4 0.0000 0.0000 0.0000 22.9595 0.0000 0.0000
# 5 0.0000 0.0000 0.0000 0.0000 13.0941 0.0000
# 6 0.0000 0.0000 0.0000 0.0000 0.0000 25.7302
#
#
#
# Elastic Compliance Matrix: (Units=1/GPa)
#
#
# Indices 1 2 3 4 5 6 
#
# 1 0.062464 0.021906 -0.047712 0.000000 0.000000 0.000000
# 2 0.021906 0.040489 -0.036854 0.000000 0.000000 0.000000
# 3 -0.047712 -0.036854 0.058464 0.000000 0.000000 0.000000
# 4 0.000000 0.000000 0.000000 0.043555 0.000000 0.000000
# 5 0.000000 0.000000 0.000000 0.000000 0.076370 0.000000
# 6 0.000000 0.000000 0.000000 0.000000 0.000000 0.038865
#
#
# Mechanical properties :
#
#
# Convention : Reuss Voigt Hill
#
# Bulk Modulus (GPa) = 27.70513 56.87876 42.29195
# Shear Modulus (GPa) = 10.92754 17.64943 14.28848
#
# Velocity S-wave (km/s) = 2.42566 3.08272 2.77371
# Velocity P-wave (km/s) = 4.77102 6.58002 5.74714
#
# Compressibility (1/GPa) = 0.03609439
#
# Stress axis : x y z
#
# Youngs Moduli (GPa) = 16.00929 24.69799 17.10468
#
# Poissons Ratio (x) = -0.54102 0.81610
# Poissons Ratio (y) = -0.35069 0.63038
# Poissons Ratio (z) = 0.76384 0.91023
#
# Static dielectric constant tensor:
#      x y z
#    x 1.677390 0.000000 0.000000 
#    y 0.000000 1.660630 0.000000 
#    z 0.000000 0.000000 1.702970 
# 
# From -- ./inp_files/38309.got.cif
#   From: 2010.05.17/outbox.cif.g08.bks.cpg/sg72_20_cif.got.tgz:38309.got - 2010.06.03 17:03:01.
