data_PCOD9527361
_publ_section_title
;
Structure prediction by ZEFSAII (Michael W. Deem and Ramdas Pophale) SiO2 
 PCOD9527361
Probable space group: I B A M
;
_chemical_formula_sum "Si O2"
_cell_formula_units_Z 80
_cell_length_a 25.101387
_cell_length_b 8.404145
_cell_length_c 14.814483
_cell_angle_alpha 90.000000
_cell_angle_beta 90.000000
_cell_angle_gamma 90.000000
_cell_volume 3125.199573
_symmetry_space_group_name_H-M "I B A M"
_symmetry_group_IT_number 72
_symmetry_cell_setting 'orthorhombic'
loop_
_space_group_symop_operation_xyz
x,y,z
-x,-y,z
x,-y,1/2-z
-x,y,1/2-z
-x,-y,-z
x,y,-z
-x,y,1/2+z
x,-y,1/2+z
1/2+x,1/2+y,1/2+z
1/2-x,1/2-y,1/2+z
1/2+x,1/2-y,-z
1/2-x,1/2+y,-z
1/2-x,1/2-y,1/2-z
1/2+x,1/2+y,1/2-z
1/2-x,1/2+y,z
1/2+x,1/2-y,z
loop_
_atom_site_type_symbol
_atom_site_label
_atom_site_fract_x
_atom_site_fract_y
_atom_site_fract_z
Si Si1 0.127456 0.288080 0.102852
Si Si2 0.015064 0.169038 0.854739
Si Si3 0.072162 0.598310 0.842968
Si Si4 0.273937 0.392950 0.609538
Si Si5 0.329977 0.273704 0.110140
O O1 0.106949 0.468248 0.104218
O O2 0.184999 0.244531 0.141240
O O3 0.077621 0.191615 0.140049
O O4 0.131499 0.236321 0.000000
O O5 0.980504 0.322417 0.885978
O O6 0.000000 0.165642 0.750000
O O7 0.000000 0.000000 0.896445
O O8 0.061200 0.500000 0.750000
O O9 0.114686 0.742348 0.838906
O O10 0.268650 0.389236 0.500000
O O11 0.302052 0.558541 0.632079
O O12 0.214052 0.356949 0.638894
O O13 0.338811 0.271019 0.000000
#
# Coordination Sequence:
#
# PCOD9527361 Si02
#       5
#    16  16  16  16  16
#     4  11  23  40  66  95 123 161 213 265 313 379
#     4  11  24  43  65  87 124 169 208 258 325 380
#     4  12  24  40  62  92 127 168 210 263 317 384
#     4   9  19  38  64  96 128 164 209 263 319 371
#     4  10  20  38  64  91 128 169 210 260 317 379
#
# _framework density 25.598365999999999
#
# number of rings (size 3 to 8) (size 9 to 14) (size 15 to 20)
#    0.000    1.400    2.000    3.600    0.000    6.000 
#    0.000    4.000    0.000    0.000    0.000    0.000 
#    0.000    0.000    0.000    0.000    0.000    0.000 
#
# Total GULP energy -223585.686734 kJ/mol
# GULP energy per Si atom -5589.642168 kJ/mol
# Density = 2.554010 g / cm^3
# Si number density = 25.598366 Si / 1000 Ang^3
#
#
#
# Elastic Constant Matrix: (Units=GPa)
#
#
# Indices 1 2 3 4 5 6 
#
# 1 127.5352 16.5778 16.1125 0.0000 0.0000 0.0000
# 2 16.5778 112.9246 7.4310 0.0000 0.0000 0.0000
# 3 16.1125 7.4310 59.9900 0.0000 0.0000 0.0000
# 4 0.0000 0.0000 0.0000 12.0314 0.0000 0.0000
# 5 0.0000 0.0000 0.0000 0.0000 25.4369 0.0000
# 6 0.0000 0.0000 0.0000 0.0000 0.0000 49.0595
#
#
#
# Elastic Compliance Matrix: (Units=1/GPa)
#
#
# Indices 1 2 3 4 5 6 
#
# 1 0.008243 -0.001073 -0.002081 0.000000 0.000000 0.000000
# 2 -0.001073 0.009068 -0.000835 0.000000 0.000000 0.000000
# 3 -0.002081 -0.000835 0.017332 0.000000 0.000000 0.000000
# 4 0.000000 0.000000 0.000000 0.083116 0.000000 0.000000
# 5 0.000000 0.000000 0.000000 0.000000 0.039313 0.000000
# 6 0.000000 0.000000 0.000000 0.000000 0.000000 0.020383
#
#
# Mechanical properties :
#
#
# Convention : Reuss Voigt Hill
#
# Bulk Modulus (GPa) = 37.50302 42.29915 39.90109
# Shear Modulus (GPa) = 25.73048 34.66081 30.19564
#
# Velocity S-wave (km/s) = 3.17387 3.68370 3.43825
# Velocity P-wave (km/s) = 5.30223 5.88667 5.60207
#
# Compressibility (1/GPa) = 0.02666452
#
# Stress axis : x y z
#
# Youngs Moduli (GPa) = 121.30920 110.27829 57.69730
#
# Poissons Ratio (x) = 0.11835 0.12008
# Poissons Ratio (y) = 0.13019 0.04818
# Poissons Ratio (z) = 0.25246 0.09208
#
# Static dielectric constant tensor:
#      x y z
#    x 2.044180 0.000000 0.000000 
#    y 0.000000 2.110790 0.000000 
#    z 0.000000 0.000000 2.040010 
# 
# From -- ./inp_files/33795.got.cif
#   From: 2010.05.17/outbox.cif.g08.bks.cpg/sg72_17_cif.got.tgz:33795.got - 2010.06.03 17:03:01.
