data_PCOD9527731
_publ_section_title
;
Structure prediction by ZEFSAII (Michael W. Deem and Ramdas Pophale) SiO2 
 PCOD9527731
Probable space group: I B A M
;
_chemical_formula_sum "Si O2"
_cell_formula_units_Z 108
_cell_length_a 15.990585
_cell_length_b 34.243442
_cell_length_c 10.809156
_cell_angle_alpha 90.000000
_cell_angle_beta 90.000000
_cell_angle_gamma 90.000000
_cell_volume 5918.798411
_symmetry_space_group_name_H-M "I B A M"
_symmetry_group_IT_number 72
_symmetry_cell_setting 'orthorhombic'
loop_
_space_group_symop_operation_xyz
x,y,z
-x,-y,z
x,-y,1/2-z
-x,y,1/2-z
-x,-y,-z
x,y,-z
-x,y,1/2+z
x,-y,1/2+z
1/2+x,1/2+y,1/2+z
1/2-x,1/2-y,1/2+z
1/2+x,1/2-y,-z
1/2-x,1/2+y,-z
1/2-x,1/2-y,1/2-z
1/2+x,1/2+y,1/2-z
1/2-x,1/2+y,z
1/2+x,1/2-y,z
loop_
_atom_site_type_symbol
_atom_site_label
_atom_site_fract_x
_atom_site_fract_y
_atom_site_fract_z
Si Si1 0.437641 0.293982 0.636781
Si Si2 0.500000 0.000000 0.750000
Si Si3 0.195341 0.634701 0.357896
Si Si4 0.352020 0.950252 0.141088
Si Si5 0.826565 0.870616 0.861876
Si Si6 0.294601 0.500000 0.750000
Si Si7 0.068359 0.295125 0.142014
Si Si8 0.933902 0.050997 0.638840
O O1 0.500000 0.299715 0.750000
O O2 0.479100 0.295549 0.500000
O O3 0.371875 0.328792 0.639534
O O4 0.402206 0.250020 0.649214
O O5 0.563683 0.027427 0.824143
O O6 0.228467 0.634466 0.500000
O O7 0.138422 0.596048 0.345243
O O8 0.264050 0.629821 0.252559
O O9 0.141975 0.673812 0.340851
O O10 0.270317 0.965998 0.212103
O O11 0.332874 0.959334 0.000000
O O12 0.892581 0.906001 0.848454
O O13 0.787836 0.875680 0.000000
O O14 0.358511 0.519804 0.846597
O O15 0.000000 0.300445 0.250000
O O16 0.035921 0.300744 0.000000
O O17 0.970443 0.047869 0.500000
O O18 0.000000 0.045716 0.750000
#
# Coordination Sequence:
#
# PCOD9527731 Si02
#       8
#    16   4  16  16  16   8  16  16
#     4   9  18  34  56  81 111 145 181 224 270 322
#     4  10  22  36  58  86 110 144 192 240 280 340
#     4  10  21  37  56  80 111 146 183 224 276 331
#     4  10  21  38  58  82 113 148 187 233 283 336
#     4  10  21  38  56  80 112 145 185 228 275 326
#     4  11  21  39  61  80 110 150 185 233 279 343
#     4   9  19  35  56  82 112 144 181 223 272 328
#     4  11  24  39  58  85 113 147 190 235 282 336
#
# _framework density 18.246946999999999
#
# number of rings (size 3 to 8) (size 9 to 14) (size 15 to 20)
#    0.000    2.074    1.481    1.333    1.037    4.148 
#    0.000    0.741    0.000    0.000    0.000    0.000 
#    0.000    0.000    0.000    0.000    0.000    0.000 
#
# Total GULP energy -300818.473448 kJ/mol
# GULP energy per Si atom -5570.712471 kJ/mol
# Density = 1.820542 g / cm^3
# Si number density = 18.246947 Si / 1000 Ang^3
#
#
#
# Elastic Constant Matrix: (Units=GPa)
#
#
# Indices 1 2 3 4 5 6 
#
# 1 63.9465 32.1311 51.5584 0.0004 0.0003 -0.0001
# 2 32.1311 89.0486 45.2508 0.0006 -0.0001 -0.0002
# 3 51.5584 45.2508 114.4929 -0.0031 0.0008 0.0012
# 4 0.0004 0.0006 -0.0031 27.8744 -0.0003 0.0002
# 5 0.0003 -0.0001 0.0008 -0.0003 20.5408 -0.0001
# 6 -0.0001 -0.0002 0.0012 0.0002 -0.0001 25.6692
#
#
#
# Elastic Compliance Matrix: (Units=1/GPa)
#
#
# Indices 1 2 3 4 5 6 
#
# 1 0.025782 -0.004258 -0.009927 -0.000001 0.000000 0.000001
# 2 -0.004258 0.014755 -0.003914 -0.000001 0.000000 0.000000
# 3 -0.009927 -0.003914 0.014751 0.000002 0.000000 -0.000001
# 4 -0.000001 -0.000001 0.000002 0.035875 0.000001 0.000000
# 5 0.000000 0.000000 0.000000 0.000001 0.048684 0.000000
# 6 0.000001 0.000000 -0.000001 0.000000 0.000000 0.038957
#
#
# Mechanical properties :
#
#
# Convention : Reuss Voigt Hill
#
# Bulk Modulus (GPa) = 52.38441 58.37431 55.37936
# Shear Modulus (GPa) = 22.58701 24.05339 23.32020
#
# Velocity S-wave (km/s) = 3.52213 3.63466 3.57884
# Velocity P-wave (km/s) = 6.73138 7.04805 6.89153
#
# Compressibility (1/GPa) = 0.01908965
#
# Stress axis : x y z
#
# Youngs Moduli (GPa) = 38.78744 67.77223 67.78987
#
# Poissons Ratio (x) = 0.28859 0.67295
# Poissons Ratio (y) = 0.16516 0.26534
# Poissons Ratio (z) = 0.38504 0.26527
#
# Static dielectric constant tensor:
#      x y z
#    x 1.721300 0.000000 0.000000 
#    y 0.000000 1.641410 0.000000 
#    z 0.000000 0.000000 1.648330 
# 
# From -- ./inp_files/13170.got.cif
#   From: 2010.05.17/outbox.cif.g08.bks.cpg/sg72_7_cif.got.tgz:13170.got - 2010.06.03 17:03:01.
