data_PCOD9527924
_publ_section_title
;
Structure prediction by ZEFSAII (Michael W. Deem and Ramdas Pophale) SiO2 
 PCOD9527924
Probable space group: I B A M
;
_chemical_formula_sum "Si O2"
_cell_formula_units_Z 80
_cell_length_a 22.469258
_cell_length_b 11.198431
_cell_length_c 14.858198
_cell_angle_alpha 90.000000
_cell_angle_beta 90.000000
_cell_angle_gamma 90.000000
_cell_volume 3738.626249
_symmetry_space_group_name_H-M "I B A M"
_symmetry_group_IT_number 72
_symmetry_cell_setting 'orthorhombic'
loop_
_space_group_symop_operation_xyz
x,y,z
-x,-y,z
x,-y,1/2-z
-x,y,1/2-z
-x,-y,-z
x,y,-z
-x,y,1/2+z
x,-y,1/2+z
1/2+x,1/2+y,1/2+z
1/2-x,1/2-y,1/2+z
1/2+x,1/2-y,-z
1/2-x,1/2+y,-z
1/2-x,1/2-y,1/2-z
1/2+x,1/2+y,1/2-z
1/2-x,1/2+y,z
1/2+x,1/2-y,z
loop_
_atom_site_type_symbol
_atom_site_label
_atom_site_fract_x
_atom_site_fract_y
_atom_site_fract_z
Si Si1 0.385991 0.614325 0.812429
Si Si2 0.586204 0.488799 0.000000
Si Si3 0.687780 0.325216 0.500000
Si Si4 0.055321 0.319726 0.694686
Si Si5 0.219707 0.706033 0.659636
Si Si6 0.345983 0.000000 0.750000
Si Si7 0.057072 0.751221 0.000000
O O1 0.367625 0.500000 0.750000
O O2 0.423844 0.697599 0.744354
O O3 0.332755 0.696989 0.851537
O O4 0.419552 0.574315 0.903452
O O5 0.654294 0.546099 0.000000
O O6 0.546134 0.607281 0.000000
O O7 0.730096 0.303659 0.584486
O O8 0.629523 0.241143 0.500000
O O9 0.111501 0.406417 0.700120
O O10 0.035341 0.301578 0.592751
O O11 0.000000 0.367334 0.750000
O O12 0.250000 0.750000 0.750000
O O13 0.192256 0.576109 0.679697
#
# Coordination Sequence:
#
# PCOD9527924 Si02
#       7
#    16   8   8  16  16   8   8
#     4  11  21  40  60  96 136 168 224 287 326 408
#     4  10  21  38  61  89 142 163 214 278 327 390
#     4  10  21  40  60  96 132 180 216 262 338 397
#     4  11  24  46  72  93 133 181 227 287 347 387
#     4  11  23  37  63  93 131 182 216 264 332 398
#     4  10  25  44  64 100 138 174 235 270 320 418
#     4  10  22  44  64 102 134 166 230 288 323 418
#
# _framework density 21.398236000000001
#
# number of rings (size 3 to 8) (size 9 to 14) (size 15 to 20)
#    0.600    0.800    2.000    4.500    4.200    2.000 
#    3.600    5.000    0.000    0.000    0.000    0.000 
#    0.000    0.000    0.000    0.000    0.000    0.000 
#
# Total GULP energy -223402.495608 kJ/mol
# GULP energy per Si atom -5585.062390 kJ/mol
# Density = 2.134953 g / cm^3
# Si number density = 21.398236 Si / 1000 Ang^3
#
#
#
# Elastic Constant Matrix: (Units=GPa)
#
#
# Indices 1 2 3 4 5 6 
#
# 1 71.5010 19.8891 27.1053 0.0000 0.0000 0.0000
# 2 19.8891 90.0252 43.6811 0.0000 0.0000 0.0000
# 3 27.1053 43.6811 171.4923 0.0000 0.0000 0.0000
# 4 0.0000 0.0000 0.0000 12.6824 0.0000 0.0000
# 5 0.0000 0.0000 0.0000 0.0000 40.4093 0.0000
# 6 0.0000 0.0000 0.0000 0.0000 0.0000 1.2211
#
#
#
# Elastic Compliance Matrix: (Units=1/GPa)
#
#
# Indices 1 2 3 4 5 6 
#
# 1 0.015366 -0.002529 -0.001785 0.000000 0.000000 0.000000
# 2 -0.002529 0.013091 -0.002935 0.000000 0.000000 0.000000
# 3 -0.001785 -0.002935 0.006861 0.000000 0.000000 0.000000
# 4 0.000000 0.000000 0.000000 0.078849 0.000000 0.000000
# 5 0.000000 0.000000 0.000000 0.000000 0.024747 0.000000
# 6 0.000000 0.000000 0.000000 0.000000 0.000000 0.818932
#
#
# Mechanical properties :
#
#
# Convention : Reuss Voigt Hill
#
# Bulk Modulus (GPa) = 48.02831 57.15217 52.59024
# Shear Modulus (GPa) = 5.10579 27.01876 16.06227
#
# Velocity S-wave (km/s) = 1.54637 3.55725 2.74274
# Velocity P-wave (km/s) = 5.06775 6.60597 5.88731
#
# Compressibility (1/GPa) = 0.02082106
#
# Stress axis : x y z
#
# Youngs Moduli (GPa) = 65.07976 76.39061 145.75763
#
# Poissons Ratio (x) = 0.19318 0.26011
# Poissons Ratio (y) = 0.16458 0.42775
# Poissons Ratio (z) = 0.11614 0.22418
#
# Static dielectric constant tensor:
#      x y z
#    x 1.838890 0.000000 0.000000 
#    y 0.000000 1.801380 0.000000 
#    z 0.000000 0.000000 1.729550 
# 
# From -- ./inp_files/24971.got.cif
#   From: 2010.05.17/outbox.cif.g08.bks.cpg/sg72_13_cif.got.tgz:24971.got - 2010.06.03 17:03:01.
