data_PCOD9527269
_publ_section_title
;
Structure prediction by ZEFSAII (Michael W. Deem and Ramdas Pophale) SiO2 
 PCOD9527269
Probable space group: I B A M
;
_chemical_formula_sum "Si O2"
_cell_formula_units_Z 68
_cell_length_a 18.427121
_cell_length_b 18.581747
_cell_length_c 10.549527
_cell_angle_alpha 90.000000
_cell_angle_beta 90.000000
_cell_angle_gamma 90.000000
_cell_volume 3612.243500
_symmetry_space_group_name_H-M "I B A M"
_symmetry_group_IT_number 72
_symmetry_cell_setting 'orthorhombic'
loop_
_space_group_symop_operation_xyz
x,y,z
-x,-y,z
x,-y,1/2-z
-x,y,1/2-z
-x,-y,-z
x,y,-z
-x,y,1/2+z
x,-y,1/2+z
1/2+x,1/2+y,1/2+z
1/2-x,1/2-y,1/2+z
1/2+x,1/2-y,-z
1/2-x,1/2+y,-z
1/2-x,1/2-y,1/2-z
1/2+x,1/2+y,1/2-z
1/2-x,1/2+y,z
1/2+x,1/2-y,z
loop_
_atom_site_type_symbol
_atom_site_label
_atom_site_fract_x
_atom_site_fract_y
_atom_site_fract_z
Si Si1 0.839468 0.400584 0.000000
Si Si2 0.764976 0.586663 0.760593
Si Si3 0.000000 0.757376 0.250000
Si Si4 0.000000 0.000000 0.750000
Si Si5 0.361283 0.926785 0.000000
Si Si6 0.999815 0.336522 0.000000
Si Si7 0.104531 0.123115 0.350342
O O1 0.794806 0.383948 0.872467
O O2 0.853986 0.486759 0.000000
O O3 0.916669 0.361812 0.000000
O O4 0.762178 0.500000 0.750000
O O5 0.820111 0.602263 0.875454
O O6 0.684386 0.611124 0.795215
O O7 0.013523 0.709562 0.373666
O O8 0.066619 0.810138 0.218540
O O9 0.946751 0.053133 0.827653
O O10 0.444206 0.902524 0.000000
O O11 0.108866 0.136624 0.500000
#
# Coordination Sequence:
#
# PCOD9527269 Si02
#       7
#     8  16   8   4   8   8  16
#     4  10  23  39  64  99 122 155 215 268 322 369
#     4  10  20  37  63  96 129 157 199 264 324 372
#     4  11  26  41  63  88 127 174 214 248 299 374
#     4  10  22  32  68  98 122 172 202 250 322 358
#     4  10  21  39  68  93 118 167 207 266 330 361
#     4  12  23  46  62  87 126 170 216 268 304 363
#     4  11  21  41  61  95 132 164 209 251 305 380
#
# _framework density 18.824864999999999
#
# number of rings (size 3 to 8) (size 9 to 14) (size 15 to 20)
#    0.000    1.412    3.529    2.118    0.000    0.941 
#    2.118   11.765    0.000    0.000    0.000    0.000 
#    0.000    0.000    0.000    0.000    0.000    0.000 
#
# Total GULP energy -189956.527148 kJ/mol
# GULP energy per Si atom -5586.956681 kJ/mol
# Density = 1.878202 g / cm^3
# Si number density = 18.824865 Si / 1000 Ang^3
#
#
#
# Elastic Constant Matrix: (Units=GPa)
#
#
# Indices 1 2 3 4 5 6 
#
# 1 145.3702 29.4810 77.8589 0.0000 0.0000 0.0000
# 2 29.4810 37.8028 40.1431 0.0000 0.0000 0.0000
# 3 77.8589 40.1431 186.4457 0.0000 0.0000 0.0000
# 4 0.0000 0.0000 0.0000 22.4749 0.0000 0.0000
# 5 0.0000 0.0000 0.0000 0.0000 -10.2981 0.0000
# 6 0.0000 0.0000 0.0000 0.0000 0.0000 -1.5271
#
#
#
# Elastic Compliance Matrix: (Units=1/GPa)
#
#
# Indices 1 2 3 4 5 6 
#
# 1 0.009319 -0.004064 -0.003016 0.000000 0.000000 0.000000
# 2 -0.004064 0.036066 -0.006068 0.000000 0.000000 0.000000
# 3 -0.003016 -0.006068 0.007930 0.000000 0.000000 0.000000
# 4 0.000000 0.000000 0.000000 0.044494 0.000000 0.000000
# 5 0.000000 0.000000 0.000000 0.000000 -0.097105 0.000000
# 6 0.000000 0.000000 0.000000 0.000000 0.000000 -0.654855
#
#
# Mechanical properties :
#
#
# Convention : Reuss Voigt Hill
#
# Bulk Modulus (GPa) = 37.01339 73.84274 55.42807
# Shear Modulus (GPa) = -8.07953 16.93898 4.42973
#
# Velocity S-wave (km/s) = -2.07395 3.00295 1.53565
# Velocity P-wave (km/s) = 3.73760 7.16484 5.71422
#
# Compressibility (1/GPa) = 0.02701725
#
# Stress axis : x y z
#
# Youngs Moduli (GPa) = 107.31022 27.72667 126.10876
#
# Poissons Ratio (x) = 0.11269 0.38040
# Poissons Ratio (y) = 0.43613 0.76525
# Poissons Ratio (z) = 0.32369 0.16825
#
# Static dielectric constant tensor:
#      x y z
#    x 1.613620 0.000000 0.000000 
#    y 0.000000 1.638850 0.000000 
#    z 0.000000 0.000000 1.628000 
# 
# From -- ./inp_files/4467.got.cif
#   From: 2010.05.17/outbox.cif.g08.bks.cpg/sg72_3_cif.got.tgz:4467.got - 2010.06.03 17:03:01.
