data_PCOD9527065
_publ_section_title
;
Structure prediction by ZEFSAII (Michael W. Deem and Ramdas Pophale) SiO2 
 PCOD9527065
Probable space group: I B A M
;
_chemical_formula_sum "Si O2"
_cell_formula_units_Z 96
_cell_length_a 21.946527
_cell_length_b 13.025405
_cell_length_c 17.865151
_cell_angle_alpha 90.000000
_cell_angle_beta 90.000000
_cell_angle_gamma 90.000000
_cell_volume 5106.974986
_symmetry_space_group_name_H-M "I B A M"
_symmetry_group_IT_number 72
_symmetry_cell_setting 'orthorhombic'
loop_
_space_group_symop_operation_xyz
x,y,z
-x,-y,z
x,-y,1/2-z
-x,y,1/2-z
-x,-y,-z
x,y,-z
-x,y,1/2+z
x,-y,1/2+z
1/2+x,1/2+y,1/2+z
1/2-x,1/2-y,1/2+z
1/2+x,1/2-y,-z
1/2-x,1/2+y,-z
1/2-x,1/2-y,1/2-z
1/2+x,1/2+y,1/2-z
1/2-x,1/2+y,z
1/2+x,1/2-y,z
loop_
_atom_site_type_symbol
_atom_site_label
_atom_site_fract_x
_atom_site_fract_y
_atom_site_fract_z
Si Si1 0.394288 0.898965 0.800542
Si Si2 0.495933 0.243695 0.664291
Si Si3 0.441515 0.434641 0.410234
Si Si4 0.324798 0.566733 0.409761
Si Si5 0.364010 0.779571 0.342985
Si Si6 0.810157 0.513062 0.411670
O O1 0.459439 0.862316 0.830151
O O2 0.367748 0.811453 0.744753
O O3 0.349563 0.929623 0.866827
O O4 0.401479 0.000000 0.750000
O O5 0.500000 0.282716 0.750000
O O6 0.453932 0.321437 0.619051
O O7 0.564416 0.231556 0.634166
O O8 0.500000 0.500000 0.384809
O O9 0.441321 0.432743 0.500000
O O10 0.379948 0.491521 0.386883
O O11 0.329898 0.586973 0.500000
O O12 0.332068 0.673375 0.365283
O O13 0.260570 0.511391 0.396422
O O14 0.331357 0.874879 0.383662
O O15 0.820296 0.505517 0.500000
#
# Coordination Sequence:
#
# PCOD9527065 Si02
#       6
#    16  16  16  16  16  16
#     4   9  21  40  59  84 119 150 192 244 288 338
#     4  10  21  37  60  88 115 153 191 237 291 344
#     4  10  20  36  59  88 117 146 187 239 289 342
#     4  10  21  38  59  85 119 153 189 239 288 340
#     4  10  20  38  60  82 112 155 195 233 294 347
#     4  10  22  38  58  83 114 154 195 236 286 347
#
# _framework density 18.797822
#
# number of rings (size 3 to 8) (size 9 to 14) (size 15 to 20)
#    0.000    2.167    1.667    0.500    0.000   11.333 
#    0.000   12.500    0.000    0.000    0.000    0.000 
#    0.000    0.000    0.000    0.000    0.000    0.000 
#
# Total GULP energy -267796.578231 kJ/mol
# GULP energy per Si atom -5579.095380 kJ/mol
# Density = 1.875504 g / cm^3
# Si number density = 18.797822 Si / 1000 Ang^3
#
#
#
# Elastic Constant Matrix: (Units=GPa)
#
#
# Indices 1 2 3 4 5 6 
#
# 1 97.3953 70.0723 48.5984 0.0000 0.0000 0.0000
# 2 70.0723 98.0352 43.3926 0.0000 0.0000 0.0000
# 3 48.5984 43.3926 34.2489 0.0000 0.0000 0.0000
# 4 0.0000 0.0000 0.0000 24.5597 0.0000 0.0000
# 5 0.0000 0.0000 0.0000 0.0000 22.5290 0.0000
# 6 0.0000 0.0000 0.0000 0.0000 0.0000 31.7458
#
#
#
# Elastic Compliance Matrix: (Units=1/GPa)
#
#
# Indices 1 2 3 4 5 6 
#
# 1 0.037372 -0.007377 -0.043684 0.000000 0.000000 0.000000
# 2 -0.007377 0.024681 -0.020802 0.000000 0.000000 0.000000
# 3 -0.043684 -0.020802 0.117540 0.000000 0.000000 0.000000
# 4 0.000000 0.000000 0.000000 0.040717 0.000000 0.000000
# 5 0.000000 0.000000 0.000000 0.000000 0.044387 0.000000
# 6 0.000000 0.000000 0.000000 0.000000 0.000000 0.031500
#
#
# Mechanical properties :
#
#
# Convention : Reuss Voigt Hill
#
# Bulk Modulus (GPa) = 27.88065 61.53400 44.70732
# Shear Modulus (GPa) = 11.06488 20.27467 15.66978
#
# Velocity S-wave (km/s) = 2.42879 3.28771 2.89034
# Velocity P-wave (km/s) = 4.76754 6.87152 5.91385
#
# Compressibility (1/GPa) = 0.03586717
#
# Stress axis : x y z
#
# Youngs Moduli (GPa) = 26.75770 40.51746 8.50772
#
# Poissons Ratio (x) = 0.29890 0.37165
# Poissons Ratio (y) = 0.19739 0.17698
# Poissons Ratio (z) = 1.16889 0.84285
#
# Static dielectric constant tensor:
#      x y z
#    x 1.646820 0.000000 0.000000 
#    y 0.000000 1.679720 0.000000 
#    z 0.000000 0.000000 1.650300 
# 
# From -- ./inp_files/39716.got.cif
#   From: 2010.05.17/outbox.cif.g08.bks.cpg/sg72_20_cif.got.tgz:39716.got - 2010.06.03 17:03:01.
