data_PCOD9527761
_publ_section_title
;
Structure prediction by ZEFSAII (Michael W. Deem and Ramdas Pophale) SiO2 
 PCOD9527761
Probable space group: I B A M
;
_chemical_formula_sum "Si O2"
_cell_formula_units_Z 60
_cell_length_a 13.132895
_cell_length_b 19.163868
_cell_length_c 12.697889
_cell_angle_alpha 90.000000
_cell_angle_beta 90.000000
_cell_angle_gamma 90.000000
_cell_volume 3195.767451
_symmetry_space_group_name_H-M "I B A M"
_symmetry_group_IT_number 72
_symmetry_cell_setting 'orthorhombic'
loop_
_space_group_symop_operation_xyz
x,y,z
-x,-y,z
x,-y,1/2-z
-x,y,1/2-z
-x,-y,-z
x,y,-z
-x,y,1/2+z
x,-y,1/2+z
1/2+x,1/2+y,1/2+z
1/2-x,1/2-y,1/2+z
1/2+x,1/2-y,-z
1/2-x,1/2+y,-z
1/2-x,1/2-y,1/2-z
1/2+x,1/2+y,1/2-z
1/2-x,1/2+y,z
1/2+x,1/2-y,z
loop_
_atom_site_type_symbol
_atom_site_label
_atom_site_fract_x
_atom_site_fract_y
_atom_site_fract_z
Si Si1 0.345458 0.077830 0.793419
Si Si2 0.873150 0.884514 0.125579
Si Si3 0.468684 0.145377 0.617655
Si Si4 0.000000 0.000000 0.750000
Si Si5 0.500000 0.271974 0.250000
O O1 0.245921 0.103442 0.853228
O O2 0.375448 0.126155 0.693691
O O3 0.445777 0.086103 0.865515
O O4 0.332074 0.000000 0.750000
O O5 0.914388 0.821031 0.198272
O O6 0.892508 0.875406 0.000000
O O7 0.932007 0.951317 0.174130
O O8 0.434047 0.150878 0.500000
O O9 0.522116 0.217071 0.656002
#
# Coordination Sequence:
#
# PCOD9527761 Si02
#       5
#    16  16  16   4   8
#     4  10  21  37  57  89 120 150 200 244 283 363
#     4  11  21  38  62  85 119 158 191 243 298 343
#     4  10  21  38  60  85 120 159 193 244 297 339
#     4  10  22  40  56  88 122 148 204 236 282 364
#     4   9  22  39  57  84 117 150 204 242 279 356
#
# _framework density 18.774830999999999
#
# number of rings (size 3 to 8) (size 9 to 14) (size 15 to 20)
#    0.000    2.133    1.333    3.600    0.000    7.467 
#    0.000    5.333    0.000    0.000    0.000    0.000 
#    0.000    0.000    0.000    0.000    0.000    0.000 
#
# Total GULP energy -167059.068259 kJ/mol
# GULP energy per Si atom -5568.635609 kJ/mol
# Density = 1.873210 g / cm^3
# Si number density = 18.774831 Si / 1000 Ang^3
#
#
#
# Elastic Constant Matrix: (Units=GPa)
#
#
# Indices 1 2 3 4 5 6 
#
# 1 66.2833 15.8601 18.5373 0.0000 0.0000 0.0000
# 2 15.8601 89.0220 27.4321 0.0001 0.0000 0.0001
# 3 18.5373 27.4321 125.7700 0.0002 0.0001 0.0002
# 4 0.0000 0.0001 0.0002 15.4871 0.0000 0.0001
# 5 0.0000 0.0000 0.0001 0.0000 18.4960 0.0000
# 6 0.0000 0.0001 0.0002 0.0001 0.0000 0.8107
#
#
#
# Elastic Compliance Matrix: (Units=1/GPa)
#
#
# Indices 1 2 3 4 5 6 
#
# 1 0.016163 -0.002300 -0.001881 0.000000 0.000000 0.000000
# 2 -0.002300 0.012370 -0.002359 0.000000 0.000000 0.000000
# 3 -0.001881 -0.002359 0.008743 0.000000 0.000000 -0.000001
# 4 0.000000 0.000000 0.000000 0.064570 0.000000 -0.000007
# 5 0.000000 0.000000 0.000000 0.000000 0.054066 -0.000001
# 6 0.000000 0.000000 -0.000001 -0.000007 -0.000001 1.233481
#
#
# Mechanical properties :
#
#
# Convention : Reuss Voigt Hill
#
# Bulk Modulus (GPa) = 41.32873 44.97050 43.14961
# Shear Modulus (GPa) = 3.54475 21.57514 12.55995
#
# Velocity S-wave (km/s) = 1.37555 3.39359 2.58927
# Velocity P-wave (km/s) = 4.95817 6.27374 5.65435
#
# Compressibility (1/GPa) = 0.02419624
#
# Stress axis : x y z
#
# Youngs Moduli (GPa) = 61.86941 80.84143 114.38059
#
# Poissons Ratio (x) = 0.18594 0.21510
# Poissons Ratio (y) = 0.14231 0.26983
# Poissons Ratio (z) = 0.11635 0.19071
#
# Static dielectric constant tensor:
#      x y z
#    x 1.629690 0.000000 0.000000 
#    y 0.000000 1.695000 0.000000 
#    z 0.000000 0.000000 1.659810 
# 
# From -- ./inp_files/12511.got.cif
#   From: 2010.05.17/outbox.cif.g08.bks.cpg/sg72_7_cif.got.tgz:12511.got - 2010.06.03 17:03:01.
