data_PCOD9527935
_publ_section_title
;
Structure prediction by ZEFSAII (Michael W. Deem and Ramdas Pophale) SiO2 
 PCOD9527935
Probable space group: I B A M
;
_chemical_formula_sum "Si O2"
_cell_formula_units_Z 80
_cell_length_a 24.679271
_cell_length_b 9.517787
_cell_length_c 16.147653
_cell_angle_alpha 90.000000
_cell_angle_beta 90.000000
_cell_angle_gamma 90.000000
_cell_volume 3792.955230
_symmetry_space_group_name_H-M "I B A M"
_symmetry_group_IT_number 72
_symmetry_cell_setting 'orthorhombic'
loop_
_space_group_symop_operation_xyz
x,y,z
-x,-y,z
x,-y,1/2-z
-x,y,1/2-z
-x,-y,-z
x,y,-z
-x,y,1/2+z
x,-y,1/2+z
1/2+x,1/2+y,1/2+z
1/2-x,1/2-y,1/2+z
1/2+x,1/2-y,-z
1/2-x,1/2+y,-z
1/2-x,1/2-y,1/2-z
1/2+x,1/2+y,1/2-z
1/2-x,1/2+y,z
1/2+x,1/2-y,z
loop_
_atom_site_type_symbol
_atom_site_label
_atom_site_fract_x
_atom_site_fract_y
_atom_site_fract_z
Si Si1 0.363079 0.523823 0.341590
Si Si2 0.142779 0.338764 0.597213
Si Si3 0.253914 0.885767 0.689879
Si Si4 0.941764 0.427108 0.597485
Si Si5 0.039452 0.119722 0.094137
O O1 0.386356 0.500000 0.250000
O O2 0.364533 0.688858 0.359201
O O3 0.303796 0.450679 0.337839
O O4 0.401419 0.448106 0.406207
O O5 0.131124 0.321801 0.500000
O O6 0.205962 0.368782 0.613579
O O7 0.103988 0.464652 0.629189
O O8 0.250000 0.750000 0.750000
O O9 0.280402 0.000000 0.750000
O O10 0.927296 0.404544 0.500000
O O11 0.951353 0.272151 0.634835
O O12 0.000000 0.500000 0.601302
O O13 0.018446 0.144830 0.000000
O O14 0.000000 0.000000 0.130939
#
# Coordination Sequence:
#
# PCOD9527935 Si02
#       5
#    16  16  16  16  16
#     4  11  23  40  62  87 124 169 206 255 324 390
#     4  11  23  39  64  95 125 164 217 272 320 389
#     4  11  23  44  63  87 125 172 210 259 332 392
#     4   9  19  36  59  89 122 156 199 257 322 376
#     4  10  21  38  62  90 122 163 211 267 323 380
#
# _framework density 21.091733999999999
#
# number of rings (size 3 to 8) (size 9 to 14) (size 15 to 20)
#    0.000    1.600    4.000    1.800    2.800    5.200 
#    0.000    0.000    0.000    1.800    0.000    0.000 
#    0.000    0.000    0.000    0.000    0.000    0.000 
#
# Total GULP energy -222887.154429 kJ/mol
# GULP energy per Si atom -5572.178861 kJ/mol
# Density = 2.104373 g / cm^3
# Si number density = 21.091734 Si / 1000 Ang^3
#
#
#
# Elastic Constant Matrix: (Units=GPa)
#
#
# Indices 1 2 3 4 5 6 
#
# 1 98.2889 63.4804 13.4988 0.0000 0.0000 0.0000
# 2 63.4804 203.2912 23.9863 0.0000 0.0000 0.0000
# 3 13.4988 23.9863 44.9816 0.0000 0.0000 0.0000
# 4 0.0000 0.0000 0.0000 23.8547 0.0000 0.0000
# 5 0.0000 0.0000 0.0000 0.0000 11.8221 0.0000
# 6 0.0000 0.0000 0.0000 0.0000 0.0000 39.0378
#
#
#
# Elastic Compliance Matrix: (Units=1/GPa)
#
#
# Indices 1 2 3 4 5 6 
#
# 1 0.012885 -0.003807 -0.001837 0.000000 0.000000 0.000000
# 2 -0.003807 0.006374 -0.002257 0.000000 0.000000 0.000000
# 3 -0.001837 -0.002257 0.023986 0.000000 0.000000 0.000000
# 4 0.000000 0.000000 0.000000 0.041920 0.000000 0.000000
# 5 0.000000 0.000000 0.000000 0.000000 0.084587 0.000000
# 6 0.000000 0.000000 0.000000 0.000000 0.000000 0.025616
#
#
# Mechanical properties :
#
#
# Convention : Reuss Voigt Hill
#
# Bulk Modulus (GPa) = 36.43698 60.94363 48.69030
# Shear Modulus (GPa) = 22.69455 31.31600 27.00528
#
# Velocity S-wave (km/s) = 3.28379 3.85743 3.58211
# Velocity P-wave (km/s) = 5.62945 6.98548 6.34380
#
# Compressibility (1/GPa) = 0.02744465
#
# Stress axis : x y z
#
# Youngs Moduli (GPa) = 77.60976 156.88691 41.69127
#
# Poissons Ratio (x) = 0.59723 0.07658
# Poissons Ratio (y) = 0.29544 0.09408
# Poissons Ratio (z) = 0.14255 0.35402
#
# Static dielectric constant tensor:
#      x y z
#    x 1.758940 0.000000 0.000000 
#    y 0.000000 1.792380 0.000000 
#    z 0.000000 0.000000 1.808830 
# 
# From -- ./inp_files/33751.got.cif
#   From: 2010.05.17/outbox.cif.g08.bks.cpg/sg72_17_cif.got.tgz:33751.got - 2010.06.03 17:03:01.
