data_PCOD9527633
_publ_section_title
;
Structure prediction by ZEFSAII (Michael W. Deem and Ramdas Pophale) SiO2 
 PCOD9527633
Probable space group: I B A M
;
_chemical_formula_sum "Si O2"
_cell_formula_units_Z 120
_cell_length_a 15.930484
_cell_length_b 33.855862
_cell_length_c 13.608268
_cell_angle_alpha 90.000000
_cell_angle_beta 90.000000
_cell_angle_gamma 90.000000
_cell_volume 7339.486909
_symmetry_space_group_name_H-M "I B A M"
_symmetry_group_IT_number 72
_symmetry_cell_setting 'orthorhombic'
loop_
_space_group_symop_operation_xyz
x,y,z
-x,-y,z
x,-y,1/2-z
-x,y,1/2-z
-x,-y,-z
x,y,-z
-x,y,1/2+z
x,-y,1/2+z
1/2+x,1/2+y,1/2+z
1/2-x,1/2-y,1/2+z
1/2+x,1/2-y,-z
1/2-x,1/2+y,-z
1/2-x,1/2-y,1/2-z
1/2+x,1/2+y,1/2-z
1/2-x,1/2+y,z
1/2+x,1/2-y,z
loop_
_atom_site_type_symbol
_atom_site_label
_atom_site_fract_x
_atom_site_fract_y
_atom_site_fract_z
Si Si1 0.398135 0.785157 0.385276
Si Si2 0.416442 0.944408 0.383247
Si Si3 0.743557 0.671691 0.884387
Si Si4 0.147912 0.392776 0.215069
Si Si5 0.796574 0.762474 0.886463
Si Si6 0.000000 0.344444 0.250000
Si Si7 0.913448 0.204141 0.213775
Si Si8 0.109555 0.468186 0.883295
O O1 0.415840 0.791891 0.500000
O O2 0.297253 0.780497 0.373992
O O3 0.439795 0.818015 0.317291
O O4 0.434678 0.743312 0.349167
O O5 0.410636 0.938371 0.500000
O O6 0.374641 0.908549 0.324214
O O7 0.514077 0.954135 0.359246
O O8 0.374693 0.986499 0.354525
O O9 0.783379 0.639502 0.812035
O O10 0.786445 0.715102 0.871649
O O11 0.647230 0.678149 0.853677
O O12 0.752587 0.661272 0.000000
O O13 0.060990 0.371303 0.184056
O O14 0.165664 0.433381 0.158725
O O15 0.858593 0.781032 0.807102
O O16 0.822102 0.768871 0.000000
O O17 0.000000 0.185618 0.250000
O O18 0.113913 0.468267 0.000000
#
# Coordination Sequence:
#
# PCOD9527633 Si02
#       8
#    16  16  16  16  16   8  16  16
#     4  10  21  36  50  68  96 129 166 213 257 301
#     4   9  18  32  49  69  99 136 177 211 237 284
#     4  10  22  36  50  71 101 130 158 209 265 308
#     4  12  20  31  47  70 106 138 168 207 252 295
#     4   9  19  37  55  69  94 127 163 208 262 308
#     4  12  22  30  43  76 100 130 176 218 245 292
#     4  11  20  36  57  73  90 122 171 213 256 314
#     4   9  17  31  49  70  97 136 177 209 240 285
#
# _framework density 16.349917000000001
#
# number of rings (size 3 to 8) (size 9 to 14) (size 15 to 20)
#    0.000    1.867    2.000    6.000    0.000    3.733 
#    0.000    0.667    0.000    0.000    0.000    0.000 
#    0.000    2.133    0.000    8.000    0.000    0.000 
#
# Total GULP energy -334562.461405 kJ/mol
# GULP energy per Si atom -5576.041023 kJ/mol
# Density = 1.631270 g / cm^3
# Si number density = 16.349917 Si / 1000 Ang^3
#
#
#
# Elastic Constant Matrix: (Units=GPa)
#
#
# Indices 1 2 3 4 5 6 
#
# 1 36.4159 26.0382 17.0076 0.0000 0.0000 0.0000
# 2 26.0382 89.0047 29.1894 0.0000 0.0000 0.0000
# 3 17.0076 29.1894 95.1349 0.0005 -0.0004 -0.0001
# 4 0.0000 0.0000 0.0005 18.9604 -0.0001 0.0000
# 5 0.0000 0.0000 -0.0004 -0.0001 14.8251 0.0000
# 6 0.0000 0.0000 -0.0001 0.0000 0.0000 15.1928
#
#
#
# Elastic Compliance Matrix: (Units=1/GPa)
#
#
# Indices 1 2 3 4 5 6 
#
# 1 0.035765 -0.009302 -0.003540 0.000000 0.000000 0.000000
# 2 -0.009302 0.014912 -0.002912 0.000000 0.000000 0.000000
# 3 -0.003540 -0.002912 0.012038 0.000000 0.000000 0.000000
# 4 0.000000 0.000000 0.000000 0.052741 0.000000 0.000000
# 5 0.000000 0.000000 0.000000 0.000000 0.067453 0.000000
# 6 0.000000 0.000000 0.000000 0.000000 0.000000 0.065821
#
#
# Mechanical properties :
#
#
# Convention : Reuss Voigt Hill
#
# Bulk Modulus (GPa) = 32.04494 40.55845 36.30169
# Shear Modulus (GPa) = 17.20341 19.68368 18.44355
#
# Velocity S-wave (km/s) = 3.24728 3.47349 3.36229
# Velocity P-wave (km/s) = 5.80533 6.39900 6.10938
#
# Compressibility (1/GPa) = 0.03120618
#
# Stress axis : x y z
#
# Youngs Moduli (GPa) = 27.96035 67.06112 83.07200
#
# Poissons Ratio (x) = 0.62381 0.29405
# Poissons Ratio (y) = 0.26009 0.24193
# Poissons Ratio (z) = 0.09897 0.19530
#
# Static dielectric constant tensor:
#      x y z
#    x 1.495060 0.000000 0.000000 
#    y 0.000000 1.581450 0.000000 
#    z 0.000000 0.000000 1.603490 
# 
# From -- ./inp_files/22486.got.cif
#   From: 2010.05.17/outbox.cif.g08.bks.cpg/sg72_12_cif.got.tgz:22486.got - 2010.06.03 17:03:01.
