data_PCOD9527894
_publ_section_title
;
Structure prediction by ZEFSAII (Michael W. Deem and Ramdas Pophale) SiO2 
 PCOD9527894
Probable space group: I B A M
;
_chemical_formula_sum "Si O2"
_cell_formula_units_Z 112
_cell_length_a 28.624473
_cell_length_b 12.117402
_cell_length_c 14.359759
_cell_angle_alpha 90.000000
_cell_angle_beta 90.000000
_cell_angle_gamma 90.000000
_cell_volume 4980.743386
_symmetry_space_group_name_H-M "I B A M"
_symmetry_group_IT_number 72
_symmetry_cell_setting 'orthorhombic'
loop_
_space_group_symop_operation_xyz
x,y,z
-x,-y,z
x,-y,1/2-z
-x,y,1/2-z
-x,-y,-z
x,y,-z
-x,y,1/2+z
x,-y,1/2+z
1/2+x,1/2+y,1/2+z
1/2-x,1/2-y,1/2+z
1/2+x,1/2-y,-z
1/2-x,1/2+y,-z
1/2-x,1/2-y,1/2-z
1/2+x,1/2+y,1/2-z
1/2-x,1/2+y,z
1/2+x,1/2-y,z
loop_
_atom_site_type_symbol
_atom_site_label
_atom_site_fract_x
_atom_site_fract_y
_atom_site_fract_z
Si Si1 0.197100 0.742282 0.783005
Si Si2 0.042339 0.226706 0.609364
Si Si3 0.686740 0.467278 0.358017
Si Si4 0.081442 0.020155 0.101521
Si Si5 0.438443 0.745340 0.811637
Si Si6 0.292241 0.965879 0.601571
Si Si7 0.151292 0.693937 0.603052
O O1 0.250000 0.750000 0.750000
O O2 0.188618 0.834269 0.860145
O O3 0.190896 0.620012 0.821842
O O4 0.168381 0.765875 0.689665
O O5 0.050400 0.259843 0.500000
O O6 0.054395 0.095516 0.612309
O O7 0.068966 0.273637 0.701847
O O8 0.989841 0.253549 0.643568
O O9 0.686134 0.500000 0.250000
O O10 0.637070 0.500315 0.399047
O O11 0.736429 0.513059 0.393028
O O12 0.071756 0.114463 0.176253
O O13 0.067280 0.066159 0.000000
O O14 0.403207 0.815614 0.874965
O O15 0.302396 0.917875 0.500000
O O16 0.319333 0.081452 0.608410
O O17 0.158765 0.741259 0.500000
#
# Coordination Sequence:
#
# PCOD9527894 Si02
#       7
#    16  16  16  16  16  16  16
#     4  12  23  41  64  87 128 172 214 273 327 386
#     4  10  21  38  59  91 133 172 216 271 339 409
#     4  12  22  38  59  89 128 172 220 267 322 384
#     4  11  22  34  54  89 131 172 219 271 332 408
#     4  11  22  38  63  92 130 177 215 270 337 405
#     4  11  25  42  62  91 129 174 223 271 323 387
#     4  11  23  41  63  92 126 169 224 273 324 395
#
# _framework density 22.486602999999999
#
# number of rings (size 3 to 8) (size 9 to 14) (size 15 to 20)
#    0.000    0.857    2.857    5.571    0.000    4.000 
#    0.000    0.714    0.000    0.857    0.000   17.000 
#    0.000   50.286    0.000    0.000    0.000    0.000 
#
# Total GULP energy -312729.785916 kJ/mol
# GULP energy per Si atom -5584.460463 kJ/mol
# Density = 2.243542 g / cm^3
# Si number density = 22.486603 Si / 1000 Ang^3
#
#
#
# Elastic Constant Matrix: (Units=GPa)
#
#
# Indices 1 2 3 4 5 6 
#
# 1 70.2507 -5.2159 10.6367 0.0000 0.0000 0.0000
# 2 -5.2159 30.0851 3.3465 0.0000 0.0000 0.0000
# 3 10.6367 3.3465 154.8005 0.0000 0.0000 0.0000
# 4 0.0000 0.0000 0.0000 11.6397 0.0000 0.0000
# 5 0.0000 0.0000 0.0000 0.0000 26.8858 0.0000
# 6 0.0000 0.0000 0.0000 0.0000 0.0000 18.8031
#
#
#
# Elastic Compliance Matrix: (Units=1/GPa)
#
#
# Indices 1 2 3 4 5 6 
#
# 1 0.014592 0.002648 -0.001060 0.000000 0.000000 0.000000
# 2 0.002648 0.033800 -0.000913 0.000000 0.000000 0.000000
# 3 -0.001060 -0.000913 0.006552 0.000000 0.000000 0.000000
# 4 0.000000 0.000000 0.000000 0.085913 0.000000 0.000000
# 5 0.000000 0.000000 0.000000 0.000000 0.037194 0.000000
# 6 0.000000 0.000000 0.000000 0.000000 0.000000 0.053183
#
#
# Mechanical properties :
#
#
# Convention : Reuss Voigt Hill
#
# Bulk Modulus (GPa) = 17.76379 30.29677 24.03028
# Shear Modulus (GPa) = 20.10871 27.89031 23.99951
#
# Velocity S-wave (km/s) = 2.99365 3.52562 3.27047
# Velocity P-wave (km/s) = 4.45714 5.48414 4.99710
#
# Compressibility (1/GPa) = 0.05629431
#
# Stress axis : x y z
#
# Youngs Moduli (GPa) = 68.53167 29.58614 152.61390
#
# Poissons Ratio (x) = -0.07834 0.16175
# Poissons Ratio (y) = -0.18145 0.13928
# Poissons Ratio (z) = 0.07264 0.02700
#
# Static dielectric constant tensor:
#      x y z
#    x 1.907770 0.000000 0.000000 
#    y 0.000000 1.832540 0.000000 
#    z 0.000000 0.000000 1.833470 
# 
# From -- ./inp_files/26401.got.cif
#   From: 2010.05.17/outbox.cif.g08.bks.cpg/sg72_14_cif.got.tgz:26401.got - 2010.06.03 17:03:01.
