data_PCOD9527385
_publ_section_title
;
Structure prediction by ZEFSAII (Michael W. Deem and Ramdas Pophale) SiO2 
 PCOD9527385
Probable space group: I B A M
;
_chemical_formula_sum "Si O2"
_cell_formula_units_Z 104
_cell_length_a 29.023025
_cell_length_b 7.286922
_cell_length_c 20.027963
_cell_angle_alpha 90.000000
_cell_angle_beta 90.000000
_cell_angle_gamma 90.000000
_cell_volume 4235.684241
_symmetry_space_group_name_H-M "I B A M"
_symmetry_group_IT_number 72
_symmetry_cell_setting 'orthorhombic'
loop_
_space_group_symop_operation_xyz
x,y,z
-x,-y,z
x,-y,1/2-z
-x,y,1/2-z
-x,-y,-z
x,y,-z
-x,y,1/2+z
x,-y,1/2+z
1/2+x,1/2+y,1/2+z
1/2-x,1/2-y,1/2+z
1/2+x,1/2-y,-z
1/2-x,1/2+y,-z
1/2-x,1/2-y,1/2-z
1/2+x,1/2+y,1/2-z
1/2-x,1/2+y,z
1/2+x,1/2-y,z
loop_
_atom_site_type_symbol
_atom_site_label
_atom_site_fract_x
_atom_site_fract_y
_atom_site_fract_z
Si Si1 0.153262 0.165707 0.000000
Si Si2 0.084525 0.249875 0.111214
Si Si3 0.416368 0.171352 0.072817
Si Si4 0.280955 0.621762 0.120939
Si Si5 0.819669 0.287314 0.128594
Si Si6 0.654324 0.286386 0.229990
Si Si7 0.992585 0.723029 0.673321
O O1 0.114132 0.134226 0.059192
O O2 0.192364 0.203894 0.058186
O O3 0.079848 0.450828 0.078526
O O4 0.113675 0.268418 0.179763
O O5 0.033636 0.189226 0.130500
O O6 0.361807 0.201741 0.078351
O O7 0.444288 0.252838 0.135577
O O8 0.434019 0.228698 0.000000
O O9 0.226486 0.603933 0.112694
O O10 0.301039 0.418573 0.127934
O O11 0.298016 0.721737 0.188204
O O12 0.840056 0.325263 0.201915
O O13 0.645885 0.500000 0.250000
O O14 0.000000 0.500000 0.672538
O O15 0.000000 0.779276 0.750000
#
# Coordination Sequence:
#
# PCOD9527385 Si02
#       7
#     8  16  16  16  16  16  16
#     4  10  22  38  59  87 122 168 218 254 319 382
#     4  10  20  38  67  93 129 170 212 265 320 400
#     4  11  24  37  60  99 137 170 215 272 331 384
#     4  10  24  39  63  88 124 170 218 272 319 391
#     4  11  24  41  63  89 130 169 216 272 325 382
#     4   9  20  41  62  94 124 164 215 274 326 381
#     4   9  19  36  62  96 130 167 210 269 328 384
#
# _framework density 24.553293
#
# number of rings (size 3 to 8) (size 9 to 14) (size 15 to 20)
#    0.000    2.000    0.769    1.385    7.538    2.769 
#    0.000    0.000    0.000   18.000    0.000    0.000 
#    0.000    0.000    0.000    0.000    0.000    0.000 
#
# Total GULP energy -289932.981012 kJ/mol
# GULP energy per Si atom -5575.634250 kJ/mol
# Density = 2.449741 g / cm^3
# Si number density = 24.553293 Si / 1000 Ang^3
#
#
#
# Elastic Constant Matrix: (Units=GPa)
#
#
# Indices 1 2 3 4 5 6 
#
# 1 165.8514 -0.3743 63.5835 0.0000 0.0000 0.0000
# 2 -0.3743 38.5807 2.8570 0.0000 0.0000 0.0000
# 3 63.5835 2.8570 167.2802 0.0000 0.0000 0.0000
# 4 0.0000 0.0000 0.0000 -15.3572 0.0000 0.0000
# 5 0.0000 0.0000 0.0000 0.0000 27.5175 0.0000
# 6 0.0000 0.0000 0.0000 0.0000 0.0000 11.4460
#
#
#
# Elastic Compliance Matrix: (Units=1/GPa)
#
#
# Indices 1 2 3 4 5 6 
#
# 1 0.007061 0.000268 -0.002688 0.000000 0.000000 0.000000
# 2 0.000268 0.025963 -0.000545 0.000000 0.000000 0.000000
# 3 -0.002688 -0.000545 0.007009 0.000000 0.000000 0.000000
# 4 0.000000 0.000000 0.000000 -0.065116 0.000000 0.000000
# 5 0.000000 0.000000 0.000000 0.000000 0.036341 0.000000
# 6 0.000000 0.000000 0.000000 0.000000 0.000000 0.087367
#
#
# Mechanical properties :
#
#
# Convention : Reuss Voigt Hill
#
# Bulk Modulus (GPa) = 29.32489 55.98272 42.65380
# Shear Modulus (GPa) = 43.13217 25.09767 34.11492
#
# Velocity S-wave (km/s) = 4.19582 3.20061 3.73154
# Velocity P-wave (km/s) = 5.95336 6.04223 5.99796
#
# Compressibility (1/GPa) = 0.03410073
#
# Stress axis : x y z
#
# Youngs Moduli (GPa) = 141.62786 38.51689 142.67043
#
# Poissons Ratio (x) = -0.01031 0.38355
# Poissons Ratio (y) = -0.03790 0.07777
# Poissons Ratio (z) = 0.38075 0.02100
#
# Static dielectric constant tensor:
#      x y z
#    x 1.915480 0.000000 0.000000 
#    y 0.000000 2.030820 0.000000 
#    z 0.000000 0.000000 1.931380 
# 
# From -- ./inp_files/40776.got.cif
#   From: 2010.05.17/outbox.cif.g08.bks.cpg/sg72_21_cif.got.tgz:40776.got - 2010.06.03 17:03:01.
