data_PCOD9527551
_publ_section_title
;
Structure prediction by ZEFSAII (Michael W. Deem and Ramdas Pophale) SiO2 
 PCOD9527551
Probable space group: I B A M
;
_chemical_formula_sum "Si O2"
_cell_formula_units_Z 128
_cell_length_a 12.285442
_cell_length_b 23.571038
_cell_length_c 21.340428
_cell_angle_alpha 90.000000
_cell_angle_beta 90.000000
_cell_angle_gamma 90.000000
_cell_volume 6179.774376
_symmetry_space_group_name_H-M "I B A M"
_symmetry_group_IT_number 72
_symmetry_cell_setting 'orthorhombic'
loop_
_space_group_symop_operation_xyz
x,y,z
-x,-y,z
x,-y,1/2-z
-x,y,1/2-z
-x,-y,-z
x,y,-z
-x,y,1/2+z
x,-y,1/2+z
1/2+x,1/2+y,1/2+z
1/2-x,1/2-y,1/2+z
1/2+x,1/2-y,-z
1/2-x,1/2+y,-z
1/2-x,1/2-y,1/2-z
1/2+x,1/2+y,1/2-z
1/2-x,1/2+y,z
1/2+x,1/2-y,z
loop_
_atom_site_type_symbol
_atom_site_label
_atom_site_fract_x
_atom_site_fract_y
_atom_site_fract_z
Si Si1 0.384113 0.520901 0.424193
Si Si2 0.425315 0.699225 0.848420
Si Si3 0.755530 0.319222 0.754047
Si Si4 0.768728 0.740385 0.570633
Si Si5 0.335701 0.015316 0.924739
Si Si6 0.047679 0.310402 0.336644
Si Si7 0.470808 0.096286 0.575709
Si Si8 0.842828 0.853816 0.622930
O O1 0.500000 0.500000 0.400520
O O2 0.388308 0.521244 0.500000
O O3 0.287203 0.479602 0.402990
O O4 0.348875 0.583102 0.402713
O O5 0.342884 0.667475 0.802011
O O6 0.348798 0.720511 0.905092
O O7 0.475912 0.756173 0.818171
O O8 0.530978 0.664235 0.867919
O O9 0.750000 0.250000 0.750000
O O10 0.874790 0.334623 0.781423
O O11 0.721789 0.345771 0.688064
O O12 0.786252 0.721911 0.500000
O O13 0.860473 0.713263 0.615099
O O14 0.786238 0.807945 0.577359
O O15 0.387331 0.954312 0.907974
O O16 0.412861 0.067169 0.909192
O O17 0.336459 0.014129 0.000000
O O18 0.970433 0.351409 0.377116
O O19 0.463270 0.108521 0.500000
#
# Coordination Sequence:
#
# PCOD9527551 Si02
#       8
#    16  16  16  16  16  16  16  16
#     4  10  22  39  59  86 118 157 201 243 298 359
#     4  10  21  35  55  81 115 155 190 236 290 356
#     4  11  20  38  56  79 110 151 202 241 284 346
#     4  10  21  34  50  82 120 151 185 235 298 355
#     4   8  17  34  56  81 115 150 186 234 289 356
#     4  10  21  33  55  82 114 150 192 237 290 355
#     4   9  17  32  56  86 114 147 187 238 302 355
#     4  11  22  37  59  81 116 155 201 246 286 349
#
# _framework density 20.712730000000001
#
# number of rings (size 3 to 8) (size 9 to 14) (size 15 to 20)
#    0.000    2.125    3.750    1.875    1.750    5.000 
#    0.000    1.250    0.000    5.250    0.000    1.750 
#    0.000    0.000    0.000    0.000    0.000    0.000 
#
# Total GULP energy -357204.044543 kJ/mol
# GULP energy per Si atom -5581.313196 kJ/mol
# Density = 2.066559 g / cm^3
# Si number density = 20.712730 Si / 1000 Ang^3
#
#
#
# Elastic Constant Matrix: (Units=GPa)
#
#
# Indices 1 2 3 4 5 6 
#
# 1 90.3652 -7.8503 11.2553 0.0000 0.0000 0.0000
# 2 -7.8503 22.6157 -8.8612 0.0000 0.0000 0.0000
# 3 11.2553 -8.8612 51.3312 0.0000 0.0000 0.0000
# 4 0.0000 0.0000 0.0000 20.1011 0.0000 0.0000
# 5 0.0000 0.0000 0.0000 0.0000 21.1252 0.0000
# 6 0.0000 0.0000 0.0000 0.0000 0.0000 15.2477
#
#
#
# Elastic Compliance Matrix: (Units=1/GPa)
#
#
# Indices 1 2 3 4 5 6 
#
# 1 0.011595 0.003248 -0.001982 0.000000 0.000000 0.000000
# 2 0.003248 0.048335 0.007632 0.000000 0.000000 0.000000
# 3 -0.001982 0.007632 0.021233 0.000000 0.000000 0.000000
# 4 0.000000 0.000000 0.000000 0.049749 0.000000 0.000000
# 5 0.000000 0.000000 0.000000 0.000000 0.047337 0.000000
# 6 0.000000 0.000000 0.000000 0.000000 0.000000 0.065584
#
#
# Mechanical properties :
#
#
# Convention : Reuss Voigt Hill
#
# Bulk Modulus (GPa) = 10.10506 17.04441 13.57474
# Shear Modulus (GPa) = 19.30336 22.61269 20.95803
#
# Velocity S-wave (km/s) = 3.05611 3.30772 3.18440
# Velocity P-wave (km/s) = 4.16441 4.77858 4.48203
#
# Compressibility (1/GPa) = 0.09896031
#
# Stress axis : x y z
#
# Youngs Moduli (GPa) = 86.24231 20.68896 47.09587
#
# Poissons Ratio (x) = -0.06721 0.09333
# Poissons Ratio (y) = -0.28016 -0.35942
# Poissons Ratio (z) = 0.17091 -0.15789
#
# Static dielectric constant tensor:
#      x y z
#    x 1.805830 0.000000 0.000000 
#    y 0.000000 1.762340 0.000000 
#    z 0.000000 0.000000 1.748090 
# 
# From -- ./inp_files/43712.got.cif
#   From: 2010.05.17/outbox.cif.g08.bks.cpg/sg72_22_cif.got.tgz:43712.got - 2010.06.03 17:03:01.
