data_PCOD9527359
_publ_section_title
;
Structure prediction by ZEFSAII (Michael W. Deem and Ramdas Pophale) SiO2 
 PCOD9527359
Probable space group: I B A M
;
_chemical_formula_sum "Si O2"
_cell_formula_units_Z 44
_cell_length_a 12.409722
_cell_length_b 5.751360
_cell_length_c 25.827951
_cell_angle_alpha 90.000000
_cell_angle_beta 90.000000
_cell_angle_gamma 90.000000
_cell_volume 1843.412632
_symmetry_space_group_name_H-M "I B A M"
_symmetry_group_IT_number 72
_symmetry_cell_setting 'orthorhombic'
loop_
_space_group_symop_operation_xyz
x,y,z
-x,-y,z
x,-y,1/2-z
-x,y,1/2-z
-x,-y,-z
x,y,-z
-x,y,1/2+z
x,-y,1/2+z
1/2+x,1/2+y,1/2+z
1/2-x,1/2-y,1/2+z
1/2+x,1/2-y,-z
1/2-x,1/2+y,-z
1/2-x,1/2-y,1/2-z
1/2+x,1/2+y,1/2-z
1/2-x,1/2+y,z
1/2+x,1/2-y,z
loop_
_atom_site_type_symbol
_atom_site_label
_atom_site_fract_x
_atom_site_fract_y
_atom_site_fract_z
Si Si1 0.128436 0.864645 0.616226
Si Si2 0.122362 0.637392 0.844424
Si Si3 0.811914 0.814230 0.000000
Si Si4 0.500000 0.000000 0.250000
O O1 0.086733 0.623772 0.639982
O O2 0.250227 0.873594 0.640862
O O3 0.128113 0.827691 0.554558
O O4 0.088456 0.125399 0.627122
O O5 0.081499 0.652405 0.785242
O O6 0.757068 0.556639 0.000000
#
# Coordination Sequence:
#
# PCOD9527359 Si02
#       4
#    16  16   8   4
#     4  10  20  38  64  91 118 144 202 244 296 350
#     4  10  22  38  58  87 117 158 199 251 279 356
#     4  12  16  32  68 100 112 148 182 256 300 352
#     4  12  28  42  60  80 124 172 204 238 308 324
#
# _framework density 23.868773999999998
#
# number of rings (size 3 to 8) (size 9 to 14) (size 15 to 20)
#    0.000    1.455    7.273    0.000    0.000   10.182 
#    0.000    0.000    0.000   12.000    0.000    0.000 
#    0.000    0.000    0.000    0.000    0.000    0.000 
#
# Total GULP energy -122555.562122 kJ/mol
# GULP energy per Si atom -5570.707369 kJ/mol
# Density = 2.381445 g / cm^3
# Si number density = 23.868774 Si / 1000 Ang^3
#
#
#
# Elastic Constant Matrix: (Units=GPa)
#
#
# Indices 1 2 3 4 5 6 
#
# 1 50.3190 48.0351 7.2001 0.0000 0.0000 0.0000
# 2 48.0351 217.0023 3.7549 0.0000 0.0000 0.0000
# 3 7.2001 3.7549 135.5218 0.0000 0.0000 0.0000
# 4 0.0000 0.0000 0.0000 67.6821 0.0000 0.0000
# 5 0.0000 0.0000 0.0000 0.0000 43.1432 0.0000
# 6 0.0000 0.0000 0.0000 0.0000 0.0000 106.3527
#
#
#
# Elastic Compliance Matrix: (Units=1/GPa)
#
#
# Indices 1 2 3 4 5 6 
#
# 1 0.025389 -0.005599 -0.001194 0.000000 0.000000 0.000000
# 2 -0.005599 0.005845 0.000136 0.000000 0.000000 0.000000
# 3 -0.001194 0.000136 0.007439 0.000000 0.000000 0.000000
# 4 0.000000 0.000000 0.000000 0.014775 0.000000 0.000000
# 5 0.000000 0.000000 0.000000 0.000000 0.023179 0.000000
# 6 0.000000 0.000000 0.000000 0.000000 0.000000 0.009403
#
#
# Mechanical properties :
#
#
# Convention : Reuss Voigt Hill
#
# Bulk Modulus (GPa) = 39.43546 57.86924 48.65235
# Shear Modulus (GPa) = 46.38328 66.35914 56.37121
#
# Velocity S-wave (km/s) = 4.41303 5.27845 4.86502
# Velocity P-wave (km/s) = 6.52105 7.83880 7.21009
#
# Compressibility (1/GPa) = 0.02535789
#
# Stress axis : x y z
#
# Youngs Moduli (GPa) = 39.38666 171.07521 134.43470
#
# Poissons Ratio (x) = 0.95793 0.16048
# Poissons Ratio (y) = 0.22054 -0.01822
# Poissons Ratio (z) = 0.04702 -0.02319
#
# Static dielectric constant tensor:
#      x y z
#    x 1.964330 0.000000 0.000000 
#    y 0.000000 1.979790 0.000000 
#    z 0.000000 0.000000 1.883760 
# 
# From -- ./inp_files/41226.got.cif
#   From: 2010.05.17/outbox.cif.g08.bks.cpg/sg72_21_cif.got.tgz:41226.got - 2010.06.03 17:03:01.
