data_PCOD9527892
_publ_section_title
;
Structure prediction by ZEFSAII (Michael W. Deem and Ramdas Pophale) SiO2 
 PCOD9527892
Probable space group: I B A M
;
_chemical_formula_sum "Si O2"
_cell_formula_units_Z 80
_cell_length_a 8.995800
_cell_length_b 27.720373
_cell_length_c 14.137310
_cell_angle_alpha 90.000000
_cell_angle_beta 90.000000
_cell_angle_gamma 90.000000
_cell_volume 3525.377613
_symmetry_space_group_name_H-M "I B A M"
_symmetry_group_IT_number 72
_symmetry_cell_setting 'orthorhombic'
loop_
_space_group_symop_operation_xyz
x,y,z
-x,-y,z
x,-y,1/2-z
-x,y,1/2-z
-x,-y,-z
x,y,-z
-x,y,1/2+z
x,-y,1/2+z
1/2+x,1/2+y,1/2+z
1/2-x,1/2-y,1/2+z
1/2+x,1/2-y,-z
1/2-x,1/2+y,-z
1/2-x,1/2-y,1/2-z
1/2+x,1/2+y,1/2-z
1/2-x,1/2+y,z
1/2+x,1/2-y,z
loop_
_atom_site_type_symbol
_atom_site_label
_atom_site_fract_x
_atom_site_fract_y
_atom_site_fract_z
Si Si1 0.061466 0.049624 0.143552
Si Si2 0.655705 0.631754 0.106813
Si Si3 0.364832 0.814212 0.614069
Si Si4 0.847087 0.587258 0.722403
Si Si5 0.537278 0.721221 0.614416
O O1 0.236496 0.055376 0.158438
O O2 0.000000 0.050172 0.250000
O O3 0.988199 0.096814 0.099403
O O4 0.000000 0.000000 0.101640
O O5 0.762707 0.606639 0.183127
O O6 0.588472 0.682372 0.142798
O O7 0.718977 0.637382 0.000000
O O8 0.365879 0.819105 0.500000
O O9 0.386913 0.865241 0.662575
O O10 0.488144 0.774771 0.640994
O O11 0.202221 0.794061 0.642715
O O12 0.000000 0.562200 0.750000
O O13 0.535553 0.719483 0.500000
#
# Coordination Sequence:
#
# PCOD9527892 Si02
#       5
#    16  16  16  16  16
#     4   9  19  40  66  88 116 158 209 258 319 385
#     4  10  21  40  61  87 125 167 214 262 309 377
#     4  10  21  38  59  88 129 176 215 258 311 366
#     4  11  24  39  60  97 129 162 206 263 324 376
#     4   9  19  35  57  85 123 168 212 257 303 359
#
# _framework density 22.692603999999999
#
# number of rings (size 3 to 8) (size 9 to 14) (size 15 to 20)
#    0.000    2.200    2.000    0.000    2.800    2.000 
#    0.000    8.000    0.000    1.200    0.000    0.000 
#    0.000    0.000    0.000    0.000    0.000    0.000 
#
# Total GULP energy -223568.405418 kJ/mol
# GULP energy per Si atom -5589.210135 kJ/mol
# Density = 2.264095 g / cm^3
# Si number density = 22.692604 Si / 1000 Ang^3
#
#
#
# Elastic Constant Matrix: (Units=GPa)
#
#
# Indices 1 2 3 4 5 6 
#
# 1 107.9660 25.0885 3.4566 -0.0001 0.0000 0.0000
# 2 25.0885 92.1351 5.0071 0.0000 0.0000 0.0000
# 3 3.4566 5.0071 92.2937 -0.0003 0.0000 -0.0001
# 4 -0.0001 0.0000 -0.0003 17.8103 0.0000 0.0000
# 5 0.0000 0.0000 0.0000 0.0000 14.1242 0.0000
# 6 0.0000 0.0000 -0.0001 0.0000 0.0000 24.8980
#
#
#
# Elastic Compliance Matrix: (Units=1/GPa)
#
#
# Indices 1 2 3 4 5 6 
#
# 1 0.009892 -0.002682 -0.000225 0.000000 0.000000 0.000000
# 2 -0.002682 0.011613 -0.000530 0.000000 0.000000 0.000000
# 3 -0.000225 -0.000530 0.010872 0.000000 0.000000 0.000000
# 4 0.000000 0.000000 0.000000 0.056147 0.000000 0.000000
# 5 0.000000 0.000000 0.000000 0.000000 0.070800 0.000000
# 6 0.000000 0.000000 0.000000 0.000000 0.000000 0.040164
#
#
# Mechanical properties :
#
#
# Convention : Reuss Voigt Hill
#
# Bulk Modulus (GPa) = 39.20799 39.94436 39.57618
# Shear Modulus (GPa) = 23.27067 28.62267 25.94667
#
# Velocity S-wave (km/s) = 3.20578 3.55536 3.38508
# Velocity P-wave (km/s) = 5.56938 5.87322 5.72332
#
# Compressibility (1/GPa) = 0.02550500
#
# Stress axis : x y z
#
# Youngs Moduli (GPa) = 101.08672 86.11348 91.97826
#
# Poissons Ratio (x) = 0.23091 0.02070
# Poissons Ratio (y) = 0.27107 0.04871
# Poissons Ratio (z) = 0.02275 0.04560
#
# Static dielectric constant tensor:
#      x y z
#    x 1.871190 0.000000 0.000000 
#    y 0.000000 1.859290 0.000000 
#    z 0.000000 0.000000 1.870190 
# 
# From -- ./inp_files/28314.got.cif
#   From: 2010.05.17/outbox.cif.g08.bks.cpg/sg72_15_cif.got.tgz:28314.got - 2010.06.03 17:03:01.
