data_PCOD9527055
_publ_section_title
;
Structure prediction by ZEFSAII (Michael W. Deem and Ramdas Pophale) SiO2 
 PCOD9527055
Probable space group: I B A M
;
_chemical_formula_sum "Si O2"
_cell_formula_units_Z 68
_cell_length_a 5.092824
_cell_length_b 38.534621
_cell_length_c 19.175853
_cell_angle_alpha 90.000000
_cell_angle_beta 90.000000
_cell_angle_gamma 90.000000
_cell_volume 3763.261969
_symmetry_space_group_name_H-M "I B A M"
_symmetry_group_IT_number 72
_symmetry_cell_setting 'orthorhombic'
loop_
_space_group_symop_operation_xyz
x,y,z
-x,-y,z
x,-y,1/2-z
-x,y,1/2-z
-x,-y,-z
x,y,-z
-x,y,1/2+z
x,-y,1/2+z
1/2+x,1/2+y,1/2+z
1/2-x,1/2-y,1/2+z
1/2+x,1/2-y,-z
1/2-x,1/2+y,-z
1/2-x,1/2-y,1/2-z
1/2+x,1/2+y,1/2-z
1/2-x,1/2+y,z
1/2+x,1/2-y,z
loop_
_atom_site_type_symbol
_atom_site_label
_atom_site_fract_x
_atom_site_fract_y
_atom_site_fract_z
Si Si1 0.761074 0.665191 0.580450
Si Si2 0.000000 0.000000 0.250000
Si Si3 0.771378 0.881611 0.579943
Si Si4 0.260733 0.432344 0.794775
Si Si5 0.007126 0.728950 0.833686
O O1 0.662809 0.391028 0.500000
O O2 0.489458 0.646884 0.602425
O O3 0.987239 0.636125 0.580983
O O4 0.871967 0.695753 0.628409
O O5 0.173875 0.973497 0.204526
O O6 0.229361 0.822558 0.500000
O O7 0.762174 0.914105 0.631186
O O8 0.500000 0.416701 0.750000
O O9 0.000000 0.426895 0.750000
O O10 0.710729 0.739960 0.852114
O O11 0.000000 0.723980 0.750000
#
# Coordination Sequence:
#
# PCOD9527055 Si02
#       5
#    16   4  16  16  16
#     4  10  21  36  55  80 111 145 186 233 282 332
#     4   8  22  36  60  84 118 144 180 232 266 320
#     4  10  21  37  56  83 116 146 184 237 281 328
#     4  10  20  36  59  84 112 148 185 222 276 326
#     4  10  21  36  53  76 108 144 184 233 278 328
#
# _framework density 18.069431000000002
#
# number of rings (size 3 to 8) (size 9 to 14) (size 15 to 20)
#    0.706    1.412    0.000    3.176    0.000    3.765 
#    0.000    0.588    0.000    1.412    0.000    0.000 
#    0.000    0.000    0.000    0.000    0.000    0.000 
#
# Total GULP energy -189447.503518 kJ/mol
# GULP energy per Si atom -5571.985398 kJ/mol
# Density = 1.802830 g / cm^3
# Si number density = 18.069431 Si / 1000 Ang^3
#
#
#
# Elastic Constant Matrix: (Units=GPa)
#
#
# Indices 1 2 3 4 5 6 
#
# 1 87.0018 -1.2146 9.1594 0.0000 0.0000 0.0000
# 2 -1.2146 72.5476 47.8155 0.0000 0.0000 0.0000
# 3 9.1594 47.8155 61.1101 0.0000 0.0000 0.0000
# 4 0.0000 0.0000 0.0000 -128.1229 0.0000 0.0000
# 5 0.0000 0.0000 0.0000 0.0000 19.8078 0.0000
# 6 0.0000 0.0000 0.0000 0.0000 0.0000 53.7044
#
#
#
# Elastic Compliance Matrix: (Units=1/GPa)
#
#
# Indices 1 2 3 4 5 6 
#
# 1 0.011957 0.002852 -0.004024 0.000000 0.000000 0.000000
# 2 0.002852 0.029143 -0.023230 0.000000 0.000000 0.000000
# 3 -0.004024 -0.023230 0.035143 0.000000 0.000000 0.000000
# 4 0.000000 0.000000 0.000000 -0.007805 0.000000 0.000000
# 5 0.000000 0.000000 0.000000 0.000000 0.050485 0.000000
# 6 0.000000 0.000000 0.000000 0.000000 0.000000 0.018620
#
#
# Mechanical properties :
#
#
# Convention : Reuss Voigt Hill
#
# Bulk Modulus (GPa) = 36.44322 36.90889 36.67605
# Shear Modulus (GPa) = 25.57620 0.07114 12.82367
#
# Velocity S-wave (km/s) = 3.76632 0.19864 2.66689
# Velocity P-wave (km/s) = 6.25506 4.53024 5.46117
#
# Compressibility (1/GPa) = 0.02743995
#
# Stress axis : x y z
#
# Youngs Moduli (GPa) = 83.62963 34.31406 28.45484
#
# Poissons Ratio (x) = -0.09788 0.11451
# Poissons Ratio (y) = -0.23855 0.66101
# Poissons Ratio (z) = 0.33654 0.79712
#
# Static dielectric constant tensor:
#      x y z
#    x 1.629350 0.000000 0.000000 
#    y 0.000000 1.605900 0.000000 
#    z 0.000000 0.000000 1.632820 
# 
# From -- ./inp_files/34839.got.cif
#   From: 2010.05.17/outbox.cif.g08.bks.cpg/sg72_18_cif.got.tgz:34839.got - 2010.06.03 17:03:01.
