data_PCOD9527360
_publ_section_title
;
Structure prediction by ZEFSAII (Michael W. Deem and Ramdas Pophale) SiO2 
 PCOD9527360
Probable space group: I B A M
;
_chemical_formula_sum "Si O2"
_cell_formula_units_Z 80
_cell_length_a 25.673615
_cell_length_b 8.985756
_cell_length_c 16.055904
_cell_angle_alpha 90.000000
_cell_angle_beta 90.000000
_cell_angle_gamma 90.000000
_cell_volume 3704.046317
_symmetry_space_group_name_H-M "I B A M"
_symmetry_group_IT_number 72
_symmetry_cell_setting 'orthorhombic'
loop_
_space_group_symop_operation_xyz
x,y,z
-x,-y,z
x,-y,1/2-z
-x,y,1/2-z
-x,-y,-z
x,y,-z
-x,y,1/2+z
x,-y,1/2+z
1/2+x,1/2+y,1/2+z
1/2-x,1/2-y,1/2+z
1/2+x,1/2-y,-z
1/2-x,1/2+y,-z
1/2-x,1/2-y,1/2-z
1/2+x,1/2+y,1/2-z
1/2-x,1/2+y,z
1/2+x,1/2-y,z
loop_
_atom_site_type_symbol
_atom_site_label
_atom_site_fract_x
_atom_site_fract_y
_atom_site_fract_z
Si Si1 0.989071 0.831391 0.151608
Si Si2 0.122105 0.103135 0.100975
Si Si3 0.903568 0.234400 0.901358
Si Si4 0.812251 0.573963 0.404863
Si Si5 0.725201 0.234920 0.159445
O O1 0.929380 0.804399 0.128112
O O2 0.000000 0.830235 0.250000
O O3 0.035686 0.735934 0.113472
O O4 0.000000 0.000000 0.119609
O O5 0.173645 0.167866 0.142849
O O6 0.111886 0.931674 0.128980
O O7 0.126690 0.107496 0.000000
O O8 0.864984 0.358680 0.866757
O O9 0.894108 0.230768 0.000000
O O10 0.821264 0.524915 0.500000
O O11 0.750000 0.750000 0.250000
O O12 0.769899 0.705398 0.402127
O O13 0.789518 0.434743 0.356664
#
# Coordination Sequence:
#
# PCOD9527360 Si02
#       5
#    16  16  16  16  16
#     4   9  18  33  58  93 130 163 209 263 319 382
#     4  10  20  38  64  91 127 172 218 263 323 394
#     4   9  19  36  63  94 125 164 213 264 317 384
#     4  11  23  42  65  89 125 167 214 264 324 395
#     4  12  26  42  62  92 126 165 215 271 325 383
#
# _framework density 21.598002000000001
#
# number of rings (size 3 to 8) (size 9 to 14) (size 15 to 20)
#    0.000    1.800    0.000    4.200    2.800    4.000 
#    3.600    1.000    0.000    4.800    0.000    0.000 
#    0.000    0.000    0.000    0.000    0.000    0.000 
#
# Total GULP energy -223499.678876 kJ/mol
# GULP energy per Si atom -5587.491972 kJ/mol
# Density = 2.154884 g / cm^3
# Si number density = 21.598002 Si / 1000 Ang^3
#
#
#
# Elastic Constant Matrix: (Units=GPa)
#
#
# Indices 1 2 3 4 5 6 
#
# 1 124.3265 18.7239 35.9817 0.0000 0.0000 0.0000
# 2 18.7239 63.8005 25.9442 0.0000 0.0000 0.0000
# 3 35.9817 25.9442 73.9272 0.0000 0.0000 0.0000
# 4 0.0000 0.0000 0.0000 23.1663 0.0000 0.0000
# 5 0.0000 0.0000 0.0000 0.0000 33.7977 0.0000
# 6 0.0000 0.0000 0.0000 0.0000 0.0000 33.0545
#
#
#
# Elastic Compliance Matrix: (Units=1/GPa)
#
#
# Indices 1 2 3 4 5 6 
#
# 1 0.009422 -0.001050 -0.004217 0.000000 0.000000 0.000000
# 2 -0.001050 0.018400 -0.005946 0.000000 0.000000 0.000000
# 3 -0.004217 -0.005946 0.017666 0.000000 0.000000 0.000000
# 4 0.000000 0.000000 0.000000 0.043166 0.000000 0.000000
# 5 0.000000 0.000000 0.000000 0.000000 0.029588 0.000000
# 6 0.000000 0.000000 0.000000 0.000000 0.000000 0.030253
#
#
# Mechanical properties :
#
#
# Convention : Reuss Voigt Hill
#
# Bulk Modulus (GPa) = 43.36346 47.03932 45.20139
# Shear Modulus (GPa) = 27.99399 30.09734 29.04567
#
# Velocity S-wave (km/s) = 3.60410 3.73704 3.67117
# Velocity P-wave (km/s) = 6.11886 6.35983 6.24051
#
# Compressibility (1/GPa) = 0.02306089
#
# Stress axis : x y z
#
# Youngs Moduli (GPa) = 106.13399 54.34765 56.60506
#
# Poissons Ratio (x) = 0.05707 0.23872
# Poissons Ratio (y) = 0.11146 0.33659
# Poissons Ratio (z) = 0.44760 0.32316
#
# Static dielectric constant tensor:
#      x y z
#    x 1.808760 0.000000 0.000000 
#    y 0.000000 1.794830 0.000000 
#    z 0.000000 0.000000 1.828910 
# 
# From -- ./inp_files/23417.got.cif
#   From: 2010.05.17/outbox.cif.g08.bks.cpg/sg72_12_cif.got.tgz:23417.got - 2010.06.03 17:03:01.
