data_PCOD9527153
_publ_section_title
;
Structure prediction by ZEFSAII (Michael W. Deem and Ramdas Pophale) SiO2 
 PCOD9527153
Probable space group: I B A M
;
_chemical_formula_sum "Si O2"
_cell_formula_units_Z 104
_cell_length_a 28.817706
_cell_length_b 9.559866
_cell_length_c 19.142314
_cell_angle_alpha 90.000000
_cell_angle_beta 90.000000
_cell_angle_gamma 90.000000
_cell_volume 5273.581317
_symmetry_space_group_name_H-M "I B A M"
_symmetry_group_IT_number 72
_symmetry_cell_setting 'orthorhombic'
loop_
_space_group_symop_operation_xyz
x,y,z
-x,-y,z
x,-y,1/2-z
-x,y,1/2-z
-x,-y,-z
x,y,-z
-x,y,1/2+z
x,-y,1/2+z
1/2+x,1/2+y,1/2+z
1/2-x,1/2-y,1/2+z
1/2+x,1/2-y,-z
1/2-x,1/2+y,-z
1/2-x,1/2-y,1/2-z
1/2+x,1/2+y,1/2-z
1/2-x,1/2+y,z
1/2+x,1/2-y,z
loop_
_atom_site_type_symbol
_atom_site_label
_atom_site_fract_x
_atom_site_fract_y
_atom_site_fract_z
Si Si1 0.000000 0.500000 0.371113
Si Si2 0.220916 0.787894 0.320908
Si Si3 0.384635 0.359077 0.705197
Si Si4 0.424244 0.216183 0.578807
Si Si5 0.139085 0.441850 0.576159
Si Si6 0.587817 0.125188 0.296888
Si Si7 0.255603 0.028863 0.581769
O O1 0.971554 0.374697 0.409308
O O2 0.960673 0.572379 0.325564
O O3 0.250000 0.750000 0.250000
O O4 0.166573 0.790145 0.300996
O O5 0.235501 0.677167 0.380850
O O6 0.228456 0.935956 0.360971
O O7 0.380316 0.500000 0.750000
O O8 0.409414 0.342019 0.629979
O O9 0.417127 0.258517 0.750312
O O10 0.423821 0.266805 0.500000
O O11 0.385014 0.093819 0.586608
O O12 0.123676 0.391423 0.500000
O O13 0.121278 0.347003 0.638345
O O14 0.193691 0.458807 0.577409
O O15 0.608374 0.000000 0.250000
O O16 0.238503 0.037792 0.500000
#
# Coordination Sequence:
#
# PCOD9527153 Si02
#       7
#     8  16  16  16  16  16  16
#     4  10  20  36  66 102 119 157 216 274 316 362
#     4  12  24  41  59  88 126 165 212 268 323 380
#     4  12  25  40  59  90 125 172 209 249 320 395
#     4  10  20  38  64  93 127 161 206 260 319 377
#     4   9  18  34  59  88 114 153 206 259 311 361
#     4  11  19  36  62  89 124 159 208 264 310 366
#     4  11  22  38  61  88 118 161 213 265 316 378
#
# _framework density 19.720943999999999
#
# number of rings (size 3 to 8) (size 9 to 14) (size 15 to 20)
#    0.000    1.231    4.615    3.231    0.000    1.231 
#    0.000    2.308    0.000    0.923    0.000    0.000 
#    0.000    0.000    0.000    0.000    0.000    0.000 
#
# Total GULP energy -289697.379521 kJ/mol
# GULP energy per Si atom -5571.103452 kJ/mol
# Density = 1.967606 g / cm^3
# Si number density = 19.720944 Si / 1000 Ang^3
#
#
#
# Elastic Constant Matrix: (Units=GPa)
#
#
# Indices 1 2 3 4 5 6 
#
# 1 46.8481 5.3061 27.4955 0.0000 0.0000 0.0000
# 2 5.3061 54.2125 32.7472 0.0000 0.0000 0.0000
# 3 27.4955 32.7472 156.7571 0.0000 0.0000 0.0000
# 4 0.0000 0.0000 0.0000 23.7375 0.0000 0.0000
# 5 0.0000 0.0000 0.0000 0.0000 1.6002 0.0000
# 6 0.0000 0.0000 0.0000 0.0000 0.0000 9.1570
#
#
#
# Elastic Compliance Matrix: (Units=1/GPa)
#
#
# Indices 1 2 3 4 5 6 
#
# 1 0.023797 0.000220 -0.004220 0.000000 0.000000 0.000000
# 2 0.000220 0.021112 -0.004449 0.000000 0.000000 0.000000
# 3 -0.004220 -0.004449 0.008049 0.000000 0.000000 0.000000
# 4 0.000000 0.000000 0.000000 0.042127 0.000000 0.000000
# 5 0.000000 0.000000 0.000000 0.000000 0.624911 0.000000
# 6 0.000000 0.000000 0.000000 0.000000 0.000000 0.109207
#
#
# Mechanical properties :
#
#
# Convention : Reuss Voigt Hill
#
# Bulk Modulus (GPa) = 27.73152 43.21283 35.47218
# Shear Modulus (GPa) = 5.82668 19.71686 12.77177
#
# Velocity S-wave (km/s) = 1.72075 3.16538 2.54761
# Velocity P-wave (km/s) = 4.24741 5.94300 5.16525
#
# Compressibility (1/GPa) = 0.03606005
#
# Stress axis : x y z
#
# Youngs Moduli (GPa) = 42.02125 47.36693 124.24056
#
# Poissons Ratio (x) = -0.01042 0.52430
# Poissons Ratio (y) = -0.00924 0.55274
# Poissons Ratio (z) = 0.17733 0.21073
#
# Static dielectric constant tensor:
#      x y z
#    x 1.689830 0.000000 0.000000 
#    y 0.000000 1.719470 0.000000 
#    z 0.000000 0.000000 1.814530 
# 
# From -- ./inp_files/41064.got.cif
#   From: 2010.05.17/outbox.cif.g08.bks.cpg/sg72_21_cif.got.tgz:41064.got - 2010.06.03 17:03:01.
