data_PCOD9527270
_publ_section_title
;
Structure prediction by ZEFSAII (Michael W. Deem and Ramdas Pophale) SiO2 
 PCOD9527270
Probable space group: I B A M
;
_chemical_formula_sum "Si O2"
_cell_formula_units_Z 116
_cell_length_a 22.249893
_cell_length_b 18.311797
_cell_length_c 13.281513
_cell_angle_alpha 90.000000
_cell_angle_beta 90.000000
_cell_angle_gamma 90.000000
_cell_volume 5411.360207
_symmetry_space_group_name_H-M "I B A M"
_symmetry_group_IT_number 72
_symmetry_cell_setting 'orthorhombic'
loop_
_space_group_symop_operation_xyz
x,y,z
-x,-y,z
x,-y,1/2-z
-x,y,1/2-z
-x,-y,-z
x,y,-z
-x,y,1/2+z
x,-y,1/2+z
1/2+x,1/2+y,1/2+z
1/2-x,1/2-y,1/2+z
1/2+x,1/2-y,-z
1/2-x,1/2+y,-z
1/2-x,1/2-y,1/2-z
1/2+x,1/2+y,1/2-z
1/2-x,1/2+y,z
1/2+x,1/2-y,z
loop_
_atom_site_type_symbol
_atom_site_label
_atom_site_fract_x
_atom_site_fract_y
_atom_site_fract_z
Si Si1 0.569606 0.666201 0.721928
Si Si2 0.453430 0.873554 0.607848
Si Si3 0.160684 0.870268 0.118750
Si Si4 0.000000 0.500000 0.500000
Si Si5 0.135623 0.961496 0.384338
Si Si6 0.794093 0.605851 0.168968
Si Si7 0.583140 0.824603 0.331582
Si Si8 0.225352 0.437450 0.388246
O O1 0.500000 0.664962 0.750000
O O2 0.612928 0.675157 0.818459
O O3 0.589174 0.591244 0.669508
O O4 0.581650 0.737655 0.656255
O O5 0.430345 0.842089 0.500000
O O6 0.456472 0.960506 0.587074
O O7 0.524706 0.855883 0.613742
O O8 0.426622 0.845426 0.712481
O O9 0.230419 0.856301 0.144676
O O10 0.146081 0.954900 0.148838
O O11 0.152941 0.863209 0.000000
O O12 0.116989 0.966509 0.500000
O O13 0.202547 0.927654 0.380313
O O14 0.854140 0.643473 0.130843
O O15 0.800452 0.600536 0.289983
O O16 0.787411 0.523900 0.125387
O O17 0.205793 0.414686 0.500000
#
# Coordination Sequence:
#
# PCOD9527270 Si02
#       8
#    16  16  16   4  16  16  16  16
#     4  12  24  41  64  91 126 184 218 258 324 396
#     4   9  21  44  62  91 125 166 217 276 314 377
#     4  10  22  42  66  95 130 164 217 280 332 385
#     4   8  20  38  72  84 122 172 218 278 318 360
#     4   9  19  39  65  90 123 158 212 274 320 373
#     4  10  20  37  64  91 127 165 202 269 331 397
#     4  11  24  41  62  92 136 172 212 263 331 399
#     4   9  18  36  61  93 124 158 206 267 332 377
#
# _framework density 21.436384
#
# number of rings (size 3 to 8) (size 9 to 14) (size 15 to 20)
#    0.414    1.655    2.759    1.655    0.000    8.276 
#    2.483    1.379    0.000    0.000    0.000    0.000 
#    0.000    0.000    0.000    0.000    0.000    0.000 
#
# Total GULP energy -322994.913030 kJ/mol
# GULP energy per Si atom -5568.877811 kJ/mol
# Density = 2.138759 g / cm^3
# Si number density = 21.436384 Si / 1000 Ang^3
#
#
#
# Elastic Constant Matrix: (Units=GPa)
#
#
# Indices 1 2 3 4 5 6 
#
# 1 128.3210 24.2379 -9.5874 0.0000 0.0000 0.0000
# 2 24.2379 24.7685 -13.4246 0.0000 0.0000 0.0000
# 3 -9.5874 -13.4246 62.2468 0.0000 0.0000 0.0000
# 4 0.0000 0.0000 0.0000 -17.8781 0.0000 0.0000
# 5 0.0000 0.0000 0.0000 0.0000 2.3231 0.0000
# 6 0.0000 0.0000 0.0000 0.0000 0.0000 32.7501
#
#
#
# Elastic Compliance Matrix: (Units=1/GPa)
#
#
# Indices 1 2 3 4 5 6 
#
# 1 0.009581 -0.009711 -0.000619 0.000000 0.000000 0.000000
# 2 -0.009711 0.055561 0.010487 0.000000 0.000000 0.000000
# 3 -0.000619 0.010487 0.018231 0.000000 0.000000 0.000000
# 4 0.000000 0.000000 0.000000 -0.055935 0.000000 0.000000
# 5 0.000000 0.000000 0.000000 0.000000 0.430460 0.000000
# 6 0.000000 0.000000 0.000000 0.000000 0.000000 0.030534
#
#
# Mechanical properties :
#
#
# Convention : Reuss Voigt Hill
#
# Bulk Modulus (GPa) = 11.94915 24.19868 18.07392
# Shear Modulus (GPa) = 9.68965 17.71305 13.70135
#
# Velocity S-wave (km/s) = 2.12838 2.87768 2.53091
# Velocity P-wave (km/s) = 3.40974 4.72805 4.12194
#
# Compressibility (1/GPa) = 0.08368794
#
# Stress axis : x y z
#
# Youngs Moduli (GPa) = 104.37298 17.99821 54.85013
#
# Poissons Ratio (x) = 0.17478 0.03394
# Poissons Ratio (y) = 1.01358 -0.57521
# Poissons Ratio (z) = 0.06458 -0.18875
#
# Static dielectric constant tensor:
#      x y z
#    x 1.825630 0.000000 0.000000 
#    y 0.000000 1.779520 0.000000 
#    z 0.000000 0.000000 1.850700 
# 
# From -- ./inp_files/25381.got.cif
#   From: 2010.05.17/outbox.cif.g08.bks.cpg/sg72_13_cif.got.tgz:25381.got - 2010.06.03 17:03:01.
