data_PCOD9527863
_publ_section_title
;
Structure prediction by ZEFSAII (Michael W. Deem and Ramdas Pophale) SiO2 
 PCOD9527863
Probable space group: I B A M
;
_chemical_formula_sum "Si O2"
_cell_formula_units_Z 88
_cell_length_a 12.790156
_cell_length_b 16.630182
_cell_length_c 21.247550
_cell_angle_alpha 90.000000
_cell_angle_beta 90.000000
_cell_angle_gamma 90.000000
_cell_volume 4519.409598
_symmetry_space_group_name_H-M "I B A M"
_symmetry_group_IT_number 72
_symmetry_cell_setting 'orthorhombic'
loop_
_space_group_symop_operation_xyz
x,y,z
-x,-y,z
x,-y,1/2-z
-x,y,1/2-z
-x,-y,-z
x,y,-z
-x,y,1/2+z
x,-y,1/2+z
1/2+x,1/2+y,1/2+z
1/2-x,1/2-y,1/2+z
1/2+x,1/2-y,-z
1/2-x,1/2+y,-z
1/2-x,1/2-y,1/2-z
1/2+x,1/2+y,1/2-z
1/2-x,1/2+y,z
1/2+x,1/2-y,z
loop_
_atom_site_type_symbol
_atom_site_label
_atom_site_fract_x
_atom_site_fract_y
_atom_site_fract_z
Si Si1 0.121949 0.340426 0.000000
Si Si2 0.834113 0.521144 0.500000
Si Si3 0.955914 0.296961 0.105473
Si Si4 0.498451 0.367682 0.173548
Si Si5 0.216179 0.697784 0.000000
Si Si6 0.834959 0.999007 0.824916
Si Si7 0.897971 0.457107 0.859496
O O1 0.189781 0.259628 0.000000
O O2 0.048117 0.334014 0.061805
O O3 0.187045 0.424677 0.000000
O O4 0.758370 0.600980 0.500000
O O5 0.895957 0.535189 0.564457
O O6 0.993749 0.217052 0.139426
O O7 0.914043 0.363347 0.154263
O O8 0.857755 0.283142 0.059496
O O9 0.500000 0.358939 0.250000
O O10 0.397451 0.421517 0.154231
O O11 0.599187 0.420863 0.153962
O O12 0.713739 0.992267 0.840740
O O13 0.844873 0.000000 0.750000
O O14 0.000000 0.500000 0.833570
#
# Coordination Sequence:
#
# PCOD9527863 Si02
#       7
#     8   8  16  16   8  16  16
#     4  11  21  40  60  82 130 160 193 247 300 362
#     4  10  21  38  58  81 119 167 189 232 307 352
#     4  10  22  36  58  91 115 153 203 240 300 347
#     4   9  20  43  64  84 117 157 203 248 301 352
#     4   9  23  36  58  86 121 153 208 241 288 372
#     4   9  21  42  64  83 116 162 198 245 303 358
#     4  11  21  38  60  86 119 157 199 237 294 366
#
# _framework density 19.47157
#
# number of rings (size 3 to 8) (size 9 to 14) (size 15 to 20)
#    0.000    2.182    1.818    1.909    7.636    0.364 
#    3.273    1.818    0.000    4.364    0.000    0.000 
#    0.000    0.000    0.000    0.000    0.000    0.000 
#
# Total GULP energy -245103.807458 kJ/mol
# GULP energy per Si atom -5570.541079 kJ/mol
# Density = 1.942725 g / cm^3
# Si number density = 19.471570 Si / 1000 Ang^3
#
#
#
# Elastic Constant Matrix: (Units=GPa)
#
#
# Indices 1 2 3 4 5 6 
#
# 1 116.3533 52.3082 1.8930 0.0000 0.0000 0.0000
# 2 52.3082 146.8907 27.2164 0.0000 0.0000 0.0000
# 3 1.8930 27.2164 23.2856 0.0000 0.0000 0.0000
# 4 0.0000 0.0000 0.0000 42.3375 0.0000 0.0000
# 5 0.0000 0.0000 0.0000 0.0000 17.9305 0.0000
# 6 0.0000 0.0000 0.0000 0.0000 0.0000 28.5405
#
#
#
# Elastic Compliance Matrix: (Units=1/GPa)
#
#
# Indices 1 2 3 4 5 6 
#
# 1 0.010594 -0.004612 0.004529 0.000000 0.000000 0.000000
# 2 -0.004612 0.010697 -0.012128 0.000000 0.000000 0.000000
# 3 0.004529 -0.012128 0.056752 0.000000 0.000000 0.000000
# 4 0.000000 0.000000 0.000000 0.023620 0.000000 0.000000
# 5 0.000000 0.000000 0.000000 0.000000 0.055771 0.000000
# 6 0.000000 0.000000 0.000000 0.000000 0.000000 0.035038
#
#
# Mechanical properties :
#
#
# Convention : Reuss Voigt Hill
#
# Bulk Modulus (GPa) = 18.64912 49.92942 34.28927
# Shear Modulus (GPa) = 21.29768 31.43584 26.36676
#
# Velocity S-wave (km/s) = 3.31083 4.02238 3.68382
# Velocity P-wave (km/s) = 4.92076 6.87536 5.97848
#
# Compressibility (1/GPa) = 0.05362184
#
# Stress axis : x y z
#
# Youngs Moduli (GPa) = 94.39217 93.48291 17.62051
#
# Poissons Ratio (x) = 0.43112 -0.07980
# Poissons Ratio (y) = 0.43531 0.21370
# Poissons Ratio (z) = -0.42750 1.13376
#
# Static dielectric constant tensor:
#      x y z
#    x 1.721350 0.000000 0.000000 
#    y 0.000000 1.720650 0.000000 
#    z 0.000000 0.000000 1.688540 
# 
# From -- ./inp_files/43275.got.cif
#   From: 2010.05.17/outbox.cif.g08.bks.cpg/sg72_22_cif.got.tgz:43275.got - 2010.06.03 17:03:01.
