data_PCOD9527122
_publ_section_title
;
Structure prediction by ZEFSAII (Michael W. Deem and Ramdas Pophale) SiO2 
 PCOD9527122
Probable space group: I B A M
;
_chemical_formula_sum "Si O2"
_cell_formula_units_Z 64
_cell_length_a 17.146264
_cell_length_b 9.882412
_cell_length_c 14.473900
_cell_angle_alpha 90.000000
_cell_angle_beta 90.000000
_cell_angle_gamma 90.000000
_cell_volume 2452.550902
_symmetry_space_group_name_H-M "I B A M"
_symmetry_group_IT_number 72
_symmetry_cell_setting 'orthorhombic'
loop_
_space_group_symop_operation_xyz
x,y,z
-x,-y,z
x,-y,1/2-z
-x,y,1/2-z
-x,-y,-z
x,y,-z
-x,y,1/2+z
x,-y,1/2+z
1/2+x,1/2+y,1/2+z
1/2-x,1/2-y,1/2+z
1/2+x,1/2-y,-z
1/2-x,1/2+y,-z
1/2-x,1/2-y,1/2-z
1/2+x,1/2+y,1/2-z
1/2-x,1/2+y,z
1/2+x,1/2-y,z
loop_
_atom_site_type_symbol
_atom_site_label
_atom_site_fract_x
_atom_site_fract_y
_atom_site_fract_z
Si Si1 0.420740 0.432341 0.149387
Si Si2 0.242057 0.055820 0.104872
Si Si3 0.334687 0.185749 0.386869
Si Si4 0.990621 0.657248 0.389206
O O1 0.500000 0.500000 0.107494
O O2 0.415300 0.500000 0.250000
O O3 0.339670 0.473733 0.102267
O O4 0.431929 0.269817 0.149947
O O5 0.307000 0.959708 0.146372
O O6 0.221060 0.197392 0.149650
O O7 0.267562 0.084514 0.000000
O O8 0.328896 0.184621 0.500000
O O9 0.423838 0.215905 0.368016
O O10 0.977406 0.654291 0.500000
O O11 0.000000 0.500000 0.360186
#
# Coordination Sequence:
#
# PCOD9527122 Si02
#       4
#    16  16  16  16
#     4  11  23  40  62  86 127 173 217 257 309 386
#     4  10  20  36  61  89 124 162 208 267 324 380
#     4   9  19  34  57  91 122 155 201 263 329 379
#     4  10  21  38  66  98 124 158 215 279 333 377
#
# _framework density 26.095279000000001
#
# number of rings (size 3 to 8) (size 9 to 14) (size 15 to 20)
#    0.000    2.000    2.500    0.750    3.500    1.000 
#    0.000    3.750    0.000    0.000    0.000    0.000 
#    0.000    0.000    0.000    0.000    0.000    0.000 
#
# Total GULP energy -178993.925331 kJ/mol
# GULP energy per Si atom -5593.560167 kJ/mol
# Density = 2.603588 g / cm^3
# Si number density = 26.095279 Si / 1000 Ang^3
#
#
#
# Elastic Constant Matrix: (Units=GPa)
#
#
# Indices 1 2 3 4 5 6 
#
# 1 33.0525 -21.4059 4.5600 0.0000 0.0000 0.0000
# 2 -21.4059 158.9120 38.3781 0.0000 0.0000 0.0000
# 3 4.5600 38.3781 107.5839 0.0000 0.0000 0.0000
# 4 0.0000 0.0000 0.0000 16.0659 0.0000 0.0000
# 5 0.0000 0.0000 0.0000 0.0000 -0.6342 0.0000
# 6 0.0000 0.0000 0.0000 0.0000 0.0000 51.2512
#
#
#
# Elastic Compliance Matrix: (Units=1/GPa)
#
#
# Indices 1 2 3 4 5 6 
#
# 1 0.034239 0.005430 -0.003388 0.000000 0.000000 0.000000
# 2 0.005430 0.007747 -0.002994 0.000000 0.000000 0.000000
# 3 -0.003388 -0.002994 0.010507 0.000000 0.000000 0.000000
# 4 0.000000 0.000000 0.000000 0.062244 0.000000 0.000000
# 5 0.000000 0.000000 0.000000 0.000000 -1.576684 0.000000
# 6 0.000000 0.000000 0.000000 0.000000 0.000000 0.019512
#
#
# Mechanical properties :
#
#
# Convention : Reuss Voigt Hill
#
# Bulk Modulus (GPa) = 19.76689 38.06808 28.91749
# Shear Modulus (GPa) = -3.51205 31.87098 14.17946
#
# Velocity S-wave (km/s) = -1.16137 3.49855 2.33356
# Velocity P-wave (km/s) = 2.40686 5.56233 4.28559
#
# Compressibility (1/GPa) = 0.05058964
#
# Stress axis : x y z
#
# Youngs Moduli (GPa) = 29.20622 129.07679 95.17752
#
# Poissons Ratio (x) = -0.70095 0.32250
# Poissons Ratio (y) = -0.15860 0.28495
# Poissons Ratio (z) = 0.09896 0.38644
#
# Static dielectric constant tensor:
#      x y z
#    x 1.998650 0.000000 0.000000 
#    y 0.000000 2.057570 0.000000 
#    z 0.000000 0.000000 2.046980 
# 
# From -- ./inp_files/32218.got.cif
#   From: 2010.05.17/outbox.cif.g08.bks.cpg/sg72_17_cif.got.tgz:32218.got - 2010.06.03 17:03:01.
