data_PCOD9527620
_publ_section_title
;
Structure prediction by ZEFSAII (Michael W. Deem and Ramdas Pophale) SiO2 
 PCOD9527620
Probable space group: I B A M
;
_chemical_formula_sum "Si O2"
_cell_formula_units_Z 80
_cell_length_a 9.415088
_cell_length_b 22.949375
_cell_length_c 17.656783
_cell_angle_alpha 90.000000
_cell_angle_beta 90.000000
_cell_angle_gamma 90.000000
_cell_volume 3815.107904
_symmetry_space_group_name_H-M "I B A M"
_symmetry_group_IT_number 72
_symmetry_cell_setting 'orthorhombic'
loop_
_space_group_symop_operation_xyz
x,y,z
-x,-y,z
x,-y,1/2-z
-x,y,1/2-z
-x,-y,-z
x,y,-z
-x,y,1/2+z
x,-y,1/2+z
1/2+x,1/2+y,1/2+z
1/2-x,1/2-y,1/2+z
1/2+x,1/2-y,-z
1/2-x,1/2+y,-z
1/2-x,1/2-y,1/2-z
1/2+x,1/2+y,1/2-z
1/2-x,1/2+y,z
1/2+x,1/2-y,z
loop_
_atom_site_type_symbol
_atom_site_label
_atom_site_fract_x
_atom_site_fract_y
_atom_site_fract_z
Si Si1 0.100405 0.415855 0.913139
Si Si2 0.425945 0.689325 0.331986
Si Si3 0.783168 0.534128 0.412294
Si Si4 0.980630 0.933732 0.159904
Si Si5 0.904746 0.704500 0.173585
O O1 0.199951 0.467832 0.881562
O O2 0.090026 0.356342 0.869295
O O3 0.941628 0.441327 0.913763
O O4 0.144375 0.406178 0.000000
O O5 0.500000 0.681566 0.250000
O O6 0.436293 0.624298 0.367316
O O7 0.265694 0.711523 0.319418
O O8 0.521485 0.740482 0.368404
O O9 0.733858 0.532576 0.500000
O O10 0.683995 0.574595 0.361843
O O11 0.000000 0.938281 0.250000
O O12 0.000000 0.000000 0.127997
O O13 0.000000 0.698448 0.250000
#
# Coordination Sequence:
#
# PCOD9527620 Si02
#       5
#    16  16  16  16  16
#     4   9  20  39  62  88 121 154 202 252 303 368
#     4  10  22  37  58  87 125 160 200 250 312 368
#     4   9  19  38  62  86 117 165 199 240 310 372
#     4  10  21  35  57  86 126 153 199 256 301 347
#     4  11  22  37  62  88 117 164 204 249 307 367
#
# _framework density 20.969262000000001
#
# number of rings (size 3 to 8) (size 9 to 14) (size 15 to 20)
#    0.000    2.200    0.000    4.800    8.400    0.400 
#    0.000    4.000    0.000    0.000    0.000    0.000 
#    0.000    0.000    0.000    0.000    0.000    0.000 
#
# Total GULP energy -222704.399632 kJ/mol
# GULP energy per Si atom -5567.609991 kJ/mol
# Density = 2.092153 g / cm^3
# Si number density = 20.969262 Si / 1000 Ang^3
#
#
#
# Elastic Constant Matrix: (Units=GPa)
#
#
# Indices 1 2 3 4 5 6 
#
# 1 140.8717 58.1453 20.8828 0.0000 0.0000 0.0000
# 2 58.1453 170.9331 22.6651 0.0000 0.0000 0.0000
# 3 20.8828 22.6651 22.3025 0.0000 0.0000 0.0000
# 4 0.0000 0.0000 0.0000 60.2312 0.0000 0.0000
# 5 0.0000 0.0000 0.0000 0.0000 26.0164 0.0000
# 6 0.0000 0.0000 0.0000 0.0000 0.0000 54.2415
#
#
#
# Elastic Compliance Matrix: (Units=1/GPa)
#
#
# Indices 1 2 3 4 5 6 
#
# 1 0.008921 -0.002227 -0.006090 0.000000 0.000000 0.000000
# 2 -0.002227 0.007317 -0.005351 0.000000 0.000000 0.000000
# 3 -0.006090 -0.005351 0.055978 0.000000 0.000000 0.000000
# 4 0.000000 0.000000 0.000000 0.016603 0.000000 0.000000
# 5 0.000000 0.000000 0.000000 0.000000 0.038437 0.000000
# 6 0.000000 0.000000 0.000000 0.000000 0.000000 0.018436
#
#
# Mechanical properties :
#
#
# Convention : Reuss Voigt Hill
#
# Bulk Modulus (GPa) = 22.28129 59.72153 41.00141
# Shear Modulus (GPa) = 26.59756 43.59211 35.09484
#
# Velocity S-wave (km/s) = 3.56533 4.56440 4.09544
# Velocity P-wave (km/s) = 5.25334 7.50471 6.47758
#
# Compressibility (1/GPa) = 0.04488071
#
# Stress axis : x y z
#
# Youngs Moduli (GPa) = 112.10040 136.66211 17.86419
#
# Poissons Ratio (x) = 0.30435 0.10878
# Poissons Ratio (y) = 0.24965 0.09559
# Poissons Ratio (z) = 0.68264 0.73128
#
# Static dielectric constant tensor:
#      x y z
#    x 1.835700 0.000000 0.000000 
#    y 0.000000 1.856080 0.000000 
#    z 0.000000 0.000000 1.833970 
# 
# From -- ./inp_files/28155.got.cif
#   From: 2010.05.17/outbox.cif.g08.bks.cpg/sg72_15_cif.got.tgz:28155.got - 2010.06.03 17:03:01.
