data_PCOD9527994
_publ_section_title
;
Structure prediction by ZEFSAII (Michael W. Deem and Ramdas Pophale) SiO2 
 PCOD9527994
Probable space group: I B A M
;
_chemical_formula_sum "Si O2"
_cell_formula_units_Z 96
_cell_length_a 14.924613
_cell_length_b 21.693633
_cell_length_c 15.681048
_cell_angle_alpha 90.000000
_cell_angle_beta 90.000000
_cell_angle_gamma 90.000000
_cell_volume 5077.038439
_symmetry_space_group_name_H-M "I B A M"
_symmetry_group_IT_number 72
_symmetry_cell_setting 'orthorhombic'
loop_
_space_group_symop_operation_xyz
x,y,z
-x,-y,z
x,-y,1/2-z
-x,y,1/2-z
-x,-y,-z
x,y,-z
-x,y,1/2+z
x,-y,1/2+z
1/2+x,1/2+y,1/2+z
1/2-x,1/2-y,1/2+z
1/2+x,1/2-y,-z
1/2-x,1/2+y,-z
1/2-x,1/2-y,1/2-z
1/2+x,1/2+y,1/2-z
1/2-x,1/2+y,z
1/2+x,1/2-y,z
loop_
_atom_site_type_symbol
_atom_site_label
_atom_site_fract_x
_atom_site_fract_y
_atom_site_fract_z
Si Si1 0.770619 0.077662 0.092944
Si Si2 0.764155 0.544203 0.332151
Si Si3 0.100655 0.662538 0.599221
Si Si4 0.896699 0.351443 0.101048
Si Si5 0.357467 0.248337 0.755938
Si Si6 0.397652 0.608259 0.255718
O O1 0.682174 0.116077 0.118301
O O2 0.851280 0.087813 0.156878
O O3 0.746084 0.006045 0.094597
O O4 0.796758 0.099440 0.000000
O O5 0.785142 0.500000 0.250000
O O6 0.837154 0.595143 0.356047
O O7 0.670214 0.578623 0.313138
O O8 0.110399 0.683667 0.500000
O O9 0.106710 0.714354 0.671404
O O10 0.002299 0.632841 0.605419
O O11 0.882354 0.290494 0.159268
O O12 0.874247 0.342997 0.000000
O O13 0.250000 0.250000 0.750000
O O14 0.392344 0.317853 0.754953
O O15 0.500000 0.587754 0.250000
#
# Coordination Sequence:
#
# PCOD9527994 Si02
#       6
#    16  16  16  16  16  16
#     4  10  21  39  61  85 116 154 197 244 296 354
#     4  10  21  39  60  87 121 160 202 248 296 350
#     4  10  22  40  63  92 124 157 197 246 307 373
#     4  11  23  39  63  96 128 157 197 248 304 370
#     4  12  21  40  64  88 120 161 201 246 307 365
#     4  11  23  40  60  83 116 157 202 249 296 352
#
# _framework density 18.908662
#
# number of rings (size 3 to 8) (size 9 to 14) (size 15 to 20)
#    0.000    1.333    3.333    3.000    0.000    5.000 
#    0.000    8.333    0.000    0.000    0.000    0.000 
#    0.000    0.000    0.000    0.000    0.000    0.000 
#
# Total GULP energy -267815.853638 kJ/mol
# GULP energy per Si atom -5579.496951 kJ/mol
# Density = 1.886562 g / cm^3
# Si number density = 18.908662 Si / 1000 Ang^3
#
#
#
# Elastic Constant Matrix: (Units=GPa)
#
#
# Indices 1 2 3 4 5 6 
#
# 1 111.0586 0.6071 33.4169 -0.0002 0.0000 0.0000
# 2 0.6071 82.5524 27.1350 0.0000 0.0000 0.0000
# 3 33.4169 27.1350 90.4810 0.0003 0.0000 0.0000
# 4 -0.0002 0.0000 0.0003 3.9732 -0.0001 0.0000
# 5 0.0000 0.0000 0.0000 -0.0001 20.7956 0.0000
# 6 0.0000 0.0000 0.0000 0.0000 0.0000 1.1319
#
#
#
# Elastic Compliance Matrix: (Units=1/GPa)
#
#
# Indices 1 2 3 4 5 6 
#
# 1 0.010254 0.001297 -0.004176 0.000001 0.000000 0.000000
# 2 0.001297 0.013602 -0.004558 0.000000 0.000000 0.000000
# 3 -0.004176 -0.004558 0.013961 -0.000001 0.000000 0.000000
# 4 0.000001 0.000000 -0.000001 0.251683 0.000001 -0.000002
# 5 0.000000 0.000000 0.000000 0.000001 0.048087 0.000000
# 6 0.000000 0.000000 0.000000 -0.000002 0.000000 0.883485
#
#
# Mechanical properties :
#
#
# Convention : Reuss Voigt Hill
#
# Bulk Modulus (GPa) = 43.58609 45.15669 44.37139
# Shear Modulus (GPa) = 4.02060 20.04235 12.03148
#
# Velocity S-wave (km/s) = 1.45978 3.25923 2.52522
# Velocity P-wave (km/s) = 5.09334 6.17226 5.65857
#
# Compressibility (1/GPa) = 0.02294310
#
# Stress axis : x y z
#
# Youngs Moduli (GPa) = 97.52588 73.51687 71.62613
#
# Poissons Ratio (x) = -0.09537 0.29911
# Poissons Ratio (y) = -0.12651 0.32650
# Poissons Ratio (z) = 0.40727 0.33512
#
# Static dielectric constant tensor:
#      x y z
#    x 1.651830 0.000000 0.000000 
#    y 0.000000 1.653970 0.000000 
#    z 0.000000 0.000000 1.707340 
# 
# From -- ./inp_files/21874.got.cif
#   From: 2010.05.17/outbox.cif.g08.bks.cpg/sg72_11_cif.got.tgz:21874.got - 2010.06.03 17:03:01.
