data_PCOD9527822
_publ_section_title
;
Structure prediction by ZEFSAII (Michael W. Deem and Ramdas Pophale) SiO2 
 PCOD9527822
Probable space group: I B A M
;
_chemical_formula_sum "Si O2"
_cell_formula_units_Z 80
_cell_length_a 9.028355
_cell_length_b 22.673420
_cell_length_c 16.883105
_cell_angle_alpha 90.000000
_cell_angle_beta 90.000000
_cell_angle_gamma 90.000000
_cell_volume 3456.033805
_symmetry_space_group_name_H-M "I B A M"
_symmetry_group_IT_number 72
_symmetry_cell_setting 'orthorhombic'
loop_
_space_group_symop_operation_xyz
x,y,z
-x,-y,z
x,-y,1/2-z
-x,y,1/2-z
-x,-y,-z
x,y,-z
-x,y,1/2+z
x,-y,1/2+z
1/2+x,1/2+y,1/2+z
1/2-x,1/2-y,1/2+z
1/2+x,1/2-y,-z
1/2-x,1/2+y,-z
1/2-x,1/2-y,1/2-z
1/2+x,1/2+y,1/2-z
1/2-x,1/2+y,z
1/2+x,1/2-y,z
loop_
_atom_site_type_symbol
_atom_site_label
_atom_site_fract_x
_atom_site_fract_y
_atom_site_fract_z
Si Si1 0.328623 0.015111 0.595702
Si Si2 0.239200 0.298833 0.318179
Si Si3 0.845969 0.875499 0.407978
Si Si4 0.613057 0.423469 0.178604
Si Si5 0.985751 0.754885 0.407103
O O1 0.298131 0.008981 0.500000
O O2 0.226202 0.972205 0.647904
O O3 0.500000 0.000000 0.607608
O O4 0.283950 0.081725 0.620567
O O5 0.250000 0.250000 0.250000
O O6 0.299783 0.363586 0.297971
O O7 0.074806 0.298703 0.354834
O O8 0.350237 0.275704 0.386837
O O9 0.817241 0.866667 0.500000
O O10 0.884130 0.810276 0.378740
O O11 0.999779 0.909788 0.393181
O O12 0.500000 0.437146 0.250000
O O13 0.971085 0.743840 0.500000
#
# Coordination Sequence:
#
# PCOD9527822 Si02
#       5
#    16  16  16  16  16
#     4  10  22  41  66  97 128 158 199 258 322 371
#     4  11  22  40  62  88 124 166 209 257 317 372
#     4   9  19  38  62  89 124 165 205 248 303 372
#     4  11  23  40  62  88 121 166 215 252 301 379
#     4  10  21  37  61  92 123 160 211 260 304 367
#
# _framework density 23.147922000000001
#
# number of rings (size 3 to 8) (size 9 to 14) (size 15 to 20)
#    0.000    1.800    0.000    4.800    0.000    7.200 
#    0.000    6.000    0.000    0.000    0.000    0.000 
#    0.000    0.000    0.000    0.000    0.000    0.000 
#
# Total GULP energy -223409.552718 kJ/mol
# GULP energy per Si atom -5585.238818 kJ/mol
# Density = 2.309524 g / cm^3
# Si number density = 23.147922 Si / 1000 Ang^3
#
#
#
# Elastic Constant Matrix: (Units=GPa)
#
#
# Indices 1 2 3 4 5 6 
#
# 1 64.1602 29.1611 1.3237 0.0000 0.0000 0.0000
# 2 29.1611 67.8087 3.7015 0.0000 0.0000 0.0000
# 3 1.3237 3.7015 60.3372 0.0000 0.0000 0.0000
# 4 0.0000 0.0000 0.0000 32.5209 0.0000 0.0000
# 5 0.0000 0.0000 0.0000 0.0000 40.5998 0.0000
# 6 0.0000 0.0000 0.0000 0.0000 0.0000 46.9441
#
#
#
# Elastic Compliance Matrix: (Units=1/GPa)
#
#
# Indices 1 2 3 4 5 6 
#
# 1 0.019373 -0.008336 0.000086 0.000000 0.000000 0.000000
# 2 -0.008336 0.018384 -0.000945 0.000000 0.000000 0.000000
# 3 0.000086 -0.000945 0.016630 0.000000 0.000000 0.000000
# 4 0.000000 0.000000 0.000000 0.030749 0.000000 0.000000
# 5 0.000000 0.000000 0.000000 0.000000 0.024631 0.000000
# 6 0.000000 0.000000 0.000000 0.000000 0.000000 0.021302
#
#
# Mechanical properties :
#
#
# Convention : Reuss Voigt Hill
#
# Bulk Modulus (GPa) = 27.77988 28.96429 28.37209
# Shear Modulus (GPa) = 30.96804 34.55428 32.76116
#
# Velocity S-wave (km/s) = 3.66161 3.86782 3.76612
# Velocity P-wave (km/s) = 5.46842 5.69970 5.58525
#
# Compressibility (1/GPa) = 0.03599727
#
# Stress axis : x y z
#
# Youngs Moduli (GPa) = 51.61826 54.39555 60.13379
#
# Poissons Ratio (x) = 0.45344 -0.00519
# Poissons Ratio (y) = 0.43029 0.05682
# Poissons Ratio (z) = -0.00446 0.05140
#
# Static dielectric constant tensor:
#      x y z
#    x 1.858980 0.000000 0.000000 
#    y 0.000000 1.920960 0.000000 
#    z 0.000000 0.000000 1.884030 
# 
# From -- ./inp_files/28304.got.cif
#   From: 2010.05.17/outbox.cif.g08.bks.cpg/sg72_15_cif.got.tgz:28304.got - 2010.06.03 17:03:01.
