data_PCOD9527752
_publ_section_title
;
Structure prediction by ZEFSAII (Michael W. Deem and Ramdas Pophale) SiO2 
 PCOD9527752
Probable space group: I B A M
;
_chemical_formula_sum "Si O2"
_cell_formula_units_Z 112
_cell_length_a 11.527829
_cell_length_b 32.224439
_cell_length_c 15.104196
_cell_angle_alpha 90.000000
_cell_angle_beta 90.000000
_cell_angle_gamma 90.000000
_cell_volume 5610.873839
_symmetry_space_group_name_H-M "I B A M"
_symmetry_group_IT_number 72
_symmetry_cell_setting 'orthorhombic'
loop_
_space_group_symop_operation_xyz
x,y,z
-x,-y,z
x,-y,1/2-z
-x,y,1/2-z
-x,-y,-z
x,y,-z
-x,y,1/2+z
x,-y,1/2+z
1/2+x,1/2+y,1/2+z
1/2-x,1/2-y,1/2+z
1/2+x,1/2-y,-z
1/2-x,1/2+y,-z
1/2-x,1/2-y,1/2-z
1/2+x,1/2+y,1/2-z
1/2-x,1/2+y,z
1/2+x,1/2-y,z
loop_
_atom_site_type_symbol
_atom_site_label
_atom_site_fract_x
_atom_site_fract_y
_atom_site_fract_z
Si Si1 0.482910 0.365892 0.894950
Si Si2 0.411899 0.720661 0.831064
Si Si3 0.206015 0.089376 0.897988
Si Si4 0.723230 0.886514 0.394041
Si Si5 0.710574 0.183515 0.595046
Si Si6 0.136569 0.450326 0.248005
Si Si7 0.045582 0.312607 0.850617
O O1 0.529755 0.319348 0.878464
O O2 0.576139 0.400156 0.862594
O O3 0.352027 0.372363 0.863315
O O4 0.481828 0.371434 0.000000
O O5 0.500000 0.725770 0.750000
O O6 0.278368 0.705707 0.824927
O O7 0.403283 0.766983 0.868448
O O8 0.260411 0.135262 0.901772
O O9 0.287728 0.064441 0.832019
O O10 0.202151 0.073399 0.000000
O O11 0.724038 0.894051 0.500000
O O12 0.687561 0.926896 0.337926
O O13 0.633267 0.849309 0.374344
O O14 0.755043 0.200274 0.500000
O O15 0.574475 0.187210 0.597336
O O16 0.142749 0.500000 0.250000
O O17 0.000000 0.438546 0.250000
O O18 0.000000 0.318056 0.750000
#
# Coordination Sequence:
#
# PCOD9527752 Si02
#       7
#    16  16  16  16  16  16  16
#     4   9  21  39  61  90 124 166 215 263 315 376
#     4  10  23  35  56  85 120 164 216 268 320 367
#     4   9  19  40  66  90 120 166 210 253 316 387
#     4  11  24  41  63  93 129 170 213 267 328 384
#     4  10  21  37  57  82 114 158 211 258 311 384
#     4  11  25  43  66  97 127 159 206 266 328 396
#     4  11  24  37  57  86 125 168 218 267 323 380
#
# _framework density 19.96124
#
# number of rings (size 3 to 8) (size 9 to 14) (size 15 to 20)
#    0.000    1.857    0.000    3.857    8.000    5.714 
#    0.000    2.857    0.000    2.571    0.000    0.000 
#    0.000    0.000    0.000    0.000    0.000    0.000 
#
# Total GULP energy -312191.984814 kJ/mol
# GULP energy per Si atom -5574.856872 kJ/mol
# Density = 1.991581 g / cm^3
# Si number density = 19.961240 Si / 1000 Ang^3
#
#
#
# Elastic Constant Matrix: (Units=GPa)
#
#
# Indices 1 2 3 4 5 6 
#
# 1 139.8767 62.7770 40.0131 -0.0001 0.0000 0.0000
# 2 62.7770 91.9623 39.1864 0.0000 0.0000 0.0000
# 3 40.0131 39.1864 84.4553 -0.0003 0.0000 0.0000
# 4 -0.0001 0.0000 -0.0003 10.9587 0.0000 0.0000
# 5 0.0000 0.0000 0.0000 0.0000 26.1478 0.0000
# 6 0.0000 0.0000 0.0000 0.0000 0.0000 21.0939
#
#
#
# Elastic Compliance Matrix: (Units=1/GPa)
#
#
# Indices 1 2 3 4 5 6 
#
# 1 0.010590 -0.006346 -0.002073 0.000000 0.000000 0.000000
# 2 -0.006346 0.017356 -0.005047 0.000000 0.000000 0.000000
# 3 -0.002073 -0.005047 0.015164 0.000000 0.000000 0.000000
# 4 0.000000 0.000000 0.000000 0.091251 0.000000 0.000000
# 5 0.000000 0.000000 0.000000 0.000000 0.038244 0.000000
# 6 0.000000 0.000000 0.000000 0.000000 0.000000 0.047407
#
#
# Mechanical properties :
#
#
# Convention : Reuss Voigt Hill
#
# Bulk Modulus (GPa) = 61.80528 66.69415 64.24971
# Shear Modulus (GPa) = 19.81469 23.26127 21.53798
#
# Velocity S-wave (km/s) = 3.15407 3.41738 3.28836
# Velocity P-wave (km/s) = 6.65538 7.00398 6.83190
#
# Compressibility (1/GPa) = 0.01617985
#
# Stress axis : x y z
#
# Youngs Moduli (GPa) = 94.42662 57.61537 65.94434
#
# Poissons Ratio (x) = 0.36563 0.13670
# Poissons Ratio (y) = 0.59923 0.33280
# Poissons Ratio (z) = 0.19574 0.29076
#
# Static dielectric constant tensor:
#      x y z
#    x 1.770270 0.000000 0.000000 
#    y 0.000000 1.659330 0.000000 
#    z 0.000000 0.000000 1.734440 
# 
# From -- ./inp_files/20748.got.cif
#   From: 2010.05.17/outbox.cif.g08.bks.cpg/sg72_11_cif.got.tgz:20748.got - 2010.06.03 17:03:01.
