data_PCOD9527392
_publ_section_title
;
Structure prediction by ZEFSAII (Michael W. Deem and Ramdas Pophale) SiO2 
 PCOD9527392
Probable space group: I B A M
;
_chemical_formula_sum "Si O2"
_cell_formula_units_Z 72
_cell_length_a 20.034342
_cell_length_b 7.545043
_cell_length_c 19.107011
_cell_angle_alpha 90.000000
_cell_angle_beta 90.000000
_cell_angle_gamma 90.000000
_cell_volume 2888.215245
_symmetry_space_group_name_H-M "I B A M"
_symmetry_group_IT_number 72
_symmetry_cell_setting 'orthorhombic'
loop_
_space_group_symop_operation_xyz
x,y,z
-x,-y,z
x,-y,1/2-z
-x,y,1/2-z
-x,-y,-z
x,y,-z
-x,y,1/2+z
x,-y,1/2+z
1/2+x,1/2+y,1/2+z
1/2-x,1/2-y,1/2+z
1/2+x,1/2-y,-z
1/2-x,1/2+y,-z
1/2-x,1/2-y,1/2-z
1/2+x,1/2+y,1/2-z
1/2-x,1/2+y,z
1/2+x,1/2-y,z
loop_
_atom_site_type_symbol
_atom_site_label
_atom_site_fract_x
_atom_site_fract_y
_atom_site_fract_z
Si Si1 0.844062 0.406354 0.000000
Si Si2 0.666977 0.804193 0.772561
Si Si3 0.192416 0.994956 0.500000
Si Si4 0.000000 0.000000 0.128596
Si Si5 0.649948 0.545626 0.348951
Si Si6 0.941592 0.635527 0.622377
O O1 0.831663 0.196185 0.000000
O O2 0.886582 0.441178 0.930562
O O3 0.772142 0.494216 0.000000
O O4 0.681268 0.649522 0.832051
O O5 0.592465 0.839655 0.802155
O O6 0.692005 0.000000 0.750000
O O7 0.821744 0.810262 0.796659
O O8 0.164534 0.910316 0.570974
O O9 0.930122 0.949342 0.165825
O O10 0.972789 0.179953 0.092942
O O11 0.000000 0.500000 0.628300
#
# Coordination Sequence:
#
# PCOD9527392 Si02
#       6
#     8  16   8   8  16  16
#     4  12  27  50  72 105 146 202 264 313 381 456
#     4  10  21  40  72 109 153 189 248 302 385 453
#     4  12  26  52  72 100 157 202 265 312 375 454
#     4  10  20  38  72 100 154 178 240 290 376 434
#     4  10  23  42  70 111 147 203 242 311 376 451
#     4  11  24  43  73 114 151 189 246 315 387 462
#
# _framework density 24.928889999999999
#
# number of rings (size 3 to 8) (size 9 to 14) (size 15 to 20)
#    0.000    1.333    4.444    1.667    0.000   16.444 
#    0.000    1.111    4.889    0.000    0.000    0.778 
#    0.000    0.000    0.000    0.000    0.000    0.000 
#
# Total GULP energy -200814.463133 kJ/mol
# GULP energy per Si atom -5578.179531 kJ/mol
# Density = 2.487215 g / cm^3
# Si number density = 24.928890 Si / 1000 Ang^3
#
#
#
# Elastic Constant Matrix: (Units=GPa)
#
#
# Indices 1 2 3 4 5 6 
#
# 1 131.3350 32.9974 27.7225 0.0000 0.0000 0.0000
# 2 32.9974 120.5148 42.5996 0.0000 0.0000 0.0000
# 3 27.7225 42.5996 160.1446 0.0000 0.0000 0.0000
# 4 0.0000 0.0000 0.0000 8.5898 0.0000 0.0000
# 5 0.0000 0.0000 0.0000 0.0000 12.1598 0.0000
# 6 0.0000 0.0000 0.0000 0.0000 0.0000 42.3146
#
#
#
# Elastic Compliance Matrix: (Units=1/GPa)
#
#
# Indices 1 2 3 4 5 6 
#
# 1 0.008297 -0.001947 -0.000918 0.000000 0.000000 0.000000
# 2 -0.001947 0.009616 -0.002221 0.000000 0.000000 0.000000
# 3 -0.000918 -0.002221 0.006994 0.000000 0.000000 0.000000
# 4 0.000000 0.000000 0.000000 0.116417 0.000000 0.000000
# 5 0.000000 0.000000 0.000000 0.000000 0.082238 0.000000
# 6 0.000000 0.000000 0.000000 0.000000 0.000000 0.023632
#
#
# Mechanical properties :
#
#
# Convention : Reuss Voigt Hill
#
# Bulk Modulus (GPa) = 67.86813 68.73704 68.30258
# Shear Modulus (GPa) = 19.06368 33.19118 26.12743
#
# Velocity S-wave (km/s) = 2.76836 3.65284 3.24092
# Velocity P-wave (km/s) = 6.12391 6.73974 6.43919
#
# Compressibility (1/GPa) = 0.01473446
#
# Stress axis : x y z
#
# Youngs Moduli (GPa) = 120.52277 103.99444 142.97791
#
# Poissons Ratio (x) = 0.20250 0.13130
# Poissons Ratio (y) = 0.23468 0.31753
# Poissons Ratio (z) = 0.11068 0.23095
#
# Static dielectric constant tensor:
#      x y z
#    x 2.099120 0.000000 0.000000 
#    y 0.000000 2.032740 0.000000 
#    z 0.000000 0.000000 1.956410 
# 
# From -- ./inp_files/44710.got.cif
#   From: 2010.05.17/outbox.cif.g08.bks.cpg/sg72_23_cif.got.tgz:44710.got - 2010.06.03 17:03:01.
