data_PCOD9527751
_publ_section_title
;
Structure prediction by ZEFSAII (Michael W. Deem and Ramdas Pophale) SiO2 
 PCOD9527751
Probable space group: I B A M
;
_chemical_formula_sum "Si O2"
_cell_formula_units_Z 104
_cell_length_a 26.632516
_cell_length_b 22.066324
_cell_length_c 9.271572
_cell_angle_alpha 90.000000
_cell_angle_beta 90.000000
_cell_angle_gamma 90.000000
_cell_volume 5448.733445
_symmetry_space_group_name_H-M "I B A M"
_symmetry_group_IT_number 72
_symmetry_cell_setting 'orthorhombic'
loop_
_space_group_symop_operation_xyz
x,y,z
-x,-y,z
x,-y,1/2-z
-x,y,1/2-z
-x,-y,-z
x,y,-z
-x,y,1/2+z
x,-y,1/2+z
1/2+x,1/2+y,1/2+z
1/2-x,1/2-y,1/2+z
1/2+x,1/2-y,-z
1/2-x,1/2+y,-z
1/2-x,1/2-y,1/2-z
1/2+x,1/2+y,1/2-z
1/2-x,1/2+y,z
1/2+x,1/2-y,z
loop_
_atom_site_type_symbol
_atom_site_label
_atom_site_fract_x
_atom_site_fract_y
_atom_site_fract_z
Si Si1 0.445950 0.182571 0.173347
Si Si2 0.290187 0.574576 0.153291
Si Si3 0.613765 0.559623 0.829199
Si Si4 0.642370 0.879349 0.331666
Si Si5 0.553498 0.679476 0.172778
Si Si6 0.302280 0.000000 0.250000
Si Si7 0.271353 0.193308 0.834283
O O1 0.500000 0.177717 0.250000
O O2 0.408317 0.134573 0.244513
O O3 0.427300 0.252022 0.202427
O O4 0.449577 0.175042 0.000000
O O5 0.327755 0.562357 0.283425
O O6 0.238336 0.537028 0.155661
O O7 0.272534 0.643484 0.160184
O O8 0.316476 0.562653 0.000000
O O9 0.592434 0.500000 0.750000
O O10 0.588627 0.623292 0.783393
O O11 0.608164 0.554131 0.000000
O O12 0.636520 0.864361 0.500000
O O13 0.683709 0.836954 0.255089
O O14 0.663081 0.948148 0.318945
O O15 0.500000 0.673373 0.250000
O O16 0.546617 0.675992 0.000000
O O17 0.250000 0.250000 0.750000
O O18 0.286615 0.206742 0.000000
#
# Coordination Sequence:
#
# PCOD9527751 Si02
#       7
#    16  16  16  16  16   8  16
#     4  10  21  41  66  93 123 158 199 251 309 371
#     4  10  21  37  57  82 113 154 200 243 293 351
#     4  11  23  37  56  84 116 154 201 247 298 354
#     4  11  23  39  63  93 123 162 206 253 309 368
#     4   9  21  40  61  86 115 153 195 244 303 361
#     4  10  22  40  63  86 121 160 206 246 300 360
#     4  10  22  38  56  85 121 157 200 249 302 360
#
# _framework density 19.087005999999999
#
# number of rings (size 3 to 8) (size 9 to 14) (size 15 to 20)
#    0.000    1.846    0.769    2.308    2.154    7.077 
#    0.000    1.923    0.000    1.846    0.000    0.000 
#    0.000    0.000    0.000    0.000    0.000    0.000 
#
# Total GULP energy -290028.865592 kJ/mol
# GULP energy per Si atom -5577.478184 kJ/mol
# Density = 1.904356 g / cm^3
# Si number density = 19.087006 Si / 1000 Ang^3
#
#
#
# Elastic Constant Matrix: (Units=GPa)
#
#
# Indices 1 2 3 4 5 6 
#
# 1 64.7050 45.5328 25.9876 0.0000 0.0000 0.0000
# 2 45.5328 119.5153 46.7719 0.0000 0.0000 0.0000
# 3 25.9876 46.7719 112.9073 0.0000 0.0000 0.0000
# 4 0.0000 0.0000 0.0000 17.3701 0.0000 0.0000
# 5 0.0000 0.0000 0.0000 0.0000 26.5003 0.0000
# 6 0.0000 0.0000 0.0000 0.0000 0.0000 28.4420
#
#
#
# Elastic Compliance Matrix: (Units=1/GPa)
#
#
# Indices 1 2 3 4 5 6 
#
# 1 0.021435 -0.007442 -0.001851 0.000000 0.000000 0.000000
# 2 -0.007442 0.012570 -0.003494 0.000000 0.000000 0.000000
# 3 -0.001851 -0.003494 0.010730 0.000000 0.000000 0.000000
# 4 0.000000 0.000000 0.000000 0.057570 0.000000 0.000000
# 5 0.000000 0.000000 0.000000 0.000000 0.037735 0.000000
# 6 0.000000 0.000000 0.000000 0.000000 0.000000 0.035159
#
#
# Mechanical properties :
#
#
# Convention : Reuss Voigt Hill
#
# Bulk Modulus (GPa) = 52.18877 59.30138 55.74507
# Shear Modulus (GPa) = 24.13584 26.38484 25.26034
#
# Velocity S-wave (km/s) = 3.55986 3.72202 3.64185
# Velocity P-wave (km/s) = 6.65573 7.04327 6.85224
#
# Compressibility (1/GPa) = 0.01916121
#
# Stress axis : x y z
#
# Youngs Moduli (GPa) = 46.65268 79.55585 93.19429
#
# Poissons Ratio (x) = 0.59205 0.17248
# Poissons Ratio (y) = 0.34719 0.32563
# Poissons Ratio (z) = 0.08634 0.27798
#
# Static dielectric constant tensor:
#      x y z
#    x 1.644040 0.000000 0.000000 
#    y 0.000000 1.701150 0.000000 
#    z 0.000000 0.000000 1.685080 
# 
# From -- ./inp_files/8166.got.cif
#   From: 2010.05.17/outbox.cif.g08.bks.cpg/sg72_5_cif.got.tgz:8166.got - 2010.06.03 17:03:01.
