data_PCOD9527077
_publ_section_title
;
Structure prediction by ZEFSAII (Michael W. Deem and Ramdas Pophale) SiO2 
 PCOD9527077
Probable space group: I B A M
;
_chemical_formula_sum "Si O2"
_cell_formula_units_Z 112
_cell_length_a 16.279206
_cell_length_b 23.041744
_cell_length_c 13.769443
_cell_angle_alpha 90.000000
_cell_angle_beta 90.000000
_cell_angle_gamma 90.000000
_cell_volume 5164.935931
_symmetry_space_group_name_H-M "I B A M"
_symmetry_group_IT_number 72
_symmetry_cell_setting 'orthorhombic'
loop_
_space_group_symop_operation_xyz
x,y,z
-x,-y,z
x,-y,1/2-z
-x,y,1/2-z
-x,-y,-z
x,y,-z
-x,y,1/2+z
x,-y,1/2+z
1/2+x,1/2+y,1/2+z
1/2-x,1/2-y,1/2+z
1/2+x,1/2-y,-z
1/2-x,1/2+y,-z
1/2-x,1/2-y,1/2-z
1/2+x,1/2+y,1/2-z
1/2-x,1/2+y,z
1/2+x,1/2-y,z
loop_
_atom_site_type_symbol
_atom_site_label
_atom_site_fract_x
_atom_site_fract_y
_atom_site_fract_z
Si Si1 0.696206 0.035351 0.887212
Si Si2 0.376149 0.841794 0.383856
Si Si3 0.327091 0.715793 0.386457
Si Si4 0.091164 0.148683 0.221150
Si Si5 0.951915 0.613969 0.117660
Si Si6 0.135081 0.734036 0.616004
Si Si7 0.260547 0.582791 0.192128
O O1 0.603746 0.057570 0.861976
O O2 0.750394 0.065550 0.804510
O O3 0.717750 0.968166 0.870450
O O4 0.710849 0.051340 0.000000
O O5 0.366140 0.850076 0.500000
O O6 0.383305 0.772876 0.369761
O O7 0.454202 0.879186 0.349119
O O8 0.294056 0.861730 0.331822
O O9 0.330159 0.700974 0.500000
O O10 0.360583 0.665868 0.318912
O O11 0.232468 0.731198 0.363336
O O12 0.094527 0.208649 0.160520
O O13 0.145738 0.099066 0.170353
O O14 0.000000 0.131657 0.250000
O O15 0.905074 0.673050 0.147784
O O16 0.956937 0.615918 0.000000
O O17 0.125904 0.737222 0.500000
#
# Coordination Sequence:
#
# PCOD9527077 Si02
#       7
#    16  16  16  16  16  16  16
#     4  10  23  44  65  87 119 159 209 267 319 375
#     4  10  20  36  59  91 131 167 206 252 304 375
#     4  10  21  38  60  89 130 175 212 255 316 384
#     4  12  25  39  61  94 130 165 211 268 319 387
#     4   9  19  35  58  90 126 166 209 255 306 369
#     4  10  20  37  62  92 130 172 210 254 318 386
#     4  11  24  41  65  89 117 164 214 258 321 382
#
# _framework density 21.684684000000001
#
# number of rings (size 3 to 8) (size 9 to 14) (size 15 to 20)
#    0.000    1.714    1.429    2.571    2.000    5.143 
#    0.000    5.000    0.000    0.857    0.000    0.000 
#    0.000    0.000    0.000    0.000    0.000    0.000 
#
# Total GULP energy -312994.244462 kJ/mol
# GULP energy per Si atom -5589.182937 kJ/mol
# Density = 2.163533 g / cm^3
# Si number density = 21.684684 Si / 1000 Ang^3
#
#
#
# Elastic Constant Matrix: (Units=GPa)
#
#
# Indices 1 2 3 4 5 6 
#
# 1 122.6678 35.3384 5.6900 0.0000 0.0000 0.0000
# 2 35.3384 55.4619 13.8797 0.0000 0.0000 0.0000
# 3 5.6900 13.8797 61.2605 0.0000 0.0000 0.0000
# 4 0.0000 0.0000 0.0000 18.5317 0.0000 0.0000
# 5 0.0000 0.0000 0.0000 0.0000 22.3419 0.0000
# 6 0.0000 0.0000 0.0000 0.0000 0.0000 29.2950
#
#
#
# Elastic Compliance Matrix: (Units=1/GPa)
#
#
# Indices 1 2 3 4 5 6 
#
# 1 0.010002 -0.006510 0.000546 0.000000 0.000000 0.000000
# 2 -0.006510 0.023351 -0.004686 0.000000 0.000000 0.000000
# 3 0.000546 -0.004686 0.017335 0.000000 0.000000 0.000000
# 4 0.000000 0.000000 0.000000 0.053962 0.000000 0.000000
# 5 0.000000 0.000000 0.000000 0.000000 0.044759 0.000000
# 6 0.000000 0.000000 0.000000 0.000000 0.000000 0.034136
#
#
# Mechanical properties :
#
#
# Convention : Reuss Voigt Hill
#
# Bulk Modulus (GPa) = 34.02721 38.80072 36.41397
# Shear Modulus (GPa) = 23.29492 26.33252 24.81372
#
# Velocity S-wave (km/s) = 3.28114 3.48851 3.38642
# Velocity P-wave (km/s) = 5.48456 5.84451 5.66739
#
# Compressibility (1/GPa) = 0.02938824
#
# Stress axis : x y z
#
# Youngs Moduli (GPa) = 99.97928 42.82514 57.68773
#
# Poissons Ratio (x) = 0.27877 -0.03149
# Poissons Ratio (y) = 0.65082 0.27032
# Poissons Ratio (z) = -0.05457 0.20068
#
# Static dielectric constant tensor:
#      x y z
#    x 1.782040 0.000000 0.000000 
#    y 0.000000 1.834630 0.000000 
#    z 0.000000 0.000000 1.833270 
# 
# From -- ./inp_files/22086.got.cif
#   From: 2010.05.17/outbox.cif.g08.bks.cpg/sg72_12_cif.got.tgz:22086.got - 2010.06.03 17:03:01.
