data_PCOD9527826
_publ_section_title
;
Structure prediction by ZEFSAII (Michael W. Deem and Ramdas Pophale) SiO2 
 PCOD9527826
Probable space group: I B A M
;
_chemical_formula_sum "Si O2"
_cell_formula_units_Z 64
_cell_length_a 21.913615
_cell_length_b 12.955393
_cell_length_c 10.208239
_cell_angle_alpha 90.000000
_cell_angle_beta 90.000000
_cell_angle_gamma 90.000000
_cell_volume 2898.113891
_symmetry_space_group_name_H-M "I B A M"
_symmetry_group_IT_number 72
_symmetry_cell_setting 'orthorhombic'
loop_
_space_group_symop_operation_xyz
x,y,z
-x,-y,z
x,-y,1/2-z
-x,y,1/2-z
-x,-y,-z
x,y,-z
-x,y,1/2+z
x,-y,1/2+z
1/2+x,1/2+y,1/2+z
1/2-x,1/2-y,1/2+z
1/2+x,1/2-y,-z
1/2-x,1/2+y,-z
1/2-x,1/2-y,1/2-z
1/2+x,1/2+y,1/2-z
1/2-x,1/2+y,z
1/2+x,1/2-y,z
loop_
_atom_site_type_symbol
_atom_site_label
_atom_site_fract_x
_atom_site_fract_y
_atom_site_fract_z
Si Si1 0.189829 0.820101 0.359143
Si Si2 0.903186 0.908314 0.656106
Si Si3 0.321340 0.118923 0.779681
Si Si4 0.046152 0.681190 0.857424
O O1 0.164920 0.855036 0.500000
O O2 0.158947 0.875267 0.233763
O O3 0.261786 0.841233 0.355822
O O4 0.177184 0.698570 0.341779
O O5 0.895670 0.931671 0.500000
O O6 0.943207 0.804234 0.660644
O O7 0.927119 0.000000 0.750000
O O8 0.386455 0.133521 0.847810
O O9 0.311953 0.000000 0.750000
O O10 0.000000 0.641262 0.750000
O O11 0.019714 0.662710 0.000000
#
# Coordination Sequence:
#
# PCOD9527826 Si02
#       4
#    16  16  16  16
#     4  10  21  37  61  94 128 159 196 245 301 363
#     4  10  21  38  62  91 124 159 197 246 304 365
#     4  10  22  39  61  90 123 159 201 246 299 357
#     4  10  23  42  60  83 118 158 203 254 299 348
#
# _framework density 22.083328000000002
#
# number of rings (size 3 to 8) (size 9 to 14) (size 15 to 20)
#    0.000    2.000    0.000    2.250    0.000   14.000 
#    0.000    3.750    0.000    0.000    0.000    0.000 
#    0.000    0.000    0.000    0.000    0.000    0.000 
#
# Total GULP energy -178536.447462 kJ/mol
# GULP energy per Si atom -5579.263983 kJ/mol
# Density = 2.203307 g / cm^3
# Si number density = 22.083328 Si / 1000 Ang^3
#
#
#
# Elastic Constant Matrix: (Units=GPa)
#
#
# Indices 1 2 3 4 5 6 
#
# 1 82.6798 6.0050 58.0499 0.0000 0.0000 0.0000
# 2 6.0050 104.3576 19.2893 0.0000 0.0000 0.0000
# 3 58.0499 19.2893 182.4236 0.0000 0.0000 0.0000
# 4 0.0000 0.0000 0.0000 3.8594 0.0000 0.0000
# 5 0.0000 0.0000 0.0000 0.0000 -7.7179 0.0000
# 6 0.0000 0.0000 0.0000 0.0000 0.0000 -6.9324
#
#
#
# Elastic Compliance Matrix: (Units=1/GPa)
#
#
# Indices 1 2 3 4 5 6 
#
# 1 0.015575 0.000020 -0.004958 0.000000 0.000000 0.000000
# 2 0.000020 0.009773 -0.001040 0.000000 0.000000 0.000000
# 3 -0.004958 -0.001040 0.007169 0.000000 0.000000 0.000000
# 4 0.000000 0.000000 0.000000 0.259111 0.000000 0.000000
# 5 0.000000 0.000000 0.000000 0.000000 -0.129568 0.000000
# 6 0.000000 0.000000 0.000000 0.000000 0.000000 -0.144251
#
#
# Mechanical properties :
#
#
# Convention : Reuss Voigt Hill
#
# Bulk Modulus (GPa) = 48.63370 59.57217 54.10293
# Shear Modulus (GPa) = 136.54282 16.91626 76.72954
#
# Velocity S-wave (km/s) = 7.87178 2.77071 5.90092
# Velocity P-wave (km/s) = 10.23184 6.10495 8.42499
#
# Compressibility (1/GPa) = 0.02056187
#
# Stress axis : x y z
#
# Youngs Moduli (GPa) = 64.20722 102.31770 139.48014
#
# Poissons Ratio (x) = -0.00207 0.69157
# Poissons Ratio (y) = -0.00130 0.14504
# Poissons Ratio (z) = 0.31835 0.10640
#
# Static dielectric constant tensor:
#      x y z
#    x 1.797900 0.000000 0.000000 
#    y 0.000000 1.827630 0.000000 
#    z 0.000000 0.000000 1.830590 
# 
# From -- ./inp_files/6628.got.cif
#   From: 2010.05.17/outbox.cif.g08.bks.cpg/sg72_4_cif.got.tgz:6628.got - 2010.06.03 17:03:01.
