data_PCOD9527990
_publ_section_title
;
Structure prediction by ZEFSAII (Michael W. Deem and Ramdas Pophale) SiO2 
 PCOD9527990
Probable space group: I B A M
;
_chemical_formula_sum "Si O2"
_cell_formula_units_Z 112
_cell_length_a 25.444289
_cell_length_b 12.962719
_cell_length_c 15.531632
_cell_angle_alpha 90.000000
_cell_angle_beta 90.000000
_cell_angle_gamma 90.000000
_cell_volume 5122.754204
_symmetry_space_group_name_H-M "I B A M"
_symmetry_group_IT_number 72
_symmetry_cell_setting 'orthorhombic'
loop_
_space_group_symop_operation_xyz
x,y,z
-x,-y,z
x,-y,1/2-z
-x,y,1/2-z
-x,-y,-z
x,y,-z
-x,y,1/2+z
x,-y,1/2+z
1/2+x,1/2+y,1/2+z
1/2-x,1/2-y,1/2+z
1/2+x,1/2-y,-z
1/2-x,1/2+y,-z
1/2-x,1/2-y,1/2-z
1/2+x,1/2+y,1/2-z
1/2-x,1/2+y,z
1/2+x,1/2-y,z
loop_
_atom_site_type_symbol
_atom_site_label
_atom_site_fract_x
_atom_site_fract_y
_atom_site_fract_z
Si Si1 0.814488 0.196946 0.337273
Si Si2 0.961595 0.092194 0.894973
Si Si3 0.152409 0.021606 0.401380
Si Si4 0.996678 0.315692 0.100053
Si Si5 0.616936 0.099568 0.365722
Si Si6 0.298633 0.732483 0.633151
Si Si7 0.108510 0.375595 0.839544
O O1 0.828472 0.077880 0.350549
O O2 0.759542 0.225112 0.382325
O O3 0.806217 0.219162 0.236090
O O4 0.860762 0.273167 0.368183
O O5 0.982846 0.202046 0.864525
O O6 0.902644 0.066845 0.866317
O O7 0.960209 0.098101 0.000000
O O8 0.000000 0.000000 0.870254
O O9 0.143370 0.987552 0.500000
O O10 0.191630 0.118145 0.401703
O O11 0.942294 0.377463 0.105027
O O12 0.046270 0.364576 0.146856
O O13 0.011986 0.306383 0.000000
O O14 0.657729 0.185450 0.398473
O O15 0.617481 0.111475 0.262324
O O16 0.629166 0.980128 0.384201
#
# Coordination Sequence:
#
# PCOD9527990 Si02
#       7
#    16  16  16  16  16  16  16
#     4  10  23  40  65  91 117 159 206 253 299 356
#     4   9  18  33  55  81 114 156 193 231 286 353
#     4  11  22  39  62  89 126 161 195 246 306 363
#     4  11  21  36  58  86 120 158 198 241 300 364
#     4  10  21  39  60  86 120 158 200 249 301 354
#     4  10  22  41  65  89 119 158 206 255 299 356
#     4  10  22  38  60  88 119 157 202 251 298 350
#
# _framework density 21.863240000000001
#
# number of rings (size 3 to 8) (size 9 to 14) (size 15 to 20)
#    0.000    1.857    1.429    2.143    2.000    4.571 
#    0.000    0.000    0.000    0.000    0.000    0.000 
#    0.000    0.000    0.000    0.000    0.000    0.000 
#
# Total GULP energy -313053.049429 kJ/mol
# GULP energy per Si atom -5590.233026 kJ/mol
# Density = 2.181348 g / cm^3
# Si number density = 21.863240 Si / 1000 Ang^3
#
#
#
# Elastic Constant Matrix: (Units=GPa)
#
#
# Indices 1 2 3 4 5 6 
#
# 1 87.5999 39.3117 8.5280 0.0000 0.0000 0.0000
# 2 39.3117 153.1395 13.2790 0.0000 0.0000 0.0000
# 3 8.5280 13.2790 32.6304 0.0000 0.0000 0.0000
# 4 0.0000 0.0000 0.0000 12.4258 0.0000 0.0000
# 5 0.0000 0.0000 0.0000 0.0000 -1.3355 0.0000
# 6 0.0000 0.0000 0.0000 0.0000 0.0000 22.9869
#
#
#
# Elastic Compliance Matrix: (Units=1/GPa)
#
#
# Indices 1 2 3 4 5 6 
#
# 1 0.013042 -0.003164 -0.002121 0.000000 0.000000 0.000000
# 2 -0.003164 0.007536 -0.002240 0.000000 0.000000 0.000000
# 3 -0.002121 -0.002240 0.032112 0.000000 0.000000 0.000000
# 4 0.000000 0.000000 0.000000 0.080478 0.000000 0.000000
# 5 0.000000 0.000000 0.000000 0.000000 -0.748798 0.000000
# 6 0.000000 0.000000 0.000000 0.000000 0.000000 0.043503
#
#
# Mechanical properties :
#
#
# Convention : Reuss Voigt Hill
#
# Bulk Modulus (GPa) = 26.56708 43.95635 35.26171
# Shear Modulus (GPa) = -9.18223 20.96552 5.89165
#
# Velocity S-wave (km/s) = -2.05158 3.10003 1.64336
# Velocity P-wave (km/s) = 2.56240 5.74129 4.44569
#
# Compressibility (1/GPa) = 0.03764057
#
# Stress axis : x y z
#
# Youngs Moduli (GPa) = 76.67584 132.68837 31.14083
#
# Poissons Ratio (x) = 0.41983 0.06605
# Poissons Ratio (y) = 0.24260 0.06976
# Poissons Ratio (z) = 0.16262 0.29723
#
# Static dielectric constant tensor:
#      x y z
#    x 1.762340 0.000000 0.000000 
#    y 0.000000 1.783510 0.000000 
#    z 0.000000 0.000000 1.890470 
# 
# From -- ./inp_files/40340.got.cif
#   From: 2010.05.17/outbox.cif.g08.bks.cpg/sg72_21_cif.got.tgz:40340.got - 2010.06.03 17:03:01.
