data_PCOD9527737
_publ_section_title
;
Structure prediction by ZEFSAII (Michael W. Deem and Ramdas Pophale) SiO2 
 PCOD9527737
Probable space group: I B A M
;
_chemical_formula_sum "Si O2"
_cell_formula_units_Z 80
_cell_length_a 24.221135
_cell_length_b 9.372126
_cell_length_c 15.233416
_cell_angle_alpha 90.000000
_cell_angle_beta 90.000000
_cell_angle_gamma 90.000000
_cell_volume 3458.039192
_symmetry_space_group_name_H-M "I B A M"
_symmetry_group_IT_number 72
_symmetry_cell_setting 'orthorhombic'
loop_
_space_group_symop_operation_xyz
x,y,z
-x,-y,z
x,-y,1/2-z
-x,y,1/2-z
-x,-y,-z
x,y,-z
-x,y,1/2+z
x,-y,1/2+z
1/2+x,1/2+y,1/2+z
1/2-x,1/2-y,1/2+z
1/2+x,1/2-y,-z
1/2-x,1/2+y,-z
1/2-x,1/2-y,1/2-z
1/2+x,1/2+y,1/2-z
1/2-x,1/2+y,z
1/2+x,1/2-y,z
loop_
_atom_site_type_symbol
_atom_site_label
_atom_site_fract_x
_atom_site_fract_y
_atom_site_fract_z
Si Si1 0.444224 0.677379 0.355434
Si Si2 0.248279 0.540451 0.599541
Si Si3 0.185132 0.201548 0.839017
Si Si4 0.565496 0.650943 0.358302
Si Si5 0.145625 0.617732 0.819676
O O1 0.506333 0.712714 0.386100
O O2 0.432726 0.515619 0.384858
O O3 0.439379 0.663665 0.248426
O O4 0.399807 0.798364 0.375096
O O5 0.264889 0.519131 0.500000
O O6 0.232134 0.703881 0.615387
O O7 0.294712 0.460815 0.656237
O O8 0.190768 0.463387 0.623621
O O9 0.124496 0.215760 0.882603
O O10 0.176769 0.268263 0.742905
O O11 0.121976 0.500000 0.750000
#
# Coordination Sequence:
#
# PCOD9527737 Si02
#       5
#    16  16  16  16  16
#     4   8  14  29  54  84 112 138 175 227 286 336
#     4  11  23  38  54  77 112 153 192 231 281 335
#     4  10  21  37  56  82 111 146 189 235 278 333
#     4   8  15  29  53  83 111 140 179 230 280 329
#     4   9  19  35  56  85 113 143 186 234 283 336
#
# _framework density 23.134498000000001
#
# number of rings (size 3 to 8) (size 9 to 14) (size 15 to 20)
#    0.000    2.800    0.000    2.400    2.800    0.000 
#    7.200   17.000    0.000    3.600    0.000    7.000 
#    0.000    0.000    0.000    0.000    0.000    0.000 
#
# Total GULP energy -223210.557205 kJ/mol
# GULP energy per Si atom -5580.263930 kJ/mol
# Density = 2.308184 g / cm^3
# Si number density = 23.134498 Si / 1000 Ang^3
#
#
#
# Elastic Constant Matrix: (Units=GPa)
#
#
# Indices 1 2 3 4 5 6 
#
# 1 89.7816 33.4259 9.2975 0.0000 0.0000 0.0000
# 2 33.4259 70.1279 15.9801 0.0000 0.0000 0.0000
# 3 9.2975 15.9801 53.6555 0.0000 0.0000 0.0000
# 4 0.0000 0.0000 0.0000 5.3398 0.0000 0.0000
# 5 0.0000 0.0000 0.0000 0.0000 -13.5446 0.0000
# 6 0.0000 0.0000 0.0000 0.0000 0.0000 44.5549
#
#
#
# Elastic Compliance Matrix: (Units=1/GPa)
#
#
# Indices 1 2 3 4 5 6 
#
# 1 0.013551 -0.006355 -0.000455 0.000000 0.000000 0.000000
# 2 -0.006355 0.018278 -0.004343 0.000000 0.000000 0.000000
# 3 -0.000455 -0.004343 0.020010 0.000000 0.000000 0.000000
# 4 0.000000 0.000000 0.000000 0.187273 0.000000 0.000000
# 5 0.000000 0.000000 0.000000 0.000000 -0.073830 0.000000
# 6 0.000000 0.000000 0.000000 0.000000 0.000000 0.022444
#
#
# Mechanical properties :
#
#
# Convention : Reuss Voigt Hill
#
# Bulk Modulus (GPa) = 33.86062 36.77467 35.31765
# Shear Modulus (GPa) = 22.73989 17.59412 20.16701
#
# Velocity S-wave (km/s) = 3.13859 2.76073 2.95571
# Velocity P-wave (km/s) = 5.27281 5.10811 5.19111
#
# Compressibility (1/GPa) = 0.02953283
#
# Stress axis : x y z
#
# Youngs Moduli (GPa) = 73.79296 54.70919 49.97579
#
# Poissons Ratio (x) = 0.34770 0.02276
# Poissons Ratio (y) = 0.46898 0.21702
# Poissons Ratio (z) = 0.03360 0.23758
#
# Static dielectric constant tensor:
#      x y z
#    x 1.897190 0.000000 0.000000 
#    y 0.000000 1.892470 0.000000 
#    z 0.000000 0.000000 1.917420 
# 
# From -- ./inp_files/33773.got.cif
#   From: 2010.05.17/outbox.cif.g08.bks.cpg/sg72_17_cif.got.tgz:33773.got - 2010.06.03 17:03:01.
