data_PCOD9527819
_publ_section_title
;
Structure prediction by ZEFSAII (Michael W. Deem and Ramdas Pophale) SiO2 
 PCOD9527819
Probable space group: I B A M
;
_chemical_formula_sum "Si O2"
_cell_formula_units_Z 88
_cell_length_a 20.167728
_cell_length_b 14.399978
_cell_length_c 14.922899
_cell_angle_alpha 90.000000
_cell_angle_beta 90.000000
_cell_angle_gamma 90.000000
_cell_volume 4333.831318
_symmetry_space_group_name_H-M "I B A M"
_symmetry_group_IT_number 72
_symmetry_cell_setting 'orthorhombic'
loop_
_space_group_symop_operation_xyz
x,y,z
-x,-y,z
x,-y,1/2-z
-x,y,1/2-z
-x,-y,-z
x,y,-z
-x,y,1/2+z
x,-y,1/2+z
1/2+x,1/2+y,1/2+z
1/2-x,1/2-y,1/2+z
1/2+x,1/2-y,-z
1/2-x,1/2+y,-z
1/2-x,1/2-y,1/2-z
1/2+x,1/2+y,1/2-z
1/2-x,1/2+y,z
1/2+x,1/2-y,z
loop_
_atom_site_type_symbol
_atom_site_label
_atom_site_fract_x
_atom_site_fract_y
_atom_site_fract_z
Si Si1 0.536691 0.086147 0.846064
Si Si2 0.888651 0.907202 0.894477
Si Si3 0.768995 0.143708 0.264457
Si Si4 0.508290 0.712909 0.104243
Si Si5 0.136856 0.119996 0.395822
Si Si6 0.658082 0.000000 0.750000
O O1 0.500000 0.096784 0.750000
O O2 0.522697 0.184731 0.889946
O O3 0.500000 0.000000 0.892906
O O4 0.610330 0.051301 0.821984
O O5 0.825551 0.873424 0.838263
O O6 0.953940 0.856924 0.857322
O O7 0.895815 0.018109 0.890061
O O8 0.880170 0.883162 0.000000
O O9 0.750000 0.250000 0.250000
O O10 0.800613 0.114448 0.169240
O O11 0.705977 0.080000 0.287371
O O12 0.582962 0.695774 0.138566
O O13 0.515560 0.687258 0.000000
O O14 0.155043 0.137581 0.500000
#
# Coordination Sequence:
#
# PCOD9527819 Si02
#       6
#    16  16  16  16  16   8
#     4   9  21  38  62  84 118 156 203 255 307 359
#     4  10  21  40  60  89 125 160 202 256 312 372
#     4  12  24  38  64  88 126 168 208 252 309 381
#     4  10  21  37  61  91 119 157 205 259 315 361
#     4  10  22  40  62  91 126 158 205 261 312 369
#     4  10  21  42  56  91 120 162 210 248 304 379
#
# _framework density 20.305357999999998
#
# number of rings (size 3 to 8) (size 9 to 14) (size 15 to 20)
#    0.000    2.000    1.818    1.636    7.636    3.273 
#    0.000    3.636    0.000    1.091    0.000    0.000 
#    0.000    0.000    0.000    0.000    0.000    0.000 
#
# Total GULP energy -245412.137059 kJ/mol
# GULP energy per Si atom -5577.548570 kJ/mol
# Density = 2.025914 g / cm^3
# Si number density = 20.305358 Si / 1000 Ang^3
#
#
#
# Elastic Constant Matrix: (Units=GPa)
#
#
# Indices 1 2 3 4 5 6 
#
# 1 95.2159 17.6299 19.2691 0.0000 0.0000 0.0000
# 2 17.6299 88.0667 0.7923 0.0000 0.0000 0.0000
# 3 19.2691 0.7923 64.3933 0.0000 0.0000 0.0000
# 4 0.0000 0.0000 0.0000 28.6045 0.0000 0.0000
# 5 0.0000 0.0000 0.0000 0.0000 -120.7582 0.0000
# 6 0.0000 0.0000 0.0000 0.0000 0.0000 35.5362
#
#
#
# Elastic Compliance Matrix: (Units=1/GPa)
#
#
# Indices 1 2 3 4 5 6 
#
# 1 0.011626 -0.002296 -0.003451 0.000000 0.000000 0.000000
# 2 -0.002296 0.011810 0.000542 0.000000 0.000000 0.000000
# 3 -0.003451 0.000542 0.016555 0.000000 0.000000 0.000000
# 4 0.000000 0.000000 0.000000 0.034960 0.000000 0.000000
# 5 0.000000 0.000000 0.000000 0.000000 -0.008281 0.000000
# 6 0.000000 0.000000 0.000000 0.000000 0.000000 0.028140
#
#
# Mechanical properties :
#
#
# Convention : Reuss Voigt Hill
#
# Bulk Modulus (GPa) = 33.80556 35.89538 34.85047
# Shear Modulus (GPa) = 43.44770 2.67547 23.06159
#
# Velocity S-wave (km/s) = 4.63072 1.14912 3.37373
# Velocity P-wave (km/s) = 6.72876 4.41325 5.69004
#
# Compressibility (1/GPa) = 0.02958093
#
# Stress axis : x y z
#
# Youngs Moduli (GPa) = 86.01443 84.67505 60.40289
#
# Poissons Ratio (x) = 0.19444 0.20843
# Poissons Ratio (y) = 0.19752 -0.03273
# Poissons Ratio (z) = 0.29681 -0.04588
#
# Static dielectric constant tensor:
#      x y z
#    x 1.753940 0.000000 0.000000 
#    y 0.000000 1.717890 0.000000 
#    z 0.000000 0.000000 1.731270 
# 
# From -- ./inp_files/24053.got.cif
#   From: 2010.05.17/outbox.cif.g08.bks.cpg/sg72_13_cif.got.tgz:24053.got - 2010.06.03 17:03:01.
