data_PCOD9527516
_publ_section_title
;
Structure prediction by ZEFSAII (Michael W. Deem and Ramdas Pophale) SiO2 
 PCOD9527516
Probable space group: I B A M
;
_chemical_formula_sum "Si O2"
_cell_formula_units_Z 92
_cell_length_a 17.801479
_cell_length_b 20.162091
_cell_length_c 14.235177
_cell_angle_alpha 90.000000
_cell_angle_beta 90.000000
_cell_angle_gamma 90.000000
_cell_volume 5109.219116
_symmetry_space_group_name_H-M "I B A M"
_symmetry_group_IT_number 72
_symmetry_cell_setting 'orthorhombic'
loop_
_space_group_symop_operation_xyz
x,y,z
-x,-y,z
x,-y,1/2-z
-x,y,1/2-z
-x,-y,-z
x,y,-z
-x,y,1/2+z
x,-y,1/2+z
1/2+x,1/2+y,1/2+z
1/2-x,1/2-y,1/2+z
1/2+x,1/2-y,-z
1/2-x,1/2+y,-z
1/2-x,1/2-y,1/2-z
1/2+x,1/2+y,1/2-z
1/2-x,1/2+y,z
1/2+x,1/2-y,z
loop_
_atom_site_type_symbol
_atom_site_label
_atom_site_fract_x
_atom_site_fract_y
_atom_site_fract_z
Si Si1 0.777827 0.065640 0.309487
Si Si2 0.389700 0.079663 0.110960
Si Si3 0.334550 0.380783 0.500000
Si Si4 0.500000 0.000000 0.750000
Si Si5 0.948580 0.278578 0.163203
Si Si6 0.724678 0.764129 0.500000
Si Si7 0.443252 0.266781 0.500000
Si Si8 0.699431 0.301147 0.692337
O O1 0.692099 0.064746 0.346555
O O2 0.823980 0.077956 0.405349
O O3 0.791682 0.128263 0.241587
O O4 0.794382 0.000000 0.250000
O O5 0.448574 0.042885 0.179103
O O6 0.406405 0.157957 0.120460
O O7 0.394517 0.061192 0.000000
O O8 0.274935 0.317507 0.500000
O O9 0.412736 0.341508 0.500000
O O10 0.885641 0.225382 0.192260
O O11 0.000000 0.300165 0.250000
O O12 0.006069 0.248709 0.088721
O O13 0.634454 0.775893 0.500000
O O14 0.765693 0.795114 0.410982
O O15 0.750000 0.250000 0.750000
#
# Coordination Sequence:
#
# PCOD9527516 Si02
#       8
#    16  16   8   4  16   8   8  16
#     4  12  25  42  67  92 132 178 221 270 331 398
#     4  12  24  41  62  88 129 180 218 257 324 391
#     4  10  20  43  66  91 126 168 219 280 331 386
#     4  12  26  44  56  90 144 184 210 260 308 414
#     4  12  22  37  64  95 129 162 212 277 334 386
#     4  10  21  38  65  95 127 163 215 283 323 388
#     4  10  23  39  63 100 123 165 206 276 341 383
#     4  12  22  39  66  96 126 171 228 276 326 395
#
# _framework density 18.006664000000001
#
# number of rings (size 3 to 8) (size 9 to 14) (size 15 to 20)
#    0.522    0.000    6.957    2.870    0.000    0.696 
#    0.000    0.000    0.000    5.739    0.000    0.000 
#    0.000    0.000    0.000    0.000    0.000    0.000 
#
# Total GULP energy -256814.375706 kJ/mol
# GULP energy per Si atom -5582.921211 kJ/mol
# Density = 1.796568 g / cm^3
# Si number density = 18.006664 Si / 1000 Ang^3
#
#
#
# Elastic Constant Matrix: (Units=GPa)
#
#
# Indices 1 2 3 4 5 6 
#
# 1 37.6613 8.7527 13.7895 0.0000 0.0000 0.0000
# 2 8.7527 116.6556 56.5916 0.0000 0.0000 0.0000
# 3 13.7895 56.5916 154.1619 0.0000 0.0000 0.0000
# 4 0.0000 0.0000 0.0000 28.8340 0.0000 0.0000
# 5 0.0000 0.0000 0.0000 0.0000 29.6549 0.0000
# 6 0.0000 0.0000 0.0000 0.0000 0.0000 25.9343
#
#
#
# Elastic Compliance Matrix: (Units=1/GPa)
#
#
# Indices 1 2 3 4 5 6 
#
# 1 0.027559 -0.001061 -0.002076 0.000000 0.000000 0.000000
# 2 -0.001061 0.010470 -0.003749 0.000000 0.000000 0.000000
# 3 -0.002076 -0.003749 0.008048 0.000000 0.000000 0.000000
# 4 0.000000 0.000000 0.000000 0.034681 0.000000 0.000000
# 5 0.000000 0.000000 0.000000 0.000000 0.033721 0.000000
# 6 0.000000 0.000000 0.000000 0.000000 0.000000 0.038559
#
#
# Mechanical properties :
#
#
# Convention : Reuss Voigt Hill
#
# Bulk Modulus (GPa) = 30.95261 51.86071 41.40666
# Shear Modulus (GPa) = 28.15651 32.17432 30.16542
#
# Velocity S-wave (km/s) = 3.95862 4.23164 4.09741
# Velocity P-wave (km/s) = 6.17423 7.26217 6.74018
#
# Compressibility (1/GPa) = 0.03230745
#
# Stress axis : x y z
#
# Youngs Moduli (GPa) = 36.28578 95.50740 124.24721
#
# Poissons Ratio (x) = 0.10132 0.25790
# Poissons Ratio (y) = 0.03849 0.46577
# Poissons Ratio (z) = 0.07532 0.35803
#
# Static dielectric constant tensor:
#      x y z
#    x 1.617050 0.000000 0.000000 
#    y 0.000000 1.597430 0.000000 
#    z 0.000000 0.000000 1.478090 
# 
# From -- ./inp_files/13835.got.cif
#   From: 2010.05.17/outbox.cif.g08.bks.cpg/sg72_7_cif.got.tgz:13835.got - 2010.06.03 17:03:01.
