data_PCOD9527977
_publ_section_title
;
Structure prediction by ZEFSAII (Michael W. Deem and Ramdas Pophale) SiO2 
 PCOD9527977
Probable space group: I B A M
;
_chemical_formula_sum "Si O2"
_cell_formula_units_Z 84
_cell_length_a 6.881377
_cell_length_b 28.512630
_cell_length_c 19.642619
_cell_angle_alpha 90.000000
_cell_angle_beta 90.000000
_cell_angle_gamma 90.000000
_cell_volume 3854.002773
_symmetry_space_group_name_H-M "I B A M"
_symmetry_group_IT_number 72
_symmetry_cell_setting 'orthorhombic'
loop_
_space_group_symop_operation_xyz
x,y,z
-x,-y,z
x,-y,1/2-z
-x,y,1/2-z
-x,-y,-z
x,y,-z
-x,y,1/2+z
x,-y,1/2+z
1/2+x,1/2+y,1/2+z
1/2-x,1/2-y,1/2+z
1/2+x,1/2-y,-z
1/2-x,1/2+y,-z
1/2-x,1/2-y,1/2-z
1/2+x,1/2+y,1/2-z
1/2-x,1/2+y,z
1/2+x,1/2-y,z
loop_
_atom_site_type_symbol
_atom_site_label
_atom_site_fract_x
_atom_site_fract_y
_atom_site_fract_z
Si Si1 0.925248 0.708725 0.500000
Si Si2 0.806227 0.113489 0.113810
Si Si3 0.125376 0.817318 0.000000
Si Si4 0.768273 0.959479 0.500000
Si Si5 0.500000 0.500000 0.250000
Si Si6 0.306926 0.937309 0.500000
Si Si7 0.652233 0.138143 0.609914
Si Si8 0.732134 0.916147 0.237391
O O1 0.946066 0.764266 0.500000
O O2 0.826183 0.686204 0.432728
O O3 0.141629 0.688329 0.500000
O O4 0.914955 0.153597 0.069460
O O5 0.579732 0.129159 0.113848
O O6 0.832135 0.100745 0.192382
O O7 0.833250 0.067423 0.067652
O O8 0.534962 0.950261 0.500000
O O9 0.803564 0.014294 0.500000
O O10 0.653541 0.536473 0.285154
O O11 0.271492 0.904571 0.564111
O O12 0.734530 0.126927 0.684026
O O13 0.500000 0.926770 0.250000
#
# Coordination Sequence:
#
# PCOD9527977 Si02
#       8
#     8  16   8   8   4   8  16  16
#     4   9  17  34  57  84 107 138 182 232 288 345
#     4   8  16  31  53  76 104 141 185 225 271 331
#     4   9  17  34  57  84 107 138 182 232 288 345
#     4   8  13  22  43  74  98 125 175 226 259 311
#     4  12  26  36  52  88 120 152 194 226 272 338
#     4   8  13  22  43  74  98 125 175 226 259 311
#     4   8  16  31  53  76 104 141 185 225 271 331
#     4  10  21  39  58  77 111 157 191 229 273 323
#
# _framework density 21.795521000000001
#
# number of rings (size 3 to 8) (size 9 to 14) (size 15 to 20)
#    0.000    3.238    0.000    2.571    2.667    0.000 
#    3.429    0.952    0.000    4.571    0.000    0.000 
#    0.000    0.000    0.000    0.000    0.000    0.000 
#
# Total GULP energy -234145.691962 kJ/mol
# GULP energy per Si atom -5574.897428 kJ/mol
# Density = 2.174591 g / cm^3
# Si number density = 21.795521 Si / 1000 Ang^3
#
#
#
# Elastic Constant Matrix: (Units=GPa)
#
#
# Indices 1 2 3 4 5 6 
#
# 1 103.7637 9.9757 -3.7694 0.0000 0.0000 0.0000
# 2 9.9757 146.7912 60.1454 0.0000 0.0000 0.0000
# 3 -3.7694 60.1454 153.2331 0.0000 0.0000 0.0000
# 4 0.0000 0.0000 0.0000 9.2080 0.0000 0.0000
# 5 0.0000 0.0000 0.0000 0.0000 -5.2785 0.0000
# 6 0.0000 0.0000 0.0000 0.0000 0.0000 32.1658
#
#
#
# Elastic Compliance Matrix: (Units=1/GPa)
#
#
# Indices 1 2 3 4 5 6 
#
# 1 0.009746 -0.000906 0.000595 0.000000 0.000000 0.000000
# 2 -0.000906 0.008202 -0.003242 0.000000 0.000000 0.000000
# 3 0.000595 -0.003242 0.007813 0.000000 0.000000 0.000000
# 4 0.000000 0.000000 0.000000 0.108601 0.000000 0.000000
# 5 0.000000 0.000000 0.000000 0.000000 -0.189447 0.000000
# 6 0.000000 0.000000 0.000000 0.000000 0.000000 0.031089
#
#
# Mechanical properties :
#
#
# Convention : Reuss Voigt Hill
#
# Bulk Modulus (GPa) = 53.60151 59.61015 56.60583
# Shear Modulus (GPa) = -468.54277 29.71481 -219.41398
#
# Velocity S-wave (km/s) = -14.67783 3.69636 -10.04429
# Velocity P-wave (km/s) = 16.20510 6.75474 10.41583
#
# Compressibility (1/GPa) = 0.01865619
#
# Stress axis : x y z
#
# Youngs Moduli (GPa) = 102.60572 121.91787 127.99066
#
# Poissons Ratio (x) = 0.11050 -0.07622
# Poissons Ratio (y) = 0.09299 0.41491
# Poissons Ratio (z) = -0.06110 0.39523
#
# Static dielectric constant tensor:
#      x y z
#    x 1.941050 0.000000 0.000000 
#    y 0.000000 1.775910 0.000000 
#    z 0.000000 0.000000 1.842500 
# 
# From -- ./inp_files/35976.got.cif
#   From: 2010.05.17/outbox.cif.g08.bks.cpg/sg72_18_cif.got.tgz:35976.got - 2010.06.03 17:03:01.
