data_PCOD9527415
_publ_section_title
;
Structure prediction by ZEFSAII (Michael W. Deem and Ramdas Pophale) SiO2 
 PCOD9527415
Probable space group: I B A M
;
_chemical_formula_sum "Si O2"
_cell_formula_units_Z 112
_cell_length_a 29.863636
_cell_length_b 11.067688
_cell_length_c 17.129697
_cell_angle_alpha 90.000000
_cell_angle_beta 90.000000
_cell_angle_gamma 90.000000
_cell_volume 5661.731533
_symmetry_space_group_name_H-M "I B A M"
_symmetry_group_IT_number 72
_symmetry_cell_setting 'orthorhombic'
loop_
_space_group_symop_operation_xyz
x,y,z
-x,-y,z
x,-y,1/2-z
-x,y,1/2-z
-x,-y,-z
x,y,-z
-x,y,1/2+z
x,-y,1/2+z
1/2+x,1/2+y,1/2+z
1/2-x,1/2-y,1/2+z
1/2+x,1/2-y,-z
1/2-x,1/2+y,-z
1/2-x,1/2-y,1/2-z
1/2+x,1/2+y,1/2-z
1/2-x,1/2+y,z
1/2+x,1/2-y,z
loop_
_atom_site_type_symbol
_atom_site_label
_atom_site_fract_x
_atom_site_fract_y
_atom_site_fract_z
Si Si1 0.004654 0.841303 0.410545
Si Si2 0.741402 0.721102 0.839953
Si Si3 0.612364 0.111513 0.410582
Si Si4 0.787675 0.481233 0.092980
Si Si5 0.023554 0.625894 0.827596
Si Si6 0.846830 0.125133 0.912258
Si Si7 0.074394 0.009532 0.157993
O O1 0.009228 0.874809 0.500000
O O2 0.990571 0.705319 0.400512
O O3 0.963890 0.915373 0.370930
O O4 0.051257 0.866711 0.367474
O O5 0.750000 0.750000 0.750000
O O6 0.773677 0.611159 0.869921
O O7 0.738114 0.856107 0.880168
O O8 0.693433 0.658172 0.855485
O O9 0.598451 0.075218 0.500000
O O10 0.659544 0.045981 0.392738
O O11 0.576071 0.101714 0.341364
O O12 0.623419 0.253972 0.415032
O O13 0.781215 0.490240 0.000000
O O14 0.000000 0.500000 0.832195
O O15 0.000000 0.684244 0.750000
O O16 0.879211 0.019727 0.883611
O O17 0.829531 0.102757 0.000000
O O18 0.079550 0.000000 0.250000
#
# Coordination Sequence:
#
# PCOD9527415 Si02
#       7
#    16  16  16  16  16  16  16
#     4  11  21  36  58  83 121 168 217 265 316 380
#     4  11  23  41  65 101 135 170 217 283 342 399
#     4   9  19  38  64  87 115 164 216 256 305 383
#     4  10  21  42  70  98 131 177 227 271 331 405
#     4  11  23  39  56  85 121 158 212 266 323 373
#     4  10  20  39  64  89 122 168 214 253 315 398
#     4  11  21  34  58  91 124 163 208 264 318 372
#
# _framework density 19.781932999999999
#
# number of rings (size 3 to 8) (size 9 to 14) (size 15 to 20)
#    0.000    1.571    1.429    6.429    0.000    2.286 
#   10.286    1.429    0.000    1.714    0.000    0.000 
#    0.000    0.000    0.000    0.000    0.000    0.000 
#
# Total GULP energy -311852.172428 kJ/mol
# GULP energy per Si atom -5568.788793 kJ/mol
# Density = 1.973691 g / cm^3
# Si number density = 19.781933 Si / 1000 Ang^3
#
#
#
# Elastic Constant Matrix: (Units=GPa)
#
#
# Indices 1 2 3 4 5 6 
#
# 1 103.2493 32.5609 60.3275 0.0000 0.0000 0.0000
# 2 32.5609 82.2905 35.5051 0.0000 0.0000 0.0000
# 3 60.3275 35.5051 116.0208 0.0000 0.0000 0.0000
# 4 0.0000 0.0000 0.0000 -8.2218 0.0000 0.0000
# 5 0.0000 0.0000 0.0000 0.0000 21.8362 0.0000
# 6 0.0000 0.0000 0.0000 0.0000 0.0000 33.9318
#
#
#
# Elastic Compliance Matrix: (Units=1/GPa)
#
#
# Indices 1 2 3 4 5 6 
#
# 1 0.014472 -0.002857 -0.006651 0.000000 0.000000 0.000000
# 2 -0.002857 0.014565 -0.002972 0.000000 0.000000 0.000000
# 3 -0.006651 -0.002972 0.012987 0.000000 0.000000 0.000000
# 4 0.000000 0.000000 0.000000 -0.121629 0.000000 0.000000
# 5 0.000000 0.000000 0.000000 0.000000 0.045796 0.000000
# 6 0.000000 0.000000 0.000000 0.000000 0.000000 0.029471
#
#
# Mechanical properties :
#
#
# Convention : Reuss Voigt Hill
#
# Bulk Modulus (GPa) = 58.59965 62.03862 60.31914
# Shear Modulus (GPa) = 190.05145 21.05373 105.55259
#
# Velocity S-wave (km/s) = 9.81233 3.26589 7.31259
# Velocity P-wave (km/s) = 12.57231 6.75653 10.09241
#
# Compressibility (1/GPa) = 0.01706495
#
# Stress axis : x y z
#
# Youngs Moduli (GPa) = 69.09751 68.65959 77.00111
#
# Poissons Ratio (x) = 0.19615 0.51213
# Poissons Ratio (y) = 0.19740 0.22882
# Poissons Ratio (z) = 0.45956 0.20403
#
# Static dielectric constant tensor:
#      x y z
#    x 1.734530 0.000000 0.000000 
#    y 0.000000 1.559140 0.000000 
#    z 0.000000 0.000000 1.749380 
# 
# From -- ./inp_files/26385.got.cif
#   From: 2010.05.17/outbox.cif.g08.bks.cpg/sg72_14_cif.got.tgz:26385.got - 2010.06.03 17:03:01.
