data_PCOD9527314
_publ_section_title
;
Structure prediction by ZEFSAII (Michael W. Deem and Ramdas Pophale) SiO2 
 PCOD9527314
Probable space group: I B A M
;
_chemical_formula_sum "Si O2"
_cell_formula_units_Z 80
_cell_length_a 23.885051
_cell_length_b 12.141713
_cell_length_c 13.925869
_cell_angle_alpha 90.000000
_cell_angle_beta 90.000000
_cell_angle_gamma 90.000000
_cell_volume 4038.577686
_symmetry_space_group_name_H-M "I B A M"
_symmetry_group_IT_number 72
_symmetry_cell_setting 'orthorhombic'
loop_
_space_group_symop_operation_xyz
x,y,z
-x,-y,z
x,-y,1/2-z
-x,y,1/2-z
-x,-y,-z
x,y,-z
-x,y,1/2+z
x,-y,1/2+z
1/2+x,1/2+y,1/2+z
1/2-x,1/2-y,1/2+z
1/2+x,1/2-y,-z
1/2-x,1/2+y,-z
1/2-x,1/2-y,1/2-z
1/2+x,1/2+y,1/2-z
1/2-x,1/2+y,z
1/2+x,1/2-y,z
loop_
_atom_site_type_symbol
_atom_site_label
_atom_site_fract_x
_atom_site_fract_y
_atom_site_fract_z
Si Si1 0.164779 0.498109 0.386146
Si Si2 0.098390 0.119820 0.237173
Si Si3 0.191746 0.310216 0.234414
Si Si4 0.456159 0.089517 0.384394
Si Si5 0.498332 0.329660 0.885661
O O1 0.166763 0.478658 0.500000
O O2 0.177301 0.388697 0.325584
O O3 0.201091 0.602678 0.352460
O O4 0.104231 0.546530 0.355952
O O5 0.142782 0.218208 0.218985
O O6 0.059001 0.149550 0.328620
O O7 0.051323 0.101320 0.153675
O O8 0.126522 0.000000 0.250000
O O9 0.250000 0.250000 0.250000
O O10 0.454428 0.091704 0.500000
O O11 0.478983 0.208253 0.357979
O O12 0.500000 0.000000 0.353235
O O13 0.491513 0.339488 0.000000
#
# Coordination Sequence:
#
# PCOD9527314 Si02
#       5
#    16  16  16  16  16
#     4  10  22  43  67  96 127 161 212 268 320 379
#     4  11  24  39  60  92 129 171 214 254 314 386
#     4  11  25  43  67  92 127 171 216 269 319 374
#     4   9  16  30  58  90 121 153 190 246 312 371
#     4  10  20  38  60  90 129 164 205 258 314 382
#
# _framework density 19.808952999999999
#
# number of rings (size 3 to 8) (size 9 to 14) (size 15 to 20)
#    0.000    1.800    2.000    2.400    2.800    4.800 
#    0.000    0.000    0.000    0.000    0.000    0.000 
#    0.000    0.000    0.000    0.000    0.000    0.000 
#
# Total GULP energy -223058.087214 kJ/mol
# GULP energy per Si atom -5576.452180 kJ/mol
# Density = 1.976387 g / cm^3
# Si number density = 19.808953 Si / 1000 Ang^3
#
#
#
# Elastic Constant Matrix: (Units=GPa)
#
#
# Indices 1 2 3 4 5 6 
#
# 1 78.3381 31.9609 13.2186 0.0000 0.0000 0.0000
# 2 31.9609 123.4920 16.1549 0.0000 0.0000 0.0000
# 3 13.2186 16.1549 116.6957 0.0000 0.0000 0.0000
# 4 0.0000 0.0000 0.0000 19.3249 0.0000 0.0000
# 5 0.0000 0.0000 0.0000 0.0000 222.0868 0.0000
# 6 0.0000 0.0000 0.0000 0.0000 0.0000 48.2761
#
#
#
# Elastic Compliance Matrix: (Units=1/GPa)
#
#
# Indices 1 2 3 4 5 6 
#
# 1 0.014419 -0.003583 -0.001137 0.000000 0.000000 0.000000
# 2 -0.003583 0.009137 -0.000859 0.000000 0.000000 0.000000
# 3 -0.001137 -0.000859 0.008817 0.000000 0.000000 0.000000
# 4 0.000000 0.000000 0.000000 0.051747 0.000000 0.000000
# 5 0.000000 0.000000 0.000000 0.000000 0.004503 0.000000
# 6 0.000000 0.000000 0.000000 0.000000 0.000000 0.020714
#
#
# Mechanical properties :
#
#
# Convention : Reuss Voigt Hill
#
# Bulk Modulus (GPa) = 47.13723 49.02162 48.07942
# Shear Modulus (GPa) = 39.19500 75.08364 57.13932
#
# Velocity S-wave (km/s) = 4.45303 6.16329 5.37660
# Velocity P-wave (km/s) = 7.09132 8.68615 7.92894
#
# Compressibility (1/GPa) = 0.02121466
#
# Stress axis : x y z
#
# Youngs Moduli (GPa) = 69.35347 109.44051 113.41666
#
# Poissons Ratio (x) = 0.39212 0.12899
# Poissons Ratio (y) = 0.24849 0.09743
# Poissons Ratio (z) = 0.07887 0.09402
#
# Static dielectric constant tensor:
#      x y z
#    x 1.698510 0.000000 0.000000 
#    y 0.000000 1.785520 0.000000 
#    z 0.000000 0.000000 1.708000 
# 
# From -- ./inp_files/24906.got.cif
#   From: 2010.05.17/outbox.cif.g08.bks.cpg/sg72_13_cif.got.tgz:24906.got - 2010.06.03 17:03:01.
