data_PCOD9527353
_publ_section_title
;
Structure prediction by ZEFSAII (Michael W. Deem and Ramdas Pophale) SiO2 
 PCOD9527353
Probable space group: I B A M
;
_chemical_formula_sum "Si O2"
_cell_formula_units_Z 104
_cell_length_a 26.822292
_cell_length_b 9.322721
_cell_length_c 20.367680
_cell_angle_alpha 90.000000
_cell_angle_beta 90.000000
_cell_angle_gamma 90.000000
_cell_volume 5093.075762
_symmetry_space_group_name_H-M "I B A M"
_symmetry_group_IT_number 72
_symmetry_cell_setting 'orthorhombic'
loop_
_space_group_symop_operation_xyz
x,y,z
-x,-y,z
x,-y,1/2-z
-x,y,1/2-z
-x,-y,-z
x,y,-z
-x,y,1/2+z
x,-y,1/2+z
1/2+x,1/2+y,1/2+z
1/2-x,1/2-y,1/2+z
1/2+x,1/2-y,-z
1/2-x,1/2+y,-z
1/2-x,1/2-y,1/2-z
1/2+x,1/2+y,1/2-z
1/2-x,1/2+y,z
1/2+x,1/2-y,z
loop_
_atom_site_type_symbol
_atom_site_label
_atom_site_fract_x
_atom_site_fract_y
_atom_site_fract_z
Si Si1 0.559664 0.166810 0.247429
Si Si2 0.863155 0.680322 0.000000
Si Si3 0.612064 0.327284 0.631070
Si Si4 0.774054 0.102851 0.127641
Si Si5 0.887224 0.839356 0.136969
Si Si6 0.871226 0.648351 0.500000
Si Si7 0.232536 0.503582 0.000000
Si Si8 0.278487 0.671142 0.808489
O O1 0.500000 0.170264 0.250000
O O2 0.583839 0.250097 0.309324
O O3 0.575518 0.244042 0.179953
O O4 0.576217 0.000000 0.250000
O O5 0.876462 0.766449 0.933634
O O6 0.887814 0.519150 0.000000
O O7 0.805255 0.632763 0.000000
O O8 0.671441 0.339557 0.643411
O O9 0.596477 0.495075 0.626074
O O10 0.610239 0.234161 0.564095
O O11 0.736848 0.232860 0.129609
O O12 0.758104 0.986664 0.181004
O O13 0.768810 0.015023 0.061192
O O14 0.837817 0.841481 0.184153
O O15 0.809465 0.631169 0.500000
O O16 0.250000 0.750000 0.750000
#
# Coordination Sequence:
#
# PCOD9527353 Si02
#       8
#    16   8  16  16  16   8   8  16
#     4  11  26  48  74  99 127 170 226 289 361 430
#     4  10  21  40  64  94 132 183 227 268 322 386
#     4  11  23  40  65 100 137 176 225 282 340 407
#     4  11  22  36  55  86 128 173 224 262 315 384
#     4  11  23  41  65  96 137 173 220 287 342 405
#     4  10  20  38  63  95 133 185 224 267 323 395
#     4  10  21  36  61  89 132 186 227 262 303 382
#     4  11  22  35  53  83 124 171 216 266 318 387
#
# _framework density 20.419882000000001
#
# number of rings (size 3 to 8) (size 9 to 14) (size 15 to 20)
#    0.462    0.769    1.538    4.615    0.000    8.615 
#    0.000    0.769    0.000    4.615    0.000    0.000 
#    0.000    0.000    0.000    0.000    0.000    0.000 
#
# Total GULP energy -289926.590766 kJ/mol
# GULP energy per Si atom -5575.511361 kJ/mol
# Density = 2.037341 g / cm^3
# Si number density = 20.419882 Si / 1000 Ang^3
#
#
#
# Elastic Constant Matrix: (Units=GPa)
#
#
# Indices 1 2 3 4 5 6 
#
# 1 52.0563 39.5456 37.1639 0.0000 0.0000 0.0000
# 2 39.5456 182.0730 79.3040 0.0000 0.0000 0.0000
# 3 37.1639 79.3040 160.8983 0.0000 0.0000 0.0000
# 4 0.0000 0.0000 0.0000 28.6452 0.0000 0.0000
# 5 0.0000 0.0000 0.0000 0.0000 19.2820 0.0000
# 6 0.0000 0.0000 0.0000 0.0000 0.0000 27.5069
#
#
#
# Elastic Compliance Matrix: (Units=1/GPa)
#
#
# Indices 1 2 3 4 5 6 
#
# 1 0.024801 -0.003682 -0.003914 0.000000 0.000000 0.000000
# 2 -0.003682 0.007540 -0.002866 0.000000 0.000000 0.000000
# 3 -0.003914 -0.002866 0.008532 0.000000 0.000000 0.000000
# 4 0.000000 0.000000 0.000000 0.034910 0.000000 0.000000
# 5 0.000000 0.000000 0.000000 0.000000 0.051862 0.000000
# 6 0.000000 0.000000 0.000000 0.000000 0.000000 0.036355
#
#
# Mechanical properties :
#
#
# Convention : Reuss Voigt Hill
#
# Bulk Modulus (GPa) = 50.12623 78.56163 64.34393
# Shear Modulus (GPa) = 26.09973 31.02110 28.56042
#
# Velocity S-wave (km/s) = 3.57901 3.90187 3.74392
# Velocity P-wave (km/s) = 6.45601 7.67177 7.09000
#
# Compressibility (1/GPa) = 0.01994964
#
# Stress axis : x y z
#
# Youngs Moduli (GPa) = 40.32069 132.61937 117.20992
#
# Poissons Ratio (x) = 0.48831 0.45872
# Poissons Ratio (y) = 0.14846 0.33593
# Poissons Ratio (z) = 0.15780 0.38009
#
# Static dielectric constant tensor:
#      x y z
#    x 1.698140 0.000000 0.000000 
#    y 0.000000 1.775560 0.000000 
#    z 0.000000 0.000000 1.434920 
# 
# From -- ./inp_files/40814.got.cif
#   From: 2010.05.17/outbox.cif.g08.bks.cpg/sg72_21_cif.got.tgz:40814.got - 2010.06.03 17:03:01.
