data_PCOD9527226
_publ_section_title
;
Structure prediction by ZEFSAII (Michael W. Deem and Ramdas Pophale) SiO2 
 PCOD9527226
Probable space group: I B A M
;
_chemical_formula_sum "Si O2"
_cell_formula_units_Z 116
_cell_length_a 32.261180
_cell_length_b 22.704711
_cell_length_c 8.735275
_cell_angle_alpha 90.000000
_cell_angle_beta 90.000000
_cell_angle_gamma 90.000000
_cell_volume 6398.420944
_symmetry_space_group_name_H-M "I B A M"
_symmetry_group_IT_number 72
_symmetry_cell_setting 'orthorhombic'
loop_
_space_group_symop_operation_xyz
x,y,z
-x,-y,z
x,-y,1/2-z
-x,y,1/2-z
-x,-y,-z
x,y,-z
-x,y,1/2+z
x,-y,1/2+z
1/2+x,1/2+y,1/2+z
1/2-x,1/2-y,1/2+z
1/2+x,1/2-y,-z
1/2-x,1/2+y,-z
1/2-x,1/2-y,1/2-z
1/2+x,1/2+y,1/2-z
1/2-x,1/2+y,z
1/2+x,1/2-y,z
loop_
_atom_site_type_symbol
_atom_site_label
_atom_site_fract_x
_atom_site_fract_y
_atom_site_fract_z
Si Si1 0.837660 0.563757 0.683113
Si Si2 0.955158 0.725770 0.183141
Si Si3 0.000000 0.500000 0.250000
Si Si4 0.396898 0.336151 0.315654
Si Si5 0.068852 0.598935 0.815467
Si Si6 0.718015 0.833071 0.317159
Si Si7 0.544522 0.434752 0.682831
Si Si8 0.804981 0.200336 0.315513
O O1 0.827182 0.500000 0.750000
O O2 0.836272 0.561472 0.500000
O O3 0.884671 0.580515 0.729581
O O4 0.807024 0.613896 0.742829
O O5 0.922165 0.776539 0.220278
O O6 0.941639 0.663210 0.251539
O O7 0.000000 0.741674 0.250000
O O8 0.957976 0.720592 0.000000
O O9 0.036030 0.551353 0.243123
O O10 0.398617 0.344333 0.500000
O O11 0.419969 0.390127 0.235724
O O12 0.349057 0.326972 0.271070
O O13 0.065949 0.599580 0.000000
O O14 0.716755 0.838381 0.500000
O O15 0.765341 0.830105 0.260303
O O16 0.697720 0.769780 0.275062
O O17 0.551887 0.500000 0.750000
O O18 0.500000 0.414643 0.750000
O O19 0.541795 0.437611 0.500000
O O20 0.801134 0.196517 0.500000
#
# Coordination Sequence:
#
# PCOD9527226 Si02
#       8
#    16  16   4  16  16  16  16  16
#     4  11  23  39  58  84 114 149 192 238 288 342
#     4  11  23  37  56  82 117 156 196 242 289 338
#     4  12  22  40  60  82 114 156 204 248 294 336
#     4  10  21  38  59  87 120 153 190 235 288 343
#     4  11  24  39  58  83 113 154 202 248 294 343
#     4  10  20  37  61  88 115 147 188 234 287 344
#     4  11  22  38  61  87 117 155 195 235 280 338
#     4   9  19  37  61  87 116 150 186 231 287 344
#
# _framework density 18.129473000000001
#
# number of rings (size 3 to 8) (size 9 to 14) (size 15 to 20)
#    0.000    1.517    1.379    4.345    0.000    6.069 
#    0.000    0.690    0.000    3.310    0.000    0.000 
#    0.000    0.000    0.000    0.000    0.000    0.000 
#
# Total GULP energy -323668.168426 kJ/mol
# GULP energy per Si atom -5580.485663 kJ/mol
# Density = 1.808821 g / cm^3
# Si number density = 18.129473 Si / 1000 Ang^3
#
#
#
# Elastic Constant Matrix: (Units=GPa)
#
#
# Indices 1 2 3 4 5 6 
#
# 1 171.7353 101.7498 60.5986 0.0000 0.0000 0.0000
# 2 101.7498 110.6255 50.8356 0.0000 0.0000 0.0000
# 3 60.5986 50.8356 63.6973 0.0000 0.0000 0.0000
# 4 0.0000 0.0000 0.0000 5.3888 0.0000 0.0000
# 5 0.0000 0.0000 0.0000 0.0000 26.6703 0.0000
# 6 0.0000 0.0000 0.0000 0.0000 0.0000 -96.2959
#
#
#
# Elastic Compliance Matrix: (Units=1/GPa)
#
#
# Indices 1 2 3 4 5 6 
#
# 1 0.013624 -0.010383 -0.004675 0.000000 0.000000 0.000000
# 2 -0.010383 0.022187 -0.007829 0.000000 0.000000 0.000000
# 3 -0.004675 -0.007829 0.026396 0.000000 0.000000 0.000000
# 4 0.000000 0.000000 0.000000 0.185571 0.000000 0.000000
# 5 0.000000 0.000000 0.000000 0.000000 0.037495 0.000000
# 6 0.000000 0.000000 0.000000 0.000000 0.000000 -0.010385
#
#
# Mechanical properties :
#
#
# Convention : Reuss Voigt Hill
#
# Bulk Modulus (GPa) = 60.85640 85.82513 73.34076
# Shear Modulus (GPa) = 15.33087 -3.98910 5.67088
#
# Velocity S-wave (km/s) = 2.91113 -1.48496 1.77053
# Velocity P-wave (km/s) = 6.70374 6.67104 6.68741
#
# Compressibility (1/GPa) = 0.01643213
#
# Stress axis : x y z
#
# Youngs Moduli (GPa) = 73.39918 45.07139 37.88522
#
# Poissons Ratio (x) = 0.46796 0.17712
# Poissons Ratio (y) = 0.76208 0.29662
# Poissons Ratio (z) = 0.34315 0.35288
#
# Static dielectric constant tensor:
#      x y z
#    x 1.569060 0.000000 0.000000 
#    y 0.000000 1.589450 0.000000 
#    z 0.000000 0.000000 1.630450 
# 
# From -- ./inp_files/8448.got.cif
#   From: 2010.05.17/outbox.cif.g08.bks.cpg/sg72_5_cif.got.tgz:8448.got - 2010.06.03 17:03:01.
