data_PCOD9527776
_publ_section_title
;
Structure prediction by ZEFSAII (Michael W. Deem and Ramdas Pophale) SiO2 
 PCOD9527776
Probable space group: I B A M
;
_chemical_formula_sum "Si O2"
_cell_formula_units_Z 116
_cell_length_a 25.218010
_cell_length_b 27.391772
_cell_length_c 8.286149
_cell_angle_alpha 90.000000
_cell_angle_beta 90.000000
_cell_angle_gamma 90.000000
_cell_volume 5723.789836
_symmetry_space_group_name_H-M "I B A M"
_symmetry_group_IT_number 72
_symmetry_cell_setting 'orthorhombic'
loop_
_space_group_symop_operation_xyz
x,y,z
-x,-y,z
x,-y,1/2-z
-x,y,1/2-z
-x,-y,-z
x,y,-z
-x,y,1/2+z
x,-y,1/2+z
1/2+x,1/2+y,1/2+z
1/2-x,1/2-y,1/2+z
1/2+x,1/2-y,-z
1/2-x,1/2+y,-z
1/2-x,1/2-y,1/2-z
1/2+x,1/2+y,1/2-z
1/2-x,1/2+y,z
1/2+x,1/2-y,z
loop_
_atom_site_type_symbol
_atom_site_label
_atom_site_fract_x
_atom_site_fract_y
_atom_site_fract_z
Si Si1 0.439976 0.675565 0.688989
Si Si2 0.362557 0.851432 0.310517
Si Si3 0.247338 0.306050 0.805226
Si Si4 0.000000 0.000000 0.250000
Si Si5 0.196716 0.903156 0.189982
Si Si6 0.440976 0.225026 0.313975
Si Si7 0.807066 0.446310 0.192900
Si Si8 0.087723 0.928581 0.313958
O O1 0.500000 0.681657 0.750000
O O2 0.437670 0.664835 0.500000
O O3 0.415169 0.728521 0.722780
O O4 0.419559 0.628943 0.784120
O O5 0.374970 0.847047 0.500000
O O6 0.305925 0.826917 0.274171
O O7 0.406015 0.822450 0.211630
O O8 0.353012 0.907671 0.267319
O O9 0.250000 0.250000 0.750000
O O10 0.293368 0.345916 0.761046
O O11 0.243381 0.307649 0.000000
O O12 0.045836 0.959110 0.205567
O O13 0.252693 0.928958 0.223210
O O14 0.149880 0.933223 0.276109
O O15 0.184247 0.903048 0.000000
O O16 0.500000 0.215808 0.250000
O O17 0.444323 0.239032 0.500000
O O18 0.820222 0.500000 0.250000
O O19 0.798618 0.444298 0.000000
O O20 0.075063 0.941503 0.500000
#
# Coordination Sequence:
#
# PCOD9527776 Si02
#       8
#    16  16  16   4  16  16  16  16
#     4  11  22  39  61  85 116 152 198 248 300 362
#     4  10  21  38  60  89 124 161 203 250 302 364
#     4  10  21  37  58  87 123 162 202 247 307 374
#     4  12  30  48  68  86 122 160 214 280 334 384
#     4  10  23  41  61  87 120 158 203 254 311 373
#     4  11  22  38  62  92 126 165 205 248 300 361
#     4  10  21  39  64  91 122 159 202 250 303 362
#     4  12  26  44  65  87 115 155 207 260 321 382
#
# _framework density 20.266293000000001
#
# number of rings (size 3 to 8) (size 9 to 14) (size 15 to 20)
#    0.000    1.379    0.690    5.586    2.897    4.966 
#    0.000    0.000    0.000    0.414    0.000    2.897 
#    0.000    0.000    0.000    0.000    0.000    0.000 
#
# Total GULP energy -323599.572474 kJ/mol
# GULP energy per Si atom -5579.302974 kJ/mol
# Density = 2.022017 g / cm^3
# Si number density = 20.266293 Si / 1000 Ang^3
#
#
#
# Elastic Constant Matrix: (Units=GPa)
#
#
# Indices 1 2 3 4 5 6 
#
# 1 59.5803 26.5625 3.1453 0.0000 0.0000 0.0000
# 2 26.5625 128.3599 6.2236 0.0000 0.0000 0.0000
# 3 3.1453 6.2236 59.2182 0.0000 0.0000 0.0000
# 4 0.0000 0.0000 0.0000 24.4476 0.0000 0.0000
# 5 0.0000 0.0000 0.0000 0.0000 15.2895 0.0000
# 6 0.0000 0.0000 0.0000 0.0000 0.0000 21.9038
#
#
#
# Elastic Compliance Matrix: (Units=1/GPa)
#
#
# Indices 1 2 3 4 5 6 
#
# 1 0.018510 -0.003802 -0.000584 0.000000 0.000000 0.000000
# 2 -0.003802 0.008611 -0.000703 0.000000 0.000000 0.000000
# 3 -0.000584 -0.000703 0.016992 0.000000 0.000000 0.000000
# 4 0.000000 0.000000 0.000000 0.040904 0.000000 0.000000
# 5 0.000000 0.000000 0.000000 0.000000 0.065404 0.000000
# 6 0.000000 0.000000 0.000000 0.000000 0.000000 0.045654
#
#
# Mechanical properties :
#
#
# Convention : Reuss Voigt Hill
#
# Bulk Modulus (GPa) = 29.46762 35.44678 32.45720
# Shear Modulus (GPa) = 22.98169 26.40999 24.69584
#
# Velocity S-wave (km/s) = 3.37112 3.61383 3.49459
# Velocity P-wave (km/s) = 5.45201 5.91113 5.68621
#
# Compressibility (1/GPa) = 0.03393555
#
# Stress axis : x y z
#
# Youngs Moduli (GPa) = 54.02494 116.12399 58.85265
#
# Poissons Ratio (x) = 0.44152 0.03434
# Poissons Ratio (y) = 0.20541 0.04138
# Poissons Ratio (z) = 0.03153 0.08165
#
# Static dielectric constant tensor:
#      x y z
#    x 1.783170 0.000000 0.000000 
#    y 0.000000 1.755270 0.000000 
#    z 0.000000 0.000000 1.733820 
# 
# From -- ./inp_files/7302.got.cif
#   From: 2010.05.17/outbox.cif.g08.bks.cpg/sg72_4_cif.got.tgz:7302.got - 2010.06.03 17:03:01.
