data_PCOD9527337
_publ_section_title
;
Structure prediction by ZEFSAII (Michael W. Deem and Ramdas Pophale) SiO2 
 PCOD9527337
Probable space group: I B A M
;
_chemical_formula_sum "Si O2"
_cell_formula_units_Z 96
_cell_length_a 22.779746
_cell_length_b 13.664112
_cell_length_c 14.459595
_cell_angle_alpha 90.000000
_cell_angle_beta 90.000000
_cell_angle_gamma 90.000000
_cell_volume 4500.765847
_symmetry_space_group_name_H-M "I B A M"
_symmetry_group_IT_number 72
_symmetry_cell_setting 'orthorhombic'
loop_
_space_group_symop_operation_xyz
x,y,z
-x,-y,z
x,-y,1/2-z
-x,y,1/2-z
-x,-y,-z
x,y,-z
-x,y,1/2+z
x,-y,1/2+z
1/2+x,1/2+y,1/2+z
1/2-x,1/2-y,1/2+z
1/2+x,1/2-y,-z
1/2-x,1/2+y,-z
1/2-x,1/2-y,1/2-z
1/2+x,1/2+y,1/2-z
1/2-x,1/2+y,z
1/2+x,1/2-y,z
loop_
_atom_site_type_symbol
_atom_site_label
_atom_site_fract_x
_atom_site_fract_y
_atom_site_fract_z
Si Si1 0.633618 0.149056 0.500000
Si Si2 0.168684 0.123802 0.500000
Si Si3 0.088361 0.097321 0.200290
Si Si4 0.931964 0.024007 0.500000
Si Si5 0.791666 0.869948 0.697846
Si Si6 0.493909 0.117897 0.500000
Si Si7 0.324966 0.140701 0.800339
Si Si8 0.056324 0.320899 0.803964
O O1 0.657195 0.260471 0.500000
O O2 0.562352 0.152782 0.500000
O O3 0.657424 0.104160 0.596784
O O4 0.200771 0.091402 0.593680
O O5 0.104883 0.075240 0.500000
O O6 0.084501 0.081394 0.091697
O O7 0.154716 0.101256 0.236436
O O8 0.061332 0.204196 0.217983
O O9 0.062951 0.000000 0.250000
O O10 0.000000 0.000000 0.500000
O O11 0.730685 0.897898 0.744085
O O12 0.803178 0.753398 0.687736
O O13 0.458569 0.156355 0.410303
O O14 0.500000 0.000000 0.500000
O O15 0.383101 0.136633 0.736642
O O16 0.000000 0.361088 0.750000
#
# Coordination Sequence:
#
# PCOD9527337 Si02
#       8
#     8   8  16   8  16   8  16  16
#     4  10  20  39  64  97 120 167 223 278 356 411
#     4  10  20  38  62  91 135 177 222 271 335 409
#     4  11  24  40  62 102 144 184 225 275 336 426
#     4  12  27  35  58  98 147 190 223 261 325 411
#     4   9  19  38  63  91 132 178 230 277 336 401
#     4  12  27  46  68  93 136 175 230 304 350 411
#     4   9  19  38  67  96 122 177 226 282 345 422
#     4  11  24  42  69  98 137 178 227 288 362 421
#
# _framework density 21.329702999999999
#
# number of rings (size 3 to 8) (size 9 to 14) (size 15 to 20)
#    0.000    1.667    3.333    0.500    4.667    1.667 
#    0.000    6.667    3.667    0.000    0.000    0.000 
#    0.000    0.000    0.000    0.000    0.000    0.000 
#
# Total GULP energy -267891.276905 kJ/mol
# GULP energy per Si atom -5581.068269 kJ/mol
# Density = 2.128116 g / cm^3
# Si number density = 21.329703 Si / 1000 Ang^3
#
#
#
# Elastic Constant Matrix: (Units=GPa)
#
#
# Indices 1 2 3 4 5 6 
#
# 1 200.7789 25.5635 132.1940 0.0000 0.0000 0.0000
# 2 25.5635 51.4760 0.0843 0.0000 0.0000 0.0000
# 3 132.1940 0.0843 195.7368 0.0000 0.0000 0.0000
# 4 0.0000 0.0000 0.0000 15.4457 0.0000 0.0000
# 5 0.0000 0.0000 0.0000 0.0000 325.3120 0.0000
# 6 0.0000 0.0000 0.0000 0.0000 0.0000 4.8716
#
#
#
# Elastic Compliance Matrix: (Units=1/GPa)
#
#
# Indices 1 2 3 4 5 6 
#
# 1 0.010115 -0.005012 -0.006829 0.000000 0.000000 0.000000
# 2 -0.005012 0.021910 0.003376 0.000000 0.000000 0.000000
# 3 -0.006829 0.003376 0.009720 0.000000 0.000000 0.000000
# 4 0.000000 0.000000 0.000000 0.064743 0.000000 0.000000
# 5 0.000000 0.000000 0.000000 0.000000 0.003074 0.000000
# 6 0.000000 0.000000 0.000000 0.000000 0.000000 0.205273
#
#
# Mechanical properties :
#
#
# Convention : Reuss Voigt Hill
#
# Bulk Modulus (GPa) = 40.30092 84.85279 62.57685
# Shear Modulus (GPa) = 14.70426 88.46920 51.58673
#
# Velocity S-wave (km/s) = 2.62845 6.44725 4.92320
# Velocity P-wave (km/s) = 5.30537 9.76169 7.85613
#
# Compressibility (1/GPa) = 0.02481333
#
# Stress axis : x y z
#
# Youngs Moduli (GPa) = 98.86099 45.64107 102.88345
#
# Poissons Ratio (x) = 0.22876 0.70262
# Poissons Ratio (y) = 0.49550 -0.34729
# Poissons Ratio (z) = 0.67515 -0.15407
#
# Static dielectric constant tensor:
#      x y z
#    x 1.751590 0.000000 0.000000 
#    y 0.000000 1.759850 0.000000 
#    z 0.000000 0.000000 1.747470 
# 
# From -- ./inp_files/24222.got.cif
#   From: 2010.05.17/outbox.cif.g08.bks.cpg/sg72_13_cif.got.tgz:24222.got - 2010.06.03 17:03:01.
