data_PCOD9527560
_publ_section_title
;
Structure prediction by ZEFSAII (Michael W. Deem and Ramdas Pophale) SiO2 
 PCOD9527560
Probable space group: I B A M
;
_chemical_formula_sum "Si O2"
_cell_formula_units_Z 56
_cell_length_a 34.060612
_cell_length_b 5.246901
_cell_length_c 14.648369
_cell_angle_alpha 90.000000
_cell_angle_beta 90.000000
_cell_angle_gamma 90.000000
_cell_volume 2617.848976
_symmetry_space_group_name_H-M "I B A M"
_symmetry_group_IT_number 72
_symmetry_cell_setting 'orthorhombic'
loop_
_space_group_symop_operation_xyz
x,y,z
-x,-y,z
x,-y,1/2-z
-x,y,1/2-z
-x,-y,-z
x,y,-z
-x,y,1/2+z
x,-y,1/2+z
1/2+x,1/2+y,1/2+z
1/2-x,1/2-y,1/2+z
1/2+x,1/2-y,-z
1/2-x,1/2+y,-z
1/2-x,1/2-y,1/2-z
1/2+x,1/2+y,1/2-z
1/2-x,1/2+y,z
1/2+x,1/2-y,z
loop_
_atom_site_type_symbol
_atom_site_label
_atom_site_fract_x
_atom_site_fract_y
_atom_site_fract_z
Si Si1 0.104524 0.610738 0.393376
Si Si2 0.277279 0.500000 0.250000
Si Si3 0.344470 0.622715 0.393725
Si Si4 0.982343 0.254890 0.648056
O O1 0.095138 0.555498 0.500000
O O2 0.128811 0.362283 0.359524
O O3 0.063944 0.695965 0.347149
O O4 0.130960 0.862403 0.390304
O O5 0.250000 0.750000 0.250000
O O6 0.306333 0.559639 0.334518
O O7 0.334646 0.678751 0.500000
O O8 0.000000 0.500000 0.600529
O O9 0.000000 0.251191 0.750000
O O10 0.000000 0.000000 0.605259
#
# Coordination Sequence:
#
# PCOD9527560 Si02
#       4
#    16   8  16  16
#     4  10  21  39  61  85 118 163 211 256 303 363
#     4  12  26  42  66 100 129 158 197 248 314 384
#     4  10  23  43  66  91 122 162 205 251 304 366
#     4  10  21  34  51  81 117 155 203 256 312 357
#
# _framework density 21.391608999999999
#
# number of rings (size 3 to 8) (size 9 to 14) (size 15 to 20)
#    0.000    1.714    0.000    3.429    0.000    9.143 
#    0.000    0.000    0.000    0.000    0.000    0.000 
#    0.000    0.000    0.000    0.000    0.000    0.000 
#
# Total GULP energy -156237.122672 kJ/mol
# GULP energy per Si atom -5579.897238 kJ/mol
# Density = 2.134292 g / cm^3
# Si number density = 21.391609 Si / 1000 Ang^3
#
#
#
# Elastic Constant Matrix: (Units=GPa)
#
#
# Indices 1 2 3 4 5 6 
#
# 1 186.9600 72.9371 77.8230 0.0000 0.0000 0.0000
# 2 72.9371 210.4608 34.4553 0.0000 0.0000 0.0000
# 3 77.8230 34.4553 97.3153 0.0000 0.0000 0.0000
# 4 0.0000 0.0000 0.0000 1.4117 0.0000 0.0000
# 5 0.0000 0.0000 0.0000 0.0000 71.1222 0.0000
# 6 0.0000 0.0000 0.0000 0.0000 0.0000 41.9914
#
#
#
# Elastic Compliance Matrix: (Units=1/GPa)
#
#
# Indices 1 2 3 4 5 6 
#
# 1 0.008746 -0.002002 -0.006285 0.000000 0.000000 0.000000
# 2 -0.002002 0.005502 -0.000347 0.000000 0.000000 0.000000
# 3 -0.006285 -0.000347 0.015425 0.000000 0.000000 0.000000
# 4 0.000000 0.000000 0.000000 0.708377 0.000000 0.000000
# 5 0.000000 0.000000 0.000000 0.000000 0.014060 0.000000
# 6 0.000000 0.000000 0.000000 0.000000 0.000000 0.023814
#
#
# Mechanical properties :
#
#
# Convention : Reuss Voigt Hill
#
# Bulk Modulus (GPa) = 80.61642 96.12967 88.37304
# Shear Modulus (GPa) = 6.27094 43.53976 24.90535
#
# Velocity S-wave (km/s) = 1.71402 4.51640 3.41582
# Velocity P-wave (km/s) = 6.45639 8.49898 7.54711
#
# Compressibility (1/GPa) = 0.01240442
#
# Stress axis : x y z
#
# Youngs Moduli (GPa) = 114.33648 181.74817 64.82897
#
# Poissons Ratio (x) = 0.36387 0.40748
# Poissons Ratio (y) = 0.22891 0.02250
# Poissons Ratio (z) = 0.71865 0.06307
#
# Static dielectric constant tensor:
#      x y z
#    x 1.842800 0.000000 0.000000 
#    y 0.000000 1.753000 0.000000 
#    z 0.000000 0.000000 1.782120 
# 
# From -- ./inp_files/17552.got.cif
#   From: 2010.05.17/outbox.cif.g08.bks.cpg/sg72_9_cif.got.tgz:17552.got - 2010.06.03 17:03:01.
