data_PCOD9527912
_publ_section_title
;
Structure prediction by ZEFSAII (Michael W. Deem and Ramdas Pophale) SiO2 
 PCOD9527912
Probable space group: I B A M
;
_chemical_formula_sum "Si O2"
_cell_formula_units_Z 112
_cell_length_a 24.657841
_cell_length_b 15.997835
_cell_length_c 14.014494
_cell_angle_alpha 90.000000
_cell_angle_beta 90.000000
_cell_angle_gamma 90.000000
_cell_volume 5528.326483
_symmetry_space_group_name_H-M "I B A M"
_symmetry_group_IT_number 72
_symmetry_cell_setting 'orthorhombic'
loop_
_space_group_symop_operation_xyz
x,y,z
-x,-y,z
x,-y,1/2-z
-x,y,1/2-z
-x,-y,-z
x,y,-z
-x,y,1/2+z
x,-y,1/2+z
1/2+x,1/2+y,1/2+z
1/2-x,1/2-y,1/2+z
1/2+x,1/2-y,-z
1/2-x,1/2+y,-z
1/2-x,1/2-y,1/2-z
1/2+x,1/2+y,1/2-z
1/2-x,1/2+y,z
1/2+x,1/2-y,z
loop_
_atom_site_type_symbol
_atom_site_label
_atom_site_fract_x
_atom_site_fract_y
_atom_site_fract_z
Si Si1 0.240903 0.653749 0.278755
Si Si2 0.297436 0.413589 0.605422
Si Si3 0.560449 0.400934 0.759560
Si Si4 0.062701 0.527639 0.111359
Si Si5 0.892052 0.211247 0.394266
Si Si6 0.386785 0.125737 0.287989
Si Si7 0.344443 0.595505 0.389213
O O1 0.250000 0.750000 0.250000
O O2 0.255881 0.594070 0.190148
O O3 0.178124 0.635082 0.295944
O O4 0.286301 0.634030 0.358702
O O5 0.273199 0.421582 0.500000
O O6 0.331518 0.327150 0.608913
O O7 0.334523 0.495452 0.620147
O O8 0.557862 0.500000 0.750000
O O9 0.500000 0.366370 0.750000
O O10 0.575618 0.370819 0.864819
O O11 0.608151 0.376306 0.684143
O O12 0.095672 0.443681 0.135586
O O13 0.087087 0.594662 0.187546
O O14 0.000000 0.500000 0.129497
O O15 0.067572 0.552357 0.000000
O O16 0.903032 0.241829 0.500000
O O17 0.906086 0.282706 0.319429
O O18 0.357115 0.613709 0.500000
#
# Coordination Sequence:
#
# PCOD9527912 Si02
#       7
#    16  16  16  16  16  16  16
#     4  12  23  40  60  93 134 170 213 271 333 398
#     4  10  21  38  61  84 121 171 214 256 317 386
#     4  11  22  39  63  91 126 167 219 272 321 381
#     4  10  24  47  72 100 137 178 224 284 351 414
#     4  11  22  41  64  90 127 170 219 272 330 394
#     4  11  23  40  69  99 131 170 225 272 330 410
#     4  11  23  40  62  89 127 172 216 264 325 395
#
# _framework density 20.259295000000002
#
# number of rings (size 3 to 8) (size 9 to 14) (size 15 to 20)
#    0.000    1.143    4.286    1.714    4.000    4.000 
#    0.000    3.571    0.000    0.000    0.000    0.000 
#    0.000    0.000    0.000    0.000    0.000    0.000 
#
# Total GULP energy -312102.477737 kJ/mol
# GULP energy per Si atom -5573.258531 kJ/mol
# Density = 2.021318 g / cm^3
# Si number density = 20.259295 Si / 1000 Ang^3
#
#
#
# Elastic Constant Matrix: (Units=GPa)
#
#
# Indices 1 2 3 4 5 6 
#
# 1 126.4381 20.0955 41.1561 0.0000 0.0000 0.0000
# 2 20.0955 95.0609 33.5380 0.0000 0.0000 0.0000
# 3 41.1561 33.5380 95.4634 0.0000 0.0000 0.0000
# 4 0.0000 0.0000 0.0000 22.3893 0.0000 0.0000
# 5 0.0000 0.0000 0.0000 0.0000 14.4990 0.0000
# 6 0.0000 0.0000 0.0000 0.0000 0.0000 -1.1851
#
#
#
# Elastic Compliance Matrix: (Units=1/GPa)
#
#
# Indices 1 2 3 4 5 6 
#
# 1 0.009232 -0.000625 -0.003761 0.000000 0.000000 0.000000
# 2 -0.000625 0.012050 -0.003964 0.000000 0.000000 0.000000
# 3 -0.003761 -0.003964 0.013489 0.000000 0.000000 0.000000
# 4 0.000000 0.000000 0.000000 0.044664 0.000000 0.000000
# 5 0.000000 0.000000 0.000000 0.000000 0.068970 0.000000
# 6 0.000000 0.000000 0.000000 0.000000 0.000000 -0.843775
#
#
# Mechanical properties :
#
#
# Convention : Reuss Voigt Hill
#
# Bulk Modulus (GPa) = 55.33277 56.28239 55.80758
# Shear Modulus (GPa) = -7.43334 21.95215 7.25941
#
# Velocity S-wave (km/s) = -1.91757 3.29532 1.89500
# Velocity P-wave (km/s) = 4.74013 6.50539 5.69162
#
# Compressibility (1/GPa) = 0.01807247
#
# Stress axis : x y z
#
# Youngs Moduli (GPa) = 108.31339 82.98617 74.13342
#
# Poissons Ratio (x) = 0.05186 0.27880
# Poissons Ratio (y) = 0.06768 0.29387
# Poissons Ratio (z) = 0.40734 0.32896
#
# Static dielectric constant tensor:
#      x y z
#    x 1.800410 0.000000 0.000000 
#    y 0.000000 1.736830 0.000000 
#    z 0.000000 0.000000 1.742250 
# 
# From -- ./inp_files/25177.got.cif
#   From: 2010.05.17/outbox.cif.g08.bks.cpg/sg72_13_cif.got.tgz:25177.got - 2010.06.03 17:03:01.
