data_PCOD9527788
_publ_section_title
;
Structure prediction by ZEFSAII (Michael W. Deem and Ramdas Pophale) SiO2 
 PCOD9527788
Probable space group: I B A M
;
_chemical_formula_sum "Si O2"
_cell_formula_units_Z 96
_cell_length_a 9.073029
_cell_length_b 19.794963
_cell_length_c 27.741640
_cell_angle_alpha 90.000000
_cell_angle_beta 90.000000
_cell_angle_gamma 90.000000
_cell_volume 4982.406127
_symmetry_space_group_name_H-M "I B A M"
_symmetry_group_IT_number 72
_symmetry_cell_setting 'orthorhombic'
loop_
_space_group_symop_operation_xyz
x,y,z
-x,-y,z
x,-y,1/2-z
-x,y,1/2-z
-x,-y,-z
x,y,-z
-x,y,1/2+z
x,-y,1/2+z
1/2+x,1/2+y,1/2+z
1/2-x,1/2-y,1/2+z
1/2+x,1/2-y,-z
1/2-x,1/2+y,-z
1/2-x,1/2-y,1/2-z
1/2+x,1/2+y,1/2-z
1/2-x,1/2+y,z
1/2+x,1/2-y,z
loop_
_atom_site_type_symbol
_atom_site_label
_atom_site_fract_x
_atom_site_fract_y
_atom_site_fract_z
Si Si1 0.236360 0.808060 0.554615
Si Si2 0.131712 0.215901 0.714617
Si Si3 0.255930 0.103695 0.356294
Si Si4 0.108323 0.163986 0.446026
Si Si5 0.090780 0.654109 0.148782
Si Si6 0.172234 0.521944 0.197926
O O1 0.270925 0.832893 0.500000
O O2 0.289789 0.730594 0.556210
O O3 0.321274 0.842530 0.598690
O O4 0.061106 0.814067 0.561660
O O5 0.250000 0.250000 0.750000
O O6 0.192053 0.152048 0.685513
O O7 0.086598 0.273473 0.675489
O O8 0.000000 0.196638 0.750000
O O9 0.165239 0.115867 0.404508
O O10 0.425789 0.127852 0.361289
O O11 0.252453 0.025918 0.341013
O O12 0.119683 0.135425 0.500000
O O13 0.170179 0.600355 0.184350
O O14 0.231120 0.500000 0.250000
O O15 0.000000 0.500000 0.198063
#
# Coordination Sequence:
#
# PCOD9527788 Si02
#       6
#    16  16  16  16  16  16
#     4  10  21  37  59  88 120 154 194 248 307 360
#     4  12  24  36  57  90 121 154 197 253 296 352
#     4  11  22  39  61  90 119 157 201 248 297 352
#     4  10  21  37  59  87 120 154 193 248 307 359
#     4  11  22  38  63  89 117 160 200 246 299 353
#     4   9  20  39  61  83 120 163 202 240 291 354
#
# _framework density 19.267799
#
# number of rings (size 3 to 8) (size 9 to 14) (size 15 to 20)
#    0.000    1.500    3.333    2.000    4.667    2.000 
#    0.000    1.667    0.000    5.000    0.000    0.000 
#    0.000    0.000    0.000    0.000    0.000    0.000 
#
# Total GULP energy -268078.479329 kJ/mol
# GULP energy per Si atom -5584.968319 kJ/mol
# Density = 1.922394 g / cm^3
# Si number density = 19.267799 Si / 1000 Ang^3
#
#
#
# Elastic Constant Matrix: (Units=GPa)
#
#
# Indices 1 2 3 4 5 6 
#
# 1 77.2852 8.4675 54.3781 0.0000 0.0000 0.0000
# 2 8.4675 56.8054 20.3530 0.0000 0.0000 0.0000
# 3 54.3781 20.3530 129.6254 0.0000 0.0000 0.0000
# 4 0.0000 0.0000 0.0000 23.3237 0.0000 0.0000
# 5 0.0000 0.0000 0.0000 0.0000 44.1203 0.0000
# 6 0.0000 0.0000 0.0000 0.0000 0.0000 14.0889
#
#
#
# Elastic Compliance Matrix: (Units=1/GPa)
#
#
# Indices 1 2 3 4 5 6 
#
# 1 0.018358 0.000024 -0.007705 0.000000 0.000000 0.000000
# 2 0.000024 0.018653 -0.002939 0.000000 0.000000 0.000000
# 3 -0.007705 -0.002939 0.011408 0.000000 0.000000 0.000000
# 4 0.000000 0.000000 0.000000 0.042875 0.000000 0.000000
# 5 0.000000 0.000000 0.000000 0.000000 0.022665 0.000000
# 6 0.000000 0.000000 0.000000 0.000000 0.000000 0.070978
#
#
# Mechanical properties :
#
#
# Convention : Reuss Voigt Hill
#
# Bulk Modulus (GPa) = 36.79191 47.79035 42.29113
# Shear Modulus (GPa) = 23.23027 28.34106 25.78567
#
# Velocity S-wave (km/s) = 3.47602 3.83940 3.66222
# Velocity P-wave (km/s) = 5.93690 6.67171 6.31500
#
# Compressibility (1/GPa) = 0.02717989
#
# Stress axis : x y z
#
# Youngs Moduli (GPa) = 54.47337 53.60959 87.65632
#
# Poissons Ratio (x) = -0.00130 0.67538
# Poissons Ratio (y) = -0.00132 0.25762
# Poissons Ratio (z) = 0.41971 0.15756
#
# Static dielectric constant tensor:
#      x y z
#    x 1.702590 0.000000 0.000000 
#    y 0.000000 1.651450 0.000000 
#    z 0.000000 0.000000 1.684660 
# 
# From -- ./inp_files/47293.got.cif
#   From: 2010.05.17/outbox.cif.g08.bks.cpg/sg72_24_cif.got.tgz:47293.got - 2010.06.03 17:03:01.
