data_PCOD9527921
_publ_section_title
;
Structure prediction by ZEFSAII (Michael W. Deem and Ramdas Pophale) SiO2 
 PCOD9527921
Probable space group: I B A M
;
_chemical_formula_sum "Si O2"
_cell_formula_units_Z 68
_cell_length_a 15.077130
_cell_length_b 9.786095
_cell_length_c 20.773263
_cell_angle_alpha 90.000000
_cell_angle_beta 90.000000
_cell_angle_gamma 90.000000
_cell_volume 3065.016568
_symmetry_space_group_name_H-M "I B A M"
_symmetry_group_IT_number 72
_symmetry_cell_setting 'orthorhombic'
loop_
_space_group_symop_operation_xyz
x,y,z
-x,-y,z
x,-y,1/2-z
-x,y,1/2-z
-x,-y,-z
x,y,-z
-x,y,1/2+z
x,-y,1/2+z
1/2+x,1/2+y,1/2+z
1/2-x,1/2-y,1/2+z
1/2+x,1/2-y,-z
1/2-x,1/2+y,-z
1/2-x,1/2-y,1/2-z
1/2+x,1/2+y,1/2-z
1/2-x,1/2+y,z
1/2+x,1/2-y,z
loop_
_atom_site_type_symbol
_atom_site_label
_atom_site_fract_x
_atom_site_fract_y
_atom_site_fract_z
Si Si1 0.123483 0.725903 0.309620
Si Si2 0.593820 0.420257 0.427722
Si Si3 0.000000 0.500000 0.750000
Si Si4 0.985158 0.337565 0.573678
Si Si5 0.809394 0.892496 0.299513
O O1 0.082818 0.741799 0.380032
O O2 0.116621 0.824691 0.247212
O O3 0.228754 0.706280 0.317057
O O4 0.066236 0.595172 0.289207
O O5 0.500000 0.500000 0.425524
O O6 0.630992 0.443820 0.500000
O O7 0.572910 0.256963 0.421011
O O8 0.651018 0.454160 0.364599
O O9 0.954548 0.327487 0.500000
O O10 0.000000 0.500000 0.585887
O O11 0.767302 0.000000 0.250000
#
# Coordination Sequence:
#
# PCOD9527921 Si02
#       5
#    16  16   4  16  16
#     4  11  23  37  63  89 126 164 204 258 312 363
#     4  10  22  41  63  88 122 165 208 253 312 375
#     4  12  20  40  60  84 118 168 200 252 296 376
#     4  10  21  38  61  89 120 162 213 255 303 373
#     4  11  24  40  59  96 128 159 208 261 311 374
#
# _framework density 22.185849999999999
#
# number of rings (size 3 to 8) (size 9 to 14) (size 15 to 20)
#    0.000    1.412    2.353    2.824    0.000    3.294 
#    0.000    0.000    0.000    9.882    0.000    0.000 
#    0.000    0.000    0.000    0.000    0.000    0.000 
#
# Total GULP energy -189380.463762 kJ/mol
# GULP energy per Si atom -5570.013640 kJ/mol
# Density = 2.213535 g / cm^3
# Si number density = 22.185850 Si / 1000 Ang^3
#
#
#
# Elastic Constant Matrix: (Units=GPa)
#
#
# Indices 1 2 3 4 5 6 
#
# 1 49.5438 0.3804 49.9133 0.0000 0.0000 0.0000
# 2 0.3804 69.1627 11.0727 0.0000 0.0000 0.0000
# 3 49.9133 11.0727 190.9417 0.0000 0.0000 0.0000
# 4 0.0000 0.0000 0.0000 22.3117 0.0000 0.0000
# 5 0.0000 0.0000 0.0000 0.0000 17.2667 0.0000
# 6 0.0000 0.0000 0.0000 0.0000 0.0000 27.3698
#
#
#
# Elastic Compliance Matrix: (Units=1/GPa)
#
#
# Indices 1 2 3 4 5 6 
#
# 1 0.027470 0.001008 -0.007239 0.000000 0.000000 0.000000
# 2 0.001008 0.014631 -0.001112 0.000000 0.000000 0.000000
# 3 -0.007239 -0.001112 0.007194 0.000000 0.000000 0.000000
# 4 0.000000 0.000000 0.000000 0.044820 0.000000 0.000000
# 5 0.000000 0.000000 0.000000 0.000000 0.057915 0.000000
# 6 0.000000 0.000000 0.000000 0.000000 0.000000 0.036537
#
#
# Mechanical properties :
#
#
# Convention : Reuss Voigt Hill
#
# Bulk Modulus (GPa) = 28.89481 48.04234 38.46858
# Shear Modulus (GPa) = 23.27873 29.94177 26.61025
#
# Velocity S-wave (km/s) = 3.24274 3.67766 3.46703
# Velocity P-wave (km/s) = 5.20315 6.30358 5.77961
#
# Compressibility (1/GPa) = 0.03460829
#
# Stress axis : x y z
#
# Youngs Moduli (GPa) = 36.40396 68.34743 139.00402
#
# Poissons Ratio (x) = -0.06888 1.00627
# Poissons Ratio (y) = -0.03669 0.15456
# Poissons Ratio (z) = 0.26353 0.07600
#
# Static dielectric constant tensor:
#      x y z
#    x 1.660270 0.000000 0.000000 
#    y 0.000000 2.156650 0.000000 
#    z 0.000000 0.000000 1.897690 
# 
# From -- ./inp_files/37740.got.cif
#   From: 2010.05.17/outbox.cif.g08.bks.cpg/sg72_19_cif.got.tgz:37740.got - 2010.06.03 17:03:01.
