data_PCOD9527721
_publ_section_title
;
Structure prediction by ZEFSAII (Michael W. Deem and Ramdas Pophale) SiO2 
 PCOD9527721
Probable space group: I B A M
;
_chemical_formula_sum "Si O2"
_cell_formula_units_Z 116
_cell_length_a 22.822149
_cell_length_b 29.096525
_cell_length_c 7.842886
_cell_angle_alpha 90.000000
_cell_angle_beta 90.000000
_cell_angle_gamma 90.000000
_cell_volume 5208.031029
_symmetry_space_group_name_H-M "I B A M"
_symmetry_group_IT_number 72
_symmetry_cell_setting 'orthorhombic'
loop_
_space_group_symop_operation_xyz
x,y,z
-x,-y,z
x,-y,1/2-z
-x,y,1/2-z
-x,-y,-z
x,y,-z
-x,y,1/2+z
x,-y,1/2+z
1/2+x,1/2+y,1/2+z
1/2-x,1/2-y,1/2+z
1/2+x,1/2-y,-z
1/2-x,1/2+y,-z
1/2-x,1/2-y,1/2-z
1/2+x,1/2+y,1/2-z
1/2-x,1/2+y,z
1/2+x,1/2-y,z
loop_
_atom_site_type_symbol
_atom_site_label
_atom_site_fract_x
_atom_site_fract_y
_atom_site_fract_z
Si Si1 0.836385 0.850805 0.200923
Si Si2 0.777619 0.700768 0.196440
Si Si3 0.161731 0.050234 0.204511
Si Si4 0.294530 0.050632 0.797090
Si Si5 0.417168 0.082563 0.211236
Si Si6 0.091590 0.317748 0.300601
Si Si7 0.000000 0.500000 0.250000
Si Si8 0.563116 0.281190 0.703457
O O1 0.774476 0.836114 0.281091
O O2 0.862232 0.900130 0.259837
O O3 0.883629 0.811507 0.230811
O O4 0.824276 0.854171 0.000000
O O5 0.750000 0.750000 0.250000
O O6 0.837480 0.687420 0.290936
O O7 0.793929 0.704342 0.000000
O O8 0.228866 0.053434 0.272294
O O9 0.137285 0.000000 0.250000
O O10 0.162105 0.049804 0.000000
O O11 0.348271 0.081517 0.742580
O O12 0.315276 0.000000 0.750000
O O13 0.289307 0.056050 0.000000
O O14 0.433027 0.134054 0.267469
O O15 0.451888 0.040252 0.296889
O O16 0.422697 0.076731 0.000000
O O17 0.076410 0.318849 0.500000
O O18 0.067405 0.270529 0.224112
O O19 0.500000 0.301001 0.750000
O O20 0.569181 0.279141 0.500000
#
# Coordination Sequence:
#
# PCOD9527721 Si02
#       8
#    16  16  16  16  16  16   4  16
#     4  11  22  39  64  92 128 167 203 248 307 368
#     4  12  23  37  61  95 129 162 203 255 317 382
#     4   9  19  34  58  89 121 157 192 236 294 360
#     4   9  16  31  51  74 106 145 186 230 286 346
#     4  10  21  37  55  76 108 150 199 257 316 366
#     4  10  22  41  62  85 119 162 206 257 318 379
#     4  12  22  36  60  82 108 152 218 276 326 376
#     4  11  24  41  63  88 120 161 208 255 305 367
#
# _framework density 22.273291
#
# number of rings (size 3 to 8) (size 9 to 14) (size 15 to 20)
#    0.000    1.655    2.069    3.103    0.966    3.862 
#    0.000    4.828    0.000    0.414    0.000    2.897 
#    0.000    0.000    0.000    0.000    0.000    0.000 
#
# Total GULP energy -323324.198230 kJ/mol
# GULP energy per Si atom -5574.555142 kJ/mol
# Density = 2.222260 g / cm^3
# Si number density = 22.273291 Si / 1000 Ang^3
#
#
#
# Elastic Constant Matrix: (Units=GPa)
#
#
# Indices 1 2 3 4 5 6 
#
# 1 62.1155 14.4259 -16.7680 0.0000 0.0000 0.0000
# 2 14.4259 162.8804 5.2495 0.0000 0.0000 0.0000
# 3 -16.7680 5.2495 42.6551 0.0000 0.0000 0.0000
# 4 0.0000 0.0000 0.0000 12.9882 0.0000 0.0000
# 5 0.0000 0.0000 0.0000 0.0000 -22.1607 0.0000
# 6 0.0000 0.0000 0.0000 0.0000 0.0000 7.5215
#
#
#
# Elastic Compliance Matrix: (Units=1/GPa)
#
#
# Indices 1 2 3 4 5 6 
#
# 1 0.018571 -0.001888 0.007533 0.000000 0.000000 0.000000
# 2 -0.001888 0.006356 -0.001524 0.000000 0.000000 0.000000
# 3 0.007533 -0.001524 0.026593 0.000000 0.000000 0.000000
# 4 0.000000 0.000000 0.000000 0.076993 0.000000 0.000000
# 5 0.000000 0.000000 0.000000 0.000000 -0.045125 0.000000
# 6 0.000000 0.000000 0.000000 0.000000 0.000000 0.132952
#
#
# Mechanical properties :
#
#
# Convention : Reuss Voigt Hill
#
# Bulk Modulus (GPa) = 16.73336 30.38508 23.55922
# Shear Modulus (GPa) = 21.92813 17.31938 19.62376
#
# Velocity S-wave (km/s) = 3.14108 2.79155 2.97146
# Velocity P-wave (km/s) = 4.54800 4.90529 4.73002
#
# Compressibility (1/GPa) = 0.05976085
#
# Stress axis : x y z
#
# Youngs Moduli (GPa) = 53.84794 157.33728 37.60455
#
# Poissons Ratio (x) = 0.29698 -0.28326
# Poissons Ratio (y) = 0.10164 0.05732
# Poissons Ratio (z) = -0.40561 0.23981
#
# Static dielectric constant tensor:
#      x y z
#    x 1.798880 0.000000 0.000000 
#    y 0.000000 1.883310 0.000000 
#    z 0.000000 0.000000 1.905200 
# 
# From -- ./inp_files/7268.got.cif
#   From: 2010.05.17/outbox.cif.g08.bks.cpg/sg72_4_cif.got.tgz:7268.got - 2010.06.03 17:03:01.
