data_PCOD9527798
_publ_section_title
;
Structure prediction by ZEFSAII (Michael W. Deem and Ramdas Pophale) SiO2 
 PCOD9527798
Probable space group: I B A M
;
_chemical_formula_sum "Si O2"
_cell_formula_units_Z 116
_cell_length_a 13.963414
_cell_length_b 28.790696
_cell_length_c 14.828990
_cell_angle_alpha 90.000000
_cell_angle_beta 90.000000
_cell_angle_gamma 90.000000
_cell_volume 5961.497288
_symmetry_space_group_name_H-M "I B A M"
_symmetry_group_IT_number 72
_symmetry_cell_setting 'orthorhombic'
loop_
_space_group_symop_operation_xyz
x,y,z
-x,-y,z
x,-y,1/2-z
-x,y,1/2-z
-x,-y,-z
x,y,-z
-x,y,1/2+z
x,-y,1/2+z
1/2+x,1/2+y,1/2+z
1/2-x,1/2-y,1/2+z
1/2+x,1/2-y,-z
1/2-x,1/2+y,-z
1/2-x,1/2-y,1/2-z
1/2+x,1/2+y,1/2-z
1/2-x,1/2+y,z
1/2+x,1/2-y,z
loop_
_atom_site_type_symbol
_atom_site_label
_atom_site_fract_x
_atom_site_fract_y
_atom_site_fract_z
Si Si1 0.197386 0.277855 0.170436
Si Si2 0.626322 0.336008 0.394263
Si Si3 0.417799 0.309559 0.392363
Si Si4 0.745427 0.423514 0.608263
Si Si5 0.888675 0.373671 0.264195
Si Si6 0.746164 0.620157 0.396000
Si Si7 0.500000 0.500000 0.250000
Si Si8 0.354288 0.477681 0.603285
O O1 0.250000 0.250000 0.250000
O O2 0.287140 0.299507 0.116323
O O3 0.127135 0.240705 0.125352
O O4 0.134713 0.322128 0.199174
O O5 0.610759 0.343256 0.500000
O O6 0.525122 0.318257 0.356084
O O7 0.665823 0.385606 0.360914
O O8 0.422106 0.315707 0.500000
O O9 0.340172 0.347375 0.359918
O O10 0.762876 0.417832 0.500000
O O11 0.837805 0.409877 0.667176
O O12 0.704111 0.474978 0.622032
O O13 0.835773 0.375377 0.168445
O O14 0.000000 0.381921 0.250000
O O15 0.766234 0.633436 0.500000
O O16 0.711906 0.567223 0.394535
O O17 0.566271 0.527983 0.319740
O O18 0.392598 0.480997 0.500000
#
# Coordination Sequence:
#
# PCOD9527798 Si02
#       8
#    16  16  16  16  16  16   4  16
#     4  11  22  37  55  83 119 152 195 246 301 361
#     4   9  20  37  58  83 113 154 200 244 296 359
#     4  10  21  37  60  85 116 159 201 245 301 360
#     4   9  20  42  64  88 125 162 202 253 305 365
#     4  11  24  41  63  92 119 154 209 258 311 367
#     4  10  22  42  61  88 126 161 203 255 304 360
#     4  12  22  32  56  94 130 164 210 240 308 350
#     4  10  22  39  62  90 128 168 208 254 304 368
#
# _framework density 19.458197999999999
#
# number of rings (size 3 to 8) (size 9 to 14) (size 15 to 20)
#    0.000    1.931    1.379    1.448    3.862    1.103 
#    0.000    1.379    0.000    2.483    0.000    0.000 
#    0.000    0.000    0.000    0.000    0.000    0.000 
#
# Total GULP energy -323698.718994 kJ/mol
# GULP energy per Si atom -5581.012396 kJ/mol
# Density = 1.941391 g / cm^3
# Si number density = 19.458198 Si / 1000 Ang^3
#
#
#
# Elastic Constant Matrix: (Units=GPa)
#
#
# Indices 1 2 3 4 5 6 
#
# 1 169.6120 55.8171 60.3623 0.0000 0.0000 0.0000
# 2 55.8171 112.2757 24.9736 -0.0002 0.0000 0.0000
# 3 60.3623 24.9736 75.5727 -0.0003 0.0000 0.0001
# 4 0.0000 -0.0002 -0.0003 23.2441 0.0000 0.0000
# 5 0.0000 0.0000 0.0000 0.0000 28.7808 0.0000
# 6 0.0000 0.0000 0.0001 0.0000 0.0000 -12.4298
#
#
#
# Elastic Compliance Matrix: (Units=1/GPa)
#
#
# Indices 1 2 3 4 5 6 
#
# 1 0.009172 -0.003163 -0.006281 0.000000 0.000000 0.000000
# 2 -0.003163 0.010704 -0.001011 0.000000 0.000000 0.000000
# 3 -0.006281 -0.001011 0.018583 0.000000 0.000000 0.000000
# 4 0.000000 0.000000 0.000000 0.043022 0.000000 0.000000
# 5 0.000000 0.000000 0.000000 0.000000 0.034745 0.000000
# 6 0.000000 0.000000 0.000000 0.000000 0.000000 -0.080452
#
#
# Mechanical properties :
#
#
# Convention : Reuss Voigt Hill
#
# Bulk Modulus (GPa) = 56.98062 71.08516 64.03289
# Shear Modulus (GPa) = 79.95849 22.33951 51.14900
#
# Velocity S-wave (km/s) = 6.41729 3.39200 5.13261
# Velocity P-wave (km/s) = 9.17911 7.20781 8.25253
#
# Compressibility (1/GPa) = 0.01754983
#
# Stress axis : x y z
#
# Youngs Moduli (GPa) = 109.02978 93.42438 53.81274
#
# Poissons Ratio (x) = 0.29547 0.33798
# Poissons Ratio (y) = 0.34483 0.05441
# Poissons Ratio (z) = 0.68478 0.09445
#
# Static dielectric constant tensor:
#      x y z
#    x 1.670050 0.000000 0.000000 
#    y 0.000000 1.665550 0.000000 
#    z 0.000000 0.000000 1.723750 
# 
# From -- ./inp_files/29729.got.cif
#   From: 2010.05.17/outbox.cif.g08.bks.cpg/sg72_15_cif.got.tgz:29729.got - 2010.06.03 17:03:01.
