data_PCOD9527942
_publ_section_title
;
Structure prediction by ZEFSAII (Michael W. Deem and Ramdas Pophale) SiO2 
 PCOD9527942
Probable space group: I B A M
;
_chemical_formula_sum "Si O2"
_cell_formula_units_Z 88
_cell_length_a 33.685678
_cell_length_b 5.154319
_cell_length_c 25.982845
_cell_angle_alpha 90.000000
_cell_angle_beta 90.000000
_cell_angle_gamma 90.000000
_cell_volume 4511.316417
_symmetry_space_group_name_H-M "I B A M"
_symmetry_group_IT_number 72
_symmetry_cell_setting 'orthorhombic'
loop_
_space_group_symop_operation_xyz
x,y,z
-x,-y,z
x,-y,1/2-z
-x,y,1/2-z
-x,-y,-z
x,y,-z
-x,y,1/2+z
x,-y,1/2+z
1/2+x,1/2+y,1/2+z
1/2-x,1/2-y,1/2+z
1/2+x,1/2-y,-z
1/2-x,1/2+y,-z
1/2-x,1/2-y,1/2-z
1/2+x,1/2+y,1/2-z
1/2-x,1/2+y,z
1/2+x,1/2-y,z
loop_
_atom_site_type_symbol
_atom_site_label
_atom_site_fract_x
_atom_site_fract_y
_atom_site_fract_z
Si Si1 0.588501 0.500000 0.750000
Si Si2 0.723805 0.493242 0.389766
Si Si3 0.873789 0.504448 0.000000
Si Si4 0.393442 0.893529 0.610567
Si Si5 0.643337 0.621968 0.656171
Si Si6 0.819500 0.005835 0.000000
Si Si7 0.955670 0.605092 0.695267
O O1 0.620822 0.631348 0.710978
O O2 0.556085 0.599359 0.792731
O O3 0.742534 0.210355 0.384537
O O4 0.689035 0.540588 0.348180
O O5 0.705193 0.523670 0.447285
O O6 0.898620 0.447446 0.050968
O O7 0.854016 0.787915 0.000000
O O8 0.838482 0.292128 0.000000
O O9 0.379281 0.602685 0.623262
O O10 0.431578 0.962805 0.644792
O O11 0.360608 0.097380 0.630143
O O12 0.938475 0.500000 0.750000
O O13 0.000000 0.500000 0.692448
#
# Coordination Sequence:
#
# PCOD9527942 Si02
#       7
#     8  16   8  16  16   8  16
#     4  10  22  41  66  90 122 160 198 258 294 370
#     4  12  23  38  56  86 122 153 199 261 308 352
#     4  12  20  37  63  86 122 161 212 239 294 362
#     4  11  21  39  59  90 122 164 199 248 292 370
#     4  11  22  40  61  86 119 158 210 241 308 359
#     4  12  22  37  58  88 115 157 204 259 297 358
#     4  10  21  38  62  96 125 148 197 251 311 346
#
# _framework density 19.506502000000001
#
# number of rings (size 3 to 8) (size 9 to 14) (size 15 to 20)
#    0.000    0.909    5.455    2.727    0.000    1.455 
#    0.000    1.364    0.000    0.000    0.000    5.091 
#    0.000    0.000    0.000    0.000    0.000    0.000 
#
# Total GULP energy -245082.068470 kJ/mol
# GULP energy per Si atom -5570.047011 kJ/mol
# Density = 1.946210 g / cm^3
# Si number density = 19.506502 Si / 1000 Ang^3
#
#
#
# Elastic Constant Matrix: (Units=GPa)
#
#
# Indices 1 2 3 4 5 6 
#
# 1 90.5351 -5.6569 43.9110 0.0000 0.0000 0.0000
# 2 -5.6569 42.0491 -0.0738 0.0000 0.0000 0.0000
# 3 43.9110 -0.0738 86.0316 0.0000 0.0000 0.0000
# 4 0.0000 0.0000 0.0000 16.4946 0.0000 0.0000
# 5 0.0000 0.0000 0.0000 0.0000 30.3544 0.0000
# 6 0.0000 0.0000 0.0000 0.0000 0.0000 23.8613
#
#
#
# Elastic Compliance Matrix: (Units=1/GPa)
#
#
# Indices 1 2 3 4 5 6 
#
# 1 0.014843 0.001984 -0.007574 0.000000 0.000000 0.000000
# 2 0.001984 0.024047 -0.000992 0.000000 0.000000 0.000000
# 3 -0.007574 -0.000992 0.015489 0.000000 0.000000 0.000000
# 4 0.000000 0.000000 0.000000 0.060626 0.000000 0.000000
# 5 0.000000 0.000000 0.000000 0.000000 0.032944 0.000000
# 6 0.000000 0.000000 0.000000 0.000000 0.000000 0.041909
#
#
# Mechanical properties :
#
#
# Convention : Reuss Voigt Hill
#
# Bulk Modulus (GPa) = 24.26384 32.77517 28.51951
# Shear Modulus (GPa) = 23.06695 26.17110 24.61902
#
# Velocity S-wave (km/s) = 3.44252 3.66684 3.55645
# Velocity P-wave (km/s) = 5.31668 5.89629 5.61397
#
# Compressibility (1/GPa) = 0.04121359
#
# Stress axis : x y z
#
# Youngs Moduli (GPa) = 67.37178 41.58548 64.56310
#
# Poissons Ratio (x) = -0.08249 0.48902
# Poissons Ratio (y) = -0.13364 0.06403
# Poissons Ratio (z) = 0.51029 0.04124
#
# Static dielectric constant tensor:
#      x y z
#    x 1.674390 0.000000 0.000000 
#    y 0.000000 3.364480 0.000000 
#    z 0.000000 0.000000 1.789130 
# 
# From -- ./inp_files/49967.got.cif
#   From: 2010.05.17/outbox.cif.g08.bks.cpg/sg72_25_cif.got.tgz:49967.got - 2010.06.03 17:03:01.
