data_PCOD9527433
_publ_section_title
;
Structure prediction by ZEFSAII (Michael W. Deem and Ramdas Pophale) SiO2 
 PCOD9527433
Probable space group: I B A M
;
_chemical_formula_sum "Si O2"
_cell_formula_units_Z 48
_cell_length_a 16.627127
_cell_length_b 7.559385
_cell_length_c 14.455079
_cell_angle_alpha 90.000000
_cell_angle_beta 90.000000
_cell_angle_gamma 90.000000
_cell_volume 1816.871230
_symmetry_space_group_name_H-M "I B A M"
_symmetry_group_IT_number 72
_symmetry_cell_setting 'orthorhombic'
loop_
_space_group_symop_operation_xyz
x,y,z
-x,-y,z
x,-y,1/2-z
-x,y,1/2-z
-x,-y,-z
x,y,-z
-x,y,1/2+z
x,-y,1/2+z
1/2+x,1/2+y,1/2+z
1/2-x,1/2-y,1/2+z
1/2+x,1/2-y,-z
1/2-x,1/2+y,-z
1/2-x,1/2-y,1/2-z
1/2+x,1/2+y,1/2-z
1/2-x,1/2+y,z
1/2+x,1/2-y,z
loop_
_atom_site_type_symbol
_atom_site_label
_atom_site_fract_x
_atom_site_fract_y
_atom_site_fract_z
Si Si1 0.825049 0.827673 0.193951
Si Si2 0.021291 0.204280 0.106842
Si Si3 0.383141 0.841379 0.500000
Si Si4 0.226283 0.008237 0.000000
O O1 0.750000 0.750000 0.250000
O O2 0.908411 0.727195 0.172924
O O3 0.793277 0.891637 0.094706
O O4 0.849564 0.000000 0.250000
O O5 0.941400 0.319983 0.088813
O O6 0.051929 0.190876 0.000000
O O7 0.000000 0.000000 0.130601
O O8 0.323357 0.005170 0.500000
O O9 0.325986 0.669191 0.500000
#
# Coordination Sequence:
#
# PCOD9527433 Si02
#       4
#    16  16   8   8
#     4  12  25  40  70 103 134 183 233 285 344 410
#     4   9  17  41  66  99 124 188 225 276 336 407
#     4  10  20  39  82  89 136 194 213 291 350 396
#     4  12  21  46  59 104 138 168 236 290 337 403
#
# _framework density 26.419044
#
# number of rings (size 3 to 8) (size 9 to 14) (size 15 to 20)
#    1.000    0.333    5.000    2.000    0.000    0.667 
#    0.000    0.000    0.000   22.000    0.000    0.000 
#    0.000    0.000    0.000    0.000    0.000    0.000 
#
# Total GULP energy -134237.835653 kJ/mol
# GULP energy per Si atom -5593.243152 kJ/mol
# Density = 2.635891 g / cm^3
# Si number density = 26.419044 Si / 1000 Ang^3
#
#
#
# Elastic Constant Matrix: (Units=GPa)
#
#
# Indices 1 2 3 4 5 6 
#
# 1 249.0541 64.8332 74.0740 0.0000 0.0000 0.0000
# 2 64.8332 69.9506 34.1241 0.0000 0.0000 0.0000
# 3 74.0740 34.1241 153.0404 0.0000 0.0000 0.0000
# 4 0.0000 0.0000 0.0000 33.0130 0.0000 0.0000
# 5 0.0000 0.0000 0.0000 0.0000 60.8303 0.0000
# 6 0.0000 0.0000 0.0000 0.0000 0.0000 47.7041
#
#
#
# Elastic Compliance Matrix: (Units=1/GPa)
#
#
# Indices 1 2 3 4 5 6 
#
# 1 0.005690 -0.004410 -0.001771 0.000000 0.000000 0.000000
# 2 -0.004410 0.019458 -0.002204 0.000000 0.000000 0.000000
# 3 -0.001771 -0.002204 0.007883 0.000000 0.000000 0.000000
# 4 0.000000 0.000000 0.000000 0.030291 0.000000 0.000000
# 5 0.000000 0.000000 0.000000 0.000000 0.016439 0.000000
# 6 0.000000 0.000000 0.000000 0.000000 0.000000 0.020963
#
#
# Mechanical properties :
#
#
# Convention : Reuss Voigt Hill
#
# Bulk Modulus (GPa) = 61.49554 90.90087 76.19820
# Shear Modulus (GPa) = 40.67900 48.24371 44.46135
#
# Velocity S-wave (km/s) = 3.92824 4.27792 4.10680
# Velocity P-wave (km/s) = 6.62587 7.67351 7.16886
#
# Compressibility (1/GPa) = 0.01626134
#
# Stress axis : x y z
#
# Youngs Moduli (GPa) = 175.75431 51.39206 126.85901
#
# Poissons Ratio (x) = 0.22662 0.22463
# Poissons Ratio (y) = 0.77503 0.27964
# Poissons Ratio (z) = 0.31120 0.11328
#
# Static dielectric constant tensor:
#      x y z
#    x 2.192530 0.000000 0.000000 
#    y 0.000000 2.099270 0.000000 
#    z 0.000000 0.000000 2.142430 
# 
# From -- ./inp_files/22631.got.cif
#   From: 2010.05.17/outbox.cif.g08.bks.cpg/sg72_12_cif.got.tgz:22631.got - 2010.06.03 17:03:01.
