data_PCOD9527486
_publ_section_title
;
Structure prediction by ZEFSAII (Michael W. Deem and Ramdas Pophale) SiO2 
 PCOD9527486
Probable space group: I B A M
;
_chemical_formula_sum "Si O2"
_cell_formula_units_Z 96
_cell_length_a 9.539050
_cell_length_b 28.097800
_cell_length_c 19.165119
_cell_angle_alpha 90.000000
_cell_angle_beta 90.000000
_cell_angle_gamma 90.000000
_cell_volume 5136.756300
_symmetry_space_group_name_H-M "I B A M"
_symmetry_group_IT_number 72
_symmetry_cell_setting 'orthorhombic'
loop_
_space_group_symop_operation_xyz
x,y,z
-x,-y,z
x,-y,1/2-z
-x,y,1/2-z
-x,-y,-z
x,y,-z
-x,y,1/2+z
x,-y,1/2+z
1/2+x,1/2+y,1/2+z
1/2-x,1/2-y,1/2+z
1/2+x,1/2-y,-z
1/2-x,1/2+y,-z
1/2-x,1/2-y,1/2-z
1/2+x,1/2+y,1/2-z
1/2-x,1/2+y,z
1/2+x,1/2-y,z
loop_
_atom_site_type_symbol
_atom_site_label
_atom_site_fract_x
_atom_site_fract_y
_atom_site_fract_z
Si Si1 0.061315 0.865435 0.078810
Si Si2 0.798340 0.287304 0.417937
Si Si3 0.915280 0.955555 0.322510
Si Si4 0.583896 0.043583 0.176429
Si Si5 0.000243 0.352664 0.666449
Si Si6 0.248606 0.823062 0.419971
O O1 0.165630 0.821657 0.092255
O O2 0.077282 0.908240 0.132127
O O3 0.905350 0.844970 0.081489
O O4 0.090319 0.882616 0.000000
O O5 0.839397 0.288941 0.500000
O O6 0.761662 0.232825 0.402337
O O7 0.917784 0.309511 0.369750
O O8 0.749194 0.966589 0.313922
O O9 0.000000 0.947808 0.250000
O O10 0.000000 0.000000 0.355582
O O11 0.500000 0.047891 0.250000
O O12 0.567252 0.096459 0.145292
O O13 0.500000 0.000000 0.139996
O O14 0.154732 0.350114 0.634720
O O15 0.000000 0.347945 0.750000
O O16 0.302628 0.827082 0.500000
#
# Coordination Sequence:
#
# PCOD9527486 Si02
#       6
#    16  16  16  16  16  16
#     4  10  22  38  60  88 120 153 196 252 293 337
#     4  10  20  41  63  84 117 162 204 239 289 355
#     4  11  23  38  65  90 114 158 197 240 295 359
#     4  10  21  38  59  87 121 155 194 238 292 357
#     4  11  23  36  60  92 122 154 191 249 302 339
#     4  10  22  39  63  86 115 162 205 238 286 358
#
# _framework density 18.688835999999998
#
# number of rings (size 3 to 8) (size 9 to 14) (size 15 to 20)
#    0.000    1.667    1.667    3.500    7.000    3.667 
#    0.000    1.667    0.000    2.500    0.000    0.000 
#    0.000    0.000    0.000    0.000    0.000    0.000 
#
# Total GULP energy -267787.761835 kJ/mol
# GULP energy per Si atom -5578.911705 kJ/mol
# Density = 1.864630 g / cm^3
# Si number density = 18.688836 Si / 1000 Ang^3
#
#
#
# Elastic Constant Matrix: (Units=GPa)
#
#
# Indices 1 2 3 4 5 6 
#
# 1 117.5969 27.3457 25.0562 0.0000 0.0000 0.0000
# 2 27.3457 105.9834 33.2235 0.0000 0.0000 0.0000
# 3 25.0562 33.2235 39.3005 0.0001 0.0000 0.0000
# 4 0.0000 0.0000 0.0001 -45.2026 0.0000 0.0000
# 5 0.0000 0.0000 0.0000 0.0000 26.8801 0.0000
# 6 0.0000 0.0000 0.0000 0.0000 0.0000 27.7225
#
#
#
# Elastic Compliance Matrix: (Units=1/GPa)
#
#
# Indices 1 2 3 4 5 6 
#
# 1 0.009888 -0.000782 -0.005643 0.000000 0.000000 0.000000
# 2 -0.000782 0.012899 -0.010406 0.000000 0.000000 0.000000
# 3 -0.005643 -0.010406 0.037839 0.000000 0.000000 0.000000
# 4 0.000000 0.000000 0.000000 -0.022123 0.000000 0.000000
# 5 0.000000 0.000000 0.000000 0.000000 0.037202 0.000000
# 6 0.000000 0.000000 0.000000 0.000000 0.000000 0.036072
#
#
# Mechanical properties :
#
#
# Convention : Reuss Voigt Hill
#
# Bulk Modulus (GPa) = 37.08560 48.23683 42.66122
# Shear Modulus (GPa) = 32.37757 13.69703 23.03730
#
# Velocity S-wave (km/s) = 4.16679 2.71015 3.51476
# Velocity P-wave (km/s) = 6.56021 5.97158 6.27280
#
# Compressibility (1/GPa) = 0.02696464
#
# Stress axis : x y z
#
# Youngs Moduli (GPa) = 101.13445 77.52337 26.42754
#
# Poissons Ratio (x) = 0.06065 0.14912
# Poissons Ratio (y) = 0.07913 0.27500
# Poissons Ratio (z) = 0.57066 0.80670
#
# Static dielectric constant tensor:
#      x y z
#    x 1.663450 0.000000 0.000000 
#    y 0.000000 1.661360 0.000000 
#    z 0.000000 0.000000 1.641160 
# 
# From -- ./inp_files/35996.got.cif
#   From: 2010.05.17/outbox.cif.g08.bks.cpg/sg72_18_cif.got.tgz:35996.got - 2010.06.03 17:03:01.
