data_PCOD9527949
_publ_section_title
;
Structure prediction by ZEFSAII (Michael W. Deem and Ramdas Pophale) SiO2 
 PCOD9527949
Probable space group: I B A M
;
_chemical_formula_sum "Si O2"
_cell_formula_units_Z 68
_cell_length_a 16.024715
_cell_length_b 22.950447
_cell_length_c 8.833147
_cell_angle_alpha 90.000000
_cell_angle_beta 90.000000
_cell_angle_gamma 90.000000
_cell_volume 3248.605093
_symmetry_space_group_name_H-M "I B A M"
_symmetry_group_IT_number 72
_symmetry_cell_setting 'orthorhombic'
loop_
_space_group_symop_operation_xyz
x,y,z
-x,-y,z
x,-y,1/2-z
-x,y,1/2-z
-x,-y,-z
x,y,-z
-x,y,1/2+z
x,-y,1/2+z
1/2+x,1/2+y,1/2+z
1/2-x,1/2-y,1/2+z
1/2+x,1/2-y,-z
1/2-x,1/2+y,-z
1/2-x,1/2-y,1/2-z
1/2+x,1/2+y,1/2-z
1/2-x,1/2+y,z
1/2+x,1/2-y,z
loop_
_atom_site_type_symbol
_atom_site_label
_atom_site_fract_x
_atom_site_fract_y
_atom_site_fract_z
Si Si1 0.093105 0.201269 0.682283
Si Si2 0.407407 0.831244 0.680188
Si Si3 0.500000 0.500000 0.750000
Si Si4 0.349554 0.417049 0.328617
Si Si5 0.317446 0.058813 0.677024
O O1 0.092086 0.190733 0.500000
O O2 0.128200 0.266233 0.710008
O O3 0.134868 0.148459 0.771400
O O4 0.000000 0.202861 0.750000
O O5 0.500000 0.834040 0.750000
O O6 0.413418 0.837749 0.500000
O O7 0.354000 0.883073 0.749276
O O8 0.565362 0.544920 0.672716
O O9 0.316036 0.417943 0.500000
O O10 0.281150 0.441024 0.212796
O O11 0.332797 0.058953 0.500000
O O12 0.353464 0.000000 0.750000
#
# Coordination Sequence:
#
# PCOD9527949 Si02
#       5
#    16  16   4  16  16
#     4  10  21  38  63  94 129 168 214 266 317 378
#     4  10  22  43  69  97 129 167 213 265 324 383
#     4  12  26  40  68  98 132 176 216 256 306 376
#     4  12  25  41  65  95 132 173 218 265 315 379
#     4  12  26  44  66  94 130 168 213 267 323 384
#
# _framework density 20.93206
#
# number of rings (size 3 to 8) (size 9 to 14) (size 15 to 20)
#    0.000    0.941    2.353    4.588    0.000    6.118 
#    0.000    2.353    0.000    0.000    0.000    0.000 
#    0.000    0.000    0.000    0.000    0.000    0.000 
#
# Total GULP energy -189948.618356 kJ/mol
# GULP energy per Si atom -5586.724069 kJ/mol
# Density = 2.088442 g / cm^3
# Si number density = 20.932060 Si / 1000 Ang^3
#
#
#
# Elastic Constant Matrix: (Units=GPa)
#
#
# Indices 1 2 3 4 5 6 
#
# 1 36.1228 25.0734 -2.1310 0.0000 0.0000 0.0000
# 2 25.0734 165.2570 54.7017 0.0000 0.0000 0.0000
# 3 -2.1310 54.7017 110.9497 0.0000 0.0000 0.0000
# 4 0.0000 0.0000 0.0000 -23.1270 0.0000 0.0000
# 5 0.0000 0.0000 0.0000 0.0000 27.5968 0.0000
# 6 0.0000 0.0000 0.0000 0.0000 0.0000 16.9069
#
#
#
# Elastic Compliance Matrix: (Units=1/GPa)
#
#
# Indices 1 2 3 4 5 6 
#
# 1 0.032106 -0.006065 0.003607 0.000000 0.000000 0.000000
# 2 -0.006065 0.008377 -0.004247 0.000000 0.000000 0.000000
# 3 0.003607 -0.004247 0.011176 0.000000 0.000000 0.000000
# 4 0.000000 0.000000 0.000000 -0.043240 0.000000 0.000000
# 5 0.000000 0.000000 0.000000 0.000000 0.036236 0.000000
# 6 0.000000 0.000000 0.000000 0.000000 0.000000 0.059147
#
#
# Mechanical properties :
#
#
# Convention : Reuss Voigt Hill
#
# Bulk Modulus (GPa) = 26.14408 51.95751 39.05080
# Shear Modulus (GPa) = 38.47254 19.92104 29.19679
#
# Velocity S-wave (km/s) = 4.29181 3.08831 3.73880
# Velocity P-wave (km/s) = 6.08905 6.13129 6.11021
#
# Compressibility (1/GPa) = 0.03824958
#
# Stress axis : x y z
#
# Youngs Moduli (GPa) = 31.14671 119.37299 89.47651
#
# Poissons Ratio (x) = 0.72402 -0.32274
# Poissons Ratio (y) = 0.18891 0.37998
# Poissons Ratio (z) = -0.11235 0.50694
#
# Static dielectric constant tensor:
#      x y z
#    x 1.753360 0.000000 0.000000 
#    y 0.000000 1.788770 0.000000 
#    z 0.000000 0.000000 1.699110 
# 
# From -- ./inp_files/4400.got.cif
#   From: 2010.05.17/outbox.cif.g08.bks.cpg/sg72_3_cif.got.tgz:4400.got - 2010.06.03 17:03:01.
