data_PCOD9527555
_publ_section_title
;
Structure prediction by ZEFSAII (Michael W. Deem and Ramdas Pophale) SiO2 
 PCOD9527555
Probable space group: I B A M
;
_chemical_formula_sum "Si O2"
_cell_formula_units_Z 80
_cell_length_a 14.549719
_cell_length_b 25.407110
_cell_length_c 13.452734
_cell_angle_alpha 90.000000
_cell_angle_beta 90.000000
_cell_angle_gamma 90.000000
_cell_volume 4973.022552
_symmetry_space_group_name_H-M "I B A M"
_symmetry_group_IT_number 72
_symmetry_cell_setting 'orthorhombic'
loop_
_space_group_symop_operation_xyz
x,y,z
-x,-y,z
x,-y,1/2-z
-x,y,1/2-z
-x,-y,-z
x,y,-z
-x,y,1/2+z
x,-y,1/2+z
1/2+x,1/2+y,1/2+z
1/2-x,1/2-y,1/2+z
1/2+x,1/2-y,-z
1/2-x,1/2+y,-z
1/2-x,1/2-y,1/2-z
1/2+x,1/2+y,1/2-z
1/2-x,1/2+y,z
1/2+x,1/2-y,z
loop_
_atom_site_type_symbol
_atom_site_label
_atom_site_fract_x
_atom_site_fract_y
_atom_site_fract_z
Si Si1 0.943367 0.869119 0.119844
Si Si2 0.742499 0.302384 0.618734
Si Si3 0.605862 0.481618 0.881147
Si Si4 0.650895 0.406976 0.620608
Si Si5 0.602077 0.259668 0.226134
O O1 0.886613 0.921189 0.152264
O O2 0.911182 0.815315 0.169104
O O3 0.049740 0.883044 0.144176
O O4 0.937813 0.864187 0.000000
O O5 0.735540 0.297329 0.500000
O O6 0.725744 0.363405 0.647514
O O7 0.660954 0.270831 0.674408
O O8 0.837362 0.279104 0.659178
O O9 0.500000 0.500000 0.865294
O O10 0.661205 0.532662 0.844565
O O11 0.618544 0.478562 0.000000
O O12 0.650793 0.410026 0.500000
O O13 0.500000 0.240082 0.250000
#
# Coordination Sequence:
#
# PCOD9527555 Si02
#       5
#    16  16  16  16  16
#     4   9  15  26  45  68  98 131 160 191 233 285
#     4  10  21  34  48  66  93 131 168 206 248 293
#     4   7  11  20  39  65  92 127 161 184 219 280
#     4   8  13  25  44  65  94 131 163 192 230 282
#     4  11  21  32  48  70  96 127 167 208 247 294
#
# _framework density 16.086796
#
# number of rings (size 3 to 8) (size 9 to 14) (size 15 to 20)
#    0.000    3.000    2.000    3.000    0.000    0.800 
#    0.000    1.000    0.000    0.000    0.000    0.000 
#    0.000   12.800    0.000   53.200    0.000    0.000 
#
# Total GULP energy -222891.830840 kJ/mol
# GULP energy per Si atom -5572.295771 kJ/mol
# Density = 1.605018 g / cm^3
# Si number density = 16.086796 Si / 1000 Ang^3
#
#
#
# Elastic Constant Matrix: (Units=GPa)
#
#
# Indices 1 2 3 4 5 6 
#
# 1 81.2222 55.5544 29.2472 0.0000 0.0000 0.0000
# 2 55.5544 128.2137 32.7954 -0.0001 0.0000 0.0000
# 3 29.2472 32.7954 81.8307 -0.0001 0.0000 0.0000
# 4 0.0000 -0.0001 -0.0001 26.3388 0.0000 0.0000
# 5 0.0000 0.0000 0.0000 0.0000 13.9365 0.0000
# 6 0.0000 0.0000 0.0000 0.0000 0.0000 28.6926
#
#
#
# Elastic Compliance Matrix: (Units=1/GPa)
#
#
# Indices 1 2 3 4 5 6 
#
# 1 0.018494 -0.007045 -0.003787 0.000000 0.000000 0.000000
# 2 -0.007045 0.011374 -0.002040 0.000000 0.000000 0.000000
# 3 -0.003787 -0.002040 0.014391 0.000000 0.000000 0.000000
# 4 0.000000 0.000000 0.000000 0.037967 0.000000 0.000000
# 5 0.000000 0.000000 0.000000 0.000000 0.071754 0.000000
# 6 0.000000 0.000000 0.000000 0.000000 0.000000 0.034852
#
#
# Mechanical properties :
#
#
# Convention : Reuss Voigt Hill
#
# Bulk Modulus (GPa) = 54.00836 58.49563 56.25199
# Shear Modulus (GPa) = 22.65030 25.37155 24.01093
#
# Velocity S-wave (km/s) = 3.75641 3.97566 3.86759
# Velocity P-wave (km/s) = 7.24294 7.58393 7.41539
#
# Compressibility (1/GPa) = 0.01851565
#
# Stress axis : x y z
#
# Youngs Moduli (GPa) = 54.07189 87.92089 69.48559
#
# Poissons Ratio (x) = 0.61938 0.26311
# Poissons Ratio (y) = 0.38092 0.14178
# Poissons Ratio (z) = 0.20475 0.17940
#
# Static dielectric constant tensor:
#      x y z
#    x 1.503890 0.000000 0.000000 
#    y 0.000000 1.577840 0.000000 
#    z 0.000000 0.000000 1.619540 
# 
# From -- ./inp_files/20430.got.cif
#   From: 2010.05.17/outbox.cif.g08.bks.cpg/sg72_11_cif.got.tgz:20430.got - 2010.06.03 17:03:01.
