data_PCOD9527812
_publ_section_title
;
Structure prediction by ZEFSAII (Michael W. Deem and Ramdas Pophale) SiO2 
 PCOD9527812
Probable space group: I B A M
;
_chemical_formula_sum "Si O2"
_cell_formula_units_Z 52
_cell_length_a 5.151048
_cell_length_b 28.914886
_cell_length_c 14.278708
_cell_angle_alpha 90.000000
_cell_angle_beta 90.000000
_cell_angle_gamma 90.000000
_cell_volume 2126.698837
_symmetry_space_group_name_H-M "I B A M"
_symmetry_group_IT_number 72
_symmetry_cell_setting 'orthorhombic'
loop_
_space_group_symop_operation_xyz
x,y,z
-x,-y,z
x,-y,1/2-z
-x,y,1/2-z
-x,-y,-z
x,y,-z
-x,y,1/2+z
x,-y,1/2+z
1/2+x,1/2+y,1/2+z
1/2-x,1/2-y,1/2+z
1/2+x,1/2-y,-z
1/2-x,1/2+y,-z
1/2-x,1/2-y,1/2-z
1/2+x,1/2+y,1/2-z
1/2-x,1/2+y,z
1/2+x,1/2-y,z
loop_
_atom_site_type_symbol
_atom_site_label
_atom_site_fract_x
_atom_site_fract_y
_atom_site_fract_z
Si Si1 0.684791 0.634017 0.109495
Si Si2 0.801490 0.573303 0.610487
Si Si3 0.000000 0.500000 0.250000
Si Si4 0.910762 0.268062 0.647044
O O1 0.419186 0.609855 0.140724
O O2 0.786800 0.681409 0.153103
O O3 0.918467 0.597607 0.116930
O O4 0.648395 0.645204 0.000000
O O5 0.755038 0.561049 0.500000
O O6 0.822115 0.530648 0.680852
O O7 0.696317 0.234696 0.601752
O O8 0.000000 0.252080 0.750000
#
# Coordination Sequence:
#
# PCOD9527812 Si02
#       4
#    16  16   4  16
#     4  10  22  42  65  94 135 178 217 277 338 391
#     4  10  24  44  67  99 136 169 222 285 338 412
#     4  12  26  46  72 104 124 182 222 278 368 420
#     4  10  21  37  60  95 134 173 219 273 318 381
#
# _framework density 24.451041
#
# number of rings (size 3 to 8) (size 9 to 14) (size 15 to 20)
#    0.000    1.846    0.000    2.308    2.154    4.923 
#    0.000    4.615    0.000    0.000    0.000    0.000 
#    0.000    0.000    0.000    0.000    0.000    0.000 
#
# Total GULP energy -145361.270015 kJ/mol
# GULP energy per Si atom -5590.818077 kJ/mol
# Density = 2.439539 g / cm^3
# Si number density = 24.451041 Si / 1000 Ang^3
#
#
#
# Elastic Constant Matrix: (Units=GPa)
#
#
# Indices 1 2 3 4 5 6 
#
# 1 156.5630 38.6894 10.0574 0.0000 0.0000 0.0000
# 2 38.6894 128.9386 51.0461 0.0000 0.0000 0.0000
# 3 10.0574 51.0461 107.9126 0.0000 0.0000 0.0000
# 4 0.0000 0.0000 0.0000 58.2489 0.0000 0.0000
# 5 0.0000 0.0000 0.0000 0.0000 9.5261 0.0000
# 6 0.0000 0.0000 0.0000 0.0000 0.0000 15.2951
#
#
#
# Elastic Compliance Matrix: (Units=1/GPa)
#
#
# Indices 1 2 3 4 5 6 
#
# 1 0.006914 -0.002239 0.000415 0.000000 0.000000 0.000000
# 2 -0.002239 0.010268 -0.004648 0.000000 0.000000 0.000000
# 3 0.000415 -0.004648 0.011427 0.000000 0.000000 0.000000
# 4 0.000000 0.000000 0.000000 0.017168 0.000000 0.000000
# 5 0.000000 0.000000 0.000000 0.000000 0.104974 0.000000
# 6 0.000000 0.000000 0.000000 0.000000 0.000000 0.065380
#
#
# Mechanical properties :
#
#
# Convention : Reuss Voigt Hill
#
# Bulk Modulus (GPa) = 63.84229 65.88889 64.86559
# Shear Modulus (GPa) = 21.34048 36.18878 28.76463
#
# Velocity S-wave (km/s) = 2.95750 3.85132 3.43362
# Velocity P-wave (km/s) = 6.15055 6.83978 6.50430
#
# Compressibility (1/GPa) = 0.01566360
#
# Stress axis : x y z
#
# Youngs Moduli (GPa) = 144.63842 97.39383 87.51291
#
# Poissons Ratio (x) = 0.21804 -0.03628
# Poissons Ratio (y) = 0.32380 0.40678
# Poissons Ratio (z) = -0.05997 0.45271
#
# Static dielectric constant tensor:
#      x y z
#    x 2.081420 0.000000 0.000000 
#    y 0.000000 1.937870 0.000000 
#    z 0.000000 0.000000 2.054790 
# 
# From -- ./inp_files/17547.got.cif
#   From: 2010.05.17/outbox.cif.g08.bks.cpg/sg72_9_cif.got.tgz:17547.got - 2010.06.03 17:03:01.
