data_PCOD9527948
_publ_section_title
;
Structure prediction by ZEFSAII (Michael W. Deem and Ramdas Pophale) SiO2 
 PCOD9527948
Probable space group: I B A M
;
_chemical_formula_sum "Si O2"
_cell_formula_units_Z 88
_cell_length_a 8.218484
_cell_length_b 30.050153
_cell_length_c 16.538045
_cell_angle_alpha 90.000000
_cell_angle_beta 90.000000
_cell_angle_gamma 90.000000
_cell_volume 4084.346425
_symmetry_space_group_name_H-M "I B A M"
_symmetry_group_IT_number 72
_symmetry_cell_setting 'orthorhombic'
loop_
_space_group_symop_operation_xyz
x,y,z
-x,-y,z
x,-y,1/2-z
-x,y,1/2-z
-x,-y,-z
x,y,-z
-x,y,1/2+z
x,-y,1/2+z
1/2+x,1/2+y,1/2+z
1/2-x,1/2-y,1/2+z
1/2+x,1/2-y,-z
1/2-x,1/2+y,-z
1/2-x,1/2-y,1/2-z
1/2+x,1/2+y,1/2-z
1/2-x,1/2+y,z
1/2+x,1/2-y,z
loop_
_atom_site_type_symbol
_atom_site_label
_atom_site_fract_x
_atom_site_fract_y
_atom_site_fract_z
Si Si1 0.151826 0.631179 0.310454
Si Si2 0.000000 0.101083 0.750000
Si Si3 0.277685 0.287846 0.098068
Si Si4 0.841417 0.092325 0.591324
Si Si5 0.987091 0.549604 0.093383
Si Si6 0.854463 0.804588 0.096251
O O1 0.330993 0.626418 0.270848
O O2 0.158749 0.674800 0.366717
O O3 0.000000 0.635342 0.250000
O O4 0.119550 0.585608 0.359506
O O5 0.954737 0.077066 0.665362
O O6 0.242408 0.237861 0.128530
O O7 0.459737 0.300463 0.123083
O O8 0.268983 0.289655 0.000000
O O9 0.912389 0.088722 0.500000
O O10 0.671047 0.067536 0.593141
O O11 0.802236 0.144682 0.605640
O O12 0.000000 0.500000 0.128440
O O13 0.930118 0.546502 0.000000
O O14 0.853993 0.797590 0.000000
#
# Coordination Sequence:
#
# PCOD9527948 Si02
#       6
#    16   8  16  16  16  16
#     4  12  25  43  66  96 138 181 230 285 352 418
#     4  12  24  44  67 104 138 178 234 280 347 426
#     4  10  21  38  63  93 128 177 233 280 343 415
#     4  10  21  42  69  98 141 183 227 294 348 409
#     4  10  23  45  74 103 132 176 234 293 357 423
#     4   9  19  35  60  93 128 173 226 279 340 409
#
# _framework density 21.545674999999999
#
# number of rings (size 3 to 8) (size 9 to 14) (size 15 to 20)
#    0.000    1.636    3.636    0.545    2.545    1.091 
#    1.636    3.636    0.000    3.273    0.000    0.000 
#    0.000    0.000    0.000    0.000    0.000    0.000 
#
# Total GULP energy -245460.718302 kJ/mol
# GULP energy per Si atom -5578.652689 kJ/mol
# Density = 2.149664 g / cm^3
# Si number density = 21.545675 Si / 1000 Ang^3
#
#
#
# Elastic Constant Matrix: (Units=GPa)
#
#
# Indices 1 2 3 4 5 6 
#
# 1 78.5925 33.9715 31.6834 -0.0001 0.0007 0.0000
# 2 33.9715 131.9662 12.7345 -0.0001 0.0003 0.0000
# 3 31.6834 12.7345 91.2073 0.0000 -0.0036 0.0002
# 4 -0.0001 -0.0001 0.0000 -147.0390 -0.0127 0.0001
# 5 0.0007 0.0003 -0.0036 -0.0127 -714.8227 -0.0084
# 6 0.0000 0.0000 0.0002 0.0001 -0.0084 68.4991
#
#
#
# Elastic Compliance Matrix: (Units=1/GPa)
#
#
# Indices 1 2 3 4 5 6 
#
# 1 0.016426 -0.003728 -0.005185 0.000000 0.000000 0.000000
# 2 -0.003728 0.008527 0.000104 0.000000 0.000000 0.000000
# 3 -0.005185 0.000104 0.012751 0.000000 0.000000 0.000000
# 4 0.000000 0.000000 0.000000 -0.006801 0.000000 0.000000
# 5 0.000000 0.000000 0.000000 0.000000 -0.001399 0.000000
# 6 0.000000 0.000000 0.000000 0.000000 0.000000 0.014599
#
#
# Mechanical properties :
#
#
# Convention : Reuss Voigt Hill
#
# Bulk Modulus (GPa) = 49.78648 50.94942 50.36795
# Shear Modulus (GPa) = 73.08235 -143.78074 -35.34920
#
# Velocity S-wave (km/s) = 5.83038 -8.17789 -4.05490
# Velocity P-wave (km/s) = 8.27539 8.09148 1.22680
#
# Compressibility (1/GPa) = 0.02008577
#
# Stress axis : x y z
#
# Youngs Moduli (GPa) = 60.88007 117.27031 78.42667
#
# Poissons Ratio (x) = 0.43719 0.40668
# Poissons Ratio (y) = 0.22696 -0.00819
# Poissons Ratio (z) = 0.31569 -0.01225
#
# Static dielectric constant tensor:
#      x y z
#    x 1.763520 0.000000 0.000000 
#    y 0.000000 1.781140 0.000000 
#    z 0.000000 0.000000 1.853420 
# 
# From -- ./inp_files/28362.got.cif
#   From: 2010.05.17/outbox.cif.g08.bks.cpg/sg72_15_cif.got.tgz:28362.got - 2010.06.03 17:03:01.
