data_PCOD9527063
_publ_section_title
;
Structure prediction by ZEFSAII (Michael W. Deem and Ramdas Pophale) SiO2 
 PCOD9527063
Probable space group: I B A M
;
_chemical_formula_sum "Si O2"
_cell_formula_units_Z 96
_cell_length_a 13.485537
_cell_length_b 18.348739
_cell_length_c 17.459350
_cell_angle_alpha 90.000000
_cell_angle_beta 90.000000
_cell_angle_gamma 90.000000
_cell_volume 4320.186935
_symmetry_space_group_name_H-M "I B A M"
_symmetry_group_IT_number 72
_symmetry_cell_setting 'orthorhombic'
loop_
_space_group_symop_operation_xyz
x,y,z
-x,-y,z
x,-y,1/2-z
-x,y,1/2-z
-x,-y,-z
x,y,-z
-x,y,1/2+z
x,-y,1/2+z
1/2+x,1/2+y,1/2+z
1/2-x,1/2-y,1/2+z
1/2+x,1/2-y,-z
1/2-x,1/2+y,-z
1/2-x,1/2-y,1/2-z
1/2+x,1/2+y,1/2-z
1/2-x,1/2+y,z
1/2+x,1/2-y,z
loop_
_atom_site_type_symbol
_atom_site_label
_atom_site_fract_x
_atom_site_fract_y
_atom_site_fract_z
Si Si1 0.282313 0.657024 0.414173
Si Si2 0.455826 0.846401 0.587292
Si Si3 0.380007 0.970602 0.086482
Si Si4 0.620117 0.214409 0.812442
Si Si5 0.312815 0.905926 0.306021
Si Si6 0.390178 0.629672 0.266123
O O1 0.311690 0.677737 0.500000
O O2 0.207153 0.588947 0.418616
O O3 0.213091 0.715230 0.370248
O O4 0.367957 0.633481 0.356299
O O5 0.458697 0.823877 0.500000
O O6 0.519292 0.922665 0.593703
O O7 0.519519 0.792890 0.639846
O O8 0.346433 0.858417 0.619842
O O9 0.353235 0.017089 0.162292
O O10 0.378446 0.005580 0.000000
O O11 0.633874 0.141349 0.760853
O O12 0.618692 0.287178 0.763793
O O13 0.199365 0.910006 0.279300
O O14 0.500000 0.601721 0.250000
#
# Coordination Sequence:
#
# PCOD9527063 Si02
#       6
#    16  16  16  16  16  16
#     4   9  19  39  63  82 109 152 193 232 293 361
#     4  10  20  36  59  87 123 157 183 225 296 369
#     4   9  19  36  58  89 125 150 179 234 299 360
#     4  10  21  38  57  84 118 151 191 240 292 348
#     4  11  20  34  59  85 111 151 195 234 285 348
#     4  11  24  42  57  79 118 157 201 253 289 324
#
# _framework density 22.221260000000001
#
# number of rings (size 3 to 8) (size 9 to 14) (size 15 to 20)
#    0.000    2.000    0.000    6.000    0.000    7.333 
#    0.000   21.667    0.000    2.000    0.000    0.000 
#    0.000    0.000    0.000    0.000    0.000    0.000 
#
# Total GULP energy -267979.659341 kJ/mol
# GULP energy per Si atom -5582.909570 kJ/mol
# Density = 2.217068 g / cm^3
# Si number density = 22.221260 Si / 1000 Ang^3
#
#
#
# Elastic Constant Matrix: (Units=GPa)
#
#
# Indices 1 2 3 4 5 6 
#
# 1 126.1885 2.1142 64.9996 0.0000 0.0000 0.0000
# 2 2.1142 69.4705 33.4774 0.0000 0.0000 0.0000
# 3 64.9996 33.4774 171.8464 0.0000 0.0000 0.0000
# 4 0.0000 0.0000 0.0000 18.5847 0.0000 0.0000
# 5 0.0000 0.0000 0.0000 0.0000 22.7851 0.0000
# 6 0.0000 0.0000 0.0000 0.0000 0.0000 23.5676
#
#
#
# Elastic Compliance Matrix: (Units=1/GPa)
#
#
# Indices 1 2 3 4 5 6 
#
# 1 0.010017 0.001678 -0.004116 0.000000 0.000000 0.000000
# 2 0.001678 0.016167 -0.003784 0.000000 0.000000 0.000000
# 3 -0.004116 -0.003784 0.008113 0.000000 0.000000 0.000000
# 4 0.000000 0.000000 0.000000 0.053808 0.000000 0.000000
# 5 0.000000 0.000000 0.000000 0.000000 0.043888 0.000000
# 6 0.000000 0.000000 0.000000 0.000000 0.000000 0.042431
#
#
# Mechanical properties :
#
#
# Convention : Reuss Voigt Hill
#
# Bulk Modulus (GPa) = 45.75896 63.18752 54.47324
# Shear Modulus (GPa) = 25.75306 30.78177 28.26741
#
# Velocity S-wave (km/s) = 3.40801 3.72592 3.57050
# Velocity P-wave (km/s) = 6.01026 6.85619 6.44711
#
# Compressibility (1/GPa) = 0.02185364
#
# Stress axis : x y z
#
# Youngs Moduli (GPa) = 99.83522 61.85370 123.25738
#
# Poissons Ratio (x) = -0.10382 0.50728
# Poissons Ratio (y) = -0.16757 0.46645
# Poissons Ratio (z) = 0.41089 0.23408
#
# Static dielectric constant tensor:
#      x y z
#    x 1.863420 0.000000 0.000000 
#    y 0.000000 1.958570 0.000000 
#    z 0.000000 0.000000 1.834020 
# 
# From -- ./inp_files/21881.got.cif
#   From: 2010.05.17/outbox.cif.g08.bks.cpg/sg72_11_cif.got.tgz:21881.got - 2010.06.03 17:03:01.
