data_PCOD9527112
_publ_section_title
;
Structure prediction by ZEFSAII (Michael W. Deem and Ramdas Pophale) SiO2 
 PCOD9527112
Probable space group: I B A M
;
_chemical_formula_sum "Si O2"
_cell_formula_units_Z 112
_cell_length_a 16.181334
_cell_length_b 15.593865
_cell_length_c 22.337671
_cell_angle_alpha 90.000000
_cell_angle_beta 90.000000
_cell_angle_gamma 90.000000
_cell_volume 5636.454202
_symmetry_space_group_name_H-M "I B A M"
_symmetry_group_IT_number 72
_symmetry_cell_setting 'orthorhombic'
loop_
_space_group_symop_operation_xyz
x,y,z
-x,-y,z
x,-y,1/2-z
-x,y,1/2-z
-x,-y,-z
x,y,-z
-x,y,1/2+z
x,-y,1/2+z
1/2+x,1/2+y,1/2+z
1/2-x,1/2-y,1/2+z
1/2+x,1/2-y,-z
1/2-x,1/2+y,-z
1/2-x,1/2-y,1/2-z
1/2+x,1/2+y,1/2-z
1/2-x,1/2+y,z
1/2+x,1/2-y,z
loop_
_atom_site_type_symbol
_atom_site_label
_atom_site_fract_x
_atom_site_fract_y
_atom_site_fract_z
Si Si1 0.561988 0.291735 0.195590
Si Si2 0.489502 0.756079 0.567928
Si Si3 0.928706 0.558167 0.068489
Si Si4 0.295520 0.253855 0.931594
Si Si5 0.282062 0.615109 0.153071
Si Si6 0.194801 0.335181 0.760508
Si Si7 0.749429 0.068901 0.124611
O O1 0.500000 0.310944 0.250000
O O2 0.519408 0.287887 0.129879
O O3 0.635572 0.360379 0.189079
O O4 0.608572 0.202106 0.214203
O O5 0.501348 0.717195 0.500000
O O6 0.538878 0.845091 0.567179
O O7 0.391354 0.772456 0.573829
O O8 0.842141 0.553461 0.100328
O O9 0.000000 0.500000 0.096527
O O10 0.916391 0.527930 0.000000
O O11 0.237477 0.192913 0.892088
O O12 0.288811 0.352734 0.911896
O O13 0.269290 0.246098 0.000000
O O14 0.202609 0.615680 0.197659
O O15 0.292813 0.522808 0.123538
O O16 0.250000 0.250000 0.750000
O O17 0.238684 0.394447 0.808939
#
# Coordination Sequence:
#
# PCOD9527112 Si02
#       7
#    16  16  16  16  16  16  16
#     4  11  22  39  68  93 126 175 222 271 333 393
#     4  10  21  39  62  89 126 171 212 271 334 392
#     4  10  20  36  60  94 131 163 205 264 331 395
#     4  11  23  41  68  97 130 174 224 269 327 402
#     4  11  24  41  65  95 132 171 215 281 327 397
#     4  10  20  41  64  89 122 170 210 269 324 384
#     4  12  22  40  68  91 132 171 224 265 332 388
#
# _framework density 19.870649
#
# number of rings (size 3 to 8) (size 9 to 14) (size 15 to 20)
#    0.000    1.286    4.286    2.571    2.000    4.000 
#    0.000    0.714    3.143    1.714    0.000    0.000 
#    0.000    0.000    0.000    0.000    0.000    0.000 
#
# Total GULP energy -312391.789651 kJ/mol
# GULP energy per Si atom -5578.424815 kJ/mol
# Density = 1.982542 g / cm^3
# Si number density = 19.870649 Si / 1000 Ang^3
#
#
#
# Elastic Constant Matrix: (Units=GPa)
#
#
# Indices 1 2 3 4 5 6 
#
# 1 66.6884 25.1200 43.3037 0.0000 0.0000 0.0000
# 2 25.1200 52.2257 19.8602 0.0000 0.0000 0.0000
# 3 43.3037 19.8602 121.9763 0.0000 0.0000 0.0000
# 4 0.0000 0.0000 0.0000 13.7068 0.0000 0.0000
# 5 0.0000 0.0000 0.0000 0.0000 41.5693 0.0000
# 6 0.0000 0.0000 0.0000 0.0000 0.0000 25.1886
#
#
#
# Elastic Compliance Matrix: (Units=1/GPa)
#
#
# Indices 1 2 3 4 5 6 
#
# 1 0.022396 -0.008260 -0.006606 0.000000 0.000000 0.000000
# 2 -0.008260 0.023458 -0.000887 0.000000 0.000000 0.000000
# 3 -0.006606 -0.000887 0.010688 0.000000 0.000000 0.000000
# 4 0.000000 0.000000 0.000000 0.072957 0.000000 0.000000
# 5 0.000000 0.000000 0.000000 0.000000 0.024056 0.000000
# 6 0.000000 0.000000 0.000000 0.000000 0.000000 0.039701
#
#
# Mechanical properties :
#
#
# Convention : Reuss Voigt Hill
#
# Bulk Modulus (GPa) = 39.94286 46.38425 43.16356
# Shear Modulus (GPa) = 21.44935 26.26670 23.85802
#
# Velocity S-wave (km/s) = 3.28906 3.63972 3.46882
# Velocity P-wave (km/s) = 5.87954 6.40759 6.14923
#
# Compressibility (1/GPa) = 0.02503576
#
# Stress axis : x y z
#
# Youngs Moduli (GPa) = 44.65047 42.62938 93.56275
#
# Poissons Ratio (x) = 0.35213 0.61809
# Poissons Ratio (y) = 0.36882 0.08298
# Poissons Ratio (z) = 0.29497 0.03781
#
# Static dielectric constant tensor:
#      x y z
#    x 1.704430 0.000000 0.000000 
#    y 0.000000 1.708850 0.000000 
#    z 0.000000 0.000000 1.760390 
# 
# From -- ./inp_files/44340.got.cif
#   From: 2010.05.17/outbox.cif.g08.bks.cpg/sg72_23_cif.got.tgz:44340.got - 2010.06.03 17:03:01.
