data_PCOD9527645
_publ_section_title
;
Structure prediction by ZEFSAII (Michael W. Deem and Ramdas Pophale) SiO2 
 PCOD9527645
Probable space group: I B A M
;
_chemical_formula_sum "Si O2"
_cell_formula_units_Z 64
_cell_length_a 19.488949
_cell_length_b 5.178218
_cell_length_c 28.674779
_cell_angle_alpha 90.000000
_cell_angle_beta 90.000000
_cell_angle_gamma 90.000000
_cell_volume 2893.802107
_symmetry_space_group_name_H-M "I B A M"
_symmetry_group_IT_number 72
_symmetry_cell_setting 'orthorhombic'
loop_
_space_group_symop_operation_xyz
x,y,z
-x,-y,z
x,-y,1/2-z
-x,y,1/2-z
-x,-y,-z
x,y,-z
-x,y,1/2+z
x,-y,1/2+z
1/2+x,1/2+y,1/2+z
1/2-x,1/2-y,1/2+z
1/2+x,1/2-y,-z
1/2-x,1/2+y,-z
1/2-x,1/2-y,1/2-z
1/2+x,1/2+y,1/2-z
1/2-x,1/2+y,z
1/2+x,1/2-y,z
loop_
_atom_site_type_symbol
_atom_site_label
_atom_site_fract_x
_atom_site_fract_y
_atom_site_fract_z
Si Si1 0.290305 0.571241 0.556172
Si Si2 0.927294 0.432869 0.829071
Si Si3 0.571879 0.435479 0.108335
Si Si4 0.778164 0.323759 0.801639
O O1 0.294972 0.564825 0.500000
O O2 0.265546 0.855647 0.570137
O O3 0.362815 0.495498 0.577390
O O4 0.923929 0.648974 0.869958
O O5 0.855241 0.430029 0.802157
O O6 0.000000 0.500000 0.804857
O O7 0.930590 0.145715 0.849969
O O8 0.500000 0.500000 0.082839
O O9 0.750000 0.250000 0.750000
O O10 0.730463 0.542379 0.824672
#
# Coordination Sequence:
#
# PCOD9527645 Si02
#       4
#    16  16  16  16
#     4  10  21  36  54  80 114 150 189 234 285 338
#     4  10  21  37  57  82 114 147 185 234 284 333
#     4  10  21  36  56  83 111 147 192 233 280 336
#     4  10  21  37  57  83 111 142 182 227 275 336
#
# _framework density 22.116230000000002
#
# number of rings (size 3 to 8) (size 9 to 14) (size 15 to 20)
#    0.000    2.000    0.000    3.000    0.000    6.500 
#    0.000    2.500    0.000   15.000    0.000    0.000 
#    0.000    0.000    0.000    0.000    0.000    0.000 
#
# Total GULP energy -178641.223897 kJ/mol
# GULP energy per Si atom -5582.538247 kJ/mol
# Density = 2.206589 g / cm^3
# Si number density = 22.116230 Si / 1000 Ang^3
#
#
#
# Elastic Constant Matrix: (Units=GPa)
#
#
# Indices 1 2 3 4 5 6 
#
# 1 187.0762 15.8303 24.7633 0.0000 0.0000 0.0000
# 2 15.8303 125.4040 10.5673 0.0000 0.0000 0.0000
# 3 24.7633 10.5673 35.7300 0.0000 0.0000 0.0000
# 4 0.0000 0.0000 0.0000 13.5800 0.0000 0.0000
# 5 0.0000 0.0000 0.0000 0.0000 11.3629 0.0000
# 6 0.0000 0.0000 0.0000 0.0000 0.0000 37.9659
#
#
#
# Elastic Compliance Matrix: (Units=1/GPa)
#
#
# Indices 1 2 3 4 5 6 
#
# 1 0.005906 -0.000411 -0.003972 0.000000 0.000000 0.000000
# 2 -0.000411 0.008207 -0.002142 0.000000 0.000000 0.000000
# 3 -0.003972 -0.002142 0.031374 0.000000 0.000000 0.000000
# 4 0.000000 0.000000 0.000000 0.073638 0.000000 0.000000
# 5 0.000000 0.000000 0.000000 0.000000 0.088006 0.000000
# 6 0.000000 0.000000 0.000000 0.000000 0.000000 0.026339
#
#
# Mechanical properties :
#
#
# Convention : Reuss Voigt Hill
#
# Bulk Modulus (GPa) = 30.82936 50.05911 40.44424
# Shear Modulus (GPa) = 19.43019 32.38505 25.90762
#
# Velocity S-wave (km/s) = 2.96725 3.83078 3.42633
# Velocity P-wave (km/s) = 5.07044 6.50002 5.82922
#
# Compressibility (1/GPa) = 0.03243661
#
# Stress axis : x y z
#
# Youngs Moduli (GPa) = 169.32174 121.85287 31.87360
#
# Poissons Ratio (x) = 0.05006 0.12659
# Poissons Ratio (y) = 0.06957 0.06829
# Poissons Ratio (z) = 0.67249 0.26106
#
# Static dielectric constant tensor:
#      x y z
#    x 1.870790 0.000000 0.000000 
#    y 0.000000 1.933430 0.000000 
#    z 0.000000 0.000000 1.931580 
# 
# From -- ./inp_files/46540.got.cif
#   From: 2010.05.17/outbox.cif.g08.bks.cpg/sg72_24_cif.got.tgz:46540.got - 2010.06.03 17:03:01.
