data_PCOD9527963
_publ_section_title
;
Structure prediction by ZEFSAII (Michael W. Deem and Ramdas Pophale) SiO2 
 PCOD9527963
Probable space group: I B A M
;
_chemical_formula_sum "Si O2"
_cell_formula_units_Z 56
_cell_length_a 16.237141
_cell_length_b 15.821492
_cell_length_c 10.395450
_cell_angle_alpha 90.000000
_cell_angle_beta 90.000000
_cell_angle_gamma 90.000000
_cell_volume 2670.547407
_symmetry_space_group_name_H-M "I B A M"
_symmetry_group_IT_number 72
_symmetry_cell_setting 'orthorhombic'
loop_
_space_group_symop_operation_xyz
x,y,z
-x,-y,z
x,-y,1/2-z
-x,y,1/2-z
-x,-y,-z
x,y,-z
-x,y,1/2+z
x,-y,1/2+z
1/2+x,1/2+y,1/2+z
1/2-x,1/2-y,1/2+z
1/2+x,1/2-y,-z
1/2-x,1/2+y,-z
1/2-x,1/2-y,1/2-z
1/2+x,1/2+y,1/2-z
1/2-x,1/2+y,z
1/2+x,1/2-y,z
loop_
_atom_site_type_symbol
_atom_site_label
_atom_site_fract_x
_atom_site_fract_y
_atom_site_fract_z
Si Si1 0.176766 0.589469 0.000000
Si Si2 0.745541 0.351443 0.262252
Si Si3 0.974873 0.715696 0.500000
Si Si4 0.861957 0.397988 0.500000
Si Si5 0.561408 0.378827 0.356326
O O1 0.230340 0.604249 0.128248
O O2 0.131693 0.499205 0.000000
O O3 0.106448 0.659961 0.000000
O O4 0.750000 0.250000 0.250000
O O5 0.809592 0.375461 0.373564
O O6 0.654386 0.377645 0.306117
O O7 0.054435 0.656334 0.500000
O O8 0.968199 0.781958 0.616868
O O9 0.500000 0.412949 0.250000
O O10 0.559033 0.417837 0.500000
#
# Coordination Sequence:
#
# PCOD9527963 Si02
#       5
#     8  16   8   8  16
#     4  12  26  38  66 101 136 188 212 271 346 399
#     4  12  22  44  65  95 131 181 233 271 323 405
#     4  10  22  40  61  97 139 175 222 253 341 400
#     4  12  25  42  65  98 145 171 214 282 342 412
#     4  10  21  38  65  98 123 167 230 276 326 377
#
# _framework density 20.969484000000001
#
# number of rings (size 3 to 8) (size 9 to 14) (size 15 to 20)
#    0.857    0.000    4.286    3.857    2.000    0.000 
#    0.000    2.857    0.000    5.143    0.000    0.000 
#    0.000    0.000    0.000    0.000    0.000    0.000 
#
# Total GULP energy -156483.438607 kJ/mol
# GULP energy per Si atom -5588.694236 kJ/mol
# Density = 2.092176 g / cm^3
# Si number density = 20.969484 Si / 1000 Ang^3
#
#
#
# Elastic Constant Matrix: (Units=GPa)
#
#
# Indices 1 2 3 4 5 6 
#
# 1 153.5343 19.5909 90.8905 0.0000 0.0000 0.0000
# 2 19.5909 110.5851 27.9623 0.0000 0.0000 0.0000
# 3 90.8905 27.9623 190.3960 0.0000 0.0000 0.0000
# 4 0.0000 0.0000 0.0000 1.3833 0.0000 0.0000
# 5 0.0000 0.0000 0.0000 0.0000 52.1495 0.0000
# 6 0.0000 0.0000 0.0000 0.0000 0.0000 -47.4757
#
#
#
# Elastic Compliance Matrix: (Units=1/GPa)
#
#
# Indices 1 2 3 4 5 6 
#
# 1 0.009109 -0.000534 -0.004270 0.000000 0.000000 0.000000
# 2 -0.000534 0.009423 -0.001129 0.000000 0.000000 0.000000
# 3 -0.004270 -0.001129 0.007456 0.000000 0.000000 0.000000
# 4 0.000000 0.000000 0.000000 0.722933 0.000000 0.000000
# 5 0.000000 0.000000 0.000000 0.000000 0.019176 0.000000
# 6 0.000000 0.000000 0.000000 0.000000 0.000000 -0.021063
#
#
# Mechanical properties :
#
#
# Convention : Reuss Voigt Hill
#
# Bulk Modulus (GPa) = 70.80948 81.26695 76.03822
# Shear Modulus (GPa) = 6.54787 22.28285 14.41536
#
# Velocity S-wave (km/s) = 1.76900 3.26334 2.62476
# Velocity P-wave (km/s) = 6.16552 7.28273 6.74729
#
# Compressibility (1/GPa) = 0.01412240
#
# Stress axis : x y z
#
# Youngs Moduli (GPa) = 109.77942 106.12467 134.11220
#
# Poissons Ratio (x) = 0.05667 0.57267
# Poissons Ratio (y) = 0.05863 0.15141
# Poissons Ratio (z) = 0.46877 0.11981
#
# Static dielectric constant tensor:
#      x y z
#    x 1.666120 0.000000 0.000000 
#    y 0.000000 1.793370 0.000000 
#    z 0.000000 0.000000 1.744440 
# 
# From -- ./inp_files/4213.got.cif
#   From: 2010.05.17/outbox.cif.g08.bks.cpg/sg72_3_cif.got.tgz:4213.got - 2010.06.03 17:03:01.
