data_PCOD9527870
_publ_section_title
;
Structure prediction by ZEFSAII (Michael W. Deem and Ramdas Pophale) SiO2 
 PCOD9527870
Probable space group: I B A M
;
_chemical_formula_sum "Si O2"
_cell_formula_units_Z 80
_cell_length_a 8.513390
_cell_length_b 24.632180
_cell_length_c 18.999835
_cell_angle_alpha 90.000000
_cell_angle_beta 90.000000
_cell_angle_gamma 90.000000
_cell_volume 3984.329142
_symmetry_space_group_name_H-M "I B A M"
_symmetry_group_IT_number 72
_symmetry_cell_setting 'orthorhombic'
loop_
_space_group_symop_operation_xyz
x,y,z
-x,-y,z
x,-y,1/2-z
-x,y,1/2-z
-x,-y,-z
x,y,-z
-x,y,1/2+z
x,-y,1/2+z
1/2+x,1/2+y,1/2+z
1/2-x,1/2-y,1/2+z
1/2+x,1/2-y,-z
1/2-x,1/2+y,-z
1/2-x,1/2-y,1/2-z
1/2+x,1/2+y,1/2-z
1/2-x,1/2+y,z
1/2+x,1/2-y,z
loop_
_atom_site_type_symbol
_atom_site_label
_atom_site_fract_x
_atom_site_fract_y
_atom_site_fract_z
Si Si1 0.407348 0.675412 0.081677
Si Si2 0.069035 0.640115 0.920379
Si Si3 0.598947 0.777405 0.318619
Si Si4 0.424183 0.059862 0.679682
Si Si5 0.862939 0.867875 0.691417
O O1 0.256334 0.636458 0.083379
O O2 0.363607 0.725821 0.132598
O O3 0.554606 0.646020 0.117274
O O4 0.433885 0.691565 0.000000
O O5 0.010528 0.686640 0.868756
O O6 0.985461 0.587287 0.890961
O O7 0.024431 0.652898 0.000000
O O8 0.500000 0.761994 0.250000
O O9 0.743060 0.817019 0.297175
O O10 0.500000 0.086458 0.750000
O O11 0.241800 0.077120 0.687545
O O12 0.500000 0.000000 0.679063
O O13 0.000000 0.870939 0.750000
#
# Coordination Sequence:
#
# PCOD9527870 Si02
#       5
#    16  16  16  16  16
#     4  11  23  37  55  85 123 161 202 246 293 348
#     4  10  21  38  58  83 119 158 197 242 293 357
#     4  11  22  36  58  86 121 163 203 239 290 358
#     4  10  22  42  65  87 113 150 199 249 308 374
#     4  11  22  38  61  89 121 156 200 254 304 353
#
# _framework density 20.078664
#
# number of rings (size 3 to 8) (size 9 to 14) (size 15 to 20)
#    0.000    1.400    0.000    7.200    0.000    8.400 
#    0.000    8.000    0.000    2.400    0.000    0.000 
#    0.000    0.000    0.000    0.000    0.000    0.000 
#
# Total GULP energy -223208.615546 kJ/mol
# GULP energy per Si atom -5580.215389 kJ/mol
# Density = 2.003296 g / cm^3
# Si number density = 20.078664 Si / 1000 Ang^3
#
#
#
# Elastic Constant Matrix: (Units=GPa)
#
#
# Indices 1 2 3 4 5 6 
#
# 1 133.1732 51.0701 61.6849 0.0000 0.0000 0.0000
# 2 51.0701 68.0349 35.2440 0.0000 0.0000 0.0000
# 3 61.6849 35.2440 142.9541 0.0001 0.0000 0.0000
# 4 0.0000 0.0000 0.0001 15.4100 0.0000 0.0000
# 5 0.0000 0.0000 0.0000 0.0000 38.1199 0.0000
# 6 0.0000 0.0000 0.0000 0.0000 0.0000 14.4444
#
#
#
# Elastic Compliance Matrix: (Units=1/GPa)
#
#
# Indices 1 2 3 4 5 6 
#
# 1 0.011781 -0.007119 -0.003328 0.000000 0.000000 0.000000
# 2 -0.007119 0.021152 -0.002143 0.000000 0.000000 0.000000
# 3 -0.003328 -0.002143 0.008960 0.000000 0.000000 0.000000
# 4 0.000000 0.000000 0.000000 0.064893 0.000000 0.000000
# 5 0.000000 0.000000 0.000000 0.000000 0.026233 0.000000
# 6 0.000000 0.000000 0.000000 0.000000 0.000000 0.069231
#
#
# Mechanical properties :
#
#
# Convention : Reuss Voigt Hill
#
# Bulk Modulus (GPa) = 59.83667 71.12890 65.48278
# Shear Modulus (GPa) = 21.45915 26.67241 24.06578
#
# Velocity S-wave (km/s) = 3.27273 3.64867 3.46580
# Velocity P-wave (km/s) = 6.64431 7.29743 6.97851
#
# Compressibility (1/GPa) = 0.01671216
#
# Stress axis : x y z
#
# Youngs Moduli (GPa) = 84.88483 47.27615 111.61016
#
# Poissons Ratio (x) = 0.33656 0.37147
# Poissons Ratio (y) = 0.60429 0.23919
# Poissons Ratio (z) = 0.28252 0.10132
#
# Static dielectric constant tensor:
#      x y z
#    x 1.732580 0.000000 0.000000 
#    y 0.000000 1.845210 0.000000 
#    z 0.000000 0.000000 1.739560 
# 
# From -- ./inp_files/28157.got.cif
#   From: 2010.05.17/outbox.cif.g08.bks.cpg/sg72_15_cif.got.tgz:28157.got - 2010.06.03 17:03:01.
