data_PCOD9527581
_publ_section_title
;
Structure prediction by ZEFSAII (Michael W. Deem and Ramdas Pophale) SiO2 
 PCOD9527581
Probable space group: I B A M
;
_chemical_formula_sum "Si O2"
_cell_formula_units_Z 72
_cell_length_a 18.315986
_cell_length_b 9.850359
_cell_length_c 21.628465
_cell_angle_alpha 90.000000
_cell_angle_beta 90.000000
_cell_angle_gamma 90.000000
_cell_volume 3902.186839
_symmetry_space_group_name_H-M "I B A M"
_symmetry_group_IT_number 72
_symmetry_cell_setting 'orthorhombic'
loop_
_space_group_symop_operation_xyz
x,y,z
-x,-y,z
x,-y,1/2-z
-x,y,1/2-z
-x,-y,-z
x,y,-z
-x,y,1/2+z
x,-y,1/2+z
1/2+x,1/2+y,1/2+z
1/2-x,1/2-y,1/2+z
1/2+x,1/2-y,-z
1/2-x,1/2+y,-z
1/2-x,1/2-y,1/2-z
1/2+x,1/2+y,1/2-z
1/2-x,1/2+y,z
1/2+x,1/2-y,z
loop_
_atom_site_type_symbol
_atom_site_label
_atom_site_fract_x
_atom_site_fract_y
_atom_site_fract_z
Si Si1 0.432778 0.074815 0.316950
Si Si2 0.811937 0.000000 0.750000
Si Si3 0.937218 0.885892 0.164568
Si Si4 0.816585 0.884089 0.072735
Si Si5 0.772904 0.386900 0.361729
O O1 0.456589 0.233019 0.315668
O O2 0.356366 0.065919 0.352354
O O3 0.500000 0.000000 0.349081
O O4 0.423798 0.000000 0.250000
O O5 0.867156 0.081252 0.706753
O O6 0.764094 0.095562 0.794327
O O7 0.900488 0.888876 0.096670
O O8 0.000000 0.000000 0.171694
O O9 0.777617 0.762865 0.110539
O O10 0.774122 0.019658 0.092692
O O11 0.812953 0.861134 0.000000
#
# Coordination Sequence:
#
# PCOD9527581 Si02
#       5
#    16   8  16  16  16
#     4  10  22  34  54  84 118 150 183 231 294 352
#     4  10  21  34  59  88 118 148 194 232 305 362
#     4  10  23  37  57  84 118 158 192 239 291 359
#     4  10  22  39  61  86 114 158 203 244 287 342
#     4  10  21  37  60  84 120 150 192 246 299 351
#
# _framework density 18.451193
#
# number of rings (size 3 to 8) (size 9 to 14) (size 15 to 20)
#    0.000    2.000    1.111    1.000    9.333    4.889 
#    0.000    0.000    0.000   19.333    0.000    0.000 
#    0.000    0.000    0.000    0.000    0.000    0.000 
#
# Total GULP energy -200673.598980 kJ/mol
# GULP energy per Si atom -5574.266638 kJ/mol
# Density = 1.840920 g / cm^3
# Si number density = 18.451193 Si / 1000 Ang^3
#
#
#
# Elastic Constant Matrix: (Units=GPa)
#
#
# Indices 1 2 3 4 5 6 
#
# 1 96.8929 47.5530 23.5129 0.0000 0.0000 0.0000
# 2 47.5530 123.3751 28.0474 0.0000 0.0000 0.0000
# 3 23.5129 28.0474 96.6083 0.0000 0.0000 0.0000
# 4 0.0000 0.0000 0.0000 16.6810 0.0000 0.0000
# 5 0.0000 0.0000 0.0000 0.0000 15.6571 0.0000
# 6 0.0000 0.0000 0.0000 0.0000 0.0000 17.8274
#
#
#
# Elastic Compliance Matrix: (Units=1/GPa)
#
#
# Indices 1 2 3 4 5 6 
#
# 1 0.013025 -0.004603 -0.001834 0.000000 0.000000 0.000000
# 2 -0.004603 0.010305 -0.001871 0.000000 0.000000 0.000000
# 3 -0.001834 -0.001871 0.011341 0.000000 0.000000 0.000000
# 4 0.000000 0.000000 0.000000 0.059949 0.000000 0.000000
# 5 0.000000 0.000000 0.000000 0.000000 0.063869 0.000000
# 6 0.000000 0.000000 0.000000 0.000000 0.000000 0.056093
#
#
# Mechanical properties :
#
#
# Convention : Reuss Voigt Hill
#
# Bulk Modulus (GPa) = 55.38976 57.23366 56.31171
# Shear Modulus (GPa) = 21.07784 24.55063 22.81424
#
# Velocity S-wave (km/s) = 3.38354 3.65166 3.52015
# Velocity P-wave (km/s) = 6.73419 6.99040 6.86349
#
# Compressibility (1/GPa) = 0.01805388
#
# Stress axis : x y z
#
# Youngs Moduli (GPa) = 76.77611 97.03933 88.17844
#
# Poissons Ratio (x) = 0.44671 0.16168
# Poissons Ratio (y) = 0.35343 0.16502
# Poissons Ratio (z) = 0.14078 0.18160
#
# Static dielectric constant tensor:
#      x y z
#    x 1.645930 0.000000 0.000000 
#    y 0.000000 1.659040 0.000000 
#    z 0.000000 0.000000 1.673490 
# 
# From -- ./inp_files/42083.got.cif
#   From: 2010.05.17/outbox.cif.g08.bks.cpg/sg72_22_cif.got.tgz:42083.got - 2010.06.03 17:03:01.
