data_PCOD9527589
_publ_section_title
;
Structure prediction by ZEFSAII (Michael W. Deem and Ramdas Pophale) SiO2 
 PCOD9527589
Probable space group: I B A M
;
_chemical_formula_sum "Si O2"
_cell_formula_units_Z 84
_cell_length_a 12.888707
_cell_length_b 12.260503
_cell_length_c 20.861650
_cell_angle_alpha 90.000000
_cell_angle_beta 90.000000
_cell_angle_gamma 90.000000
_cell_volume 3296.600300
_symmetry_space_group_name_H-M "I B A M"
_symmetry_group_IT_number 72
_symmetry_cell_setting 'orthorhombic'
loop_
_space_group_symop_operation_xyz
x,y,z
-x,-y,z
x,-y,1/2-z
-x,y,1/2-z
-x,-y,-z
x,y,-z
-x,y,1/2+z
x,-y,1/2+z
1/2+x,1/2+y,1/2+z
1/2-x,1/2-y,1/2+z
1/2+x,1/2-y,-z
1/2-x,1/2+y,-z
1/2-x,1/2-y,1/2-z
1/2+x,1/2+y,1/2-z
1/2-x,1/2+y,z
1/2+x,1/2-y,z
loop_
_atom_site_type_symbol
_atom_site_label
_atom_site_fract_x
_atom_site_fract_y
_atom_site_fract_z
Si Si1 0.134046 0.109497 0.709046
Si Si2 0.364994 0.103153 0.860991
Si Si3 0.397578 0.327715 0.071840
Si Si4 0.500000 0.000000 0.250000
Si Si5 0.150688 0.625395 0.569742
Si Si6 0.326993 0.256750 0.680182
O O1 0.078126 0.110123 0.639835
O O2 0.253147 0.152031 0.696267
O O3 0.107344 0.203744 0.760251
O O4 0.125109 0.000000 0.750000
O O5 0.400448 0.201557 0.906772
O O6 0.251055 0.145101 0.839063
O O7 0.431310 0.073380 0.798117
O O8 0.365071 0.993576 0.901907
O O9 0.274511 0.354742 0.064797
O O10 0.442823 0.349548 0.000000
O O11 0.103977 0.635412 0.500000
O O12 0.112333 0.717840 0.618397
#
# Coordination Sequence:
#
# PCOD9527589 Si02
#       6
#    16  16  16   4  16  16
#     4   9  16  26  45  78 104 136 167 210 284 349
#     4  10  21  35  50  78 120 146 195 229 263 334
#     4   9  19  33  53  79 110 147 176 228 298 343
#     4  12  28  32  54  80 106 168 210 222 252 316
#     4   9  17  30  52  77 107 141 173 225 294 342
#     4   9  18  28  50  76 108 142 173 233 287 330
#
# _framework density 25.480795000000001
#
# number of rings (size 3 to 8) (size 9 to 14) (size 15 to 20)
#    0.000    3.048    0.000    2.857   12.000    0.762 
#    0.000    2.857    0.000    0.000    0.000   10.667 
#    0.000    6.095    0.000    3.429    0.000    0.000 
#
# Total GULP energy -234548.167716 kJ/mol
# GULP energy per Si atom -5584.480184 kJ/mol
# Density = 2.542280 g / cm^3
# Si number density = 25.480795 Si / 1000 Ang^3
#
#
#
# Elastic Constant Matrix: (Units=GPa)
#
#
# Indices 1 2 3 4 5 6 
#
# 1 87.3411 30.2042 36.1103 0.0000 0.0000 0.0000
# 2 30.2042 150.2119 109.7930 0.0000 0.0000 0.0000
# 3 36.1103 109.7930 296.2929 0.0000 0.0000 0.0000
# 4 0.0000 0.0000 0.0000 100.0845 0.0000 0.0000
# 5 0.0000 0.0000 0.0000 0.0000 7.0441 0.0000
# 6 0.0000 0.0000 0.0000 0.0000 0.0000 -1.7358
#
#
#
# Elastic Compliance Matrix: (Units=1/GPa)
#
#
# Indices 1 2 3 4 5 6 
#
# 1 0.012445 -0.001911 -0.000808 0.000000 0.000000 0.000000
# 2 -0.001911 0.009424 -0.003259 0.000000 0.000000 0.000000
# 3 -0.000808 -0.003259 0.004681 0.000000 0.000000 0.000000
# 4 0.000000 0.000000 0.000000 0.009992 0.000000 0.000000
# 5 0.000000 0.000000 0.000000 0.000000 0.141962 0.000000
# 6 0.000000 0.000000 0.000000 0.000000 0.000000 -0.576088
#
#
# Mechanical properties :
#
#
# Convention : Reuss Voigt Hill
#
# Bulk Modulus (GPa) = 68.53185 98.45121 83.49153
# Shear Modulus (GPa) = -13.13152 44.92778 15.89813
#
# Velocity S-wave (km/s) = -2.27259 4.20360 2.50056
# Velocity P-wave (km/s) = 4.47969 7.89187 6.41675
#
# Compressibility (1/GPa) = 0.01459176
#
# Stress axis : x y z
#
# Youngs Moduli (GPa) = 80.35617 106.11507 213.61959
#
# Poissons Ratio (x) = 0.20284 0.17268
# Poissons Ratio (y) = 0.15360 0.69620
# Poissons Ratio (z) = 0.06496 0.34584
#
# Static dielectric constant tensor:
#      x y z
#    x 2.083410 0.000000 0.000000 
#    y 0.000000 1.978190 0.000000 
#    z 0.000000 0.000000 2.154610 
# 
# From -- ./inp_files/39659.got.cif
#   From: 2010.05.17/outbox.cif.g08.bks.cpg/sg72_20_cif.got.tgz:39659.got - 2010.06.03 17:03:01.
