data_PCOD9527521
_publ_section_title
;
Structure prediction by ZEFSAII (Michael W. Deem and Ramdas Pophale) SiO2 
 PCOD9527521
Probable space group: I B A M
;
_chemical_formula_sum "Si O2"
_cell_formula_units_Z 104
_cell_length_a 24.318250
_cell_length_b 9.677843
_cell_length_c 20.332169
_cell_angle_alpha 90.000000
_cell_angle_beta 90.000000
_cell_angle_gamma 90.000000
_cell_volume 4785.139489
_symmetry_space_group_name_H-M "I B A M"
_symmetry_group_IT_number 72
_symmetry_cell_setting 'orthorhombic'
loop_
_space_group_symop_operation_xyz
x,y,z
-x,-y,z
x,-y,1/2-z
-x,y,1/2-z
-x,-y,-z
x,y,-z
-x,y,1/2+z
x,-y,1/2+z
1/2+x,1/2+y,1/2+z
1/2-x,1/2-y,1/2+z
1/2+x,1/2-y,-z
1/2-x,1/2+y,-z
1/2-x,1/2-y,1/2-z
1/2+x,1/2+y,1/2-z
1/2-x,1/2+y,z
1/2+x,1/2-y,z
loop_
_atom_site_type_symbol
_atom_site_label
_atom_site_fract_x
_atom_site_fract_y
_atom_site_fract_z
Si Si1 0.912485 0.784413 0.073579
Si Si2 0.331701 0.776840 0.500000
Si Si3 0.612792 0.511238 0.173858
Si Si4 0.700715 0.953922 0.177999
Si Si5 0.398365 0.963205 0.603074
Si Si6 0.219377 0.157679 0.370341
Si Si7 0.041292 0.201363 0.424214
O O1 0.909416 0.619983 0.083851
O O2 0.976916 0.827892 0.073658
O O3 0.885649 0.867590 0.133480
O O4 0.890683 0.818294 0.000000
O O5 0.355299 0.884710 0.556139
O O6 0.305601 0.679439 0.557954
O O7 0.594536 0.500000 0.250000
O O8 0.672809 0.578528 0.171229
O O9 0.573499 0.608785 0.128401
O O10 0.634611 0.951794 0.171076
O O11 0.727013 0.807295 0.161449
O O12 0.716226 0.000000 0.250000
O O13 0.725438 0.069449 0.129724
O O14 0.450064 0.861186 0.595898
O O15 0.065067 0.184241 0.500000
#
# Coordination Sequence:
#
# PCOD9527521 Si02
#       7
#    16   8  16  16  16  16  16
#     4  11  25  39  70 104 128 175 228 277 331 410
#     4  10  20  44  67  95 133 164 212 274 351 377
#     4  12  26  43  64  96 140 181 223 277 336 393
#     4  11  25  43  69  96 133 178 225 266 333 407
#     4  11  21  41  70  99 133 166 217 287 334 396
#     4  11  25  44  69  96 131 178 217 282 329 400
#     4  11  21  45  70  94 134 178 223 275 342 396
#
# _framework density 21.733953
#
# number of rings (size 3 to 8) (size 9 to 14) (size 15 to 20)
#    0.000    0.923    4.615    2.308    5.385    6.154 
#    0.000    0.000    0.000    2.769    0.000    0.000 
#    0.000    0.000    0.000    0.000    0.000    0.000 
#
# Total GULP energy -289543.349171 kJ/mol
# GULP energy per Si atom -5568.141330 kJ/mol
# Density = 2.168449 g / cm^3
# Si number density = 21.733953 Si / 1000 Ang^3
#
#
#
# Elastic Constant Matrix: (Units=GPa)
#
#
# Indices 1 2 3 4 5 6 
#
# 1 27.4352 0.6737 15.7833 0.0000 0.0000 0.0000
# 2 0.6737 95.9755 59.0442 0.0000 0.0000 0.0000
# 3 15.7833 59.0442 125.8087 0.0000 0.0000 0.0000
# 4 0.0000 0.0000 0.0000 21.3369 0.0000 0.0000
# 5 0.0000 0.0000 0.0000 0.0000 -38.7206 0.0000
# 6 0.0000 0.0000 0.0000 0.0000 0.0000 44.3475
#
#
#
# Elastic Compliance Matrix: (Units=1/GPa)
#
#
# Indices 1 2 3 4 5 6 
#
# 1 0.040337 0.003979 -0.006928 0.000000 0.000000 0.000000
# 2 0.003979 0.015041 -0.007558 0.000000 0.000000 0.000000
# 3 -0.006928 -0.007558 0.012365 0.000000 0.000000 0.000000
# 4 0.000000 0.000000 0.000000 0.046867 0.000000 0.000000
# 5 0.000000 0.000000 0.000000 0.000000 -0.025826 0.000000
# 6 0.000000 0.000000 0.000000 0.000000 0.000000 0.022549
#
#
# Mechanical properties :
#
#
# Convention : Reuss Voigt Hill
#
# Bulk Modulus (GPa) = 21.39997 44.46911 32.93454
# Shear Modulus (GPa) = 33.80096 16.97398 25.38747
#
# Velocity S-wave (km/s) = 3.94790 2.79765 3.42146
# Velocity P-wave (km/s) = 5.53615 5.56245 5.54931
#
# Compressibility (1/GPa) = 0.04672904
#
# Stress axis : x y z
#
# Youngs Moduli (GPa) = 24.79090 66.48374 80.87367
#
# Poissons Ratio (x) = -0.26453 0.56029
# Poissons Ratio (y) = -0.09864 0.61127
# Poissons Ratio (z) = 0.17175 0.50250
#
# Static dielectric constant tensor:
#      x y z
#    x 1.847210 0.000000 0.000000 
#    y 0.000000 1.816120 0.000000 
#    z 0.000000 0.000000 1.893200 
# 
# From -- ./inp_files/40797.got.cif
#   From: 2010.05.17/outbox.cif.g08.bks.cpg/sg72_21_cif.got.tgz:40797.got - 2010.06.03 17:03:01.
