data_PCOD9527024
_publ_section_title
;
Structure prediction by ZEFSAII (Michael W. Deem and Ramdas Pophale) SiO2 
 PCOD9527024
Probable space group: I B A M
;
_chemical_formula_sum "Si O2"
_cell_formula_units_Z 104
_cell_length_a 27.617371
_cell_length_b 9.127366
_cell_length_c 19.857815
_cell_angle_alpha 90.000000
_cell_angle_beta 90.000000
_cell_angle_gamma 90.000000
_cell_volume 5005.635941
_symmetry_space_group_name_H-M "I B A M"
_symmetry_group_IT_number 72
_symmetry_cell_setting 'orthorhombic'
loop_
_space_group_symop_operation_xyz
x,y,z
-x,-y,z
x,-y,1/2-z
-x,y,1/2-z
-x,-y,-z
x,y,-z
-x,y,1/2+z
x,-y,1/2+z
1/2+x,1/2+y,1/2+z
1/2-x,1/2-y,1/2+z
1/2+x,1/2-y,-z
1/2-x,1/2+y,-z
1/2-x,1/2-y,1/2-z
1/2+x,1/2+y,1/2-z
1/2-x,1/2+y,z
1/2+x,1/2-y,z
loop_
_atom_site_type_symbol
_atom_site_label
_atom_site_fract_x
_atom_site_fract_y
_atom_site_fract_z
Si Si1 0.913924 0.841444 0.265872
Si Si2 0.376877 0.840656 0.858589
Si Si3 0.277819 0.086781 0.500000
Si Si4 0.718534 0.992326 0.352927
Si Si5 0.450791 0.065005 0.825846
Si Si6 0.664634 0.635943 0.000000
Si Si7 0.857751 0.805818 0.000000
Si Si8 0.816858 0.810896 0.348456
O O1 0.904131 0.758835 0.195584
O O2 0.946320 0.737533 0.313704
O O3 0.861425 0.854226 0.301319
O O4 0.934393 0.000000 0.250000
O O5 0.322932 0.877038 0.831316
O O6 0.404668 0.995699 0.862397
O O7 0.377038 0.763204 0.930851
O O8 0.221465 0.104318 0.500000
O O9 0.302056 0.247430 0.500000
O O10 0.291516 0.003346 0.433054
O O11 0.707205 0.155092 0.328015
O O12 0.772755 0.929432 0.344539
O O13 0.500000 0.000000 0.856074
O O14 0.448431 0.000000 0.750000
O O15 0.660267 0.701129 0.924426
O O16 0.637980 0.479231 0.000000
#
# Coordination Sequence:
#
# PCOD9527024 Si02
#       8
#    16  16   8  16  16   8   8  16
#     4  11  23  39  60  92 128 158 201 250 308 371
#     4  10  21  40  60  84 123 158 208 255 302 371
#     4   8  19  28  50  71 107 153 212 249 282 334
#     4  10  21  34  52  80 119 162 209 248 293 349
#     4   9  19  41  67  88 113 153 198 256 310 366
#     4  10  21  32  56  78 120 160 217 262 292 353
#     4  10  20  36  57  81 112 163 198 254 315 352
#     4  11  23  35  55  84 123 170 211 248 304 352
#
# _framework density 20.776581
#
# number of rings (size 3 to 8) (size 9 to 14) (size 15 to 20)
#    0.000    2.000    1.538    1.385   15.077    0.615 
#    0.000    6.538    0.000    0.000    0.000    2.154 
#    0.000    0.000    0.000    0.000    0.000    0.000 
#
# Total GULP energy -289984.485415 kJ/mol
# GULP energy per Si atom -5576.624720 kJ/mol
# Density = 2.072929 g / cm^3
# Si number density = 20.776581 Si / 1000 Ang^3
#
#
#
# Elastic Constant Matrix: (Units=GPa)
#
#
# Indices 1 2 3 4 5 6 
#
# 1 64.6344 23.0717 13.0386 0.0000 0.0000 0.0000
# 2 23.0717 115.3942 26.4150 0.0000 0.0000 0.0000
# 3 13.0386 26.4150 71.0244 0.0000 0.0000 0.0000
# 4 0.0000 0.0000 0.0000 -8.1500 0.0000 0.0000
# 5 0.0000 0.0000 0.0000 0.0000 5.8806 0.0000
# 6 0.0000 0.0000 0.0000 0.0000 0.0000 20.7198
#
#
#
# Elastic Compliance Matrix: (Units=1/GPa)
#
#
# Indices 1 2 3 4 5 6 
#
# 1 0.016922 -0.002921 -0.002020 0.000000 0.000000 0.000000
# 2 -0.002921 0.009977 -0.003174 0.000000 0.000000 0.000000
# 3 -0.002020 -0.003174 0.015631 0.000000 0.000000 0.000000
# 4 0.000000 0.000000 0.000000 -0.122700 0.000000 0.000000
# 5 0.000000 0.000000 0.000000 0.000000 0.170051 0.000000
# 6 0.000000 0.000000 0.000000 0.000000 0.000000 0.048263
#
#
# Mechanical properties :
#
#
# Convention : Reuss Voigt Hill
#
# Bulk Modulus (GPa) = 38.02440 41.78927 39.90684
# Shear Modulus (GPa) = 30.64834 16.25859 23.45347
#
# Velocity S-wave (km/s) = 3.84492 2.80043 3.36347
# Velocity P-wave (km/s) = 6.16867 5.53298 5.85945
#
# Compressibility (1/GPa) = 0.02629890
#
# Stress axis : x y z
#
# Youngs Moduli (GPa) = 59.09545 100.23501 63.97512
#
# Poissons Ratio (x) = 0.29277 0.12924
# Poissons Ratio (y) = 0.17261 0.20307
# Poissons Ratio (z) = 0.11938 0.31817
#
# Static dielectric constant tensor:
#      x y z
#    x 1.772760 0.000000 0.000000 
#    y 0.000000 1.804560 0.000000 
#    z 0.000000 0.000000 1.805580 
# 
# From -- ./inp_files/36203.got.cif
#   From: 2010.05.17/outbox.cif.g08.bks.cpg/sg72_19_cif.got.tgz:36203.got - 2010.06.03 17:03:01.
