data_PCOD9527756
_publ_section_title
;
Structure prediction by ZEFSAII (Michael W. Deem and Ramdas Pophale) SiO2 
 PCOD9527756
Probable space group: I B A M
;
_chemical_formula_sum "Si O2"
_cell_formula_units_Z 56
_cell_length_a 5.111950
_cell_length_b 17.947637
_cell_length_c 26.204565
_cell_angle_alpha 90.000000
_cell_angle_beta 90.000000
_cell_angle_gamma 90.000000
_cell_volume 2404.201309
_symmetry_space_group_name_H-M "I B A M"
_symmetry_group_IT_number 72
_symmetry_cell_setting 'orthorhombic'
loop_
_space_group_symop_operation_xyz
x,y,z
-x,-y,z
x,-y,1/2-z
-x,y,1/2-z
-x,-y,-z
x,y,-z
-x,y,1/2+z
x,-y,1/2+z
1/2+x,1/2+y,1/2+z
1/2-x,1/2-y,1/2+z
1/2+x,1/2-y,-z
1/2-x,1/2+y,-z
1/2-x,1/2-y,1/2-z
1/2+x,1/2+y,1/2-z
1/2-x,1/2+y,z
1/2+x,1/2-y,z
loop_
_atom_site_type_symbol
_atom_site_label
_atom_site_fract_x
_atom_site_fract_y
_atom_site_fract_z
Si Si1 0.499488 0.299650 0.809399
Si Si2 0.249570 0.553762 0.500000
Si Si3 0.486290 0.412224 0.897378
Si Si4 0.645112 0.800926 0.060883
O O1 0.500000 0.322643 0.750000
O O2 0.789339 0.266386 0.817568
O O3 0.419473 0.366097 0.846992
O O4 0.500000 0.500000 0.500000
O O5 0.299314 0.598523 0.552598
O O6 0.000000 0.500000 0.500000
O O7 0.500000 0.500000 0.887595
O O8 0.767015 0.378011 0.913572
O O9 0.390252 0.753536 0.073454
O O10 0.643620 0.813983 0.000000
#
# Coordination Sequence:
#
# PCOD9527756 Si02
#       4
#    16   8  16  16
#     4  10  23  45  70  95 127 169 222 284 344 400
#     4  10  24  40  56  90 138 178 209 258 329 396
#     4  11  23  41  64  95 133 174 217 271 331 405
#     4  10  21  37  57  83 117 163 215 259 305 375
#
# _framework density 23.292559000000001
#
# number of rings (size 3 to 8) (size 9 to 14) (size 15 to 20)
#    0.000    1.714    1.429    1.714    0.000    9.714 
#    0.000    0.000    0.000    5.143    0.000    0.000 
#    0.000    0.000    0.000    0.000    0.000    0.000 
#
# Total GULP energy -156793.599769 kJ/mol
# GULP energy per Si atom -5599.771420 kJ/mol
# Density = 2.323954 g / cm^3
# Si number density = 23.292559 Si / 1000 Ang^3
#
#
#
# Elastic Constant Matrix: (Units=GPa)
#
#
# Indices 1 2 3 4 5 6 
#
# 1 107.7076 16.9806 22.6033 0.0000 0.0000 0.0000
# 2 16.9806 157.8152 69.3827 0.0000 0.0000 0.0000
# 3 22.6033 69.3827 186.3424 0.0000 0.0000 0.0000
# 4 0.0000 0.0000 0.0000 47.5552 0.0000 0.0000
# 5 0.0000 0.0000 0.0000 0.0000 27.2906 0.0000
# 6 0.0000 0.0000 0.0000 0.0000 0.0000 29.6780
#
#
#
# Elastic Compliance Matrix: (Units=1/GPa)
#
#
# Indices 1 2 3 4 5 6 
#
# 1 0.009578 -0.000622 -0.000930 0.000000 0.000000 0.000000
# 2 -0.000622 0.007617 -0.002761 0.000000 0.000000 0.000000
# 3 -0.000930 -0.002761 0.006507 0.000000 0.000000 0.000000
# 4 0.000000 0.000000 0.000000 0.021028 0.000000 0.000000
# 5 0.000000 0.000000 0.000000 0.000000 0.036643 0.000000
# 6 0.000000 0.000000 0.000000 0.000000 0.000000 0.033695
#
#
# Mechanical properties :
#
#
# Convention : Reuss Voigt Hill
#
# Bulk Modulus (GPa) = 66.32723 74.42203 70.37463
# Shear Modulus (GPa) = 38.84435 43.76465 41.30450
#
# Velocity S-wave (km/s) = 4.08814 4.33934 4.21562
# Velocity P-wave (km/s) = 7.12892 7.55823 7.34671
#
# Compressibility (1/GPa) = 0.01507676
#
# Stress axis : x y z
#
# Youngs Moduli (GPa) = 104.41007 131.28243 153.67432
#
# Poissons Ratio (x) = 0.08159 0.14297
# Poissons Ratio (y) = 0.06489 0.42426
# Poissons Ratio (z) = 0.09714 0.36244
#
# Static dielectric constant tensor:
#      x y z
#    x 1.999000 0.000000 0.000000 
#    y 0.000000 1.944560 0.000000 
#    z 0.000000 0.000000 1.947750 
# 
# From -- ./inp_files/46449.got.cif
#   From: 2010.05.17/outbox.cif.g08.bks.cpg/sg72_24_cif.got.tgz:46449.got - 2010.06.03 17:03:01.
