data_PCOD9527470
_publ_section_title
;
Structure prediction by ZEFSAII (Michael W. Deem and Ramdas Pophale) SiO2 
 PCOD9527470
Probable space group: I B A M
;
_chemical_formula_sum "Si O2"
_cell_formula_units_Z 68
_cell_length_a 21.508640
_cell_length_b 15.884984
_cell_length_c 10.368277
_cell_angle_alpha 90.000000
_cell_angle_beta 90.000000
_cell_angle_gamma 90.000000
_cell_volume 3542.471164
_symmetry_space_group_name_H-M "I B A M"
_symmetry_group_IT_number 72
_symmetry_cell_setting 'orthorhombic'
loop_
_space_group_symop_operation_xyz
x,y,z
-x,-y,z
x,-y,1/2-z
-x,y,1/2-z
-x,-y,-z
x,y,-z
-x,y,1/2+z
x,-y,1/2+z
1/2+x,1/2+y,1/2+z
1/2-x,1/2-y,1/2+z
1/2+x,1/2-y,-z
1/2-x,1/2+y,-z
1/2-x,1/2-y,1/2-z
1/2+x,1/2+y,1/2-z
1/2-x,1/2+y,z
1/2+x,1/2-y,z
loop_
_atom_site_type_symbol
_atom_site_label
_atom_site_fract_x
_atom_site_fract_y
_atom_site_fract_z
Si Si1 0.108358 0.512004 0.000000
Si Si2 0.513846 0.125705 0.000000
Si Si3 0.409199 0.639559 0.647123
Si Si4 0.736677 0.332565 0.343541
Si Si5 0.310798 0.000000 0.250000
Si Si6 0.000000 0.735026 0.750000
Si Si7 0.000000 0.000000 0.750000
O O1 0.045594 0.565131 0.000000
O O2 0.147657 0.527042 0.128046
O O3 0.080867 0.418125 0.000000
O O4 0.506891 0.179312 0.873632
O O5 0.418856 0.667369 0.500000
O O6 0.335646 0.638812 0.668656
O O7 0.439728 0.706945 0.740691
O O8 0.451863 0.557182 0.668598
O O9 0.747704 0.316447 0.500000
O O10 0.750000 0.250000 0.250000
O O11 0.773972 0.416002 0.296458
#
# Coordination Sequence:
#
# PCOD9527470 Si02
#       7
#     8   8  16  16   8   8   4
#     4  11  26  42  70  92 136 173 224 264 336 393
#     4  11  24  42  62  99 130 176 210 275 322 400
#     4  10  22  41  63  94 128 170 213 274 333 397
#     4  11  27  45  69 100 136 182 228 276 340 406
#     4  12  25  47  68 101 133 184 224 286 328 408
#     4  11  22  38  68  93 132 166 218 265 334 386
#     4  10  20  40  68  96 122 168 220 282 336 390
#
# _framework density 19.195639
#
# number of rings (size 3 to 8) (size 9 to 14) (size 15 to 20)
#    0.000    1.176    2.353    2.471    8.235    1.882 
#    0.000    0.000    0.000    0.000    0.000    0.000 
#    0.000    0.000    0.000    0.000    0.000    0.000 
#
# Total GULP energy -189532.422599 kJ/mol
# GULP energy per Si atom -5574.483018 kJ/mol
# Density = 1.915195 g / cm^3
# Si number density = 19.195639 Si / 1000 Ang^3
#
#
#
# Elastic Constant Matrix: (Units=GPa)
#
#
# Indices 1 2 3 4 5 6 
#
# 1 129.3877 50.4605 65.9473 0.0000 0.0000 0.0000
# 2 50.4605 102.3950 58.2920 0.0000 0.0000 0.0000
# 3 65.9473 58.2920 148.4394 0.0000 0.0000 0.0000
# 4 0.0000 0.0000 0.0000 38.5686 0.0000 0.0000
# 5 0.0000 0.0000 0.0000 0.0000 47.8946 0.0000
# 6 0.0000 0.0000 0.0000 0.0000 0.0000 -1.4206
#
#
#
# Elastic Compliance Matrix: (Units=1/GPa)
#
#
# Indices 1 2 3 4 5 6 
#
# 1 0.010811 -0.003340 -0.003491 0.000000 0.000000 0.000000
# 2 -0.003340 0.013610 -0.003861 0.000000 0.000000 0.000000
# 3 -0.003491 -0.003861 0.009804 0.000000 0.000000 0.000000
# 4 0.000000 0.000000 0.000000 0.025928 0.000000 0.000000
# 5 0.000000 0.000000 0.000000 0.000000 0.020879 0.000000
# 6 0.000000 0.000000 0.000000 0.000000 0.000000 -0.703938
#
#
# Mechanical properties :
#
#
# Convention : Reuss Voigt Hill
#
# Bulk Modulus (GPa) = 77.87829 81.06908 79.47369
# Shear Modulus (GPa) = -8.37181 30.71003 11.16911
#
# Velocity S-wave (km/s) = -2.09064 4.00414 2.41479
# Velocity P-wave (km/s) = 5.90180 7.98137 7.01903
#
# Compressibility (1/GPa) = 0.01284055
#
# Stress axis : x y z
#
# Youngs Moduli (GPa) = 92.50036 73.47578 101.99994
#
# Poissons Ratio (x) = 0.24541 0.35611
# Poissons Ratio (y) = 0.30895 0.39379
# Poissons Ratio (z) = 0.32294 0.28367
#
# Static dielectric constant tensor:
#      x y z
#    x 1.683180 0.000000 0.000000 
#    y 0.000000 1.721130 0.000000 
#    z 0.000000 0.000000 1.631500 
# 
# From -- ./inp_files/14548.got.cif
#   From: 2010.05.17/outbox.cif.g08.bks.cpg/sg72_8_cif.got.tgz:14548.got - 2010.06.03 17:03:01.
