data_PCOD9527533
_publ_section_title
;
Structure prediction by ZEFSAII (Michael W. Deem and Ramdas Pophale) SiO2 
 PCOD9527533
Probable space group: I B A M
;
_chemical_formula_sum "Si O2"
_cell_formula_units_Z 96
_cell_length_a 8.461028
_cell_length_b 23.459450
_cell_length_c 22.662948
_cell_angle_alpha 90.000000
_cell_angle_beta 90.000000
_cell_angle_gamma 90.000000
_cell_volume 4498.392646
_symmetry_space_group_name_H-M "I B A M"
_symmetry_group_IT_number 72
_symmetry_cell_setting 'orthorhombic'
loop_
_space_group_symop_operation_xyz
x,y,z
-x,-y,z
x,-y,1/2-z
-x,y,1/2-z
-x,-y,-z
x,y,-z
-x,y,1/2+z
x,-y,1/2+z
1/2+x,1/2+y,1/2+z
1/2-x,1/2-y,1/2+z
1/2+x,1/2-y,-z
1/2-x,1/2+y,-z
1/2-x,1/2-y,1/2-z
1/2+x,1/2+y,1/2-z
1/2-x,1/2+y,z
1/2+x,1/2-y,z
loop_
_atom_site_type_symbol
_atom_site_label
_atom_site_fract_x
_atom_site_fract_y
_atom_site_fract_z
Si Si1 0.761850 0.226552 0.931565
Si Si2 0.252371 0.183568 0.237019
Si Si3 0.036772 0.384526 0.809790
Si Si4 0.972733 0.062883 0.068164
Si Si5 0.611150 0.893883 0.435032
Si Si6 0.567739 0.324788 0.126717
O O1 0.634292 0.174835 0.931281
O O2 0.694300 0.284458 0.905630
O O3 0.904972 0.204731 0.891929
O O4 0.812899 0.232484 0.000000
O O5 0.250000 0.250000 0.250000
O O6 0.294304 0.145427 0.294611
O O7 0.404311 0.165015 0.196761
O O8 0.103352 0.172277 0.195790
O O9 0.028510 0.411128 0.874004
O O10 0.000000 0.420516 0.750000
O O11 0.065408 0.111773 0.101853
O O12 0.787692 0.079842 0.067656
O O13 0.025688 0.063139 0.000000
O O14 0.000000 0.000000 0.092677
O O15 0.543604 0.907806 0.500000
#
# Coordination Sequence:
#
# PCOD9527533 Si02
#       6
#    16  16  16  16  16  16
#     4  10  21  32  49  82 125 157 189 243 313 377
#     4   9  20  34  53  77 119 161 202 237 299 372
#     4   8  20  35  52  82 117 160 200 246 297 370
#     4   9  19  38  64  91 122 161 212 269 315 374
#     4   9  17  35  58  85 119 156 196 249 315 374
#     4  11  21  34  57  87 122 161 207 249 312 379
#
# _framework density 21.340955000000001
#
# number of rings (size 3 to 8) (size 9 to 14) (size 15 to 20)
#    1.000    1.500    0.000    3.500    7.000    0.000 
#    0.000    1.667    0.000    3.000    4.333    3.500 
#    0.000    0.000    0.000    0.000    0.000    0.000 
#
# Total GULP energy -267572.443982 kJ/mol
# GULP energy per Si atom -5574.425916 kJ/mol
# Density = 2.129238 g / cm^3
# Si number density = 21.340955 Si / 1000 Ang^3
#
#
#
# Elastic Constant Matrix: (Units=GPa)
#
#
# Indices 1 2 3 4 5 6 
#
# 1 31.9869 11.2162 34.6586 0.0000 0.0000 0.0000
# 2 11.2162 111.1002 19.5789 0.0000 0.0000 0.0000
# 3 34.6586 19.5789 164.4284 0.0000 0.0000 0.0000
# 4 0.0000 0.0000 0.0000 6.8458 0.0000 0.0000
# 5 0.0000 0.0000 0.0000 0.0000 41.4550 0.0000
# 6 0.0000 0.0000 0.0000 0.0000 0.0000 9.4356
#
#
#
# Elastic Compliance Matrix: (Units=1/GPa)
#
#
# Indices 1 2 3 4 5 6 
#
# 1 0.041289 -0.002691 -0.008383 0.000000 0.000000 0.000000
# 2 -0.002691 0.009369 -0.000548 0.000000 0.000000 0.000000
# 3 -0.008383 -0.000548 0.007914 0.000000 0.000000 0.000000
# 4 0.000000 0.000000 0.000000 0.146076 0.000000 0.000000
# 5 0.000000 0.000000 0.000000 0.000000 0.024123 0.000000
# 6 0.000000 0.000000 0.000000 0.000000 0.000000 0.105982
#
#
# Mechanical properties :
#
#
# Convention : Reuss Voigt Hill
#
# Bulk Modulus (GPa) = 28.30611 48.71367 38.50989
# Shear Modulus (GPa) = 13.52183 27.68473 20.60328
#
# Velocity S-wave (km/s) = 2.51989 3.60565 3.11051
# Velocity P-wave (km/s) = 4.66466 6.34116 5.56638
#
# Compressibility (1/GPa) = 0.03532806
#
# Stress axis : x y z
#
# Youngs Moduli (GPa) = 24.21942 106.73257 126.36039
#
# Poissons Ratio (x) = 0.28723 1.05923
# Poissons Ratio (y) = 0.06518 0.06929
# Poissons Ratio (z) = 0.20302 0.05853
#
# Static dielectric constant tensor:
#      x y z
#    x 1.884530 0.000000 0.000000 
#    y 0.000000 1.715150 0.000000 
#    z 0.000000 0.000000 1.917620 
# 
# From -- ./inp_files/42424.got.cif
#   From: 2010.05.17/outbox.cif.g08.bks.cpg/sg72_22_cif.got.tgz:42424.got - 2010.06.03 17:03:01.
