data_PCOD9527947
_publ_section_title
;
Structure prediction by ZEFSAII (Michael W. Deem and Ramdas Pophale) SiO2 
 PCOD9527947
Probable space group: I B A M
;
_chemical_formula_sum "Si O2"
_cell_formula_units_Z 72
_cell_length_a 7.666616
_cell_length_b 28.941945
_cell_length_c 14.732080
_cell_angle_alpha 90.000000
_cell_angle_beta 90.000000
_cell_angle_gamma 90.000000
_cell_volume 3268.853773
_symmetry_space_group_name_H-M "I B A M"
_symmetry_group_IT_number 72
_symmetry_cell_setting 'orthorhombic'
loop_
_space_group_symop_operation_xyz
x,y,z
-x,-y,z
x,-y,1/2-z
-x,y,1/2-z
-x,-y,-z
x,y,-z
-x,y,1/2+z
x,-y,1/2+z
1/2+x,1/2+y,1/2+z
1/2-x,1/2-y,1/2+z
1/2+x,1/2-y,-z
1/2-x,1/2+y,-z
1/2-x,1/2-y,1/2-z
1/2+x,1/2+y,1/2-z
1/2-x,1/2+y,z
1/2+x,1/2-y,z
loop_
_atom_site_type_symbol
_atom_site_label
_atom_site_fract_x
_atom_site_fract_y
_atom_site_fract_z
Si Si1 0.793009 0.989613 0.356382
Si Si2 0.200201 0.135372 0.140272
Si Si3 0.669637 0.814683 0.500000
Si Si4 0.207219 0.883542 0.152688
Si Si5 0.231554 0.709785 0.000000
Si Si6 0.161806 0.437769 0.500000
O O1 0.742784 0.936100 0.370900
O O2 0.768896 0.000000 0.250000
O O3 0.685230 0.022518 0.420984
O O4 0.000000 0.000000 0.376195
O O5 0.253220 0.131544 0.245040
O O6 0.318935 0.102789 0.078711
O O7 0.002658 0.116086 0.140195
O O8 0.191203 0.184992 0.090170
O O9 0.718798 0.845808 0.414582
O O10 0.758200 0.764677 0.500000
O O11 0.468606 0.803372 0.500000
#
# Coordination Sequence:
#
# PCOD9527947 Si02
#       6
#    16  16   8  16   8   8
#     4  11  18  29  53  98 135 170 213 262 312 358
#     4  10  21  38  63  93 128 168 214 264 328 372
#     4  12  26  44  67  93 127 161 224 264 340 387
#     4  11  21  38  63 101 130 171 214 273 312 387
#     4  11  26  46  67  94 121 173 208 277 333 398
#     4  11  17  28  53  87 132 173 207 259 306 367
#
# _framework density 22.026070000000001
#
# number of rings (size 3 to 8) (size 9 to 14) (size 15 to 20)
#    0.000    1.111    4.444    5.000    0.000    1.778 
#    0.000    0.000    0.000   10.667    0.000    0.000 
#    0.000    0.000    0.000    0.000    0.000    0.000 
#
# Total GULP energy -200464.105546 kJ/mol
# GULP energy per Si atom -5568.447376 kJ/mol
# Density = 2.197594 g / cm^3
# Si number density = 22.026070 Si / 1000 Ang^3
#
#
#
# Elastic Constant Matrix: (Units=GPa)
#
#
# Indices 1 2 3 4 5 6 
#
# 1 32.1178 16.7097 9.7886 0.0000 0.0000 0.0000
# 2 16.7097 231.6335 87.1495 0.0000 0.0000 0.0000
# 3 9.7886 87.1495 142.8268 0.0000 0.0000 0.0000
# 4 0.0000 0.0000 0.0000 17.6896 0.0000 0.0000
# 5 0.0000 0.0000 0.0000 0.0000 11.1628 0.0000
# 6 0.0000 0.0000 0.0000 0.0000 0.0000 28.0300
#
#
#
# Elastic Compliance Matrix: (Units=1/GPa)
#
#
# Indices 1 2 3 4 5 6 
#
# 1 0.032467 -0.001953 -0.001033 0.000000 0.000000 0.000000
# 2 -0.001953 0.005721 -0.003357 0.000000 0.000000 0.000000
# 3 -0.001033 -0.003357 0.009121 0.000000 0.000000 0.000000
# 4 0.000000 0.000000 0.000000 0.056530 0.000000 0.000000
# 5 0.000000 0.000000 0.000000 0.000000 0.089583 0.000000
# 6 0.000000 0.000000 0.000000 0.000000 0.000000 0.035676
#
#
# Mechanical properties :
#
#
# Convention : Reuss Voigt Hill
#
# Bulk Modulus (GPa) = 28.88403 70.43041 49.65722
# Shear Modulus (GPa) = 19.73742 30.90515 25.32129
#
# Velocity S-wave (km/s) = 2.99673 3.74988 3.39426
# Velocity P-wave (km/s) = 5.01158 7.12700 6.16077
#
# Compressibility (1/GPa) = 0.03462120
#
# Stress axis : x y z
#
# Youngs Moduli (GPa) = 30.80092 174.79104 109.64112
#
# Poissons Ratio (x) = 0.34143 0.11328
# Poissons Ratio (y) = 0.06017 0.36807
# Poissons Ratio (z) = 0.03182 0.58678
#
# Static dielectric constant tensor:
#      x y z
#    x 1.889160 0.000000 0.000000 
#    y 0.000000 1.824650 0.000000 
#    z 0.000000 0.000000 1.731250 
# 
# From -- ./inp_files/18920.got.cif
#   From: 2010.05.17/outbox.cif.g08.bks.cpg/sg72_10_cif.got.tgz:18920.got - 2010.06.03 17:03:01.
