data_PCOD9527221
_publ_section_title
;
Structure prediction by ZEFSAII (Michael W. Deem and Ramdas Pophale) SiO2 
 PCOD9527221
Probable space group: I B A M
;
_chemical_formula_sum "Si O2"
_cell_formula_units_Z 112
_cell_length_a 22.393733
_cell_length_b 14.448869
_cell_length_c 16.458361
_cell_angle_alpha 90.000000
_cell_angle_beta 90.000000
_cell_angle_gamma 90.000000
_cell_volume 5325.335004
_symmetry_space_group_name_H-M "I B A M"
_symmetry_group_IT_number 72
_symmetry_cell_setting 'orthorhombic'
loop_
_space_group_symop_operation_xyz
x,y,z
-x,-y,z
x,-y,1/2-z
-x,y,1/2-z
-x,-y,-z
x,y,-z
-x,y,1/2+z
x,-y,1/2+z
1/2+x,1/2+y,1/2+z
1/2-x,1/2-y,1/2+z
1/2+x,1/2-y,-z
1/2-x,1/2+y,-z
1/2-x,1/2-y,1/2-z
1/2+x,1/2+y,1/2-z
1/2-x,1/2+y,z
1/2+x,1/2-y,z
loop_
_atom_site_type_symbol
_atom_site_label
_atom_site_fract_x
_atom_site_fract_y
_atom_site_fract_z
Si Si1 0.963402 0.228091 0.333576
Si Si2 0.168034 0.065580 0.672320
Si Si3 0.245771 0.908038 0.404501
Si Si4 0.480096 0.106038 0.095649
Si Si5 0.829731 0.781307 0.791002
Si Si6 0.362538 0.095396 0.797748
Si Si7 0.459069 0.579040 0.593359
O O1 0.897162 0.191577 0.318329
O O2 0.000000 0.221757 0.250000
O O3 0.966781 0.331653 0.367751
O O4 0.001168 0.169595 0.397882
O O5 0.191151 0.161221 0.711106
O O6 0.104771 0.087627 0.633367
O O7 0.159060 0.000000 0.750000
O O8 0.209458 0.003038 0.615029
O O9 0.249907 0.893976 0.500000
O O10 0.212341 0.820941 0.361762
O O11 0.309790 0.918530 0.362507
O O12 0.422201 0.123517 0.152610
O O13 0.500000 0.000000 0.101721
O O14 0.468680 0.126234 0.000000
O O15 0.839132 0.675560 0.763389
O O16 0.373068 0.000000 0.750000
O O17 0.500000 0.500000 0.633254
O O18 0.448651 0.554333 0.500000
#
# Coordination Sequence:
#
# PCOD9527221 Si02
#       7
#    16  16  16  16  16  16  16
#     4  12  22  38  63  95 128 168 212 257 311 385
#     4  10  20  37  61  86 121 164 213 257 310 381
#     4  11  25  44  65  94 132 169 214 271 331 382
#     4  11  25  43  67  98 131 166 212 273 333 380
#     4  11  23  41  67  95 126 170 220 262 314 386
#     4  12  24  44  70  95 128 170 223 271 322 394
#     4  11  22  33  53  87 126 165 205 254 311 367
#
# _framework density 21.03154
#
# number of rings (size 3 to 8) (size 9 to 14) (size 15 to 20)
#    0.000    0.857    2.857    5.571    0.000    2.286 
#    0.000    5.000    0.000    0.000    0.000    0.000 
#    0.000    0.000    0.000    0.000    0.000    0.000 
#
# Total GULP energy -312956.469514 kJ/mol
# GULP energy per Si atom -5588.508384 kJ/mol
# Density = 2.098367 g / cm^3
# Si number density = 21.031540 Si / 1000 Ang^3
#
#
#
# Elastic Constant Matrix: (Units=GPa)
#
#
# Indices 1 2 3 4 5 6 
#
# 1 83.1851 -9.8075 27.7594 0.0000 0.0000 0.0000
# 2 -9.8075 80.6568 3.7640 0.0000 0.0000 0.0000
# 3 27.7594 3.7640 91.7184 0.0000 0.0000 0.0000
# 4 0.0000 0.0000 0.0000 -34.3037 0.0000 0.0000
# 5 0.0000 0.0000 0.0000 0.0000 127.4929 0.0000
# 6 0.0000 0.0000 0.0000 0.0000 0.0000 20.1761
#
#
#
# Elastic Compliance Matrix: (Units=1/GPa)
#
#
# Indices 1 2 3 4 5 6 
#
# 1 0.013644 0.001855 -0.004205 0.000000 0.000000 0.000000
# 2 0.001855 0.012674 -0.001082 0.000000 0.000000 0.000000
# 3 -0.004205 -0.001082 0.012220 0.000000 0.000000 0.000000
# 4 0.000000 0.000000 0.000000 -0.029151 0.000000 0.000000
# 5 0.000000 0.000000 0.000000 0.000000 0.007844 0.000000
# 6 0.000000 0.000000 0.000000 0.000000 0.000000 0.049564
#
#
# Mechanical properties :
#
#
# Convention : Reuss Voigt Hill
#
# Bulk Modulus (GPa) = 31.57145 33.22136 32.39641
# Shear Modulus (GPa) = 59.37143 38.26267 48.81705
#
# Velocity S-wave (km/s) = 5.31893 4.26995 4.82304
# Velocity P-wave (km/s) = 7.26398 6.33563 6.81563
#
# Compressibility (1/GPa) = 0.03167418
#
# Stress axis : x y z
#
# Youngs Moduli (GPa) = 73.29490 78.89996 81.83198
#
# Poissons Ratio (x) = -0.14638 0.34414
# Poissons Ratio (y) = -0.13598 0.08851
# Poissons Ratio (z) = 0.30824 0.08534
#
# Static dielectric constant tensor:
#      x y z
#    x 1.745100 0.000000 0.000000 
#    y 0.000000 1.953430 0.000000 
#    z 0.000000 0.000000 1.738350 
# 
# From -- ./inp_files/22139.got.cif
#   From: 2010.05.17/outbox.cif.g08.bks.cpg/sg72_12_cif.got.tgz:22139.got - 2010.06.03 17:03:01.
