data_PCOD9527082
_publ_section_title
;
Structure prediction by ZEFSAII (Michael W. Deem and Ramdas Pophale) SiO2 
 PCOD9527082
Probable space group: I B A M
;
_chemical_formula_sum "Si O2"
_cell_formula_units_Z 64
_cell_length_a 13.680837
_cell_length_b 9.160131
_cell_length_c 24.325270
_cell_angle_alpha 90.000000
_cell_angle_beta 90.000000
_cell_angle_gamma 90.000000
_cell_volume 3048.400489
_symmetry_space_group_name_H-M "I B A M"
_symmetry_group_IT_number 72
_symmetry_cell_setting 'orthorhombic'
loop_
_space_group_symop_operation_xyz
x,y,z
-x,-y,z
x,-y,1/2-z
-x,y,1/2-z
-x,-y,-z
x,y,-z
-x,y,1/2+z
x,-y,1/2+z
1/2+x,1/2+y,1/2+z
1/2-x,1/2-y,1/2+z
1/2+x,1/2-y,-z
1/2-x,1/2+y,-z
1/2-x,1/2-y,1/2-z
1/2+x,1/2+y,1/2-z
1/2-x,1/2+y,z
1/2+x,1/2-y,z
loop_
_atom_site_type_symbol
_atom_site_label
_atom_site_fract_x
_atom_site_fract_y
_atom_site_fract_z
Si Si1 0.350236 0.111210 0.936624
Si Si2 0.825901 0.852209 0.717284
Si Si3 0.194343 0.686375 0.383875
Si Si4 0.508511 0.170262 0.337219
O O1 0.251000 0.188333 0.916015
O O2 0.434310 0.165673 0.895462
O O3 0.339442 0.939520 0.925291
O O4 0.369758 0.142472 0.000000
O O5 0.750000 0.750000 0.750000
O O6 0.770109 0.883083 0.659836
O O7 0.923213 0.762023 0.703101
O O8 0.844011 0.000000 0.750000
O O9 0.098849 0.732224 0.349159
O O10 0.500000 0.000000 0.319440
#
# Coordination Sequence:
#
# PCOD9527082 Si02
#       4
#    16  16  16  16
#     4  10  20  36  60  86 116 156 196 242 304 363
#     4  11  22  40  64  90 122 162 205 252 309 364
#     4  10  21  39  58  85 120 151 197 252 295 359
#     4   9  20  38  60  89 122 156 202 250 298 365
#
# _framework density 20.994617999999999
#
# number of rings (size 3 to 8) (size 9 to 14) (size 15 to 20)
#    0.000    2.000    0.000    5.250    0.000    6.500 
#    0.000   20.000    0.000    7.500    0.000    0.000 
#    0.000    0.000    0.000    0.000    0.000    0.250 
#
# Total GULP energy -178987.017171 kJ/mol
# GULP energy per Si atom -5593.344287 kJ/mol
# Density = 2.094683 g / cm^3
# Si number density = 20.994618 Si / 1000 Ang^3
#
#
#
# Elastic Constant Matrix: (Units=GPa)
#
#
# Indices 1 2 3 4 5 6 
#
# 1 148.9515 60.4070 47.9908 0.0000 0.0000 0.0000
# 2 60.4070 100.4835 59.6320 0.0000 0.0000 0.0000
# 3 47.9908 59.6320 118.0284 0.0000 0.0000 0.0000
# 4 0.0000 0.0000 0.0000 31.5722 0.0000 0.0000
# 5 0.0000 0.0000 0.0000 0.0000 15.6175 0.0000
# 6 0.0000 0.0000 0.0000 0.0000 0.0000 36.3232
#
#
#
# Elastic Compliance Matrix: (Units=1/GPa)
#
#
# Indices 1 2 3 4 5 6 
#
# 1 0.009021 -0.004636 -0.001325 0.000000 0.000000 0.000000
# 2 -0.004636 0.016597 -0.006500 0.000000 0.000000 0.000000
# 3 -0.001325 -0.006500 0.012295 0.000000 0.000000 0.000000
# 4 0.000000 0.000000 0.000000 0.031673 0.000000 0.000000
# 5 0.000000 0.000000 0.000000 0.000000 0.064031 0.000000
# 6 0.000000 0.000000 0.000000 0.000000 0.000000 0.027531
#
#
# Mechanical properties :
#
#
# Convention : Reuss Voigt Hill
#
# Bulk Modulus (GPa) = 76.98679 78.16922 77.57800
# Shear Modulus (GPa) = 26.26036 29.99816 28.12926
#
# Velocity S-wave (km/s) = 3.54052 3.78411 3.66434
# Velocity P-wave (km/s) = 7.31185 7.51043 7.41180
#
# Compressibility (1/GPa) = 0.01298924
#
# Stress axis : x y z
#
# Youngs Moduli (GPa) = 110.85299 60.25349 81.33085
#
# Poissons Ratio (x) = 0.27936 0.10780
# Poissons Ratio (y) = 0.51397 0.52865
# Poissons Ratio (z) = 0.14693 0.39164
#
# Static dielectric constant tensor:
#      x y z
#    x 1.757480 0.000000 0.000000 
#    y 0.000000 1.727840 0.000000 
#    z 0.000000 0.000000 1.780010 
# 
# From -- ./inp_files/41900.got.cif
#   From: 2010.05.17/outbox.cif.g08.bks.cpg/sg72_21_cif.got.tgz:41900.got - 2010.06.03 17:03:01.
