data_PCOD9527393
_publ_section_title
;
Structure prediction by ZEFSAII (Michael W. Deem and Ramdas Pophale) SiO2 
 PCOD9527393
Probable space group: I B A M
;
_chemical_formula_sum "Si O2"
_cell_formula_units_Z 88
_cell_length_a 15.376234
_cell_length_b 15.307786
_cell_length_c 16.963808
_cell_angle_alpha 90.000000
_cell_angle_beta 90.000000
_cell_angle_gamma 90.000000
_cell_volume 3992.874961
_symmetry_space_group_name_H-M "I B A M"
_symmetry_group_IT_number 72
_symmetry_cell_setting 'orthorhombic'
loop_
_space_group_symop_operation_xyz
x,y,z
-x,-y,z
x,-y,1/2-z
-x,y,1/2-z
-x,-y,-z
x,y,-z
-x,y,1/2+z
x,-y,1/2+z
1/2+x,1/2+y,1/2+z
1/2-x,1/2-y,1/2+z
1/2+x,1/2-y,-z
1/2-x,1/2+y,-z
1/2-x,1/2-y,1/2-z
1/2+x,1/2+y,1/2-z
1/2-x,1/2+y,z
1/2+x,1/2-y,z
loop_
_atom_site_type_symbol
_atom_site_label
_atom_site_fract_x
_atom_site_fract_y
_atom_site_fract_z
Si Si1 0.173429 0.097699 0.243124
Si Si2 0.574230 0.263062 0.352793
Si Si3 0.125758 0.449645 0.000000
Si Si4 0.341781 0.109653 0.340500
Si Si5 0.880576 0.197275 0.404916
Si Si6 0.500000 0.115100 0.250000
Si Si7 0.562408 0.146736 0.500000
O O1 0.127568 0.164446 0.305012
O O2 0.272275 0.097249 0.272970
O O3 0.165266 0.128511 0.152943
O O4 0.137006 0.000000 0.250000
O O5 0.482766 0.305120 0.381070
O O6 0.562718 0.183520 0.292449
O O7 0.597962 0.205715 0.428711
O O8 0.180987 0.437874 0.921353
O O9 0.093832 0.548232 0.000000
O O10 0.044306 0.376565 0.000000
O O11 0.349804 0.209469 0.369785
O O12 0.435819 0.072206 0.312747
O O13 0.869016 0.189506 0.500000
#
# Coordination Sequence:
#
# PCOD9527393 Si02
#       7
#    16  16   8  16  16   8   8
#     4  12  28  46  67 104 146 189 241 293 345 421
#     4  11  20  42  71  99 138 182 237 283 354 420
#     4  11  22  43  70 105 148 174 233 303 348 423
#     4  11  22  46  69  99 147 184 227 295 356 427
#     4  11  21  46  74  99 137 183 233 292 356 413
#     4  10  20  38  74  96 128 196 234 272 357 427
#     4  11  22  41  70 112 135 184 234 287 358 433
#
# _framework density 22.039256999999999
#
# number of rings (size 3 to 8) (size 9 to 14) (size 15 to 20)
#    0.000    0.909    9.091    0.545    0.000    3.636 
#    3.273    1.818    2.000    0.000    0.000    0.000 
#    0.000    0.000    0.000    0.000    0.000    0.000 
#
# Total GULP energy -245310.860267 kJ/mol
# GULP energy per Si atom -5575.246824 kJ/mol
# Density = 2.198910 g / cm^3
# Si number density = 22.039257 Si / 1000 Ang^3
#
#
#
# Elastic Constant Matrix: (Units=GPa)
#
#
# Indices 1 2 3 4 5 6 
#
# 1 50.6252 26.1387 41.3685 0.0000 0.0000 0.0000
# 2 26.1387 84.7056 60.5775 0.0000 0.0000 0.0000
# 3 41.3685 60.5775 170.2051 0.0000 0.0000 0.0000
# 4 0.0000 0.0000 0.0000 32.7171 0.0000 0.0000
# 5 0.0000 0.0000 0.0000 0.0000 30.5041 0.0000
# 6 0.0000 0.0000 0.0000 0.0000 0.0000 8.5152
#
#
#
# Elastic Compliance Matrix: (Units=1/GPa)
#
#
# Indices 1 2 3 4 5 6 
#
# 1 0.025969 -0.004695 -0.004641 0.000000 0.000000 0.000000
# 2 -0.004695 0.016685 -0.004797 0.000000 0.000000 0.000000
# 3 -0.004641 -0.004797 0.008711 0.000000 0.000000 0.000000
# 4 0.000000 0.000000 0.000000 0.030565 0.000000 0.000000
# 5 0.000000 0.000000 0.000000 0.000000 0.032782 0.000000
# 6 0.000000 0.000000 0.000000 0.000000 0.000000 0.117436
#
#
# Mechanical properties :
#
#
# Convention : Reuss Voigt Hill
#
# Bulk Modulus (GPa) = 43.29165 62.41171 52.85168
# Shear Modulus (GPa) = 18.64873 26.17737 22.41305
#
# Velocity S-wave (km/s) = 2.91204 3.45013 3.19244
# Velocity P-wave (km/s) = 5.56707 6.65215 6.13365
#
# Compressibility (1/GPa) = 0.02309914
#
# Stress axis : x y z
#
# Youngs Moduli (GPa) = 38.50695 59.93368 114.80155
#
# Poissons Ratio (x) = 0.28137 0.53280
# Poissons Ratio (y) = 0.18078 0.55074
# Poissons Ratio (z) = 0.17871 0.28752
#
# Static dielectric constant tensor:
#      x y z
#    x 1.887680 0.000000 0.000000 
#    y 0.000000 1.848670 0.000000 
#    z 0.000000 0.000000 1.765120 
# 
# From -- ./inp_files/31493.got.cif
#   From: 2010.05.17/outbox.cif.g08.bks.cpg/sg72_16_cif.got.tgz:31493.got - 2010.06.03 17:03:01.
