data_PCOD9527224
_publ_section_title
;
Structure prediction by ZEFSAII (Michael W. Deem and Ramdas Pophale) SiO2 
 PCOD9527224
Probable space group: I B A M
;
_chemical_formula_sum "Si O2"
_cell_formula_units_Z 116
_cell_length_a 24.904974
_cell_length_b 9.963525
_cell_length_c 24.246106
_cell_angle_alpha 90.000000
_cell_angle_beta 90.000000
_cell_angle_gamma 90.000000
_cell_volume 6016.461016
_symmetry_space_group_name_H-M "I B A M"
_symmetry_group_IT_number 72
_symmetry_cell_setting 'orthorhombic'
loop_
_space_group_symop_operation_xyz
x,y,z
-x,-y,z
x,-y,1/2-z
-x,y,1/2-z
-x,-y,-z
x,y,-z
-x,y,1/2+z
x,-y,1/2+z
1/2+x,1/2+y,1/2+z
1/2-x,1/2-y,1/2+z
1/2+x,1/2-y,-z
1/2-x,1/2+y,-z
1/2-x,1/2-y,1/2-z
1/2+x,1/2+y,1/2-z
1/2-x,1/2+y,z
1/2+x,1/2-y,z
loop_
_atom_site_type_symbol
_atom_site_label
_atom_site_fract_x
_atom_site_fract_y
_atom_site_fract_z
Si Si1 0.001341 0.662011 0.436692
Si Si2 0.768498 0.906700 0.625382
Si Si3 0.105977 0.226024 0.124506
Si Si4 0.879285 0.957766 0.687991
Si Si5 0.071798 0.319784 0.333626
Si Si6 0.342205 0.969715 0.185415
Si Si7 0.000000 0.500000 0.750000
Si Si8 0.217421 0.828974 0.563896
O O1 0.994176 0.707970 0.500000
O O2 0.056489 0.717985 0.410692
O O3 0.000000 0.500000 0.437257
O O4 0.956052 0.699593 0.392644
O O5 0.823447 0.918434 0.658741
O O6 0.717391 0.946391 0.662733
O O7 0.757009 0.761691 0.600300
O O8 0.771712 0.016157 0.576894
O O9 0.123507 0.337222 0.169726
O O10 0.157634 0.206126 0.085217
O O11 0.096220 0.084271 0.154740
O O12 0.916216 0.827044 0.689194
O O13 0.867369 0.000000 0.750000
O O14 0.126111 0.405679 0.341074
O O15 0.035479 0.406626 0.290917
O O16 0.340688 0.000000 0.250000
O O17 0.223028 0.798542 0.500000
#
# Coordination Sequence:
#
# PCOD9527224 Si02
#       8
#    16  16  16  16  16  16   4  16
#     4  11  23  43  67  91 121 161 215 268 314 382
#     4  10  22  39  60  91 128 163 215 255 311 387
#     4  10  22  41  59  92 125 163 210 256 326 387
#     4  11  25  41  62  94 134 170 209 262 327 396
#     4  12  24  42  67  97 125 165 218 261 325 376
#     4  11  20  37  65  90 124 164 206 256 310 371
#     4  12  24  44  68  92 132 160 214 282 316 378
#     4  10  20  37  61  87 122 166 210 264 314 369
#
# _framework density 19.280436999999999
#
# number of rings (size 3 to 8) (size 9 to 14) (size 15 to 20)
#    0.000    1.241    2.759    2.897    1.931    0.552 
#    0.000   12.414    0.000    0.000    0.000    0.000 
#    0.000    0.000    0.000    0.000    0.000    0.000 
#
# Total GULP energy -324115.942503 kJ/mol
# GULP energy per Si atom -5588.205905 kJ/mol
# Density = 1.923655 g / cm^3
# Si number density = 19.280437 Si / 1000 Ang^3
#
#
#
# Elastic Constant Matrix: (Units=GPa)
#
#
# Indices 1 2 3 4 5 6 
#
# 1 54.5130 26.8144 42.5993 0.0000 0.0000 0.0000
# 2 26.8144 104.0784 29.2509 0.0000 0.0000 0.0000
# 3 42.5993 29.2509 122.6225 0.0000 0.0000 0.0000
# 4 0.0000 0.0000 0.0000 16.6354 0.0000 0.0000
# 5 0.0000 0.0000 0.0000 0.0000 9.9888 0.0000
# 6 0.0000 0.0000 0.0000 0.0000 0.0000 -6.9029
#
#
#
# Elastic Compliance Matrix: (Units=1/GPa)
#
#
# Indices 1 2 3 4 5 6 
#
# 1 0.027131 -0.004653 -0.008315 0.000000 0.000000 0.000000
# 2 -0.004653 0.011097 -0.001031 0.000000 0.000000 0.000000
# 3 -0.008315 -0.001031 0.011290 0.000000 0.000000 0.000000
# 4 0.000000 0.000000 0.000000 0.060113 0.000000 0.000000
# 5 0.000000 0.000000 0.000000 0.000000 0.100112 0.000000
# 6 0.000000 0.000000 0.000000 0.000000 0.000000 -0.144867
#
#
# Mechanical properties :
#
#
# Convention : Reuss Voigt Hill
#
# Bulk Modulus (GPa) = 46.46958 53.17145 49.82051
# Shear Modulus (GPa) = 49.97712 16.11422 33.04567
#
# Velocity S-wave (km/s) = 5.09681 2.89412 4.14448
# Velocity P-wave (km/s) = 7.66752 6.22942 6.98558
#
# Compressibility (1/GPa) = 0.02151946
#
# Stress axis : x y z
#
# Youngs Moduli (GPa) = 36.85802 90.11808 88.57582
#
# Poissons Ratio (x) = 0.41931 0.73655
# Poissons Ratio (y) = 0.17150 0.09128
# Poissons Ratio (z) = 0.30649 0.09287
#
# Static dielectric constant tensor:
#      x y z
#    x 1.670640 0.000000 0.000000 
#    y 0.000000 1.690340 0.000000 
#    z 0.000000 0.000000 1.643870 
# 
# From -- ./inp_files/46008.got.cif
#   From: 2010.05.17/outbox.cif.g08.bks.cpg/sg72_24_cif.got.tgz:46008.got - 2010.06.03 17:03:01.
