data_PCOD9527139
_publ_section_title
;
Structure prediction by ZEFSAII (Michael W. Deem and Ramdas Pophale) SiO2 
 PCOD9527139
Probable space group: I B A M
;
_chemical_formula_sum "Si O2"
_cell_formula_units_Z 104
_cell_length_a 27.472161
_cell_length_b 9.959191
_cell_length_c 19.568368
_cell_angle_alpha 90.000000
_cell_angle_beta 90.000000
_cell_angle_gamma 90.000000
_cell_volume 5353.915241
_symmetry_space_group_name_H-M "I B A M"
_symmetry_group_IT_number 72
_symmetry_cell_setting 'orthorhombic'
loop_
_space_group_symop_operation_xyz
x,y,z
-x,-y,z
x,-y,1/2-z
-x,y,1/2-z
-x,-y,-z
x,y,-z
-x,y,1/2+z
x,-y,1/2+z
1/2+x,1/2+y,1/2+z
1/2-x,1/2-y,1/2+z
1/2+x,1/2-y,-z
1/2-x,1/2+y,-z
1/2-x,1/2-y,1/2-z
1/2+x,1/2+y,1/2-z
1/2-x,1/2+y,z
1/2+x,1/2-y,z
loop_
_atom_site_type_symbol
_atom_site_label
_atom_site_fract_x
_atom_site_fract_y
_atom_site_fract_z
Si Si1 0.253645 0.123070 0.801713
Si Si2 0.417673 0.670597 0.351658
Si Si3 0.351004 0.571692 0.176689
Si Si4 0.140503 0.566837 0.824590
Si Si5 0.918901 0.314801 0.643288
Si Si6 0.000000 0.764890 0.250000
Si Si7 0.057223 0.829632 0.500000
Si Si8 0.942750 0.864283 0.500000
O O1 0.250000 0.250000 0.750000
O O2 0.204043 0.107368 0.844977
O O3 0.304050 0.108782 0.843162
O O4 0.254717 0.000000 0.750000
O O5 0.384284 0.539361 0.358993
O O6 0.388579 0.795620 0.322333
O O7 0.463939 0.652066 0.300864
O O8 0.429951 0.706338 0.429308
O O9 0.346489 0.500000 0.250000
O O10 0.381121 0.708274 0.175742
O O11 0.142719 0.500000 0.750000
O O12 0.109126 0.455989 0.865200
O O13 0.965153 0.316461 0.696092
O O14 0.931305 0.252307 0.569122
O O15 0.000545 0.860734 0.500000
O O16 0.077774 0.982382 0.500000
#
# Coordination Sequence:
#
# PCOD9527139 Si02
#       8
#    16  16  16  16  16   8   8   8
#     4  10  20  36  62  93 132 163 200 268 334 380
#     4  12  24  39  64  91 130 166 215 263 319 384
#     4  11  20  36  62  96 120 160 215 267 322 377
#     4  11  22  40  62  96 130 164 206 265 327 389
#     4  12  24  39  64  91 132 169 212 261 323 387
#     4  12  24  40  62  98 126 172 210 270 324 384
#     4  11  24  43  61  88 128 177 216 263 323 382
#     4  11  24  43  61  88 126 177 218 269 311 388
#
# _framework density 19.425037
#
# number of rings (size 3 to 8) (size 9 to 14) (size 15 to 20)
#    0.000    0.769    6.154    3.692    0.000    3.077 
#    0.000    0.769    0.000    5.538    0.000    0.000 
#    0.000    0.000    0.000    0.000    0.000    0.000 
#
# Total GULP energy -289603.628306 kJ/mol
# GULP energy per Si atom -5569.300544 kJ/mol
# Density = 1.938083 g / cm^3
# Si number density = 19.425037 Si / 1000 Ang^3
#
#
#
# Elastic Constant Matrix: (Units=GPa)
#
#
# Indices 1 2 3 4 5 6 
#
# 1 148.9534 51.8777 46.8944 0.0000 0.0000 0.0000
# 2 51.8777 115.3811 10.6509 0.0000 0.0000 0.0000
# 3 46.8944 10.6509 106.5586 0.0000 0.0000 0.0000
# 4 0.0000 0.0000 0.0000 50.1198 0.0000 0.0000
# 5 0.0000 0.0000 0.0000 0.0000 -1.0866 0.0000
# 6 0.0000 0.0000 0.0000 0.0000 0.0000 20.5237
#
#
#
# Elastic Compliance Matrix: (Units=1/GPa)
#
#
# Indices 1 2 3 4 5 6 
#
# 1 0.009188 -0.003793 -0.003664 0.000000 0.000000 0.000000
# 2 -0.003793 0.010313 0.000638 0.000000 0.000000 0.000000
# 3 -0.003664 0.000638 0.010933 0.000000 0.000000 0.000000
# 4 0.000000 0.000000 0.000000 0.019952 0.000000 0.000000
# 5 0.000000 0.000000 0.000000 0.000000 -0.920273 0.000000
# 6 0.000000 0.000000 0.000000 0.000000 0.000000 0.048724
#
#
# Mechanical properties :
#
#
# Convention : Reuss Voigt Hill
#
# Bulk Modulus (GPa) = 59.53488 65.52659 62.53073
# Shear Modulus (GPa) = -6.23500 31.34273 12.55386
#
# Velocity S-wave (km/s) = -1.79353 4.02122 2.54495
# Velocity P-wave (km/s) = 5.14063 7.44087 6.39503
#
# Compressibility (1/GPa) = 0.01679688
#
# Stress axis : x y z
#
# Youngs Moduli (GPa) = 108.83559 96.96141 91.46330
#
# Poissons Ratio (x) = 0.36777 0.33516
# Poissons Ratio (y) = 0.41281 -0.05838
# Poissons Ratio (z) = 0.39882 -0.06189
#
# Static dielectric constant tensor:
#      x y z
#    x 1.805880 0.000000 0.000000 
#    y 0.000000 1.913090 0.000000 
#    z 0.000000 0.000000 1.681260 
# 
# From -- ./inp_files/40820.got.cif
#   From: 2010.05.17/outbox.cif.g08.bks.cpg/sg72_21_cif.got.tgz:40820.got - 2010.06.03 17:03:01.
