data_PCOD9527491
_publ_section_title
;
Structure prediction by ZEFSAII (Michael W. Deem and Ramdas Pophale) SiO2 
 PCOD9527491
Probable space group: I B A M
;
_chemical_formula_sum "Si O2"
_cell_formula_units_Z 96
_cell_length_a 21.126527
_cell_length_b 15.061092
_cell_length_c 14.407934
_cell_angle_alpha 90.000000
_cell_angle_beta 90.000000
_cell_angle_gamma 90.000000
_cell_volume 4584.439870
_symmetry_space_group_name_H-M "I B A M"
_symmetry_group_IT_number 72
_symmetry_cell_setting 'orthorhombic'
loop_
_space_group_symop_operation_xyz
x,y,z
-x,-y,z
x,-y,1/2-z
-x,y,1/2-z
-x,-y,-z
x,y,-z
-x,y,1/2+z
x,-y,1/2+z
1/2+x,1/2+y,1/2+z
1/2-x,1/2-y,1/2+z
1/2+x,1/2-y,-z
1/2-x,1/2+y,-z
1/2-x,1/2-y,1/2-z
1/2+x,1/2+y,1/2-z
1/2-x,1/2+y,z
1/2+x,1/2-y,z
loop_
_atom_site_type_symbol
_atom_site_label
_atom_site_fract_x
_atom_site_fract_y
_atom_site_fract_z
Si Si1 0.622098 0.165024 0.500000
Si Si2 0.257999 0.231104 0.500000
Si Si3 0.140181 0.079257 0.200967
Si Si4 0.866837 0.116111 0.500000
Si Si5 0.740897 0.846175 0.702622
Si Si6 0.485383 0.256472 0.500000
Si Si7 0.387372 0.090111 0.797277
Si Si8 0.055865 0.247971 0.801088
O O1 0.689755 0.217336 0.500000
O O2 0.561763 0.235520 0.500000
O O3 0.618909 0.103143 0.592050
O O4 0.316809 0.301172 0.500000
O O5 0.262621 0.172648 0.593204
O O6 0.201025 0.093436 0.265394
O O7 0.111532 0.177816 0.196048
O O8 0.102307 0.000000 0.250000
O O9 0.148091 0.060443 0.092223
O O10 0.941319 0.151079 0.500000
O O11 0.750000 0.750000 0.750000
O O12 0.679032 0.889867 0.746416
O O13 0.460898 0.218144 0.403122
O O14 0.430191 0.171245 0.765198
O O15 0.411264 0.000000 0.750000
O O16 0.000000 0.195776 0.750000
#
# Coordination Sequence:
#
# PCOD9527491 Si02
#       8
#     8   8  16   8  16   8  16  16
#     4  12  22  42  67 104 131 181 224 279 330 405
#     4  12  22  38  77  94 132 184 227 268 343 407
#     4  11  23  40  66  97 132 170 222 277 336 398
#     4  10  20  41  65  98 137 181 219 275 341 408
#     4  12  21  41  66 100 129 176 222 274 336 400
#     4  10  22  39  69  96 131 179 228 266 339 399
#     4  12  26  43  68 101 139 172 225 278 334 399
#     4  11  22  43  66  91 131 177 219 272 331 394
#
# _framework density 20.940398999999999
#
# number of rings (size 3 to 8) (size 9 to 14) (size 15 to 20)
#    0.000    0.667    6.667    1.500    0.000    2.667 
#    0.000    2.500    0.000    3.000    0.000    0.000 
#    0.000    0.000    0.000    0.000    0.000    0.000 
#
# Total GULP energy -267506.033072 kJ/mol
# GULP energy per Si atom -5573.042356 kJ/mol
# Density = 2.089274 g / cm^3
# Si number density = 20.940399 Si / 1000 Ang^3
#
#
#
# Elastic Constant Matrix: (Units=GPa)
#
#
# Indices 1 2 3 4 5 6 
#
# 1 83.9003 6.7238 25.1380 0.0000 0.0000 0.0000
# 2 6.7238 77.2152 47.9867 0.0000 0.0000 0.0000
# 3 25.1380 47.9867 237.3675 0.0000 0.0000 0.0000
# 4 0.0000 0.0000 0.0000 21.0205 0.0000 0.0000
# 5 0.0000 0.0000 0.0000 0.0000 25.2330 0.0000
# 6 0.0000 0.0000 0.0000 0.0000 0.0000 -12.2092
#
#
#
# Elastic Compliance Matrix: (Units=1/GPa)
#
#
# Indices 1 2 3 4 5 6 
#
# 1 0.012316 -0.000300 -0.001244 0.000000 0.000000 0.000000
# 2 -0.000300 0.014819 -0.002964 0.000000 0.000000 0.000000
# 3 -0.001244 -0.002964 0.004944 0.000000 0.000000 0.000000
# 4 0.000000 0.000000 0.000000 0.047573 0.000000 0.000000
# 5 0.000000 0.000000 0.000000 0.000000 0.039631 0.000000
# 6 0.000000 0.000000 0.000000 0.000000 0.000000 -0.081906
#
#
# Mechanical properties :
#
#
# Convention : Reuss Voigt Hill
#
# Bulk Modulus (GPa) = 43.35819 62.02004 52.68911
# Shear Modulus (GPa) = 92.45785 28.05116 60.25450
#
# Velocity S-wave (km/s) = 6.65197 3.66399 5.36999
# Velocity P-wave (km/s) = 8.93022 6.89793 7.97904
#
# Compressibility (1/GPa) = 0.02306369
#
# Stress axis : x y z
#
# Youngs Moduli (GPa) = 81.19820 67.48096 202.27262
#
# Poissons Ratio (x) = 0.02021 0.25157
# Poissons Ratio (y) = 0.02432 0.59956
# Poissons Ratio (z) = 0.10099 0.20002
#
# Static dielectric constant tensor:
#      x y z
#    x 1.852420 0.000000 0.000000 
#    y 0.000000 1.804780 0.000000 
#    z 0.000000 0.000000 1.933840 
# 
# From -- ./inp_files/24221.got.cif
#   From: 2010.05.17/outbox.cif.g08.bks.cpg/sg72_13_cif.got.tgz:24221.got - 2010.06.03 17:03:01.
