data_PCOD9527500
_publ_section_title
;
Structure prediction by ZEFSAII (Michael W. Deem and Ramdas Pophale) SiO2 
 PCOD9527500
Probable space group: I B A M
;
_chemical_formula_sum "Si O2"
_cell_formula_units_Z 72
_cell_length_a 23.433298
_cell_length_b 5.172208
_cell_length_c 30.665494
_cell_angle_alpha 90.000000
_cell_angle_beta 90.000000
_cell_angle_gamma 90.000000
_cell_volume 3716.715873
_symmetry_space_group_name_H-M "I B A M"
_symmetry_group_IT_number 72
_symmetry_cell_setting 'orthorhombic'
loop_
_space_group_symop_operation_xyz
x,y,z
-x,-y,z
x,-y,1/2-z
-x,y,1/2-z
-x,-y,-z
x,y,-z
-x,y,1/2+z
x,-y,1/2+z
1/2+x,1/2+y,1/2+z
1/2-x,1/2-y,1/2+z
1/2+x,1/2-y,-z
1/2-x,1/2+y,-z
1/2-x,1/2-y,1/2-z
1/2+x,1/2+y,1/2-z
1/2-x,1/2+y,z
1/2+x,1/2-y,z
loop_
_atom_site_type_symbol
_atom_site_label
_atom_site_fract_x
_atom_site_fract_y
_atom_site_fract_z
Si Si1 0.563407 0.745359 0.230487
Si Si2 0.540750 0.747549 0.500000
Si Si3 0.284979 0.015406 0.302470
Si Si4 0.602670 0.118778 0.641710
Si Si5 0.934278 0.100492 0.593784
O O1 0.595149 0.500000 0.250000
O O2 0.500000 0.741109 0.250000
O O3 0.561894 0.761099 0.179131
O O4 0.589975 0.000000 0.250000
O O5 0.500000 0.500000 0.500000
O O6 0.574639 0.715518 0.454881
O O7 0.500000 0.000000 0.500000
O O8 0.235724 0.804943 0.312591
O O9 0.338895 0.935605 0.332163
O O10 0.292831 0.000000 0.250000
O O11 0.603144 0.347245 0.605835
O O12 0.578406 0.845893 0.624748
O O13 0.000000 0.000000 0.596552
#
# Coordination Sequence:
#
# PCOD9527500 Si02
#       5
#    16   8  16  16  16
#     4  10  22  34  47  71 116 158 186 221 284 342
#     4  10  20  42  58  84 120 164 198 234 290 350
#     4  10  22  41  62  82 113 158 209 258 296 339
#     4  12  23  37  60  90 115 155 205 248 293 353
#     4  11  24  37  60  89 124 156 194 241 292 371
#
# _framework density 19.371942000000001
#
# number of rings (size 3 to 8) (size 9 to 14) (size 15 to 20)
#    0.000    1.333    0.000    6.667    9.333    2.667 
#    0.000    0.000    0.000    0.000    0.000   15.556 
#    0.000    0.000    0.000    0.000    0.000    0.000 
#
# Total GULP energy -200836.942934 kJ/mol
# GULP energy per Si atom -5578.803970 kJ/mol
# Density = 1.932785 g / cm^3
# Si number density = 19.371942 Si / 1000 Ang^3
#
#
#
# Elastic Constant Matrix: (Units=GPa)
#
#
# Indices 1 2 3 4 5 6 
#
# 1 65.1861 14.2504 38.0870 0.0000 0.0000 0.0000
# 2 14.2504 166.2720 42.8292 0.0000 0.0000 0.0000
# 3 38.0870 42.8292 112.5538 0.0000 0.0000 0.0000
# 4 0.0000 0.0000 0.0000 38.7501 0.0000 0.0000
# 5 0.0000 0.0000 0.0000 0.0000 20.4928 0.0000
# 6 0.0000 0.0000 0.0000 0.0000 0.0000 19.0529
#
#
#
# Elastic Compliance Matrix: (Units=1/GPa)
#
#
# Indices 1 2 3 4 5 6 
#
# 1 0.019121 0.000031 -0.006482 0.000000 0.000000 0.000000
# 2 0.000031 0.006668 -0.002548 0.000000 0.000000 0.000000
# 3 -0.006482 -0.002548 0.012048 0.000000 0.000000 0.000000
# 4 0.000000 0.000000 0.000000 0.025806 0.000000 0.000000
# 5 0.000000 0.000000 0.000000 0.000000 0.048798 0.000000
# 6 0.000000 0.000000 0.000000 0.000000 0.000000 0.052485
#
#
# Mechanical properties :
#
#
# Convention : Reuss Voigt Hill
#
# Bulk Modulus (GPa) = 50.40634 59.37166 54.88900
# Shear Modulus (GPa) = 26.38004 32.24885 29.31444
#
# Velocity S-wave (km/s) = 3.69421 4.08452 3.89426
# Velocity P-wave (km/s) = 6.65380 7.27731 6.97253
#
# Compressibility (1/GPa) = 0.01983878
#
# Stress axis : x y z
#
# Youngs Moduli (GPa) = 52.29746 149.97339 83.00385
#
# Poissons Ratio (x) = -0.00464 0.53805
# Poissons Ratio (y) = -0.00162 0.21147
# Poissons Ratio (z) = 0.33900 0.38209
#
# Static dielectric constant tensor:
#      x y z
#    x 1.614020 0.000000 0.000000 
#    y 0.000000 1.746990 0.000000 
#    z 0.000000 0.000000 1.758060 
# 
# From -- ./inp_files/52312.got.cif
#   From: 2010.05.17/outbox.cif.g08.bks.cpg/sg72_27_cif.got.tgz:52312.got - 2010.06.03 17:03:01.
