data_PCOD9527204
_publ_section_title
;
Structure prediction by ZEFSAII (Michael W. Deem and Ramdas Pophale) SiO2 
 PCOD9527204
Probable space group: I B A M
;
_chemical_formula_sum "Si O2"
_cell_formula_units_Z 96
_cell_length_a 19.484200
_cell_length_b 31.325270
_cell_length_c 8.497072
_cell_angle_alpha 90.000000
_cell_angle_beta 90.000000
_cell_angle_gamma 90.000000
_cell_volume 5186.169420
_symmetry_space_group_name_H-M "I B A M"
_symmetry_group_IT_number 72
_symmetry_cell_setting 'orthorhombic'
loop_
_space_group_symop_operation_xyz
x,y,z
-x,-y,z
x,-y,1/2-z
-x,y,1/2-z
-x,-y,-z
x,y,-z
-x,y,1/2+z
x,-y,1/2+z
1/2+x,1/2+y,1/2+z
1/2-x,1/2-y,1/2+z
1/2+x,1/2-y,-z
1/2-x,1/2+y,-z
1/2-x,1/2-y,1/2-z
1/2+x,1/2+y,1/2-z
1/2-x,1/2+y,z
1/2+x,1/2-y,z
loop_
_atom_site_type_symbol
_atom_site_label
_atom_site_fract_x
_atom_site_fract_y
_atom_site_fract_z
Si Si1 0.675067 0.200789 0.309951
Si Si2 0.922686 0.875259 0.690471
Si Si3 0.422740 0.124493 0.188606
Si Si4 0.831415 0.547217 0.188837
Si Si5 0.173142 0.201801 0.309974
Si Si6 0.173503 0.047018 0.310211
O O1 0.676646 0.200481 0.500000
O O2 0.619632 0.166215 0.256515
O O3 0.751005 0.189817 0.249014
O O4 0.659307 0.249418 0.258600
O O5 0.923328 0.875397 0.500000
O O6 0.883004 0.832435 0.742815
O O7 0.878218 0.916183 0.743213
O O8 0.000000 0.876838 0.750000
O O9 0.500000 0.124826 0.250000
O O10 0.381899 0.082909 0.245847
O O11 0.423793 0.124700 0.000000
O O12 0.849110 0.500000 0.250000
O O13 0.752325 0.556013 0.238903
O O14 0.833821 0.547475 0.000000
O O15 0.174413 0.201300 0.500000
O O16 0.172824 0.046349 0.500000
O O17 0.154769 0.000000 0.250000
#
# Coordination Sequence:
#
# PCOD9527204 Si02
#       6
#    16  16  16  16  16  16
#     4   9  19  35  56  81 106 135 175 221 265 311
#     4  10  21  35  51  75 107 141 175 212 258 310
#     4  11  23  37  53  78 111 144 178 216 261 315
#     4  10  20  37  60  83 106 136 175 219 267 315
#     4   9  18  35  57  79 105 137 175 220 267 315
#     4   9  19  35  55  78 103 134 173 216 261 310
#
# _framework density 18.510771999999999
#
# number of rings (size 3 to 8) (size 9 to 14) (size 15 to 20)
#    0.000    2.333    0.000    2.000    0.000    6.000 
#    0.000    3.333    0.000    0.000    0.000    0.000 
#    0.000    0.000    0.000    0.000    0.000    0.000 
#
# Total GULP energy -267977.983855 kJ/mol
# GULP energy per Si atom -5582.874664 kJ/mol
# Density = 1.846864 g / cm^3
# Si number density = 18.510772 Si / 1000 Ang^3
#
#
#
# Elastic Constant Matrix: (Units=GPa)
#
#
# Indices 1 2 3 4 5 6 
#
# 1 170.6552 139.5904 28.6668 0.0001 0.0000 -0.0001
# 2 139.5904 159.1373 30.0709 0.0000 0.0001 0.0001
# 3 28.6668 30.0709 18.6047 0.0013 0.0010 0.0010
# 4 0.0001 0.0000 0.0013 23.7133 0.0003 0.0003
# 5 0.0000 0.0001 0.0010 0.0003 28.8716 0.0000
# 6 -0.0001 0.0001 0.0010 0.0003 0.0000 9.8018
#
#
#
# Elastic Compliance Matrix: (Units=1/GPa)
#
#
# Indices 1 2 3 4 5 6 
#
# 1 0.020918 -0.017649 -0.003706 0.000000 0.000000 0.000001
# 2 -0.017649 0.023937 -0.011496 0.000001 0.000000 0.000001
# 3 -0.003706 -0.011496 0.078042 -0.000004 -0.000003 -0.000008
# 4 0.000000 0.000001 -0.000004 0.042170 0.000000 -0.000001
# 5 0.000000 0.000000 -0.000003 0.000000 0.034636 0.000000
# 6 0.000001 0.000001 -0.000008 -0.000001 0.000000 0.102022
#
#
# Mechanical properties :
#
#
# Convention : Reuss Voigt Hill
#
# Bulk Modulus (GPa) = 17.48391 82.78371 50.13381
# Shear Modulus (GPa) = 12.93687 22.48194 17.70941
#
# Velocity S-wave (km/s) = 2.64651 3.48880 3.09643
# Velocity P-wave (km/s) = 4.33641 7.81332 6.31872
#
# Compressibility (1/GPa) = 0.05719545
#
# Stress axis : x y z
#
# Youngs Moduli (GPa) = 47.80503 41.77638 12.81369
#
# Poissons Ratio (x) = 0.73729 0.04749
# Poissons Ratio (y) = 0.84369 0.14730
# Poissons Ratio (z) = 0.17717 0.48026
#
# Static dielectric constant tensor:
#      x y z
#    x 1.601760 0.000000 0.000000 
#    y 0.000000 1.636110 0.000000 
#    z 0.000000 0.000000 1.639030 
# 
# From -- ./inp_files/6041.got.cif
#   From: 2010.05.17/outbox.cif.g08.bks.cpg/sg72_4_cif.got.tgz:6041.got - 2010.06.03 17:03:01.
