data_PCOD9527147
_publ_section_title
;
Structure prediction by ZEFSAII (Michael W. Deem and Ramdas Pophale) SiO2 
 PCOD9527147
Probable space group: I B A M
;
_chemical_formula_sum "Si O2"
_cell_formula_units_Z 96
_cell_length_a 9.177896
_cell_length_b 27.256262
_cell_length_c 16.264190
_cell_angle_alpha 90.000000
_cell_angle_beta 90.000000
_cell_angle_gamma 90.000000
_cell_volume 4068.570694
_symmetry_space_group_name_H-M "I B A M"
_symmetry_group_IT_number 72
_symmetry_cell_setting 'orthorhombic'
loop_
_space_group_symop_operation_xyz
x,y,z
-x,-y,z
x,-y,1/2-z
-x,y,1/2-z
-x,-y,-z
x,y,-z
-x,y,1/2+z
x,-y,1/2+z
1/2+x,1/2+y,1/2+z
1/2-x,1/2-y,1/2+z
1/2+x,1/2-y,-z
1/2-x,1/2+y,-z
1/2-x,1/2-y,1/2-z
1/2+x,1/2+y,1/2-z
1/2-x,1/2+y,z
1/2+x,1/2-y,z
loop_
_atom_site_type_symbol
_atom_site_label
_atom_site_fract_x
_atom_site_fract_y
_atom_site_fract_z
Si Si1 0.102700 0.541345 0.407763
Si Si2 0.330570 0.211571 0.648685
Si Si3 0.433170 0.449706 0.659206
Si Si4 0.153798 0.301267 0.657736
Si Si5 0.162528 0.115074 0.403207
Si Si6 0.879096 0.588607 0.674179
O O1 0.138993 0.524145 0.500000
O O2 0.241290 0.568588 0.370302
O O3 0.000000 0.500000 0.365629
O O4 0.981390 0.583666 0.405446
O O5 0.263236 0.262555 0.617518
O O6 0.352372 0.215012 0.746767
O O7 0.493824 0.202104 0.617711
O O8 0.222101 0.165777 0.632987
O O9 0.500000 0.500000 0.621489
O O10 0.500000 0.446660 0.750000
O O11 0.498766 0.402402 0.613189
O O12 0.258421 0.448284 0.668070
O O13 0.192053 0.358043 0.668747
O O14 0.189911 0.117194 0.500000
O O15 0.000000 0.586244 0.750000
#
# Coordination Sequence:
#
# PCOD9527147 Si02
#       6
#    16  16  16  16  16  16
#     4  10  21  38  62  89 120 164 213 258 314 389
#     4  10  20  38  59  95 124 162 216 263 328 388
#     4  11  25  41  62  97 134 169 222 274 330 391
#     4  10  20  36  64  92 124 159 215 269 327 381
#     4  11  23  43  65  91 136 179 215 269 339 400
#     4  12  22  40  65  94 126 166 215 272 324 387
#
# _framework density 23.595510999999998
#
# number of rings (size 3 to 8) (size 9 to 14) (size 15 to 20)
#    0.000    1.333    3.333    3.000    2.333    2.667 
#    0.000    1.667    0.000    0.000    0.000    0.000 
#    0.000    0.000    0.000    0.000    0.000    0.000 
#
# Total GULP energy -267379.764537 kJ/mol
# GULP energy per Si atom -5570.411761 kJ/mol
# Density = 2.354181 g / cm^3
# Si number density = 23.595511 Si / 1000 Ang^3
#
#
#
# Elastic Constant Matrix: (Units=GPa)
#
#
# Indices 1 2 3 4 5 6 
#
# 1 154.5447 43.9536 18.4267 0.0000 0.0000 0.0000
# 2 43.9536 101.1296 5.7178 0.0000 0.0000 0.0000
# 3 18.4267 5.7178 38.6547 -0.0001 0.0000 0.0001
# 4 0.0000 0.0000 -0.0001 0.8950 0.0000 0.0000
# 5 0.0000 0.0000 0.0000 0.0000 13.3576 0.0000
# 6 0.0000 0.0000 0.0001 0.0000 0.0000 31.9072
#
#
#
# Elastic Compliance Matrix: (Units=1/GPa)
#
#
# Indices 1 2 3 4 5 6 
#
# 1 0.007763 -0.003192 -0.003229 0.000000 0.000000 0.000000
# 2 -0.003192 0.011284 -0.000148 0.000000 0.000000 0.000000
# 3 -0.003229 -0.000148 0.027431 0.000004 0.000000 0.000000
# 4 0.000000 0.000000 0.000004 1.117274 -0.000001 -0.000001
# 5 0.000000 0.000000 0.000000 -0.000001 0.074864 0.000000
# 6 0.000000 0.000000 0.000000 -0.000001 0.000000 0.031341
#
#
# Mechanical properties :
#
#
# Convention : Reuss Voigt Hill
#
# Bulk Modulus (GPa) = 29.99199 47.83614 38.91406
# Shear Modulus (GPa) = 3.86337 24.31402 14.08869
#
# Velocity S-wave (km/s) = 1.28097 3.21355 2.44620
# Velocity P-wave (km/s) = 3.86346 5.83837 4.95040
#
# Compressibility (1/GPa) = 0.03334224
#
# Stress axis : x y z
#
# Youngs Moduli (GPa) = 128.81135 88.62261 36.45513
#
# Poissons Ratio (x) = 0.28285 0.11770
# Poissons Ratio (y) = 0.41111 0.00538
# Poissons Ratio (z) = 0.41589 0.01309
#
# Static dielectric constant tensor:
#      x y z
#    x 1.959200 0.000000 0.000000 
#    y 0.000000 2.027640 0.000000 
#    z 0.000000 0.000000 1.942550 
# 
# From -- ./inp_files/36067.got.cif
#   From: 2010.05.17/outbox.cif.g08.bks.cpg/sg72_19_cif.got.tgz:36067.got - 2010.06.03 17:03:01.
