data_PCOD9527685
_publ_section_title
;
Structure prediction by ZEFSAII (Michael W. Deem and Ramdas Pophale) SiO2 
 PCOD9527685
Probable space group: I B A M
;
_chemical_formula_sum "Si O2"
_cell_formula_units_Z 68
_cell_length_a 8.757612
_cell_length_b 19.560617
_cell_length_c 17.454691
_cell_angle_alpha 90.000000
_cell_angle_beta 90.000000
_cell_angle_gamma 90.000000
_cell_volume 2990.063522
_symmetry_space_group_name_H-M "I B A M"
_symmetry_group_IT_number 72
_symmetry_cell_setting 'orthorhombic'
loop_
_space_group_symop_operation_xyz
x,y,z
-x,-y,z
x,-y,1/2-z
-x,y,1/2-z
-x,-y,-z
x,y,-z
-x,y,1/2+z
x,-y,1/2+z
1/2+x,1/2+y,1/2+z
1/2-x,1/2-y,1/2+z
1/2+x,1/2-y,-z
1/2-x,1/2+y,-z
1/2-x,1/2-y,1/2-z
1/2+x,1/2+y,1/2-z
1/2-x,1/2+y,z
1/2+x,1/2-y,z
loop_
_atom_site_type_symbol
_atom_site_label
_atom_site_fract_x
_atom_site_fract_y
_atom_site_fract_z
Si Si1 0.659463 0.884119 0.655070
Si Si2 0.970123 0.123811 0.083130
Si Si3 0.500000 0.000000 0.750000
Si Si4 0.351855 0.324669 0.706352
Si Si5 0.100988 0.714810 0.912784
O O1 0.797862 0.900101 0.597496
O O2 0.739064 0.845536 0.726172
O O3 0.529030 0.837110 0.616903
O O4 0.593277 0.951317 0.693522
O O5 0.956310 0.207023 0.083872
O O6 0.076495 0.112303 0.156972
O O7 0.026708 0.101377 0.000000
O O8 0.500000 0.292349 0.750000
O O9 0.244312 0.288122 0.644308
O O10 0.145525 0.696481 0.000000
#
# Coordination Sequence:
#
# PCOD9527685 Si02
#       5
#    16  16   4  16  16
#     4  11  23  41  67  92 124 174 220 259 314 372
#     4  10  22  39  62  98 135 162 200 264 334 391
#     4  12  24  48  64  84 128 172 228 278 296 360
#     4  10  21  36  58  91 125 165 207 258 309 381
#     4  11  21  38  63  96 135 167 203 260 327 389
#
# _framework density 22.741993000000001
#
# number of rings (size 3 to 8) (size 9 to 14) (size 15 to 20)
#    0.000    1.412    2.353    2.824    0.000   14.118 
#    2.118    7.647    0.000    1.412    0.000    0.000 
#    0.000    0.000    0.000    0.000    0.000    0.000 
#
# Total GULP energy -189976.096415 kJ/mol
# GULP energy per Si atom -5587.532248 kJ/mol
# Density = 2.269023 g / cm^3
# Si number density = 22.741993 Si / 1000 Ang^3
#
#
#
# Elastic Constant Matrix: (Units=GPa)
#
#
# Indices 1 2 3 4 5 6 
#
# 1 105.5688 29.7394 49.3707 0.0000 0.0000 0.0000
# 2 29.7394 57.9937 16.2703 0.0000 0.0000 0.0000
# 3 49.3707 16.2703 176.4260 0.0000 0.0000 0.0000
# 4 0.0000 0.0000 0.0000 11.0346 0.0000 0.0000
# 5 0.0000 0.0000 0.0000 0.0000 23.0477 0.0000
# 6 0.0000 0.0000 0.0000 0.0000 0.0000 -8.6693
#
#
#
# Elastic Compliance Matrix: (Units=1/GPa)
#
#
# Indices 1 2 3 4 5 6 
#
# 1 0.012419 -0.005537 -0.002965 0.000000 0.000000 0.000000
# 2 -0.005537 0.020170 -0.000311 0.000000 0.000000 0.000000
# 3 -0.002965 -0.000311 0.006526 0.000000 0.000000 0.000000
# 4 0.000000 0.000000 0.000000 0.090624 0.000000 0.000000
# 5 0.000000 0.000000 0.000000 0.000000 0.043388 0.000000
# 6 0.000000 0.000000 0.000000 0.000000 0.000000 -0.115350
#
#
# Mechanical properties :
#
#
# Convention : Reuss Voigt Hill
#
# Bulk Modulus (GPa) = 46.53162 58.97213 52.75188
# Shear Modulus (GPa) = 60.55848 21.38980 40.97414
#
# Velocity S-wave (km/s) = 5.16588 3.07015 4.24924
# Velocity P-wave (km/s) = 7.48911 6.20927 6.87902
#
# Compressibility (1/GPa) = 0.02149076
#
# Stress axis : x y z
#
# Youngs Moduli (GPa) = 80.52419 49.57949 153.22467
#
# Poissons Ratio (x) = 0.27450 0.45425
# Poissons Ratio (y) = 0.44583 0.04761
# Poissons Ratio (z) = 0.23872 0.01541
#
# Static dielectric constant tensor:
#      x y z
#    x 1.885620 0.000000 0.000000 
#    y 0.000000 1.870140 0.000000 
#    z 0.000000 0.000000 1.925590 
# 
# From -- ./inp_files/27797.got.cif
#   From: 2010.05.17/outbox.cif.g08.bks.cpg/sg72_14_cif.got.tgz:27797.got - 2010.06.03 17:03:01.
