data_PCOD9527903
_publ_section_title
;
Structure prediction by ZEFSAII (Michael W. Deem and Ramdas Pophale) SiO2 
 PCOD9527903
Probable space group: I B A M
;
_chemical_formula_sum "Si O2"
_cell_formula_units_Z 88
_cell_length_a 13.653796
_cell_length_b 16.868816
_cell_length_c 20.148366
_cell_angle_alpha 90.000000
_cell_angle_beta 90.000000
_cell_angle_gamma 90.000000
_cell_volume 4640.639606
_symmetry_space_group_name_H-M "I B A M"
_symmetry_group_IT_number 72
_symmetry_cell_setting 'orthorhombic'
loop_
_space_group_symop_operation_xyz
x,y,z
-x,-y,z
x,-y,1/2-z
-x,y,1/2-z
-x,-y,-z
x,y,-z
-x,y,1/2+z
x,-y,1/2+z
1/2+x,1/2+y,1/2+z
1/2-x,1/2-y,1/2+z
1/2+x,1/2-y,-z
1/2-x,1/2+y,-z
1/2-x,1/2-y,1/2-z
1/2+x,1/2+y,1/2-z
1/2-x,1/2+y,z
1/2+x,1/2-y,z
loop_
_atom_site_type_symbol
_atom_site_label
_atom_site_fract_x
_atom_site_fract_y
_atom_site_fract_z
Si Si1 0.205838 0.823987 0.792023
Si Si2 0.146119 0.536514 0.317210
Si Si3 0.478474 0.827309 0.878484
Si Si4 0.500000 0.284455 0.750000
Si Si5 0.279523 0.755384 0.925842
Si Si6 0.178644 0.401898 0.575722
O O1 0.250000 0.750000 0.750000
O O2 0.270247 0.902961 0.791080
O O3 0.097645 0.834164 0.763411
O O4 0.215798 0.796754 0.868579
O O5 0.106219 0.500000 0.250000
O O6 0.066772 0.589794 0.354351
O O7 0.181249 0.470042 0.369109
O O8 0.493059 0.772871 0.813765
O O9 0.391314 0.784559 0.918609
O O10 0.579754 0.849536 0.913652
O O11 0.266314 0.661243 0.916186
O O12 0.244521 0.774189 0.000000
O O13 0.178649 0.432885 0.500000
#
# Coordination Sequence:
#
# PCOD9527903 Si02
#       6
#    16  16  16   8  16  16
#     4  11  21  40  62  89 120 163 213 259 304 383
#     4  11  23  37  59  88 128 157 196 254 316 377
#     4  11  22  36  63  91 123 159 211 256 311 380
#     4  12  20  36  66  90 118 158 214 268 304 356
#     4  10  21  38  60  87 123 164 208 255 306 377
#     4  11  23  39  60  91 129 164 202 258 327 384
#
# _framework density 18.962904999999999
#
# number of rings (size 3 to 8) (size 9 to 14) (size 15 to 20)
#    0.000    1.091    5.455    3.273    0.000    5.091 
#    0.000    0.455    0.000    0.000    0.000    2.545 
#    0.000    0.000    0.000    0.000    0.000    0.000 
#
# Total GULP energy -245648.596366 kJ/mol
# GULP energy per Si atom -5582.922645 kJ/mol
# Density = 1.891974 g / cm^3
# Si number density = 18.962905 Si / 1000 Ang^3
#
#
#
# Elastic Constant Matrix: (Units=GPa)
#
#
# Indices 1 2 3 4 5 6 
#
# 1 89.0963 44.2560 23.4769 0.0000 0.0000 0.0000
# 2 44.2560 90.2523 46.0865 0.0000 0.0000 0.0000
# 3 23.4769 46.0865 118.3759 0.0000 0.0000 0.0000
# 4 0.0000 0.0000 0.0000 33.1973 0.0000 0.0000
# 5 0.0000 0.0000 0.0000 0.0000 18.9329 0.0000
# 6 0.0000 0.0000 0.0000 0.0000 0.0000 0.3581
#
#
#
# Elastic Compliance Matrix: (Units=1/GPa)
#
#
# Indices 1 2 3 4 5 6 
#
# 1 0.014840 -0.007207 -0.000137 0.000000 0.000000 0.000000
# 2 -0.007207 0.017329 -0.005317 0.000000 0.000000 0.000000
# 3 -0.000137 -0.005317 0.010545 0.000000 0.000000 0.000000
# 4 0.000000 0.000000 0.000000 0.030123 0.000000 0.000000
# 5 0.000000 0.000000 0.000000 0.000000 0.052818 0.000000
# 6 0.000000 0.000000 0.000000 0.000000 0.000000 2.792609
#
#
# Mechanical properties :
#
#
# Convention : Reuss Voigt Hill
#
# Bulk Modulus (GPa) = 57.50047 58.37371 57.93709
# Shear Modulus (GPa) = 1.69527 22.75800 12.22664
#
# Velocity S-wave (km/s) = 0.94654 3.46805 2.54198
# Velocity P-wave (km/s) = 5.61988 6.84737 6.26376
#
# Compressibility (1/GPa) = 0.01739116
#
# Stress axis : x y z
#
# Youngs Moduli (GPa) = 67.38682 57.70618 94.83076
#
# Poissons Ratio (x) = 0.41587 0.01303
# Poissons Ratio (y) = 0.48563 0.50425
# Poissons Ratio (z) = 0.00926 0.30685
#
# Static dielectric constant tensor:
#      x y z
#    x 1.727580 0.000000 0.000000 
#    y 0.000000 1.674720 0.000000 
#    z 0.000000 0.000000 1.673070 
# 
# From -- ./inp_files/30547.got.cif
#   From: 2010.05.17/outbox.cif.g08.bks.cpg/sg72_16_cif.got.tgz:30547.got - 2010.06.03 17:03:01.
