data_PCOD9527808
_publ_section_title
;
Structure prediction by ZEFSAII (Michael W. Deem and Ramdas Pophale) SiO2 
 PCOD9527808
Probable space group: I B A M
;
_chemical_formula_sum "Si O2"
_cell_formula_units_Z 116
_cell_length_a 18.121069
_cell_length_b 18.900767
_cell_length_c 15.088434
_cell_angle_alpha 90.000000
_cell_angle_beta 90.000000
_cell_angle_gamma 90.000000
_cell_volume 5167.820375
_symmetry_space_group_name_H-M "I B A M"
_symmetry_group_IT_number 72
_symmetry_cell_setting 'orthorhombic'
loop_
_space_group_symop_operation_xyz
x,y,z
-x,-y,z
x,-y,1/2-z
-x,y,1/2-z
-x,-y,-z
x,y,-z
-x,y,1/2+z
x,-y,1/2+z
1/2+x,1/2+y,1/2+z
1/2-x,1/2-y,1/2+z
1/2+x,1/2-y,-z
1/2-x,1/2+y,-z
1/2-x,1/2-y,1/2-z
1/2+x,1/2+y,1/2-z
1/2-x,1/2+y,z
1/2+x,1/2-y,z
loop_
_atom_site_type_symbol
_atom_site_label
_atom_site_fract_x
_atom_site_fract_y
_atom_site_fract_z
Si Si1 0.176607 0.859527 0.599035
Si Si2 0.302599 0.791810 0.681694
Si Si3 0.556989 0.440177 0.607210
Si Si4 0.439812 0.283035 0.893324
Si Si5 0.412861 0.230730 0.604987
Si Si6 0.280171 0.485766 0.891581
Si Si7 0.000000 0.500000 0.750000
Si Si8 0.138723 0.592180 0.310108
O O1 0.149074 0.876399 0.500000
O O2 0.252249 0.815770 0.600146
O O3 0.121810 0.803186 0.642767
O O4 0.197724 0.934850 0.638507
O O5 0.250000 0.750000 0.750000
O O6 0.365024 0.739026 0.651293
O O7 0.337616 0.863665 0.722505
O O8 0.500000 0.500000 0.640480
O O9 0.555753 0.446094 0.500000
O O10 0.533454 0.361311 0.630988
O O11 0.643655 0.445467 0.630627
O O12 0.502775 0.227788 0.866151
O O13 0.430876 0.281580 0.000000
O O14 0.411398 0.241014 0.500000
O O15 0.371773 0.158800 0.625008
O O16 0.206573 0.455959 0.845009
O O17 0.269349 0.484782 0.000000
O O18 0.060958 0.549891 0.699480
#
# Coordination Sequence:
#
# PCOD9527808 Si02
#       8
#    16  16  16  16  16  16   4  16
#     4  10  21  39  62  91 124 158 206 261 315 373
#     4  12  23  39  61  93 121 166 208 261 323 376
#     4   9  17  32  58  92 127 160 199 252 322 389
#     4  10  21  37  60  90 122 160 212 267 315 382
#     4  10  21  39  64  91 122 162 212 269 320 371
#     4  10  21  38  64  94 127 168 211 266 324 386
#     4  12  28  44  62  84 126 184 218 270 332 388
#     4  12  24  43  62  91 127 172 223 267 323 394
#
# _framework density 22.4466
#
# number of rings (size 3 to 8) (size 9 to 14) (size 15 to 20)
#    0.000    1.517    1.379    4.138    0.000    3.310 
#    0.000    2.759    0.000    0.000    0.000    0.000 
#    0.000    0.000    0.000    0.000    0.000    0.552 
#
# Total GULP energy -323570.025675 kJ/mol
# GULP energy per Si atom -5578.793546 kJ/mol
# Density = 2.239551 g / cm^3
# Si number density = 22.446600 Si / 1000 Ang^3
#
#
#
# Elastic Constant Matrix: (Units=GPa)
#
#
# Indices 1 2 3 4 5 6 
#
# 1 147.4075 62.3169 24.2538 0.0000 0.0000 0.0000
# 2 62.3169 129.1699 19.2384 0.0000 0.0000 0.0000
# 3 24.2538 19.2384 45.0103 0.0000 0.0000 0.0000
# 4 0.0000 0.0000 0.0000 17.6131 0.0000 0.0000
# 5 0.0000 0.0000 0.0000 0.0000 29.7076 0.0000
# 6 0.0000 0.0000 0.0000 0.0000 0.0000 53.4185
#
#
#
# Elastic Compliance Matrix: (Units=1/GPa)
#
#
# Indices 1 2 3 4 5 6 
#
# 1 0.008927 -0.003834 -0.003171 0.000000 0.000000 0.000000
# 2 -0.003834 0.009915 -0.002172 0.000000 0.000000 0.000000
# 3 -0.003171 -0.002172 0.024854 0.000000 0.000000 0.000000
# 4 0.000000 0.000000 0.000000 0.056776 0.000000 0.000000
# 5 0.000000 0.000000 0.000000 0.000000 0.033661 0.000000
# 6 0.000000 0.000000 0.000000 0.000000 0.000000 0.018720
#
#
# Mechanical properties :
#
#
# Convention : Reuss Voigt Hill
#
# Bulk Modulus (GPa) = 39.46139 59.24510 49.35325
# Shear Modulus (GPa) = 27.83112 34.53309 31.18211
#
# Velocity S-wave (km/s) = 3.52502 3.92657 3.73120
# Velocity P-wave (km/s) = 5.84687 6.85626 6.37159
#
# Compressibility (1/GPa) = 0.02534122
#
# Stress axis : x y z
#
# Youngs Moduli (GPa) = 112.02424 100.85721 40.23460
#
# Poissons Ratio (x) = 0.38671 0.12759
# Poissons Ratio (y) = 0.42953 0.08738
# Poissons Ratio (z) = 0.35526 0.21904
#
# Static dielectric constant tensor:
#      x y z
#    x 1.853270 0.000000 0.000000 
#    y 0.000000 1.844930 0.000000 
#    z 0.000000 0.000000 2.140140 
# 
# From -- ./inp_files/31732.got.cif
#   From: 2010.05.17/outbox.cif.g08.bks.cpg/sg72_16_cif.got.tgz:31732.got - 2010.06.03 17:03:01.
