data_PCOD9527431
_publ_section_title
;
Structure prediction by ZEFSAII (Michael W. Deem and Ramdas Pophale) SiO2 
 PCOD9527431
Probable space group: I B A M
;
_chemical_formula_sum "Si O2"
_cell_formula_units_Z 92
_cell_length_a 7.835072
_cell_length_b 25.738637
_cell_length_c 19.457332
_cell_angle_alpha 90.000000
_cell_angle_beta 90.000000
_cell_angle_gamma 90.000000
_cell_volume 3923.844842
_symmetry_space_group_name_H-M "I B A M"
_symmetry_group_IT_number 72
_symmetry_cell_setting 'orthorhombic'
loop_
_space_group_symop_operation_xyz
x,y,z
-x,-y,z
x,-y,1/2-z
-x,y,1/2-z
-x,-y,-z
x,y,-z
-x,y,1/2+z
x,-y,1/2+z
1/2+x,1/2+y,1/2+z
1/2-x,1/2-y,1/2+z
1/2+x,1/2-y,-z
1/2-x,1/2+y,-z
1/2-x,1/2-y,1/2-z
1/2+x,1/2+y,1/2-z
1/2-x,1/2+y,z
1/2+x,1/2-y,z
loop_
_atom_site_type_symbol
_atom_site_label
_atom_site_fract_x
_atom_site_fract_y
_atom_site_fract_z
Si Si1 0.566622 0.089842 0.347408
Si Si2 0.871750 0.563466 0.500000
Si Si3 0.549588 0.716273 0.922371
Si Si4 0.288547 0.457866 0.000000
Si Si5 0.500000 0.662638 0.250000
Si Si6 0.500000 0.000000 0.750000
Si Si7 0.773931 0.302467 0.161502
Si Si8 0.822258 0.112190 0.876347
O O1 0.641212 0.087589 0.424517
O O2 0.633496 0.144097 0.320708
O O3 0.362392 0.094739 0.350542
O O4 0.602354 0.039086 0.301001
O O5 0.725438 0.519349 0.500000
O O6 0.079531 0.551840 0.500000
O O7 0.363473 0.695186 0.901417
O O8 0.598180 0.759501 0.866592
O O9 0.680171 0.668057 0.915010
O O10 0.550282 0.736193 0.000000
O O11 0.367759 0.430908 0.067041
O O12 0.348121 0.700688 0.227363
O O13 0.443964 0.625318 0.312434
#
# Coordination Sequence:
#
# PCOD9527431 Si02
#       8
#    16   8  16   8   8   4  16  16
#     4  11  23  41  70 104 133 179 230 302 339 409
#     4   9  20  34  64  99 126 159 234 291 350 387
#     4  11  23  41  67 104 143 186 223 280 347 426
#     4   9  16  36  62  97 128 171 220 298 340 397
#     4  10  24  42  61  95 134 188 223 279 320 414
#     4  12  24  42  70  98 136 178 234 282 352 396
#     4  11  25  41  67 101 140 183 234 276 345 414
#     4  10  20  39  68  98 137 177 225 276 345 402
#
# _framework density 23.446390999999998
#
# number of rings (size 3 to 8) (size 9 to 14) (size 15 to 20)
#    0.000    1.565    0.870    4.696    2.435    2.783 
#    0.000    4.348    0.000   46.957    0.000    0.000 
#    0.000    0.000    0.000    0.000    0.000    0.000 
#
# Total GULP energy -256605.298505 kJ/mol
# GULP energy per Si atom -5578.376054 kJ/mol
# Density = 2.339303 g / cm^3
# Si number density = 23.446391 Si / 1000 Ang^3
#
#
#
# Elastic Constant Matrix: (Units=GPa)
#
#
# Indices 1 2 3 4 5 6 
#
# 1 51.8960 36.4714 36.7154 0.0000 0.0000 0.0000
# 2 36.4714 93.0401 32.6189 0.0000 0.0000 0.0000
# 3 36.7154 32.6189 141.1724 0.0002 0.0001 0.0000
# 4 0.0000 0.0000 0.0002 15.0195 0.0000 0.0000
# 5 0.0000 0.0000 0.0001 0.0000 30.5823 0.0000
# 6 0.0000 0.0000 0.0000 0.0000 0.0000 39.1739
#
#
#
# Elastic Compliance Matrix: (Units=1/GPa)
#
#
# Indices 1 2 3 4 5 6 
#
# 1 0.030133 -0.009864 -0.005558 0.000000 0.000000 0.000000
# 2 -0.009864 0.014924 -0.000883 0.000000 0.000000 0.000000
# 3 -0.005558 -0.000883 0.008733 0.000000 0.000000 0.000000
# 4 0.000000 0.000000 0.000000 0.066580 0.000000 0.000000
# 5 0.000000 0.000000 0.000000 0.000000 0.032699 0.000000
# 6 0.000000 0.000000 0.000000 0.000000 0.000000 0.025527
#
#
# Mechanical properties :
#
#
# Convention : Reuss Voigt Hill
#
# Bulk Modulus (GPa) = 47.21116 55.30221 51.25669
# Shear Modulus (GPa) = 22.90782 28.97531 25.94157
#
# Velocity S-wave (km/s) = 3.12914 3.51922 3.32990
# Velocity P-wave (km/s) = 5.76497 6.33649 6.05747
#
# Compressibility (1/GPa) = 0.02118143
#
# Stress axis : x y z
#
# Youngs Moduli (GPa) = 33.18584 67.00552 114.50773
#
# Poissons Ratio (x) = 0.66092 0.63642
# Poissons Ratio (y) = 0.32733 0.10112
# Poissons Ratio (z) = 0.18444 0.05917
#
# Static dielectric constant tensor:
#      x y z
#    x 1.921630 0.000000 0.000000 
#    y 0.000000 1.908400 0.000000 
#    z 0.000000 0.000000 2.052190 
# 
# From -- ./inp_files/36122.got.cif
#   From: 2010.05.17/outbox.cif.g08.bks.cpg/sg72_19_cif.got.tgz:36122.got - 2010.06.03 17:03:01.
