data_PCOD9527966
_publ_section_title
;
Structure prediction by ZEFSAII (Michael W. Deem and Ramdas Pophale) SiO2 
 PCOD9527966
Probable space group: I B A M
;
_chemical_formula_sum "Si O2"
_cell_formula_units_Z 72
_cell_length_a 12.267153
_cell_length_b 10.600620
_cell_length_c 21.990271
_cell_angle_alpha 90.000000
_cell_angle_beta 90.000000
_cell_angle_gamma 90.000000
_cell_volume 2859.602250
_symmetry_space_group_name_H-M "I B A M"
_symmetry_group_IT_number 72
_symmetry_cell_setting 'orthorhombic'
loop_
_space_group_symop_operation_xyz
x,y,z
-x,-y,z
x,-y,1/2-z
-x,y,1/2-z
-x,-y,-z
x,y,-z
-x,y,1/2+z
x,-y,1/2+z
1/2+x,1/2+y,1/2+z
1/2-x,1/2-y,1/2+z
1/2+x,1/2-y,-z
1/2-x,1/2+y,-z
1/2-x,1/2-y,1/2-z
1/2+x,1/2+y,1/2-z
1/2-x,1/2+y,z
1/2+x,1/2-y,z
loop_
_atom_site_type_symbol
_atom_site_label
_atom_site_fract_x
_atom_site_fract_y
_atom_site_fract_z
Si Si1 0.500000 0.213299 0.750000
Si Si2 0.093418 0.344346 0.632349
Si Si3 0.361197 0.053059 0.000000
Si Si4 0.187568 0.900485 0.700037
Si Si5 0.242030 0.312552 0.000000
Si Si6 0.406834 0.423836 0.904183
O O1 0.476559 0.127936 0.808345
O O2 0.604260 0.303570 0.767133
O O3 0.095519 0.414111 0.567751
O O4 0.216160 0.338182 0.660265
O O5 0.045552 0.207179 0.617701
O O6 0.364613 0.898749 0.000000
O O7 0.258776 0.161053 0.000000
O O8 0.232227 0.000000 0.750000
O O9 0.126648 0.989529 0.651774
O O10 0.305659 0.375953 0.056605
O O11 0.500000 0.500000 0.937918
#
# Coordination Sequence:
#
# PCOD9527966 Si02
#       6
#     8  16   8  16   8  16
#     4  12  23  40  61  98 130 178 223 284 329 414
#     4  11  24  40  66  99 135 173 229 280 345 409
#     4  10  22  42  66 106 135 183 227 292 346 419
#     4  12  22  39  66  93 134 174 223 279 354 398
#     4  10  21  38  66 100 140 177 237 285 350 410
#     4  11  20  38  65  99 131 176 230 289 334 406
#
# _framework density 25.178328
#
# number of rings (size 3 to 8) (size 9 to 14) (size 15 to 20)
#    0.000    0.889    6.667    1.333    0.000    0.000 
#    0.000    1.667    0.000    2.667    0.000   15.556 
#    0.000    0.000    0.000    0.000    0.000    0.000 
#
# Total GULP energy -200619.477229 kJ/mol
# GULP energy per Si atom -5572.763256 kJ/mol
# Density = 2.512102 g / cm^3
# Si number density = 25.178328 Si / 1000 Ang^3
#
#
#
# Elastic Constant Matrix: (Units=GPa)
#
#
# Indices 1 2 3 4 5 6 
#
# 1 49.3639 16.5867 23.2283 0.0000 0.0000 0.0000
# 2 16.5867 104.2721 19.5919 0.0000 0.0000 0.0000
# 3 23.2283 19.5919 198.1785 0.0000 0.0000 0.0000
# 4 0.0000 0.0000 0.0000 5.2204 0.0000 0.0000
# 5 0.0000 0.0000 0.0000 0.0000 13.3699 0.0000
# 6 0.0000 0.0000 0.0000 0.0000 0.0000 27.3363
#
#
#
# Elastic Compliance Matrix: (Units=1/GPa)
#
#
# Indices 1 2 3 4 5 6 
#
# 1 0.022399 -0.003128 -0.002316 0.000000 0.000000 0.000000
# 2 -0.003128 0.010209 -0.000643 0.000000 0.000000 0.000000
# 3 -0.002316 -0.000643 0.005381 0.000000 0.000000 0.000000
# 4 0.000000 0.000000 0.000000 0.191557 0.000000 0.000000
# 5 0.000000 0.000000 0.000000 0.000000 0.074795 0.000000
# 6 0.000000 0.000000 0.000000 0.000000 0.000000 0.036581
#
#
# Mechanical properties :
#
#
# Convention : Reuss Voigt Hill
#
# Bulk Modulus (GPa) = 38.73708 52.29205 45.51456
# Shear Modulus (GPa) = 13.82364 28.67917 21.25140
#
# Velocity S-wave (km/s) = 2.34568 3.37863 2.90838
# Velocity P-wave (km/s) = 4.77020 6.00283 5.42166
#
# Compressibility (1/GPa) = 0.02581506
#
# Stress axis : x y z
#
# Youngs Moduli (GPa) = 44.64574 97.95684 185.84075
#
# Poissons Ratio (x) = 0.30639 0.43043
# Poissons Ratio (y) = 0.13964 0.11942
# Poissons Ratio (z) = 0.10340 0.06295
#
# Static dielectric constant tensor:
#      x y z
#    x 2.123400 0.000000 0.000000 
#    y 0.000000 2.056740 0.000000 
#    z 0.000000 0.000000 2.046180 
# 
# From -- ./inp_files/44031.got.cif
#   From: 2010.05.17/outbox.cif.g08.bks.cpg/sg72_23_cif.got.tgz:44031.got - 2010.06.03 17:03:01.
