data_PCOD9527637
_publ_section_title
;
Structure prediction by ZEFSAII (Michael W. Deem and Ramdas Pophale) SiO2 
 PCOD9527637
Probable space group: I B A M
;
_chemical_formula_sum "Si O2"
_cell_formula_units_Z 48
_cell_length_a 9.217173
_cell_length_b 19.505719
_cell_length_c 15.408509
_cell_angle_alpha 90.000000
_cell_angle_beta 90.000000
_cell_angle_gamma 90.000000
_cell_volume 2770.258645
_symmetry_space_group_name_H-M "I B A M"
_symmetry_group_IT_number 72
_symmetry_cell_setting 'orthorhombic'
loop_
_space_group_symop_operation_xyz
x,y,z
-x,-y,z
x,-y,1/2-z
-x,y,1/2-z
-x,-y,-z
x,y,-z
-x,y,1/2+z
x,-y,1/2+z
1/2+x,1/2+y,1/2+z
1/2-x,1/2-y,1/2+z
1/2+x,1/2-y,-z
1/2-x,1/2+y,-z
1/2-x,1/2-y,1/2-z
1/2+x,1/2+y,1/2-z
1/2-x,1/2+y,z
1/2+x,1/2-y,z
loop_
_atom_site_type_symbol
_atom_site_label
_atom_site_fract_x
_atom_site_fract_y
_atom_site_fract_z
Si Si1 0.925030 0.426797 0.500000
Si Si2 0.435350 0.174759 0.341638
Si Si3 0.880522 0.196049 0.099545
Si Si4 0.922737 0.072217 0.000000
O O1 0.963485 0.381459 0.584067
O O2 0.750999 0.436850 0.500000
O O3 0.000000 0.500000 0.500000
O O4 0.500000 0.152372 0.250000
O O5 0.262437 0.187623 0.342843
O O6 0.513735 0.245856 0.366738
O O7 0.955055 0.122089 0.082223
O O8 0.831756 0.214726 0.000000
O O9 0.000000 0.000000 0.000000
#
# Coordination Sequence:
#
# PCOD9527637 Si02
#       4
#     8  16  16   8
#     4  10  21  36  52  78 110 146 181 222 278 326
#     4  11  20  35  56  82 109 142 184 232 273 327
#     4   9  18  34  55  79 113 139 183 224 277 322
#     4   8  17  32  54  78 104 142 179 218 264 332
#
# _framework density 17.326902
#
# number of rings (size 3 to 8) (size 9 to 14) (size 15 to 20)
#    1.000    1.333    3.333    1.000    0.000    3.333 
#    0.000    0.000    0.000    5.000    0.000    0.000 
#    0.000    0.000    0.000    0.000    0.000    0.000 
#
# Total GULP energy -133618.450358 kJ/mol
# GULP energy per Si atom -5567.435432 kJ/mol
# Density = 1.728746 g / cm^3
# Si number density = 17.326902 Si / 1000 Ang^3
#
#
#
# Elastic Constant Matrix: (Units=GPa)
#
#
# Indices 1 2 3 4 5 6 
#
# 1 51.0846 66.5398 36.1844 0.0000 0.0000 0.0000
# 2 66.5398 176.6942 57.9490 0.0000 0.0000 0.0000
# 3 36.1844 57.9490 98.9779 0.0000 0.0000 0.0000
# 4 0.0000 0.0000 0.0000 2.6683 0.0000 0.0000
# 5 0.0000 0.0000 0.0000 0.0000 15.4696 0.0000
# 6 0.0000 0.0000 0.0000 0.0000 0.0000 41.4807
#
#
#
# Elastic Compliance Matrix: (Units=1/GPa)
#
#
# Indices 1 2 3 4 5 6 
#
# 1 0.042648 -0.013549 -0.007659 0.000000 0.000000 0.000000
# 2 -0.013549 0.011309 -0.001668 0.000000 0.000000 0.000000
# 3 -0.007659 -0.001668 0.013880 0.000000 0.000000 0.000000
# 4 0.000000 0.000000 0.000000 0.374772 0.000000 0.000000
# 5 0.000000 0.000000 0.000000 0.000000 0.064643 0.000000
# 6 0.000000 0.000000 0.000000 0.000000 0.000000 0.024108
#
#
# Mechanical properties :
#
#
# Convention : Reuss Voigt Hill
#
# Bulk Modulus (GPa) = 45.27835 72.01145 58.64490
# Shear Modulus (GPa) = 8.55473 22.99594 15.77534
#
# Velocity S-wave (km/s) = 2.22440 3.64700 3.02065
# Velocity P-wave (km/s) = 5.72589 7.70616 6.78862
#
# Compressibility (1/GPa) = 0.02208561
#
# Stress axis : x y z
#
# Youngs Moduli (GPa) = 23.44776 88.42810 72.04781
#
# Poissons Ratio (x) = 1.19808 0.55181
# Poissons Ratio (y) = 0.31768 0.12016
# Poissons Ratio (z) = 0.17959 0.14748
#
# Static dielectric constant tensor:
#      x y z
#    x 1.583060 0.000000 0.000000 
#    y 0.000000 1.589400 0.000000 
#    z 0.000000 0.000000 1.616990 
# 
# From -- ./inp_files/18130.got.cif
#   From: 2010.05.17/outbox.cif.g08.bks.cpg/sg72_10_cif.got.tgz:18130.got - 2010.06.03 17:03:01.
