data_PCOD9527408
_publ_section_title
;
Structure prediction by ZEFSAII (Michael W. Deem and Ramdas Pophale) SiO2 
 PCOD9527408
Probable space group: I B A M
;
_chemical_formula_sum "Si O2"
_cell_formula_units_Z 88
_cell_length_a 27.007831
_cell_length_b 11.458538
_cell_length_c 15.477665
_cell_angle_alpha 90.000000
_cell_angle_beta 90.000000
_cell_angle_gamma 90.000000
_cell_volume 4789.876978
_symmetry_space_group_name_H-M "I B A M"
_symmetry_group_IT_number 72
_symmetry_cell_setting 'orthorhombic'
loop_
_space_group_symop_operation_xyz
x,y,z
-x,-y,z
x,-y,1/2-z
-x,y,1/2-z
-x,-y,-z
x,y,-z
-x,y,1/2+z
x,-y,1/2+z
1/2+x,1/2+y,1/2+z
1/2-x,1/2-y,1/2+z
1/2+x,1/2-y,-z
1/2-x,1/2+y,-z
1/2-x,1/2-y,1/2-z
1/2+x,1/2+y,1/2-z
1/2-x,1/2+y,z
1/2+x,1/2-y,z
loop_
_atom_site_type_symbol
_atom_site_label
_atom_site_fract_x
_atom_site_fract_y
_atom_site_fract_z
Si Si1 0.658166 0.390438 0.000000
Si Si2 0.597697 0.779971 0.838258
Si Si3 0.329428 0.003880 0.150803
Si Si4 0.227224 0.369879 0.500000
Si Si5 0.386931 0.767784 0.857915
Si Si6 0.648706 0.334730 0.500000
Si Si7 0.496156 0.136212 0.602609
O O1 0.714794 0.348439 0.000000
O O2 0.629893 0.337889 0.917496
O O3 0.659750 0.529488 0.000000
O O4 0.613096 0.738613 0.743474
O O5 0.617937 0.700351 0.914956
O O6 0.539141 0.796427 0.847068
O O7 0.623906 0.906705 0.850498
O O8 0.349774 0.876680 0.126620
O O9 0.311203 0.000000 0.250000
O O10 0.290418 0.056217 0.083598
O O11 0.196813 0.248861 0.500000
O O12 0.441811 0.813625 0.880601
O O13 0.506980 0.143866 0.500000
O O14 0.500000 0.000000 0.627197
#
# Coordination Sequence:
#
# PCOD9527408 Si02
#       7
#     8  16  16   8  16   8  16
#     4  12  27  43  60  88 121 166 212 262 303 364
#     4  10  20  39  63  91 128 166 195 250 311 376
#     4   9  19  37  63  95 124 151 197 256 317 374
#     4  10  23  42  66  85 117 166 203 262 324 365
#     4  11  22  37  62  97 130 154 205 259 309 363
#     4  10  24  45  60  84 121 167 213 245 313 373
#     4  11  20  32  63 101 131 165 200 249 315 376
#
# _framework density 18.372078999999999
#
# number of rings (size 3 to 8) (size 9 to 14) (size 15 to 20)
#    0.000    1.636    3.636    1.091    2.545    1.455 
#    3.273    4.545    0.000    2.182    0.000    0.000 
#    0.000    0.000    0.000    0.000    0.000    0.000 
#
# Total GULP energy -245817.466039 kJ/mol
# GULP energy per Si atom -5586.760592 kJ/mol
# Density = 1.833026 g / cm^3
# Si number density = 18.372079 Si / 1000 Ang^3
#
#
#
# Elastic Constant Matrix: (Units=GPa)
#
#
# Indices 1 2 3 4 5 6 
#
# 1 107.6105 39.1155 42.9734 0.0000 0.0000 0.0000
# 2 39.1155 96.1034 56.0444 0.0000 0.0000 0.0000
# 3 42.9734 56.0444 107.1317 0.0000 0.0000 0.0000
# 4 0.0000 0.0000 0.0000 4.1056 0.0000 0.0000
# 5 0.0000 0.0000 0.0000 0.0000 5.9999 0.0000
# 6 0.0000 0.0000 0.0000 0.0000 0.0000 13.9254
#
#
#
# Elastic Compliance Matrix: (Units=1/GPa)
#
#
# Indices 1 2 3 4 5 6 
#
# 1 0.011597 -0.002889 -0.003141 0.000000 0.000000 0.000000
# 2 -0.002889 0.015693 -0.007051 0.000000 0.000000 0.000000
# 3 -0.003141 -0.007051 0.014283 0.000000 0.000000 0.000000
# 4 0.000000 0.000000 0.000000 0.243571 0.000000 0.000000
# 5 0.000000 0.000000 0.000000 0.000000 0.166669 0.000000
# 6 0.000000 0.000000 0.000000 0.000000 0.000000 0.071811
#
#
# Mechanical properties :
#
#
# Convention : Reuss Voigt Hill
#
# Bulk Modulus (GPa) = 64.88327 65.23470 65.05898
# Shear Modulus (GPa) = 9.01029 16.32033 12.66531
#
# Velocity S-wave (km/s) = 2.21698 2.98371 2.62845
# Velocity P-wave (km/s) = 6.47659 6.88873 6.68584
#
# Compressibility (1/GPa) = 0.01541229
#
# Stress axis : x y z
#
# Youngs Moduli (GPa) = 86.22932 63.72275 70.01468
#
# Poissons Ratio (x) = 0.18407 0.21990
# Poissons Ratio (y) = 0.24908 0.49367
# Poissons Ratio (z) = 0.27083 0.44930
#
# Static dielectric constant tensor:
#      x y z
#    x 1.605340 0.000000 0.000000 
#    y 0.000000 1.602390 0.000000 
#    z 0.000000 0.000000 1.643600 
# 
# From -- ./inp_files/20358.got.cif
#   From: 2010.05.17/outbox.cif.g08.bks.cpg/sg72_11_cif.got.tgz:20358.got - 2010.06.03 17:03:01.
