data_PCOD9527272
_publ_section_title
;
Structure prediction by ZEFSAII (Michael W. Deem and Ramdas Pophale) SiO2 
 PCOD9527272
Probable space group: I B A M
;
_chemical_formula_sum "Si O2"
_cell_formula_units_Z 88
_cell_length_a 27.441949
_cell_length_b 5.147295
_cell_length_c 31.712475
_cell_angle_alpha 90.000000
_cell_angle_beta 90.000000
_cell_angle_gamma 90.000000
_cell_volume 4479.444394
_symmetry_space_group_name_H-M "I B A M"
_symmetry_group_IT_number 72
_symmetry_cell_setting 'orthorhombic'
loop_
_space_group_symop_operation_xyz
x,y,z
-x,-y,z
x,-y,1/2-z
-x,y,1/2-z
-x,-y,-z
x,y,-z
-x,y,1/2+z
x,-y,1/2+z
1/2+x,1/2+y,1/2+z
1/2-x,1/2-y,1/2+z
1/2+x,1/2-y,-z
1/2-x,1/2+y,-z
1/2-x,1/2-y,1/2-z
1/2+x,1/2+y,1/2-z
1/2-x,1/2+y,z
1/2+x,1/2-y,z
loop_
_atom_site_type_symbol
_atom_site_label
_atom_site_fract_x
_atom_site_fract_y
_atom_site_fract_z
Si Si1 0.409117 0.000000 0.750000
Si Si2 0.281109 0.485451 0.162205
Si Si3 0.054972 0.881034 0.451730
Si Si4 0.838952 0.000000 0.250000
Si Si5 0.069513 0.360516 0.660522
Si Si6 0.119541 0.883839 0.373048
Si Si7 0.000000 0.500000 0.405281
O O1 0.373287 0.752737 0.753300
O O2 0.440049 0.953017 0.707791
O O3 0.262430 0.192095 0.157434
O O4 0.304702 0.502304 0.208769
O O5 0.323056 0.575111 0.129783
O O6 0.069862 0.905596 0.500000
O O7 0.095176 0.962457 0.417764
O O8 0.042336 0.589979 0.436440
O O9 0.000000 0.000000 0.447705
O O10 0.101321 0.596875 0.640268
O O11 0.023943 0.310305 0.629408
O O12 0.098524 0.092655 0.660132
#
# Coordination Sequence:
#
# PCOD9527272 Si02
#       7
#     8  16  16   8  16  16   8
#     4  12  20  36  56  80 119 162 201 244 287 349
#     4  12  23  38  59  84 115 157 201 248 299 348
#     4  10  20  37  64  94 120 150 190 245 303 360
#     4  12  22  37  56  85 113 146 206 260 300 331
#     4  11  21  36  57  80 120 164 198 238 292 340
#     4  11  22  40  58  86 121 156 191 246 300 356
#     4  10  21  35  58  86 126 156 200 243 287 362
#
# _framework density 19.645292999999999
#
# number of rings (size 3 to 8) (size 9 to 14) (size 15 to 20)
#    0.000    0.909    5.455    3.000    0.000    0.364 
#    0.000    0.000    0.000    4.364    0.000    0.000 
#    0.000    0.000    0.000    0.000    0.000    0.000 
#
# Total GULP energy -245300.374783 kJ/mol
# GULP energy per Si atom -5575.008518 kJ/mol
# Density = 1.960058 g / cm^3
# Si number density = 19.645293 Si / 1000 Ang^3
#
#
#
# Elastic Constant Matrix: (Units=GPa)
#
#
# Indices 1 2 3 4 5 6 
#
# 1 53.8540 -1.9074 34.1089 0.0000 0.0000 0.0000
# 2 -1.9074 78.7587 -5.3803 0.0000 0.0000 0.0000
# 3 34.1089 -5.3803 137.0045 0.0000 0.0000 0.0000
# 4 0.0000 0.0000 0.0000 18.1461 0.0000 0.0000
# 5 0.0000 0.0000 0.0000 0.0000 27.6957 0.0000
# 6 0.0000 0.0000 0.0000 0.0000 0.0000 28.1172
#
#
#
# Elastic Compliance Matrix: (Units=1/GPa)
#
#
# Indices 1 2 3 4 5 6 
#
# 1 0.022047 0.000159 -0.005483 0.000000 0.000000 0.000000
# 2 0.000159 0.012732 0.000460 0.000000 0.000000 0.000000
# 3 -0.005483 0.000460 0.008682 0.000000 0.000000 0.000000
# 4 0.000000 0.000000 0.000000 0.055108 0.000000 0.000000
# 5 0.000000 0.000000 0.000000 0.000000 0.036107 0.000000
# 6 0.000000 0.000000 0.000000 0.000000 0.000000 0.035565
#
#
# Mechanical properties :
#
#
# Convention : Reuss Voigt Hill
#
# Bulk Modulus (GPa) = 29.64236 35.91773 32.78004
# Shear Modulus (GPa) = 26.14894 30.97820 28.56357
#
# Velocity S-wave (km/s) = 3.65232 3.97530 3.81723
# Velocity P-wave (km/s) = 5.73650 6.27642 6.01253
#
# Compressibility (1/GPa) = 0.03373551
#
# Stress axis : x y z
#
# Youngs Moduli (GPa) = 45.35808 78.54030 115.18009
#
# Poissons Ratio (x) = -0.01252 0.63148
# Poissons Ratio (y) = -0.00723 -0.05302
# Poissons Ratio (z) = 0.24868 -0.03615
#
# Static dielectric constant tensor:
#      x y z
#    x 1.737120 0.000000 0.000000 
#    y 0.000000 1.805460 0.000000 
#    z 0.000000 0.000000 1.680320 
# 
# From -- ./inp_files/52561.got.cif
#   From: 2010.05.17/outbox.cif.g08.bks.cpg/sg72_27_cif.got.tgz:52561.got - 2010.06.03 17:03:01.
