data_PCOD9527218
_publ_section_title
;
Structure prediction by ZEFSAII (Michael W. Deem and Ramdas Pophale) SiO2 
 PCOD9527218
Probable space group: I B A M
;
_chemical_formula_sum "Si O2"
_cell_formula_units_Z 68
_cell_length_a 12.691358
_cell_length_b 10.061839
_cell_length_c 20.626726
_cell_angle_alpha 90.000000
_cell_angle_beta 90.000000
_cell_angle_gamma 90.000000
_cell_volume 2633.999926
_symmetry_space_group_name_H-M "I B A M"
_symmetry_group_IT_number 72
_symmetry_cell_setting 'orthorhombic'
loop_
_space_group_symop_operation_xyz
x,y,z
-x,-y,z
x,-y,1/2-z
-x,y,1/2-z
-x,-y,-z
x,y,-z
-x,y,1/2+z
x,-y,1/2+z
1/2+x,1/2+y,1/2+z
1/2-x,1/2-y,1/2+z
1/2+x,1/2-y,-z
1/2-x,1/2+y,-z
1/2-x,1/2-y,1/2-z
1/2+x,1/2+y,1/2-z
1/2-x,1/2+y,z
1/2+x,1/2-y,z
loop_
_atom_site_type_symbol
_atom_site_label
_atom_site_fract_x
_atom_site_fract_y
_atom_site_fract_z
Si Si1 0.310937 0.137289 0.686002
Si Si2 0.500000 0.500000 0.500000
Si Si3 0.908472 0.417971 0.107178
Si Si4 0.908372 0.808178 0.702191
Si Si5 0.319440 0.340890 0.567697
O O1 0.383086 0.016781 0.666100
O O2 0.188168 0.094107 0.686643
O O3 0.349433 0.200046 0.752417
O O4 0.323337 0.248823 0.630383
O O5 0.414891 0.444037 0.555743
O O6 0.938622 0.273810 0.137161
O O7 0.796985 0.404772 0.071505
O O8 0.000000 0.500000 0.071767
O O9 0.000000 0.855334 0.750000
O O10 0.322016 0.258123 0.500000
#
# Coordination Sequence:
#
# PCOD9527218 Si02
#       5
#    16   4  16  16  16
#     4  10  21  35  62  95 122 165 217 246 318 394
#     4   8  20  48  62  76 132 172 214 272 314 356
#     4  11  21  37  64  97 129 162 202 271 329 379
#     4  10  20  37  60  93 131 163 202 259 322 380
#     4   9  22  43  60  88 122 171 217 262 314 375
#
# _framework density 25.816248000000002
#
# number of rings (size 3 to 8) (size 9 to 14) (size 15 to 20)
#    0.706    1.412    2.353    0.706    0.000    3.294 
#    0.000    0.000    0.000   12.706    0.000    0.000 
#    0.000    0.000    0.000    0.000    0.000    0.000 
#
# Total GULP energy -189279.172461 kJ/mol
# GULP energy per Si atom -5567.034484 kJ/mol
# Density = 2.575749 g / cm^3
# Si number density = 25.816248 Si / 1000 Ang^3
#
#
#
# Elastic Constant Matrix: (Units=GPa)
#
#
# Indices 1 2 3 4 5 6 
#
# 1 223.2923 55.3518 39.4192 0.0000 0.0000 0.0000
# 2 55.3518 63.3164 22.5951 0.0000 0.0000 0.0000
# 3 39.4192 22.5951 102.3338 0.0000 0.0000 0.0000
# 4 0.0000 0.0000 0.0000 15.8603 0.0000 0.0000
# 5 0.0000 0.0000 0.0000 0.0000 30.1275 0.0000
# 6 0.0000 0.0000 0.0000 0.0000 0.0000 34.0400
#
#
#
# Elastic Compliance Matrix: (Units=1/GPa)
#
#
# Indices 1 2 3 4 5 6 
#
# 1 0.005855 -0.004682 -0.001221 0.000000 0.000000 0.000000
# 2 -0.004682 0.020889 -0.002809 0.000000 0.000000 0.000000
# 3 -0.001221 -0.002809 0.010863 0.000000 0.000000 0.000000
# 4 0.000000 0.000000 0.000000 0.063050 0.000000 0.000000
# 5 0.000000 0.000000 0.000000 0.000000 0.033192 0.000000
# 6 0.000000 0.000000 0.000000 0.000000 0.000000 0.029377
#
#
# Mechanical properties :
#
#
# Convention : Reuss Voigt Hill
#
# Bulk Modulus (GPa) = 49.54963 69.29720 59.42341
# Shear Modulus (GPa) = 26.68389 34.11065 30.39727
#
# Velocity S-wave (km/s) = 3.21847 3.63889 3.43512
# Velocity P-wave (km/s) = 5.74858 6.67504 6.22906
#
# Compressibility (1/GPa) = 0.02018179
#
# Stress axis : x y z
#
# Youngs Moduli (GPa) = 170.80047 47.87114 92.05918
#
# Poissons Ratio (x) = 0.22415 0.11244
# Poissons Ratio (y) = 0.79976 0.25856
# Poissons Ratio (z) = 0.20862 0.13445
#
# Static dielectric constant tensor:
#      x y z
#    x 2.205660 0.000000 0.000000 
#    y 0.000000 2.023750 0.000000 
#    z 0.000000 0.000000 1.921900 
# 
# From -- ./inp_files/47947.got.cif
#   From: 2010.05.17/outbox.cif.g08.bks.cpg/sg72_24_cif.got.tgz:47947.got - 2010.06.03 17:03:01.
