data_PCOD9527092
_publ_section_title
;
Structure prediction by ZEFSAII (Michael W. Deem and Ramdas Pophale) SiO2 
 PCOD9527092
Probable space group: I B A M
;
_chemical_formula_sum "Si O2"
_cell_formula_units_Z 112
_cell_length_a 28.710067
_cell_length_b 12.116563
_cell_length_c 13.838865
_cell_angle_alpha 90.000000
_cell_angle_beta 90.000000
_cell_angle_gamma 90.000000
_cell_volume 4814.089094
_symmetry_space_group_name_H-M "I B A M"
_symmetry_group_IT_number 72
_symmetry_cell_setting 'orthorhombic'
loop_
_space_group_symop_operation_xyz
x,y,z
-x,-y,z
x,-y,1/2-z
-x,y,1/2-z
-x,-y,-z
x,y,-z
-x,y,1/2+z
x,-y,1/2+z
1/2+x,1/2+y,1/2+z
1/2-x,1/2-y,1/2+z
1/2+x,1/2-y,-z
1/2-x,1/2+y,-z
1/2-x,1/2-y,1/2-z
1/2+x,1/2+y,1/2-z
1/2-x,1/2+y,z
1/2+x,1/2-y,z
loop_
_atom_site_type_symbol
_atom_site_label
_atom_site_fract_x
_atom_site_fract_y
_atom_site_fract_z
Si Si1 0.398916 0.121496 0.614507
Si Si2 0.842924 0.038858 0.884450
Si Si3 0.622895 0.873769 0.117056
Si Si4 0.820307 0.793792 0.117849
Si Si5 0.535120 0.313105 0.109986
Si Si6 0.932161 0.837760 0.682237
Si Si7 0.284726 0.250068 0.117108
O O1 0.391007 0.114076 0.500000
O O2 0.358173 0.203816 0.649800
O O3 0.448215 0.185265 0.623341
O O4 0.392346 0.996225 0.646295
O O5 0.893988 0.081355 0.860268
O O6 0.806317 0.132623 0.852954
O O7 0.833949 0.915954 0.848812
O O8 0.838695 0.034605 0.000000
O O9 0.589891 0.783644 0.166550
O O10 0.676649 0.843097 0.140455
O O11 0.618061 0.860936 0.000000
O O12 0.767983 0.767434 0.149609
O O13 0.821046 0.793992 0.000000
O O14 0.480737 0.335514 0.124588
O O15 0.557962 0.365109 0.205615
O O16 0.549757 0.344892 0.000000
O O17 0.282529 0.250671 0.000000
#
# Coordination Sequence:
#
# PCOD9527092 Si02
#       7
#    16  16  16  16  16  16  16
#     4   9  19  33  50  79 118 160 206 252 301 358
#     4   9  17  31  53  85 124 165 207 254 305 367
#     4   9  17  31  53  84 124 164 202 250 304 367
#     4   9  17  29  50  81 121 167 211 252 302 367
#     4  10  21  38  60  88 119 154 200 253 309 369
#     4  10  20  36  60  88 120 158 200 248 310 374
#     4   8  15  26  47  81 117 158 204 249 305 365
#
# _framework density 23.265046000000002
#
# number of rings (size 3 to 8) (size 9 to 14) (size 15 to 20)
#    0.000    2.857    0.000    2.143    2.000    1.143 
#    0.000    5.000    0.000    8.571    7.429    0.000 
#    0.000    1.143    0.000    0.000    0.000    0.000 
#
# Total GULP energy -313095.536509 kJ/mol
# GULP energy per Si atom -5590.991723 kJ/mol
# Density = 2.321209 g / cm^3
# Si number density = 23.265046 Si / 1000 Ang^3
#
#
#
# Elastic Constant Matrix: (Units=GPa)
#
#
# Indices 1 2 3 4 5 6 
#
# 1 135.2509 49.7963 19.0741 0.0000 0.0000 0.0000
# 2 49.7963 131.2306 17.7513 0.0000 0.0000 0.0000
# 3 19.0741 17.7513 118.3412 0.0000 0.0000 0.0000
# 4 0.0000 0.0000 0.0000 8.1509 0.0000 0.0000
# 5 0.0000 0.0000 0.0000 0.0000 26.5380 0.0000
# 6 0.0000 0.0000 0.0000 0.0000 0.0000 13.5679
#
#
#
# Elastic Compliance Matrix: (Units=1/GPa)
#
#
# Indices 1 2 3 4 5 6 
#
# 1 0.008692 -0.003173 -0.000925 0.000000 0.000000 0.000000
# 2 -0.003173 0.008936 -0.000829 0.000000 0.000000 0.000000
# 3 -0.000925 -0.000829 0.008724 0.000000 0.000000 0.000000
# 4 0.000000 0.000000 0.000000 0.122685 0.000000 0.000000
# 5 0.000000 0.000000 0.000000 0.000000 0.037682 0.000000
# 6 0.000000 0.000000 0.000000 0.000000 0.000000 0.073704
#
#
# Mechanical properties :
#
#
# Convention : Reuss Voigt Hill
#
# Bulk Modulus (GPa) = 60.61408 62.00734 61.31071
# Shear Modulus (GPa) = 18.13059 29.53143 23.83101
#
# Velocity S-wave (km/s) = 2.79463 3.56666 3.20398
# Velocity P-wave (km/s) = 6.04347 6.60846 6.33227
#
# Compressibility (1/GPa) = 0.01649782
#
# Stress axis : x y z
#
# Youngs Moduli (GPa) = 115.04232 111.90148 114.63171
#
# Poissons Ratio (x) = 0.35509 0.10604
# Poissons Ratio (y) = 0.36506 0.09503
# Poissons Ratio (z) = 0.10642 0.09277
#
# Static dielectric constant tensor:
#      x y z
#    x 1.817560 0.000000 0.000000 
#    y 0.000000 1.863490 0.000000 
#    z 0.000000 0.000000 1.952790 
# 
# From -- ./inp_files/26367.got.cif
#   From: 2010.05.17/outbox.cif.g08.bks.cpg/sg72_14_cif.got.tgz:26367.got - 2010.06.03 17:03:01.
