data_PCOD9527603
_publ_section_title
;
Structure prediction by ZEFSAII (Michael W. Deem and Ramdas Pophale) SiO2 
 PCOD9527603
Probable space group: I B A M
;
_chemical_formula_sum "Si O2"
_cell_formula_units_Z 112
_cell_length_a 13.285488
_cell_length_b 23.783944
_cell_length_c 17.953165
_cell_angle_alpha 90.000000
_cell_angle_beta 90.000000
_cell_angle_gamma 90.000000
_cell_volume 5672.864463
_symmetry_space_group_name_H-M "I B A M"
_symmetry_group_IT_number 72
_symmetry_cell_setting 'orthorhombic'
loop_
_space_group_symop_operation_xyz
x,y,z
-x,-y,z
x,-y,1/2-z
-x,y,1/2-z
-x,-y,-z
x,y,-z
-x,y,1/2+z
x,-y,1/2+z
1/2+x,1/2+y,1/2+z
1/2-x,1/2-y,1/2+z
1/2+x,1/2-y,-z
1/2-x,1/2+y,-z
1/2-x,1/2-y,1/2-z
1/2+x,1/2+y,1/2-z
1/2-x,1/2+y,z
1/2+x,1/2-y,z
loop_
_atom_site_type_symbol
_atom_site_label
_atom_site_fract_x
_atom_site_fract_y
_atom_site_fract_z
Si Si1 0.264093 0.673409 0.318527
Si Si2 0.278971 0.940814 0.411598
Si Si3 0.011098 0.432297 0.333950
Si Si4 0.697141 0.926947 0.587384
Si Si5 0.635463 0.768439 0.913720
Si Si6 0.552216 0.761333 0.669855
Si Si7 0.181681 0.160245 0.854340
O O1 0.260016 0.615060 0.361926
O O2 0.338055 0.715429 0.361554
O O3 0.154694 0.703383 0.321624
O O4 0.293195 0.664765 0.233150
O O5 0.291266 0.932151 0.500000
O O6 0.379717 0.921267 0.368192
O O7 0.186098 0.904004 0.381149
O O8 0.273594 0.007949 0.399444
O O9 0.918381 0.417290 0.387081
O O10 0.000000 0.500000 0.327939
O O11 0.000000 0.408523 0.250000
O O12 0.707672 0.914881 0.500000
O O13 0.528203 0.790027 0.884619
O O14 0.726642 0.811116 0.899446
O O15 0.631453 0.753586 0.000000
O O16 0.500000 0.755752 0.750000
O O17 0.585378 0.700573 0.636846
#
# Coordination Sequence:
#
# PCOD9527603 Si02
#       7
#    16  16  16  16  16  16  16
#     4  11  22  37  62  87 118 154 194 243 296 358
#     4  10  21  36  53  81 120 156 197 248 295 350
#     4   9  17  30  48  72 107 150 194 231 280 346
#     4  10  21  35  53  81 118 157 197 243 297 356
#     4  11  23  39  60  89 120 151 192 245 299 354
#     4  11  21  41  62  87 117 154 197 246 302 350
#     4  11  22  38  63  86 117 158 197 245 296 359
#
# _framework density 19.743112
#
# number of rings (size 3 to 8) (size 9 to 14) (size 15 to 20)
#    0.000    1.571    2.857    3.000    2.000    7.429 
#    0.000    0.000    0.000    0.857    0.000    3.000 
#    0.000    0.000    0.000    0.000    0.000    0.000 
#
# Total GULP energy -312865.511754 kJ/mol
# GULP energy per Si atom -5586.884138 kJ/mol
# Density = 1.969818 g / cm^3
# Si number density = 19.743112 Si / 1000 Ang^3
#
#
#
# Elastic Constant Matrix: (Units=GPa)
#
#
# Indices 1 2 3 4 5 6 
#
# 1 43.2667 10.5064 16.7434 0.0000 0.0000 0.0000
# 2 10.5064 72.9139 22.4870 0.0000 0.0000 0.0000
# 3 16.7434 22.4870 98.3240 -0.0001 0.0000 0.0000
# 4 0.0000 0.0000 -0.0001 33.6158 0.0000 0.0000
# 5 0.0000 0.0000 0.0000 0.0000 16.2663 0.0000
# 6 0.0000 0.0000 0.0000 0.0000 0.0000 13.4462
#
#
#
# Elastic Compliance Matrix: (Units=1/GPa)
#
#
# Indices 1 2 3 4 5 6 
#
# 1 0.025152 -0.002478 -0.003716 0.000000 0.000000 0.000000
# 2 -0.002478 0.015000 -0.003008 0.000000 0.000000 0.000000
# 3 -0.003716 -0.003008 0.011491 0.000000 0.000000 0.000000
# 4 0.000000 0.000000 0.000000 0.029748 0.000000 0.000000
# 5 0.000000 0.000000 0.000000 0.000000 0.061477 0.000000
# 6 0.000000 0.000000 0.000000 0.000000 0.000000 0.074371
#
#
# Mechanical properties :
#
#
# Convention : Reuss Voigt Hill
#
# Bulk Modulus (GPa) = 30.08655 34.88646 32.48651
# Shear Modulus (GPa) = 20.26556 23.65018 21.95787
#
# Velocity S-wave (km/s) = 3.20732 3.46482 3.33855
# Velocity P-wave (km/s) = 5.38405 5.80648 5.59925
#
# Compressibility (1/GPa) = 0.03323745
#
# Stress axis : x y z
#
# Youngs Moduli (GPa) = 39.75768 66.66794 87.02184
#
# Poissons Ratio (x) = 0.16521 0.32341
# Poissons Ratio (y) = 0.09852 0.26180
# Poissons Ratio (z) = 0.14776 0.20057
#
# Static dielectric constant tensor:
#      x y z
#    x 1.703170 0.000000 0.000000 
#    y 0.000000 1.747810 0.000000 
#    z 0.000000 0.000000 1.663640 
# 
# From -- ./inp_files/22076.got.cif
#   From: 2010.05.17/outbox.cif.g08.bks.cpg/sg72_12_cif.got.tgz:22076.got - 2010.06.03 17:03:01.
