data_PCOD9527198
_publ_section_title
;
Structure prediction by ZEFSAII (Michael W. Deem and Ramdas Pophale) SiO2 
 PCOD9527198
Probable space group: I B A M
;
_chemical_formula_sum "Si O2"
_cell_formula_units_Z 80
_cell_length_a 26.148519
_cell_length_b 18.671166
_cell_length_c 8.599212
_cell_angle_alpha 90.000000
_cell_angle_beta 90.000000
_cell_angle_gamma 90.000000
_cell_volume 4198.335995
_symmetry_space_group_name_H-M "I B A M"
_symmetry_group_IT_number 72
_symmetry_cell_setting 'orthorhombic'
loop_
_space_group_symop_operation_xyz
x,y,z
-x,-y,z
x,-y,1/2-z
-x,y,1/2-z
-x,-y,-z
x,y,-z
-x,y,1/2+z
x,-y,1/2+z
1/2+x,1/2+y,1/2+z
1/2-x,1/2-y,1/2+z
1/2+x,1/2-y,-z
1/2-x,1/2+y,-z
1/2-x,1/2-y,1/2-z
1/2+x,1/2+y,1/2-z
1/2-x,1/2+y,z
1/2+x,1/2-y,z
loop_
_atom_site_type_symbol
_atom_site_label
_atom_site_fract_x
_atom_site_fract_y
_atom_site_fract_z
Si Si1 0.056020 0.336357 0.313878
Si Si2 0.252392 0.830471 0.687311
Si Si3 0.848153 0.919736 0.187316
Si Si4 0.152433 0.420279 0.185915
Si Si5 0.944264 0.176413 0.687432
O O1 0.055591 0.336791 0.500000
O O2 0.099443 0.388286 0.249413
O O3 0.066513 0.255607 0.253878
O O4 0.000000 0.356145 0.250000
O O5 0.254785 0.829474 0.500000
O O6 0.250000 0.750000 0.750000
O O7 0.201627 0.874319 0.735104
O O8 0.301815 0.870355 0.753815
O O9 0.899582 0.877901 0.235116
O O10 0.846334 0.000000 0.250000
O O11 0.848104 0.922505 0.000000
O O12 0.160179 0.500000 0.250000
O O13 0.151865 0.420926 0.000000
O O14 0.945827 0.180857 0.500000
O O15 0.000000 0.154507 0.750000
#
# Coordination Sequence:
#
# PCOD9527198 Si02
#       5
#    16  16  16  16  16
#     4  11  22  39  63  91 120 157 200 245 296 354
#     4  11  23  41  64  91 119 156 200 247 301 360
#     4  10  23  39  58  84 118 154 195 242 295 352
#     4  12  25  42  62  89 123 159 199 248 300 359
#     4  10  20  37  59  87 119 156 199 246 294 349
#
# _framework density 19.055168999999999
#
# number of rings (size 3 to 8) (size 9 to 14) (size 15 to 20)
#    0.000    1.200    0.000    7.800    0.000    7.200 
#    0.000    4.000    0.000    0.000    0.000    0.000 
#    0.000    0.000    0.000    0.000    0.000    0.000 
#
# Total GULP energy -223787.640981 kJ/mol
# GULP energy per Si atom -5594.691025 kJ/mol
# Density = 1.901180 g / cm^3
# Si number density = 19.055169 Si / 1000 Ang^3
#
#
#
# Elastic Constant Matrix: (Units=GPa)
#
#
# Indices 1 2 3 4 5 6 
#
# 1 142.9941 118.0397 62.3805 0.0000 0.0000 0.0000
# 2 118.0397 168.3911 62.4489 0.0000 0.0000 0.0000
# 3 62.3805 62.4489 126.6748 0.0000 0.0000 0.0000
# 4 0.0000 0.0000 0.0000 39.7271 0.0000 0.0000
# 5 0.0000 0.0000 0.0000 0.0000 36.2327 0.0000
# 6 0.0000 0.0000 0.0000 0.0000 0.0000 -251.9823
#
#
#
# Elastic Compliance Matrix: (Units=1/GPa)
#
#
# Indices 1 2 3 4 5 6 
#
# 1 0.017573 -0.011147 -0.003158 0.000000 0.000000 0.000000
# 2 -0.011147 0.014338 -0.001579 0.000000 0.000000 0.000000
# 3 -0.003158 -0.001579 0.010228 0.000000 0.000000 0.000000
# 4 0.000000 0.000000 0.000000 0.025172 0.000000 0.000000
# 5 0.000000 0.000000 0.000000 0.000000 0.027599 0.000000
# 6 0.000000 0.000000 0.000000 0.000000 0.000000 -0.003969
#
#
# Mechanical properties :
#
#
# Convention : Reuss Voigt Hill
#
# Bulk Modulus (GPa) = 96.43287 102.64424 99.53856
# Shear Modulus (GPa) = 39.62998 -22.19177 8.71911
#
# Velocity S-wave (km/s) = 4.56537 -3.41633 2.14141
# Velocity P-wave (km/s) = 8.86043 6.19855 7.64622
#
# Compressibility (1/GPa) = 0.01036991
#
# Stress axis : x y z
#
# Youngs Moduli (GPa) = 56.90621 69.74443 97.77022
#
# Poissons Ratio (x) = 0.77744 0.30879
# Poissons Ratio (y) = 0.63433 0.15440
# Poissons Ratio (z) = 0.17973 0.11014
#
# Static dielectric constant tensor:
#      x y z
#    x 1.649640 0.000000 0.000000 
#    y 0.000000 1.597520 0.000000 
#    z 0.000000 0.000000 1.641190 
# 
# From -- ./inp_files/4752.got.cif
#   From: 2010.05.17/outbox.cif.g08.bks.cpg/sg72_3_cif.got.tgz:4752.got - 2010.06.03 17:03:01.
