data_PCOD9527294
_publ_section_title
;
Structure prediction by ZEFSAII (Michael W. Deem and Ramdas Pophale) SiO2 
 PCOD9527294
Probable space group: I B A M
;
_chemical_formula_sum "Si O2"
_cell_formula_units_Z 80
_cell_length_a 15.437558
_cell_length_b 15.837730
_cell_length_c 17.445757
_cell_angle_alpha 90.000000
_cell_angle_beta 90.000000
_cell_angle_gamma 90.000000
_cell_volume 4265.415631
_symmetry_space_group_name_H-M "I B A M"
_symmetry_group_IT_number 72
_symmetry_cell_setting 'orthorhombic'
loop_
_space_group_symop_operation_xyz
x,y,z
-x,-y,z
x,-y,1/2-z
-x,y,1/2-z
-x,-y,-z
x,y,-z
-x,y,1/2+z
x,-y,1/2+z
1/2+x,1/2+y,1/2+z
1/2-x,1/2-y,1/2+z
1/2+x,1/2-y,-z
1/2-x,1/2+y,-z
1/2-x,1/2-y,1/2-z
1/2+x,1/2+y,1/2-z
1/2-x,1/2+y,z
1/2+x,1/2-y,z
loop_
_atom_site_type_symbol
_atom_site_label
_atom_site_fract_x
_atom_site_fract_y
_atom_site_fract_z
Si Si1 0.323610 0.092900 0.757839
Si Si2 0.395148 0.253699 0.327320
Si Si3 0.561610 0.306636 0.587070
Si Si4 0.872893 0.910908 0.285368
Si Si5 0.225797 0.682651 0.912028
O O1 0.377687 0.169004 0.720795
O O2 0.231775 0.090136 0.712453
O O3 0.299140 0.115146 0.845977
O O4 0.363558 0.000000 0.750000
O O5 0.484023 0.255354 0.373498
O O6 0.397099 0.332547 0.269030
O O7 0.314080 0.273166 0.383199
O O8 0.538441 0.324987 0.500000
O O9 0.582721 0.390686 0.634501
O O10 0.648499 0.250670 0.589459
O O11 0.898378 0.000000 0.250000
O O12 0.234195 0.651609 0.000000
#
# Coordination Sequence:
#
# PCOD9527294 Si02
#       5
#    16  16  16  16  16
#     4  10  20  38  63  90 116 161 213 247 298 374
#     4  11  20  38  60  85 118 160 201 245 300 372
#     4  11  22  36  59  89 120 157 199 250 312 366
#     4  10  20  38  62  88 117 156 200 250 305 364
#     4  10  20  38  58  84 120 155 194 255 307 356
#
# _framework density 18.755500000000001
#
# number of rings (size 3 to 8) (size 9 to 14) (size 15 to 20)
#    0.000    1.600    4.000    2.400    0.000    1.600 
#    0.000   15.000    0.000    2.400    0.000    0.000 
#    0.000    0.000    0.000    0.000    0.000    0.000 
#
# Total GULP energy -223343.204034 kJ/mol
# GULP energy per Si atom -5583.580101 kJ/mol
# Density = 1.871281 g / cm^3
# Si number density = 18.755500 Si / 1000 Ang^3
#
#
#
# Elastic Constant Matrix: (Units=GPa)
#
#
# Indices 1 2 3 4 5 6 
#
# 1 85.4667 30.9738 39.5106 0.0000 0.0000 0.0000
# 2 30.9738 139.1900 67.0351 0.0000 0.0000 0.0000
# 3 39.5106 67.0351 140.8143 0.0000 0.0000 0.0000
# 4 0.0000 0.0000 0.0000 23.9590 0.0000 0.0000
# 5 0.0000 0.0000 0.0000 0.0000 24.6699 0.0000
# 6 0.0000 0.0000 0.0000 0.0000 0.0000 -2.2520
#
#
#
# Elastic Compliance Matrix: (Units=1/GPa)
#
#
# Indices 1 2 3 4 5 6 
#
# 1 0.013698 -0.001553 -0.003104 0.000000 0.000000 0.000000
# 2 -0.001553 0.009498 -0.004086 0.000000 0.000000 0.000000
# 3 -0.003104 -0.004086 0.009917 0.000000 0.000000 0.000000
# 4 0.000000 0.000000 0.000000 0.041738 0.000000 0.000000
# 5 0.000000 0.000000 0.000000 0.000000 0.040535 0.000000
# 6 0.000000 0.000000 0.000000 0.000000 0.000000 -0.444045
#
#
# Mechanical properties :
#
#
# Convention : Reuss Voigt Hill
#
# Bulk Modulus (GPa) = 63.98952 71.16779 67.57865
# Shear Modulus (GPa) = -16.34185 24.47215 4.06515
#
# Velocity S-wave (km/s) = -2.95500 3.61612 1.47382
# Velocity P-wave (km/s) = 4.74859 7.44731 6.24546
#
# Compressibility (1/GPa) = 0.01562756
#
# Stress axis : x y z
#
# Youngs Moduli (GPa) = 73.00117 105.28827 100.83207
#
# Poissons Ratio (x) = 0.16355 0.31300
# Poissons Ratio (y) = 0.11339 0.41196
# Poissons Ratio (z) = 0.22661 0.43016
#
# Static dielectric constant tensor:
#      x y z
#    x 1.670300 0.000000 0.000000 
#    y 0.000000 1.638470 0.000000 
#    z 0.000000 0.000000 1.680410 
# 
# From -- ./inp_files/30467.got.cif
#   From: 2010.05.17/outbox.cif.g08.bks.cpg/sg72_16_cif.got.tgz:30467.got - 2010.06.03 17:03:01.
