data_PCOD9527461
_publ_section_title
;
Structure prediction by ZEFSAII (Michael W. Deem and Ramdas Pophale) SiO2 
 PCOD9527461
Probable space group: I B A M
;
_chemical_formula_sum "Si O2"
_cell_formula_units_Z 92
_cell_length_a 20.043459
_cell_length_b 8.977203
_cell_length_c 28.809259
_cell_angle_alpha 90.000000
_cell_angle_beta 90.000000
_cell_angle_gamma 90.000000
_cell_volume 5183.770978
_symmetry_space_group_name_H-M "I B A M"
_symmetry_group_IT_number 72
_symmetry_cell_setting 'orthorhombic'
loop_
_space_group_symop_operation_xyz
x,y,z
-x,-y,z
x,-y,1/2-z
-x,y,1/2-z
-x,-y,-z
x,y,-z
-x,y,1/2+z
x,-y,1/2+z
1/2+x,1/2+y,1/2+z
1/2-x,1/2-y,1/2+z
1/2+x,1/2-y,-z
1/2-x,1/2+y,-z
1/2-x,1/2-y,1/2-z
1/2+x,1/2+y,1/2-z
1/2-x,1/2+y,z
1/2+x,1/2-y,z
loop_
_atom_site_type_symbol
_atom_site_label
_atom_site_fract_x
_atom_site_fract_y
_atom_site_fract_z
Si Si1 0.076432 0.487546 0.135357
Si Si2 0.203167 0.481088 0.927962
Si Si3 0.246867 0.770664 0.500000
Si Si4 0.779625 0.985799 0.668688
Si Si5 0.660577 0.826461 0.796561
Si Si6 0.894123 0.790754 0.199875
Si Si7 0.000000 0.000000 0.250000
O O1 0.129372 0.488737 0.093698
O O2 0.099949 0.618419 0.170740
O O3 0.083954 0.334141 0.163783
O O4 0.000000 0.500000 0.120707
O O5 0.214734 0.337337 0.959456
O O6 0.253231 0.478095 0.883817
O O7 0.220306 0.621965 0.959556
O O8 0.716919 0.047192 0.698011
O O9 0.838224 0.104288 0.677036
O O10 0.805933 0.825566 0.684782
O O11 0.635417 0.791423 0.745245
O O12 0.953289 0.895735 0.218420
#
# Coordination Sequence:
#
# PCOD9527461 Si02
#       7
#    16  16   8  16  16  16   4
#     4  11  24  40  61  88 127 167 210 252 299 372
#     4  10  21  39  64  94 114 150 194 254 322 378
#     4  10  20  40  66  88 118 137 183 252 324 382
#     4  11  21  37  62  89 122 155 213 271 313 354
#     4  11  22  38  57  92 125 170 214 263 306 347
#     4  12  23  38  56  84 128 174 219 253 300 352
#     4  12  24  40  54  84 124 186 224 244 296 364
#
# _framework density 17.747698
#
# number of rings (size 3 to 8) (size 9 to 14) (size 15 to 20)
#    0.000    1.043    1.739    7.304    0.000    3.478 
#    0.000    1.739    0.000    0.000    0.000    4.870 
#    0.000    0.000    0.000    0.000    0.000    0.000 
#
# Total GULP energy -256105.533324 kJ/mol
# GULP energy per Si atom -5567.511594 kJ/mol
# Density = 1.770730 g / cm^3
# Si number density = 17.747698 Si / 1000 Ang^3
#
#
#
# Elastic Constant Matrix: (Units=GPa)
#
#
# Indices 1 2 3 4 5 6 
#
# 1 115.2723 51.2647 51.0442 0.0000 0.0000 0.0000
# 2 51.2647 96.3415 47.0455 0.0000 0.0000 0.0000
# 3 51.0442 47.0455 114.5194 0.0000 0.0000 0.0000
# 4 0.0000 0.0000 0.0000 29.1150 0.0000 0.0000
# 5 0.0000 0.0000 0.0000 0.0000 7.2279 0.0000
# 6 0.0000 0.0000 0.0000 0.0000 0.0000 25.4029
#
#
#
# Elastic Compliance Matrix: (Units=1/GPa)
#
#
# Indices 1 2 3 4 5 6 
#
# 1 0.012406 -0.004880 -0.003525 0.000000 0.000000 0.000000
# 2 -0.004880 0.014904 -0.003948 0.000000 0.000000 0.000000
# 3 -0.003525 -0.003948 0.011925 0.000000 0.000000 0.000000
# 4 0.000000 0.000000 0.000000 0.034347 0.000000 0.000000
# 5 0.000000 0.000000 0.000000 0.000000 0.138352 0.000000
# 6 0.000000 0.000000 0.000000 0.000000 0.000000 0.039366
#
#
# Mechanical properties :
#
#
# Convention : Reuss Voigt Hill
#
# Bulk Modulus (GPa) = 68.82284 69.42689 69.12486
# Shear Modulus (GPa) = 17.80318 24.13442 20.96880
#
# Velocity S-wave (km/s) = 3.17065 3.69163 3.44102
# Velocity P-wave (km/s) = 7.22957 7.57460 7.40410
#
# Compressibility (1/GPa) = 0.01453006
#
# Stress axis : x y z
#
# Youngs Moduli (GPa) = 80.60322 67.09475 83.85743
#
# Poissons Ratio (x) = 0.32744 0.29560
# Poissons Ratio (y) = 0.39337 0.33103
# Poissons Ratio (z) = 0.28413 0.26486
#
# Static dielectric constant tensor:
#      x y z
#    x 1.606300 0.000000 0.000000 
#    y 0.000000 1.619990 0.000000 
#    z 0.000000 0.000000 1.585270 
# 
# From -- ./inp_files/47365.got.cif
#   From: 2010.05.17/outbox.cif.g08.bks.cpg/sg72_24_cif.got.tgz:47365.got - 2010.06.03 17:03:01.
