data_PCOD9527259
_publ_section_title
;
Structure prediction by ZEFSAII (Michael W. Deem and Ramdas Pophale) SiO2 
 PCOD9527259
Probable space group: I B A M
;
_chemical_formula_sum "Si O2"
_cell_formula_units_Z 68
_cell_length_a 9.185421
_cell_length_b 19.337223
_cell_length_c 13.579183
_cell_angle_alpha 90.000000
_cell_angle_beta 90.000000
_cell_angle_gamma 90.000000
_cell_volume 2411.941739
_symmetry_space_group_name_H-M "I B A M"
_symmetry_group_IT_number 72
_symmetry_cell_setting 'orthorhombic'
loop_
_space_group_symop_operation_xyz
x,y,z
-x,-y,z
x,-y,1/2-z
-x,y,1/2-z
-x,-y,-z
x,y,-z
-x,y,1/2+z
x,-y,1/2+z
1/2+x,1/2+y,1/2+z
1/2-x,1/2-y,1/2+z
1/2+x,1/2-y,-z
1/2-x,1/2+y,-z
1/2-x,1/2-y,1/2-z
1/2+x,1/2+y,1/2-z
1/2-x,1/2+y,z
1/2+x,1/2-y,z
loop_
_atom_site_type_symbol
_atom_site_label
_atom_site_fract_x
_atom_site_fract_y
_atom_site_fract_z
Si Si1 0.003432 0.695302 0.134447
Si Si2 0.500000 0.000000 0.750000
Si Si3 0.292558 0.628788 0.388309
Si Si4 0.669552 0.670761 0.662252
Si Si5 0.746122 0.529497 0.386749
O O1 0.172998 0.686572 0.112953
O O2 0.000000 0.686852 0.250000
O O3 0.880814 0.642556 0.099696
O O4 0.935975 0.771427 0.119133
O O5 0.611845 0.958926 0.819147
O O6 0.350278 0.643637 0.500000
O O7 0.326890 0.668928 0.283526
O O8 0.311774 0.547299 0.366871
O O9 0.636294 0.592179 0.633018
O O10 0.789705 0.531092 0.500000
#
# Coordination Sequence:
#
# PCOD9527259 Si02
#       5
#    16   4  16  16  16
#     4  10  22  39  63  88 126 167 211 257 318 373
#     4  12  18  36  56  94 134 152 202 278 314 358
#     4  10  20  37  62  93 123 160 208 266 319 367
#     4  11  22  43  62  93 129 167 209 263 312 382
#     4  11  23  37  62  95 127 164 211 264 324 370
#
# _framework density 28.193052000000002
#
# number of rings (size 3 to 8) (size 9 to 14) (size 15 to 20)
#    0.000    1.412    2.353    4.588    3.294    3.765 
#    0.000    9.412    0.000    9.882    0.000   13.176 
#    0.000    0.000    0.000    0.000    0.000    0.000 
#
# Total GULP energy -190334.250965 kJ/mol
# GULP energy per Si atom -5598.066205 kJ/mol
# Density = 2.812888 g / cm^3
# Si number density = 28.193052 Si / 1000 Ang^3
#
#
#
# Elastic Constant Matrix: (Units=GPa)
#
#
# Indices 1 2 3 4 5 6 
#
# 1 132.4898 73.2792 15.3071 0.0000 0.0000 0.0000
# 2 73.2792 187.2910 23.0150 -0.0001 0.0000 0.0000
# 3 15.3071 23.0150 165.7437 -0.0001 0.0000 0.0000
# 4 0.0000 -0.0001 -0.0001 -197.4786 0.0000 0.0000
# 5 0.0000 0.0000 0.0000 0.0000 24.8447 0.0000
# 6 0.0000 0.0000 0.0000 0.0000 0.0000 37.4626
#
#
#
# Elastic Compliance Matrix: (Units=1/GPa)
#
#
# Indices 1 2 3 4 5 6 
#
# 1 0.009655 -0.003732 -0.000373 0.000000 0.000000 0.000000
# 2 -0.003732 0.006874 -0.000610 0.000000 0.000000 0.000000
# 3 -0.000373 -0.000610 0.006153 0.000000 0.000000 0.000000
# 4 0.000000 0.000000 0.000000 -0.005064 0.000000 0.000000
# 5 0.000000 0.000000 0.000000 0.000000 0.040250 0.000000
# 6 0.000000 0.000000 0.000000 0.000000 0.000000 0.026693
#
#
# Mechanical properties :
#
#
# Convention : Reuss Voigt Hill
#
# Bulk Modulus (GPa) = 75.46257 78.74745 77.10501
# Shear Modulus (GPa) = 50.80859 -2.10605 24.35127
#
# Velocity S-wave (km/s) = 4.24980 -0.86524 2.94212
# Velocity P-wave (km/s) = 7.13481 5.19557 6.24097
#
# Compressibility (1/GPa) = 0.01325160
#
# Stress axis : x y z
#
# Youngs Moduli (GPa) = 103.57487 145.46997 162.53299
#
# Poissons Ratio (x) = 0.54284 0.06070
# Poissons Ratio (y) = 0.38650 0.09913
# Poissons Ratio (z) = 0.03868 0.08873
#
# Static dielectric constant tensor:
#      x y z
#    x 2.285140 0.000000 0.000000 
#    y 0.000000 2.234740 0.000000 
#    z 0.000000 0.000000 2.145080 
# 
# From -- ./inp_files/19914.got.cif
#   From: 2010.05.17/outbox.cif.g08.bks.cpg/sg72_10_cif.got.tgz:19914.got - 2010.06.03 17:03:01.
