data_PCOD9527580
_publ_section_title
;
Structure prediction by ZEFSAII (Michael W. Deem and Ramdas Pophale) SiO2 
 PCOD9527580
Probable space group: I B A M
;
_chemical_formula_sum "Si O2"
_cell_formula_units_Z 96
_cell_length_a 12.688877
_cell_length_b 19.400567
_cell_length_c 21.126476
_cell_angle_alpha 90.000000
_cell_angle_beta 90.000000
_cell_angle_gamma 90.000000
_cell_volume 5200.734351
_symmetry_space_group_name_H-M "I B A M"
_symmetry_group_IT_number 72
_symmetry_cell_setting 'orthorhombic'
loop_
_space_group_symop_operation_xyz
x,y,z
-x,-y,z
x,-y,1/2-z
-x,y,1/2-z
-x,-y,-z
x,y,-z
-x,y,1/2+z
x,-y,1/2+z
1/2+x,1/2+y,1/2+z
1/2-x,1/2-y,1/2+z
1/2+x,1/2-y,-z
1/2-x,1/2+y,-z
1/2-x,1/2-y,1/2-z
1/2+x,1/2+y,1/2-z
1/2-x,1/2+y,z
1/2+x,1/2-y,z
loop_
_atom_site_type_symbol
_atom_site_label
_atom_site_fract_x
_atom_site_fract_y
_atom_site_fract_z
Si Si1 0.208159 0.076179 0.250861
Si Si2 0.282840 0.170929 0.862913
Si Si3 0.437162 0.928612 0.192849
Si Si4 0.579034 0.702460 0.191913
Si Si5 0.435855 0.296129 0.571404
Si Si6 0.506979 0.138594 0.431454
O O1 0.242229 0.111411 0.184477
O O2 0.317520 0.064242 0.287561
O O3 0.140883 0.135082 0.284895
O O4 0.156841 0.000000 0.250000
O O5 0.340881 0.234437 0.825434
O O6 0.182700 0.196186 0.902916
O O7 0.372006 0.141274 0.909248
O O8 0.500000 0.890583 0.250000
O O9 0.444253 0.894117 0.125658
O O10 0.500000 0.000000 0.186710
O O11 0.500000 0.721848 0.250000
O O12 0.513169 0.682002 0.128883
O O13 0.448059 0.326535 0.500000
O O14 0.465556 0.216231 0.565017
O O15 0.495174 0.105269 0.500000
#
# Coordination Sequence:
#
# PCOD9527580 Si02
#       6
#    16  16  16  16  16  16
#     4  12  23  38  61  92 123 158 207 255 307 362
#     4  11  21  37  63  86 121 160 203 251 302 365
#     4  11  20  37  57  86 117 159 197 247 307 358
#     4  11  24  38  62  96 121 160 206 254 310 364
#     4  10  22  40  58  86 122 156 201 251 308 363
#     4  10  21  34  57  86 117 153 192 251 308 362
#
# _framework density 18.458931
#
# number of rings (size 3 to 8) (size 9 to 14) (size 15 to 20)
#    0.000    1.167    5.000    2.000    4.667    1.333 
#    0.000    0.833    0.000    3.000    0.000    0.000 
#    0.000    0.000    0.000    0.000    0.000    0.000 
#
# Total GULP energy -267672.811651 kJ/mol
# GULP energy per Si atom -5576.516909 kJ/mol
# Density = 1.841692 g / cm^3
# Si number density = 18.458931 Si / 1000 Ang^3
#
#
#
# Elastic Constant Matrix: (Units=GPa)
#
#
# Indices 1 2 3 4 5 6 
#
# 1 53.9371 10.3124 33.9642 0.0000 0.0000 0.0000
# 2 10.3124 56.4093 32.0469 0.0000 0.0000 0.0000
# 3 33.9642 32.0469 155.6694 0.0000 0.0000 0.0000
# 4 0.0000 0.0000 0.0000 31.5603 0.0000 0.0000
# 5 0.0000 0.0000 0.0000 0.0000-1532.0510 0.0000
# 6 0.0000 0.0000 0.0000 0.0000 0.0000 -21.5213
#
#
#
# Elastic Compliance Matrix: (Units=1/GPa)
#
#
# Indices 1 2 3 4 5 6 
#
# 1 0.021596 -0.001440 -0.004415 0.000000 0.000000 0.000000
# 2 -0.001440 0.020171 -0.003839 0.000000 0.000000 0.000000
# 3 -0.004415 -0.003839 0.008177 0.000000 0.000000 0.000000
# 4 0.000000 0.000000 0.000000 0.031685 0.000000 0.000000
# 5 0.000000 0.000000 0.000000 0.000000 -0.000653 0.000000
# 6 0.000000 0.000000 0.000000 0.000000 0.000000 -0.046466
#
#
# Mechanical properties :
#
#
# Convention : Reuss Voigt Hill
#
# Bulk Modulus (GPa) = 32.72500 46.51809 39.62154
# Shear Modulus (GPa) = 78.02179 -291.75626 -106.86723
#
# Velocity S-wave (km/s) = 6.50842 -12.58571 -7.61710
# Velocity P-wave (km/s) = 8.61664 13.63615 7.47322
#
# Compressibility (1/GPa) = 0.03055768
#
# Stress axis : x y z
#
# Youngs Moduli (GPa) = 46.30541 49.57505 122.28744
#
# Poissons Ratio (x) = 0.07136 0.53995
# Poissons Ratio (y) = 0.06666 0.46940
# Poissons Ratio (z) = 0.20446 0.19029
#
# Static dielectric constant tensor:
#      x y z
#    x 1.635540 0.000000 0.000000 
#    y 0.000000 1.669210 0.000000 
#    z 0.000000 0.000000 1.707910 
# 
# From -- ./inp_files/37109.got.cif
#   From: 2010.05.17/outbox.cif.g08.bks.cpg/sg72_19_cif.got.tgz:37109.got - 2010.06.03 17:03:01.
