data_PCOD9527592
_publ_section_title
;
Structure prediction by ZEFSAII (Michael W. Deem and Ramdas Pophale) SiO2 
 PCOD9527592
Probable space group: I B A M
;
_chemical_formula_sum "Si O2"
_cell_formula_units_Z 80
_cell_length_a 9.665663
_cell_length_b 25.407895
_cell_length_c 16.490217
_cell_angle_alpha 90.000000
_cell_angle_beta 90.000000
_cell_angle_gamma 90.000000
_cell_volume 4049.735935
_symmetry_space_group_name_H-M "I B A M"
_symmetry_group_IT_number 72
_symmetry_cell_setting 'orthorhombic'
loop_
_space_group_symop_operation_xyz
x,y,z
-x,-y,z
x,-y,1/2-z
-x,y,1/2-z
-x,-y,-z
x,y,-z
-x,y,1/2+z
x,-y,1/2+z
1/2+x,1/2+y,1/2+z
1/2-x,1/2-y,1/2+z
1/2+x,1/2-y,-z
1/2-x,1/2+y,-z
1/2-x,1/2-y,1/2-z
1/2+x,1/2+y,1/2-z
1/2-x,1/2+y,z
1/2+x,1/2-y,z
loop_
_atom_site_type_symbol
_atom_site_label
_atom_site_fract_x
_atom_site_fract_y
_atom_site_fract_z
Si Si1 0.606166 0.236297 0.591416
Si Si2 0.342876 0.437104 0.255639
Si Si3 0.836742 0.721408 0.179718
Si Si4 0.408989 0.899032 0.823729
Si Si5 0.678682 0.885874 0.092310
O O1 0.552892 0.237466 0.500000
O O2 0.730196 0.276444 0.605246
O O3 0.480276 0.247385 0.652264
O O4 0.669646 0.177586 0.605013
O O5 0.348261 0.500000 0.250000
O O6 0.500000 0.416614 0.250000
O O7 0.242404 0.422967 0.180331
O O8 0.270354 0.413464 0.337446
O O9 0.750000 0.750000 0.250000
O O10 0.878010 0.661854 0.197000
O O11 0.500000 0.922387 0.750000
O O12 0.516751 0.902476 0.897007
O O13 0.725108 0.896105 0.000000
#
# Coordination Sequence:
#
# PCOD9527592 Si02
#       5
#    16  16  16  16  16
#     4  10  21  35  51  76 111 145 177 220 271 313
#     4  10  21  38  57  81 111 141 172 221 282 334
#     4  11  19  31  51  77 104 137 181 220 256 314
#     4   9  19  35  54  77 105 141 184 227 266 313
#     4   9  19  38  60  80 106 143 186 227 267 319
#
# _framework density 19.754375
#
# number of rings (size 3 to 8) (size 9 to 14) (size 15 to 20)
#    0.000    2.200    0.000    4.800    0.000    7.600 
#    0.000    6.000    0.000    0.000    0.000    0.000 
#    0.000    0.000    0.000    0.000    0.000    0.000 
#
# Total GULP energy -222722.044488 kJ/mol
# GULP energy per Si atom -5568.051112 kJ/mol
# Density = 1.970941 g / cm^3
# Si number density = 19.754375 Si / 1000 Ang^3
#
#
#
# Elastic Constant Matrix: (Units=GPa)
#
#
# Indices 1 2 3 4 5 6 
#
# 1 154.3903 28.9552 36.0641 0.0000 0.0000 0.0000
# 2 28.9552 24.8974 19.6234 0.0000 0.0000 0.0000
# 3 36.0641 19.6234 98.9386 0.0000 0.0000 0.0000
# 4 0.0000 0.0000 0.0000 15.7155 0.0000 0.0000
# 5 0.0000 0.0000 0.0000 0.0000 29.4506 0.0000
# 6 0.0000 0.0000 0.0000 0.0000 0.0000 25.8707
#
#
#
# Elastic Compliance Matrix: (Units=1/GPa)
#
#
# Indices 1 2 3 4 5 6 
#
# 1 0.008431 -0.008750 -0.001337 0.000000 0.000000 0.000000
# 2 -0.008750 0.056690 -0.008054 0.000000 0.000000 0.000000
# 3 -0.001337 -0.008054 0.012192 0.000000 0.000000 0.000000
# 4 0.000000 0.000000 0.000000 0.063632 0.000000 0.000000
# 5 0.000000 0.000000 0.000000 0.000000 0.033955 0.000000
# 6 0.000000 0.000000 0.000000 0.000000 0.000000 0.038654
#
#
# Mechanical properties :
#
#
# Convention : Reuss Voigt Hill
#
# Bulk Modulus (GPa) = 24.37345 49.72352 37.04849
# Shear Modulus (GPa) = 18.97437 27.11292 23.04365
#
# Velocity S-wave (km/s) = 3.10258 3.70875 3.41912
# Velocity P-wave (km/s) = 5.01993 6.60040 5.86366
#
# Compressibility (1/GPa) = 0.04102825
#
# Stress axis : x y z
#
# Youngs Moduli (GPa) = 118.61509 17.63991 82.01921
#
# Poissons Ratio (x) = 0.15436 0.10970
# Poissons Ratio (y) = 1.03794 0.66059
# Poissons Ratio (z) = 0.15865 0.14207
#
# Static dielectric constant tensor:
#      x y z
#    x 1.736150 0.000000 0.000000 
#    y 0.000000 1.706150 0.000000 
#    z 0.000000 0.000000 1.830880 
# 
# From -- ./inp_files/28105.got.cif
#   From: 2010.05.17/outbox.cif.g08.bks.cpg/sg72_15_cif.got.tgz:28105.got - 2010.06.03 17:03:01.
