data_PCOD9527699
_publ_section_title
;
Structure prediction by ZEFSAII (Michael W. Deem and Ramdas Pophale) SiO2 
 PCOD9527699
Probable space group: I B A M
;
_chemical_formula_sum "Si O2"
_cell_formula_units_Z 64
_cell_length_a 19.584478
_cell_length_b 8.795367
_cell_length_c 13.967793
_cell_angle_alpha 90.000000
_cell_angle_beta 90.000000
_cell_angle_gamma 90.000000
_cell_volume 2405.989659
_symmetry_space_group_name_H-M "I B A M"
_symmetry_group_IT_number 72
_symmetry_cell_setting 'orthorhombic'
loop_
_space_group_symop_operation_xyz
x,y,z
-x,-y,z
x,-y,1/2-z
-x,y,1/2-z
-x,-y,-z
x,y,-z
-x,y,1/2+z
x,-y,1/2+z
1/2+x,1/2+y,1/2+z
1/2-x,1/2-y,1/2+z
1/2+x,1/2-y,-z
1/2-x,1/2+y,-z
1/2-x,1/2-y,1/2-z
1/2+x,1/2+y,1/2-z
1/2-x,1/2+y,z
1/2+x,1/2-y,z
loop_
_atom_site_type_symbol
_atom_site_label
_atom_site_fract_x
_atom_site_fract_y
_atom_site_fract_z
Si Si1 0.337889 0.206835 0.318763
Si Si2 0.983703 0.171657 0.362441
Si Si3 0.717724 0.498151 0.392656
Si Si4 0.376736 0.792018 0.395524
O O1 0.408189 0.258290 0.371428
O O2 0.295567 0.365540 0.319206
O O3 0.287504 0.092260 0.372648
O O4 0.357373 0.154122 0.211450
O O5 0.000000 0.162698 0.250000
O O6 0.042065 0.282212 0.399334
O O7 0.000000 0.000000 0.397930
O O8 0.716651 0.564348 0.500000
O O9 0.656435 0.376762 0.390996
O O10 0.355058 0.854349 0.500000
#
# Coordination Sequence:
#
# PCOD9527699 Si02
#       4
#    16  16  16  16
#     4  11  22  41  64  94 134 170 208 270 330 382
#     4   9  17  34  62  91 122 161 213 271 321 364
#     4  11  23  38  61  92 128 169 215 264 327 392
#     4  10  21  36  60  95 127 167 218 268 320 380
#
# _framework density 26.600282
#
# number of rings (size 3 to 8) (size 9 to 14) (size 15 to 20)
#    0.000    1.750    2.500    2.250    0.000    2.500 
#    0.000    3.750    0.000    1.500    0.000   19.250 
#    0.000    0.000    0.000    2.500    0.000    0.250 
#
# Total GULP energy -178992.072358 kJ/mol
# GULP energy per Si atom -5593.502261 kJ/mol
# Density = 2.653974 g / cm^3
# Si number density = 26.600282 Si / 1000 Ang^3
#
#
#
# Elastic Constant Matrix: (Units=GPa)
#
#
# Indices 1 2 3 4 5 6 
#
# 1 219.9316 55.5069 19.3682 0.0000 0.0000 0.0000
# 2 55.5069 82.9476 39.6585 0.0000 0.0000 0.0000
# 3 19.3682 39.6585 189.4016 0.0000 0.0000 0.0000
# 4 0.0000 0.0000 0.0000 11.2425 0.0000 0.0000
# 5 0.0000 0.0000 0.0000 0.0000 4.6132 0.0000
# 6 0.0000 0.0000 0.0000 0.0000 0.0000 16.1263
#
#
#
# Elastic Compliance Matrix: (Units=1/GPa)
#
#
# Indices 1 2 3 4 5 6 
#
# 1 0.005480 -0.003777 0.000231 0.000000 0.000000 0.000000
# 2 -0.003777 0.016001 -0.002964 0.000000 0.000000 0.000000
# 3 0.000231 -0.002964 0.005877 0.000000 0.000000 0.000000
# 4 0.000000 0.000000 0.000000 0.088948 0.000000 0.000000
# 5 0.000000 0.000000 0.000000 0.000000 0.216768 0.000000
# 6 0.000000 0.000000 0.000000 0.000000 0.000000 0.062010
#
#
# Mechanical properties :
#
#
# Convention : Reuss Voigt Hill
#
# Bulk Modulus (GPa) = 69.75552 80.14977 74.95264
# Shear Modulus (GPa) = 12.10995 31.57956 21.84475
#
# Velocity S-wave (km/s) = 2.13599 3.44930 2.86881
# Velocity P-wave (km/s) = 5.68892 6.78676 6.26195
#
# Compressibility (1/GPa) = 0.01433578
#
# Stress axis : x y z
#
# Youngs Moduli (GPa) = 182.48571 62.49746 170.15904
#
# Poissons Ratio (x) = 0.23607 -0.03923
# Poissons Ratio (y) = 0.68930 0.50437
# Poissons Ratio (z) = -0.04207 0.18525
#
# Static dielectric constant tensor:
#      x y z
#    x 2.055590 0.000000 0.000000 
#    y 0.000000 2.069040 0.000000 
#    z 0.000000 0.000000 2.161300 
# 
# From -- ./inp_files/23854.got.cif
#   From: 2010.05.17/outbox.cif.g08.bks.cpg/sg72_12_cif.got.tgz:23854.got - 2010.06.03 17:03:01.
