data_PCOD9527583
_publ_section_title
;
Structure prediction by ZEFSAII (Michael W. Deem and Ramdas Pophale) SiO2 
 PCOD9527583
Probable space group: I B A M
;
_chemical_formula_sum "Si O2"
_cell_formula_units_Z 80
_cell_length_a 15.010201
_cell_length_b 13.212092
_cell_length_c 18.324593
_cell_angle_alpha 90.000000
_cell_angle_beta 90.000000
_cell_angle_gamma 90.000000
_cell_volume 3634.062854
_symmetry_space_group_name_H-M "I B A M"
_symmetry_group_IT_number 72
_symmetry_cell_setting 'orthorhombic'
loop_
_space_group_symop_operation_xyz
x,y,z
-x,-y,z
x,-y,1/2-z
-x,y,1/2-z
-x,-y,-z
x,y,-z
-x,y,1/2+z
x,-y,1/2+z
1/2+x,1/2+y,1/2+z
1/2-x,1/2-y,1/2+z
1/2+x,1/2-y,-z
1/2-x,1/2+y,-z
1/2-x,1/2-y,1/2-z
1/2+x,1/2+y,1/2-z
1/2-x,1/2+y,z
1/2+x,1/2-y,z
loop_
_atom_site_type_symbol
_atom_site_label
_atom_site_fract_x
_atom_site_fract_y
_atom_site_fract_z
Si Si1 0.873694 0.102834 0.415577
Si Si2 0.717819 0.010147 0.336730
Si Si3 0.554210 0.299919 0.415738
Si Si4 0.659543 0.779392 0.207019
Si Si5 0.395729 0.184609 0.636894
O O1 0.858970 0.083786 0.500000
O O2 0.814200 0.025548 0.371576
O O3 0.843252 0.218084 0.395507
O O4 0.979600 0.113113 0.403552
O O5 0.669106 0.118322 0.339578
O O6 0.728764 0.000000 0.250000
O O7 0.658730 0.919273 0.369048
O O8 0.584276 0.303167 0.500000
O O9 0.625824 0.300995 0.351671
O O10 0.491278 0.199782 0.401784
O O11 0.750000 0.750000 0.250000
O O12 0.595035 0.796286 0.276269
#
# Coordination Sequence:
#
# PCOD9527583 Si02
#       5
#    16  16  16  16  16
#     4   9  19  37  58  88 127 167 207 259 321 380
#     4  10  21  34  60  93 122 165 218 266 308 375
#     4   9  20  37  58  89 129 167 204 263 330 382
#     4  11  19  35  59  88 121 163 215 265 315 381
#     4   9  19  36  58  88 124 163 214 257 316 375
#
# _framework density 22.013929000000001
#
# number of rings (size 3 to 8) (size 9 to 14) (size 15 to 20)
#    1.200    1.200    2.000    0.600    0.000    3.200 
#    0.000    4.000    0.000    8.400    0.000   11.200 
#    0.000    0.000    0.000    0.000    0.000    0.000 
#
# Total GULP energy -222788.313303 kJ/mol
# GULP energy per Si atom -5569.707833 kJ/mol
# Density = 2.196382 g / cm^3
# Si number density = 22.013929 Si / 1000 Ang^3
#
#
#
# Elastic Constant Matrix: (Units=GPa)
#
#
# Indices 1 2 3 4 5 6 
#
# 1 73.1191 30.8329 42.9846 0.0000 0.0000 0.0000
# 2 30.8329 110.7631 12.1485 0.0000 0.0000 0.0000
# 3 42.9846 12.1485 56.5701 0.0000 0.0000 0.0000
# 4 0.0000 0.0000 0.0000 4.5189 0.0000 0.0000
# 5 0.0000 0.0000 0.0000 0.0000 37.5213 0.0000
# 6 0.0000 0.0000 0.0000 0.0000 0.0000 25.4894
#
#
#
# Elastic Compliance Matrix: (Units=1/GPa)
#
#
# Indices 1 2 3 4 5 6 
#
# 1 0.027668 -0.005526 -0.019837 0.000000 0.000000 0.000000
# 2 -0.005526 0.010350 0.001976 0.000000 0.000000 0.000000
# 3 -0.019837 0.001976 0.032326 0.000000 0.000000 0.000000
# 4 0.000000 0.000000 0.000000 0.221294 0.000000 0.000000
# 5 0.000000 0.000000 0.000000 0.000000 0.026652 0.000000
# 6 0.000000 0.000000 0.000000 0.000000 0.000000 0.039232
#
#
# Mechanical properties :
#
#
# Convention : Reuss Voigt Hill
#
# Bulk Modulus (GPa) = 42.42592 45.82047 44.12320
# Shear Modulus (GPa) = 12.13147 23.80500 17.96823
#
# Velocity S-wave (km/s) = 2.35006 3.29197 2.86006
# Velocity P-wave (km/s) = 5.16506 5.94213 5.56717
#
# Compressibility (1/GPa) = 0.02357050
#
# Stress axis : x y z
#
# Youngs Moduli (GPa) = 36.14276 96.62006 30.93522
#
# Poissons Ratio (x) = 0.53394 0.61365
# Poissons Ratio (y) = 0.19973 -0.06114
# Poissons Ratio (z) = 0.71695 -0.19096
#
# Static dielectric constant tensor:
#      x y z
#    x 1.909450 0.000000 0.000000 
#    y 0.000000 1.935440 0.000000 
#    z 0.000000 0.000000 1.790500 
# 
# From -- ./inp_files/31391.got.cif
#   From: 2010.05.17/outbox.cif.g08.bks.cpg/sg72_16_cif.got.tgz:31391.got - 2010.06.03 17:03:01.
