data_PCOD9527453
_publ_section_title
;
Structure prediction by ZEFSAII (Michael W. Deem and Ramdas Pophale) SiO2 
 PCOD9527453
Probable space group: I B A M
;
_chemical_formula_sum "Si O2"
_cell_formula_units_Z 80
_cell_length_a 9.148408
_cell_length_b 25.590709
_cell_length_c 16.476764
_cell_angle_alpha 90.000000
_cell_angle_beta 90.000000
_cell_angle_gamma 90.000000
_cell_volume 3857.445196
_symmetry_space_group_name_H-M "I B A M"
_symmetry_group_IT_number 72
_symmetry_cell_setting 'orthorhombic'
loop_
_space_group_symop_operation_xyz
x,y,z
-x,-y,z
x,-y,1/2-z
-x,y,1/2-z
-x,-y,-z
x,y,-z
-x,y,1/2+z
x,-y,1/2+z
1/2+x,1/2+y,1/2+z
1/2-x,1/2-y,1/2+z
1/2+x,1/2-y,-z
1/2-x,1/2+y,-z
1/2-x,1/2-y,1/2-z
1/2+x,1/2+y,1/2-z
1/2-x,1/2+y,z
1/2+x,1/2-y,z
loop_
_atom_site_type_symbol
_atom_site_label
_atom_site_fract_x
_atom_site_fract_y
_atom_site_fract_z
Si Si1 0.816216 0.274358 0.090281
Si Si2 0.662076 0.914454 0.742529
Si Si3 0.680381 0.613112 0.590923
Si Si4 0.936315 0.945476 0.340965
Si Si5 0.898892 0.702727 0.821581
O O1 0.714381 0.325645 0.094807
O O2 0.743897 0.233912 0.152325
O O3 0.980339 0.294630 0.107265
O O4 0.810680 0.251857 0.000000
O O5 0.500000 0.936231 0.750000
O O6 0.732314 0.911763 0.832847
O O7 0.765285 0.943562 0.677828
O O8 0.645222 0.854901 0.709011
O O9 0.722166 0.595149 0.500000
O O10 0.510454 0.599713 0.606579
O O11 0.000000 0.939329 0.250000
O O12 0.000000 0.000000 0.373193
O O13 0.000000 0.726272 0.750000
#
# Coordination Sequence:
#
# PCOD9527453 Si02
#       5
#    16  16  16  16  16
#     4  11  23  38  56  85 123 160 206 255 305 357
#     4  10  20  40  64  89 120 163 207 254 309 367
#     4  10  21  38  59  86 125 161 200 259 313 364
#     4   9  20  39  64  90 118 157 210 252 306 378
#     4  11  22  37  58  85 117 163 206 248 299 364
#
# _framework density 20.739115999999999
#
# number of rings (size 3 to 8) (size 9 to 14) (size 15 to 20)
#    0.000    1.800    4.000    1.200    2.800    1.200 
#    0.000   10.000    0.000    1.200    0.000    0.000 
#    0.000    0.000    0.000    0.000    0.000    0.000 
#
# Total GULP energy -222940.477169 kJ/mol
# GULP energy per Si atom -5573.511929 kJ/mol
# Density = 2.069191 g / cm^3
# Si number density = 20.739116 Si / 1000 Ang^3
#
#
#
# Elastic Constant Matrix: (Units=GPa)
#
#
# Indices 1 2 3 4 5 6 
#
# 1 132.5362 39.4665 25.9471 0.0000 0.0000 0.0000
# 2 39.4665 46.0756 28.3866 -0.0001 0.0000 0.0000
# 3 25.9471 28.3866 64.1743 -0.0001 0.0000 0.0000
# 4 0.0000 -0.0001 -0.0001 -40.5467 0.0000 0.0000
# 5 0.0000 0.0000 0.0000 0.0000 23.5744 0.0000
# 6 0.0000 0.0000 0.0000 0.0000 0.0000 24.0455
#
#
#
# Elastic Compliance Matrix: (Units=1/GPa)
#
#
# Indices 1 2 3 4 5 6 
#
# 1 0.010134 -0.008462 -0.000354 0.000000 0.000000 0.000000
# 2 -0.008462 0.036900 -0.012901 0.000000 0.000000 0.000000
# 3 -0.000354 -0.012901 0.021432 0.000000 0.000000 0.000000
# 4 0.000000 0.000000 0.000000 -0.024663 0.000000 0.000000
# 5 0.000000 0.000000 0.000000 0.000000 0.042419 0.000000
# 6 0.000000 0.000000 0.000000 0.000000 0.000000 0.041588
#
#
# Mechanical properties :
#
#
# Convention : Reuss Voigt Hill
#
# Bulk Modulus (GPa) = 39.94915 47.82072 43.88494
# Shear Modulus (GPa) = 27.84132 11.34703 19.59418
#
# Velocity S-wave (km/s) = 3.66793 2.34162 3.07708
# Velocity P-wave (km/s) = 6.10269 5.51536 5.81644
#
# Compressibility (1/GPa) = 0.02503182
#
# Stress axis : x y z
#
# Youngs Moduli (GPa) = 98.67374 27.10030 46.65864
#
# Poissons Ratio (x) = 0.22933 0.01653
# Poissons Ratio (y) = 0.83502 0.60193
# Poissons Ratio (z) = 0.03496 0.34961
#
# Static dielectric constant tensor:
#      x y z
#    x 1.807890 0.000000 0.000000 
#    y 0.000000 1.773650 0.000000 
#    z 0.000000 0.000000 1.786410 
# 
# From -- ./inp_files/28331.got.cif
#   From: 2010.05.17/outbox.cif.g08.bks.cpg/sg72_15_cif.got.tgz:28331.got - 2010.06.03 17:03:01.
