data_PCOD9527002
_publ_section_title
;
Structure prediction by ZEFSAII (Michael W. Deem and Ramdas Pophale) SiO2 
 PCOD9527002
Probable space group: I B A M
;
_chemical_formula_sum "Si O2"
_cell_formula_units_Z 116
_cell_length_a 27.719931
_cell_length_b 25.454457
_cell_length_c 8.332601
_cell_angle_alpha 90.000000
_cell_angle_beta 90.000000
_cell_angle_gamma 90.000000
_cell_volume 5879.448199
_symmetry_space_group_name_H-M "I B A M"
_symmetry_group_IT_number 72
_symmetry_cell_setting 'orthorhombic'
loop_
_space_group_symop_operation_xyz
x,y,z
-x,-y,z
x,-y,1/2-z
-x,y,1/2-z
-x,-y,-z
x,y,-z
-x,y,1/2+z
x,-y,1/2+z
1/2+x,1/2+y,1/2+z
1/2-x,1/2-y,1/2+z
1/2+x,1/2-y,-z
1/2-x,1/2+y,-z
1/2-x,1/2-y,1/2-z
1/2+x,1/2+y,1/2-z
1/2-x,1/2+y,z
1/2+x,1/2-y,z
loop_
_atom_site_type_symbol
_atom_site_label
_atom_site_fract_x
_atom_site_fract_y
_atom_site_fract_z
Si Si1 0.648260 0.850885 0.309534
Si Si2 0.718170 0.940438 0.309641
Si Si3 0.695356 0.255178 0.312224
Si Si4 0.926581 0.913118 0.807337
Si Si5 0.597209 0.303643 0.306195
Si Si6 0.000000 0.000000 0.250000
Si Si7 0.181710 0.940251 0.690999
Si Si8 0.946309 0.689480 0.308897
O O1 0.656579 0.843943 0.500000
O O2 0.674935 0.903467 0.254830
O O3 0.671489 0.801482 0.218939
O O4 0.591898 0.849088 0.272988
O O5 0.718218 0.942676 0.500000
O O6 0.769420 0.915375 0.257742
O O7 0.714081 0.000000 0.250000
O O8 0.698926 0.266343 0.500000
O O9 0.750000 0.250000 0.250000
O O10 0.653497 0.295721 0.249332
O O11 0.932271 0.851662 0.771153
O O12 0.959535 0.954449 0.709552
O O13 0.870649 0.920421 0.760052
O O14 0.933452 0.924324 0.000000
O O15 0.597754 0.310546 0.500000
O O16 0.570779 0.248872 0.268591
O O17 0.183992 0.938300 0.500000
O O18 0.183556 0.000000 0.750000
O O19 0.942959 0.684106 0.500000
O O20 0.000000 0.681003 0.250000
#
# Coordination Sequence:
#
# PCOD9527002 Si02
#       8
#    16  16  16  16  16   4  16  16
#     4  10  21  37  58  87 120 156 196 241 290 352
#     4  10  21  36  58  88 120 157 196 237 288 344
#     4  10  21  37  57  86 120 157 195 239 300 363
#     4  11  25  41  60  83 107 146 197 249 308 363
#     4   9  22  40  58  83 115 150 191 240 295 356
#     4  12  26  48  60  82 114 152 204 270 322 368
#     4  10  20  36  55  79 107 143 190 237 290 352
#     4  10  21  39  62  89 118 154 194 240 293 349
#
# _framework density 19.729742999999999
#
# number of rings (size 3 to 8) (size 9 to 14) (size 15 to 20)
#    0.000    1.931    0.690    3.931    2.897    7.724 
#    0.000    0.000    0.000    0.414    0.000    2.897 
#    0.000    0.000    0.000    0.000    0.000    0.000 
#
# Total GULP energy -323223.859387 kJ/mol
# GULP energy per Si atom -5572.825162 kJ/mol
# Density = 1.968484 g / cm^3
# Si number density = 19.729743 Si / 1000 Ang^3
#
#
#
# Elastic Constant Matrix: (Units=GPa)
#
#
# Indices 1 2 3 4 5 6 
#
# 1 142.1592 45.2172 12.3738 0.0000 0.0000 0.0000
# 2 45.2172 69.9703 4.3495 0.0000 0.0000 0.0000
# 3 12.3738 4.3495 12.6984 0.0000 0.0000 0.0000
# 4 0.0000 0.0000 0.0000 -1.3306 0.0000 0.0000
# 5 0.0000 0.0000 0.0000 0.0000 7.0388 0.0000
# 6 0.0000 0.0000 0.0000 0.0000 0.0000 22.3561
#
#
#
# Elastic Compliance Matrix: (Units=1/GPa)
#
#
# Indices 1 2 3 4 5 6 
#
# 1 0.009472 -0.005668 -0.007288 0.000000 0.000000 0.000000
# 2 -0.005668 0.017994 -0.000641 0.000000 0.000000 0.000000
# 3 -0.007288 -0.000641 0.086071 0.000000 0.000000 0.000000
# 4 0.000000 0.000000 0.000000 -0.751557 0.000000 0.000000
# 5 0.000000 0.000000 0.000000 0.000000 0.142070 0.000000
# 6 0.000000 0.000000 0.000000 0.000000 0.000000 0.044731
#
#
# Mechanical properties :
#
#
# Convention : Reuss Voigt Hill
#
# Bulk Modulus (GPa) = 11.58156 38.74546 25.16351
# Shear Modulus (GPa) = -12.65036 16.47202 1.91083
#
# Velocity S-wave (km/s) = -2.53490 2.89257 0.98519
# Velocity P-wave (km/s) = 1.63854 5.55308 3.75179
#
# Compressibility (1/GPa) = 0.08634419
#
# Stress axis : x y z
#
# Youngs Moduli (GPa) = 105.57978 55.57314 11.61829
#
# Poissons Ratio (x) = 0.31498 0.08467
# Poissons Ratio (y) = 0.59840 0.00744
# Poissons Ratio (z) = 0.76947 0.03560
#
# Static dielectric constant tensor:
#      x y z
#    x 1.742510 0.000000 0.000000 
#    y 0.000000 1.702040 0.000000 
#    z 0.000000 0.000000 1.708820 
# 
# From -- ./inp_files/7282.got.cif
#   From: 2010.05.17/outbox.cif.g08.bks.cpg/sg72_4_cif.got.tgz:7282.got - 2010.06.03 17:03:01.
