data_PCOD9527195
_publ_section_title
;
Structure prediction by ZEFSAII (Michael W. Deem and Ramdas Pophale) SiO2 
 PCOD9527195
Probable space group: I B A M
;
_chemical_formula_sum "Si O2"
_cell_formula_units_Z 68
_cell_length_a 11.332746
_cell_length_b 19.146863
_cell_length_c 14.457294
_cell_angle_alpha 90.000000
_cell_angle_beta 90.000000
_cell_angle_gamma 90.000000
_cell_volume 3137.038132
_symmetry_space_group_name_H-M "I B A M"
_symmetry_group_IT_number 72
_symmetry_cell_setting 'orthorhombic'
loop_
_space_group_symop_operation_xyz
x,y,z
-x,-y,z
x,-y,1/2-z
-x,y,1/2-z
-x,-y,-z
x,y,-z
-x,y,1/2+z
x,-y,1/2+z
1/2+x,1/2+y,1/2+z
1/2-x,1/2-y,1/2+z
1/2+x,1/2-y,-z
1/2-x,1/2+y,-z
1/2-x,1/2-y,1/2-z
1/2+x,1/2+y,1/2-z
1/2-x,1/2+y,z
1/2+x,1/2-y,z
loop_
_atom_site_type_symbol
_atom_site_label
_atom_site_fract_x
_atom_site_fract_y
_atom_site_fract_z
Si Si1 0.500000 0.500000 0.250000
Si Si2 0.550218 0.197284 0.614525
Si Si3 0.798779 0.756824 0.892673
Si Si4 0.644096 0.578991 0.401012
Si Si5 0.890936 0.539080 0.348652
O O1 0.573666 0.549795 0.315989
O O2 0.554138 0.193893 0.500000
O O3 0.662711 0.246571 0.642915
O O4 0.418497 0.220637 0.643689
O O5 0.574891 0.120552 0.654618
O O6 0.827339 0.839338 0.890782
O O7 0.791774 0.734075 0.000000
O O8 0.583091 0.570101 0.500000
O O9 0.767420 0.537958 0.399876
O O10 0.875458 0.500000 0.250000
O O11 0.000000 0.500000 0.394718
#
# Coordination Sequence:
#
# PCOD9527195 Si02
#       5
#     4  16  16  16  16
#     4  12  22  40  58  86 128 164 208 262 300 374
#     4   9  17  33  59  88 119 156 201 258 315 369
#     4   8  16  33  56  86 117 150 199 252 309 369
#     4  10  21  39  63  88 122 168 208 256 314 369
#     4  10  20  37  59  86 126 163 204 256 308 369
#
# _framework density 21.676497999999999
#
# number of rings (size 3 to 8) (size 9 to 14) (size 15 to 20)
#    0.000    2.588    1.176    2.471    0.000    1.882 
#    4.235    2.353    0.000   14.118    0.000    0.000 
#    0.000    0.000    0.000    0.000    0.000    0.000 
#
# Total GULP energy -189498.328242 kJ/mol
# GULP energy per Si atom -5573.480242 kJ/mol
# Density = 2.162716 g / cm^3
# Si number density = 21.676498 Si / 1000 Ang^3
#
#
#
# Elastic Constant Matrix: (Units=GPa)
#
#
# Indices 1 2 3 4 5 6 
#
# 1 143.5420 39.9872 38.3786 0.0000 0.0000 0.0000
# 2 39.9872 46.0852 20.7051 0.0000 0.0000 0.0000
# 3 38.3786 20.7051 104.6975 0.0001 0.0000 0.0001
# 4 0.0000 0.0000 0.0001 22.3599 0.0000 0.0000
# 5 0.0000 0.0000 0.0000 0.0000 16.4684 0.0000
# 6 0.0000 0.0000 0.0001 0.0000 0.0000 31.4952
#
#
#
# Elastic Compliance Matrix: (Units=1/GPa)
#
#
# Indices 1 2 3 4 5 6 
#
# 1 0.009571 -0.007385 -0.002048 0.000000 0.000000 0.000000
# 2 -0.007385 0.029512 -0.003129 0.000000 0.000000 0.000000
# 3 -0.002048 -0.003129 0.010921 0.000000 0.000000 0.000000
# 4 0.000000 0.000000 0.000000 0.044723 0.000000 0.000000
# 5 0.000000 0.000000 0.000000 0.000000 0.060722 0.000000
# 6 0.000000 0.000000 0.000000 0.000000 0.000000 0.031751
#
#
# Mechanical properties :
#
#
# Convention : Reuss Voigt Hill
#
# Bulk Modulus (GPa) = 40.19249 54.71852 47.45550
# Shear Modulus (GPa) = 22.66351 27.08162 24.87256
#
# Velocity S-wave (km/s) = 3.23698 3.53845 3.39107
# Velocity P-wave (km/s) = 5.70552 6.48014 6.10513
#
# Compressibility (1/GPa) = 0.02488027
#
# Stress axis : x y z
#
# Youngs Moduli (GPa) = 104.47778 33.88398 91.56683
#
# Poissons Ratio (x) = 0.25022 0.18754
# Poissons Ratio (y) = 0.77154 0.28655
# Poissons Ratio (z) = 0.21399 0.10604
#
# Static dielectric constant tensor:
#      x y z
#    x 1.850010 0.000000 0.000000 
#    y 0.000000 1.751260 0.000000 
#    z 0.000000 0.000000 1.341000 
# 
# From -- ./inp_files/19925.got.cif
#   From: 2010.05.17/outbox.cif.g08.bks.cpg/sg72_10_cif.got.tgz:19925.got - 2010.06.03 17:03:01.
