data_PCOD9527018
_publ_section_title
;
Structure prediction by ZEFSAII (Michael W. Deem and Ramdas Pophale) SiO2 
 PCOD9527018
Probable space group: I B A M
;
_chemical_formula_sum "Si O2"
_cell_formula_units_Z 80
_cell_length_a 7.626754
_cell_length_b 21.238432
_cell_length_c 22.126792
_cell_angle_alpha 90.000000
_cell_angle_beta 90.000000
_cell_angle_gamma 90.000000
_cell_volume 3584.104322
_symmetry_space_group_name_H-M "I B A M"
_symmetry_group_IT_number 72
_symmetry_cell_setting 'orthorhombic'
loop_
_space_group_symop_operation_xyz
x,y,z
-x,-y,z
x,-y,1/2-z
-x,y,1/2-z
-x,-y,-z
x,y,-z
-x,y,1/2+z
x,-y,1/2+z
1/2+x,1/2+y,1/2+z
1/2-x,1/2-y,1/2+z
1/2+x,1/2-y,-z
1/2-x,1/2+y,-z
1/2-x,1/2-y,1/2-z
1/2+x,1/2+y,1/2-z
1/2-x,1/2+y,z
1/2+x,1/2-y,z
loop_
_atom_site_type_symbol
_atom_site_label
_atom_site_fract_x
_atom_site_fract_y
_atom_site_fract_z
Si Si1 0.268292 0.227183 0.500000
Si Si2 0.566893 0.692600 0.124202
Si Si3 0.061096 0.930912 0.928831
Si Si4 0.969910 0.572052 0.107306
Si Si5 0.911405 0.311151 0.686149
Si Si6 0.624062 0.856268 0.000000
O O1 0.166732 0.208004 0.561185
O O2 0.450680 0.189296 0.500000
O O3 0.275637 0.303528 0.500000
O O4 0.479742 0.625602 0.110398
O O5 0.702610 0.683779 0.179597
O O6 0.454233 0.752461 0.142317
O O7 0.271616 0.925424 0.919505
O O8 0.021396 0.924015 0.000000
O O9 0.000000 0.000000 0.909776
O O10 0.981735 0.623216 0.159962
O O11 0.000000 0.500000 0.124359
O O12 0.103279 0.597513 0.056621
O O13 0.000000 0.299541 0.750000
#
# Coordination Sequence:
#
# PCOD9527018 Si02
#       6
#     8  16  16  16  16   8
#     4  12  18  38  62  92 119 156 187 256 316 355
#     4  11  20  39  61  88 124 151 205 255 306 366
#     4  10  20  36  56  89 127 158 187 239 309 376
#     4  11  22  39  58  84 124 159 199 253 301 371
#     4  11  24  40  61  85 116 163 208 255 300 361
#     4  12  21  38  58  94 129 151 199 248 323 367
#
# _framework density 22.320779000000002
#
# number of rings (size 3 to 8) (size 9 to 14) (size 15 to 20)
#    0.000    1.000    8.000    0.900    0.000    2.000 
#    3.600    0.000    0.000    3.000    0.000    0.000 
#    0.000    0.000    0.000    0.000    0.000    0.000 
#
# Total GULP energy -223770.261339 kJ/mol
# GULP energy per Si atom -5594.256533 kJ/mol
# Density = 2.226998 g / cm^3
# Si number density = 22.320779 Si / 1000 Ang^3
#
#
#
# Elastic Constant Matrix: (Units=GPa)
#
#
# Indices 1 2 3 4 5 6 
#
# 1 52.3901 32.0537 23.1105 0.0000 0.0000 0.0000
# 2 32.0537 241.6740 53.4335 0.0000 0.0000 0.0000
# 3 23.1105 53.4335 77.8746 0.0000 0.0000 0.0000
# 4 0.0000 0.0000 0.0000 20.2503 0.0000 0.0000
# 5 0.0000 0.0000 0.0000 0.0000 14.7351 0.0000
# 6 0.0000 0.0000 0.0000 0.0000 0.0000 38.2505
#
#
#
# Elastic Compliance Matrix: (Units=1/GPa)
#
#
# Indices 1 2 3 4 5 6 
#
# 1 0.022598 -0.001785 -0.005481 0.000000 0.000000 0.000000
# 2 -0.001785 0.005019 -0.002914 0.000000 0.000000 0.000000
# 3 -0.005481 -0.002914 0.016467 0.000000 0.000000 0.000000
# 4 0.000000 0.000000 0.000000 0.049382 0.000000 0.000000
# 5 0.000000 0.000000 0.000000 0.000000 0.067865 0.000000
# 6 0.000000 0.000000 0.000000 0.000000 0.000000 0.026143
#
#
# Mechanical properties :
#
#
# Convention : Reuss Voigt Hill
#
# Bulk Modulus (GPa) = 42.15331 65.45935 53.80633
# Shear Modulus (GPa) = 23.17577 32.20325 27.68951
#
# Velocity S-wave (km/s) = 3.22577 3.80247 3.52593
# Velocity P-wave (km/s) = 5.72716 6.97630 6.38236
#
# Compressibility (1/GPa) = 0.02372293
#
# Stress axis : x y z
#
# Youngs Moduli (GPa) = 44.25211 199.24927 60.72693
#
# Poissons Ratio (x) = 0.35572 0.33286
# Poissons Ratio (y) = 0.07900 0.17695
# Poissons Ratio (z) = 0.24256 0.58058
#
# Static dielectric constant tensor:
#      x y z
#    x 1.926580 0.000000 0.000000 
#    y 0.000000 1.858130 0.000000 
#    z 0.000000 0.000000 1.794160 
# 
# From -- ./inp_files/42216.got.cif
#   From: 2010.05.17/outbox.cif.g08.bks.cpg/sg72_22_cif.got.tgz:42216.got - 2010.06.03 17:03:01.
