data_PCOD9527084
_publ_section_title
;
Structure prediction by ZEFSAII (Michael W. Deem and Ramdas Pophale) SiO2 
 PCOD9527084
Probable space group: I B A M
;
_chemical_formula_sum "Si O2"
_cell_formula_units_Z 112
_cell_length_a 12.553002
_cell_length_b 27.590405
_cell_length_c 16.408796
_cell_angle_alpha 90.000000
_cell_angle_beta 90.000000
_cell_angle_gamma 90.000000
_cell_volume 5683.061938
_symmetry_space_group_name_H-M "I B A M"
_symmetry_group_IT_number 72
_symmetry_cell_setting 'orthorhombic'
loop_
_space_group_symop_operation_xyz
x,y,z
-x,-y,z
x,-y,1/2-z
-x,y,1/2-z
-x,-y,-z
x,y,-z
-x,y,1/2+z
x,-y,1/2+z
1/2+x,1/2+y,1/2+z
1/2-x,1/2-y,1/2+z
1/2+x,1/2-y,-z
1/2-x,1/2+y,-z
1/2-x,1/2-y,1/2-z
1/2+x,1/2+y,1/2-z
1/2-x,1/2+y,z
1/2+x,1/2-y,z
loop_
_atom_site_type_symbol
_atom_site_label
_atom_site_fract_x
_atom_site_fract_y
_atom_site_fract_z
Si Si1 0.405520 0.302365 0.905475
Si Si2 0.745032 0.554325 0.404443
Si Si3 0.607720 0.477557 0.659002
Si Si4 0.515822 0.798426 0.593509
Si Si5 0.518846 0.604357 0.403349
Si Si6 0.715257 0.199106 0.211015
Si Si7 0.905049 0.619347 0.313752
O O1 0.437194 0.246747 0.892464
O O2 0.505117 0.338274 0.892074
O O3 0.312021 0.317100 0.845755
O O4 0.373091 0.307834 0.000000
O O5 0.767367 0.560715 0.500000
O O6 0.709633 0.498983 0.386226
O O7 0.636966 0.584992 0.384034
O O8 0.840245 0.574250 0.349486
O O9 0.500000 0.500000 0.619359
O O10 0.613610 0.500000 0.750000
O O11 0.573896 0.421987 0.649589
O O12 0.550361 0.796897 0.500000
O O13 0.613405 0.791876 0.654087
O O14 0.458709 0.848747 0.614966
O O15 0.500290 0.594097 0.500000
O O16 0.750000 0.250000 0.250000
O O17 0.677677 0.156775 0.271604
O O18 0.000000 0.607405 0.250000
#
# Coordination Sequence:
#
# PCOD9527084 Si02
#       7
#    16  16  16  16  16  16  16
#     4  10  21  35  54  80 111 150 191 230 282 344
#     4  10  20  36  60  87 112 152 192 232 287 346
#     4   9  18  33  53  86 123 151 180 220 285 347
#     4  10  21  38  55  75 109 151 196 242 285 341
#     4   9  19  34  54  85 120 148 182 231 281 345
#     4  11  22  36  52  77 111 151 190 236 294 336
#     4  10  22  38  55  82 113 148 199 245 291 331
#
# _framework density 19.707685000000001
#
# number of rings (size 3 to 8) (size 9 to 14) (size 15 to 20)
#    0.000    2.143    1.429    1.286    4.000    1.714 
#    0.000    0.000    0.000    0.429    0.000    1.000 
#    0.000    0.000    0.000    0.000    0.000    0.000 
#
# Total GULP energy -312280.075802 kJ/mol
# GULP energy per Si atom -5576.429925 kJ/mol
# Density = 1.966283 g / cm^3
# Si number density = 19.707685 Si / 1000 Ang^3
#
#
#
# Elastic Constant Matrix: (Units=GPa)
#
#
# Indices 1 2 3 4 5 6 
#
# 1 56.7276 18.4223 23.4057 0.0000 0.0000 0.0000
# 2 18.4223 50.9010 11.7041 0.0000 0.0000 0.0000
# 3 23.4057 11.7041 54.6872 0.0002 0.0000 0.0000
# 4 0.0000 0.0000 0.0002 18.0241 0.0000 0.0000
# 5 0.0000 0.0000 0.0000 0.0000 27.3204 0.0000
# 6 0.0000 0.0000 0.0000 0.0000 0.0000 24.0845
#
#
#
# Elastic Compliance Matrix: (Units=1/GPa)
#
#
# Indices 1 2 3 4 5 6 
#
# 1 0.023260 -0.006447 -0.008575 0.000000 0.000000 0.000000
# 2 -0.006447 0.022449 -0.002046 0.000000 0.000000 0.000000
# 3 -0.008575 -0.002046 0.022394 0.000000 0.000000 0.000000
# 4 0.000000 0.000000 0.000000 0.055481 0.000000 0.000000
# 5 0.000000 0.000000 0.000000 0.000000 0.036603 0.000000
# 6 0.000000 0.000000 0.000000 0.000000 0.000000 0.041520
#
#
# Mechanical properties :
#
#
# Convention : Reuss Voigt Hill
#
# Bulk Modulus (GPa) = 29.43925 29.93112 29.68518
# Shear Modulus (GPa) = 20.22939 21.13803 20.68371
#
# Velocity S-wave (km/s) = 3.20734 3.27858 3.24315
# Velocity P-wave (km/s) = 5.35597 5.43623 5.39625
#
# Compressibility (1/GPa) = 0.03396826
#
# Stress axis : x y z
#
# Youngs Moduli (GPa) = 42.99261 44.54448 44.65521
#
# Poissons Ratio (x) = 0.28716 0.38293
# Poissons Ratio (y) = 0.27715 0.09134
# Poissons Ratio (z) = 0.36868 0.09112
#
# Static dielectric constant tensor:
#      x y z
#    x 1.676020 0.000000 0.000000 
#    y 0.000000 1.750930 0.000000 
#    z 0.000000 0.000000 1.658770 
# 
# From -- ./inp_files/20686.got.cif
#   From: 2010.05.17/outbox.cif.g08.bks.cpg/sg72_11_cif.got.tgz:20686.got - 2010.06.03 17:03:01.
