data_PCOD9527686
_publ_section_title
;
Structure prediction by ZEFSAII (Michael W. Deem and Ramdas Pophale) SiO2 
 PCOD9527686
Probable space group: I B A M
;
_chemical_formula_sum "Si O2"
_cell_formula_units_Z 104
_cell_length_a 25.606737
_cell_length_b 9.055879
_cell_length_c 22.074022
_cell_angle_alpha 90.000000
_cell_angle_beta 90.000000
_cell_angle_gamma 90.000000
_cell_volume 5118.778334
_symmetry_space_group_name_H-M "I B A M"
_symmetry_group_IT_number 72
_symmetry_cell_setting 'orthorhombic'
loop_
_space_group_symop_operation_xyz
x,y,z
-x,-y,z
x,-y,1/2-z
-x,y,1/2-z
-x,-y,-z
x,y,-z
-x,y,1/2+z
x,-y,1/2+z
1/2+x,1/2+y,1/2+z
1/2-x,1/2-y,1/2+z
1/2+x,1/2-y,-z
1/2-x,1/2+y,-z
1/2-x,1/2-y,1/2-z
1/2+x,1/2+y,1/2-z
1/2-x,1/2+y,z
1/2+x,1/2-y,z
loop_
_atom_site_type_symbol
_atom_site_label
_atom_site_fract_x
_atom_site_fract_y
_atom_site_fract_z
Si Si1 0.159916 0.879576 0.000000
Si Si2 0.633714 0.895614 0.694856
Si Si3 0.439117 0.332125 0.234195
Si Si4 0.419663 0.137670 0.000000
Si Si5 0.724765 0.450631 0.603051
Si Si6 0.303464 0.945689 0.500000
Si Si7 0.235513 0.222705 0.819300
Si Si8 0.550926 0.904567 0.866652
O O1 0.104242 0.803441 0.000000
O O2 0.174689 0.968679 0.940077
O O3 0.199198 0.734915 0.000000
O O4 0.594807 0.776430 0.724245
O O5 0.682862 0.813250 0.667824
O O6 0.652245 0.000000 0.750000
O O7 0.601073 0.996331 0.649635
O O8 0.421466 0.500000 0.250000
O O9 0.500000 0.328005 0.250000
O O10 0.439440 0.251125 0.168250
O O11 0.450840 0.115905 0.061583
O O12 0.366411 0.036809 0.000000
O O13 0.773043 0.487641 0.557948
O O14 0.723419 0.290115 0.633434
O O15 0.726814 0.556538 0.660833
O O16 0.250000 0.250000 0.750000
O O17 0.500000 0.000000 0.845650
#
# Coordination Sequence:
#
# PCOD9527686 Si02
#       8
#     8  16  16   8  16   8  16  16
#     4   9  21  38  61  85 109 164 210 257 294 359
#     4  10  22  37  60  89 117 162 212 252 307 376
#     4  10  21  39  64  89 116 156 206 256 308 374
#     4  10  21  36  58  95 123 153 201 261 319 359
#     4  11  21  39  61  82 121 165 210 249 302 365
#     4   9  19  40  61  83 110 162 213 253 288 358
#     4  12  24  37  56  90 131 162 197 256 317 374
#     4  11  21  39  66  89 123 156 209 262 315 375
#
# _framework density 20.317347000000002
#
# number of rings (size 3 to 8) (size 9 to 14) (size 15 to 20)
#    0.462    1.077    3.077    2.538    0.000    6.154 
#    0.000    0.769    0.000    2.769    0.000    0.000 
#    0.000    0.000    0.000    0.000    0.000    0.000 
#
# Total GULP energy -289903.702079 kJ/mol
# GULP energy per Si atom -5575.071194 kJ/mol
# Density = 2.027110 g / cm^3
# Si number density = 20.317347 Si / 1000 Ang^3
#
#
#
# Elastic Constant Matrix: (Units=GPa)
#
#
# Indices 1 2 3 4 5 6 
#
# 1 36.9810 3.7332 1.7929 0.0000 0.0000 0.0000
# 2 3.7332 81.8120 30.7177 0.0000 0.0000 0.0000
# 3 1.7929 30.7177 124.5047 0.0000 0.0000 0.0000
# 4 0.0000 0.0000 0.0000 23.5068 0.0000 0.0000
# 5 0.0000 0.0000 0.0000 0.0000 15.1128 0.0000
# 6 0.0000 0.0000 0.0000 0.0000 0.0000 28.1610
#
#
#
# Elastic Compliance Matrix: (Units=1/GPa)
#
#
# Indices 1 2 3 4 5 6 
#
# 1 0.027167 -0.001204 -0.000094 0.000000 0.000000 0.000000
# 2 -0.001204 0.013524 -0.003319 0.000000 0.000000 0.000000
# 3 -0.000094 -0.003319 0.008852 0.000000 0.000000 0.000000
# 4 0.000000 0.000000 0.000000 0.042541 0.000000 0.000000
# 5 0.000000 0.000000 0.000000 0.000000 0.066169 0.000000
# 6 0.000000 0.000000 0.000000 0.000000 0.000000 0.035510
#
#
# Mechanical properties :
#
#
# Convention : Reuss Voigt Hill
#
# Bulk Modulus (GPa) = 24.80899 35.08726 29.94813
# Shear Modulus (GPa) = 23.10162 27.15973 25.13067
#
# Velocity S-wave (km/s) = 3.37566 3.66016 3.52078
# Velocity P-wave (km/s) = 5.23743 5.93038 5.59465
#
# Compressibility (1/GPa) = 0.04030797
#
# Stress axis : x y z
#
# Youngs Moduli (GPa) = 36.80930 73.94029 112.96705
#
# Poissons Ratio (x) = 0.08905 0.01063
# Poissons Ratio (y) = 0.04433 0.37498
# Poissons Ratio (z) = 0.00346 0.24544
#
# Static dielectric constant tensor:
#      x y z
#    x 1.725060 0.000000 0.000000 
#    y 0.000000 1.772440 0.000000 
#    z 0.000000 0.000000 1.742820 
# 
# From -- ./inp_files/41095.got.cif
#   From: 2010.05.17/outbox.cif.g08.bks.cpg/sg72_21_cif.got.tgz:41095.got - 2010.06.03 17:03:01.
