data_PCOD9527715
_publ_section_title
;
Structure prediction by ZEFSAII (Michael W. Deem and Ramdas Pophale) SiO2 
 PCOD9527715
Probable space group: I B A M
;
_chemical_formula_sum "Si O2"
_cell_formula_units_Z 72
_cell_length_a 21.760377
_cell_length_b 8.063918
_cell_length_c 21.380141
_cell_angle_alpha 90.000000
_cell_angle_beta 90.000000
_cell_angle_gamma 90.000000
_cell_volume 3751.656634
_symmetry_space_group_name_H-M "I B A M"
_symmetry_group_IT_number 72
_symmetry_cell_setting 'orthorhombic'
loop_
_space_group_symop_operation_xyz
x,y,z
-x,-y,z
x,-y,1/2-z
-x,y,1/2-z
-x,-y,-z
x,y,-z
-x,y,1/2+z
x,-y,1/2+z
1/2+x,1/2+y,1/2+z
1/2-x,1/2-y,1/2+z
1/2+x,1/2-y,-z
1/2-x,1/2+y,-z
1/2-x,1/2-y,1/2-z
1/2+x,1/2+y,1/2-z
1/2-x,1/2+y,z
1/2+x,1/2-y,z
loop_
_atom_site_type_symbol
_atom_site_label
_atom_site_fract_x
_atom_site_fract_y
_atom_site_fract_z
Si Si1 0.427710 0.002178 0.825667
Si Si2 0.848361 0.671013 0.928121
Si Si3 0.721741 0.480725 0.570677
Si Si4 0.233299 0.000000 0.750000
Si Si5 0.179031 0.275966 0.673195
O O1 0.389678 0.167943 0.840351
O O2 0.500000 0.000000 0.837967
O O3 0.419279 0.000000 0.750000
O O4 0.394840 0.867712 0.871319
O O5 0.796062 0.527313 0.928273
O O6 0.811936 0.844313 0.917172
O O7 0.873534 0.676282 0.000000
O O8 0.704975 0.433314 0.500000
O O9 0.700527 0.338649 0.617052
O O10 0.190070 0.152006 0.731401
O O11 0.278341 0.068523 0.804585
#
# Coordination Sequence:
#
# PCOD9527715 Si02
#       5
#    16  16  16   8  16
#     4  11  25  42  59  81 120 166 211 249 290 351
#     4  10  21  39  62  91 124 155 197 245 306 366
#     4  10  21  36  63  97 123 149 185 250 312 361
#     4  10  22  34  59  95 112 150 190 240 308 350
#     4  11  21  36  60  87 122 149 192 243 294 368
#
# _framework density 19.191521999999999
#
# number of rings (size 3 to 8) (size 9 to 14) (size 15 to 20)
#    0.000    1.556    1.111    4.000    6.222    3.111 
#    0.000    1.111    0.000    2.667    0.000    0.000 
#    0.000    0.000    0.000    0.000    0.000    0.000 
#
# Total GULP energy -200534.981178 kJ/mol
# GULP energy per Si atom -5570.416144 kJ/mol
# Density = 1.914784 g / cm^3
# Si number density = 19.191522 Si / 1000 Ang^3
#
#
#
# Elastic Constant Matrix: (Units=GPa)
#
#
# Indices 1 2 3 4 5 6 
#
# 1 119.9884 42.9386 55.6127 0.0000 0.0000 0.0000
# 2 42.9386 83.0467 39.7477 0.0000 0.0000 0.0000
# 3 55.6127 39.7477 133.5388 0.0000 0.0000 0.0000
# 4 0.0000 0.0000 0.0000 34.6527 0.0000 0.0000
# 5 0.0000 0.0000 0.0000 0.0000 27.3117 0.0000
# 6 0.0000 0.0000 0.0000 0.0000 0.0000 17.8359
#
#
#
# Elastic Compliance Matrix: (Units=1/GPa)
#
#
# Indices 1 2 3 4 5 6 
#
# 1 0.011487 -0.004256 -0.003517 0.000000 0.000000 0.000000
# 2 -0.004256 0.015619 -0.002876 0.000000 0.000000 0.000000
# 3 -0.003517 -0.002876 0.009809 0.000000 0.000000 0.000000
# 4 0.000000 0.000000 0.000000 0.028858 0.000000 0.000000
# 5 0.000000 0.000000 0.000000 0.000000 0.036614 0.000000
# 6 0.000000 0.000000 0.000000 0.000000 0.000000 0.056067
#
#
# Mechanical properties :
#
#
# Convention : Reuss Voigt Hill
#
# Bulk Modulus (GPa) = 64.03640 68.13022 66.08331
# Shear Modulus (GPa) = 27.03306 29.17840 28.10573
#
# Velocity S-wave (km/s) = 3.75720 3.90343 3.83101
# Velocity P-wave (km/s) = 7.22921 7.47616 7.35372
#
# Compressibility (1/GPa) = 0.01561612
#
# Stress axis : x y z
#
# Youngs Moduli (GPa) = 87.05241 64.02580 101.94356
#
# Poissons Ratio (x) = 0.27250 0.35855
# Poissons Ratio (y) = 0.37050 0.29323
# Poissons Ratio (z) = 0.30617 0.18417
#
# Static dielectric constant tensor:
#      x y z
#    x 1.652250 0.000000 0.000000 
#    y 0.000000 1.708680 0.000000 
#    z 0.000000 0.000000 1.793260 
# 
# From -- ./inp_files/39568.got.cif
#   From: 2010.05.17/outbox.cif.g08.bks.cpg/sg72_20_cif.got.tgz:39568.got - 2010.06.03 17:03:01.
