data_PCOD9527968
_publ_section_title
;
Structure prediction by ZEFSAII (Michael W. Deem and Ramdas Pophale) SiO2 
 PCOD9527968
Probable space group: I B A M
;
_chemical_formula_sum "Si O2"
_cell_formula_units_Z 72
_cell_length_a 14.722831
_cell_length_b 16.237767
_cell_length_c 14.925872
_cell_angle_alpha 90.000000
_cell_angle_beta 90.000000
_cell_angle_gamma 90.000000
_cell_volume 3568.267013
_symmetry_space_group_name_H-M "I B A M"
_symmetry_group_IT_number 72
_symmetry_cell_setting 'orthorhombic'
loop_
_space_group_symop_operation_xyz
x,y,z
-x,-y,z
x,-y,1/2-z
-x,y,1/2-z
-x,-y,-z
x,y,-z
-x,y,1/2+z
x,-y,1/2+z
1/2+x,1/2+y,1/2+z
1/2-x,1/2-y,1/2+z
1/2+x,1/2-y,-z
1/2-x,1/2+y,-z
1/2-x,1/2-y,1/2-z
1/2+x,1/2+y,1/2-z
1/2-x,1/2+y,z
1/2+x,1/2-y,z
loop_
_atom_site_type_symbol
_atom_site_label
_atom_site_fract_x
_atom_site_fract_y
_atom_site_fract_z
Si Si1 0.084499 0.891021 0.500000
Si Si2 0.621093 0.414897 0.500000
Si Si3 0.329174 0.313951 0.324139
Si Si4 0.000000 0.279092 0.750000
Si Si5 0.458703 0.089759 0.393846
Si Si6 0.743841 0.135405 0.156053
O O1 0.130373 0.854866 0.588343
O O2 0.977151 0.871869 0.500000
O O3 0.100553 0.988332 0.500000
O O4 0.680175 0.393038 0.586981
O O5 0.412358 0.276965 0.265916
O O6 0.271224 0.234083 0.352404
O O7 0.273587 0.374349 0.259285
O O8 0.007074 0.339685 0.664615
O O9 0.466208 0.106080 0.500000
O O10 0.352573 0.094310 0.366701
O O11 0.500000 0.000000 0.375170
#
# Coordination Sequence:
#
# PCOD9527968 Si02
#       6
#     8   8  16   8  16  16
#     4  11  25  42  66  92 131 172 220 275 329 396
#     4  11  23  42  65  98 126 173 222 270 337 379
#     4  10  22  42  65  97 129 173 224 267 329 389
#     4  10  21  38  66  97 128 176 214 270 324 385
#     4  10  21  41  64  97 139 172 212 266 330 397
#     4  10  21  43  66  94 131 171 218 272 316 395
#
# _framework density 20.177862999999999
#
# number of rings (size 3 to 8) (size 9 to 14) (size 15 to 20)
#    0.000    1.778    1.111    2.333    4.667    0.889 
#   22.000    2.222    0.000    0.000    0.000    0.000 
#    0.000    0.000    0.000    0.000    0.000    0.000 
#
# Total GULP energy -201257.737806 kJ/mol
# GULP energy per Si atom -5590.492717 kJ/mol
# Density = 2.013194 g / cm^3
# Si number density = 20.177863 Si / 1000 Ang^3
#
#
#
# Elastic Constant Matrix: (Units=GPa)
#
#
# Indices 1 2 3 4 5 6 
#
# 1 73.1882 40.3310 79.8871 0.0000 0.0000 0.0000
# 2 40.3310 47.1417 53.6043 0.0000 0.0000 0.0000
# 3 79.8871 53.6043 145.9024 0.0000 0.0000 0.0000
# 4 0.0000 0.0000 0.0000 77.3838 0.0000 0.0000
# 5 0.0000 0.0000 0.0000 0.0000 -20.9525 0.0000
# 6 0.0000 0.0000 0.0000 0.0000 0.0000 30.9933
#
#
#
# Elastic Compliance Matrix: (Units=1/GPa)
#
#
# Indices 1 2 3 4 5 6 
#
# 1 0.039914 -0.015968 -0.015988 0.000000 0.000000 0.000000
# 2 -0.015968 0.042821 -0.006989 0.000000 0.000000 0.000000
# 3 -0.015988 -0.006989 0.018176 0.000000 0.000000 0.000000
# 4 0.000000 0.000000 0.000000 0.012923 0.000000 0.000000
# 5 0.000000 0.000000 0.000000 0.000000 -0.047727 0.000000
# 6 0.000000 0.000000 0.000000 0.000000 0.000000 0.032265
#
#
# Mechanical properties :
#
#
# Convention : Reuss Voigt Hill
#
# Bulk Modulus (GPa) = 43.43936 68.20856 55.82396
# Shear Modulus (GPa) = 27.18368 23.64559 25.41463
#
# Velocity S-wave (km/s) = 3.67441 3.42696 3.55284
# Velocity P-wave (km/s) = 6.29100 7.03816 6.67504
#
# Compressibility (1/GPa) = 0.02302060
#
# Stress axis : x y z
#
# Youngs Moduli (GPa) = 25.05415 23.35306 55.01860
#
# Poissons Ratio (x) = 0.37289 0.87962
# Poissons Ratio (y) = 0.40006 0.38455
# Poissons Ratio (z) = 0.40056 0.16322
#
# Static dielectric constant tensor:
#      x y z
#    x 1.726830 0.000000 0.000000 
#    y 0.000000 1.697880 0.000000 
#    z 0.000000 0.000000 1.703000 
# 
# From -- ./inp_files/21509.got.cif
#   From: 2010.05.17/outbox.cif.g08.bks.cpg/sg72_11_cif.got.tgz:21509.got - 2010.06.03 17:03:01.
