data_PCOD9527001
_publ_section_title
;
Structure prediction by ZEFSAII (Michael W. Deem and Ramdas Pophale) SiO2 
 PCOD9527001
Probable space group: I B A M
;
_chemical_formula_sum "Si O2"
_cell_formula_units_Z 116
_cell_length_a 32.450378
_cell_length_b 22.643456
_cell_length_c 8.324885
_cell_angle_alpha 90.000000
_cell_angle_beta 90.000000
_cell_angle_gamma 90.000000
_cell_volume 6117.031480
_symmetry_space_group_name_H-M "I B A M"
_symmetry_group_IT_number 72
_symmetry_cell_setting 'orthorhombic'
loop_
_space_group_symop_operation_xyz
x,y,z
-x,-y,z
x,-y,1/2-z
-x,y,1/2-z
-x,-y,-z
x,y,-z
-x,y,1/2+z
x,-y,1/2+z
1/2+x,1/2+y,1/2+z
1/2-x,1/2-y,1/2+z
1/2+x,1/2-y,-z
1/2-x,1/2+y,-z
1/2-x,1/2-y,1/2-z
1/2+x,1/2+y,1/2-z
1/2-x,1/2+y,z
1/2+x,1/2-y,z
loop_
_atom_site_type_symbol
_atom_site_label
_atom_site_fract_x
_atom_site_fract_y
_atom_site_fract_z
Si Si1 0.105921 0.170088 0.691075
Si Si2 0.341990 0.934797 0.807121
Si Si3 0.500000 0.000000 0.750000
Si Si4 0.563213 0.907644 0.304544
Si Si5 0.217019 0.668880 0.306543
Si Si6 0.546049 0.566454 0.192581
Si Si7 0.545562 0.229673 0.191140
Si Si8 0.195762 0.800832 0.691531
O O1 0.109342 0.165269 0.500000
O O2 0.079219 0.114232 0.750992
O O3 0.080033 0.228654 0.732942
O O4 0.151588 0.174181 0.761014
O O5 0.389357 0.920486 0.765631
O O6 0.311279 0.884279 0.745263
O O7 0.331073 0.000000 0.750000
O O8 0.340127 0.933856 0.000000
O O9 0.465892 0.049365 0.799397
O O10 0.556401 0.918771 0.500000
O O11 0.553170 0.839400 0.272728
O O12 0.214385 0.669124 0.500000
O O13 0.200539 0.732829 0.249473
O O14 0.264744 0.664726 0.258937
O O15 0.554973 0.500000 0.250000
O O16 0.500000 0.582179 0.250000
O O17 0.545790 0.566820 0.000000
O O18 0.500000 0.246326 0.250000
O O19 0.547825 0.236559 0.000000
O O20 0.199029 0.800065 0.500000
#
# Coordination Sequence:
#
# PCOD9527001 Si02
#       8
#    16  16   4  16  16  16  16  16
#     4  11  23  38  57  86 118 149 184 228 281 336
#     4  10  20  36  55  78 108 145 185 230 279 328
#     4  12  18  36  56  74 112 156 200 244 286 328
#     4  10  21  35  53  77 111 152 196 241 287 332
#     4   9  19  37  59  81 111 144 178 226 283 337
#     4  10  21  37  59  84 113 148 187 225 268 326
#     4  11  22  37  55  80 113 152 195 240 287 334
#     4  10  20  36  61  87 110 141 180 226 279 336
#
# _framework density 18.963446999999999
#
# number of rings (size 3 to 8) (size 9 to 14) (size 15 to 20)
#    0.000    1.793    1.379    3.517    0.000    6.621 
#    0.000    3.448    0.000    0.000    0.000    0.000 
#    0.000    0.000    0.000    0.000    0.000    0.000 
#
# Total GULP energy -323664.190583 kJ/mol
# GULP energy per Si atom -5580.417079 kJ/mol
# Density = 1.892029 g / cm^3
# Si number density = 18.963447 Si / 1000 Ang^3
#
#
#
# Elastic Constant Matrix: (Units=GPa)
#
#
# Indices 1 2 3 4 5 6 
#
# 1 161.8977 84.2133 12.3075 0.0000 0.0000 0.0000
# 2 84.2133 93.9828 10.7857 0.0000 0.0000 0.0000
# 3 12.3075 10.7857 15.4350 0.0000 0.0000 0.0000
# 4 0.0000 0.0000 0.0000 18.9708 0.0000 0.0000
# 5 0.0000 0.0000 0.0000 0.0000 -5.7505 0.0000
# 6 0.0000 0.0000 0.0000 0.0000 0.0000 16.9174
#
#
#
# Elastic Compliance Matrix: (Units=1/GPa)
#
#
# Indices 1 2 3 4 5 6 
#
# 1 0.011635 -0.010177 -0.002166 0.000000 0.000000 0.000000
# 2 -0.010177 0.020470 -0.006189 0.000000 0.000000 0.000000
# 3 -0.002166 -0.006189 0.070840 0.000000 0.000000 0.000000
# 4 0.000000 0.000000 0.000000 0.052712 0.000000 0.000000
# 5 0.000000 0.000000 0.000000 0.000000 -0.173898 0.000000
# 6 0.000000 0.000000 0.000000 0.000000 0.000000 0.059111
#
#
# Mechanical properties :
#
#
# Convention : Reuss Voigt Hill
#
# Bulk Modulus (GPa) = 15.17901 53.99206 34.58553
# Shear Modulus (GPa) = 50.05307 16.96149 33.50728
#
# Velocity S-wave (km/s) = 5.14313 2.99395 4.20806
# Velocity P-wave (km/s) = 6.57957 6.36279 6.47209
#
# Compressibility (1/GPa) = 0.06588046
#
# Stress axis : x y z
#
# Youngs Moduli (GPa) = 85.94639 48.85268 14.11639
#
# Poissons Ratio (x) = 0.49718 0.03058
# Poissons Ratio (y) = 0.87469 0.08737
# Poissons Ratio (z) = 0.18616 0.30235
#
# Static dielectric constant tensor:
#      x y z
#    x 1.622550 0.000000 0.000000 
#    y 0.000000 1.655370 0.000000 
#    z 0.000000 0.000000 1.688490 
# 
# From -- ./inp_files/9357.got.cif
#   From: 2010.05.17/outbox.cif.g08.bks.cpg/sg72_5_cif.got.tgz:9357.got - 2010.06.03 17:03:01.
