data_PCOD9527129
_publ_section_title
;
Structure prediction by ZEFSAII (Michael W. Deem and Ramdas Pophale) SiO2 
 PCOD9527129
Probable space group: I B A M
;
_chemical_formula_sum "Si O2"
_cell_formula_units_Z 108
_cell_length_a 6.533955
_cell_length_b 24.732724
_cell_length_c 30.442599
_cell_angle_alpha 90.000000
_cell_angle_beta 90.000000
_cell_angle_gamma 90.000000
_cell_volume 4919.600277
_symmetry_space_group_name_H-M "I B A M"
_symmetry_group_IT_number 72
_symmetry_cell_setting 'orthorhombic'
loop_
_space_group_symop_operation_xyz
x,y,z
-x,-y,z
x,-y,1/2-z
-x,y,1/2-z
-x,-y,-z
x,y,-z
-x,y,1/2+z
x,-y,1/2+z
1/2+x,1/2+y,1/2+z
1/2-x,1/2-y,1/2+z
1/2+x,1/2-y,-z
1/2-x,1/2+y,-z
1/2-x,1/2-y,1/2-z
1/2+x,1/2+y,1/2-z
1/2-x,1/2+y,z
1/2+x,1/2-y,z
loop_
_atom_site_type_symbol
_atom_site_label
_atom_site_fract_x
_atom_site_fract_y
_atom_site_fract_z
Si Si1 0.037240 0.322937 0.897611
Si Si2 0.757767 0.101919 0.549735
Si Si3 0.351468 0.578437 0.387258
Si Si4 0.832783 0.926323 0.711667
Si Si5 0.500000 0.000000 0.750000
Si Si6 0.000000 0.500000 0.923514
Si Si7 0.683225 0.722388 0.649081
Si Si8 0.857537 0.808874 0.708076
O O1 0.206459 0.368472 0.891313
O O2 0.219211 0.260546 0.808689
O O3 0.883147 0.346830 0.934792
O O4 0.139258 0.262346 0.892636
O O5 0.830233 0.110626 0.500000
O O6 0.609411 0.049569 0.551493
O O7 0.952491 0.088910 0.581226
O O8 0.419942 0.567688 0.337226
O O9 0.192721 0.529626 0.399341
O O10 0.646319 0.965392 0.719426
O O11 0.749044 0.865249 0.715771
O O12 0.000000 0.933755 0.750000
O O13 0.876500 0.684878 0.641873
O O14 0.498572 0.685888 0.664455
O O15 0.000000 0.800855 0.750000
#
# Coordination Sequence:
#
# PCOD9527129 Si02
#       8
#    16  16  16  16   4   8  16  16
#     4  10  23  40  69  94 133 173 218 264 334 403
#     4  11  25  45  71 101 133 170 220 285 348 414
#     4  11  23  44  69 103 133 178 225 282 345 412
#     4  11  25  44  64  95 135 182 229 281 327 407
#     4  12  28  44  64  84 134 188 238 278 342 396
#     4  10  24  42  74 102 132 168 224 284 354 406
#     4  10  20  40  66  94 135 179 216 274 337 394
#     4  10  20  36  61  97 132 166 225 278 332 388
#
# _framework density 21.953002999999999
#
# number of rings (size 3 to 8) (size 9 to 14) (size 15 to 20)
#    0.000    1.481    1.481    2.667    2.074   10.667 
#    1.333    0.741    0.000    0.000    0.000    0.000 
#    0.000    0.000    0.000    0.000    0.000    0.000 
#
# Total GULP energy -300808.333702 kJ/mol
# GULP energy per Si atom -5570.524698 kJ/mol
# Density = 2.190304 g / cm^3
# Si number density = 21.953003 Si / 1000 Ang^3
#
#
#
# Elastic Constant Matrix: (Units=GPa)
#
#
# Indices 1 2 3 4 5 6 
#
# 1 110.7944 43.8630 59.0000 0.0000 0.0000 0.0000
# 2 43.8630 100.8264 44.2301 0.0000 0.0000 0.0000
# 3 59.0000 44.2301 154.3937 0.0000 0.0000 0.0000
# 4 0.0000 0.0000 0.0000 16.4640 0.0000 0.0000
# 5 0.0000 0.0000 0.0000 0.0000 33.0536 0.0000
# 6 0.0000 0.0000 0.0000 0.0000 0.0000 43.8029
#
#
#
# Elastic Compliance Matrix: (Units=1/GPa)
#
#
# Indices 1 2 3 4 5 6 
#
# 1 0.012500 -0.003823 -0.003681 0.000000 0.000000 0.000000
# 2 -0.003823 0.012513 -0.002124 0.000000 0.000000 0.000000
# 3 -0.003681 -0.002124 0.008492 0.000000 0.000000 0.000000
# 4 0.000000 0.000000 0.000000 0.060738 0.000000 0.000000
# 5 0.000000 0.000000 0.000000 0.000000 0.030254 0.000000
# 6 0.000000 0.000000 0.000000 0.000000 0.000000 0.022830
#
#
# Mechanical properties :
#
#
# Convention : Reuss Voigt Hill
#
# Bulk Modulus (GPa) = 70.18286 73.35565 71.76926
# Shear Modulus (GPa) = 29.18312 33.25886 31.22099
#
# Velocity S-wave (km/s) = 3.64997 3.89653 3.77526
# Velocity P-wave (km/s) = 7.05706 7.33016 7.19491
#
# Compressibility (1/GPa) = 0.01424849
#
# Stress axis : x y z
#
# Youngs Moduli (GPa) = 80.00264 79.91864 117.75539
#
# Poissons Ratio (x) = 0.30551 0.43351
# Poissons Ratio (y) = 0.30583 0.25008
# Poissons Ratio (z) = 0.29453 0.16973
#
# Static dielectric constant tensor:
#      x y z
#    x 1.864670 0.000000 0.000000 
#    y 0.000000 1.966950 0.000000 
#    z 0.000000 0.000000 1.809930 
# 
# From -- ./inp_files/50466.got.cif
#   From: 2010.05.17/outbox.cif.g08.bks.cpg/sg72_26_cif.got.tgz:50466.got - 2010.06.03 17:03:01.
