data_PCOD9527256
_publ_section_title
;
Structure prediction by ZEFSAII (Michael W. Deem and Ramdas Pophale) SiO2 
 PCOD9527256
Probable space group: I B A M
;
_chemical_formula_sum "Si O2"
_cell_formula_units_Z 80
_cell_length_a 24.253438
_cell_length_b 9.879050
_cell_length_c 14.824335
_cell_angle_alpha 90.000000
_cell_angle_beta 90.000000
_cell_angle_gamma 90.000000
_cell_volume 3551.924403
_symmetry_space_group_name_H-M "I B A M"
_symmetry_group_IT_number 72
_symmetry_cell_setting 'orthorhombic'
loop_
_space_group_symop_operation_xyz
x,y,z
-x,-y,z
x,-y,1/2-z
-x,y,1/2-z
-x,-y,-z
x,y,-z
-x,y,1/2+z
x,-y,1/2+z
1/2+x,1/2+y,1/2+z
1/2-x,1/2-y,1/2+z
1/2+x,1/2-y,-z
1/2-x,1/2+y,-z
1/2-x,1/2-y,1/2-z
1/2+x,1/2+y,1/2-z
1/2-x,1/2+y,z
1/2+x,1/2-y,z
loop_
_atom_site_type_symbol
_atom_site_label
_atom_site_fract_x
_atom_site_fract_y
_atom_site_fract_z
Si Si1 0.892913 0.295542 0.396221
Si Si2 0.808818 0.495819 0.892324
Si Si3 0.712137 0.306706 0.390954
Si Si4 0.889992 0.855387 0.278683
Si Si5 0.487559 0.337388 0.101802
O O1 0.874778 0.261598 0.500000
O O2 0.870789 0.447689 0.378828
O O3 0.868554 0.213590 0.312146
O O4 0.956828 0.251447 0.392083
O O5 0.765919 0.610569 0.862153
O O6 0.793179 0.348199 0.857532
O O7 0.802171 0.485231 0.000000
O O8 0.710526 0.307706 0.500000
O O9 0.658284 0.376050 0.350171
O O10 0.941891 0.787725 0.327866
O O11 0.911837 0.000000 0.250000
O O12 0.500000 0.500000 0.111420
O O13 0.465418 0.322308 0.000000
#
# Coordination Sequence:
#
# PCOD9527256 Si02
#       5
#    16  16  16  16  16
#     4  10  22  39  61  90 127 171 216 271 327 382
#     4   9  21  43  68  95 131 174 219 270 332 398
#     4  10  23  43  68  96 132 172 217 271 332 397
#     4  12  24  36  60  99 131 172 216 275 316 397
#     4  10  20  37  62  92 130 169 215 271 328 386
#
# _framework density 22.523
#
# number of rings (size 3 to 8) (size 9 to 14) (size 15 to 20)
#    0.000    1.800    2.000    1.200    2.800    2.400 
#    0.000    1.000    0.000    7.200    0.000    0.000 
#    0.000    0.000    0.000    0.000    0.000    0.000 
#
# Total GULP energy -223083.551484 kJ/mol
# GULP energy per Si atom -5577.088787 kJ/mol
# Density = 2.247174 g / cm^3
# Si number density = 22.523000 Si / 1000 Ang^3
#
#
#
# Elastic Constant Matrix: (Units=GPa)
#
#
# Indices 1 2 3 4 5 6 
#
# 1 88.7310 19.0445 24.8604 0.0000 0.0000 0.0000
# 2 19.0445 58.8137 19.5706 0.0000 0.0000 0.0000
# 3 24.8604 19.5706 96.1545 0.0000 0.0000 0.0000
# 4 0.0000 0.0000 0.0000 17.1117 0.0000 0.0000
# 5 0.0000 0.0000 0.0000 0.0000 20.4244 0.0000
# 6 0.0000 0.0000 0.0000 0.0000 0.0000 20.2813
#
#
#
# Elastic Compliance Matrix: (Units=1/GPa)
#
#
# Indices 1 2 3 4 5 6 
#
# 1 0.012701 -0.003239 -0.002624 0.000000 0.000000 0.000000
# 2 -0.003239 0.019064 -0.003043 0.000000 0.000000 0.000000
# 3 -0.002624 -0.003043 0.011698 0.000000 0.000000 0.000000
# 4 0.000000 0.000000 0.000000 0.058440 0.000000 0.000000
# 5 0.000000 0.000000 0.000000 0.000000 0.048961 0.000000
# 6 0.000000 0.000000 0.000000 0.000000 0.000000 0.049307
#
#
# Mechanical properties :
#
#
# Convention : Reuss Voigt Hill
#
# Bulk Modulus (GPa) = 38.98667 41.18337 40.08502
# Shear Modulus (GPa) = 22.07190 23.57839 22.82514
#
# Velocity S-wave (km/s) = 3.13385 3.23903 3.18687
# Velocity P-wave (km/s) = 5.51742 5.68446 5.60157
#
# Compressibility (1/GPa) = 0.02564979
#
# Stress axis : x y z
#
# Youngs Moduli (GPa) = 78.73666 52.45421 85.48663
#
# Poissons Ratio (x) = 0.16992 0.22435
# Poissons Ratio (y) = 0.25505 0.26011
# Poissons Ratio (z) = 0.20663 0.15960
#
# Static dielectric constant tensor:
#      x y z
#    x 1.859280 0.000000 0.000000 
#    y 0.000000 1.842900 0.000000 
#    z 0.000000 0.000000 1.857490 
# 
# From -- ./inp_files/24916.got.cif
#   From: 2010.05.17/outbox.cif.g08.bks.cpg/sg72_13_cif.got.tgz:24916.got - 2010.06.03 17:03:01.
