data_PCOD9527983
_publ_section_title
;
Structure prediction by ZEFSAII (Michael W. Deem and Ramdas Pophale) SiO2 
 PCOD9527983
Probable space group: I B A M
;
_chemical_formula_sum "Si O2"
_cell_formula_units_Z 64
_cell_length_a 26.539853
_cell_length_b 7.717835
_cell_length_c 12.216608
_cell_angle_alpha 90.000000
_cell_angle_beta 90.000000
_cell_angle_gamma 90.000000
_cell_volume 2502.330338
_symmetry_space_group_name_H-M "I B A M"
_symmetry_group_IT_number 72
_symmetry_cell_setting 'orthorhombic'
loop_
_space_group_symop_operation_xyz
x,y,z
-x,-y,z
x,-y,1/2-z
-x,y,1/2-z
-x,-y,-z
x,y,-z
-x,y,1/2+z
x,-y,1/2+z
1/2+x,1/2+y,1/2+z
1/2-x,1/2-y,1/2+z
1/2+x,1/2-y,-z
1/2-x,1/2+y,-z
1/2-x,1/2-y,1/2-z
1/2+x,1/2+y,1/2-z
1/2-x,1/2+y,z
1/2+x,1/2-y,z
loop_
_atom_site_type_symbol
_atom_site_label
_atom_site_fract_x
_atom_site_fract_y
_atom_site_fract_z
Si Si1 0.173833 0.860147 0.624341
Si Si2 0.512689 0.206156 0.378137
Si Si3 0.780485 0.246781 0.126381
Si Si4 0.115869 0.678233 0.201081
O O1 0.161076 0.819634 0.500000
O O2 0.222673 0.754567 0.668718
O O3 0.127738 0.810794 0.700986
O O4 0.195063 0.055242 0.631414
O O5 0.500000 0.264280 0.250000
O O6 0.493077 0.270143 0.500000
O O7 0.572914 0.240655 0.379148
O O8 0.500000 0.000000 0.379997
O O9 0.829288 0.363308 0.151024
O O10 0.769059 0.289379 0.000000
O O11 0.096248 0.500000 0.250000
#
# Coordination Sequence:
#
# PCOD9527983 Si02
#       4
#    16  16  16  16
#     4  10  22  38  59  88 131 176 224 273 330 402
#     4  10  21  41  63  94 129 166 217 283 345 402
#     4  10  21  39  59  88 130 179 224 277 331 399
#     4  12  22  35  60  94 124 168 213 279 337 405
#
# _framework density 25.576160000000002
#
# number of rings (size 3 to 8) (size 9 to 14) (size 15 to 20)
#    0.000    1.500    2.500    3.750    0.000    5.000 
#    0.000    0.000    0.000    3.000    0.000   10.500 
#    0.000    0.000    0.000    0.000    0.000    0.000 
#
# Total GULP energy -178318.131329 kJ/mol
# GULP energy per Si atom -5572.441604 kJ/mol
# Density = 2.551795 g / cm^3
# Si number density = 25.576160 Si / 1000 Ang^3
#
#
#
# Elastic Constant Matrix: (Units=GPa)
#
#
# Indices 1 2 3 4 5 6 
#
# 1 107.2014 11.3857 44.0564 0.0000 0.0000 0.0000
# 2 11.3857 40.1951 13.5253 0.0000 0.0000 0.0000
# 3 44.0564 13.5253 130.4014 0.0000 0.0000 0.0000
# 4 0.0000 0.0000 0.0000 41.4335 0.0000 0.0000
# 5 0.0000 0.0000 0.0000 0.0000 33.8073 0.0000
# 6 0.0000 0.0000 0.0000 0.0000 0.0000 9.5837
#
#
#
# Elastic Compliance Matrix: (Units=1/GPa)
#
#
# Indices 1 2 3 4 5 6 
#
# 1 0.010975 -0.001928 -0.003508 0.000000 0.000000 0.000000
# 2 -0.001928 0.026117 -0.002057 0.000000 0.000000 0.000000
# 3 -0.003508 -0.002057 0.009067 0.000000 0.000000 0.000000
# 4 0.000000 0.000000 0.000000 0.024135 0.000000 0.000000
# 5 0.000000 0.000000 0.000000 0.000000 0.029579 0.000000
# 6 0.000000 0.000000 0.000000 0.000000 0.000000 0.104344
#
#
# Mechanical properties :
#
#
# Convention : Reuss Voigt Hill
#
# Bulk Modulus (GPa) = 32.08017 46.19251 39.13634
# Shear Modulus (GPa) = 21.77747 30.88694 26.33221
#
# Velocity S-wave (km/s) = 2.92117 3.47889 3.21216
# Velocity P-wave (km/s) = 4.89366 5.85123 5.39374
#
# Compressibility (1/GPa) = 0.03117190
#
# Stress axis : x y z
#
# Youngs Moduli (GPa) = 91.11925 38.28898 110.28840
#
# Poissons Ratio (x) = 0.07383 0.38687
# Poissons Ratio (y) = 0.17571 0.22691
# Poissons Ratio (z) = 0.31963 0.07878
#
# Static dielectric constant tensor:
#      x y z
#    x 2.075080 0.000000 0.000000 
#    y 0.000000 1.966210 0.000000 
#    z 0.000000 0.000000 2.237670 
# 
# From -- ./inp_files/24738.got.cif
#   From: 2010.05.17/outbox.cif.g08.bks.cpg/sg72_13_cif.got.tgz:24738.got - 2010.06.03 17:03:01.
