data_PCOD9527974
_publ_section_title
;
Structure prediction by ZEFSAII (Michael W. Deem and Ramdas Pophale) SiO2 
 PCOD9527974
Probable space group: I B A M
;
_chemical_formula_sum "Si O2"
_cell_formula_units_Z 80
_cell_length_a 24.359724
_cell_length_b 12.729697
_cell_length_c 14.541188
_cell_angle_alpha 90.000000
_cell_angle_beta 90.000000
_cell_angle_gamma 90.000000
_cell_volume 4509.104695
_symmetry_space_group_name_H-M "I B A M"
_symmetry_group_IT_number 72
_symmetry_cell_setting 'orthorhombic'
loop_
_space_group_symop_operation_xyz
x,y,z
-x,-y,z
x,-y,1/2-z
-x,y,1/2-z
-x,-y,-z
x,y,-z
-x,y,1/2+z
x,-y,1/2+z
1/2+x,1/2+y,1/2+z
1/2-x,1/2-y,1/2+z
1/2+x,1/2-y,-z
1/2-x,1/2+y,-z
1/2-x,1/2-y,1/2-z
1/2+x,1/2+y,1/2-z
1/2-x,1/2+y,z
1/2+x,1/2-y,z
loop_
_atom_site_type_symbol
_atom_site_label
_atom_site_fract_x
_atom_site_fract_y
_atom_site_fract_z
Si Si1 0.329696 0.005474 0.642258
Si Si2 0.500000 0.754807 0.750000
Si Si3 0.048266 0.414114 0.894061
Si Si4 0.637997 0.395321 0.500000
Si Si5 0.238741 0.368695 0.000000
Si Si6 0.054673 0.938978 0.842887
Si Si7 0.188677 0.677124 0.000000
O O1 0.393652 0.032048 0.627096
O O2 0.295028 0.094416 0.588726
O O3 0.317527 0.000000 0.750000
O O4 0.316648 0.897717 0.588171
O O5 0.535499 0.825932 0.681337
O O6 0.463405 0.677383 0.687579
O O7 0.000000 0.500000 0.887216
O O8 0.049003 0.374796 0.000000
O O9 0.701895 0.426752 0.500000
O O10 0.604087 0.434412 0.413035
O O11 0.642126 0.267748 0.500000
O O12 0.255875 0.246670 0.000000
O O13 0.070120 0.000000 0.750000
O O14 0.000000 0.000000 0.878435
#
# Coordination Sequence:
#
# PCOD9527974 Si02
#       7
#    16   8  16   8   8  16   8
#     4  11  22  42  64  87 126 159 201 256 308 364
#     4  10  22  36  56  94 122 156 204 240 304 378
#     4  11  23  35  59  92 126 158 195 247 309 366
#     4  10  21  38  68  78 122 165 202 243 315 343
#     4   9  23  41  56  92 114 162 211 248 300 364
#     4   9  21  40  59  91 126 157 206 245 295 366
#     4   9  23  41  58  91 117 157 202 255 299 363
#
# _framework density 17.741880999999999
#
# number of rings (size 3 to 8) (size 9 to 14) (size 15 to 20)
#    0.600    1.600    2.000    1.800    7.000    1.600 
#    1.800    8.000    0.000    0.000    0.000    0.000 
#    0.000    0.000    0.000    0.000    0.000    0.000 
#
# Total GULP energy -223012.785545 kJ/mol
# GULP energy per Si atom -5575.319639 kJ/mol
# Density = 1.770150 g / cm^3
# Si number density = 17.741881 Si / 1000 Ang^3
#
#
#
# Elastic Constant Matrix: (Units=GPa)
#
#
# Indices 1 2 3 4 5 6 
#
# 1 121.5260 48.1414 64.1538 0.0000 0.0000 0.0000
# 2 48.1414 99.5128 50.3907 0.0000 0.0000 0.0000
# 3 64.1538 50.3907 131.4597 0.0000 0.0000 0.0000
# 4 0.0000 0.0000 0.0000 -0.5525 0.0000 0.0000
# 5 0.0000 0.0000 0.0000 0.0000 15.9802 0.0000
# 6 0.0000 0.0000 0.0000 0.0000 0.0000 -1.5956
#
#
#
# Elastic Compliance Matrix: (Units=1/GPa)
#
#
# Indices 1 2 3 4 5 6 
#
# 1 0.012004 -0.003525 -0.004507 0.000000 0.000000 0.000000
# 2 -0.003525 0.013504 -0.003456 0.000000 0.000000 0.000000
# 3 -0.004507 -0.003456 0.011131 0.000000 0.000000 0.000000
# 4 0.000000 0.000000 0.000000 -1.809797 0.000000 0.000000
# 5 0.000000 0.000000 0.000000 0.000000 0.062577 0.000000
# 6 0.000000 0.000000 0.000000 0.000000 0.000000 -0.626717
#
#
# Mechanical properties :
#
#
# Convention : Reuss Voigt Hill
#
# Bulk Modulus (GPa) = 73.18856 75.31892 74.25374
# Shear Modulus (GPa) = -2.16472 15.42059 6.62793
#
# Velocity S-wave (km/s) = -1.10579 2.95136 1.93491
# Velocity P-wave (km/s) = 6.30167 7.35926 6.85091
#
# Compressibility (1/GPa) = 0.01366334
#
# Stress axis : x y z
#
# Youngs Moduli (GPa) = 83.30269 74.04974 89.83767
#
# Poissons Ratio (x) = 0.26104 0.40490
# Poissons Ratio (y) = 0.29365 0.31049
# Poissons Ratio (z) = 0.37545 0.25593
#
# Static dielectric constant tensor:
#      x y z
#    x 1.593890 0.000000 0.000000 
#    y 0.000000 1.608160 0.000000 
#    z 0.000000 0.000000 1.597700 
# 
# From -- ./inp_files/24969.got.cif
#   From: 2010.05.17/outbox.cif.g08.bks.cpg/sg72_13_cif.got.tgz:24969.got - 2010.06.03 17:03:01.
