data_PCOD9527364
_publ_section_title
;
Structure prediction by ZEFSAII (Michael W. Deem and Ramdas Pophale) SiO2 
 PCOD9527364
Probable space group: I B A M
;
_chemical_formula_sum "Si O2"
_cell_formula_units_Z 60
_cell_length_a 8.549299
_cell_length_b 13.540060
_cell_length_c 23.195149
_cell_angle_alpha 90.000000
_cell_angle_beta 90.000000
_cell_angle_gamma 90.000000
_cell_volume 2685.024555
_symmetry_space_group_name_H-M "I B A M"
_symmetry_group_IT_number 72
_symmetry_cell_setting 'orthorhombic'
loop_
_space_group_symop_operation_xyz
x,y,z
-x,-y,z
x,-y,1/2-z
-x,y,1/2-z
-x,-y,-z
x,y,-z
-x,y,1/2+z
x,-y,1/2+z
1/2+x,1/2+y,1/2+z
1/2-x,1/2-y,1/2+z
1/2+x,1/2-y,-z
1/2-x,1/2+y,-z
1/2-x,1/2-y,1/2-z
1/2+x,1/2+y,1/2-z
1/2-x,1/2+y,z
1/2+x,1/2-y,z
loop_
_atom_site_type_symbol
_atom_site_label
_atom_site_fract_x
_atom_site_fract_y
_atom_site_fract_z
Si Si1 0.717847 0.269847 0.933040
Si Si2 0.584309 0.599138 0.066940
Si Si3 0.000000 0.807359 0.250000
Si Si4 0.204516 0.351480 0.681981
Si Si5 0.500000 0.000000 0.250000
O O1 0.541231 0.311124 0.930982
O O2 0.799191 0.339876 0.886269
O O3 0.757959 0.156962 0.913256
O O4 0.765912 0.279814 0.000000
O O5 0.500000 0.500000 0.091812
O O6 0.616231 0.572598 0.000000
O O7 0.115370 0.742464 0.210047
O O8 0.118942 0.859518 0.293676
O O9 0.109591 0.439820 0.707930
#
# Coordination Sequence:
#
# PCOD9527364 Si02
#       5
#    16  16   8  16   4
#     4  10  20  38  64  93 131 169 209 270 331 391
#     4   9  19  38  59  89 129 171 213 254 316 394
#     4   9  20  38  66  81 120 168 207 262 324 371
#     4  10  20  41  61  91 122 164 212 269 322 390
#     4  10  24  42  62  90 126 162 222 274 316 392
#
# _framework density 22.346164999999999
#
# number of rings (size 3 to 8) (size 9 to 14) (size 15 to 20)
#    0.000    2.400    0.000    1.600    0.000    0.533 
#   24.000    0.667    0.000    0.000    0.000    0.000 
#    0.000    0.000    0.000    0.000    0.000    0.000 
#
# Total GULP energy -167019.236915 kJ/mol
# GULP energy per Si atom -5567.307897 kJ/mol
# Density = 2.229530 g / cm^3
# Si number density = 22.346165 Si / 1000 Ang^3
#
#
#
# Elastic Constant Matrix: (Units=GPa)
#
#
# Indices 1 2 3 4 5 6 
#
# 1 106.9461 50.1200 25.4679 0.0000 0.0000 0.0000
# 2 50.1200 88.5970 15.3198 0.0000 0.0000 0.0000
# 3 25.4679 15.3198 125.9236 0.0000 0.0000 0.0000
# 4 0.0000 0.0000 0.0000 26.1523 0.0000 0.0000
# 5 0.0000 0.0000 0.0000 0.0000 10.1916 0.0000
# 6 0.0000 0.0000 0.0000 0.0000 0.0000 41.9053
#
#
#
# Elastic Compliance Matrix: (Units=1/GPa)
#
#
# Indices 1 2 3 4 5 6 
#
# 1 0.013106 -0.007105 -0.001786 0.000000 0.000000 0.000000
# 2 -0.007105 0.015382 -0.000434 0.000000 0.000000 0.000000
# 3 -0.001786 -0.000434 0.008355 0.000000 0.000000 0.000000
# 4 0.000000 0.000000 0.000000 0.038238 0.000000 0.000000
# 5 0.000000 0.000000 0.000000 0.000000 0.098120 0.000000
# 6 0.000000 0.000000 0.000000 0.000000 0.000000 0.023863
#
#
# Mechanical properties :
#
#
# Convention : Reuss Voigt Hill
#
# Bulk Modulus (GPa) = 54.97100 55.92022 55.44561
# Shear Modulus (GPa) = 22.54502 31.02045 26.78273
#
# Velocity S-wave (km/s) = 3.17976 3.72987 3.46575
# Velocity P-wave (km/s) = 6.17530 6.60515 6.39384
#
# Compressibility (1/GPa) = 0.01819141
#
# Stress axis : x y z
#
# Youngs Moduli (GPa) = 76.30293 65.01283 119.68281
#
# Poissons Ratio (x) = 0.46192 0.21378
# Poissons Ratio (y) = 0.54214 0.05198
# Poissons Ratio (z) = 0.13629 0.02824
#
# Static dielectric constant tensor:
#      x y z
#    x 1.893360 0.000000 0.000000 
#    y 0.000000 1.894700 0.000000 
#    z 0.000000 0.000000 1.824250 
# 
# From -- ./inp_files/43890.got.cif
#   From: 2010.05.17/outbox.cif.g08.bks.cpg/sg72_22_cif.got.tgz:43890.got - 2010.06.03 17:03:01.
