data_PCOD9527778
_publ_section_title
;
Structure prediction by ZEFSAII (Michael W. Deem and Ramdas Pophale) SiO2 
 PCOD9527778
Probable space group: I B A M
;
_chemical_formula_sum "Si O2"
_cell_formula_units_Z 64
_cell_length_a 5.170493
_cell_length_b 20.966603
_cell_length_c 25.010345
_cell_angle_alpha 90.000000
_cell_angle_beta 90.000000
_cell_angle_gamma 90.000000
_cell_volume 2711.313329
_symmetry_space_group_name_H-M "I B A M"
_symmetry_group_IT_number 72
_symmetry_cell_setting 'orthorhombic'
loop_
_space_group_symop_operation_xyz
x,y,z
-x,-y,z
x,-y,1/2-z
-x,y,1/2-z
-x,-y,-z
x,y,-z
-x,y,1/2+z
x,-y,1/2+z
1/2+x,1/2+y,1/2+z
1/2-x,1/2-y,1/2+z
1/2+x,1/2-y,-z
1/2-x,1/2+y,-z
1/2-x,1/2-y,1/2-z
1/2+x,1/2+y,1/2-z
1/2-x,1/2+y,z
1/2+x,1/2-y,z
loop_
_atom_site_type_symbol
_atom_site_label
_atom_site_fract_x
_atom_site_fract_y
_atom_site_fract_z
Si Si1 0.764529 0.961292 0.326971
Si Si2 0.241702 0.677300 0.714450
Si Si3 0.841190 0.289896 0.410091
Si Si4 0.683129 0.935415 0.441428
O O1 0.718625 0.897425 0.296033
O O2 0.846486 0.943208 0.387807
O O3 0.500000 0.000000 0.327996
O O4 0.000000 0.000000 0.304794
O O5 0.500000 0.683287 0.750000
O O6 0.201477 0.706148 0.654858
O O7 0.000000 0.696265 0.750000
O O8 0.566719 0.259282 0.426831
O O9 0.913008 0.361507 0.431680
O O10 0.809259 0.935226 0.500000
O O11 0.500000 0.000000 0.441682
#
# Coordination Sequence:
#
# PCOD9527778 Si02
#       4
#    16  16  16  16
#     4  10  21  37  58  89 128 166 209 263 322 384
#     4  11  23  38  60  90 124 168 218 265 317 378
#     4  11  25  44  66  96 133 171 215 267 322 383
#     4   9  21  43  70  98 130 170 215 265 323 386
#
# _framework density 23.604796
#
# number of rings (size 3 to 8) (size 9 to 14) (size 15 to 20)
#    0.000    1.750    0.000    3.000    0.000   17.500 
#    0.000    5.000    0.000    0.000    0.000    0.000 
#    0.000    0.000    0.000    0.000    0.000    0.000 
#
# Total GULP energy -178352.425809 kJ/mol
# GULP energy per Si atom -5573.513307 kJ/mol
# Density = 2.355107 g / cm^3
# Si number density = 23.604796 Si / 1000 Ang^3
#
#
#
# Elastic Constant Matrix: (Units=GPa)
#
#
# Indices 1 2 3 4 5 6 
#
# 1 117.0559 26.6709 22.6523 0.0000 0.0000 0.0000
# 2 26.6709 167.7557 32.8526 0.0000 0.0000 0.0000
# 3 22.6523 32.8526 148.5314 0.0000 0.0000 0.0000
# 4 0.0000 0.0000 0.0000 8.5648 0.0000 0.0000
# 5 0.0000 0.0000 0.0000 0.0000 0.1358 0.0000
# 6 0.0000 0.0000 0.0000 0.0000 0.0000 46.0426
#
#
#
# Elastic Compliance Matrix: (Units=1/GPa)
#
#
# Indices 1 2 3 4 5 6 
#
# 1 0.009035 -0.001219 -0.001108 0.000000 0.000000 0.000000
# 2 -0.001219 0.006396 -0.001229 0.000000 0.000000 0.000000
# 3 -0.001108 -0.001229 0.007173 0.000000 0.000000 0.000000
# 4 0.000000 0.000000 0.000000 0.116757 0.000000 0.000000
# 5 0.000000 0.000000 0.000000 0.000000 7.366332 0.000000
# 6 0.000000 0.000000 0.000000 0.000000 0.000000 0.021719
#
#
# Mechanical properties :
#
#
# Convention : Reuss Voigt Hill
#
# Bulk Modulus (GPa) = 64.55134 66.41050 65.48092
# Shear Modulus (GPa) = 0.66316 34.35977 17.51146
#
# Velocity S-wave (km/s) = 0.53061 3.81941 2.72667
# Velocity P-wave (km/s) = 5.27081 6.90260 6.14115
#
# Compressibility (1/GPa) = 0.01549155
#
# Stress axis : x y z
#
# Youngs Moduli (GPa) = 110.67778 156.35921 139.40499
#
# Poissons Ratio (x) = 0.19067 0.15449
# Poissons Ratio (y) = 0.13497 0.17127
# Poissons Ratio (z) = 0.12266 0.19210
#
# Static dielectric constant tensor:
#      x y z
#    x 1.857570 0.000000 0.000000 
#    y 0.000000 1.922990 0.000000 
#    z 0.000000 0.000000 1.897750 
# 
# From -- ./inp_files/41333.got.cif
#   From: 2010.05.17/outbox.cif.g08.bks.cpg/sg72_21_cif.got.tgz:41333.got - 2010.06.03 17:03:01.
