data_PCOD9527628
_publ_section_title
;
Structure prediction by ZEFSAII (Michael W. Deem and Ramdas Pophale) SiO2 
 PCOD9527628
Probable space group: I B A M
;
_chemical_formula_sum "Si O2"
_cell_formula_units_Z 116
_cell_length_a 15.203683
_cell_length_b 22.764838
_cell_length_c 18.158308
_cell_angle_alpha 90.000000
_cell_angle_beta 90.000000
_cell_angle_gamma 90.000000
_cell_volume 6284.760733
_symmetry_space_group_name_H-M "I B A M"
_symmetry_group_IT_number 72
_symmetry_cell_setting 'orthorhombic'
loop_
_space_group_symop_operation_xyz
x,y,z
-x,-y,z
x,-y,1/2-z
-x,y,1/2-z
-x,-y,-z
x,y,-z
-x,y,1/2+z
x,-y,1/2+z
1/2+x,1/2+y,1/2+z
1/2-x,1/2-y,1/2+z
1/2+x,1/2-y,-z
1/2-x,1/2+y,-z
1/2-x,1/2-y,1/2-z
1/2+x,1/2+y,1/2-z
1/2-x,1/2+y,z
1/2+x,1/2-y,z
loop_
_atom_site_type_symbol
_atom_site_label
_atom_site_fract_x
_atom_site_fract_y
_atom_site_fract_z
Si Si1 0.591429 0.887308 0.916450
Si Si2 0.168856 0.433005 0.724884
Si Si3 0.000000 0.000000 0.750000
Si Si4 0.375885 0.268991 0.293245
Si Si5 0.637660 0.394135 0.734844
Si Si6 0.909858 0.647686 0.150248
Si Si7 0.713468 0.645432 0.083076
Si Si8 0.806792 0.272333 0.865704
O O1 0.631133 0.931312 0.856906
O O2 0.489750 0.876482 0.897103
O O3 0.644481 0.826848 0.901342
O O4 0.602502 0.906066 0.000000
O O5 0.172790 0.500000 0.750000
O O6 0.265942 0.404672 0.729523
O O7 0.107770 0.392473 0.777614
O O8 0.076070 0.948654 0.751403
O O9 0.402815 0.334034 0.268312
O O10 0.431544 0.215603 0.327788
O O11 0.296968 0.279967 0.351102
O O12 0.341542 0.240096 0.217032
O O13 0.659321 0.386678 0.647731
O O14 0.816204 0.645630 0.107712
O O15 0.682416 0.712965 0.088307
O O16 0.703265 0.623000 0.000000
#
# Coordination Sequence:
#
# PCOD9527628 Si02
#       8
#    16  16   4  16  16  16  16  16
#     4  12  23  35  56  93 128 155 200 260 309 355
#     4  11  22  42  64  80 116 168 209 242 303 375
#     4  12  24  40  62 100 114 140 218 282 284 340
#     4   9  16  34  59  87 114 158 206 244 290 363
#     4  10  21  38  65  88 118 157 206 257 303 360
#     4  10  21  35  60  90 122 161 207 248 288 366
#     4   9  18  35  57  87 125 167 199 239 309 372
#     4   9  16  30  55  85 119 156 200 245 297 355
#
# _framework density 18.457346000000001
#
# number of rings (size 3 to 8) (size 9 to 14) (size 15 to 20)
#    0.000    1.931    3.448    2.897    0.000    3.310 
#    0.000    4.483    0.000    0.828    0.000    0.000 
#    0.000    0.000    0.000    0.000    0.000    0.000 
#
# Total GULP energy -322975.676492 kJ/mol
# GULP energy per Si atom -5568.546146 kJ/mol
# Density = 1.841534 g / cm^3
# Si number density = 18.457346 Si / 1000 Ang^3
#
#
#
# Elastic Constant Matrix: (Units=GPa)
#
#
# Indices 1 2 3 4 5 6 
#
# 1 72.2949 29.8094 46.7070 0.0000 0.0000 0.0000
# 2 29.8094 110.9035 52.3681 0.0000 0.0000 0.0000
# 3 46.7070 52.3681 137.7918 -0.0001 0.0000 0.0000
# 4 0.0000 0.0000 -0.0001 10.3751 0.0000 0.0000
# 5 0.0000 0.0000 0.0000 0.0000 13.2925 0.0000
# 6 0.0000 0.0000 0.0000 0.0000 0.0000 18.7648
#
#
#
# Elastic Compliance Matrix: (Units=1/GPa)
#
#
# Indices 1 2 3 4 5 6 
#
# 1 0.018227 -0.002415 -0.005260 0.000000 0.000000 0.000000
# 2 -0.002415 0.011309 -0.003479 0.000000 0.000000 0.000000
# 3 -0.005260 -0.003479 0.010363 0.000000 0.000000 0.000000
# 4 0.000000 0.000000 0.000000 0.096385 0.000000 0.000000
# 5 0.000000 0.000000 0.000000 0.000000 0.075230 0.000000
# 6 0.000000 0.000000 0.000000 0.000000 0.000000 0.053291
#
#
# Mechanical properties :
#
#
# Convention : Reuss Voigt Hill
#
# Bulk Modulus (GPa) = 56.85499 64.30658 60.58079
# Shear Modulus (GPa) = 17.06618 21.29353 19.17986
#
# Velocity S-wave (km/s) = 3.04407 3.40024 3.22707
# Velocity P-wave (km/s) = 6.57461 7.09449 6.83949
#
# Compressibility (1/GPa) = 0.01758860
#
# Stress axis : x y z
#
# Youngs Moduli (GPa) = 54.86488 88.42573 96.49958
#
# Poissons Ratio (x) = 0.21356 0.50762
# Poissons Ratio (y) = 0.13251 0.33575
# Poissons Ratio (z) = 0.28861 0.30766
#
# Static dielectric constant tensor:
#      x y z
#    x 1.645910 0.000000 0.000000 
#    y 0.000000 1.633110 0.000000 
#    z 0.000000 0.000000 1.637890 
# 
# From -- ./inp_files/30895.got.cif
#   From: 2010.05.17/outbox.cif.g08.bks.cpg/sg72_16_cif.got.tgz:30895.got - 2010.06.03 17:03:01.
