data_PCOD9527231
_publ_section_title
;
Structure prediction by ZEFSAII (Michael W. Deem and Ramdas Pophale) SiO2 
 PCOD9527231
Probable space group: I B A M
;
_chemical_formula_sum "Si O2"
_cell_formula_units_Z 96
_cell_length_a 14.887999
_cell_length_b 20.289978
_cell_length_c 13.769117
_cell_angle_alpha 90.000000
_cell_angle_beta 90.000000
_cell_angle_gamma 90.000000
_cell_volume 4159.335927
_symmetry_space_group_name_H-M "I B A M"
_symmetry_group_IT_number 72
_symmetry_cell_setting 'orthorhombic'
loop_
_space_group_symop_operation_xyz
x,y,z
-x,-y,z
x,-y,1/2-z
-x,y,1/2-z
-x,-y,-z
x,y,-z
-x,y,1/2+z
x,-y,1/2+z
1/2+x,1/2+y,1/2+z
1/2-x,1/2-y,1/2+z
1/2+x,1/2-y,-z
1/2-x,1/2+y,-z
1/2-x,1/2-y,1/2-z
1/2+x,1/2+y,1/2-z
1/2-x,1/2+y,z
1/2+x,1/2-y,z
loop_
_atom_site_type_symbol
_atom_site_label
_atom_site_fract_x
_atom_site_fract_y
_atom_site_fract_z
Si Si1 0.347819 0.159860 0.695471
Si Si2 0.169038 0.182475 0.611617
Si Si3 0.099903 0.517212 0.363112
Si Si4 0.979425 0.239159 0.614237
Si Si5 0.768894 0.598574 0.607734
Si Si6 0.907747 0.894927 0.784581
O O1 0.266900 0.202288 0.648299
O O2 0.366371 0.092315 0.635402
O O3 0.435486 0.202379 0.674296
O O4 0.316624 0.140261 0.804847
O O5 0.172396 0.162091 0.500000
O O6 0.142225 0.124236 0.684886
O O7 0.087353 0.233760 0.620905
O O8 0.095692 0.500000 0.250000
O O9 0.172400 0.466755 0.401874
O O10 0.000000 0.500000 0.399665
O O11 0.956856 0.244358 0.500000
O O12 0.940759 0.171477 0.659643
O O13 0.764421 0.630768 0.500000
O O14 0.669859 0.577885 0.645951
O O15 0.000000 0.928529 0.750000
#
# Coordination Sequence:
#
# PCOD9527231 Si02
#       6
#    16  16  16  16  16  16
#     4  10  21  40  65  90 130 175 213 270 329 388
#     4   9  19  36  59  89 120 162 213 261 323 391
#     4   9  20  42  65  93 128 172 220 267 323 389
#     4  10  20  37  61  90 125 166 216 268 325 395
#     4  10  21  38  64  97 133 173 219 270 324 394
#     4   9  19  38  60  88 125 163 207 267 326 382
#
# _framework density 23.080607000000001
#
# number of rings (size 3 to 8) (size 9 to 14) (size 15 to 20)
#    0.000    2.500    0.000    1.000    0.000    5.000 
#   21.000    2.500    0.000   27.500    0.000   35.000 
#    0.000    0.000    0.000    0.000    0.000    0.000 
#
# Total GULP energy -267898.712226 kJ/mol
# GULP energy per Si atom -5581.223171 kJ/mol
# Density = 2.302807 g / cm^3
# Si number density = 23.080607 Si / 1000 Ang^3
#
#
#
# Elastic Constant Matrix: (Units=GPa)
#
#
# Indices 1 2 3 4 5 6 
#
# 1 180.5158 60.2502 68.5273 0.0000 0.0000 0.0000
# 2 60.2502 78.8436 32.6313 -0.0001 0.0000 0.0000
# 3 68.5273 32.6313 196.9673 -0.0007 0.0000 0.0000
# 4 0.0000 -0.0001 -0.0007 -50.8247 -0.0002 -0.0001
# 5 0.0000 0.0000 0.0000 -0.0002 -28.2169 0.0000
# 6 0.0000 0.0000 0.0000 -0.0001 0.0000 15.8044
#
#
#
# Elastic Compliance Matrix: (Units=1/GPa)
#
#
# Indices 1 2 3 4 5 6 
#
# 1 0.008057 -0.005365 -0.001914 0.000000 0.000000 0.000000
# 2 -0.005365 0.017189 -0.000981 0.000000 0.000000 0.000000
# 3 -0.001914 -0.000981 0.005906 0.000000 0.000000 0.000000
# 4 0.000000 0.000000 0.000000 -0.019675 0.000000 0.000000
# 5 0.000000 0.000000 0.000000 0.000000 -0.035440 0.000000
# 6 0.000000 0.000000 0.000000 0.000000 0.000000 0.063274
#
#
# Mechanical properties :
#
#
# Convention : Reuss Voigt Hill
#
# Bulk Modulus (GPa) = 68.34793 86.57160 77.45976
# Shear Modulus (GPa) = 82.36260 7.01375 44.68818
#
# Velocity S-wave (km/s) = 5.98015 1.74511 4.40498
# Velocity P-wave (km/s) = 8.79545 6.45371 7.71396
#
# Compressibility (1/GPa) = 0.01463102
#
# Stress axis : x y z
#
# Youngs Moduli (GPa) = 124.11678 58.17698 169.33145
#
# Poissons Ratio (x) = 0.31210 0.32416
# Poissons Ratio (y) = 0.66584 0.16616
# Poissons Ratio (z) = 0.23760 0.05709
#
# Static dielectric constant tensor:
#      x y z
#    x 1.818570 0.000000 0.000000 
#    y 0.000000 1.872370 0.000000 
#    z 0.000000 0.000000 1.940700 
# 
# From -- ./inp_files/21844.got.cif
#   From: 2010.05.17/outbox.cif.g08.bks.cpg/sg72_11_cif.got.tgz:21844.got - 2010.06.03 17:03:01.
