data_PCOD9527302
_publ_section_title
;
Structure prediction by ZEFSAII (Michael W. Deem and Ramdas Pophale) SiO2 
 PCOD9527302
Probable space group: I B A M
;
_chemical_formula_sum "Si O2"
_cell_formula_units_Z 96
_cell_length_a 9.208569
_cell_length_b 29.799731
_cell_length_c 17.905241
_cell_angle_alpha 90.000000
_cell_angle_beta 90.000000
_cell_angle_gamma 90.000000
_cell_volume 4913.428734
_symmetry_space_group_name_H-M "I B A M"
_symmetry_group_IT_number 72
_symmetry_cell_setting 'orthorhombic'
loop_
_space_group_symop_operation_xyz
x,y,z
-x,-y,z
x,-y,1/2-z
-x,y,1/2-z
-x,-y,-z
x,y,-z
-x,y,1/2+z
x,-y,1/2+z
1/2+x,1/2+y,1/2+z
1/2-x,1/2-y,1/2+z
1/2+x,1/2-y,-z
1/2-x,1/2+y,-z
1/2-x,1/2-y,1/2-z
1/2+x,1/2+y,1/2-z
1/2-x,1/2+y,z
1/2+x,1/2-y,z
loop_
_atom_site_type_symbol
_atom_site_label
_atom_site_fract_x
_atom_site_fract_y
_atom_site_fract_z
Si Si1 0.603844 0.536303 0.085006
Si Si2 0.630180 0.030245 0.584958
Si Si3 0.629019 0.290569 0.346768
Si Si4 0.232998 0.377923 0.087724
Si Si5 0.073992 0.615931 0.831843
Si Si6 0.209082 0.199543 0.171216
O O1 0.500000 0.500000 0.124596
O O2 0.744379 0.505721 0.077925
O O3 0.657741 0.583354 0.119235
O O4 0.543783 0.545438 0.000000
O O5 0.598103 0.046745 0.500000
O O6 0.653868 0.070840 0.641199
O O7 0.500000 0.000000 0.614045
O O8 0.706265 0.329095 0.393746
O O9 0.693874 0.240970 0.358787
O O10 0.455762 0.295726 0.359440
O O11 0.676046 0.298558 0.260267
O O12 0.069079 0.380649 0.116703
O O13 0.231303 0.386398 0.000000
O O14 0.191152 0.655734 0.840194
O O15 0.000000 0.615136 0.750000
#
# Coordination Sequence:
#
# PCOD9527302 Si02
#       6
#    16  16  16  16  16  16
#     4   9  19  36  59  83 117 162 205 249 308 369
#     4  10  20  38  59  84 118 162 206 249 305 368
#     4  10  21  41  64  91 117 160 203 252 307 384
#     4  11  22  40  63  92 127 165 209 263 311 362
#     4  12  23  38  60  93 125 164 210 252 308 368
#     4  10  22  39  66  89 121 157 205 248 312 375
#
# _framework density 19.53829
#
# number of rings (size 3 to 8) (size 9 to 14) (size 15 to 20)
#    0.000    1.667    3.333    1.500    4.667    0.333 
#    0.000    5.000    0.000    1.000    0.000    0.000 
#    0.000    0.000    0.000    0.000    0.000    0.000 
#
# Total GULP energy -267262.329983 kJ/mol
# GULP energy per Si atom -5567.965208 kJ/mol
# Density = 1.949382 g / cm^3
# Si number density = 19.538290 Si / 1000 Ang^3
#
#
#
# Elastic Constant Matrix: (Units=GPa)
#
#
# Indices 1 2 3 4 5 6 
#
# 1 32.4383 15.2374 4.2070 0.0000 0.0000 0.0000
# 2 15.2374 128.3783 18.6401 0.0000 0.0000 0.0000
# 3 4.2070 18.6401 19.6966 0.0000 0.0000 0.0000
# 4 0.0000 0.0000 0.0000 26.8760 0.0000 0.0000
# 5 0.0000 0.0000 0.0000 0.0000 22.0500 0.0000
# 6 0.0000 0.0000 0.0000 0.0000 0.0000 41.0851
#
#
#
# Elastic Compliance Matrix: (Units=1/GPa)
#
#
# Indices 1 2 3 4 5 6 
#
# 1 0.032900 -0.003344 -0.003862 0.000000 0.000000 0.000000
# 2 -0.003344 0.009370 -0.008153 0.000000 0.000000 0.000000
# 3 -0.003862 -0.008153 0.059311 0.000000 0.000000 0.000000
# 4 0.000000 0.000000 0.000000 0.037208 0.000000 0.000000
# 5 0.000000 0.000000 0.000000 0.000000 0.045351 0.000000
# 6 0.000000 0.000000 0.000000 0.000000 0.000000 0.024340
#
#
# Mechanical properties :
#
#
# Convention : Reuss Voigt Hill
#
# Bulk Modulus (GPa) = 14.11205 28.52024 21.31615
# Shear Modulus (GPa) = 19.02439 27.49744 23.26092
#
# Velocity S-wave (km/s) = 3.12380 3.75555 3.45415
# Velocity P-wave (km/s) = 4.49992 5.78224 5.18091
#
# Compressibility (1/GPa) = 0.07086144
#
# Stress axis : x y z
#
# Youngs Moduli (GPa) = 30.39556 106.72085 16.86017
#
# Poissons Ratio (x) = 0.35688 0.06512
# Poissons Ratio (y) = 0.10165 0.13747
# Poissons Ratio (z) = 0.11740 0.87014
#
# Static dielectric constant tensor:
#      x y z
#    x 1.751450 0.000000 0.000000 
#    y 0.000000 1.687150 0.000000 
#    z 0.000000 0.000000 1.711780 
# 
# From -- ./inp_files/36049.got.cif
#   From: 2010.05.17/outbox.cif.g08.bks.cpg/sg72_19_cif.got.tgz:36049.got - 2010.06.03 17:03:01.
