data_PCOD9527484
_publ_section_title
;
Structure prediction by ZEFSAII (Michael W. Deem and Ramdas Pophale) SiO2 
 PCOD9527484
Probable space group: I B A M
;
_chemical_formula_sum "Si O2"
_cell_formula_units_Z 120
_cell_length_a 26.580511
_cell_length_b 8.684171
_cell_length_c 24.817357
_cell_angle_alpha 90.000000
_cell_angle_beta 90.000000
_cell_angle_gamma 90.000000
_cell_volume 5728.583140
_symmetry_space_group_name_H-M "I B A M"
_symmetry_group_IT_number 72
_symmetry_cell_setting 'orthorhombic'
loop_
_space_group_symop_operation_xyz
x,y,z
-x,-y,z
x,-y,1/2-z
-x,y,1/2-z
-x,-y,-z
x,y,-z
-x,y,1/2+z
x,-y,1/2+z
1/2+x,1/2+y,1/2+z
1/2-x,1/2-y,1/2+z
1/2+x,1/2-y,-z
1/2-x,1/2+y,-z
1/2-x,1/2-y,1/2-z
1/2+x,1/2+y,1/2-z
1/2-x,1/2+y,z
1/2+x,1/2-y,z
loop_
_atom_site_type_symbol
_atom_site_label
_atom_site_fract_x
_atom_site_fract_y
_atom_site_fract_z
Si Si1 0.750327 0.534284 0.662656
Si Si2 0.571537 0.681191 0.237742
Si Si3 0.322127 0.279250 0.809998
Si Si4 0.682536 0.772953 0.391830
Si Si5 0.422704 0.839179 0.848018
Si Si6 0.847498 0.440463 0.500000
Si Si7 0.611330 0.150293 0.401413
Si Si8 0.517993 0.676365 0.877687
O O1 0.706819 0.438130 0.690313
O O2 0.781639 0.646982 0.700887
O O3 0.721469 0.634734 0.617544
O O4 0.789758 0.416075 0.637092
O O5 0.565527 0.500000 0.250000
O O6 0.629783 0.716066 0.226921
O O7 0.560464 0.792334 0.287959
O O8 0.540118 0.698510 0.182921
O O9 0.344990 0.241160 0.869459
O O10 0.628571 0.747747 0.362873
O O11 0.671486 0.820920 0.452453
O O12 0.469042 0.782875 0.884664
O O13 0.409730 0.015948 0.860922
O O14 0.867789 0.559970 0.547477
O O15 0.564924 0.265093 0.413044
O O16 0.500000 0.500000 0.884450
#
# Coordination Sequence:
#
# PCOD9527484 Si02
#       8
#    16  16  16  16  16   8  16  16
#     4  10  20  41  62  91 127 167 212 266 328 384
#     4  11  22  38  64  95 128 171 215 271 319 394
#     4  10  21  40  63  89 130 169 212 265 327 385
#     4  10  22  39  65  89 127 164 209 269 323 388
#     4  11  21  40  63  91 130 168 218 260 328 385
#     4  10  20  44  68  94 127 158 221 263 328 394
#     4  10  23  43  65  94 128 175 206 281 330 401
#     4  11  23  39  67  94 131 168 216 269 337 387
#
# _framework density 20.947589000000001
#
# number of rings (size 3 to 8) (size 9 to 14) (size 15 to 20)
#    0.000    1.600    4.000    1.600    1.867    2.667 
#    0.000   16.333    0.000    0.000    0.000    0.000 
#    0.000    0.000    0.000    0.000    0.000    0.000 
#
# Total GULP energy -334028.152735 kJ/mol
# GULP energy per Si atom -5567.135879 kJ/mol
# Density = 2.089991 g / cm^3
# Si number density = 20.947589 Si / 1000 Ang^3
#
#
#
# Elastic Constant Matrix: (Units=GPa)
#
#
# Indices 1 2 3 4 5 6 
#
# 1 120.2412 34.7675 -5.5310 0.0000 0.0000 0.0000
# 2 34.7675 70.3977 20.6061 0.0000 0.0000 0.0000
# 3 -5.5310 20.6061 46.3233 0.0000 0.0000 0.0000
# 4 0.0000 0.0000 0.0000 26.0736 0.0000 0.0000
# 5 0.0000 0.0000 0.0000 0.0000 9.5699 0.0000
# 6 0.0000 0.0000 0.0000 0.0000 0.0000 39.1470
#
#
#
# Elastic Compliance Matrix: (Units=1/GPa)
#
#
# Indices 1 2 3 4 5 6 
#
# 1 0.010315 -0.006271 0.004021 0.000000 0.000000 0.000000
# 2 -0.006271 0.020144 -0.009710 0.000000 0.000000 0.000000
# 3 0.004021 -0.009710 0.026387 0.000000 0.000000 0.000000
# 4 0.000000 0.000000 0.000000 0.038353 0.000000 0.000000
# 5 0.000000 0.000000 0.000000 0.000000 0.104494 0.000000
# 6 0.000000 0.000000 0.000000 0.000000 0.000000 0.025545
#
#
# Mechanical properties :
#
#
# Convention : Reuss Voigt Hill
#
# Bulk Modulus (GPa) = 30.37056 37.40527 33.88792
# Shear Modulus (GPa) = 19.22096 27.43276 23.32686
#
# Velocity S-wave (km/s) = 3.03243 3.62275 3.34066
# Velocity P-wave (km/s) = 5.17597 5.94933 5.57607
#
# Compressibility (1/GPa) = 0.03292662
#
# Stress axis : x y z
#
# Youngs Moduli (GPa) = 96.94679 49.64164 37.89780
#
# Poissons Ratio (x) = 0.31132 -0.15240
# Poissons Ratio (y) = 0.60799 0.36798
# Poissons Ratio (z) = -0.38985 0.48200
#
# Static dielectric constant tensor:
#      x y z
#    x 1.781730 0.000000 0.000000 
#    y 0.000000 1.783590 0.000000 
#    z 0.000000 0.000000 1.735320 
# 
# From -- ./inp_files/49889.got.cif
#   From: 2010.05.17/outbox.cif.g08.bks.cpg/sg72_25_cif.got.tgz:49889.got - 2010.06.03 17:03:01.
