data_PCOD9527513
_publ_section_title
;
Structure prediction by ZEFSAII (Michael W. Deem and Ramdas Pophale) SiO2 
 PCOD9527513
Probable space group: I B A M
;
_chemical_formula_sum "Si O2"
_cell_formula_units_Z 116
_cell_length_a 28.068717
_cell_length_b 7.899614
_cell_length_c 23.332310
_cell_angle_alpha 90.000000
_cell_angle_beta 90.000000
_cell_angle_gamma 90.000000
_cell_volume 5173.520456
_symmetry_space_group_name_H-M "I B A M"
_symmetry_group_IT_number 72
_symmetry_cell_setting 'orthorhombic'
loop_
_space_group_symop_operation_xyz
x,y,z
-x,-y,z
x,-y,1/2-z
-x,y,1/2-z
-x,-y,-z
x,y,-z
-x,y,1/2+z
x,-y,1/2+z
1/2+x,1/2+y,1/2+z
1/2-x,1/2-y,1/2+z
1/2+x,1/2-y,-z
1/2-x,1/2+y,-z
1/2-x,1/2-y,1/2-z
1/2+x,1/2+y,1/2-z
1/2-x,1/2+y,z
1/2+x,1/2-y,z
loop_
_atom_site_type_symbol
_atom_site_label
_atom_site_fract_x
_atom_site_fract_y
_atom_site_fract_z
Si Si1 0.597991 0.190171 0.760691
Si Si2 0.231214 0.740532 0.815589
Si Si3 0.678832 0.894895 0.350660
Si Si4 0.434158 0.361220 0.900261
Si Si5 0.479513 0.182259 0.342711
Si Si6 0.500000 0.500000 0.500000
Si Si7 0.594170 0.022126 0.067399
Si Si8 0.637878 0.570670 0.815104
O O1 0.553917 0.266356 0.794749
O O2 0.612767 0.250474 0.698509
O O3 0.584202 0.000000 0.750000
O O4 0.644046 0.184981 0.802352
O O5 0.250000 0.750000 0.750000
O O6 0.203407 0.566767 0.827378
O O7 0.192980 0.891769 0.824093
O O8 0.276570 0.769083 0.856218
O O9 0.645061 0.931566 0.404347
O O10 0.477495 0.303412 0.859022
O O11 0.414421 0.179735 0.923698
O O12 0.393107 0.476170 0.870001
O O13 0.459711 0.461268 0.950527
O O14 0.500000 0.000000 0.323831
O O15 0.446126 0.125990 0.396883
O O16 0.590947 0.060545 0.000000
O O17 0.630775 0.500000 0.750000
#
# Coordination Sequence:
#
# PCOD9527513 Si02
#       8
#    16  16  16  16  16   4  16  16
#     4  11  19  38  59  89 133 164 199 261 324 389
#     4  12  21  38  65  95 129 170 212 257 328 411
#     4  11  22  38  62  96 128 166 215 265 326 392
#     4  11  24  44  63  92 126 173 219 267 325 393
#     4   9  21  35  63  94 116 159 215 259 319 381
#     4  12  28  44  64  84 128 180 220 264 324 392
#     4  10  20  42  70  92 121 165 225 282 316 373
#     4  12  25  39  61  97 136 171 213 269 337 397
#
# _framework density 22.421869000000001
#
# number of rings (size 3 to 8) (size 9 to 14) (size 15 to 20)
#    0.000    1.103    4.828    2.897    2.897    2.759 
#    0.000    0.690    1.517    0.000    0.000    0.000 
#    0.000    0.000    0.000    0.000    0.000    0.000 
#
# Total GULP energy -323527.105993 kJ/mol
# GULP energy per Si atom -5578.053552 kJ/mol
# Density = 2.237084 g / cm^3
# Si number density = 22.421869 Si / 1000 Ang^3
#
#
#
# Elastic Constant Matrix: (Units=GPa)
#
#
# Indices 1 2 3 4 5 6 
#
# 1 175.6710 10.4237 62.5817 0.0000 0.0000 0.0000
# 2 10.4237 34.3287 -2.3300 0.0000 0.0000 0.0000
# 3 62.5817 -2.3300 80.9618 0.0000 0.0000 0.0000
# 4 0.0000 0.0000 0.0000 17.8954 0.0000 0.0000
# 5 0.0000 0.0000 0.0000 0.0000 38.6119 0.0000
# 6 0.0000 0.0000 0.0000 0.0000 0.0000 32.7900
#
#
#
# Elastic Compliance Matrix: (Units=1/GPa)
#
#
# Indices 1 2 3 4 5 6 
#
# 1 0.008134 -0.002902 -0.006371 0.000000 0.000000 0.000000
# 2 -0.002902 0.030223 0.003113 0.000000 0.000000 0.000000
# 3 -0.006371 0.003113 0.017366 0.000000 0.000000 0.000000
# 4 0.000000 0.000000 0.000000 0.055880 0.000000 0.000000
# 5 0.000000 0.000000 0.000000 0.000000 0.025899 0.000000
# 6 0.000000 0.000000 0.000000 0.000000 0.000000 0.030497
#
#
# Mechanical properties :
#
#
# Convention : Reuss Voigt Hill
#
# Bulk Modulus (GPa) = 23.04023 48.03472 35.53748
# Shear Modulus (GPa) = 25.66903 32.54522 29.10712
#
# Velocity S-wave (km/s) = 3.38719 3.81398 3.60690
# Velocity P-wave (km/s) = 5.05920 6.39257 5.76457
#
# Compressibility (1/GPa) = 0.04340234
#
# Stress axis : x y z
#
# Youngs Moduli (GPa) = 122.93478 33.08767 57.58400
#
# Poissons Ratio (x) = 0.09603 0.36688
# Poissons Ratio (y) = 0.35681 -0.17928
# Poissons Ratio (z) = 0.78325 -0.10301
#
# Static dielectric constant tensor:
#      x y z
#    x 1.847060 0.000000 0.000000 
#    y 0.000000 1.206780 0.000000 
#    z 0.000000 0.000000 2.010410 
# 
# From -- ./inp_files/46006.got.cif
#   From: 2010.05.17/outbox.cif.g08.bks.cpg/sg72_24_cif.got.tgz:46006.got - 2010.06.03 17:03:01.
