data_PCOD9527614
_publ_section_title
;
Structure prediction by ZEFSAII (Michael W. Deem and Ramdas Pophale) SiO2 
 PCOD9527614
Probable space group: I B A M
;
_chemical_formula_sum "Si O2"
_cell_formula_units_Z 96
_cell_length_a 24.640077
_cell_length_b 22.921140
_cell_length_c 8.820109
_cell_angle_alpha 90.000000
_cell_angle_beta 90.000000
_cell_angle_gamma 90.000000
_cell_volume 4981.409294
_symmetry_space_group_name_H-M "I B A M"
_symmetry_group_IT_number 72
_symmetry_cell_setting 'orthorhombic'
loop_
_space_group_symop_operation_xyz
x,y,z
-x,-y,z
x,-y,1/2-z
-x,y,1/2-z
-x,-y,-z
x,y,-z
-x,y,1/2+z
x,-y,1/2+z
1/2+x,1/2+y,1/2+z
1/2-x,1/2-y,1/2+z
1/2+x,1/2-y,-z
1/2-x,1/2+y,-z
1/2-x,1/2-y,1/2-z
1/2+x,1/2+y,1/2-z
1/2-x,1/2+y,z
1/2+x,1/2-y,z
loop_
_atom_site_type_symbol
_atom_site_label
_atom_site_fract_x
_atom_site_fract_y
_atom_site_fract_z
Si Si1 0.945651 0.172301 0.322977
Si Si2 0.716500 0.617899 0.316278
Si Si3 0.333866 0.740249 0.823036
Si Si4 0.110261 0.938197 0.180299
Si Si5 0.334776 0.133458 0.818341
Si Si6 0.557276 0.934762 0.816208
O O1 0.953749 0.159872 0.500000
O O2 0.894868 0.215491 0.309396
O O3 0.928845 0.113016 0.238559
O O4 0.000000 0.196846 0.250000
O O5 0.710489 0.613974 0.500000
O O6 0.703555 0.685598 0.274698
O O7 0.670280 0.578993 0.240534
O O8 0.778019 0.603446 0.270837
O O9 0.330489 0.799720 0.732497
O O10 0.322290 0.751842 0.000000
O O11 0.094426 0.000000 0.250000
O O12 0.110235 0.940641 0.000000
O O13 0.390400 0.102961 0.767495
O O14 0.335327 0.131733 0.000000
O O15 0.500000 0.912018 0.750000
O O16 0.563623 0.000000 0.750000
O O17 0.554487 0.936749 0.000000
#
# Coordination Sequence:
#
# PCOD9527614 Si02
#       6
#    16  16  16  16  16  16
#     4  10  21  38  57  81 111 145 185 230 274 321
#     4   9  19  37  55  78 112 145 179 225 271 317
#     4   9  19  34  54  79 111 145 178 219 268 317
#     4  11  22  37  57  81 109 145 184 226 274 326
#     4  10  21  35  56  83 110 140 180 223 267 322
#     4  10  21  38  57  78 104 138 174 218 269 318
#
# _framework density 19.271654999999999
#
# number of rings (size 3 to 8) (size 9 to 14) (size 15 to 20)
#    0.000    2.167    0.000    4.500    0.000    7.000 
#    0.000    6.667    0.000    0.000    0.000    0.000 
#    0.000    0.000    0.000    0.000    0.000    0.000 
#
# Total GULP energy -267985.653101 kJ/mol
# GULP energy per Si atom -5583.034440 kJ/mol
# Density = 1.922779 g / cm^3
# Si number density = 19.271655 Si / 1000 Ang^3
#
#
#
# Elastic Constant Matrix: (Units=GPa)
#
#
# Indices 1 2 3 4 5 6 
#
# 1 102.6844 -9.9560 27.6746 0.0000 0.0000 0.0000
# 2 -9.9560 8.4692 2.5131 0.0000 0.0000 0.0000
# 3 27.6746 2.5131 57.0282 0.0000 0.0000 0.0000
# 4 0.0000 0.0000 0.0000 29.5373 0.0000 0.0000
# 5 0.0000 0.0000 0.0000 0.0000 24.4086 0.0000
# 6 0.0000 0.0000 0.0000 0.0000 0.0000 1.9677
#
#
#
# Elastic Compliance Matrix: (Units=1/GPa)
#
#
# Indices 1 2 3 4 5 6 
#
# 1 0.013457 0.017992 -0.007323 0.000000 0.000000 0.000000
# 2 0.017992 0.143694 -0.015063 0.000000 0.000000 0.000000
# 3 -0.007323 -0.015063 0.021753 0.000000 0.000000 0.000000
# 4 0.000000 0.000000 0.000000 0.033856 0.000000 0.000000
# 5 0.000000 0.000000 0.000000 0.000000 0.040969 0.000000
# 6 0.000000 0.000000 0.000000 0.000000 0.000000 0.508210
#
#
# Mechanical properties :
#
#
# Convention : Reuss Voigt Hill
#
# Bulk Modulus (GPa) = 5.87838 23.18281 14.53060
# Shear Modulus (GPa) = 6.04279 21.04606 13.54442
#
# Velocity S-wave (km/s) = 1.77268 3.30824 2.65394
# Velocity P-wave (km/s) = 2.69198 5.16219 4.11673
#
# Compressibility (1/GPa) = 0.17011490
#
# Stress axis : x y z
#
# Youngs Moduli (GPa) = 74.31252 6.95921 45.97124
#
# Poissons Ratio (x) = -0.12521 0.33665
# Poissons Ratio (y) = -1.33703 0.69248
# Poissons Ratio (z) = 0.54420 0.10483
#
# Static dielectric constant tensor:
#      x y z
#    x 1.704080 0.000000 0.000000 
#    y 0.000000 1.643870 0.000000 
#    z 0.000000 0.000000 1.650890 
# 
# From -- ./inp_files/6948.got.cif
#   From: 2010.05.17/outbox.cif.g08.bks.cpg/sg72_4_cif.got.tgz:6948.got - 2010.06.03 17:03:01.
