data_PCOD9527534
_publ_section_title
;
Structure prediction by ZEFSAII (Michael W. Deem and Ramdas Pophale) SiO2 
 PCOD9527534
Probable space group: I B A M
;
_chemical_formula_sum "Si O2"
_cell_formula_units_Z 80
_cell_length_a 5.153313
_cell_length_b 30.520946
_cell_length_c 25.812375
_cell_angle_alpha 90.000000
_cell_angle_beta 90.000000
_cell_angle_gamma 90.000000
_cell_volume 4059.873274
_symmetry_space_group_name_H-M "I B A M"
_symmetry_group_IT_number 72
_symmetry_cell_setting 'orthorhombic'
loop_
_space_group_symop_operation_xyz
x,y,z
-x,-y,z
x,-y,1/2-z
-x,y,1/2-z
-x,-y,-z
x,y,-z
-x,y,1/2+z
x,-y,1/2+z
1/2+x,1/2+y,1/2+z
1/2-x,1/2-y,1/2+z
1/2+x,1/2-y,-z
1/2-x,1/2+y,-z
1/2-x,1/2-y,1/2-z
1/2+x,1/2+y,1/2-z
1/2-x,1/2+y,z
1/2+x,1/2-y,z
loop_
_atom_site_type_symbol
_atom_site_label
_atom_site_fract_x
_atom_site_fract_y
_atom_site_fract_z
Si Si1 0.946763 0.950617 0.418053
Si Si2 0.805668 0.732507 0.691711
Si Si3 0.484397 0.583394 0.192949
Si Si4 0.454231 0.105100 0.057157
Si Si5 0.979975 0.638003 0.831631
O O1 0.949372 0.947383 0.355393
O O2 0.673337 0.932416 0.437535
O O3 0.175185 0.917974 0.435987
O O4 0.000000 0.000000 0.434605
O O5 0.750000 0.750000 0.750000
O O6 0.521699 0.735844 0.666878
O O7 0.926050 0.684528 0.689296
O O8 0.500000 0.563601 0.250000
O O9 0.197105 0.602823 0.185383
O O10 0.699287 0.622451 0.188468
O O11 0.510322 0.136721 0.105754
O O12 0.471148 0.125050 0.000000
#
# Coordination Sequence:
#
# PCOD9527534 Si02
#       5
#    16  16  16  16  16
#     4  10  21  36  53  82 111 135 181 231 268 316
#     4  10  21  32  50  79 107 138 168 216 267 316
#     4  10  21  33  54  75 106 152 178 210 263 326
#     4  10  21  37  57  79 103 143 182 221 277 319
#     4  10  21  36  52  77 111 138 180 222 260 324
#
# _framework density 19.705051000000001
#
# number of rings (size 3 to 8) (size 9 to 14) (size 15 to 20)
#    0.000    2.000    0.000    3.000    8.400    2.800 
#    0.000    0.000    0.000    8.400    0.000    0.000 
#    0.000    0.000    0.000    0.000    0.000    0.000 
#
# Total GULP energy -223219.456406 kJ/mol
# GULP energy per Si atom -5580.486410 kJ/mol
# Density = 1.966020 g / cm^3
# Si number density = 19.705051 Si / 1000 Ang^3
#
#
#
# Elastic Constant Matrix: (Units=GPa)
#
#
# Indices 1 2 3 4 5 6 
#
# 1 96.7671 -12.2955 -4.5443 0.0000 0.0000 0.0000
# 2 -12.2955 48.4769 1.5626 0.0000 0.0000 0.0000
# 3 -4.5443 1.5626 140.7627 0.0000 0.0000 0.0000
# 4 0.0000 0.0000 0.0000 -31.0953 0.0000 0.0000
# 5 0.0000 0.0000 0.0000 0.0000 5.0984 0.0000
# 6 0.0000 0.0000 0.0000 0.0000 0.0000 22.7289
#
#
#
# Elastic Compliance Matrix: (Units=1/GPa)
#
#
# Indices 1 2 3 4 5 6 
#
# 1 0.010692 0.002702 0.000315 0.000000 0.000000 0.000000
# 2 0.002702 0.021318 -0.000149 0.000000 0.000000 0.000000
# 3 0.000315 -0.000149 0.007116 0.000000 0.000000 0.000000
# 4 0.000000 0.000000 0.000000 -0.032159 0.000000 0.000000
# 5 0.000000 0.000000 0.000000 0.000000 0.196140 0.000000
# 6 0.000000 0.000000 0.000000 0.000000 0.000000 0.043997
#
#
# Mechanical properties :
#
#
# Convention : Reuss Voigt Hill
#
# Bulk Modulus (GPa) = 22.29074 28.38359 25.33716
# Shear Modulus (GPa) = 19.50667 19.43200 19.46933
#
# Velocity S-wave (km/s) = 3.14973 3.14370 3.14672
# Velocity P-wave (km/s) = 4.95626 5.25477 5.10770
#
# Compressibility (1/GPa) = 0.04486168
#
# Stress axis : x y z
#
# Youngs Moduli (GPa) = 93.52625 46.90771 140.52859
#
# Poissons Ratio (x) = -0.12673 -0.04429
# Poissons Ratio (y) = -0.25269 0.02100
# Poissons Ratio (z) = -0.02948 0.00701
#
# Static dielectric constant tensor:
#      x y z
#    x 1.765350 0.000000 0.000000 
#    y 0.000000 1.678830 0.000000 
#    z 0.000000 0.000000 1.768680 
# 
# From -- ./inp_files/41559.got.cif
#   From: 2010.05.17/outbox.cif.g08.bks.cpg/sg72_21_cif.got.tgz:41559.got - 2010.06.03 17:03:01.
