data_PCOD9527476
_publ_section_title
;
Structure prediction by ZEFSAII (Michael W. Deem and Ramdas Pophale) SiO2 
 PCOD9527476
Probable space group: I B A M
;
_chemical_formula_sum "Si O2"
_cell_formula_units_Z 112
_cell_length_a 32.175577
_cell_length_b 10.727854
_cell_length_c 14.883497
_cell_angle_alpha 90.000000
_cell_angle_beta 90.000000
_cell_angle_gamma 90.000000
_cell_volume 5137.409476
_symmetry_space_group_name_H-M "I B A M"
_symmetry_group_IT_number 72
_symmetry_cell_setting 'orthorhombic'
loop_
_space_group_symop_operation_xyz
x,y,z
-x,-y,z
x,-y,1/2-z
-x,y,1/2-z
-x,-y,-z
x,y,-z
-x,y,1/2+z
x,-y,1/2+z
1/2+x,1/2+y,1/2+z
1/2-x,1/2-y,1/2+z
1/2+x,1/2-y,-z
1/2-x,1/2+y,-z
1/2-x,1/2-y,1/2-z
1/2+x,1/2+y,1/2-z
1/2-x,1/2+y,z
1/2+x,1/2-y,z
loop_
_atom_site_type_symbol
_atom_site_label
_atom_site_fract_x
_atom_site_fract_y
_atom_site_fract_z
Si Si1 0.929719 0.391310 0.608747
Si Si2 0.143963 0.204465 0.601816
Si Si3 0.067327 0.335047 0.393860
Si Si4 0.010443 0.169201 0.149807
Si Si5 0.913954 0.022331 0.358381
Si Si6 0.647852 0.747102 0.603390
Si Si7 0.712300 0.349070 0.749602
O O1 0.935470 0.376018 0.500000
O O2 0.945065 0.527655 0.636495
O O3 0.957999 0.286673 0.653665
O O4 0.880591 0.367966 0.626196
O O5 0.156826 0.235244 0.500000
O O6 0.112657 0.304531 0.646164
O O7 0.182853 0.171903 0.662969
O O8 0.111313 0.090442 0.599426
O O9 0.075322 0.346495 0.500000
O O10 0.032048 0.229897 0.385798
O O11 0.039513 0.058612 0.111027
O O12 0.000000 0.132353 0.250000
O O13 0.886515 0.139764 0.386077
O O14 0.913455 0.000000 0.250000
O O15 0.661576 0.758087 0.500000
O O16 0.684360 0.698115 0.666661
O O17 0.721923 0.500000 0.750000
O O18 0.750000 0.250000 0.750000
#
# Coordination Sequence:
#
# PCOD9527476 Si02
#       7
#    16  16  16  16  16  16  16
#     4   9  20  38  59  85 122 171 222 276 327 384
#     4  11  23  42  68  93 126 174 217 262 327 399
#     4  10  22  38  56  85 130 173 218 276 327 380
#     4  11  23  33  53  89 127 173 225 272 329 381
#     4  11  20  38  63  89 125 172 221 275 321 384
#     4  10  20  40  71  96 120 166 219 264 328 402
#     4  12  27  47  71 103 137 167 208 274 340 409
#
# _framework density 21.80087
#
# number of rings (size 3 to 8) (size 9 to 14) (size 15 to 20)
#    0.000    1.429    2.857    2.143    2.000    7.714 
#    0.000    1.429    0.000    0.000    0.000    0.000 
#    0.000    0.000    0.000    0.000    0.000    0.000 
#
# Total GULP energy -312357.241733 kJ/mol
# GULP energy per Si atom -5577.807888 kJ/mol
# Density = 2.175125 g / cm^3
# Si number density = 21.800870 Si / 1000 Ang^3
#
#
#
# Elastic Constant Matrix: (Units=GPa)
#
#
# Indices 1 2 3 4 5 6 
#
# 1 153.8612 57.0929 40.8072 0.0000 0.0000 0.0000
# 2 57.0929 106.9919 19.4762 0.0000 0.0000 0.0000
# 3 40.8072 19.4762 88.9203 0.0000 0.0000 0.0000
# 4 0.0000 0.0000 0.0000 -18.8821 0.0000 0.0000
# 5 0.0000 0.0000 0.0000 0.0000 129.9816 0.0000
# 6 0.0000 0.0000 0.0000 0.0000 0.0000 26.2086
#
#
#
# Elastic Compliance Matrix: (Units=1/GPa)
#
#
# Indices 1 2 3 4 5 6 
#
# 1 0.008884 -0.004165 -0.003165 0.000000 0.000000 0.000000
# 2 -0.004165 0.011687 -0.000649 0.000000 0.000000 0.000000
# 3 -0.003165 -0.000649 0.012841 0.000000 0.000000 0.000000
# 4 0.000000 0.000000 0.000000 -0.052960 0.000000 0.000000
# 5 0.000000 0.000000 0.000000 0.000000 0.007693 0.000000
# 6 0.000000 0.000000 0.000000 0.000000 0.000000 0.038155
#
#
# Mechanical properties :
#
#
# Convention : Reuss Voigt Hill
#
# Bulk Modulus (GPa) = 57.28904 64.94734 61.11819
# Shear Modulus (GPa) = 104.00493 42.95477 73.47985
#
# Velocity S-wave (km/s) = 6.91450 4.44365 5.81190
# Velocity P-wave (km/s) = 9.49118 7.49559 8.55179
#
# Compressibility (1/GPa) = 0.01745535
#
# Stress axis : x y z
#
# Youngs Moduli (GPa) = 112.56045 85.56604 77.87850
#
# Poissons Ratio (x) = 0.35635 0.24648
# Poissons Ratio (y) = 0.46877 0.05051
# Poissons Ratio (z) = 0.35624 0.05549
#
# Static dielectric constant tensor:
#      x y z
#    x 1.802560 0.000000 0.000000 
#    y 0.000000 1.910790 0.000000 
#    z 0.000000 0.000000 1.822740 
# 
# From -- ./inp_files/26397.got.cif
#   From: 2010.05.17/outbox.cif.g08.bks.cpg/sg72_14_cif.got.tgz:26397.got - 2010.06.03 17:03:01.
