data_PCOD9527042
_publ_section_title
;
Structure prediction by ZEFSAII (Michael W. Deem and Ramdas Pophale) SiO2 
 PCOD9527042
Probable space group: I B A M
;
_chemical_formula_sum "Si O2"
_cell_formula_units_Z 64
_cell_length_a 7.297110
_cell_length_b 31.380528
_cell_length_c 11.980981
_cell_angle_alpha 90.000000
_cell_angle_beta 90.000000
_cell_angle_gamma 90.000000
_cell_volume 2743.490869
_symmetry_space_group_name_H-M "I B A M"
_symmetry_group_IT_number 72
_symmetry_cell_setting 'orthorhombic'
loop_
_space_group_symop_operation_xyz
x,y,z
-x,-y,z
x,-y,1/2-z
-x,y,1/2-z
-x,-y,-z
x,y,-z
-x,y,1/2+z
x,-y,1/2+z
1/2+x,1/2+y,1/2+z
1/2-x,1/2-y,1/2+z
1/2+x,1/2-y,-z
1/2-x,1/2+y,-z
1/2-x,1/2-y,1/2-z
1/2+x,1/2+y,1/2-z
1/2-x,1/2+y,z
1/2+x,1/2-y,z
loop_
_atom_site_type_symbol
_atom_site_label
_atom_site_fract_x
_atom_site_fract_y
_atom_site_fract_z
Si Si1 0.725553 0.807726 0.345379
Si Si2 0.084511 0.400880 0.876092
Si Si3 0.648987 0.288762 0.115334
Si Si4 0.711147 0.514449 0.874100
O O1 0.647223 0.852116 0.381735
O O2 0.641459 0.762565 0.380616
O O3 0.725892 0.805840 0.212285
O O4 0.941381 0.804488 0.374751
O O5 0.250580 0.435020 0.874751
O O6 0.000000 0.406085 0.750000
O O7 0.990208 0.408915 0.000000
O O8 0.731093 0.302931 0.000000
O O9 0.500000 0.500000 0.873236
O O10 0.784720 0.500000 0.750000
O O11 0.780486 0.499943 0.000000
#
# Coordination Sequence:
#
# PCOD9527042 Si02
#       4
#    16  16  16  16
#     4  10  23  38  58  89 126 173 222 269 319 375
#     4  11  25  43  64  95 135 172 212 267 327 389
#     4  10  20  36  58  84 120 170 225 273 318 369
#     4   9  20  41  69  96 126 164 207 260 322 389
#
# _framework density 23.327942
#
# number of rings (size 3 to 8) (size 9 to 14) (size 15 to 20)
#    0.000    2.000    0.000    2.250    7.000    6.500 
#    0.000    5.000    0.000    0.000    0.000    0.000 
#    0.000    0.000    0.000    0.000    0.000    0.000 
#
# Total GULP energy -178204.353184 kJ/mol
# GULP energy per Si atom -5568.886037 kJ/mol
# Density = 2.327485 g / cm^3
# Si number density = 23.327942 Si / 1000 Ang^3
#
#
#
# Elastic Constant Matrix: (Units=GPa)
#
#
# Indices 1 2 3 4 5 6 
#
# 1 68.2384 39.2893 25.0797 -0.0001 0.0000 0.0000
# 2 39.2893 132.6324 34.1274 -0.0004 -0.0001 0.0000
# 3 25.0797 34.1274 285.7550 -0.0005 -0.0002 0.0000
# 4 -0.0001 -0.0004 -0.0005 -374.8914 0.0004 -0.0004
# 5 0.0000 -0.0001 -0.0002 0.0004 21.4085 -0.0001
# 6 0.0000 0.0000 0.0000 -0.0004 -0.0001 -16.9168
#
#
#
# Elastic Compliance Matrix: (Units=1/GPa)
#
#
# Indices 1 2 3 4 5 6 
#
# 1 0.017924 -0.005060 -0.000969 0.000000 0.000000 0.000000
# 2 -0.005060 0.009207 -0.000655 0.000000 0.000000 0.000000
# 3 -0.000969 -0.000655 0.003663 0.000000 0.000000 0.000000
# 4 0.000000 0.000000 0.000000 -0.002667 0.000000 0.000000
# 5 0.000000 0.000000 0.000000 0.000000 0.046710 0.000000
# 6 0.000000 0.000000 0.000000 0.000000 0.000000 -0.059113
#
#
# Mechanical properties :
#
#
# Convention : Reuss Voigt Hill
#
# Bulk Modulus (GPa) = 57.38870 75.95762 66.67316
# Shear Modulus (GPa) = 143.25791 -48.20466 47.52662
#
# Velocity S-wave (km/s) = 7.84498 -4.55069 4.51857
# Velocity P-wave (km/s) = 10.33018 2.24049 7.47437
#
# Compressibility (1/GPa) = 0.01742503
#
# Stress axis : x y z
#
# Youngs Moduli (GPa) = 55.79069 108.60940 273.01419
#
# Poissons Ratio (x) = 0.54960 0.26449
# Poissons Ratio (y) = 0.28232 0.17896
# Poissons Ratio (z) = 0.05405 0.07119
#
# Static dielectric constant tensor:
#      x y z
#    x 1.861760 0.000000 0.000000 
#    y 0.000000 1.794450 0.000000 
#    z 0.000000 0.000000 2.060690 
# 
# From -- ./inp_files/10537.got.cif
#   From: 2010.05.17/outbox.cif.g08.bks.cpg/sg72_6_cif.got.tgz:10537.got - 2010.06.03 17:03:01.
