data_PCOD9527193
_publ_section_title
;
Structure prediction by ZEFSAII (Michael W. Deem and Ramdas Pophale) SiO2 
 PCOD9527193
Probable space group: I B A M
;
_chemical_formula_sum "Si O2"
_cell_formula_units_Z 112
_cell_length_a 11.775472
_cell_length_b 30.547832
_cell_length_c 17.647719
_cell_angle_alpha 90.000000
_cell_angle_beta 90.000000
_cell_angle_gamma 90.000000
_cell_volume 6348.151717
_symmetry_space_group_name_H-M "I B A M"
_symmetry_group_IT_number 72
_symmetry_cell_setting 'orthorhombic'
loop_
_space_group_symop_operation_xyz
x,y,z
-x,-y,z
x,-y,1/2-z
-x,y,1/2-z
-x,-y,-z
x,y,-z
-x,y,1/2+z
x,-y,1/2+z
1/2+x,1/2+y,1/2+z
1/2-x,1/2-y,1/2+z
1/2+x,1/2-y,-z
1/2-x,1/2+y,-z
1/2-x,1/2-y,1/2-z
1/2+x,1/2+y,1/2-z
1/2-x,1/2+y,z
1/2+x,1/2-y,z
loop_
_atom_site_type_symbol
_atom_site_label
_atom_site_fract_x
_atom_site_fract_y
_atom_site_fract_z
Si Si1 0.841830 0.900404 0.915283
Si Si2 0.817995 0.671360 0.343644
Si Si3 0.347179 0.736548 0.910782
Si Si4 0.247021 0.867786 0.816359
Si Si5 0.135126 0.949952 0.263781
Si Si6 0.956719 0.168923 0.912600
Si Si7 0.434143 0.833928 0.910829
O O1 0.746181 0.864567 0.895689
O O2 0.841496 0.936276 0.850227
O O3 0.959119 0.872912 0.911164
O O4 0.827950 0.917449 0.000000
O O5 0.756927 0.717048 0.363673
O O6 0.791807 0.657509 0.257907
O O7 0.948955 0.670160 0.365360
O O8 0.462178 0.709631 0.891251
O O9 0.369415 0.787572 0.902092
O O10 0.325538 0.727318 0.000000
O O11 0.199020 0.914423 0.788412
O O12 0.145140 0.841192 0.856280
O O13 0.350814 0.869846 0.875115
O O14 0.000000 0.945847 0.250000
O O15 0.168608 0.000000 0.250000
O O16 0.917414 0.175368 0.000000
O O17 0.456060 0.840647 0.000000
#
# Coordination Sequence:
#
# PCOD9527193 Si02
#       7
#    16  16  16  16  16  16  16
#     4   9  17  33  59  82 107 149 190 221 268 342
#     4  10  21  37  55  77 110 147 195 232 278 330
#     4   9  20  35  54  76 106 151 195 233 274 325
#     4  11  22  36  56  83 112 147 185 233 290 343
#     4  10  20  37  59  86 119 147 174 229 298 352
#     4   9  17  33  53  79 111 147 189 228 277 333
#     4  11  23  38  55  78 111 152 194 237 279 325
#
# _framework density 17.64293
#
# number of rings (size 3 to 8) (size 9 to 14) (size 15 to 20)
#    0.000    2.143    1.429    3.000    2.000    0.571 
#    2.571    2.857    0.000    6.857    0.000    5.000 
#    0.000    0.000    0.000    0.000    0.000    0.000 
#
# Total GULP energy -312633.537236 kJ/mol
# GULP energy per Si atom -5582.741736 kJ/mol
# Density = 1.760277 g / cm^3
# Si number density = 17.642930 Si / 1000 Ang^3
#
#
#
# Elastic Constant Matrix: (Units=GPa)
#
#
# Indices 1 2 3 4 5 6 
#
# 1 75.0285 20.6141 28.6517 0.0000 0.0000 0.0000
# 2 20.6141 56.6198 40.6756 0.0000 0.0000 0.0000
# 3 28.6517 40.6756 72.4349 0.0000 0.0000 0.0000
# 4 0.0000 0.0000 0.0000 20.3990 0.0000 0.0000
# 5 0.0000 0.0000 0.0000 0.0000 26.0956 0.0000
# 6 0.0000 0.0000 0.0000 0.0000 0.0000 10.9311
#
#
#
# Elastic Compliance Matrix: (Units=1/GPa)
#
#
# Indices 1 2 3 4 5 6 
#
# 1 0.015851 -0.002123 -0.005077 0.000000 0.000000 0.000000
# 2 -0.002123 0.029889 -0.015944 0.000000 0.000000 0.000000
# 3 -0.005077 -0.015944 0.024767 0.000000 0.000000 0.000000
# 4 0.000000 0.000000 0.000000 0.049022 0.000000 0.000000
# 5 0.000000 0.000000 0.000000 0.000000 0.038321 0.000000
# 6 0.000000 0.000000 0.000000 0.000000 0.000000 0.091482
#
#
# Mechanical properties :
#
#
# Convention : Reuss Voigt Hill
#
# Bulk Modulus (GPa) = 41.29312 42.66289 41.97800
# Shear Modulus (GPa) = 16.46397 19.09461 17.77929
#
# Velocity S-wave (km/s) = 3.05811 3.29337 3.17792
# Velocity P-wave (km/s) = 5.99375 6.22057 6.10822
#
# Compressibility (1/GPa) = 0.02421711
#
# Stress axis : x y z
#
# Youngs Moduli (GPa) = 63.08921 33.45713 40.37584
#
# Poissons Ratio (x) = 0.07104 0.20500
# Poissons Ratio (y) = 0.13395 0.64376
# Poissons Ratio (z) = 0.32033 0.53345
#
# Static dielectric constant tensor:
#      x y z
#    x 1.607140 0.000000 0.000000 
#    y 0.000000 1.582780 0.000000 
#    z 0.000000 0.000000 1.615560 
# 
# From -- ./inp_files/20658.got.cif
#   From: 2010.05.17/outbox.cif.g08.bks.cpg/sg72_11_cif.got.tgz:20658.got - 2010.06.03 17:03:01.
