data_PCOD9527913
_publ_section_title
;
Structure prediction by ZEFSAII (Michael W. Deem and Ramdas Pophale) SiO2 
 PCOD9527913
Probable space group: I B A M
;
_chemical_formula_sum "Si O2"
_cell_formula_units_Z 64
_cell_length_a 8.762039
_cell_length_b 11.697506
_cell_length_c 28.087980
_cell_angle_alpha 90.000000
_cell_angle_beta 90.000000
_cell_angle_gamma 90.000000
_cell_volume 2878.849528
_symmetry_space_group_name_H-M "I B A M"
_symmetry_group_IT_number 72
_symmetry_cell_setting 'orthorhombic'
loop_
_space_group_symop_operation_xyz
x,y,z
-x,-y,z
x,-y,1/2-z
-x,y,1/2-z
-x,-y,-z
x,y,-z
-x,y,1/2+z
x,-y,1/2+z
1/2+x,1/2+y,1/2+z
1/2-x,1/2-y,1/2+z
1/2+x,1/2-y,-z
1/2-x,1/2+y,-z
1/2-x,1/2-y,1/2-z
1/2+x,1/2+y,1/2-z
1/2-x,1/2+y,z
1/2+x,1/2-y,z
loop_
_atom_site_type_symbol
_atom_site_label
_atom_site_fract_x
_atom_site_fract_y
_atom_site_fract_z
Si Si1 0.177087 0.019839 0.500000
Si Si2 0.653402 0.691303 0.353744
Si Si3 0.445506 0.880780 0.304756
Si Si4 0.937581 0.633012 0.500000
Si Si5 0.104035 0.184395 0.420603
O O1 0.198677 0.097169 0.453483
O O2 0.259330 0.899620 0.500000
O O3 0.000000 0.000000 0.500000
O O4 0.541199 0.777761 0.327006
O O5 0.764466 0.628389 0.315902
O O6 0.775349 0.759317 0.385300
O O7 0.537475 0.631065 0.390912
O O8 0.500000 0.881744 0.250000
O O9 0.500000 0.000000 0.327163
O O10 0.962904 0.714028 0.454434
O O11 0.000000 0.500000 0.500000
#
# Coordination Sequence:
#
# PCOD9527913 Si02
#       5
#     8  16  16   8  16
#     4  11  22  35  54  78 116 158 194 242 289 337
#     4  10  21  38  61  86 119 152 194 252 299 354
#     4  10  22  41  64  89 117 153 195 244 310 377
#     4  11  22  37  58  80 117 164 200 244 294 339
#     4  10  22  37  54  86 116 152 205 243 288 355
#
# _framework density 22.231103999999998
#
# number of rings (size 3 to 8) (size 9 to 14) (size 15 to 20)
#    0.000    1.750    0.000    3.750    0.000   14.000 
#    0.000    3.750    0.000   13.500    0.000    0.000 
#    0.000    0.000    0.000    0.000    0.000    0.000 
#
# Total GULP energy -178469.449328 kJ/mol
# GULP energy per Si atom -5577.170291 kJ/mol
# Density = 2.218051 g / cm^3
# Si number density = 22.231104 Si / 1000 Ang^3
#
#
#
# Elastic Constant Matrix: (Units=GPa)
#
#
# Indices 1 2 3 4 5 6 
#
# 1 113.8493 21.3501 26.1795 0.0000 0.0000 0.0000
# 2 21.3501 84.0199 18.8883 0.0000 0.0000 0.0000
# 3 26.1795 18.8883 90.7764 0.0000 0.0000 0.0000
# 4 0.0000 0.0000 0.0000 7.9333 0.0000 0.0000
# 5 0.0000 0.0000 0.0000 0.0000 29.5662 0.0000
# 6 0.0000 0.0000 0.0000 0.0000 0.0000 24.0528
#
#
#
# Elastic Compliance Matrix: (Units=1/GPa)
#
#
# Indices 1 2 3 4 5 6 
#
# 1 0.009695 -0.001925 -0.002396 0.000000 0.000000 0.000000
# 2 -0.001925 0.012868 -0.002122 0.000000 0.000000 0.000000
# 3 -0.002396 -0.002122 0.012149 0.000000 0.000000 0.000000
# 4 0.000000 0.000000 0.000000 0.126051 0.000000 0.000000
# 5 0.000000 0.000000 0.000000 0.000000 0.033822 0.000000
# 6 0.000000 0.000000 0.000000 0.000000 0.000000 0.041575
#
#
# Mechanical properties :
#
#
# Convention : Reuss Voigt Hill
#
# Bulk Modulus (GPa) = 45.81664 46.83129 46.32396
# Shear Modulus (GPa) = 19.50668 27.12563 23.31615
#
# Velocity S-wave (km/s) = 2.96539 3.49688 3.24204
# Velocity P-wave (km/s) = 5.69023 6.11683 5.90738
#
# Compressibility (1/GPa) = 0.02182613
#
# Stress axis : x y z
#
# Youngs Moduli (GPa) = 103.14157 77.71052 82.31429
#
# Poissons Ratio (x) = 0.14960 0.19719
# Poissons Ratio (y) = 0.19856 0.17470
# Poissons Ratio (z) = 0.24708 0.16493
#
# Static dielectric constant tensor:
#      x y z
#    x 1.949710 0.000000 0.000000 
#    y 0.000000 2.111700 0.000000 
#    z 0.000000 0.000000 2.110980 
# 
# From -- ./inp_files/50630.got.cif
#   From: 2010.05.17/outbox.cif.g08.bks.cpg/sg72_26_cif.got.tgz:50630.got - 2010.06.03 17:03:01.
