data_PCOD9527368
_publ_section_title
;
Structure prediction by ZEFSAII (Michael W. Deem and Ramdas Pophale) SiO2 
 PCOD9527368
Probable space group: I B A M
;
_chemical_formula_sum "Si O2"
_cell_formula_units_Z 104
_cell_length_a 7.704223
_cell_length_b 19.831640
_cell_length_c 28.507414
_cell_angle_alpha 90.000000
_cell_angle_beta 90.000000
_cell_angle_gamma 90.000000
_cell_volume 4355.573011
_symmetry_space_group_name_H-M "I B A M"
_symmetry_group_IT_number 72
_symmetry_cell_setting 'orthorhombic'
loop_
_space_group_symop_operation_xyz
x,y,z
-x,-y,z
x,-y,1/2-z
-x,y,1/2-z
-x,-y,-z
x,y,-z
-x,y,1/2+z
x,-y,1/2+z
1/2+x,1/2+y,1/2+z
1/2-x,1/2-y,1/2+z
1/2+x,1/2-y,-z
1/2-x,1/2+y,-z
1/2-x,1/2-y,1/2-z
1/2+x,1/2+y,1/2-z
1/2-x,1/2+y,z
1/2+x,1/2-y,z
loop_
_atom_site_type_symbol
_atom_site_label
_atom_site_fract_x
_atom_site_fract_y
_atom_site_fract_z
Si Si1 0.459957 0.221055 0.853495
Si Si2 0.000000 0.681828 0.750000
Si Si3 0.758639 0.958479 0.126069
Si Si4 0.373489 0.905573 0.897418
Si Si5 0.197917 0.924849 0.265984
Si Si6 0.203968 0.283698 0.500000
Si Si7 0.126574 0.167670 0.904356
Si Si8 0.169024 0.643030 0.500000
O O1 0.485434 0.224812 0.797721
O O2 0.600975 0.166983 0.873072
O O3 0.276249 0.188948 0.867060
O O4 0.471244 0.289249 0.883488
O O5 0.832566 0.632017 0.751064
O O6 0.568385 0.935814 0.107800
O O7 0.792659 0.933050 0.178274
O O8 0.886822 0.912903 0.094906
O O9 0.752341 0.039193 0.125622
O O10 0.324357 0.897416 0.951725
O O11 0.000000 0.912173 0.250000
O O12 0.252049 0.000000 0.250000
O O13 0.306223 0.306142 0.453830
O O14 0.017568 0.319087 0.500000
O O15 0.191824 0.202995 0.500000
#
# Coordination Sequence:
#
# PCOD9527368 Si02
#       8
#    16   8  16  16  16   8  16   8
#     4  11  23  40  64  99 132 183 236 287 363 430
#     4  12  23  44  70  96 142 195 236 304 366 420
#     4  10  21  40  65  95 139 171 232 303 350 415
#     4  10  20  38  65 105 133 178 241 294 362 437
#     4  11  24  41  68 103 137 190 246 289 360 442
#     4  12  20  39  66  97 138 179 225 285 354 432
#     4  11  22  41  62  98 134 176 231 291 352 431
#     4  12  22  38  71 104 137 183 241 295 365 450
#
# _framework density 23.877457
#
# number of rings (size 3 to 8) (size 9 to 14) (size 15 to 20)
#    0.000    1.077    7.692    1.154    2.154    3.692 
#    1.385    0.000    0.000    0.000    0.000    2.154 
#    0.000    0.000    0.000    0.000    0.000    0.000 
#
# Total GULP energy -290855.324049 kJ/mol
# GULP energy per Si atom -5593.371616 kJ/mol
# Density = 2.382311 g / cm^3
# Si number density = 23.877457 Si / 1000 Ang^3
#
#
#
# Elastic Constant Matrix: (Units=GPa)
#
#
# Indices 1 2 3 4 5 6 
#
# 1 86.8937 23.8338 5.4249 0.0000 0.0000 0.0000
# 2 23.8338 36.7739 -12.5748 -0.0003 0.0000 0.0000
# 3 5.4249 -12.5748 145.8274 -0.0001 0.0000 0.0000
# 4 0.0000 -0.0003 -0.0001-4067.3267 0.0000 0.0000
# 5 0.0000 0.0000 0.0000 0.0000 42.6063 0.0000
# 6 0.0000 0.0000 0.0000 0.0000 0.0000 23.6113
#
#
#
# Elastic Compliance Matrix: (Units=1/GPa)
#
#
# Indices 1 2 3 4 5 6 
#
# 1 0.014256 -0.009707 -0.001367 0.000000 0.000000 0.000000
# 2 -0.009707 0.034629 0.003347 0.000000 0.000000 0.000000
# 3 -0.001367 0.003347 0.007197 0.000000 0.000000 0.000000
# 4 0.000000 0.000000 0.000000 -0.000246 0.000000 0.000000
# 5 0.000000 0.000000 0.000000 0.000000 0.023471 0.000000
# 6 0.000000 0.000000 0.000000 0.000000 0.000000 0.042353
#
#
# Mechanical properties :
#
#
# Convention : Reuss Voigt Hill
#
# Bulk Modulus (GPa) = 24.61394 33.65144 29.13269
# Shear Modulus (GPa) = 33.18792 -783.36773 -375.08991
#
# Velocity S-wave (km/s) = 3.73222 -18.13258 -12.54713
# Velocity P-wave (km/s) = 5.37619 20.59766 14.05987
#
# Compressibility (1/GPa) = 0.04062739
#
# Stress axis : x y z
#
# Youngs Moduli (GPa) = 70.14457 28.87736 138.94830
#
# Poissons Ratio (x) = 0.28032 0.19000
# Poissons Ratio (y) = 0.68091 -0.46509
# Poissons Ratio (z) = 0.09592 -0.09666
#
# Static dielectric constant tensor:
#      x y z
#    x 1.942450 0.000000 0.000000 
#    y 0.000000 2.039280 0.000000 
#    z 0.000000 0.000000 1.926810 
# 
# From -- ./inp_files/47458.got.cif
#   From: 2010.05.17/outbox.cif.g08.bks.cpg/sg72_24_cif.got.tgz:47458.got - 2010.06.03 17:03:01.
