data_PCOD9527109
_publ_section_title
;
Structure prediction by ZEFSAII (Michael W. Deem and Ramdas Pophale) SiO2 
 PCOD9527109
Probable space group: I B A M
;
_chemical_formula_sum "Si O2"
_cell_formula_units_Z 112
_cell_length_a 11.809821
_cell_length_b 22.418648
_cell_length_c 22.247016
_cell_angle_alpha 90.000000
_cell_angle_beta 90.000000
_cell_angle_gamma 90.000000
_cell_volume 5890.124849
_symmetry_space_group_name_H-M "I B A M"
_symmetry_group_IT_number 72
_symmetry_cell_setting 'orthorhombic'
loop_
_space_group_symop_operation_xyz
x,y,z
-x,-y,z
x,-y,1/2-z
-x,y,1/2-z
-x,-y,-z
x,y,-z
-x,y,1/2+z
x,-y,1/2+z
1/2+x,1/2+y,1/2+z
1/2-x,1/2-y,1/2+z
1/2+x,1/2-y,-z
1/2-x,1/2+y,-z
1/2-x,1/2-y,1/2-z
1/2+x,1/2+y,1/2-z
1/2-x,1/2+y,z
1/2+x,1/2-y,z
loop_
_atom_site_type_symbol
_atom_site_label
_atom_site_fract_x
_atom_site_fract_y
_atom_site_fract_z
Si Si1 0.428352 0.146545 0.569889
Si Si2 0.832402 0.774680 0.928948
Si Si3 0.261586 0.417003 0.128728
Si Si4 0.667415 0.535282 0.568698
Si Si5 0.634575 0.927908 0.751444
Si Si6 0.826888 0.630905 0.622649
Si Si7 0.470970 0.369932 0.930659
O O1 0.458327 0.151160 0.500000
O O2 0.362828 0.207241 0.586843
O O3 0.340790 0.093689 0.582277
O O4 0.542118 0.137845 0.606934
O O5 0.737642 0.806960 0.889155
O O6 0.946709 0.813791 0.922535
O O7 0.799432 0.777286 0.000000
O O8 0.310621 0.482630 0.115437
O O9 0.205121 0.407949 0.193270
O O10 0.364892 0.373386 0.112986
O O11 0.667555 0.512690 0.500000
O O12 0.765899 0.584153 0.577925
O O13 0.551288 0.572060 0.577576
O O14 0.500000 0.913732 0.750000
O O15 0.683512 0.897369 0.811251
O O16 0.642774 0.000000 0.750000
O O17 0.430830 0.369512 0.000000
#
# Coordination Sequence:
#
# PCOD9527109 Si02
#       7
#    16  16  16  16  16  16  16
#     4  11  23  36  60  96 123 154 202 257 307 370
#     4   9  21  40  63  90 125 162 195 251 319 369
#     4  12  22  36  60  90 120 160 205 250 304 371
#     4  10  20  36  60  93 127 156 191 253 324 381
#     4  11  23  43  61  82 119 169 203 254 309 358
#     4  11  21  41  64  85 121 166 209 248 310 373
#     4   9  19  37  61  89 125 160 191 245 319 379
#
# _framework density 19.014876999999998
#
# number of rings (size 3 to 8) (size 9 to 14) (size 15 to 20)
#    0.000    1.571    2.857    3.857    2.000    1.714 
#    0.000    5.000    3.143    0.000    0.000    0.000 
#    0.000    0.000    0.000    0.000    0.000    0.000 
#
# Total GULP energy -312705.676523 kJ/mol
# GULP energy per Si atom -5584.029938 kJ/mol
# Density = 1.897160 g / cm^3
# Si number density = 19.014877 Si / 1000 Ang^3
#
#
#
# Elastic Constant Matrix: (Units=GPa)
#
#
# Indices 1 2 3 4 5 6 
#
# 1 94.1171 11.3197 45.1577 0.0000 0.0000 0.0000
# 2 11.3197 30.0926 18.4653 0.0000 0.0000 0.0000
# 3 45.1577 18.4653 89.6040 0.0000 0.0000 0.0000
# 4 0.0000 0.0000 0.0000 17.6619 0.0000 0.0000
# 5 0.0000 0.0000 0.0000 0.0000 31.1125 0.0000
# 6 0.0000 0.0000 0.0000 0.0000 0.0000 18.7163
#
#
#
# Elastic Compliance Matrix: (Units=1/GPa)
#
#
# Indices 1 2 3 4 5 6 
#
# 1 0.014044 -0.001076 -0.006856 0.000000 0.000000 0.000000
# 2 -0.001076 0.038124 -0.007314 0.000000 0.000000 0.000000
# 3 -0.006856 -0.007314 0.016123 0.000000 0.000000 0.000000
# 4 0.000000 0.000000 0.000000 0.056619 0.000000 0.000000
# 5 0.000000 0.000000 0.000000 0.000000 0.032141 0.000000
# 6 0.000000 0.000000 0.000000 0.000000 0.000000 0.053429
#
#
# Mechanical properties :
#
#
# Convention : Reuss Voigt Hill
#
# Bulk Modulus (GPa) = 26.45632 40.41100 33.43366
# Shear Modulus (GPa) = 19.71829 22.75620 21.23725
#
# Velocity S-wave (km/s) = 3.22373 3.46317 3.34559
# Velocity P-wave (km/s) = 5.27260 6.10654 5.70483
#
# Compressibility (1/GPa) = 0.03779815
#
# Stress axis : x y z
#
# Youngs Moduli (GPa) = 71.20470 26.23051 62.02421
#
# Poissons Ratio (x) = 0.02822 0.42524
# Poissons Ratio (y) = 0.07661 0.45366
# Poissons Ratio (z) = 0.48818 0.19185
#
# Static dielectric constant tensor:
#      x y z
#    x 1.654430 0.000000 0.000000 
#    y 0.000000 1.679260 0.000000 
#    z 0.000000 0.000000 1.651570 
# 
# From -- ./inp_files/37321.got.cif
#   From: 2010.05.17/outbox.cif.g08.bks.cpg/sg72_19_cif.got.tgz:37321.got - 2010.06.03 17:03:01.
