data_PCOD9527869
_publ_section_title
;
Structure prediction by ZEFSAII (Michael W. Deem and Ramdas Pophale) SiO2 
 PCOD9527869
Probable space group: I B A M
;
_chemical_formula_sum "Si O2"
_cell_formula_units_Z 104
_cell_length_a 25.250040
_cell_length_b 24.052532
_cell_length_c 9.006911
_cell_angle_alpha 90.000000
_cell_angle_beta 90.000000
_cell_angle_gamma 90.000000
_cell_volume 5470.143796
_symmetry_space_group_name_H-M "I B A M"
_symmetry_group_IT_number 72
_symmetry_cell_setting 'orthorhombic'
loop_
_space_group_symop_operation_xyz
x,y,z
-x,-y,z
x,-y,1/2-z
-x,y,1/2-z
-x,-y,-z
x,y,-z
-x,y,1/2+z
x,-y,1/2+z
1/2+x,1/2+y,1/2+z
1/2-x,1/2-y,1/2+z
1/2+x,1/2-y,-z
1/2-x,1/2+y,-z
1/2-x,1/2-y,1/2-z
1/2+x,1/2+y,1/2-z
1/2-x,1/2+y,z
1/2+x,1/2-y,z
loop_
_atom_site_type_symbol
_atom_site_label
_atom_site_fract_x
_atom_site_fract_y
_atom_site_fract_z
Si Si1 0.090471 0.774145 0.668450
Si Si2 0.389440 0.835904 0.676200
Si Si3 0.558441 0.058240 0.820636
Si Si4 0.234507 0.691312 0.823965
Si Si5 0.415763 0.555247 0.666471
Si Si6 0.169554 0.859613 0.179268
Si Si7 0.500000 0.355311 0.750000
O O1 0.107671 0.762454 0.500000
O O2 0.080306 0.717290 0.755883
O O3 0.135432 0.808097 0.757111
O O4 0.039506 0.814243 0.664918
O O5 0.399889 0.841663 0.500000
O O6 0.406348 0.890707 0.764223
O O7 0.327127 0.822730 0.696805
O O8 0.500000 0.066696 0.750000
O O9 0.577759 0.000000 0.750000
O O10 0.555708 0.055258 0.000000
O O11 0.250000 0.750000 0.750000
O O12 0.272565 0.646145 0.747482
O O13 0.244850 0.694194 0.000000
O O14 0.432200 0.500000 0.750000
O O15 0.404107 0.538096 0.500000
O O16 0.363271 0.585775 0.727122
O O17 0.460866 0.602491 0.666091
O O18 0.170225 0.856920 0.000000
#
# Coordination Sequence:
#
# PCOD9527869 Si02
#       7
#    16  16  16  16  16  16   8
#     4  11  22  36  57  85 118 158 201 246 303 361
#     4  11  24  40  60  91 127 160 199 248 298 357
#     4  11  23  43  69  94 124 161 201 246 298 360
#     4  11  22  37  61  89 122 159 198 244 299 361
#     4  10  22  39  59  83 114 155 202 252 300 351
#     4  10  21  38  58  83 118 156 197 249 302 356
#     4  10  23  38  56  84 121 156 202 252 302 356
#
# _framework density 19.012298000000001
#
# number of rings (size 3 to 8) (size 9 to 14) (size 15 to 20)
#    0.000    1.385    1.538    4.385    1.077    8.000 
#    0.000    0.769    0.000    1.846    0.000    0.000 
#    0.000    0.000    0.000    0.000    0.000    0.000 
#
# Total GULP energy -290327.771664 kJ/mol
# GULP energy per Si atom -5583.226378 kJ/mol
# Density = 1.896902 g / cm^3
# Si number density = 19.012298 Si / 1000 Ang^3
#
#
#
# Elastic Constant Matrix: (Units=GPa)
#
#
# Indices 1 2 3 4 5 6 
#
# 1 68.2866 45.1275 39.7445 0.0000 0.0000 0.0000
# 2 45.1275 128.9851 64.3925 0.0000 0.0000 0.0000
# 3 39.7445 64.3925 133.8478 0.0000 0.0000 0.0000
# 4 0.0000 0.0000 0.0000 19.5367 0.0000 0.0000
# 5 0.0000 0.0000 0.0000 0.0000 16.2785 0.0000
# 6 0.0000 0.0000 0.0000 0.0000 0.0000 22.2062
#
#
#
# Elastic Compliance Matrix: (Units=1/GPa)
#
#
# Indices 1 2 3 4 5 6 
#
# 1 0.020168 -0.005352 -0.003414 0.000000 0.000000 0.000000
# 2 -0.005352 0.011624 -0.004003 0.000000 0.000000 0.000000
# 3 -0.003414 -0.004003 0.010411 0.000000 0.000000 0.000000
# 4 0.000000 0.000000 0.000000 0.051186 0.000000 0.000000
# 5 0.000000 0.000000 0.000000 0.000000 0.061431 0.000000
# 6 0.000000 0.000000 0.000000 0.000000 0.000000 0.045032
#
#
# Mechanical properties :
#
#
# Convention : Reuss Voigt Hill
#
# Bulk Modulus (GPa) = 60.00590 69.96094 64.98342
# Shear Modulus (GPa) = 21.65038 23.72796 22.68917
#
# Velocity S-wave (km/s) = 3.37821 3.53658 3.45830
# Velocity P-wave (km/s) = 6.84445 7.31807 7.08522
#
# Compressibility (1/GPa) = 0.01666503
#
# Stress axis : x y z
#
# Youngs Moduli (GPa) = 49.58383 86.03258 96.05599
#
# Poissons Ratio (x) = 0.46042 0.32793
# Poissons Ratio (y) = 0.26536 0.38449
# Poissons Ratio (z) = 0.16928 0.34437
#
# Static dielectric constant tensor:
#      x y z
#    x 1.681200 0.000000 0.000000 
#    y 0.000000 1.667440 0.000000 
#    z 0.000000 0.000000 1.652200 
# 
# From -- ./inp_files/8192.got.cif
#   From: 2010.05.17/outbox.cif.g08.bks.cpg/sg72_5_cif.got.tgz:8192.got - 2010.06.03 17:03:01.
