data_PCOD9527499
_publ_section_title
;
Structure prediction by ZEFSAII (Michael W. Deem and Ramdas Pophale) SiO2 
 PCOD9527499
Probable space group: I B A M
;
_chemical_formula_sum "Si O2"
_cell_formula_units_Z 52
_cell_length_a 27.970871
_cell_length_b 10.186423
_cell_length_c 10.295241
_cell_angle_alpha 90.000000
_cell_angle_beta 90.000000
_cell_angle_gamma 90.000000
_cell_volume 2933.352225
_symmetry_space_group_name_H-M "I B A M"
_symmetry_group_IT_number 72
_symmetry_cell_setting 'orthorhombic'
loop_
_space_group_symop_operation_xyz
x,y,z
-x,-y,z
x,-y,1/2-z
-x,y,1/2-z
-x,-y,-z
x,y,-z
-x,y,1/2+z
x,-y,1/2+z
1/2+x,1/2+y,1/2+z
1/2-x,1/2-y,1/2+z
1/2+x,1/2-y,-z
1/2-x,1/2+y,-z
1/2-x,1/2-y,1/2-z
1/2+x,1/2+y,1/2-z
1/2-x,1/2+y,z
1/2+x,1/2-y,z
loop_
_atom_site_type_symbol
_atom_site_label
_atom_site_fract_x
_atom_site_fract_y
_atom_site_fract_z
Si Si1 0.786445 0.378406 0.500000
Si Si2 0.500000 0.500000 0.250000
Si Si3 0.142525 0.345752 0.764243
Si Si4 0.304159 0.809773 0.500000
Si Si5 0.539293 0.245218 0.148369
O O1 0.817011 0.335897 0.625588
O O2 0.737041 0.299524 0.500000
O O3 0.783722 0.538774 0.500000
O O4 0.530544 0.401386 0.162272
O O5 0.132419 0.500000 0.750000
O O6 0.163551 0.296210 0.628323
O O7 0.092948 0.282687 0.807452
O O8 0.500000 0.188281 0.250000
O O9 0.531615 0.202275 0.000000
#
# Coordination Sequence:
#
# PCOD9527499 Si02
#       5
#     8   4  16   8  16
#     4  10  20  42  57  84 117 151 194 247 297 340
#     4   8  22  36  60  80 126 144 190 242 282 340
#     4  10  21  38  60  82 117 154 192 241 292 349
#     4  10  22  38  61  86 117 151 200 243 293 348
#     4  10  21  39  59  84 118 153 189 238 291 340
#
# _framework density 17.727159
#
# number of rings (size 3 to 8) (size 9 to 14) (size 15 to 20)
#    0.923    1.231    1.538    1.385    2.154    0.615 
#    5.538    1.538    0.000    0.000    0.000    0.000 
#    0.000    0.000    0.000    0.000    0.000    0.000 
#
# Total GULP energy -144836.986617 kJ/mol
# GULP energy per Si atom -5570.653331 kJ/mol
# Density = 1.768681 g / cm^3
# Si number density = 17.727159 Si / 1000 Ang^3
#
#
#
# Elastic Constant Matrix: (Units=GPa)
#
#
# Indices 1 2 3 4 5 6 
#
# 1 110.1043 48.3394 63.5932 0.0000 0.0000 0.0000
# 2 48.3394 33.8900 33.6134 0.0000 0.0000 0.0000
# 3 63.5932 33.6134 167.0372 0.0000 0.0000 0.0000
# 4 0.0000 0.0000 0.0000 22.8259 0.0000 0.0000
# 5 0.0000 0.0000 0.0000 0.0000 13.2867 0.0000
# 6 0.0000 0.0000 0.0000 0.0000 0.0000 35.4233
#
#
#
# Elastic Compliance Matrix: (Units=1/GPa)
#
#
# Indices 1 2 3 4 5 6 
#
# 1 0.025430 -0.033321 -0.002976 0.000000 0.000000 0.000000
# 2 -0.033321 0.080524 -0.003519 0.000000 0.000000 0.000000
# 3 -0.002976 -0.003519 0.007828 0.000000 0.000000 0.000000
# 4 0.000000 0.000000 0.000000 0.043810 0.000000 0.000000
# 5 0.000000 0.000000 0.000000 0.000000 0.075263 0.000000
# 6 0.000000 0.000000 0.000000 0.000000 0.000000 0.028230
#
#
# Mechanical properties :
#
#
# Convention : Reuss Voigt Hill
#
# Bulk Modulus (GPa) = 29.28144 66.90259 48.09201
# Shear Modulus (GPa) = 14.20051 25.33956 19.77003
#
# Velocity S-wave (km/s) = 2.83337 3.78487 3.34314
# Velocity P-wave (km/s) = 5.22089 7.54469 6.48768
#
# Compressibility (1/GPa) = 0.03415132
#
# Stress axis : x y z
#
# Youngs Moduli (GPa) = 39.32339 12.41861 127.74816
#
# Poissons Ratio (x) = 0.41379 0.38023
# Poissons Ratio (y) = 1.31028 0.44949
# Poissons Ratio (z) = 0.11704 0.04370
#
# Static dielectric constant tensor:
#      x y z
#    x 1.577140 0.000000 0.000000 
#    y 0.000000 1.606120 0.000000 
#    z 0.000000 0.000000 1.631800 
# 
# From -- ./inp_files/2331.got.cif
#   From: 2010.05.17/outbox.cif.g08.bks.cpg/sg72_2_cif.got.tgz:2331.got - 2010.06.03 17:03:01.
