data_PCOD9527298
_publ_section_title
;
Structure prediction by ZEFSAII (Michael W. Deem and Ramdas Pophale) SiO2 
 PCOD9527298
Probable space group: I B A M
;
_chemical_formula_sum "Si O2"
_cell_formula_units_Z 116
_cell_length_a 11.989090
_cell_length_b 27.640000
_cell_length_c 18.141251
_cell_angle_alpha 90.000000
_cell_angle_beta 90.000000
_cell_angle_gamma 90.000000
_cell_volume 6011.619594
_symmetry_space_group_name_H-M "I B A M"
_symmetry_group_IT_number 72
_symmetry_cell_setting 'orthorhombic'
loop_
_space_group_symop_operation_xyz
x,y,z
-x,-y,z
x,-y,1/2-z
-x,y,1/2-z
-x,-y,-z
x,y,-z
-x,y,1/2+z
x,-y,1/2+z
1/2+x,1/2+y,1/2+z
1/2-x,1/2-y,1/2+z
1/2+x,1/2-y,-z
1/2-x,1/2+y,-z
1/2-x,1/2-y,1/2-z
1/2+x,1/2+y,1/2-z
1/2-x,1/2+y,z
1/2+x,1/2-y,z
loop_
_atom_site_type_symbol
_atom_site_label
_atom_site_fract_x
_atom_site_fract_y
_atom_site_fract_z
Si Si1 0.855223 0.145720 0.582180
Si Si2 0.391434 0.325225 0.912190
Si Si3 0.380915 0.803697 0.217684
Si Si4 0.500000 0.500000 0.250000
Si Si5 0.631835 0.992197 0.413202
Si Si6 0.215952 0.601645 0.338511
Si Si7 0.297450 0.442595 0.685460
Si Si8 0.262525 0.232827 0.860521
O O1 0.859509 0.124822 0.500000
O O2 0.818084 0.105768 0.639662
O O3 0.770802 0.190760 0.584446
O O4 0.978818 0.164564 0.601484
O O5 0.317043 0.366253 0.871882
O O6 0.354324 0.272102 0.884335
O O7 0.371163 0.327627 0.000000
O O8 0.500000 0.793011 0.250000
O O9 0.371856 0.857791 0.187457
O O10 0.295458 0.794322 0.284858
O O11 0.344799 0.766177 0.155288
O O12 0.584362 0.530898 0.300649
O O13 0.650821 0.002881 0.500000
O O14 0.709428 0.025117 0.360387
O O15 0.500000 0.000000 0.397821
O O16 0.666210 0.936915 0.395355
O O17 0.253199 0.572043 0.266195
#
# Coordination Sequence:
#
# PCOD9527298 Si02
#       8
#    16  16  16   4  16  16  16  16
#     4  11  23  39  62  91 126 168 209 260 320 380
#     4  10  22  39  61  92 127 167 210 258 318 380
#     4  10  21  35  58  90 117 154 202 250 306 361
#     4  12  24  44  68  96 128 164 218 274 324 376
#     4  11  26  46  67  94 130 170 213 266 328 392
#     4  11  22  41  65  90 124 161 208 261 312 374
#     4  12  24  43  65  97 127 167 215 268 323 383
#     4  10  20  38  58  87 124 163 202 255 306 374
#
# _framework density 19.295964999999999
#
# number of rings (size 3 to 8) (size 9 to 14) (size 15 to 20)
#    0.000    1.241    2.759    2.897    1.931    0.552 
#    1.241    0.690    0.000    6.621    0.000    0.000 
#    0.000    0.000    0.000    0.000    0.000    0.000 
#
# Total GULP energy -323853.193253 kJ/mol
# GULP energy per Si atom -5583.675746 kJ/mol
# Density = 1.925205 g / cm^3
# Si number density = 19.295965 Si / 1000 Ang^3
#
#
#
# Elastic Constant Matrix: (Units=GPa)
#
#
# Indices 1 2 3 4 5 6 
#
# 1 66.8221 39.7097 23.9121 0.0000 0.0000 0.0000
# 2 39.7097 112.3013 46.4395 0.0000 0.0000 0.0000
# 3 23.9121 46.4395 78.6184 0.0000 0.0000 0.0000
# 4 0.0000 0.0000 0.0000 28.6800 0.0000 0.0000
# 5 0.0000 0.0000 0.0000 0.0000 29.8817 0.0000
# 6 0.0000 0.0000 0.0000 0.0000 0.0000 16.7457
#
#
#
# Elastic Compliance Matrix: (Units=1/GPa)
#
#
# Indices 1 2 3 4 5 6 
#
# 1 0.019292 -0.005816 -0.002432 0.000000 0.000000 0.000000
# 2 -0.005816 0.013536 -0.006227 0.000000 0.000000 0.000000
# 3 -0.002432 -0.006227 0.017138 0.000000 0.000000 0.000000
# 4 0.000000 0.000000 0.000000 0.034868 0.000000 0.000000
# 5 0.000000 0.000000 0.000000 0.000000 0.033465 0.000000
# 6 0.000000 0.000000 0.000000 0.000000 0.000000 0.059717
#
#
# Mechanical properties :
#
#
# Convention : Reuss Voigt Hill
#
# Bulk Modulus (GPa) = 47.58374 53.09607 50.33991
# Shear Modulus (GPa) = 23.36784 24.90685 24.13734
#
# Velocity S-wave (km/s) = 3.48375 3.59664 3.54064
# Velocity P-wave (km/s) = 6.39496 6.69509 6.54674
#
# Compressibility (1/GPa) = 0.02101558
#
# Stress axis : x y z
#
# Youngs Moduli (GPa) = 51.83629 73.87726 58.35118
#
# Poissons Ratio (x) = 0.42964 0.14193
# Poissons Ratio (y) = 0.30146 0.36334
# Poissons Ratio (z) = 0.12608 0.46002
#
# Static dielectric constant tensor:
#      x y z
#    x 1.663200 0.000000 0.000000 
#    y 0.000000 1.671010 0.000000 
#    z 0.000000 0.000000 1.682080 
# 
# From -- ./inp_files/29728.got.cif
#   From: 2010.05.17/outbox.cif.g08.bks.cpg/sg72_15_cif.got.tgz:29728.got - 2010.06.03 17:03:01.
