data_PCOD9527839
_publ_section_title
;
Structure prediction by ZEFSAII (Michael W. Deem and Ramdas Pophale) SiO2 
 PCOD9527839
Probable space group: I B A M
;
_chemical_formula_sum "Si O2"
_cell_formula_units_Z 92
_cell_length_a 14.193959
_cell_length_b 14.290112
_cell_length_c 21.369919
_cell_angle_alpha 90.000000
_cell_angle_beta 90.000000
_cell_angle_gamma 90.000000
_cell_volume 4334.530419
_symmetry_space_group_name_H-M "I B A M"
_symmetry_group_IT_number 72
_symmetry_cell_setting 'orthorhombic'
loop_
_space_group_symop_operation_xyz
x,y,z
-x,-y,z
x,-y,1/2-z
-x,y,1/2-z
-x,-y,-z
x,y,-z
-x,y,1/2+z
x,-y,1/2+z
1/2+x,1/2+y,1/2+z
1/2-x,1/2-y,1/2+z
1/2+x,1/2-y,-z
1/2-x,1/2+y,-z
1/2-x,1/2-y,1/2-z
1/2+x,1/2+y,1/2-z
1/2-x,1/2+y,z
1/2+x,1/2-y,z
loop_
_atom_site_type_symbol
_atom_site_label
_atom_site_fract_x
_atom_site_fract_y
_atom_site_fract_z
Si Si1 0.116330 0.088685 0.135868
Si Si2 0.944669 0.588806 0.391149
Si Si3 0.290650 0.017284 0.680656
Si Si4 0.820216 0.671938 0.500000
Si Si5 0.866074 0.943901 0.000000
Si Si6 0.000000 0.000000 0.750000
Si Si7 0.244568 0.634836 0.500000
Si Si8 0.366716 0.807433 0.875153
O O1 0.057251 0.063041 0.198582
O O2 0.144199 0.197948 0.136504
O O3 0.207579 0.021605 0.137777
O O4 0.077639 0.070077 0.065240
O O5 0.884212 0.542180 0.335636
O O6 0.872796 0.631925 0.439970
O O7 0.000000 0.500000 0.419963
O O8 0.023356 0.664161 0.373275
O O9 0.313396 0.126026 0.673387
O O10 0.258882 0.000000 0.750000
O O11 0.712455 0.638586 0.500000
O O12 0.821634 0.783149 0.500000
O O13 0.801301 0.037711 0.000000
O O14 0.178206 0.654415 0.440066
#
# Coordination Sequence:
#
# PCOD9527839 Si02
#       8
#    16  16  16   8   8   4   8  16
#     4  12  25  49  71 102 143 191 235 297 359 439
#     4  10  21  37  63  99 135 168 220 293 352 404
#     4  11  23  43  69  97 132 182 238 292 353 427
#     4  12  20  37  65  98 128 174 219 270 350 423
#     4  12  22  42  75  99 138 176 240 289 355 424
#     4  12  32  50  68  96 152 194 248 292 356 426
#     4  12  21  38  69 107 135 180 230 290 358 431
#     4  11  23  41  70 103 143 179 236 297 360 428
#
# _framework density 21.224906000000001
#
# number of rings (size 3 to 8) (size 9 to 14) (size 15 to 20)
#    0.000    0.696    6.087    1.826    0.000    6.957 
#    3.130    0.000    0.000    0.000    0.000    0.000 
#    0.000    0.000    0.000    0.000    0.000    0.000 
#
# Total GULP energy -256747.369296 kJ/mol
# GULP energy per Si atom -5581.464550 kJ/mol
# Density = 2.117660 g / cm^3
# Si number density = 21.224906 Si / 1000 Ang^3
#
#
#
# Elastic Constant Matrix: (Units=GPa)
#
#
# Indices 1 2 3 4 5 6 
#
# 1 39.6115 16.7745 7.7937 0.0000 0.0000 0.0000
# 2 16.7745 128.6884 34.8485 0.0000 0.0000 0.0000
# 3 7.7937 34.8485 118.1325 0.0000 0.0000 0.0000
# 4 0.0000 0.0000 0.0000 21.2130 0.0000 0.0000
# 5 0.0000 0.0000 0.0000 0.0000 32.7647 0.0000
# 6 0.0000 0.0000 0.0000 0.0000 0.0000 25.7383
#
#
#
# Elastic Compliance Matrix: (Units=1/GPa)
#
#
# Indices 1 2 3 4 5 6 
#
# 1 0.026790 -0.003275 -0.000801 0.000000 0.000000 0.000000
# 2 -0.003275 0.008846 -0.002393 0.000000 0.000000 0.000000
# 3 -0.000801 -0.002393 0.009224 0.000000 0.000000 0.000000
# 4 0.000000 0.000000 0.000000 0.047141 0.000000 0.000000
# 5 0.000000 0.000000 0.000000 0.000000 0.030521 0.000000
# 6 0.000000 0.000000 0.000000 0.000000 0.000000 0.038853
#
#
# Mechanical properties :
#
#
# Convention : Reuss Voigt Hill
#
# Bulk Modulus (GPa) = 31.32831 45.02954 38.17893
# Shear Modulus (GPa) = 27.03390 31.07760 29.05575
#
# Velocity S-wave (km/s) = 3.57275 3.83064 3.70394
# Velocity P-wave (km/s) = 5.64018 6.38957 6.02653
#
# Compressibility (1/GPa) = 0.03192001
#
# Stress axis : x y z
#
# Youngs Moduli (GPa) = 37.32766 113.04887 108.41321
#
# Poissons Ratio (x) = 0.37024 0.08687
# Poissons Ratio (y) = 0.12225 0.25947
# Poissons Ratio (z) = 0.02991 0.27057
#
# Static dielectric constant tensor:
#      x y z
#    x 1.793350 0.000000 0.000000 
#    y 0.000000 1.745580 0.000000 
#    z 0.000000 0.000000 1.824060 
# 
# From -- ./inp_files/38104.got.cif
#   From: 2010.05.17/outbox.cif.g08.bks.cpg/sg72_20_cif.got.tgz:38104.got - 2010.06.03 17:03:01.
