data_PCOD9527341
_publ_section_title
;
Structure prediction by ZEFSAII (Michael W. Deem and Ramdas Pophale) SiO2 
 PCOD9527341
Probable space group: I B A M
;
_chemical_formula_sum "Si O2"
_cell_formula_units_Z 104
_cell_length_a 26.516856
_cell_length_b 22.193845
_cell_length_c 9.360760
_cell_angle_alpha 90.000000
_cell_angle_beta 90.000000
_cell_angle_gamma 90.000000
_cell_volume 5508.910153
_symmetry_space_group_name_H-M "I B A M"
_symmetry_group_IT_number 72
_symmetry_cell_setting 'orthorhombic'
loop_
_space_group_symop_operation_xyz
x,y,z
-x,-y,z
x,-y,1/2-z
-x,y,1/2-z
-x,-y,-z
x,y,-z
-x,y,1/2+z
x,-y,1/2+z
1/2+x,1/2+y,1/2+z
1/2-x,1/2-y,1/2+z
1/2+x,1/2-y,-z
1/2-x,1/2+y,-z
1/2-x,1/2-y,1/2-z
1/2+x,1/2+y,1/2-z
1/2-x,1/2+y,z
1/2+x,1/2-y,z
loop_
_atom_site_type_symbol
_atom_site_label
_atom_site_fract_x
_atom_site_fract_y
_atom_site_fract_z
Si Si1 0.446868 0.197008 0.328934
Si Si2 0.291967 0.574954 0.152949
Si Si3 0.611879 0.558251 0.831515
Si Si4 0.649176 0.878253 0.663154
Si Si5 0.554275 0.682384 0.173581
Si Si6 0.300679 0.000000 0.250000
Si Si7 0.269095 0.193974 0.838133
O O1 0.500000 0.185616 0.250000
O O2 0.453587 0.207862 0.500000
O O3 0.408394 0.141469 0.312525
O O4 0.425169 0.256862 0.249795
O O5 0.329952 0.562184 0.280925
O O6 0.240146 0.536931 0.156404
O O7 0.274568 0.643687 0.161157
O O8 0.317734 0.563799 0.000000
O O9 0.589924 0.500000 0.750000
O O10 0.586179 0.622210 0.796408
O O11 0.607707 0.549954 0.000000
O O12 0.661771 0.861825 0.500000
O O13 0.683467 0.838363 0.766223
O O14 0.664385 0.948060 0.683516
O O15 0.500000 0.674565 0.250000
O O16 0.550458 0.689685 0.000000
O O17 0.250000 0.250000 0.750000
O O18 0.280912 0.211287 0.000000
#
# Coordination Sequence:
#
# PCOD9527341 Si02
#       7
#    16  16  16  16  16   8  16
#     4  10  21  39  64  91 120 155 194 245 300 357
#     4  10  21  36  56  81 112 152 197 237 287 344
#     4  11  24  38  57  84 115 152 197 243 292 348
#     4  10  22  39  61  89 120 157 202 248 300 358
#     4  10  22  40  61  87 115 151 193 242 299 356
#     4  10  20  38  63  86 117 156 200 242 294 350
#     4  10  22  37  55  84 118 154 195 242 295 350
#
# _framework density 18.878508
#
# number of rings (size 3 to 8) (size 9 to 14) (size 15 to 20)
#    0.000    1.846    0.769    3.231    2.154    7.692 
#    0.000    1.923    0.000    1.846    0.000    0.000 
#    0.000    0.000    0.000    0.000    0.000    0.000 
#
# Total GULP energy -289934.913990 kJ/mol
# GULP energy per Si atom -5575.671423 kJ/mol
# Density = 1.883554 g / cm^3
# Si number density = 18.878508 Si / 1000 Ang^3
#
#
#
# Elastic Constant Matrix: (Units=GPa)
#
#
# Indices 1 2 3 4 5 6 
#
# 1 58.9605 47.5005 32.3683 0.0000 0.0000 0.0000
# 2 47.5005 125.7025 51.8034 0.0000 0.0000 0.0000
# 3 32.3683 51.8034 124.7254 0.0000 0.0000 0.0000
# 4 0.0000 0.0000 0.0000 25.9891 0.0000 0.0000
# 5 0.0000 0.0000 0.0000 0.0000 20.2211 0.0000
# 6 0.0000 0.0000 0.0000 0.0000 0.0000 34.0197
#
#
#
# Elastic Compliance Matrix: (Units=1/GPa)
#
#
# Indices 1 2 3 4 5 6 
#
# 1 0.025363 -0.008291 -0.003139 0.000000 0.000000 0.000000
# 2 -0.008291 0.012308 -0.002961 0.000000 0.000000 0.000000
# 3 -0.003139 -0.002961 0.010062 0.000000 0.000000 0.000000
# 4 0.000000 0.000000 0.000000 0.038478 0.000000 0.000000
# 5 0.000000 0.000000 0.000000 0.000000 0.049453 0.000000
# 6 0.000000 0.000000 0.000000 0.000000 0.000000 0.029395
#
#
# Mechanical properties :
#
#
# Convention : Reuss Voigt Hill
#
# Bulk Modulus (GPa) = 52.76166 63.63698 58.19932
# Shear Modulus (GPa) = 24.98054 27.89372 26.43713
#
# Velocity S-wave (km/s) = 3.64156 3.84805 3.74623
# Velocity P-wave (km/s) = 6.75944 7.31609 7.04326
#
# Compressibility (1/GPa) = 0.01895316
#
# Stress axis : x y z
#
# Youngs Moduli (GPa) = 39.42792 81.24650 99.38608
#
# Poissons Ratio (x) = 0.67358 0.31194
# Poissons Ratio (y) = 0.32688 0.29424
# Poissons Ratio (z) = 0.12375 0.24053
#
# Static dielectric constant tensor:
#      x y z
#    x 1.647060 0.000000 0.000000 
#    y 0.000000 1.677180 0.000000 
#    z 0.000000 0.000000 1.666280 
# 
# From -- ./inp_files/8165.got.cif
#   From: 2010.05.17/outbox.cif.g08.bks.cpg/sg72_5_cif.got.tgz:8165.got - 2010.06.03 17:03:01.
