data_PCOD9527586
_publ_section_title
;
Structure prediction by ZEFSAII (Michael W. Deem and Ramdas Pophale) SiO2 
 PCOD9527586
Probable space group: I B A M
;
_chemical_formula_sum "Si O2"
_cell_formula_units_Z 96
_cell_length_a 14.894870
_cell_length_b 15.158762
_cell_length_c 22.232267
_cell_angle_alpha 90.000000
_cell_angle_beta 90.000000
_cell_angle_gamma 90.000000
_cell_volume 5019.774418
_symmetry_space_group_name_H-M "I B A M"
_symmetry_group_IT_number 72
_symmetry_cell_setting 'orthorhombic'
loop_
_space_group_symop_operation_xyz
x,y,z
-x,-y,z
x,-y,1/2-z
-x,y,1/2-z
-x,-y,-z
x,y,-z
-x,y,1/2+z
x,-y,1/2+z
1/2+x,1/2+y,1/2+z
1/2-x,1/2-y,1/2+z
1/2+x,1/2-y,-z
1/2-x,1/2+y,-z
1/2-x,1/2-y,1/2-z
1/2+x,1/2+y,1/2-z
1/2-x,1/2+y,z
1/2+x,1/2-y,z
loop_
_atom_site_type_symbol
_atom_site_label
_atom_site_fract_x
_atom_site_fract_y
_atom_site_fract_z
Si Si1 0.121512 0.403533 0.727236
Si Si2 0.839541 0.554245 0.000000
Si Si3 0.547645 0.887689 0.000000
Si Si4 0.078895 0.718911 0.117256
Si Si5 0.823527 0.094491 0.238689
Si Si6 0.250513 0.660225 0.387991
Si Si7 0.593834 0.252472 0.817017
O O1 0.094811 0.500000 0.750000
O O2 0.096907 0.361093 0.663876
O O3 0.229375 0.404248 0.726083
O O4 0.087939 0.336616 0.778129
O O5 0.789390 0.597542 0.941237
O O6 0.860024 0.448065 0.000000
O O7 0.945910 0.575127 0.000000
O O8 0.547102 0.827917 0.941863
O O9 0.164280 0.777531 0.099005
O O10 0.998289 0.773034 0.148843
O O11 0.789811 0.107326 0.170124
O O12 0.878678 0.173852 0.268363
O O13 0.867716 0.000000 0.250000
O O14 0.172049 0.725891 0.364081
#
# Coordination Sequence:
#
# PCOD9527586 Si02
#       7
#    16   8   8  16  16  16  16
#     4  10  21  34  62  95 130 168 207 269 348 399
#     4  11  25  44  62  91 135 172 221 285 332 388
#     4  11  27  40  64  97 122 175 228 272 338 400
#     4  12  23  40  65  93 130 173 223 260 340 411
#     4  10  21  39  65  98 130 170 222 271 342 406
#     4  11  22  42  63  89 134 175 215 273 331 396
#     4  11  21  39  62  95 134 166 213 281 327 409
#
# _framework density 19.124365000000001
#
# number of rings (size 3 to 8) (size 9 to 14) (size 15 to 20)
#    0.000    1.167    5.000    2.000    7.000    1.333 
#    0.000    1.667    0.000    0.000    0.000    3.500 
#    0.000    0.000    0.000    0.000    0.000    0.000 
#
# Total GULP energy -267336.584281 kJ/mol
# GULP energy per Si atom -5569.512173 kJ/mol
# Density = 1.908084 g / cm^3
# Si number density = 19.124365 Si / 1000 Ang^3
#
#
#
# Elastic Constant Matrix: (Units=GPa)
#
#
# Indices 1 2 3 4 5 6 
#
# 1 97.3021 39.0978 32.6073 0.0000 0.0000 0.0000
# 2 39.0978 98.4336 30.1032 0.0000 0.0000 0.0000
# 3 32.6073 30.1032 104.4873 0.0000 0.0000 0.0000
# 4 0.0000 0.0000 0.0000 37.4844 0.0000 0.0000
# 5 0.0000 0.0000 0.0000 0.0000 18.1912 0.0000
# 6 0.0000 0.0000 0.0000 0.0000 0.0000 -7.5371
#
#
#
# Elastic Compliance Matrix: (Units=1/GPa)
#
#
# Indices 1 2 3 4 5 6 
#
# 1 0.012937 -0.004281 -0.002804 0.000000 0.000000 0.000000
# 2 -0.004281 0.012557 -0.002282 0.000000 0.000000 0.000000
# 3 -0.002804 -0.002282 0.011103 0.000000 0.000000 0.000000
# 4 0.000000 0.000000 0.000000 0.026678 0.000000 0.000000
# 5 0.000000 0.000000 0.000000 0.000000 0.054972 0.000000
# 6 0.000000 0.000000 0.000000 0.000000 0.000000 -0.132678
#
#
# Mechanical properties :
#
#
# Convention : Reuss Voigt Hill
#
# Bulk Modulus (GPa) = 55.97905 55.98218 55.98061
# Shear Modulus (GPa) = 487.44976 22.85536 255.15256
#
# Velocity S-wave (km/s) = 15.98241 3.46076 11.56318
# Velocity P-wave (km/s) = 19.23325 6.73093 14.40874
#
# Compressibility (1/GPa) = 0.01786383
#
# Stress axis : x y z
#
# Youngs Moduli (GPa) = 77.29694 79.63414 90.06620
#
# Poissons Ratio (x) = 0.34092 0.25253
# Poissons Ratio (y) = 0.33092 0.20552
# Poissons Ratio (z) = 0.21673 0.18171
#
# Static dielectric constant tensor:
#      x y z
#    x 1.709900 0.000000 0.000000 
#    y 0.000000 1.732310 0.000000 
#    z 0.000000 0.000000 1.675720 
# 
# From -- ./inp_files/44289.got.cif
#   From: 2010.05.17/outbox.cif.g08.bks.cpg/sg72_23_cif.got.tgz:44289.got - 2010.06.03 17:03:01.
