data_PCOD9527419
_publ_section_title
;
Structure prediction by ZEFSAII (Michael W. Deem and Ramdas Pophale) SiO2 
 PCOD9527419
Probable space group: I B A M
;
_chemical_formula_sum "Si O2"
_cell_formula_units_Z 112
_cell_length_a 25.878039
_cell_length_b 13.935797
_cell_length_c 15.171341
_cell_angle_alpha 90.000000
_cell_angle_beta 90.000000
_cell_angle_gamma 90.000000
_cell_volume 5471.257367
_symmetry_space_group_name_H-M "I B A M"
_symmetry_group_IT_number 72
_symmetry_cell_setting 'orthorhombic'
loop_
_space_group_symop_operation_xyz
x,y,z
-x,-y,z
x,-y,1/2-z
-x,y,1/2-z
-x,-y,-z
x,y,-z
-x,y,1/2+z
x,-y,1/2+z
1/2+x,1/2+y,1/2+z
1/2-x,1/2-y,1/2+z
1/2+x,1/2-y,-z
1/2-x,1/2+y,-z
1/2-x,1/2-y,1/2-z
1/2+x,1/2+y,1/2-z
1/2-x,1/2+y,z
1/2+x,1/2-y,z
loop_
_atom_site_type_symbol
_atom_site_label
_atom_site_fract_x
_atom_site_fract_y
_atom_site_fract_z
Si Si1 0.193751 0.318593 0.103332
Si Si2 0.840689 0.474110 0.851207
Si Si3 0.698621 0.766364 0.102690
Si Si4 0.551968 0.955765 0.602282
Si Si5 0.991601 0.108822 0.645013
Si Si6 0.085122 0.759086 0.100182
Si Si7 0.589208 0.763533 0.308173
O O1 0.188210 0.434169 0.107753
O O2 0.250047 0.285381 0.135824
O O3 0.149250 0.271303 0.163665
O O4 0.185235 0.292704 0.000000
O O5 0.846619 0.500000 0.750000
O O6 0.813782 0.371799 0.860047
O O7 0.898565 0.474995 0.889862
O O8 0.645115 0.706725 0.106407
O O9 0.708829 0.783412 0.000000
O O10 0.543640 0.934167 0.500000
O O11 0.564346 0.857193 0.649173
O O12 0.500000 0.000000 0.639214
O O13 0.938232 0.170705 0.646363
O O14 0.000000 0.104491 0.750000
O O15 0.037287 0.168634 0.600365
O O16 0.000000 0.000000 0.612616
O O17 0.080404 0.723151 0.202830
O O18 0.082991 0.712636 0.000000
#
# Coordination Sequence:
#
# PCOD9527419 Si02
#       7
#    16  16  16  16  16  16  16
#     4  10  22  42  64  89 121 161 205 252 306 363
#     4  11  22  37  59  89 122 161 201 249 303 363
#     4  10  21  39  63  88 120 160 202 254 304 357
#     4  10  22  39  62  91 123 161 203 250 302 360
#     4   9  20  40  63  88 121 160 201 249 303 358
#     4  10  22  38  60  90 125 162 201 247 303 359
#     4  10  20  39  65  90 122 163 202 252 300 365
#
# _framework density 20.470614000000001
#
# number of rings (size 3 to 8) (size 9 to 14) (size 15 to 20)
#    0.000    2.000    0.000    4.286    2.000    4.000 
#    7.714    0.000    0.000    0.429    0.000    0.000 
#    0.000    0.000    0.000    0.000    0.000    0.000 
#
# Total GULP energy -311891.669728 kJ/mol
# GULP energy per Si atom -5569.494102 kJ/mol
# Density = 2.042402 g / cm^3
# Si number density = 20.470614 Si / 1000 Ang^3
#
#
#
# Elastic Constant Matrix: (Units=GPa)
#
#
# Indices 1 2 3 4 5 6 
#
# 1 143.3025 66.5025 24.0819 0.0000 0.0000 0.0000
# 2 66.5025 66.2614 22.7677 0.0000 0.0000 0.0000
# 3 24.0819 22.7677 114.4061 0.0000 0.0000 0.0000
# 4 0.0000 0.0000 0.0000 20.8603 0.0000 0.0000
# 5 0.0000 0.0000 0.0000 0.0000 9.0050 0.0000
# 6 0.0000 0.0000 0.0000 0.0000 0.0000 27.6737
#
#
#
# Elastic Compliance Matrix: (Units=1/GPa)
#
#
# Indices 1 2 3 4 5 6 
#
# 1 0.013064 -0.013060 -0.000151 0.000000 0.000000 0.000000
# 2 -0.013060 0.029255 -0.003073 0.000000 0.000000 0.000000
# 3 -0.000151 -0.003073 0.009384 0.000000 0.000000 0.000000
# 4 0.000000 0.000000 0.000000 0.047938 0.000000 0.000000
# 5 0.000000 0.000000 0.000000 0.000000 0.111050 0.000000
# 6 0.000000 0.000000 0.000000 0.000000 0.000000 0.036135
#
#
# Mechanical properties :
#
#
# Convention : Reuss Voigt Hill
#
# Bulk Modulus (GPa) = 52.25798 61.18601 56.72200
# Shear Modulus (GPa) = 17.49639 25.54900 21.52270
#
# Velocity S-wave (km/s) = 2.92671 3.53665 3.24604
# Velocity P-wave (km/s) = 6.08314 6.82875 6.46670
#
# Compressibility (1/GPa) = 0.01913583
#
# Stress axis : x y z
#
# Youngs Moduli (GPa) = 76.54368 34.18189 106.56324
#
# Poissons Ratio (x) = 0.44642 0.01608
# Poissons Ratio (y) = 0.99967 0.32746
# Poissons Ratio (z) = 0.01155 0.10504
#
# Static dielectric constant tensor:
#      x y z
#    x 1.805230 0.000000 0.000000 
#    y 0.000000 1.759960 0.000000 
#    z 0.000000 0.000000 1.782110 
# 
# From -- ./inp_files/25212.got.cif
#   From: 2010.05.17/outbox.cif.g08.bks.cpg/sg72_13_cif.got.tgz:25212.got - 2010.06.03 17:03:01.
