data_PCOD9527570
_publ_section_title
;
Structure prediction by ZEFSAII (Michael W. Deem and Ramdas Pophale) SiO2 
 PCOD9527570
Probable space group: I B A M
;
_chemical_formula_sum "Si O2"
_cell_formula_units_Z 88
_cell_length_a 13.003438
_cell_length_b 24.368294
_cell_length_c 14.101056
_cell_angle_alpha 90.000000
_cell_angle_beta 90.000000
_cell_angle_gamma 90.000000
_cell_volume 4468.224179
_symmetry_space_group_name_H-M "I B A M"
_symmetry_group_IT_number 72
_symmetry_cell_setting 'orthorhombic'
loop_
_space_group_symop_operation_xyz
x,y,z
-x,-y,z
x,-y,1/2-z
-x,y,1/2-z
-x,-y,-z
x,y,-z
-x,y,1/2+z
x,-y,1/2+z
1/2+x,1/2+y,1/2+z
1/2-x,1/2-y,1/2+z
1/2+x,1/2-y,-z
1/2-x,1/2+y,-z
1/2-x,1/2-y,1/2-z
1/2+x,1/2+y,1/2-z
1/2-x,1/2+y,z
1/2+x,1/2-y,z
loop_
_atom_site_type_symbol
_atom_site_label
_atom_site_fract_x
_atom_site_fract_y
_atom_site_fract_z
Si Si1 0.030914 0.435767 0.389834
Si Si2 0.665603 0.904850 0.710539
Si Si3 0.507346 0.325525 0.889853
Si Si4 0.710268 0.500000 0.750000
Si Si5 0.432010 0.445627 0.603942
Si Si6 0.180928 0.196454 0.260847
O O1 0.058022 0.428554 0.500000
O O2 0.117856 0.418431 0.314572
O O3 0.000000 0.500000 0.374758
O O4 0.930871 0.400068 0.359973
O O5 0.742595 0.854042 0.716778
O O6 0.724520 0.960684 0.682294
O O7 0.500049 0.391778 0.879938
O O8 0.407011 0.299795 0.841591
O O9 0.611697 0.311852 0.833410
O O10 0.514362 0.311529 0.000000
O O11 0.645099 0.542546 0.688395
O O12 0.500000 0.500000 0.601181
O O13 0.381951 0.438578 0.500000
O O14 0.250000 0.250000 0.250000
#
# Coordination Sequence:
#
# PCOD9527570 Si02
#       6
#    16  16  16   8  16  16
#     4  10  21  37  57  86 123 158 199 250 298 355
#     4  11  21  38  59  87 119 159 201 245 302 355
#     4  10  23  44  65  91 125 159 200 252 303 360
#     4  12  19  31  62  88 118 158 198 238 306 368
#     4  10  21  34  55  90 126 158 193 238 302 372
#     4  11  25  43  64  91 121 159 206 255 300 356
#
# _framework density 19.694624999999998
#
# number of rings (size 3 to 8) (size 9 to 14) (size 15 to 20)
#    0.000    1.455    3.636    1.909    2.545    6.545 
#    0.000    1.818    0.000    0.000    0.000    0.000 
#    0.000    0.000    0.000    0.000    0.000    0.000 
#
# Total GULP energy -245591.322686 kJ/mol
# GULP energy per Si atom -5581.620970 kJ/mol
# Density = 1.964980 g / cm^3
# Si number density = 19.694625 Si / 1000 Ang^3
#
#
#
# Elastic Constant Matrix: (Units=GPa)
#
#
# Indices 1 2 3 4 5 6 
#
# 1 84.5213 36.4407 22.3267 0.0000 0.0000 0.0000
# 2 36.4407 90.4790 4.1252 -0.0002 -0.0001 0.0000
# 3 22.3267 4.1252 97.6397 -0.0001 0.0000 0.0000
# 4 0.0000 -0.0002 -0.0001 11.5201 0.0000 0.0000
# 5 0.0000 -0.0001 0.0000 0.0000 -10.6540 0.0000
# 6 0.0000 0.0000 0.0000 0.0000 0.0000 35.7319
#
#
#
# Elastic Compliance Matrix: (Units=1/GPa)
#
#
# Indices 1 2 3 4 5 6 
#
# 1 0.015276 -0.006005 -0.003239 0.000000 0.000000 0.000000
# 2 -0.006005 0.013434 0.000805 0.000000 0.000000 0.000000
# 3 -0.003239 0.000805 0.010948 0.000000 0.000000 0.000000
# 4 0.000000 0.000000 0.000000 0.086805 0.000000 0.000000
# 5 0.000000 0.000000 0.000000 0.000000 -0.093862 0.000000
# 6 0.000000 0.000000 0.000000 0.000000 0.000000 0.027986
#
#
# Mechanical properties :
#
#
# Convention : Reuss Voigt Hill
#
# Bulk Modulus (GPa) = 43.89595 44.26945 44.08270
# Shear Modulus (GPa) = 58.78293 21.30277 40.04285
#
# Velocity S-wave (km/s) = 5.46919 3.29242 4.51398
# Velocity P-wave (km/s) = 7.88792 6.08113 7.04271
#
# Compressibility (1/GPa) = 0.02278114
#
# Stress axis : x y z
#
# Youngs Moduli (GPa) = 65.46255 74.43810 91.33730
#
# Poissons Ratio (x) = 0.44698 0.29587
# Poissons Ratio (y) = 0.39308 -0.07357
# Poissons Ratio (z) = 0.21206 -0.05996
#
# Static dielectric constant tensor:
#      x y z
#    x 1.915950 0.000000 0.000000 
#    y 0.000000 1.693580 0.000000 
#    z 0.000000 0.000000 1.729170 
# 
# From -- ./inp_files/20505.got.cif
#   From: 2010.05.17/outbox.cif.g08.bks.cpg/sg72_11_cif.got.tgz:20505.got - 2010.06.03 17:03:01.
