data_PCOD9527852
_publ_section_title
;
Structure prediction by ZEFSAII (Michael W. Deem and Ramdas Pophale) SiO2 
 PCOD9527852
Probable space group: I B A M
;
_chemical_formula_sum "Si O2"
_cell_formula_units_Z 64
_cell_length_a 28.927512
_cell_length_b 14.487459
_cell_length_c 8.669063
_cell_angle_alpha 90.000000
_cell_angle_beta 90.000000
_cell_angle_gamma 90.000000
_cell_volume 3633.084185
_symmetry_space_group_name_H-M "I B A M"
_symmetry_group_IT_number 72
_symmetry_cell_setting 'orthorhombic'
loop_
_space_group_symop_operation_xyz
x,y,z
-x,-y,z
x,-y,1/2-z
-x,y,1/2-z
-x,-y,-z
x,y,-z
-x,y,1/2+z
x,-y,1/2+z
1/2+x,1/2+y,1/2+z
1/2-x,1/2-y,1/2+z
1/2+x,1/2-y,-z
1/2-x,1/2+y,-z
1/2-x,1/2-y,1/2-z
1/2+x,1/2+y,1/2-z
1/2-x,1/2+y,z
1/2+x,1/2-y,z
loop_
_atom_site_type_symbol
_atom_site_label
_atom_site_fract_x
_atom_site_fract_y
_atom_site_fract_z
Si Si1 0.051541 0.243270 0.685800
Si Si2 0.374230 0.396971 0.315320
Si Si3 0.801509 0.753840 0.685794
Si Si4 0.624182 0.897668 0.184917
O O1 0.051401 0.237071 0.500000
O O2 0.081177 0.158591 0.753197
O O3 0.079858 0.335856 0.730581
O O4 0.000000 0.244306 0.750000
O O5 0.373828 0.500000 0.250000
O O6 0.374282 0.397834 0.500000
O O7 0.330126 0.339782 0.253530
O O8 0.801316 0.760049 0.500000
O O9 0.750000 0.750000 0.750000
O O10 0.830901 0.662522 0.730295
O O11 0.623843 0.000000 0.250000
O O12 0.624115 0.903159 0.000000
#
# Coordination Sequence:
#
# PCOD9527852 Si02
#       4
#    16  16  16  16
#     4  10  21  38  57  82 112 144 183 228 274 328
#     4  11  22  38  59  83 111 146 184 229 279 330
#     4  10  21  38  57  82 113 147 186 230 276 328
#     4   9  20  36  55  79 110 143 181 225 271 322
#
# _framework density 17.615887000000001
#
# number of rings (size 3 to 8) (size 9 to 14) (size 15 to 20)
#    0.000    2.000    0.000    5.250    0.000    8.000 
#    0.000    7.500    0.000    0.000    0.000    0.000 
#    0.000    0.000    0.000    0.000    0.000    0.000 
#
# Total GULP energy -178705.618456 kJ/mol
# GULP energy per Si atom -5584.550577 kJ/mol
# Density = 1.757579 g / cm^3
# Si number density = 17.615887 Si / 1000 Ang^3
#
#
#
# Elastic Constant Matrix: (Units=GPa)
#
#
# Indices 1 2 3 4 5 6 
#
# 1 202.4869 110.0873 70.0537 0.0000 0.0000 0.0000
# 2 110.0873 203.7429 68.7937 0.0000 0.0000 0.0000
# 3 70.0537 68.7937 104.3382 0.0000 0.0000 0.0000
# 4 0.0000 0.0000 0.0000 37.2219 0.0000 0.0000
# 5 0.0000 0.0000 0.0000 0.0000 91.3113 0.0000
# 6 0.0000 0.0000 0.0000 0.0000 0.0000 5.1115
#
#
#
# Elastic Compliance Matrix: (Units=1/GPa)
#
#
# Indices 1 2 3 4 5 6 
#
# 1 0.007712 -0.003111 -0.003126 0.000000 0.000000 0.000000
# 2 -0.003111 0.007569 -0.002902 0.000000 0.000000 0.000000
# 3 -0.003126 -0.002902 0.013596 0.000000 0.000000 0.000000
# 4 0.000000 0.000000 0.000000 0.026866 0.000000 0.000000
# 5 0.000000 0.000000 0.000000 0.000000 0.010952 0.000000
# 6 0.000000 0.000000 0.000000 0.000000 0.000000 0.195639
#
#
# Mechanical properties :
#
#
# Convention : Reuss Voigt Hill
#
# Bulk Modulus (GPa) = 94.35094 112.04860 103.19977
# Shear Modulus (GPa) = 17.59668 44.17114 30.88391
#
# Velocity S-wave (km/s) = 3.16398 5.01289 4.19165
# Velocity P-wave (km/s) = 8.18683 9.86154 9.06295
#
# Compressibility (1/GPa) = 0.01059873
#
# Stress axis : x y z
#
# Youngs Moduli (GPa) = 129.67304 132.11945 73.54887
#
# Poissons Ratio (x) = 0.41105 0.22994
# Poissons Ratio (y) = 0.40344 0.21341
# Poissons Ratio (z) = 0.40541 0.38335
#
# Static dielectric constant tensor:
#      x y z
#    x 1.577740 0.000000 0.000000 
#    y 0.000000 1.579170 0.000000 
#    z 0.000000 0.000000 1.587220 
# 
# From -- ./inp_files/2607.got.cif
#   From: 2010.05.17/outbox.cif.g08.bks.cpg/sg72_2_cif.got.tgz:2607.got - 2010.06.03 17:03:01.
