data_PCOD9527711
_publ_section_title
;
Structure prediction by ZEFSAII (Michael W. Deem and Ramdas Pophale) SiO2 
 PCOD9527711
Probable space group: I B A M
;
_chemical_formula_sum "Si O2"
_cell_formula_units_Z 64
_cell_length_a 17.806298
_cell_length_b 9.403681
_cell_length_c 18.063137
_cell_angle_alpha 90.000000
_cell_angle_beta 90.000000
_cell_angle_gamma 90.000000
_cell_volume 3024.577390
_symmetry_space_group_name_H-M "I B A M"
_symmetry_group_IT_number 72
_symmetry_cell_setting 'orthorhombic'
loop_
_space_group_symop_operation_xyz
x,y,z
-x,-y,z
x,-y,1/2-z
-x,y,1/2-z
-x,-y,-z
x,y,-z
-x,y,1/2+z
x,-y,1/2+z
1/2+x,1/2+y,1/2+z
1/2-x,1/2-y,1/2+z
1/2+x,1/2-y,-z
1/2-x,1/2+y,-z
1/2-x,1/2-y,1/2-z
1/2+x,1/2+y,1/2-z
1/2-x,1/2+y,z
1/2+x,1/2-y,z
loop_
_atom_site_type_symbol
_atom_site_label
_atom_site_fract_x
_atom_site_fract_y
_atom_site_fract_z
Si Si1 0.180666 0.042158 0.833053
Si Si2 0.820036 0.728722 0.635935
Si Si3 0.588837 0.023472 0.921056
Si Si4 0.583299 0.771290 0.715667
O O1 0.238081 0.159064 0.863080
O O2 0.100257 0.117571 0.820979
O O3 0.207241 0.000000 0.750000
O O4 0.180364 0.896849 0.879164
O O5 0.870748 0.627905 0.585736
O O6 0.858258 0.715349 0.717129
O O7 0.602002 0.114314 0.847317
O O8 0.500000 0.000000 0.921923
O O9 0.611054 0.091387 0.000000
O O10 0.500000 0.786054 0.750000
#
# Coordination Sequence:
#
# PCOD9527711 Si02
#       4
#    16  16  16  16
#     4  10  21  36  62  94 128 158 205 261 314 369
#     4  11  21  39  62  91 125 163 205 259 312 374
#     4  11  23  40  61  89 123 163 208 255 309 375
#     4  11  21  38  63  95 125 162 210 257 314 371
#
# _framework density 21.159980000000001
#
# number of rings (size 3 to 8) (size 9 to 14) (size 15 to 20)
#    0.000    1.250    2.500    6.750    0.000    4.500 
#    0.000    6.250    0.000    3.000    0.000    0.000 
#    0.000    0.000    0.000    0.000    0.000    0.000 
#
# Total GULP energy -178671.638343 kJ/mol
# GULP energy per Si atom -5583.488698 kJ/mol
# Density = 2.111182 g / cm^3
# Si number density = 21.159980 Si / 1000 Ang^3
#
#
#
# Elastic Constant Matrix: (Units=GPa)
#
#
# Indices 1 2 3 4 5 6 
#
# 1 71.5694 41.4110 18.5246 0.0000 0.0000 0.0000
# 2 41.4110 138.9270 32.2800 0.0000 0.0000 0.0000
# 3 18.5246 32.2800 67.8480 0.0000 0.0000 0.0000
# 4 0.0000 0.0000 0.0000 -828.1064 0.0000 0.0000
# 5 0.0000 0.0000 0.0000 0.0000 -125.6608 0.0000
# 6 0.0000 0.0000 0.0000 0.0000 0.0000 33.0840
#
#
#
# Elastic Compliance Matrix: (Units=1/GPa)
#
#
# Indices 1 2 3 4 5 6 
#
# 1 0.017267 -0.004555 -0.002547 0.000000 0.000000 0.000000
# 2 -0.004555 0.009294 -0.003178 0.000000 0.000000 0.000000
# 3 -0.002547 -0.003178 0.016946 0.000000 0.000000 0.000000
# 4 0.000000 0.000000 0.000000 -0.001208 0.000000 0.000000
# 5 0.000000 0.000000 0.000000 0.000000 -0.007958 0.000000
# 6 0.000000 0.000000 0.000000 0.000000 0.000000 0.030226
#
#
# Mechanical properties :
#
#
# Convention : Reuss Voigt Hill
#
# Bulk Modulus (GPa) = 43.57926 51.41951 47.49938
# Shear Modulus (GPa) = 53.89143 -171.72804 -58.91830
#
# Velocity S-wave (km/s) = 5.05211 -9.01849 -5.28249
# Velocity P-wave (km/s) = 7.39403 9.17012 3.83533
#
# Compressibility (1/GPa) = 0.02294670
#
# Stress axis : x y z
#
# Youngs Moduli (GPa) = 57.91238 107.59302 59.00945
#
# Poissons Ratio (x) = 0.49010 0.15032
# Poissons Ratio (y) = 0.26380 0.18755
# Poissons Ratio (z) = 0.14752 0.34196
#
# Static dielectric constant tensor:
#      x y z
#    x 1.762810 0.000000 0.000000 
#    y 0.000000 1.820460 0.000000 
#    z 0.000000 0.000000 1.777790 
# 
# From -- ./inp_files/27640.got.cif
#   From: 2010.05.17/outbox.cif.g08.bks.cpg/sg72_14_cif.got.tgz:27640.got - 2010.06.03 17:03:01.
