data_PCOD9527558
_publ_section_title
;
Structure prediction by ZEFSAII (Michael W. Deem and Ramdas Pophale) SiO2 
 PCOD9527558
Probable space group: I B A M
;
_chemical_formula_sum "Si O2"
_cell_formula_units_Z 88
_cell_length_a 18.825951
_cell_length_b 21.397726
_cell_length_c 9.617075
_cell_angle_alpha 90.000000
_cell_angle_beta 90.000000
_cell_angle_gamma 90.000000
_cell_volume 3874.070761
_symmetry_space_group_name_H-M "I B A M"
_symmetry_group_IT_number 72
_symmetry_cell_setting 'orthorhombic'
loop_
_space_group_symop_operation_xyz
x,y,z
-x,-y,z
x,-y,1/2-z
-x,y,1/2-z
-x,-y,-z
x,y,-z
-x,y,1/2+z
x,-y,1/2+z
1/2+x,1/2+y,1/2+z
1/2-x,1/2-y,1/2+z
1/2+x,1/2-y,-z
1/2-x,1/2+y,-z
1/2-x,1/2-y,1/2-z
1/2+x,1/2+y,1/2-z
1/2-x,1/2+y,z
1/2+x,1/2-y,z
loop_
_atom_site_type_symbol
_atom_site_label
_atom_site_fract_x
_atom_site_fract_y
_atom_site_fract_z
Si Si1 0.226538 0.586623 0.730810
Si Si2 0.760721 0.017506 0.500000
Si Si3 0.067580 0.254801 0.157998
Si Si4 0.567141 0.094507 0.159674
Si Si5 0.328768 0.683417 0.657914
Si Si6 0.427063 0.439350 0.165855
O O1 0.258110 0.570691 0.878809
O O2 0.254574 0.537726 0.618155
O O3 0.141641 0.578189 0.730455
O O4 0.250996 0.655776 0.686308
O O5 0.065083 0.329964 0.153855
O O6 0.138196 0.231009 0.233246
O O7 0.000000 0.233963 0.250000
O O8 0.061966 0.231096 0.000000
O O9 0.500000 0.073588 0.250000
O O10 0.565998 0.071181 0.000000
O O11 0.334232 0.707219 0.500000
O O12 0.378171 0.621289 0.671194
O O13 0.398667 0.500000 0.250000
O O14 0.500000 0.426430 0.250000
O O15 0.435804 0.454433 0.000000
#
# Coordination Sequence:
#
# PCOD9527558 Si02
#       6
#    16   8  16  16  16  16
#     4  11  23  44  64  95 125 167 206 257 311 378
#     4  10  24  42  67  88 131 164 206 252 314 378
#     4  10  22  40  63  92 125 167 211 258 314 368
#     4  10  22  43  68  93 127 162 204 259 317 377
#     4  11  23  37  60  88 123 164 204 258 305 364
#     4  10  21  34  50  76 108 149 198 246 297 351
#
# _framework density 22.715123999999999
#
# number of rings (size 3 to 8) (size 9 to 14) (size 15 to 20)
#    0.000    1.636    1.818    2.182    5.091    4.364 
#    0.000    2.727    0.000    0.000    0.000    0.000 
#    0.000    0.000    0.000    0.000    0.000    0.000 
#
# Total GULP energy -245063.316237 kJ/mol
# GULP energy per Si atom -5569.620824 kJ/mol
# Density = 2.266342 g / cm^3
# Si number density = 22.715124 Si / 1000 Ang^3
#
#
#
# Elastic Constant Matrix: (Units=GPa)
#
#
# Indices 1 2 3 4 5 6 
#
# 1 89.6657 9.0196 21.3546 0.0000 0.0000 0.0000
# 2 9.0196 42.7034 23.7113 0.0000 0.0000 0.0000
# 3 21.3546 23.7113 207.9843 0.0000 0.0000 0.0000
# 4 0.0000 0.0000 0.0000 15.3344 0.0000 0.0000
# 5 0.0000 0.0000 0.0000 0.0000 -34.4111 0.0000
# 6 0.0000 0.0000 0.0000 0.0000 0.0000 1.0592
#
#
#
# Elastic Compliance Matrix: (Units=1/GPa)
#
#
# Indices 1 2 3 4 5 6 
#
# 1 0.011576 -0.001906 -0.000971 0.000000 0.000000 0.000000
# 2 -0.001906 0.025314 -0.002690 0.000000 0.000000 0.000000
# 3 -0.000971 -0.002690 0.005214 0.000000 0.000000 0.000000
# 4 0.000000 0.000000 0.000000 0.065213 0.000000 0.000000
# 5 0.000000 0.000000 0.000000 0.000000 -0.029060 0.000000
# 6 0.000000 0.000000 0.000000 0.000000 0.000000 0.944151
#
#
# Mechanical properties :
#
#
# Convention : Reuss Voigt Hill
#
# Bulk Modulus (GPa) = 32.28994 49.83603 41.06298
# Shear Modulus (GPa) = 4.78989 15.48104 10.13547
#
# Velocity S-wave (km/s) = 1.45371 2.61345 2.11463
# Velocity P-wave (km/s) = 4.13082 5.57620 4.90702
#
# Compressibility (1/GPa) = 0.03096940
#
# Stress axis : x y z
#
# Youngs Moduli (GPa) = 86.38908 39.50449 191.77377
#
# Poissons Ratio (x) = 0.07528 0.18626
# Poissons Ratio (y) = 0.16462 0.51591
# Poissons Ratio (z) = 0.08391 0.10628
#
# Static dielectric constant tensor:
#      x y z
#    x 1.931940 0.000000 0.000000 
#    y 0.000000 1.865500 0.000000 
#    z 0.000000 0.000000 1.256690 
# 
# From -- ./inp_files/5752.got.cif
#   From: 2010.05.17/outbox.cif.g08.bks.cpg/sg72_3_cif.got.tgz:5752.got - 2010.06.03 17:03:01.
