data_PCOD9527387
_publ_section_title
;
Structure prediction by ZEFSAII (Michael W. Deem and Ramdas Pophale) SiO2 
 PCOD9527387
Probable space group: I B A M
;
_chemical_formula_sum "Si O2"
_cell_formula_units_Z 96
_cell_length_a 21.275601
_cell_length_b 12.762904
_cell_length_c 15.368996
_cell_angle_alpha 90.000000
_cell_angle_beta 90.000000
_cell_angle_gamma 90.000000
_cell_volume 4173.273400
_symmetry_space_group_name_H-M "I B A M"
_symmetry_group_IT_number 72
_symmetry_cell_setting 'orthorhombic'
loop_
_space_group_symop_operation_xyz
x,y,z
-x,-y,z
x,-y,1/2-z
-x,y,1/2-z
-x,-y,-z
x,y,-z
-x,y,1/2+z
x,-y,1/2+z
1/2+x,1/2+y,1/2+z
1/2-x,1/2-y,1/2+z
1/2+x,1/2-y,-z
1/2-x,1/2+y,-z
1/2-x,1/2-y,1/2-z
1/2+x,1/2+y,1/2-z
1/2-x,1/2+y,z
1/2+x,1/2-y,z
loop_
_atom_site_type_symbol
_atom_site_label
_atom_site_fract_x
_atom_site_fract_y
_atom_site_fract_z
Si Si1 0.787134 0.643484 0.773118
Si Si2 0.688895 0.607333 0.906119
Si Si3 0.652381 0.851262 0.096558
Si Si4 0.611190 0.241989 0.902463
Si Si5 0.428935 0.523366 0.852713
Si Si6 0.509174 0.875677 0.851030
O O1 0.750000 0.750000 0.750000
O O2 0.735594 0.580470 0.828116
O O3 0.816334 0.600147 0.683306
O O4 0.842952 0.680429 0.837273
O O5 0.676820 0.731875 0.905720
O O6 0.622181 0.552212 0.894965
O O7 0.716053 0.577801 0.000000
O O8 0.578074 0.849250 0.114795
O O9 0.663985 0.897529 0.000000
O O10 0.594477 0.358729 0.870160
O O11 0.545563 0.180920 0.902842
O O12 0.638307 0.247375 0.000000
O O13 0.500000 0.500000 0.884022
O O14 0.428457 0.500000 0.750000
O O15 0.500000 0.843497 0.750000
O O16 0.500000 0.000000 0.856122
#
# Coordination Sequence:
#
# PCOD9527387 Si02
#       6
#    16  16  16  16  16  16
#     4  10  21  41  64  90 133 178 225 280 338 408
#     4  10  21  40  65  95 133 176 223 276 343 416
#     4  10  20  38  67  98 131 174 224 284 347 411
#     4  12  25  42  69 101 138 180 234 290 350 423
#     4  11  24  40  67 101 138 185 228 289 354 428
#     4  11  24  43  69  99 133 176 225 281 346 414
#
# _framework density 23.003526999999998
#
# number of rings (size 3 to 8) (size 9 to 14) (size 15 to 20)
#    0.000    1.333    1.667    4.500    2.333    4.667 
#    0.000    6.667    0.000    6.000    0.000    0.000 
#    0.000    0.000    0.000    0.000    0.000    0.000 
#
# Total GULP energy -268616.483180 kJ/mol
# GULP energy per Si atom -5596.176733 kJ/mol
# Density = 2.295117 g / cm^3
# Si number density = 23.003527 Si / 1000 Ang^3
#
#
#
# Elastic Constant Matrix: (Units=GPa)
#
#
# Indices 1 2 3 4 5 6 
#
# 1 140.6306 13.5360 74.9169 0.0000 0.0000 0.0000
# 2 13.5360 28.2545 31.0490 0.0000 0.0000 0.0000
# 3 74.9169 31.0490 204.7870 0.0000 0.0000 0.0000
# 4 0.0000 0.0000 0.0000 -0.1065 0.0000 0.0000
# 5 0.0000 0.0000 0.0000 0.0000 13.7723 0.0000
# 6 0.0000 0.0000 0.0000 0.0000 0.0000 43.4610
#
#
#
# Elastic Compliance Matrix: (Units=1/GPa)
#
#
# Indices 1 2 3 4 5 6 
#
# 1 0.008848 -0.000818 -0.003113 0.000000 0.000000 0.000000
# 2 -0.000818 0.042544 -0.006151 0.000000 0.000000 0.000000
# 3 -0.003113 -0.006151 0.006954 0.000000 0.000000 0.000000
# 4 0.000000 0.000000 0.000000 -9.386366 0.000000 0.000000
# 5 0.000000 0.000000 0.000000 0.000000 0.072610 0.000000
# 6 0.000000 0.000000 0.000000 0.000000 0.000000 0.023009
#
#
# Mechanical properties :
#
#
# Convention : Reuss Voigt Hill
#
# Bulk Modulus (GPa) = 26.19012 68.07510 47.13261
# Shear Modulus (GPa) = -0.54351 28.37004 13.91326
#
# Velocity S-wave (km/s) = -0.48660 3.51563 2.46200
# Velocity P-wave (km/s) = 3.33081 6.79243 5.34937
#
# Compressibility (1/GPa) = 0.03818234
#
# Stress axis : x y z
#
# Youngs Moduli (GPa) = 113.02250 23.50511 143.79287
#
# Poissons Ratio (x) = 0.01923 0.44759
# Poissons Ratio (y) = 0.09247 0.88448
# Poissons Ratio (z) = 0.35181 0.14458
#
# Static dielectric constant tensor:
#      x y z
#    x 1.812890 0.000000 0.000000 
#    y 0.000000 1.858680 0.000000 
#    z 0.000000 0.000000 1.947420 
# 
# From -- ./inp_files/24131.got.cif
#   From: 2010.05.17/outbox.cif.g08.bks.cpg/sg72_13_cif.got.tgz:24131.got - 2010.06.03 17:03:01.
