data_PCOD9527279
_publ_section_title
;
Structure prediction by ZEFSAII (Michael W. Deem and Ramdas Pophale) SiO2 
 PCOD9527279
Probable space group: I B A M
;
_chemical_formula_sum "Si O2"
_cell_formula_units_Z 64
_cell_length_a 5.201359
_cell_length_b 34.252692
_cell_length_c 19.737482
_cell_angle_alpha 90.000000
_cell_angle_beta 90.000000
_cell_angle_gamma 90.000000
_cell_volume 3516.440605
_symmetry_space_group_name_H-M "I B A M"
_symmetry_group_IT_number 72
_symmetry_cell_setting 'orthorhombic'
loop_
_space_group_symop_operation_xyz
x,y,z
-x,-y,z
x,-y,1/2-z
-x,y,1/2-z
-x,-y,-z
x,y,-z
-x,y,1/2+z
x,-y,1/2+z
1/2+x,1/2+y,1/2+z
1/2-x,1/2-y,1/2+z
1/2+x,1/2-y,-z
1/2-x,1/2+y,-z
1/2-x,1/2-y,1/2-z
1/2+x,1/2+y,1/2-z
1/2-x,1/2+y,z
1/2+x,1/2-y,z
loop_
_atom_site_type_symbol
_atom_site_label
_atom_site_fract_x
_atom_site_fract_y
_atom_site_fract_z
Si Si1 0.500000 0.648732 0.750000
Si Si2 0.188330 0.275697 0.000000
Si Si3 0.709901 0.339412 0.612313
Si Si4 0.748706 0.524958 0.418412
Si Si5 0.726820 0.113056 0.370395
O O1 0.354262 0.671801 0.690519
O O2 0.300908 0.622301 0.792349
O O3 0.234034 0.303072 0.065029
O O4 0.403903 0.242119 0.000000
O O5 0.454841 0.363460 0.590852
O O6 0.953087 0.368286 0.612267
O O7 0.500000 0.500000 0.398211
O O8 0.741266 0.529990 0.500000
O O9 0.759226 0.567661 0.386300
O O10 0.000000 0.500000 0.401358
#
# Coordination Sequence:
#
# PCOD9527279 Si02
#       5
#     8   8  16  16  16
#     4   8  22  38  67  88 120 156 224 248 288 364
#     4  12  26  44  64 100 130 150 192 252 314 372
#     4  10  22  39  66  89 121 160 201 251 298 368
#     4  10  21  35  54  87 127 161 202 258 312 351
#     4  10  20  37  65  86 116 164 215 251 288 364
#
# _framework density 18.200220999999999
#
# number of rings (size 3 to 8) (size 9 to 14) (size 15 to 20)
#    1.500    0.500    0.000    3.750    3.500    0.000 
#    0.000    1.875    0.000    0.000    0.000    0.000 
#    0.000    0.000    0.000    0.000    0.000    0.000 
#
# Total GULP energy -178285.743873 kJ/mol
# GULP energy per Si atom -5571.429496 kJ/mol
# Density = 1.815880 g / cm^3
# Si number density = 18.200221 Si / 1000 Ang^3
#
#
#
# Elastic Constant Matrix: (Units=GPa)
#
#
# Indices 1 2 3 4 5 6 
#
# 1 95.9260 1.4150 12.0452 0.0000 0.0000 0.0000
# 2 1.4150 60.3440 37.8108 0.0000 0.0000 0.0000
# 3 12.0452 37.8108 68.7024 0.0001 0.0000 0.0000
# 4 0.0000 0.0000 0.0001 -95.2772 0.0000 0.0000
# 5 0.0000 0.0000 0.0000 0.0000 2.0518 0.0000
# 6 0.0000 0.0000 0.0000 0.0000 0.0000 32.0536
#
#
#
# Elastic Compliance Matrix: (Units=1/GPa)
#
#
# Indices 1 2 3 4 5 6 
#
# 1 0.010738 0.001416 -0.002662 0.000000 0.000000 0.000000
# 2 0.001416 0.025481 -0.014272 0.000000 0.000000 0.000000
# 3 -0.002662 -0.014272 0.022877 0.000000 0.000000 0.000000
# 4 0.000000 0.000000 0.000000 -0.010496 0.000000 0.000000
# 5 0.000000 0.000000 0.000000 0.000000 0.487366 0.000000
# 6 0.000000 0.000000 0.000000 0.000000 0.000000 0.031198
#
#
# Mechanical properties :
#
#
# Convention : Reuss Voigt Hill
#
# Bulk Modulus (GPa) = 35.63735 36.39050 36.01392
# Shear Modulus (GPa) = 8.22973 -0.65427 3.78773
#
# Velocity S-wave (km/s) = 2.12875 -0.60022 1.44418
# Velocity P-wave (km/s) = 5.06610 4.42240 4.75515
#
# Compressibility (1/GPa) = 0.02806045
#
# Stress axis : x y z
#
# Youngs Moduli (GPa) = 93.12656 39.24470 43.71209
#
# Poissons Ratio (x) = -0.05558 0.11636
# Poissons Ratio (y) = -0.13189 0.62386
# Poissons Ratio (z) = 0.24791 0.56010
#
# Static dielectric constant tensor:
#      x y z
#    x 1.631920 0.000000 0.000000 
#    y 0.000000 1.565860 0.000000 
#    z 0.000000 0.000000 1.645450 
# 
# From -- ./inp_files/34786.got.cif
#   From: 2010.05.17/outbox.cif.g08.bks.cpg/sg72_18_cif.got.tgz:34786.got - 2010.06.03 17:03:01.
