data_PCOD9527450
_publ_section_title
;
Structure prediction by ZEFSAII (Michael W. Deem and Ramdas Pophale) SiO2 
 PCOD9527450
Probable space group: I B A M
;
_chemical_formula_sum "Si O2"
_cell_formula_units_Z 72
_cell_length_a 9.932851
_cell_length_b 12.802932
_cell_length_c 25.176643
_cell_angle_alpha 90.000000
_cell_angle_beta 90.000000
_cell_angle_gamma 90.000000
_cell_volume 3201.704020
_symmetry_space_group_name_H-M "I B A M"
_symmetry_group_IT_number 72
_symmetry_cell_setting 'orthorhombic'
loop_
_space_group_symop_operation_xyz
x,y,z
-x,-y,z
x,-y,1/2-z
-x,y,1/2-z
-x,-y,-z
x,y,-z
-x,y,1/2+z
x,-y,1/2+z
1/2+x,1/2+y,1/2+z
1/2-x,1/2-y,1/2+z
1/2+x,1/2-y,-z
1/2-x,1/2+y,-z
1/2-x,1/2-y,1/2-z
1/2+x,1/2+y,1/2-z
1/2-x,1/2+y,z
1/2+x,1/2-y,z
loop_
_atom_site_type_symbol
_atom_site_label
_atom_site_fract_x
_atom_site_fract_y
_atom_site_fract_z
Si Si1 0.629017 0.864596 0.061324
Si Si2 0.210388 0.000000 0.750000
Si Si3 0.500000 0.000000 0.860854
Si Si4 0.902541 0.792190 0.106688
Si Si5 0.500000 0.500000 0.344443
Si Si6 0.391620 0.818514 0.211815
O O1 0.619140 0.965279 0.099885
O O2 0.773759 0.812594 0.070270
O O3 0.507414 0.789569 0.081096
O O4 0.610084 0.891363 0.000000
O O5 0.290507 0.110284 0.745869
O O6 0.124974 0.002338 0.696155
O O7 0.530790 0.093511 0.821681
O O8 0.843306 0.753668 0.163872
O O9 0.983928 0.897540 0.119875
O O10 0.500000 0.762892 0.250000
#
# Coordination Sequence:
#
# PCOD9527450 Si02
#       6
#    16   8   8  16   8  16
#     4  11  24  46  73  99 131 176 235 296 357 410
#     4  11  21  38  60  92 137 177 226 254 338 399
#     4  10  20  40  64 102 128 170 220 280 340 414
#     4  11  26  44  67 100 140 179 232 286 348 410
#     4  11  26  40  57  94 140 182 217 276 323 418
#     4  11  21  38  67  96 135 177 219 275 329 413
#
# _framework density 22.488025
#
# number of rings (size 3 to 8) (size 9 to 14) (size 15 to 20)
#    0.000    1.111    2.222    3.667    6.222    2.667 
#    0.000    6.667    0.000    0.000    0.000    0.000 
#    0.000    0.000    0.000    0.000    0.000    0.000 
#
# Total GULP energy -201201.888489 kJ/mol
# GULP energy per Si atom -5588.941347 kJ/mol
# Density = 2.243684 g / cm^3
# Si number density = 22.488025 Si / 1000 Ang^3
#
#
#
# Elastic Constant Matrix: (Units=GPa)
#
#
# Indices 1 2 3 4 5 6 
#
# 1 65.5600 -11.8075 35.6981 0.0000 0.0000 0.0000
# 2 -11.8075 24.4650 5.7619 0.0000 0.0000 0.0000
# 3 35.6981 5.7619 110.9419 0.0000 0.0000 0.0000
# 4 0.0000 0.0000 0.0000 19.8280 0.0000 0.0000
# 5 0.0000 0.0000 0.0000 0.0000 29.6525 0.0000
# 6 0.0000 0.0000 0.0000 0.0000 0.0000 33.6507
#
#
#
# Elastic Compliance Matrix: (Units=1/GPa)
#
#
# Indices 1 2 3 4 5 6 
#
# 1 0.021575 0.012197 -0.007576 0.000000 0.000000 0.000000
# 2 0.012197 0.048276 -0.006432 0.000000 0.000000 0.000000
# 3 -0.007576 -0.006432 0.011785 0.000000 0.000000 0.000000
# 4 0.000000 0.000000 0.000000 0.050434 0.000000 0.000000
# 5 0.000000 0.000000 0.000000 0.000000 0.033724 0.000000
# 6 0.000000 0.000000 0.000000 0.000000 0.000000 0.029717
#
#
# Mechanical properties :
#
#
# Convention : Reuss Voigt Hill
#
# Bulk Modulus (GPa) = 12.81808 28.91912 20.86860
# Shear Modulus (GPa) = 22.20863 28.04719 25.12791
#
# Velocity S-wave (km/s) = 3.14598 3.53541 3.34637
# Velocity P-wave (km/s) = 4.34840 5.43629 4.92249
#
# Compressibility (1/GPa) = 0.07801479
#
# Stress axis : x y z
#
# Youngs Moduli (GPa) = 46.35014 20.71424 84.85048
#
# Poissons Ratio (x) = -0.25265 0.64280
# Poissons Ratio (y) = -0.56532 0.54575
# Poissons Ratio (z) = 0.35113 0.13323
#
# Static dielectric constant tensor:
#      x y z
#    x 1.887700 0.000000 0.000000 
#    y 0.000000 1.893620 0.000000 
#    z 0.000000 0.000000 1.773930 
# 
# From -- ./inp_files/47053.got.cif
#   From: 2010.05.17/outbox.cif.g08.bks.cpg/sg72_24_cif.got.tgz:47053.got - 2010.06.03 17:03:01.
