data_PCOD9527209
_publ_section_title
;
Structure prediction by ZEFSAII (Michael W. Deem and Ramdas Pophale) SiO2 
 PCOD9527209
Probable space group: I B A M
;
_chemical_formula_sum "Si O2"
_cell_formula_units_Z 96
_cell_length_a 17.114477
_cell_length_b 12.214152
_cell_length_c 23.678748
_cell_angle_alpha 90.000000
_cell_angle_beta 90.000000
_cell_angle_gamma 90.000000
_cell_volume 4949.777623
_symmetry_space_group_name_H-M "I B A M"
_symmetry_group_IT_number 72
_symmetry_cell_setting 'orthorhombic'
loop_
_space_group_symop_operation_xyz
x,y,z
-x,-y,z
x,-y,1/2-z
-x,y,1/2-z
-x,-y,-z
x,y,-z
-x,y,1/2+z
x,-y,1/2+z
1/2+x,1/2+y,1/2+z
1/2-x,1/2-y,1/2+z
1/2+x,1/2-y,-z
1/2-x,1/2+y,-z
1/2-x,1/2-y,1/2-z
1/2+x,1/2+y,1/2-z
1/2-x,1/2+y,z
1/2+x,1/2-y,z
loop_
_atom_site_type_symbol
_atom_site_label
_atom_site_fract_x
_atom_site_fract_y
_atom_site_fract_z
Si Si1 0.594446 0.126288 0.258004
Si Si2 0.875622 0.483480 0.935191
Si Si3 0.441453 0.213901 0.122908
Si Si4 0.921255 0.937990 0.566414
Si Si5 0.122692 0.299090 0.860382
Si Si6 0.206403 0.125905 0.064361
O O1 0.500000 0.128030 0.250000
O O2 0.602724 0.175770 0.320205
O O3 0.634431 0.190036 0.206646
O O4 0.618172 0.000000 0.250000
O O5 0.938140 0.391189 0.918098
O O6 0.874299 0.583251 0.891420
O O7 0.793903 0.417921 0.930978
O O8 0.885440 0.520730 0.000000
O O9 0.406282 0.323918 0.097250
O O10 0.532750 0.239307 0.132975
O O11 0.932455 0.912996 0.500000
O O12 0.850563 0.022342 0.572153
O O13 0.000000 0.000000 0.586067
O O14 0.181277 0.217990 0.891650
O O15 0.194454 0.167555 0.000000
#
# Coordination Sequence:
#
# PCOD9527209 Si02
#       6
#    16  16  16  16  16  16
#     4   9  18  36  60  86 114 151 188 244 306 344
#     4  11  24  36  57  90 121 153 195 246 297 358
#     4  11  21  37  64  91 115 152 203 248 295 351
#     4  10  20  37  60  86 120 158 195 241 299 357
#     4  11  21  39  64  85 115 155 201 247 296 353
#     4  10  23  40  57  84 124 163 190 236 307 362
#
# _framework density 19.394811000000001
#
# number of rings (size 3 to 8) (size 9 to 14) (size 15 to 20)
#    0.000    1.667    3.333    1.500    2.333    2.667 
#    0.000    1.667    3.667    0.000    0.000    0.000 
#    0.000    0.000    0.000    0.000    0.000    0.000 
#
# Total GULP energy -268033.619856 kJ/mol
# GULP energy per Si atom -5584.033747 kJ/mol
# Density = 1.935067 g / cm^3
# Si number density = 19.394811 Si / 1000 Ang^3
#
#
#
# Elastic Constant Matrix: (Units=GPa)
#
#
# Indices 1 2 3 4 5 6 
#
# 1 27.2131 -3.7987 6.9025 0.0000 0.0000 0.0000
# 2 -3.7987 89.5928 50.2613 0.0000 0.0000 0.0000
# 3 6.9025 50.2613 99.8354 0.0000 0.0000 0.0000
# 4 0.0000 0.0000 0.0000 30.6282 0.0000 0.0000
# 5 0.0000 0.0000 0.0000 0.0000 20.6524 0.0000
# 6 0.0000 0.0000 0.0000 0.0000 0.0000 11.0196
#
#
#
# Elastic Compliance Matrix: (Units=1/GPa)
#
#
# Indices 1 2 3 4 5 6 
#
# 1 0.038591 0.004366 -0.004866 0.000000 0.000000 0.000000
# 2 0.004366 0.016049 -0.008381 0.000000 0.000000 0.000000
# 3 -0.004866 -0.008381 0.014573 0.000000 0.000000 0.000000
# 4 0.000000 0.000000 0.000000 0.032650 0.000000 0.000000
# 5 0.000000 0.000000 0.000000 0.000000 0.048420 0.000000
# 6 0.000000 0.000000 0.000000 0.000000 0.000000 0.090747
#
#
# Mechanical properties :
#
#
# Convention : Reuss Voigt Hill
#
# Bulk Modulus (GPa) = 19.43673 35.93016 27.68345
# Shear Modulus (GPa) = 18.11974 23.34512 20.73243
#
# Velocity S-wave (km/s) = 3.05988 3.47317 3.27305
# Velocity P-wave (km/s) = 4.74628 5.88640 5.34682
#
# Compressibility (1/GPa) = 0.05144897
#
# Stress axis : x y z
#
# Youngs Moduli (GPa) = 25.91292 62.31029 68.62233
#
# Poissons Ratio (x) = -0.27206 0.33393
# Poissons Ratio (y) = -0.11314 0.57516
# Poissons Ratio (z) = 0.12610 0.52225
#
# Static dielectric constant tensor:
#      x y z
#    x 1.700210 0.000000 0.000000 
#    y 0.000000 1.643760 0.000000 
#    z 0.000000 0.000000 1.686940 
# 
# From -- ./inp_files/39687.got.cif
#   From: 2010.05.17/outbox.cif.g08.bks.cpg/sg72_20_cif.got.tgz:39687.got - 2010.06.03 17:03:01.
