data_PCOD9527469
_publ_section_title
;
Structure prediction by ZEFSAII (Michael W. Deem and Ramdas Pophale) SiO2 
 PCOD9527469
Probable space group: I B A M
;
_chemical_formula_sum "Si O2"
_cell_formula_units_Z 44
_cell_length_a 29.216100
_cell_length_b 7.441135
_cell_length_c 9.379478
_cell_angle_alpha 90.000000
_cell_angle_beta 90.000000
_cell_angle_gamma 90.000000
_cell_volume 2039.107374
_symmetry_space_group_name_H-M "I B A M"
_symmetry_group_IT_number 72
_symmetry_cell_setting 'orthorhombic'
loop_
_space_group_symop_operation_xyz
x,y,z
-x,-y,z
x,-y,1/2-z
-x,y,1/2-z
-x,-y,-z
x,y,-z
-x,y,1/2+z
x,-y,1/2+z
1/2+x,1/2+y,1/2+z
1/2-x,1/2-y,1/2+z
1/2+x,1/2-y,-z
1/2-x,1/2+y,-z
1/2-x,1/2-y,1/2-z
1/2+x,1/2+y,1/2-z
1/2-x,1/2+y,z
1/2+x,1/2-y,z
loop_
_atom_site_type_symbol
_atom_site_label
_atom_site_fract_x
_atom_site_fract_y
_atom_site_fract_z
Si Si1 0.000000 0.500000 0.750000
Si Si2 0.925109 0.101142 0.000000
Si Si3 0.704848 0.818812 0.332771
Si Si4 0.361509 0.500000 0.750000
Si Si5 0.477743 0.772704 0.000000
O O1 0.030377 0.619901 0.644677
O O2 0.893310 0.102849 0.137322
O O3 0.967453 0.236711 0.000000
O O4 0.950161 0.908611 0.000000
O O5 0.714014 0.858018 0.500000
O O6 0.750000 0.750000 0.250000
O O7 0.669379 0.653583 0.322468
O O8 0.689492 0.000000 0.250000
#
# Coordination Sequence:
#
# PCOD9527469 Si02
#       5
#     4   8  16   8   8
#     4  10  20  40  68 104 124 172 240 288 332 428
#     4  11  24  46  68  96 140 192 228 288 346 433
#     4  12  27  47  75 103 141 188 235 293 365 428
#     4  12  26  47  68 107 144 184 244 292 352 420
#     4  10  22  44  70  96 140 186 228 280 366 402
#
# _framework density 21.578068999999999
#
# number of rings (size 3 to 8) (size 9 to 14) (size 15 to 20)
#    0.000    0.727    3.636    3.273    5.091    2.909 
#   19.636    0.000    0.000    0.000    0.000    0.000 
#    0.000    0.000    0.000    0.000    0.000    0.000 
#
# Total GULP energy -123039.876831 kJ/mol
# GULP energy per Si atom -5592.721674 kJ/mol
# Density = 2.152896 g / cm^3
# Si number density = 21.578069 Si / 1000 Ang^3
#
#
#
# Elastic Constant Matrix: (Units=GPa)
#
#
# Indices 1 2 3 4 5 6 
#
# 1 84.2786 11.3465 34.9882 0.0000 0.0000 0.0000
# 2 11.3465 105.1683 35.6190 0.0000 0.0000 0.0000
# 3 34.9882 35.6190 184.3377 0.0000 0.0000 0.0000
# 4 0.0000 0.0000 0.0000 36.6650 0.0000 0.0000
# 5 0.0000 0.0000 0.0000 0.0000 23.9232 0.0000
# 6 0.0000 0.0000 0.0000 0.0000 0.0000 3.2313
#
#
#
# Elastic Compliance Matrix: (Units=1/GPa)
#
#
# Indices 1 2 3 4 5 6 
#
# 1 0.012916 -0.000603 -0.002335 0.000000 0.000000 0.000000
# 2 -0.000603 0.010203 -0.001857 0.000000 0.000000 0.000000
# 3 -0.002335 -0.001857 0.006227 0.000000 0.000000 0.000000
# 4 0.000000 0.000000 0.000000 0.027274 0.000000 0.000000
# 5 0.000000 0.000000 0.000000 0.000000 0.041800 0.000000
# 6 0.000000 0.000000 0.000000 0.000000 0.000000 0.309473
#
#
# Mechanical properties :
#
#
# Convention : Reuss Voigt Hill
#
# Bulk Modulus (GPa) = 50.61784 59.74358 55.18071
# Shear Modulus (GPa) = 11.79059 32.21928 22.00493
#
# Velocity S-wave (km/s) = 2.34009 3.86832 3.19687
# Velocity P-wave (km/s) = 5.55070 6.90646 6.26536
#
# Compressibility (1/GPa) = 0.01975588
#
# Stress axis : x y z
#
# Youngs Moduli (GPa) = 77.42370 98.01491 160.59456
#
# Poissons Ratio (x) = 0.05907 0.37500
# Poissons Ratio (y) = 0.04666 0.29823
# Poissons Ratio (z) = 0.18079 0.18202
#
# Static dielectric constant tensor:
#      x y z
#    x 1.758500 0.000000 0.000000 
#    y 0.000000 1.776460 0.000000 
#    z 0.000000 0.000000 1.763030 
# 
# From -- ./inp_files/1716.got.cif
#   From: 2010.05.17/outbox.cif.g08.bks.cpg/sg72_1_cif.got.tgz:1716.got - 2010.06.03 17:03:01.
