data_PCOD9527797
_publ_section_title
;
Structure prediction by ZEFSAII (Michael W. Deem and Ramdas Pophale) SiO2 
 PCOD9527797
Probable space group: I B A M
;
_chemical_formula_sum "Si O2"
_cell_formula_units_Z 72
_cell_length_a 8.962151
_cell_length_b 19.970141
_cell_length_c 19.399382
_cell_angle_alpha 90.000000
_cell_angle_beta 90.000000
_cell_angle_gamma 90.000000
_cell_volume 3472.012524
_symmetry_space_group_name_H-M "I B A M"
_symmetry_group_IT_number 72
_symmetry_cell_setting 'orthorhombic'
loop_
_space_group_symop_operation_xyz
x,y,z
-x,-y,z
x,-y,1/2-z
-x,y,1/2-z
-x,-y,-z
x,y,-z
-x,y,1/2+z
x,-y,1/2+z
1/2+x,1/2+y,1/2+z
1/2-x,1/2-y,1/2+z
1/2+x,1/2-y,-z
1/2-x,1/2+y,-z
1/2-x,1/2-y,1/2-z
1/2+x,1/2+y,1/2-z
1/2-x,1/2+y,z
1/2+x,1/2-y,z
loop_
_atom_site_type_symbol
_atom_site_label
_atom_site_fract_x
_atom_site_fract_y
_atom_site_fract_z
Si Si1 0.500000 0.000000 0.129976
Si Si2 0.337517 0.188457 0.282696
Si Si3 0.320231 0.871820 0.923026
Si Si4 0.479759 0.419997 0.423915
Si Si5 0.718370 0.562919 0.293088
O O1 0.586396 0.059385 0.089809
O O2 0.373766 0.036397 0.175032
O O3 0.500000 0.186837 0.250000
O O4 0.250000 0.250000 0.250000
O O5 0.353783 0.182807 0.364759
O O6 0.251529 0.121474 0.260150
O O7 0.144360 0.889150 0.918086
O O8 0.352967 0.848113 0.000000
O O9 0.500000 0.500000 0.425196
O O10 0.416712 0.400723 0.500000
O O11 0.379269 0.409096 0.356513
O O12 0.656587 0.500000 0.250000
#
# Coordination Sequence:
#
# PCOD9527797 Si02
#       5
#     8  16  16  16  16
#     4  12  20  40  68 100 132 172 218 290 336 390
#     4  12  27  47  68  97 135 177 226 274 333 409
#     4  11  24  43  68  98 135 175 222 279 341 402
#     4  10  21  37  59  98 137 167 209 267 336 398
#     4  12  22  41  68  97 133 169 227 278 330 395
#
# _framework density 20.737252000000002
#
# number of rings (size 3 to 8) (size 9 to 14) (size 15 to 20)
#    0.000    0.667    6.667    0.667    3.111    3.111 
#    0.000    2.222    0.000    0.000    0.000    0.000 
#    0.000    0.000    0.000    0.000    0.000    0.000 
#
# Total GULP energy -201242.349363 kJ/mol
# GULP energy per Si atom -5590.065260 kJ/mol
# Density = 2.069005 g / cm^3
# Si number density = 20.737252 Si / 1000 Ang^3
#
#
#
# Elastic Constant Matrix: (Units=GPa)
#
#
# Indices 1 2 3 4 5 6 
#
# 1 83.0689 13.6343 55.3694 0.0000 0.0000 0.0000
# 2 13.6343 80.5709 38.3003 0.0000 0.0000 0.0000
# 3 55.3694 38.3003 197.3251 0.0000 0.0000 0.0000
# 4 0.0000 0.0000 0.0000 7.9998 0.0000 0.0000
# 5 0.0000 0.0000 0.0000 0.0000 29.9739 0.0000
# 6 0.0000 0.0000 0.0000 0.0000 0.0000 6.5807
#
#
#
# Elastic Compliance Matrix: (Units=1/GPa)
#
#
# Indices 1 2 3 4 5 6 
#
# 1 0.014833 -0.000586 -0.004048 0.000000 0.000000 0.000000
# 2 -0.000586 0.013696 -0.002494 0.000000 0.000000 0.000000
# 3 -0.004048 -0.002494 0.006688 0.000000 0.000000 0.000000
# 4 0.000000 0.000000 0.000000 0.125003 0.000000 0.000000
# 5 0.000000 0.000000 0.000000 0.000000 0.033362 0.000000
# 6 0.000000 0.000000 0.000000 0.000000 0.000000 0.151960
#
#
# Mechanical properties :
#
#
# Convention : Reuss Voigt Hill
#
# Bulk Modulus (GPa) = 47.70847 63.95256 55.83052
# Shear Modulus (GPa) = 13.63197 25.82161 19.72679
#
# Velocity S-wave (km/s) = 2.56670 3.53254 3.08762
# Velocity P-wave (km/s) = 5.64270 6.89528 6.30019
#
# Compressibility (1/GPa) = 0.02096064
#
# Stress axis : x y z
#
# Youngs Moduli (GPa) = 67.41831 73.01345 149.52466
#
# Poissons Ratio (x) = 0.04275 0.60534
# Poissons Ratio (y) = 0.03948 0.37293
# Poissons Ratio (z) = 0.27294 0.18210
#
# Static dielectric constant tensor:
#      x y z
#    x 1.726140 0.000000 0.000000 
#    y 0.000000 1.715490 0.000000 
#    z 0.000000 0.000000 1.800170 
# 
# From -- ./inp_files/35637.got.cif
#   From: 2010.05.17/outbox.cif.g08.bks.cpg/sg72_18_cif.got.tgz:35637.got - 2010.06.03 17:03:01.
