data_PCOD9527790
_publ_section_title
;
Structure prediction by ZEFSAII (Michael W. Deem and Ramdas Pophale) SiO2 
 PCOD9527790
Probable space group: I B A M
;
_chemical_formula_sum "Si O2"
_cell_formula_units_Z 80
_cell_length_a 16.972399
_cell_length_b 9.424597
_cell_length_c 24.420051
_cell_angle_alpha 90.000000
_cell_angle_beta 90.000000
_cell_angle_gamma 90.000000
_cell_volume 3906.183023
_symmetry_space_group_name_H-M "I B A M"
_symmetry_group_IT_number 72
_symmetry_cell_setting 'orthorhombic'
loop_
_space_group_symop_operation_xyz
x,y,z
-x,-y,z
x,-y,1/2-z
-x,y,1/2-z
-x,-y,-z
x,y,-z
-x,y,1/2+z
x,-y,1/2+z
1/2+x,1/2+y,1/2+z
1/2-x,1/2-y,1/2+z
1/2+x,1/2-y,-z
1/2-x,1/2+y,-z
1/2-x,1/2-y,1/2-z
1/2+x,1/2+y,1/2-z
1/2-x,1/2+y,z
1/2+x,1/2-y,z
loop_
_atom_site_type_symbol
_atom_site_label
_atom_site_fract_x
_atom_site_fract_y
_atom_site_fract_z
Si Si1 0.177845 0.984961 0.831201
Si Si2 0.166039 0.345231 0.700213
Si Si3 0.572093 0.731527 0.707565
Si Si4 0.915285 0.926891 0.563004
Si Si5 0.030786 0.356327 0.386126
O O1 0.257097 0.066478 0.814861
O O2 0.110212 0.079302 0.803131
O O3 0.180466 0.822421 0.812060
O O4 0.151420 0.978913 0.894821
O O5 0.133653 0.337565 0.762423
O O6 0.096499 0.391771 0.659552
O O7 0.500000 0.720450 0.750000
O O8 0.539152 0.787825 0.650125
O O9 0.894744 0.953111 0.500000
O O10 0.932098 0.761136 0.574664
O O11 0.000000 0.000000 0.574504
O O12 0.000000 0.500000 0.412942
#
# Coordination Sequence:
#
# PCOD9527790 Si02
#       5
#    16  16  16  16  16
#     4  11  22  40  58  88 127 161 206 266 307 380
#     4  10  24  36  60  88 126 168 209 243 317 382
#     4  10  21  37  59  87 126 173 210 249 310 379
#     4  10  21  40  68  91 113 158 211 263 323 373
#     4  10  22  40  63  89 127 158 209 264 310 374
#
# _framework density 20.480350999999999
#
# number of rings (size 3 to 8) (size 9 to 14) (size 15 to 20)
#    0.000    1.800    2.000    1.200    2.800    8.000 
#    0.000    4.000    0.000    0.000    0.000    0.000 
#    0.000    0.000    0.000    0.000    0.000    0.000 
#
# Total GULP energy -223614.055919 kJ/mol
# GULP energy per Si atom -5590.351398 kJ/mol
# Density = 2.043374 g / cm^3
# Si number density = 20.480351 Si / 1000 Ang^3
#
#
#
# Elastic Constant Matrix: (Units=GPa)
#
#
# Indices 1 2 3 4 5 6 
#
# 1 98.0664 41.0222 38.3800 0.0000 0.0000 0.0000
# 2 41.0222 100.2455 13.2628 0.0000 0.0000 0.0000
# 3 38.3800 13.2628 88.7079 0.0000 0.0000 0.0000
# 4 0.0000 0.0000 0.0000 18.6769 0.0000 0.0000
# 5 0.0000 0.0000 0.0000 0.0000 23.9372 0.0000
# 6 0.0000 0.0000 0.0000 0.0000 0.0000 30.1195
#
#
#
# Elastic Compliance Matrix: (Units=1/GPa)
#
#
# Indices 1 2 3 4 5 6 
#
# 1 0.014537 -0.005220 -0.005509 0.000000 0.000000 0.000000
# 2 -0.005220 0.012051 0.000457 0.000000 0.000000 0.000000
# 3 -0.005509 0.000457 0.013588 0.000000 0.000000 0.000000
# 4 0.000000 0.000000 0.000000 0.053542 0.000000 0.000000
# 5 0.000000 0.000000 0.000000 0.000000 0.041776 0.000000
# 6 0.000000 0.000000 0.000000 0.000000 0.000000 0.033201
#
#
# Mechanical properties :
#
#
# Convention : Reuss Voigt Hill
#
# Bulk Modulus (GPa) = 50.93812 52.48330 51.71071
# Shear Modulus (GPa) = 25.53845 27.50372 26.52108
#
# Velocity S-wave (km/s) = 3.53508 3.66858 3.60245
# Velocity P-wave (km/s) = 6.44888 6.60503 6.52742
#
# Compressibility (1/GPa) = 0.01963166
#
# Stress axis : x y z
#
# Youngs Moduli (GPa) = 68.79139 82.97975 73.59340
#
# Poissons Ratio (x) = 0.43314 0.40542
# Poissons Ratio (y) = 0.35908 -0.03360
# Poissons Ratio (z) = 0.37897 -0.03789
#
# Static dielectric constant tensor:
#      x y z
#    x 1.746870 0.000000 0.000000 
#    y 0.000000 1.770280 0.000000 
#    z 0.000000 0.000000 1.716660 
# 
# From -- ./inp_files/47201.got.cif
#   From: 2010.05.17/outbox.cif.g08.bks.cpg/sg72_24_cif.got.tgz:47201.got - 2010.06.03 17:03:01.
