data_PCOD9527986
_publ_section_title
;
Structure prediction by ZEFSAII (Michael W. Deem and Ramdas Pophale) SiO2 
 PCOD9527986
Probable space group: I B A M
;
_chemical_formula_sum "Si O2"
_cell_formula_units_Z 112
_cell_length_a 25.853063
_cell_length_b 12.649693
_cell_length_c 14.715102
_cell_angle_alpha 90.000000
_cell_angle_beta 90.000000
_cell_angle_gamma 90.000000
_cell_volume 4812.328515
_symmetry_space_group_name_H-M "I B A M"
_symmetry_group_IT_number 72
_symmetry_cell_setting 'orthorhombic'
loop_
_space_group_symop_operation_xyz
x,y,z
-x,-y,z
x,-y,1/2-z
-x,y,1/2-z
-x,-y,-z
x,y,-z
-x,y,1/2+z
x,-y,1/2+z
1/2+x,1/2+y,1/2+z
1/2-x,1/2-y,1/2+z
1/2+x,1/2-y,-z
1/2-x,1/2+y,-z
1/2-x,1/2-y,1/2-z
1/2+x,1/2+y,1/2-z
1/2-x,1/2+y,z
1/2+x,1/2-y,z
loop_
_atom_site_type_symbol
_atom_site_label
_atom_site_fract_x
_atom_site_fract_y
_atom_site_fract_z
Si Si1 0.207687 0.116469 0.902786
Si Si2 0.918227 0.504104 0.890876
Si Si3 0.883400 0.055972 0.896684
Si Si4 0.146393 0.776508 0.255832
Si Si5 0.559426 0.349187 0.109737
Si Si6 0.311539 0.937213 0.670308
Si Si7 0.993175 0.670279 0.390286
O O1 0.195798 0.182931 0.813060
O O2 0.267468 0.085525 0.901539
O O3 0.168251 0.017446 0.897974
O O4 0.196151 0.170670 0.000000
O O5 0.859642 0.509796 0.859631
O O6 0.958523 0.595044 0.863698
O O7 0.943021 0.392580 0.857999
O O8 0.918087 0.504245 0.000000
O O9 0.873633 0.144503 0.822467
O O10 0.929169 0.972490 0.873149
O O11 0.891801 0.096234 0.000000
O O12 0.102577 0.784631 0.334071
O O13 0.163204 0.669331 0.208168
O O14 0.505884 0.290651 0.134875
O O15 0.566295 0.336844 0.000000
O O16 0.283228 0.000000 0.750000
O O17 0.990419 0.668235 0.500000
#
# Coordination Sequence:
#
# PCOD9527986 Si02
#       7
#    16  16  16  16  16  16  16
#     4  10  21  39  60  82 108 144 189 238 287 341
#     4   9  18  34  53  77 111 153 195 235 285 346
#     4   9  19  35  58  84 113 150 190 231 286 348
#     4  11  21  36  56  81 115 151 186 232 287 348
#     4   9  16  31  57  85 107 139 189 239 283 334
#     4  12  24  36  51  80 116 152 189 235 284 340
#     4   8  15  31  57  82 109 147 192 241 290 338
#
# _framework density 23.273555999999999
#
# number of rings (size 3 to 8) (size 9 to 14) (size 15 to 20)
#    0.000    2.286    0.000    6.429    0.000    1.143 
#    0.000    8.571    0.000    0.857    0.000    8.000 
#    0.000    0.000    0.000    1.429    0.000    1.143 
#
# Total GULP energy -312621.335961 kJ/mol
# GULP energy per Si atom -5582.523856 kJ/mol
# Density = 2.322058 g / cm^3
# Si number density = 23.273556 Si / 1000 Ang^3
#
#
#
# Elastic Constant Matrix: (Units=GPa)
#
#
# Indices 1 2 3 4 5 6 
#
# 1 63.7281 12.2531 9.2466 0.0000 0.0000 0.0000
# 2 12.2531 83.0239 36.2120 0.0000 0.0000 0.0000
# 3 9.2466 36.2120 100.6231 0.0000 0.0000 0.0000
# 4 0.0000 0.0000 0.0000 8.6758 0.0000 0.0000
# 5 0.0000 0.0000 0.0000 0.0000 8.6400 0.0000
# 6 0.0000 0.0000 0.0000 0.0000 0.0000 24.6797
#
#
#
# Elastic Compliance Matrix: (Units=1/GPa)
#
#
# Indices 1 2 3 4 5 6 
#
# 1 0.016197 -0.002065 -0.000745 0.000000 0.000000 0.000000
# 2 -0.002065 0.014551 -0.005047 0.000000 0.000000 0.000000
# 3 -0.000745 -0.005047 0.011823 0.000000 0.000000 0.000000
# 4 0.000000 0.000000 0.000000 0.115263 0.000000 0.000000
# 5 0.000000 0.000000 0.000000 0.000000 0.115741 0.000000
# 6 0.000000 0.000000 0.000000 0.000000 0.000000 0.040519
#
#
# Mechanical properties :
#
#
# Convention : Reuss Voigt Hill
#
# Bulk Modulus (GPa) = 37.23570 40.31095 38.77333
# Shear Modulus (GPa) = 14.75970 21.04331 17.90150
#
# Velocity S-wave (km/s) = 2.52103 3.01021 2.77641
# Velocity P-wave (km/s) = 4.95056 5.42585 5.19365
#
# Compressibility (1/GPa) = 0.02685595
#
# Stress axis : x y z
#
# Youngs Moduli (GPa) = 61.74017 68.72505 84.58285
#
# Poissons Ratio (x) = 0.14195 0.06302
# Poissons Ratio (y) = 0.12752 0.42686
# Poissons Ratio (z) = 0.04600 0.34683
#
# Static dielectric constant tensor:
#      x y z
#    x 1.883830 0.000000 0.000000 
#    y 0.000000 1.884090 0.000000 
#    z 0.000000 0.000000 1.864690 
# 
# From -- ./inp_files/26400.got.cif
#   From: 2010.05.17/outbox.cif.g08.bks.cpg/sg72_14_cif.got.tgz:26400.got - 2010.06.03 17:03:01.
