data_PCOD9527941
_publ_section_title
;
Structure prediction by ZEFSAII (Michael W. Deem and Ramdas Pophale) SiO2 
 PCOD9527941
Probable space group: I B A M
;
_chemical_formula_sum "Si O2"
_cell_formula_units_Z 116
_cell_length_a 21.650204
_cell_length_b 27.856794
_cell_length_c 8.898977
_cell_angle_alpha 90.000000
_cell_angle_beta 90.000000
_cell_angle_gamma 90.000000
_cell_volume 5367.019952
_symmetry_space_group_name_H-M "I B A M"
_symmetry_group_IT_number 72
_symmetry_cell_setting 'orthorhombic'
loop_
_space_group_symop_operation_xyz
x,y,z
-x,-y,z
x,-y,1/2-z
-x,y,1/2-z
-x,-y,-z
x,y,-z
-x,y,1/2+z
x,-y,1/2+z
1/2+x,1/2+y,1/2+z
1/2-x,1/2-y,1/2+z
1/2+x,1/2-y,-z
1/2-x,1/2+y,-z
1/2-x,1/2-y,1/2-z
1/2+x,1/2+y,1/2-z
1/2-x,1/2+y,z
1/2+x,1/2-y,z
loop_
_atom_site_type_symbol
_atom_site_label
_atom_site_fract_x
_atom_site_fract_y
_atom_site_fract_z
Si Si1 0.592245 0.187156 0.337146
Si Si2 0.847539 0.949846 0.820626
Si Si3 0.738956 0.801788 0.829725
Si Si4 0.232161 0.403990 0.178612
Si Si5 0.569040 0.367602 0.320487
Si Si6 0.565733 0.276945 0.172226
Si Si7 0.602261 0.920746 0.830304
Si Si8 0.500000 0.000000 0.250000
O O1 0.566105 0.204166 0.500000
O O2 0.665686 0.191119 0.350139
O O3 0.580902 0.221959 0.199081
O O4 0.573051 0.132420 0.313581
O O5 0.851557 0.050344 0.500000
O O6 0.778107 0.938890 0.766516
O O7 0.890227 0.909407 0.747899
O O8 0.867303 0.000000 0.750000
O O9 0.750000 0.750000 0.750000
O O10 0.751442 0.850096 0.733707
O O11 0.766968 0.802127 0.000000
O O12 0.161567 0.419008 0.220684
O O13 0.240359 0.407124 0.000000
O O14 0.500000 0.372446 0.250000
O O15 0.565460 0.368667 0.500000
O O16 0.600981 0.317433 0.266462
O O17 0.500000 0.279865 0.250000
O O18 0.565751 0.290407 0.000000
O O19 0.550236 0.961935 0.817871
O O20 0.627894 0.922732 0.000000
#
# Coordination Sequence:
#
# PCOD9527941 Si02
#       8
#    16  16  16  16  16  16  16   4
#     4   9  20  39  60  87 126 171 216 273 335 399
#     4  12  26  46  71 101 134 176 228 280 340 401
#     4  10  21  38  62  94 133 174 219 272 334 402
#     4  11  24  44  69  98 135 179 227 283 344 411
#     4  11  23  43  68  99 138 178 225 276 332 397
#     4  11  22  37  60  91 126 170 215 265 327 393
#     4  10  24  46  68  96 134 174 225 286 348 413
#     4  12  26  44  76 110 134 180 238 290 368 424
#
# _framework density 21.613485000000001
#
# number of rings (size 3 to 8) (size 9 to 14) (size 15 to 20)
#    0.000    1.379    0.000    7.241    3.862    4.138 
#    0.000    1.379    0.000    0.000    0.000    0.000 
#    0.000    0.000    0.000    0.000    0.000    0.000 
#
# Total GULP energy -323445.997907 kJ/mol
# GULP energy per Si atom -5576.655136 kJ/mol
# Density = 2.156429 g / cm^3
# Si number density = 21.613485 Si / 1000 Ang^3
#
#
#
# Elastic Constant Matrix: (Units=GPa)
#
#
# Indices 1 2 3 4 5 6 
#
# 1 56.0777 19.3147 26.4517 0.0000 0.0000 0.0000
# 2 19.3147 137.2835 56.9585 0.0000 0.0000 0.0000
# 3 26.4517 56.9585 196.6565 0.0000 0.0000 0.0000
# 4 0.0000 0.0000 0.0000 26.3183 0.0000 0.0000
# 5 0.0000 0.0000 0.0000 0.0000 22.3292 0.0000
# 6 0.0000 0.0000 0.0000 0.0000 0.0000 30.6750
#
#
#
# Elastic Compliance Matrix: (Units=1/GPa)
#
#
# Indices 1 2 3 4 5 6 
#
# 1 0.019457 -0.001877 -0.002073 0.000000 0.000000 0.000000
# 2 -0.001877 0.008460 -0.002198 0.000000 0.000000 0.000000
# 3 -0.002073 -0.002198 0.006000 0.000000 0.000000 0.000000
# 4 0.000000 0.000000 0.000000 0.037996 0.000000 0.000000
# 5 0.000000 0.000000 0.000000 0.000000 0.044784 0.000000
# 6 0.000000 0.000000 0.000000 0.000000 0.000000 0.032600
#
#
# Mechanical properties :
#
#
# Convention : Reuss Voigt Hill
#
# Bulk Modulus (GPa) = 46.25192 66.16306 56.20749
# Shear Modulus (GPa) = 29.62049 35.01735 32.31892
#
# Velocity S-wave (km/s) = 3.70599 4.02949 3.87112
# Velocity P-wave (km/s) = 6.30544 7.23377 6.78550
#
# Compressibility (1/GPa) = 0.02162072
#
# Stress axis : x y z
#
# Youngs Moduli (GPa) = 51.39542 118.20059 166.65343
#
# Poissons Ratio (x) = 0.22188 0.34554
# Poissons Ratio (y) = 0.09648 0.36628
# Poissons Ratio (z) = 0.10656 0.25979
#
# Static dielectric constant tensor:
#      x y z
#    x 1.811070 0.000000 0.000000 
#    y 0.000000 2.082200 0.000000 
#    z 0.000000 0.000000 1.852420 
# 
# From -- ./inp_files/7279.got.cif
#   From: 2010.05.17/outbox.cif.g08.bks.cpg/sg72_4_cif.got.tgz:7279.got - 2010.06.03 17:03:01.
