data_PCOD9527468
_publ_section_title
;
Structure prediction by ZEFSAII (Michael W. Deem and Ramdas Pophale) SiO2 
 PCOD9527468
Probable space group: I B A M
;
_chemical_formula_sum "Si O2"
_cell_formula_units_Z 84
_cell_length_a 19.031434
_cell_length_b 12.344362
_cell_length_c 14.519212
_cell_angle_alpha 90.000000
_cell_angle_beta 90.000000
_cell_angle_gamma 90.000000
_cell_volume 3411.011697
_symmetry_space_group_name_H-M "I B A M"
_symmetry_group_IT_number 72
_symmetry_cell_setting 'orthorhombic'
loop_
_space_group_symop_operation_xyz
x,y,z
-x,-y,z
x,-y,1/2-z
-x,y,1/2-z
-x,-y,-z
x,y,-z
-x,y,1/2+z
x,-y,1/2+z
1/2+x,1/2+y,1/2+z
1/2-x,1/2-y,1/2+z
1/2+x,1/2-y,-z
1/2-x,1/2+y,-z
1/2-x,1/2-y,1/2-z
1/2+x,1/2+y,1/2-z
1/2-x,1/2+y,z
1/2+x,1/2-y,z
loop_
_atom_site_type_symbol
_atom_site_label
_atom_site_fract_x
_atom_site_fract_y
_atom_site_fract_z
Si Si1 0.516700 0.807556 0.348852
Si Si2 0.273058 0.114480 0.780773
Si Si3 0.625081 0.628280 0.611234
Si Si4 0.500000 0.000000 0.500000
Si Si5 0.934759 0.907637 0.605489
Si Si6 0.209242 0.792315 0.103187
O O1 0.500000 0.855006 0.250000
O O2 0.591011 0.744577 0.365588
O O3 0.466291 0.700483 0.351594
O O4 0.505179 0.902203 0.421477
O O5 0.196329 0.106252 0.831363
O O6 0.262194 0.173787 0.683205
O O7 0.318085 0.178118 0.856581
O O8 0.301526 0.000000 0.750000
O O9 0.635499 0.619553 0.500000
O O10 0.568923 0.532824 0.638062
O O11 0.960067 0.904023 0.500000
O O12 0.851634 0.879708 0.602775
O O13 0.237299 0.781307 0.000000
#
# Coordination Sequence:
#
# PCOD9527468 Si02
#       6
#    16  16  16   4  16  16
#     4  12  25  42  72  98 133 185 230 283 345 413
#     4  11  22  39  65  99 137 177 223 283 335 420
#     4  11  22  40  70 108 139 172 220 291 357 411
#     4  12  26  52  58  90 140 184 230 282 324 412
#     4  10  20  40  68 100 140 171 220 286 352 407
#     4  10  22  39  62  92 134 182 216 276 347 401
#
# _framework density 24.626125999999999
#
# number of rings (size 3 to 8) (size 9 to 14) (size 15 to 20)
#    0.000    1.143    3.810    2.571    0.000    3.048 
#    0.000    5.714    0.000    0.000    0.000    0.000 
#    0.000    0.000    0.000    0.000    0.000    0.000 
#
# Total GULP energy -233996.311767 kJ/mol
# GULP energy per Si atom -5571.340756 kJ/mol
# Density = 2.457008 g / cm^3
# Si number density = 24.626126 Si / 1000 Ang^3
#
#
#
# Elastic Constant Matrix: (Units=GPa)
#
#
# Indices 1 2 3 4 5 6 
#
# 1 47.0021 16.2756 8.2022 0.0000 0.0000 0.0000
# 2 16.2756 174.6025 69.3046 0.0000 0.0000 0.0000
# 3 8.2022 69.3046 209.1759 0.0000 0.0000 0.0000
# 4 0.0000 0.0000 0.0000 31.9005 0.0000 0.0000
# 5 0.0000 0.0000 0.0000 0.0000 20.5413 0.0000
# 6 0.0000 0.0000 0.0000 0.0000 0.0000 32.7840
#
#
#
# Elastic Compliance Matrix: (Units=1/GPa)
#
#
# Indices 1 2 3 4 5 6 
#
# 1 0.021993 -0.001966 -0.000211 0.000000 0.000000 0.000000
# 2 -0.001966 0.006770 -0.002166 0.000000 0.000000 0.000000
# 3 -0.000211 -0.002166 0.005507 0.000000 0.000000 0.000000
# 4 0.000000 0.000000 0.000000 0.031347 0.000000 0.000000
# 5 0.000000 0.000000 0.000000 0.000000 0.048682 0.000000
# 6 0.000000 0.000000 0.000000 0.000000 0.000000 0.030503
#
#
# Mechanical properties :
#
#
# Convention : Reuss Voigt Hill
#
# Bulk Modulus (GPa) = 39.08752 68.70504 53.89628
# Shear Modulus (GPa) = 30.86088 39.51170 35.18629
#
# Velocity S-wave (km/s) = 3.54386 4.00992 3.78407
# Velocity P-wave (km/s) = 5.71420 7.02845 6.40512
#
# Compressibility (1/GPa) = 0.02558361
#
# Stress axis : x y z
#
# Youngs Moduli (GPa) = 45.46824 147.70246 181.60021
#
# Poissons Ratio (x) = 0.29044 0.03830
# Poissons Ratio (y) = 0.08941 0.39336
# Poissons Ratio (z) = 0.00959 0.31993
#
# Static dielectric constant tensor:
#      x y z
#    x 2.095100 0.000000 0.000000 
#    y 0.000000 2.145620 0.000000 
#    z 0.000000 0.000000 1.906760 
# 
# From -- ./inp_files/25013.got.cif
#   From: 2010.05.17/outbox.cif.g08.bks.cpg/sg72_13_cif.got.tgz:25013.got - 2010.06.03 17:03:01.
