data_PCOD9527901
_publ_section_title
;
Structure prediction by ZEFSAII (Michael W. Deem and Ramdas Pophale) SiO2 
 PCOD9527901
Probable space group: I B A M
;
_chemical_formula_sum "Si O2"
_cell_formula_units_Z 80
_cell_length_a 24.883146
_cell_length_b 9.616083
_cell_length_c 14.334857
_cell_angle_alpha 90.000000
_cell_angle_beta 90.000000
_cell_angle_gamma 90.000000
_cell_volume 3430.021608
_symmetry_space_group_name_H-M "I B A M"
_symmetry_group_IT_number 72
_symmetry_cell_setting 'orthorhombic'
loop_
_space_group_symop_operation_xyz
x,y,z
-x,-y,z
x,-y,1/2-z
-x,y,1/2-z
-x,-y,-z
x,y,-z
-x,y,1/2+z
x,-y,1/2+z
1/2+x,1/2+y,1/2+z
1/2-x,1/2-y,1/2+z
1/2+x,1/2-y,-z
1/2-x,1/2+y,-z
1/2-x,1/2-y,1/2-z
1/2+x,1/2+y,1/2-z
1/2-x,1/2+y,z
1/2+x,1/2-y,z
loop_
_atom_site_type_symbol
_atom_site_label
_atom_site_fract_x
_atom_site_fract_y
_atom_site_fract_z
Si Si1 0.348665 0.530319 0.392110
Si Si2 0.134676 0.332234 0.605790
Si Si3 0.257489 0.884309 0.685176
Si Si4 0.942652 0.426281 0.608093
Si Si5 0.038890 0.122145 0.108653
O O1 0.333525 0.557945 0.500000
O O2 0.366048 0.678987 0.348306
O O3 0.298518 0.449492 0.348398
O O4 0.401373 0.437985 0.391004
O O5 0.113437 0.315514 0.500000
O O6 0.198444 0.361118 0.606202
O O7 0.100251 0.460681 0.645181
O O8 0.250000 0.750000 0.750000
O O9 0.283918 0.000000 0.750000
O O10 0.924819 0.398116 0.500000
O O11 0.954569 0.275341 0.652366
O O12 0.000000 0.500000 0.606730
O O13 0.020453 0.143351 0.000000
O O14 0.000000 0.000000 0.145661
#
# Coordination Sequence:
#
# PCOD9527901 Si02
#       5
#    16  16  16  16  16
#     4  10  21  38  60  87 119 155 199 248 298 357
#     4  10  21  38  60  87 119 155 199 249 298 357
#     4  12  25  42  59  84 118 162 203 247 301 359
#     4   9  17  30  53  86 119 150 188 239 296 350
#     4   9  17  30  53  86 119 150 188 239 296 351
#
# _framework density 23.323467999999998
#
# number of rings (size 3 to 8) (size 9 to 14) (size 15 to 20)
#    0.000    2.000    2.000    1.800    2.800    4.800 
#    0.000    0.000    0.000    1.200    0.000    0.000 
#    0.000    0.000    0.000    0.000    0.000    0.000 
#
# Total GULP energy -223101.099905 kJ/mol
# GULP energy per Si atom -5577.527498 kJ/mol
# Density = 2.327038 g / cm^3
# Si number density = 23.323468 Si / 1000 Ang^3
#
#
#
# Elastic Constant Matrix: (Units=GPa)
#
#
# Indices 1 2 3 4 5 6 
#
# 1 121.2465 67.4877 17.4668 0.0000 0.0000 0.0000
# 2 67.4877 225.7353 23.4377 0.0000 0.0000 0.0000
# 3 17.4668 23.4377 55.3233 0.0000 0.0000 0.0000
# 4 0.0000 0.0000 0.0000 9.2679 0.0000 0.0000
# 5 0.0000 0.0000 0.0000 0.0000 -5.7599 0.0000
# 6 0.0000 0.0000 0.0000 0.0000 0.0000 46.7743
#
#
#
# Elastic Compliance Matrix: (Units=1/GPa)
#
#
# Indices 1 2 3 4 5 6 
#
# 1 0.010101 -0.002812 -0.001998 0.000000 0.000000 0.000000
# 2 -0.002812 0.005417 -0.001407 0.000000 0.000000 0.000000
# 3 -0.001998 -0.001407 0.019302 0.000000 0.000000 0.000000
# 4 0.000000 0.000000 0.000000 0.107899 0.000000 0.000000
# 5 0.000000 0.000000 0.000000 0.000000 -0.173614 0.000000
# 6 0.000000 0.000000 0.000000 0.000000 0.000000 0.021379
#
#
# Mechanical properties :
#
#
# Convention : Reuss Voigt Hill
#
# Bulk Modulus (GPa) = 44.67039 68.78771 56.72905
# Shear Modulus (GPa) = 481.67077 29.65066 255.66072
#
# Velocity S-wave (km/s) = 14.38631 3.56937 10.48109
# Velocity P-wave (km/s) = 17.17989 6.82233 13.07082
#
# Compressibility (1/GPa) = 0.02238619
#
# Stress axis : x y z
#
# Youngs Moduli (GPa) = 99.00128 184.60836 51.80734
#
# Poissons Ratio (x) = 0.51920 0.10349
# Poissons Ratio (y) = 0.27843 0.07289
# Poissons Ratio (z) = 0.19776 0.25973
#
# Static dielectric constant tensor:
#      x y z
#    x 1.811540 0.000000 0.000000 
#    y 0.000000 1.930930 0.000000 
#    z 0.000000 0.000000 1.973930 
# 
# From -- ./inp_files/33750.got.cif
#   From: 2010.05.17/outbox.cif.g08.bks.cpg/sg72_17_cif.got.tgz:33750.got - 2010.06.03 17:03:01.
