data_PCOD9527906
_publ_section_title
;
Structure prediction by ZEFSAII (Michael W. Deem and Ramdas Pophale) SiO2 
 PCOD9527906
Probable space group: I B A M
;
_chemical_formula_sum "Si O2"
_cell_formula_units_Z 116
_cell_length_a 26.971862
_cell_length_b 24.178040
_cell_length_c 8.916304
_cell_angle_alpha 90.000000
_cell_angle_beta 90.000000
_cell_angle_gamma 90.000000
_cell_volume 5814.560424
_symmetry_space_group_name_H-M "I B A M"
_symmetry_group_IT_number 72
_symmetry_cell_setting 'orthorhombic'
loop_
_space_group_symop_operation_xyz
x,y,z
-x,-y,z
x,-y,1/2-z
-x,y,1/2-z
-x,-y,-z
x,y,-z
-x,y,1/2+z
x,-y,1/2+z
1/2+x,1/2+y,1/2+z
1/2-x,1/2-y,1/2+z
1/2+x,1/2-y,-z
1/2-x,1/2+y,-z
1/2-x,1/2-y,1/2-z
1/2+x,1/2+y,1/2-z
1/2-x,1/2+y,z
1/2+x,1/2-y,z
loop_
_atom_site_type_symbol
_atom_site_label
_atom_site_fract_x
_atom_site_fract_y
_atom_site_fract_z
Si Si1 0.403755 0.704450 0.179427
Si Si2 0.696106 0.256541 0.326587
Si Si3 0.949105 0.685823 0.323713
Si Si4 0.274654 0.940296 0.825305
Si Si5 0.076765 0.904160 0.827361
Si Si6 0.848088 0.632527 0.667066
Si Si7 0.178736 0.060717 0.821314
Si Si8 0.500000 0.500000 0.250000
O O1 0.346768 0.707453 0.243010
O O2 0.429661 0.760440 0.234999
O O3 0.435658 0.653777 0.248037
O O4 0.402004 0.700428 0.000000
O O5 0.701116 0.275378 0.500000
O O6 0.750000 0.250000 0.250000
O O7 0.673649 0.194560 0.328872
O O8 0.954631 0.699952 0.500000
O O9 0.906480 0.639886 0.313363
O O10 0.000000 0.667772 0.250000
O O11 0.322141 0.903504 0.792234
O O12 0.227700 0.910668 0.744836
O O13 0.282795 0.000000 0.750000
O O14 0.264009 0.946857 0.000000
O O15 0.126107 0.919586 0.736829
O O16 0.037879 0.955197 0.823486
O O17 0.088705 0.893473 0.000000
O O18 0.837107 0.609609 0.500000
O O19 0.182933 0.000000 0.750000
O O20 0.180007 0.060153 0.000000
#
# Coordination Sequence:
#
# PCOD9527906 Si02
#       8
#    16  16  16  16  16  16  16   4
#     4  11  24  41  62  89 122 161 207 256 314 378
#     4  10  21  38  60  89 127 164 204 253 312 378
#     4  10  21  40  65  92 124 160 203 252 305 364
#     4  11  22  37  61  91 125 165 206 250 301 362
#     4  12  26  45  66  88 118 155 207 264 324 384
#     4   9  20  38  59  87 124 162 202 250 303 364
#     4  11  22  39  61  85 116 153 199 248 304 366
#     4  12  30  48  72  90 122 160 214 280 342 388
#
# _framework density 19.949918
#
# number of rings (size 3 to 8) (size 9 to 14) (size 15 to 20)
#    0.000    1.379    0.690    6.828    2.897    4.966 
#    0.000    0.000    0.000    0.414    0.000    2.897 
#    0.000    0.000    0.000    0.000    0.000    0.000 
#
# Total GULP energy -323767.465334 kJ/mol
# GULP energy per Si atom -5582.197678 kJ/mol
# Density = 1.990451 g / cm^3
# Si number density = 19.949918 Si / 1000 Ang^3
#
#
#
# Elastic Constant Matrix: (Units=GPa)
#
#
# Indices 1 2 3 4 5 6 
#
# 1 115.6286 13.3571 58.0947 0.0000 0.0000 0.0000
# 2 13.3571 41.8230 28.3952 0.0000 0.0000 0.0000
# 3 58.0947 28.3952 192.9430 0.0000 0.0000 0.0000
# 4 0.0000 0.0000 0.0000 23.4002 0.0000 0.0000
# 5 0.0000 0.0000 0.0000 0.0000 7.0596 0.0000
# 6 0.0000 0.0000 0.0000 0.0000 0.0000 18.0612
#
#
#
# Elastic Compliance Matrix: (Units=1/GPa)
#
#
# Indices 1 2 3 4 5 6 
#
# 1 0.010254 -0.001309 -0.002895 0.000000 0.000000 0.000000
# 2 -0.001309 0.026732 -0.003540 0.000000 0.000000 0.000000
# 3 -0.002895 -0.003540 0.006575 0.000000 0.000000 0.000000
# 4 0.000000 0.000000 0.000000 0.042735 0.000000 0.000000
# 5 0.000000 0.000000 0.000000 0.000000 0.141652 0.000000
# 6 0.000000 0.000000 0.000000 0.000000 0.000000 0.055367
#
#
# Mechanical properties :
#
#
# Convention : Reuss Voigt Hill
#
# Bulk Modulus (GPa) = 35.62119 61.12095 48.37107
# Shear Modulus (GPa) = 16.22530 26.40736 21.31633
#
# Velocity S-wave (km/s) = 2.85494 3.64219 3.27233
# Velocity P-wave (km/s) = 5.36299 6.95637 6.21099
#
# Compressibility (1/GPa) = 0.02807318
#
# Stress axis : x y z
#
# Youngs Moduli (GPa) = 97.52249 37.40861 152.08129
#
# Poissons Ratio (x) = 0.04899 0.44024
# Poissons Ratio (y) = 0.12771 0.53834
# Poissons Ratio (z) = 0.28230 0.13242
#
# Static dielectric constant tensor:
#      x y z
#    x 1.789100 0.000000 0.000000 
#    y 0.000000 1.699230 0.000000 
#    z 0.000000 0.000000 1.688960 
# 
# From -- ./inp_files/8419.got.cif
#   From: 2010.05.17/outbox.cif.g08.bks.cpg/sg72_5_cif.got.tgz:8419.got - 2010.06.03 17:03:01.
