data_PCOD9527203
_publ_section_title
;
Structure prediction by ZEFSAII (Michael W. Deem and Ramdas Pophale) SiO2 
 PCOD9527203
Probable space group: I B A M
;
_chemical_formula_sum "Si O2"
_cell_formula_units_Z 112
_cell_length_a 23.146008
_cell_length_b 17.838075
_cell_length_c 14.320507
_cell_angle_alpha 90.000000
_cell_angle_beta 90.000000
_cell_angle_gamma 90.000000
_cell_volume 5912.654176
_symmetry_space_group_name_H-M "I B A M"
_symmetry_group_IT_number 72
_symmetry_cell_setting 'orthorhombic'
loop_
_space_group_symop_operation_xyz
x,y,z
-x,-y,z
x,-y,1/2-z
-x,y,1/2-z
-x,-y,-z
x,y,-z
-x,y,1/2+z
x,-y,1/2+z
1/2+x,1/2+y,1/2+z
1/2-x,1/2-y,1/2+z
1/2+x,1/2-y,-z
1/2-x,1/2+y,-z
1/2-x,1/2-y,1/2-z
1/2+x,1/2+y,1/2-z
1/2-x,1/2+y,z
1/2+x,1/2-y,z
loop_
_atom_site_type_symbol
_atom_site_label
_atom_site_fract_x
_atom_site_fract_y
_atom_site_fract_z
Si Si1 0.362590 0.291004 0.602701
Si Si2 0.438973 0.716639 0.287171
Si Si3 0.671574 0.535828 0.394727
Si Si4 0.346769 0.797794 0.391105
Si Si5 0.444653 0.445485 0.886890
Si Si6 0.216245 0.574896 0.774854
Si Si7 0.747315 0.181924 0.107003
O O1 0.387850 0.270282 0.500000
O O2 0.399397 0.280502 0.695051
O O3 0.350768 0.379174 0.599503
O O4 0.303458 0.244055 0.612682
O O5 0.500000 0.742559 0.250000
O O6 0.409900 0.772012 0.361119
O O7 0.446135 0.633418 0.332199
O O8 0.687209 0.511283 0.500000
O O9 0.616842 0.485407 0.364120
O O10 0.728268 0.544500 0.332057
O O11 0.342128 0.814367 0.500000
O O12 0.320348 0.866325 0.334141
O O13 0.306500 0.725168 0.372127
O O14 0.500000 0.500000 0.865896
O O15 0.445902 0.433245 0.000000
O O16 0.181484 0.500000 0.750000
O O17 0.236584 0.618543 0.682566
O O18 0.748718 0.154761 0.000000
#
# Coordination Sequence:
#
# PCOD9527203 Si02
#       7
#    16  16  16  16  16  16  16
#     4  10  20  37  60  82 117 163 208 260 313 375
#     4  12  25  39  63  91 122 172 222 263 314 384
#     4  10  21  35  55  86 124 168 211 253 311 373
#     4  11  23  42  65  93 129 165 212 271 324 386
#     4  10  23  41  57  85 132 176 218 263 309 373
#     4  12  24  37  62  93 127 162 206 266 327 388
#     4  10  21  39  61  88 124 165 209 258 323 389
#
# _framework density 18.942423000000002
#
# number of rings (size 3 to 8) (size 9 to 14) (size 15 to 20)
#    0.000    1.286    2.857    3.000    4.000    4.857 
#    0.000    0.000    0.000    0.857    0.000    1.000 
#    0.000    0.000    0.000    0.000    0.000    0.000 
#
# Total GULP energy -312900.928586 kJ/mol
# GULP energy per Si atom -5587.516582 kJ/mol
# Density = 1.889931 g / cm^3
# Si number density = 18.942423 Si / 1000 Ang^3
#
#
#
# Elastic Constant Matrix: (Units=GPa)
#
#
# Indices 1 2 3 4 5 6 
#
# 1 77.7580 36.9214 24.3091 0.0000 0.0000 0.0000
# 2 36.9214 80.4002 42.9024 0.0000 0.0000 0.0000
# 3 24.3091 42.9024 85.8261 0.0000 0.0000 0.0000
# 4 0.0000 0.0000 0.0000 41.9835 0.0000 0.0000
# 5 0.0000 0.0000 0.0000 0.0000 25.4345 0.0000
# 6 0.0000 0.0000 0.0000 0.0000 0.0000 30.4258
#
#
#
# Elastic Compliance Matrix: (Units=1/GPa)
#
#
# Indices 1 2 3 4 5 6 
#
# 1 0.016538 -0.006949 -0.001211 0.000000 0.000000 0.000000
# 2 -0.006949 0.019882 -0.007970 0.000000 0.000000 0.000000
# 3 -0.001211 -0.007970 0.015979 0.000000 0.000000 0.000000
# 4 0.000000 0.000000 0.000000 0.023819 0.000000 0.000000
# 5 0.000000 0.000000 0.000000 0.000000 0.039317 0.000000
# 6 0.000000 0.000000 0.000000 0.000000 0.000000 0.032867
#
#
# Mechanical properties :
#
#
# Convention : Reuss Voigt Hill
#
# Bulk Modulus (GPa) = 49.65446 50.25000 49.95223
# Shear Modulus (GPa) = 26.68465 28.89219 27.78842
#
# Velocity S-wave (km/s) = 3.75737 3.90970 3.83429
# Velocity P-wave (km/s) = 6.71521 6.85320 6.78456
#
# Compressibility (1/GPa) = 0.02013918
#
# Stress axis : x y z
#
# Youngs Moduli (GPa) = 60.46562 50.29732 62.58379
#
# Poissons Ratio (x) = 0.34950 0.07578
# Poissons Ratio (y) = 0.42015 0.49881
# Poissons Ratio (z) = 0.07321 0.40089
#
# Static dielectric constant tensor:
#      x y z
#    x 1.705160 0.000000 0.000000 
#    y 0.000000 1.638960 0.000000 
#    z 0.000000 0.000000 1.717200 
# 
# From -- ./inp_files/25220.got.cif
#   From: 2010.05.17/outbox.cif.g08.bks.cpg/sg72_13_cif.got.tgz:25220.got - 2010.06.03 17:03:01.
