data_PCOD9527071
_publ_section_title
;
Structure prediction by ZEFSAII (Michael W. Deem and Ramdas Pophale) SiO2 
 PCOD9527071
Probable space group: I B A M
;
_chemical_formula_sum "Si O2"
_cell_formula_units_Z 96
_cell_length_a 12.832956
_cell_length_b 22.811209
_cell_length_c 18.650529
_cell_angle_alpha 90.000000
_cell_angle_beta 90.000000
_cell_angle_gamma 90.000000
_cell_volume 5459.667109
_symmetry_space_group_name_H-M "I B A M"
_symmetry_group_IT_number 72
_symmetry_cell_setting 'orthorhombic'
loop_
_space_group_symop_operation_xyz
x,y,z
-x,-y,z
x,-y,1/2-z
-x,y,1/2-z
-x,-y,-z
x,y,-z
-x,y,1/2+z
x,-y,1/2+z
1/2+x,1/2+y,1/2+z
1/2-x,1/2-y,1/2+z
1/2+x,1/2-y,-z
1/2-x,1/2+y,-z
1/2-x,1/2-y,1/2-z
1/2+x,1/2+y,1/2-z
1/2-x,1/2+y,z
1/2+x,1/2-y,z
loop_
_atom_site_type_symbol
_atom_site_label
_atom_site_fract_x
_atom_site_fract_y
_atom_site_fract_z
Si Si1 0.096343 0.771910 0.200825
Si Si2 0.261451 0.163603 0.197382
Si Si3 0.117939 0.562102 0.721159
Si Si4 0.657190 0.579542 0.584684
Si Si5 0.064861 0.129790 0.415633
Si Si6 0.262070 0.046311 0.415878
O O1 0.171379 0.808591 0.253633
O O2 0.161167 0.715767 0.175014
O O3 0.061371 0.814406 0.136500
O O4 0.000000 0.752437 0.250000
O O5 0.321497 0.116375 0.245550
O O6 0.213844 0.129033 0.130707
O O7 0.160284 0.500000 0.750000
O O8 0.141026 0.558964 0.636365
O O9 0.000000 0.565860 0.750000
O O10 0.671681 0.589123 0.500000
O O11 0.533546 0.586983 0.599053
O O12 0.706818 0.516112 0.600750
O O13 0.059346 0.146048 0.500000
O O14 0.172631 0.095074 0.404207
O O15 0.290449 0.046328 0.500000
#
# Coordination Sequence:
#
# PCOD9527071 Si02
#       6
#    16  16  16  16  16  16
#     4  11  22  37  58  83 112 152 198 240 286 338
#     4  11  22  37  58  81 114 153 196 243 286 337
#     4  11  22  38  59  84 112 152 197 243 284 333
#     4  10  20  36  59  89 121 150 185 235 294 351
#     4  10  20  36  60  89 121 150 185 234 293 353
#     4  10  20  37  61  90 120 150 186 234 294 351
#
# _framework density 17.583490000000001
#
# number of rings (size 3 to 8) (size 9 to 14) (size 15 to 20)
#    0.000    1.500    5.000    1.000    0.000    2.667 
#    0.000    2.500    0.000    3.000    0.000    0.000 
#    0.000    0.000    0.000    0.000    0.000    0.000 
#
# Total GULP energy -267763.146046 kJ/mol
# GULP energy per Si atom -5578.398876 kJ/mol
# Density = 1.754347 g / cm^3
# Si number density = 17.583490 Si / 1000 Ang^3
#
#
#
# Elastic Constant Matrix: (Units=GPa)
#
#
# Indices 1 2 3 4 5 6 
#
# 1 80.8282 11.3717 46.2902 0.0000 0.0000 0.0000
# 2 11.3717 42.2800 17.1485 0.0000 0.0000 0.0000
# 3 46.2902 17.1485 76.0950 0.0000 0.0000 0.0000
# 4 0.0000 0.0000 0.0000 26.4784 0.0000 0.0000
# 5 0.0000 0.0000 0.0000 0.0000 29.7724 0.0000
# 6 0.0000 0.0000 0.0000 0.0000 0.0000 25.4003
#
#
#
# Elastic Compliance Matrix: (Units=1/GPa)
#
#
# Indices 1 2 3 4 5 6 
#
# 1 0.018995 -0.000465 -0.011450 0.000000 0.000000 0.000000
# 2 -0.000465 0.026043 -0.005586 0.000000 0.000000 0.000000
# 3 -0.011450 -0.005586 0.021366 0.000000 0.000000 0.000000
# 4 0.000000 0.000000 0.000000 0.037767 0.000000 0.000000
# 5 0.000000 0.000000 0.000000 0.000000 0.033588 0.000000
# 6 0.000000 0.000000 0.000000 0.000000 0.000000 0.039370
#
#
# Mechanical properties :
#
#
# Convention : Reuss Voigt Hill
#
# Bulk Modulus (GPa) = 31.84622 38.75821 35.30221
# Shear Modulus (GPa) = 22.46216 24.62309 23.54262
#
# Velocity S-wave (km/s) = 3.57803 3.74619 3.66307
# Velocity P-wave (km/s) = 5.93469 6.38766 6.16533
#
# Compressibility (1/GPa) = 0.03140090
#
# Stress axis : x y z
#
# Youngs Moduli (GPa) = 52.64594 38.39874 46.80391
#
# Poissons Ratio (x) = 0.01785 0.53591
# Poissons Ratio (y) = 0.02447 0.26145
# Poissons Ratio (z) = 0.60281 0.21450
#
# Static dielectric constant tensor:
#      x y z
#    x 1.612870 0.000000 0.000000 
#    y 0.000000 1.576710 0.000000 
#    z 0.000000 0.000000 1.583380 
# 
# From -- ./inp_files/29437.got.cif
#   From: 2010.05.17/outbox.cif.g08.bks.cpg/sg72_15_cif.got.tgz:29437.got - 2010.06.03 17:03:01.
