data_PCOD9527425
_publ_section_title
;
Structure prediction by ZEFSAII (Michael W. Deem and Ramdas Pophale) SiO2 
 PCOD9527425
Probable space group: I B A M
;
_chemical_formula_sum "Si O2"
_cell_formula_units_Z 116
_cell_length_a 12.690721
_cell_length_b 14.492297
_cell_length_c 26.937786
_cell_angle_alpha 90.000000
_cell_angle_beta 90.000000
_cell_angle_gamma 90.000000
_cell_volume 4954.335587
_symmetry_space_group_name_H-M "I B A M"
_symmetry_group_IT_number 72
_symmetry_cell_setting 'orthorhombic'
loop_
_space_group_symop_operation_xyz
x,y,z
-x,-y,z
x,-y,1/2-z
-x,y,1/2-z
-x,-y,-z
x,y,-z
-x,y,1/2+z
x,-y,1/2+z
1/2+x,1/2+y,1/2+z
1/2-x,1/2-y,1/2+z
1/2+x,1/2-y,-z
1/2-x,1/2+y,-z
1/2-x,1/2-y,1/2-z
1/2+x,1/2+y,1/2-z
1/2-x,1/2+y,z
1/2+x,1/2-y,z
loop_
_atom_site_type_symbol
_atom_site_label
_atom_site_fract_x
_atom_site_fract_y
_atom_site_fract_z
Si Si1 0.693118 0.706181 0.798462
Si Si2 0.695283 0.540728 0.387453
Si Si3 0.708453 0.266674 0.944481
Si Si4 0.891970 0.601436 0.334883
Si Si5 0.515668 0.638960 0.661121
Si Si6 0.898323 0.867750 0.556856
Si Si7 0.111859 0.330347 0.143397
Si Si8 0.000000 0.500000 0.750000
O O1 0.750000 0.750000 0.750000
O O2 0.660057 0.797344 0.829998
O O3 0.584834 0.645251 0.801467
O O4 0.781658 0.647566 0.827069
O O5 0.702705 0.634059 0.419622
O O6 0.809505 0.537121 0.362492
O O7 0.604263 0.558831 0.345232
O O8 0.665887 0.457510 0.423846
O O9 0.824703 0.222325 0.944612
O O10 0.642253 0.196148 0.911836
O O11 0.668566 0.271500 0.000000
O O12 0.922002 0.564211 0.280996
O O13 0.008262 0.608710 0.357565
O O14 0.475029 0.644793 0.603777
O O15 0.576484 0.734615 0.670467
O O16 0.937147 0.883236 0.500000
#
# Coordination Sequence:
#
# PCOD9527425 Si02
#       8
#    16  16  16  16  16  16  16   4
#     4  11  21  40  72  96 127 171 230 282 347 421
#     4  11  23  43  65  96 144 177 225 295 348 407
#     4  10  20  39  67 101 134 175 226 277 340 416
#     4  11  24  43  61  96 130 177 227 284 348 407
#     4  10  21  39  64  97 132 170 221 281 346 401
#     4  11  23  39  67 101 137 187 234 279 345 418
#     4  10  20  41  67  96 128 175 219 283 346 404
#     4  12  28  40  64  92 132 192 246 284 344 414
#
# _framework density 23.413836
#
# number of rings (size 3 to 8) (size 9 to 14) (size 15 to 20)
#    0.000    1.379    4.138    2.483    1.931    6.069 
#    0.000    1.379    0.000    1.655    0.000    0.000 
#    0.000    0.000    0.000    0.000    0.000    0.000 
#
# Total GULP energy -323898.275438 kJ/mol
# GULP energy per Si atom -5584.453025 kJ/mol
# Density = 2.336054 g / cm^3
# Si number density = 23.413836 Si / 1000 Ang^3
#
#
#
# Elastic Constant Matrix: (Units=GPa)
#
#
# Indices 1 2 3 4 5 6 
#
# 1 148.0471 14.1110 45.8717 0.0000 0.0000 0.0000
# 2 14.1110 78.3198 9.7172 0.0000 0.0000 0.0000
# 3 45.8717 9.7172 98.9325 0.0000 0.0000 0.0000
# 4 0.0000 0.0000 0.0000 21.7477 0.0000 0.0000
# 5 0.0000 0.0000 0.0000 0.0000 28.8479 0.0000
# 6 0.0000 0.0000 0.0000 0.0000 0.0000 31.5972
#
#
#
# Elastic Compliance Matrix: (Units=1/GPa)
#
#
# Indices 1 2 3 4 5 6 
#
# 1 0.007963 -0.000989 -0.003595 0.000000 0.000000 0.000000
# 2 -0.000989 0.013048 -0.000823 0.000000 0.000000 0.000000
# 3 -0.003595 -0.000823 0.011856 0.000000 0.000000 0.000000
# 4 0.000000 0.000000 0.000000 0.045982 0.000000 0.000000
# 5 0.000000 0.000000 0.000000 0.000000 0.034665 0.000000
# 6 0.000000 0.000000 0.000000 0.000000 0.000000 0.031648
#
#
# Mechanical properties :
#
#
# Convention : Reuss Voigt Hill
#
# Bulk Modulus (GPa) = 45.34500 51.63326 48.48913
# Shear Modulus (GPa) = 30.61358 33.47853 32.04606
#
# Velocity S-wave (km/s) = 3.61986 3.78545 3.70358
# Velocity P-wave (km/s) = 6.07289 6.41923 6.24846
#
# Compressibility (1/GPa) = 0.02205315
#
# Stress axis : x y z
#
# Youngs Moduli (GPa) = 125.58536 76.63763 84.34822
#
# Poissons Ratio (x) = 0.07577 0.30323
# Poissons Ratio (y) = 0.12416 0.06944
# Poissons Ratio (z) = 0.45147 0.06309
#
# Static dielectric constant tensor:
#      x y z
#    x 2.011060 0.000000 0.000000 
#    y 0.000000 1.922750 0.000000 
#    z 0.000000 0.000000 1.901730 
# 
# From -- ./inp_files/51539.got.cif
#   From: 2010.05.17/outbox.cif.g08.bks.cpg/sg72_26_cif.got.tgz:51539.got - 2010.06.03 17:03:01.
