data_PCOD9527964
_publ_section_title
;
Structure prediction by ZEFSAII (Michael W. Deem and Ramdas Pophale) SiO2 
 PCOD9527964
Probable space group: I B A M
;
_chemical_formula_sum "Si O2"
_cell_formula_units_Z 96
_cell_length_a 19.935659
_cell_length_b 14.567403
_cell_length_c 15.480269
_cell_angle_alpha 90.000000
_cell_angle_beta 90.000000
_cell_angle_gamma 90.000000
_cell_volume 4495.636975
_symmetry_space_group_name_H-M "I B A M"
_symmetry_group_IT_number 72
_symmetry_cell_setting 'orthorhombic'
loop_
_space_group_symop_operation_xyz
x,y,z
-x,-y,z
x,-y,1/2-z
-x,y,1/2-z
-x,-y,-z
x,y,-z
-x,y,1/2+z
x,-y,1/2+z
1/2+x,1/2+y,1/2+z
1/2-x,1/2-y,1/2+z
1/2+x,1/2-y,-z
1/2-x,1/2+y,-z
1/2-x,1/2-y,1/2-z
1/2+x,1/2+y,1/2-z
1/2-x,1/2+y,z
1/2+x,1/2-y,z
loop_
_atom_site_type_symbol
_atom_site_label
_atom_site_fract_x
_atom_site_fract_y
_atom_site_fract_z
Si Si1 0.219883 0.992434 0.395558
Si Si2 0.931474 0.052056 0.105119
Si Si3 0.397674 0.756080 0.598720
Si Si4 0.247378 0.710259 0.152396
Si Si5 0.578719 0.898883 0.752227
Si Si6 0.334938 0.856511 0.904320
O O1 0.219470 0.979430 0.500000
O O2 0.247339 0.899374 0.351899
O O3 0.142399 0.013228 0.368334
O O4 0.272869 0.075378 0.379915
O O5 0.930948 0.160428 0.128127
O O6 0.931158 0.048786 0.000000
O O7 0.000000 0.000000 0.133790
O O8 0.417666 0.775056 0.500000
O O9 0.317500 0.748184 0.604985
O O10 0.407823 0.839449 0.663716
O O11 0.250000 0.750000 0.250000
O O12 0.308278 0.753275 0.099855
O O13 0.500000 0.906410 0.750000
O O14 0.607093 0.856485 0.665510
O O15 0.609405 0.000000 0.750000
O O16 0.357340 0.883047 0.000000
#
# Coordination Sequence:
#
# PCOD9527964 Si02
#       6
#    16  16  16  16  16  16
#     4  10  21  38  65  98 132 173 226 280 342 411
#     4   9  19  38  66 100 137 178 224 277 340 416
#     4  11  22  43  70  98 137 182 226 279 352 421
#     4  12  23  38  65  98 135 174 221 283 343 403
#     4  11  26  45  65  95 133 173 229 288 342 415
#     4  11  23  42  68  97 129 172 228 286 340 406
#
# _framework density 21.354037999999999
#
# number of rings (size 3 to 8) (size 9 to 14) (size 15 to 20)
#    0.000    1.333    3.333    2.500    0.000    4.000 
#    0.000    3.333    0.000    0.000    0.000    0.000 
#    0.000    0.667    0.000    0.000    0.000    0.000 
#
# Total GULP energy -267881.104092 kJ/mol
# GULP energy per Si atom -5580.856335 kJ/mol
# Density = 2.130543 g / cm^3
# Si number density = 21.354038 Si / 1000 Ang^3
#
#
#
# Elastic Constant Matrix: (Units=GPa)
#
#
# Indices 1 2 3 4 5 6 
#
# 1 86.9136 29.5592 34.8587 0.0000 0.0000 0.0000
# 2 29.5592 130.8422 48.6869 0.0000 0.0000 0.0000
# 3 34.8587 48.6869 106.5796 0.0000 0.0000 0.0000
# 4 0.0000 0.0000 0.0000 33.6662 0.0000 0.0000
# 5 0.0000 0.0000 0.0000 0.0000 79.0529 0.0000
# 6 0.0000 0.0000 0.0000 0.0000 0.0000 37.0784
#
#
#
# Elastic Compliance Matrix: (Units=1/GPa)
#
#
# Indices 1 2 3 4 5 6 
#
# 1 0.013550 -0.001701 -0.003655 0.000000 0.000000 0.000000
# 2 -0.001701 0.009422 -0.003747 0.000000 0.000000 0.000000
# 3 -0.003655 -0.003747 0.012290 0.000000 0.000000 0.000000
# 4 0.000000 0.000000 0.000000 0.029703 0.000000 0.000000
# 5 0.000000 0.000000 0.000000 0.000000 0.012650 0.000000
# 6 0.000000 0.000000 0.000000 0.000000 0.000000 0.026970
#
#
# Mechanical properties :
#
#
# Convention : Reuss Voigt Hill
#
# Bulk Modulus (GPa) = 58.63459 61.17168 59.90314
# Shear Modulus (GPa) = 38.91774 44.04155 41.47965
#
# Velocity S-wave (km/s) = 4.27371 4.54634 4.41213
# Velocity P-wave (km/s) = 7.20213 7.50117 7.35317
#
# Compressibility (1/GPa) = 0.01705478
#
# Stress axis : x y z
#
# Youngs Moduli (GPa) = 73.80052 106.13929 81.36792
#
# Poissons Ratio (x) = 0.18057 0.29737
# Poissons Ratio (y) = 0.12555 0.30492
# Poissons Ratio (z) = 0.26971 0.39775
#
# Static dielectric constant tensor:
#      x y z
#    x -0.799400 0.000000 0.000000 
#    y 0.000000 1.722410 0.000000 
#    z 0.000000 0.000000 1.896440 
# 
# From -- ./inp_files/24161.got.cif
#   From: 2010.05.17/outbox.cif.g08.bks.cpg/sg72_13_cif.got.tgz:24161.got - 2010.06.03 17:03:01.
