data_PCOD9527070
_publ_section_title
;
Structure prediction by ZEFSAII (Michael W. Deem and Ramdas Pophale) SiO2 
 PCOD9527070
Probable space group: I B A M
;
_chemical_formula_sum "Si O2"
_cell_formula_units_Z 116
_cell_length_a 18.297924
_cell_length_b 17.106169
_cell_length_c 15.441303
_cell_angle_alpha 90.000000
_cell_angle_beta 90.000000
_cell_angle_gamma 90.000000
_cell_volume 4833.241800
_symmetry_space_group_name_H-M "I B A M"
_symmetry_group_IT_number 72
_symmetry_cell_setting 'orthorhombic'
loop_
_space_group_symop_operation_xyz
x,y,z
-x,-y,z
x,-y,1/2-z
-x,y,1/2-z
-x,-y,-z
x,y,-z
-x,y,1/2+z
x,-y,1/2+z
1/2+x,1/2+y,1/2+z
1/2-x,1/2-y,1/2+z
1/2+x,1/2-y,-z
1/2-x,1/2+y,-z
1/2-x,1/2-y,1/2-z
1/2+x,1/2+y,1/2-z
1/2-x,1/2+y,z
1/2+x,1/2-y,z
loop_
_atom_site_type_symbol
_atom_site_label
_atom_site_fract_x
_atom_site_fract_y
_atom_site_fract_z
Si Si1 0.619902 0.536277 0.399060
Si Si2 0.207283 0.498845 0.094776
Si Si3 0.618761 0.110020 0.720325
Si Si4 0.875666 0.208429 0.396561
Si Si5 0.516905 0.214993 0.398933
Si Si6 0.731237 0.172626 0.155140
Si Si7 0.388701 0.632403 0.603130
Si Si8 0.500000 0.000000 0.750000
O O1 0.596306 0.541349 0.500000
O O2 0.707314 0.521223 0.396639
O O3 0.610259 0.622118 0.359371
O O4 0.588082 0.454094 0.365721
O O5 0.162145 0.545076 0.165173
O O6 0.204692 0.405059 0.103406
O O7 0.181445 0.522541 0.000000
O O8 0.568422 0.159882 0.656194
O O9 0.684504 0.161385 0.758412
O O10 0.560476 0.063946 0.782548
O O11 0.886221 0.202961 0.500000
O O12 0.796238 0.245618 0.382818
O O13 0.934738 0.271888 0.364946
O O14 0.515972 0.190497 0.500000
O O15 0.550002 0.302387 0.393984
O O16 0.817898 0.162631 0.154847
O O17 0.367463 0.625027 0.500000
#
# Coordination Sequence:
#
# PCOD9527070 Si02
#       8
#    16  16  16  16  16  16  16   4
#     4   8  17  34  60  88 116 150 194 246 299 350
#     4  10  20  38  61  89 116 148 198 251 299 351
#     4  12  24  40  60  84 120 161 201 239 304 361
#     4  10  20  36  59  89 119 158 203 244 298 364
#     4  10  23  39  58  89 124 157 204 251 298 361
#     4  11  21  38  61  86 119 159 199 246 301 365
#     4   9  19  38  62  91 123 158 199 256 307 347
#     4  12  24  44  58  84 124 166 192 244 304 360
#
# _framework density 24.000456
#
# number of rings (size 3 to 8) (size 9 to 14) (size 15 to 20)
#    0.000    1.931    1.379    3.310    1.931    1.103 
#    0.000    3.448    0.000    0.000    0.000    1.931 
#    0.000    0.000    0.000    0.000    0.000    0.000 
#
# Total GULP energy -323648.247357 kJ/mol
# GULP energy per Si atom -5580.142196 kJ/mol
# Density = 2.394583 g / cm^3
# Si number density = 24.000456 Si / 1000 Ang^3
#
#
#
# Elastic Constant Matrix: (Units=GPa)
#
#
# Indices 1 2 3 4 5 6 
#
# 1 43.3445 -0.1859 13.4754 0.0000 0.0000 0.0000
# 2 -0.1859 88.4329 5.0069 0.0000 0.0000 0.0000
# 3 13.4754 5.0069 38.0070 0.0000 0.0000 0.0000
# 4 0.0000 0.0000 0.0000 23.0583 0.0000 0.0000
# 5 0.0000 0.0000 0.0000 0.0000 7.4270 0.0000
# 6 0.0000 0.0000 0.0000 0.0000 0.0000 39.2838
#
#
#
# Elastic Compliance Matrix: (Units=1/GPa)
#
#
# Indices 1 2 3 4 5 6 
#
# 1 0.025959 0.000580 -0.009280 0.000000 0.000000 0.000000
# 2 0.000580 0.011406 -0.001708 0.000000 0.000000 0.000000
# 3 -0.009280 -0.001708 0.029826 0.000000 0.000000 0.000000
# 4 0.000000 0.000000 0.000000 0.043368 0.000000 0.000000
# 5 0.000000 0.000000 0.000000 0.000000 0.134644 0.000000
# 6 0.000000 0.000000 0.000000 0.000000 0.000000 0.025456
#
#
# Mechanical properties :
#
#
# Convention : Reuss Voigt Hill
#
# Bulk Modulus (GPa) = 21.56371 22.93079 22.24725
# Shear Modulus (GPa) = 16.29019 24.05301 20.17160
#
# Velocity S-wave (km/s) = 2.60810 3.16917 2.90223
# Velocity P-wave (km/s) = 4.25133 4.79235 4.52992
#
# Compressibility (1/GPa) = 0.04637421
#
# Stress axis : x y z
#
# Youngs Moduli (GPa) = 38.52297 87.67362 33.52756
#
# Poissons Ratio (x) = -0.05085 0.31114
# Poissons Ratio (y) = -0.02234 0.05727
# Poissons Ratio (z) = 0.35749 0.14976
#
# Static dielectric constant tensor:
#      x y z
#    x 1.875160 0.000000 0.000000 
#    y 0.000000 1.936930 0.000000 
#    z 0.000000 0.000000 1.954670 
# 
# From -- ./inp_files/31768.got.cif
#   From: 2010.05.17/outbox.cif.g08.bks.cpg/sg72_16_cif.got.tgz:31768.got - 2010.06.03 17:03:01.
