data_PCOD9527618
_publ_section_title
;
Structure prediction by ZEFSAII (Michael W. Deem and Ramdas Pophale) SiO2 
 PCOD9527618
Probable space group: I B A M
;
_chemical_formula_sum "Si O2"
_cell_formula_units_Z 112
_cell_length_a 23.373919
_cell_length_b 14.342721
_cell_length_c 15.213235
_cell_angle_alpha 90.000000
_cell_angle_beta 90.000000
_cell_angle_gamma 90.000000
_cell_volume 5100.170079
_symmetry_space_group_name_H-M "I B A M"
_symmetry_group_IT_number 72
_symmetry_cell_setting 'orthorhombic'
loop_
_space_group_symop_operation_xyz
x,y,z
-x,-y,z
x,-y,1/2-z
-x,y,1/2-z
-x,-y,-z
x,y,-z
-x,y,1/2+z
x,-y,1/2+z
1/2+x,1/2+y,1/2+z
1/2-x,1/2-y,1/2+z
1/2+x,1/2-y,-z
1/2-x,1/2+y,-z
1/2-x,1/2-y,1/2-z
1/2+x,1/2+y,1/2-z
1/2-x,1/2+y,z
1/2+x,1/2-y,z
loop_
_atom_site_type_symbol
_atom_site_label
_atom_site_fract_x
_atom_site_fract_y
_atom_site_fract_z
Si Si1 0.557053 0.724658 0.723921
Si Si2 0.382050 0.216832 0.096689
Si Si3 0.227539 0.992591 0.847529
Si Si4 0.349407 0.345257 0.593907
Si Si5 0.849926 0.486452 0.900486
Si Si6 0.743557 0.724746 0.146344
Si Si7 0.039984 0.408291 0.107135
O O1 0.500000 0.669981 0.750000
O O2 0.587938 0.748307 0.815826
O O3 0.603561 0.669785 0.667592
O O4 0.534165 0.814622 0.666017
O O5 0.388293 0.105688 0.096622
O O6 0.314209 0.232797 0.107048
O O7 0.400778 0.252160 0.000000
O O8 0.185810 0.058145 0.901955
O O9 0.292538 0.030537 0.846949
O O10 0.203634 0.000000 0.750000
O O11 0.235875 0.884938 0.869672
O O12 0.378169 0.334916 0.500000
O O13 0.300369 0.266874 0.604285
O O14 0.893761 0.565216 0.871889
O O15 0.830193 0.506055 0.000000
O O16 0.750000 0.750000 0.250000
O O17 0.000000 0.500000 0.127977
O O18 0.034960 0.393552 0.000000
#
# Coordination Sequence:
#
# PCOD9527618 Si02
#       7
#    16  16  16  16  16  16  16
#     4  12  26  43  66  95 132 187 247 302 363 424
#     4  11  23  40  62  91 134 177 227 287 350 421
#     4  12  23  38  67  99 137 180 225 280 347 424
#     4  12  26  45  69 105 148 189 235 292 360 440
#     4  10  21  35  56  92 134 179 223 272 336 419
#     4  12  22  43  69 104 143 181 230 287 355 425
#     4  10  22  40  62  95 138 184 238 296 363 440
#
# _framework density 21.960052999999998
#
# number of rings (size 3 to 8) (size 9 to 14) (size 15 to 20)
#    0.000    0.714    4.286    3.000    2.000    7.143 
#    0.000    0.000    0.000    4.286    0.000    5.000 
#    0.000    0.000    0.000    0.000    0.000    0.000 
#
# Total GULP energy -312796.864050 kJ/mol
# GULP energy per Si atom -5585.658287 kJ/mol
# Density = 2.191007 g / cm^3
# Si number density = 21.960053 Si / 1000 Ang^3
#
#
#
# Elastic Constant Matrix: (Units=GPa)
#
#
# Indices 1 2 3 4 5 6 
#
# 1 118.6209 24.5415 43.6185 0.0000 0.0000 0.0000
# 2 24.5415 95.8547 20.2970 0.0000 0.0000 0.0000
# 3 43.6185 20.2970 138.6509 0.0000 0.0000 0.0000
# 4 0.0000 0.0000 0.0000 10.3267 0.0000 0.0000
# 5 0.0000 0.0000 0.0000 0.0000 -96.8624 0.0000
# 6 0.0000 0.0000 0.0000 0.0000 0.0000 19.8294
#
#
#
# Elastic Compliance Matrix: (Units=1/GPa)
#
#
# Indices 1 2 3 4 5 6 
#
# 1 0.009867 -0.001929 -0.002822 0.000000 0.000000 0.000000
# 2 -0.001929 0.011143 -0.001024 0.000000 0.000000 0.000000
# 3 -0.002822 -0.001024 0.008250 0.000000 0.000000 0.000000
# 4 0.000000 0.000000 0.000000 0.096837 0.000000 0.000000
# 5 0.000000 0.000000 0.000000 0.000000 -0.010324 0.000000
# 6 0.000000 0.000000 0.000000 0.000000 0.000000 0.050430
#
#
# Mechanical properties :
#
#
# Convention : Reuss Voigt Hill
#
# Bulk Modulus (GPa) = 56.46439 58.89338 57.67889
# Shear Modulus (GPa) = 27.22479 4.30338 15.76408
#
# Velocity S-wave (km/s) = 3.52482 1.40139 2.68218
# Velocity P-wave (km/s) = 6.50645 5.43094 5.99287
#
# Compressibility (1/GPa) = 0.01771028
#
# Stress axis : x y z
#
# Youngs Moduli (GPa) = 101.34981 89.74097 121.21188
#
# Poissons Ratio (x) = 0.17308 0.34202
# Poissons Ratio (y) = 0.19547 0.12418
# Poissons Ratio (z) = 0.28598 0.09194
#
# Static dielectric constant tensor:
#      x y z
#    x 1.789260 0.000000 0.000000 
#    y 0.000000 1.909350 0.000000 
#    z 0.000000 0.000000 1.834600 
# 
# From -- ./inp_files/25179.got.cif
#   From: 2010.05.17/outbox.cif.g08.bks.cpg/sg72_13_cif.got.tgz:25179.got - 2010.06.03 17:03:01.
