data_PCOD9527222
_publ_section_title
;
Structure prediction by ZEFSAII (Michael W. Deem and Ramdas Pophale) SiO2 
 PCOD9527222
Probable space group: I B A M
;
_chemical_formula_sum "Si O2"
_cell_formula_units_Z 68
_cell_length_a 18.648476
_cell_length_b 10.237287
_cell_length_c 18.974186
_cell_angle_alpha 90.000000
_cell_angle_beta 90.000000
_cell_angle_gamma 90.000000
_cell_volume 3622.358072
_symmetry_space_group_name_H-M "I B A M"
_symmetry_group_IT_number 72
_symmetry_cell_setting 'orthorhombic'
loop_
_space_group_symop_operation_xyz
x,y,z
-x,-y,z
x,-y,1/2-z
-x,y,1/2-z
-x,-y,-z
x,y,-z
-x,y,1/2+z
x,-y,1/2+z
1/2+x,1/2+y,1/2+z
1/2-x,1/2-y,1/2+z
1/2+x,1/2-y,-z
1/2-x,1/2+y,-z
1/2-x,1/2-y,1/2-z
1/2+x,1/2+y,1/2-z
1/2-x,1/2+y,z
1/2+x,1/2-y,z
loop_
_atom_site_type_symbol
_atom_site_label
_atom_site_fract_x
_atom_site_fract_y
_atom_site_fract_z
Si Si1 0.582367 0.481061 0.585662
Si Si2 0.632296 0.043921 0.177018
Si Si3 0.000000 0.500000 0.750000
Si Si4 0.355121 0.200683 0.081981
Si Si5 0.184193 0.777062 0.582294
O O1 0.500000 0.500000 0.609206
O O2 0.581651 0.480573 0.500000
O O3 0.615464 0.341204 0.606360
O O4 0.635407 0.599985 0.604878
O O5 0.669234 0.153936 0.131596
O O6 0.670767 0.000000 0.250000
O O7 0.553890 0.086765 0.204204
O O8 0.618716 0.916672 0.130068
O O9 0.268694 0.194372 0.085180
O O10 0.376047 0.182940 0.000000
O O11 0.167009 0.746665 0.500000
#
# Coordination Sequence:
#
# PCOD9527222 Si02
#       5
#    16  16   4  16  16
#     4   9  19  32  52  83 115 140 180 239 296 344
#     4  10  22  38  58  78 119 155 197 235 283 339
#     4   8  24  40  50  78 124 156 200 246 268 340
#     4  10  20  37  61  87 113 148 194 245 299 354
#     4  10  20  37  61  87 113 148 194 245 299 354
#
# _framework density 18.772300999999999
#
# number of rings (size 3 to 8) (size 9 to 14) (size 15 to 20)
#    0.706    1.647    0.000    2.118    3.294    4.706 
#    0.000    2.353    0.000    2.824    0.000    0.000 
#    0.000    0.000    0.000    0.000    0.000    0.000 
#
# Total GULP energy -189391.315356 kJ/mol
# GULP energy per Si atom -5570.332805 kJ/mol
# Density = 1.872957 g / cm^3
# Si number density = 18.772301 Si / 1000 Ang^3
#
#
#
# Elastic Constant Matrix: (Units=GPa)
#
#
# Indices 1 2 3 4 5 6 
#
# 1 79.7954 35.6416 21.0354 0.0000 0.0000 0.0000
# 2 35.6416 129.1406 51.2233 0.0000 0.0000 0.0000
# 3 21.0354 51.2233 70.1794 0.0000 0.0000 0.0000
# 4 0.0000 0.0000 0.0000 -3.9182 0.0000 0.0000
# 5 0.0000 0.0000 0.0000 0.0000 -13.1984 0.0000
# 6 0.0000 0.0000 0.0000 0.0000 0.0000 29.7059
#
#
#
# Elastic Compliance Matrix: (Units=1/GPa)
#
#
# Indices 1 2 3 4 5 6 
#
# 1 0.014492 -0.003204 -0.002005 0.000000 0.000000 0.000000
# 2 -0.003204 0.011607 -0.007512 0.000000 0.000000 0.000000
# 3 -0.002005 -0.007512 0.020333 0.000000 0.000000 0.000000
# 4 0.000000 0.000000 0.000000 -0.255222 0.000000 0.000000
# 5 0.000000 0.000000 0.000000 0.000000 -0.075767 0.000000
# 6 0.000000 0.000000 0.000000 0.000000 0.000000 0.033663
#
#
# Mechanical properties :
#
#
# Convention : Reuss Voigt Hill
#
# Bulk Modulus (GPa) = 47.64131 54.99067 51.31599
# Shear Modulus (GPa) = -22.88805 13.93219 -4.47793
#
# Velocity S-wave (km/s) = -3.49556 2.72723 -1.54615
# Velocity P-wave (km/s) = 3.02353 6.26691 4.92016
#
# Compressibility (1/GPa) = 0.02099019
#
# Stress axis : x y z
#
# Youngs Moduli (GPa) = 69.00428 86.15239 49.18163
#
# Poissons Ratio (x) = 0.27606 0.09860
# Poissons Ratio (y) = 0.22112 0.36943
# Poissons Ratio (z) = 0.13835 0.64714
#
# Static dielectric constant tensor:
#      x y z
#    x 1.682670 0.000000 0.000000 
#    y 0.000000 1.616730 0.000000 
#    z 0.000000 0.000000 1.657760 
# 
# From -- ./inp_files/38703.got.cif
#   From: 2010.05.17/outbox.cif.g08.bks.cpg/sg72_20_cif.got.tgz:38703.got - 2010.06.03 17:03:01.
