data_PCOD9527376
_publ_section_title
;
Structure prediction by ZEFSAII (Michael W. Deem and Ramdas Pophale) SiO2 
 PCOD9527376
Probable space group: I B A M
;
_chemical_formula_sum "Si O2"
_cell_formula_units_Z 96
_cell_length_a 10.721505
_cell_length_b 28.715586
_cell_length_c 14.769527
_cell_angle_alpha 90.000000
_cell_angle_beta 90.000000
_cell_angle_gamma 90.000000
_cell_volume 4547.157770
_symmetry_space_group_name_H-M "I B A M"
_symmetry_group_IT_number 72
_symmetry_cell_setting 'orthorhombic'
loop_
_space_group_symop_operation_xyz
x,y,z
-x,-y,z
x,-y,1/2-z
-x,y,1/2-z
-x,-y,-z
x,y,-z
-x,y,1/2+z
x,-y,1/2+z
1/2+x,1/2+y,1/2+z
1/2-x,1/2-y,1/2+z
1/2+x,1/2-y,-z
1/2-x,1/2+y,-z
1/2-x,1/2-y,1/2-z
1/2+x,1/2+y,1/2-z
1/2-x,1/2+y,z
1/2+x,1/2-y,z
loop_
_atom_site_type_symbol
_atom_site_label
_atom_site_fract_x
_atom_site_fract_y
_atom_site_fract_z
Si Si1 0.387914 0.537998 0.500000
Si Si2 0.863290 0.522362 0.500000
Si Si3 0.355756 0.860687 0.761498
Si Si4 0.306937 0.675267 0.097950
Si Si5 0.727932 0.954456 0.192898
Si Si6 0.526679 0.410730 0.851394
Si Si7 0.128783 0.735021 0.692209
O O1 0.500000 0.500000 0.500000
O O2 0.252092 0.514598 0.500000
O O3 0.415588 0.569771 0.588060
O O4 0.845115 0.548945 0.596632
O O5 0.000000 0.500000 0.500000
O O6 0.500000 0.870910 0.750000
O O7 0.296187 0.836777 0.672571
O O8 0.291997 0.910737 0.759625
O O9 0.346828 0.819000 0.834712
O O10 0.403802 0.632451 0.101911
O O11 0.375206 0.723998 0.118870
O O12 0.247273 0.677374 0.000000
O O13 0.872160 0.951956 0.162796
O O14 0.696760 0.000000 0.250000
O O15 0.500000 0.394137 0.750000
O O16 0.250000 0.750000 0.750000
O O17 0.000000 0.735741 0.750000
#
# Coordination Sequence:
#
# PCOD9527376 Si02
#       7
#     8   8  16  16  16  16  16
#     4  12  22  42  64  92 138 166 230 280 328 401
#     4  12  28  42  62  94 132 180 220 282 328 396
#     4   9  21  38  62  89 125 174 227 263 330 415
#     4  10  20  38  66 100 132 167 220 289 353 410
#     4  11  24  41  64  93 127 173 226 270 338 395
#     4  11  22  38  66  98 130 172 223 281 337 406
#     4   9  18  38  64  90 125 168 214 270 336 410
#
# _framework density 21.112089000000001
#
# number of rings (size 3 to 8) (size 9 to 14) (size 15 to 20)
#    0.000    1.667    2.500    1.500    5.833    0.000 
#    0.000    7.500    1.833    0.000    0.000    0.000 
#    0.000    0.000    0.000    0.000    0.000    0.000 
#
# Total GULP energy -267489.746652 kJ/mol
# GULP energy per Si atom -5572.703055 kJ/mol
# Density = 2.106404 g / cm^3
# Si number density = 21.112089 Si / 1000 Ang^3
#
#
#
# Elastic Constant Matrix: (Units=GPa)
#
#
# Indices 1 2 3 4 5 6 
#
# 1 100.8384 19.8160 6.6951 -0.0001 0.0000 -0.0001
# 2 19.8160 115.2979 37.5921 0.0000 0.0000 0.0000
# 3 6.6951 37.5921 72.7292 -0.0001 0.0001 -0.0001
# 4 -0.0001 0.0000 -0.0001 -5.0620 0.0001 -0.0001
# 5 0.0000 0.0000 0.0001 0.0001 10.1352 0.0001
# 6 -0.0001 0.0000 -0.0001 -0.0001 0.0001 -27.7588
#
#
#
# Elastic Compliance Matrix: (Units=1/GPa)
#
#
# Indices 1 2 3 4 5 6 
#
# 1 0.010264 -0.001751 -0.000040 0.000000 0.000000 0.000000
# 2 -0.001751 0.010730 -0.005385 0.000000 0.000000 0.000000
# 3 -0.000040 -0.005385 0.016537 0.000000 0.000000 0.000000
# 4 0.000000 0.000000 0.000000 -0.197551 0.000001 0.000001
# 5 0.000000 0.000000 0.000000 0.000001 0.098666 0.000000
# 6 0.000000 0.000000 0.000000 0.000001 0.000000 -0.036025
#
#
# Mechanical properties :
#
#
# Convention : Reuss Voigt Hill
#
# Bulk Modulus (GPa) = 43.14284 46.34132 44.74208
# Shear Modulus (GPa) = -66.39928 10.44703 -27.97612
#
# Velocity S-wave (km/s) = -5.61419 2.22691 -3.64417
# Velocity P-wave (km/s) = 4.64176 5.34883 1.87936
#
# Compressibility (1/GPa) = 0.02317882
#
# Stress axis : x y z
#
# Youngs Moduli (GPa) = 97.43178 93.19833 60.47199
#
# Poissons Ratio (x) = 0.16319 0.00240
# Poissons Ratio (y) = 0.17060 0.32563
# Poissons Ratio (z) = 0.00387 0.50185
#
# Static dielectric constant tensor:
#      x y z
#    x 1.758390 0.000000 0.000000 
#    y 0.000000 1.843840 0.000000 
#    z 0.000000 0.000000 1.844600 
# 
# From -- ./inp_files/20647.got.cif
#   From: 2010.05.17/outbox.cif.g08.bks.cpg/sg72_11_cif.got.tgz:20647.got - 2010.06.03 17:03:01.
