data_PCOD9527601
_publ_section_title
;
Structure prediction by ZEFSAII (Michael W. Deem and Ramdas Pophale) SiO2 
 PCOD9527601
Probable space group: I B A M
;
_chemical_formula_sum "Si O2"
_cell_formula_units_Z 64
_cell_length_a 22.573078
_cell_length_b 11.249911
_cell_length_c 14.013616
_cell_angle_alpha 90.000000
_cell_angle_beta 90.000000
_cell_angle_gamma 90.000000
_cell_volume 3558.689376
_symmetry_space_group_name_H-M "I B A M"
_symmetry_group_IT_number 72
_symmetry_cell_setting 'orthorhombic'
loop_
_space_group_symop_operation_xyz
x,y,z
-x,-y,z
x,-y,1/2-z
-x,y,1/2-z
-x,-y,-z
x,y,-z
-x,y,1/2+z
x,-y,1/2+z
1/2+x,1/2+y,1/2+z
1/2-x,1/2-y,1/2+z
1/2+x,1/2-y,-z
1/2-x,1/2+y,-z
1/2-x,1/2-y,1/2-z
1/2+x,1/2+y,1/2-z
1/2-x,1/2+y,z
1/2+x,1/2-y,z
loop_
_atom_site_type_symbol
_atom_site_label
_atom_site_fract_x
_atom_site_fract_y
_atom_site_fract_z
Si Si1 0.929843 0.821392 0.257334
Si Si2 0.269637 0.685533 0.387782
Si Si3 0.834878 0.359711 0.742892
Si Si4 0.371290 0.507904 0.611372
O O1 0.900609 0.693476 0.244946
O O2 0.912334 0.880520 0.358444
O O3 0.000000 0.826021 0.250000
O O4 0.895222 0.902908 0.178764
O O5 0.273207 0.707214 0.500000
O O6 0.203040 0.675073 0.350345
O O7 0.300804 0.790790 0.328408
O O8 0.305856 0.562168 0.367765
O O9 0.834070 0.500000 0.750000
O O10 0.375016 0.478458 0.500000
#
# Coordination Sequence:
#
# PCOD9527601 Si02
#       4
#    16  16  16  16
#     4  10  21  35  53  80 112 147 188 225 266 324
#     4   9  20  36  57  82 111 141 178 229 284 331
#     4  10  22  36  54  79 112 147 181 223 272 331
#     4   9  18  34  57  83 107 138 182 235 283 317
#
# _framework density 17.98415
#
# number of rings (size 3 to 8) (size 9 to 14) (size 15 to 20)
#    0.000    2.500    0.000    1.500   10.500    4.500 
#    0.000    0.000    0.000    0.000    0.000   10.500 
#    0.000    0.000    0.000    0.000    0.000    0.000 
#
# Total GULP energy -178340.910530 kJ/mol
# GULP energy per Si atom -5573.153454 kJ/mol
# Density = 1.794322 g / cm^3
# Si number density = 17.984150 Si / 1000 Ang^3
#
#
#
# Elastic Constant Matrix: (Units=GPa)
#
#
# Indices 1 2 3 4 5 6 
#
# 1 56.6830 13.1905 8.7192 0.0000 0.0000 0.0000
# 2 13.1905 94.0572 25.4924 0.0000 0.0000 0.0000
# 3 8.7192 25.4924 91.7609 0.0000 0.0000 0.0000
# 4 0.0000 0.0000 0.0000 12.3240 0.0000 0.0000
# 5 0.0000 0.0000 0.0000 0.0000 11.4228 0.0000
# 6 0.0000 0.0000 0.0000 0.0000 0.0000 38.0505
#
#
#
# Elastic Compliance Matrix: (Units=1/GPa)
#
#
# Indices 1 2 3 4 5 6 
#
# 1 0.018341 -0.002271 -0.001112 0.000000 0.000000 0.000000
# 2 -0.002271 0.011779 -0.003057 0.000000 0.000000 0.000000
# 3 -0.001112 -0.003057 0.011853 0.000000 0.000000 0.000000
# 4 0.000000 0.000000 0.000000 0.081143 0.000000 0.000000
# 5 0.000000 0.000000 0.000000 0.000000 0.087544 0.000000
# 6 0.000000 0.000000 0.000000 0.000000 0.000000 0.026281
#
#
# Mechanical properties :
#
#
# Convention : Reuss Voigt Hill
#
# Bulk Modulus (GPa) = 34.37101 37.47835 35.92468
# Shear Modulus (GPa) = 19.26657 25.36607 22.31632
#
# Velocity S-wave (km/s) = 3.27664 3.75969 3.52645
# Velocity P-wave (km/s) = 5.78519 6.30333 6.04981
#
# Compressibility (1/GPa) = 0.02909429
#
# Stress axis : x y z
#
# Youngs Moduli (GPa) = 54.52134 84.89905 84.36905
#
# Poissons Ratio (x) = 0.19279 0.09381
# Poissons Ratio (y) = 0.12381 0.25787
# Poissons Ratio (z) = 0.06063 0.25949
#
# Static dielectric constant tensor:
#      x y z
#    x 1.617200 0.000000 0.000000 
#    y 0.000000 1.631170 0.000000 
#    z 0.000000 0.000000 1.604710 
# 
# From -- ./inp_files/18691.got.cif
#   From: 2010.05.17/outbox.cif.g08.bks.cpg/sg72_10_cif.got.tgz:18691.got - 2010.06.03 17:03:01.
