data_PCOD9527710
_publ_section_title
;
Structure prediction by ZEFSAII (Michael W. Deem and Ramdas Pophale) SiO2 
 PCOD9527710
Probable space group: I B A M
;
_chemical_formula_sum "Si O2"
_cell_formula_units_Z 104
_cell_length_a 20.692723
_cell_length_b 8.474492
_cell_length_c 26.374868
_cell_angle_alpha 90.000000
_cell_angle_beta 90.000000
_cell_angle_gamma 90.000000
_cell_volume 4625.105174
_symmetry_space_group_name_H-M "I B A M"
_symmetry_group_IT_number 72
_symmetry_cell_setting 'orthorhombic'
loop_
_space_group_symop_operation_xyz
x,y,z
-x,-y,z
x,-y,1/2-z
-x,y,1/2-z
-x,-y,-z
x,y,-z
-x,y,1/2+z
x,-y,1/2+z
1/2+x,1/2+y,1/2+z
1/2-x,1/2-y,1/2+z
1/2+x,1/2-y,-z
1/2-x,1/2+y,-z
1/2-x,1/2-y,1/2-z
1/2+x,1/2+y,1/2-z
1/2-x,1/2+y,z
1/2+x,1/2-y,z
loop_
_atom_site_type_symbol
_atom_site_label
_atom_site_fract_x
_atom_site_fract_y
_atom_site_fract_z
Si Si1 0.825834 0.029201 0.390736
Si Si2 0.693598 0.826734 0.885325
Si Si3 0.002609 0.251487 0.195554
Si Si4 0.062498 0.669857 0.500000
Si Si5 0.640270 0.844137 0.000000
Si Si6 0.388221 0.993431 0.804843
Si Si7 0.352922 0.505259 0.000000
Si Si8 0.969448 0.150605 0.590826
O O1 0.824789 0.852031 0.369016
O O2 0.810371 0.002885 0.450126
O O3 0.768667 0.141237 0.372601
O O4 0.896468 0.106051 0.393097
O O5 0.653682 0.952972 0.852294
O O6 0.677154 0.848154 0.945334
O O7 0.073259 0.330444 0.188879
O O8 0.990388 0.169838 0.142241
O O9 0.000000 0.168172 0.250000
O O10 0.947198 0.382727 0.200077
O O11 0.026909 0.700306 0.553466
O O12 0.904155 0.499739 0.500000
O O13 0.108903 0.827817 0.500000
O O14 0.610750 0.664947 0.000000
O O15 0.353511 0.000000 0.750000
O O16 0.000000 0.000000 0.563236
#
# Coordination Sequence:
#
# PCOD9527710 Si02
#       8
#    16  16  16   8   8  16   8  16
#     4  10  23  36  60  89 126 167 207 258 316 370
#     4  11  22  38  60  91 128 161 213 258 313 377
#     4   9  19  37  65  91 114 162 219 256 315 379
#     4  10  21  36  63  90 125 171 204 250 333 368
#     4  10  21  36  62  92 120 168 210 260 298 385
#     4   9  19  38  63  88 121 160 204 265 317 379
#     4   8  19  38  53  88 130 162 212 254 298 372
#     4  11  22  39  61  87 129 167 210 266 321 377
#
# _framework density 22.485976000000001
#
# number of rings (size 3 to 8) (size 9 to 14) (size 15 to 20)
#    0.000    2.154    0.000    3.462    6.462    0.308 
#    0.000    3.077    3.385   14.769    0.000    0.000 
#    0.000    0.000    0.000    0.000    0.000    0.000 
#
# Total GULP energy -289827.267717 kJ/mol
# GULP energy per Si atom -5573.601302 kJ/mol
# Density = 2.243480 g / cm^3
# Si number density = 22.485976 Si / 1000 Ang^3
#
#
#
# Elastic Constant Matrix: (Units=GPa)
#
#
# Indices 1 2 3 4 5 6 
#
# 1 81.9302 20.7854 21.0947 0.0000 0.0000 0.0000
# 2 20.7854 103.8231 27.8272 0.0000 0.0000 0.0000
# 3 21.0947 27.8272 96.9586 0.0000 0.0000 0.0000
# 4 0.0000 0.0000 0.0000 33.9778 0.0000 0.0000
# 5 0.0000 0.0000 0.0000 0.0000 4.4479 0.0000
# 6 0.0000 0.0000 0.0000 0.0000 0.0000 23.5315
#
#
#
# Elastic Compliance Matrix: (Units=1/GPa)
#
#
# Indices 1 2 3 4 5 6 
#
# 1 0.013320 -0.002047 -0.002310 0.000000 0.000000 0.000000
# 2 -0.002047 0.010749 -0.002640 0.000000 0.000000 0.000000
# 3 -0.002310 -0.002640 0.011574 0.000000 0.000000 0.000000
# 4 0.000000 0.000000 0.000000 0.029431 0.000000 0.000000
# 5 0.000000 0.000000 0.000000 0.000000 0.224826 0.000000
# 6 0.000000 0.000000 0.000000 0.000000 0.000000 0.042496
#
#
# Mechanical properties :
#
#
# Convention : Reuss Voigt Hill
#
# Bulk Modulus (GPa) = 46.19313 46.90294 46.54804
# Shear Modulus (GPa) = 14.14001 26.59175 20.36588
#
# Velocity S-wave (km/s) = 2.51038 3.44262 3.01277
# Velocity P-wave (km/s) = 5.38427 6.05856 5.73134
#
# Compressibility (1/GPa) = 0.02164824
#
# Stress axis : x y z
#
# Youngs Moduli (GPa) = 75.07645 93.03084 86.40146
#
# Poissons Ratio (x) = 0.19047 0.19961
# Poissons Ratio (y) = 0.15371 0.22806
# Poissons Ratio (z) = 0.17345 0.24556
#
# Static dielectric constant tensor:
#      x y z
#    x 1.837660 0.000000 0.000000 
#    y 0.000000 1.861530 0.000000 
#    z 0.000000 0.000000 1.915940 
# 
# From -- ./inp_files/49105.got.cif
#   From: 2010.05.17/outbox.cif.g08.bks.cpg/sg72_25_cif.got.tgz:49105.got - 2010.06.03 17:03:01.
