data_PCOD9527282
_publ_section_title
;
Structure prediction by ZEFSAII (Michael W. Deem and Ramdas Pophale) SiO2 
 PCOD9527282
Probable space group: I B A M
;
_chemical_formula_sum "Si O2"
_cell_formula_units_Z 96
_cell_length_a 16.811906
_cell_length_b 19.354098
_cell_length_c 15.145013
_cell_angle_alpha 90.000000
_cell_angle_beta 90.000000
_cell_angle_gamma 90.000000
_cell_volume 4927.873369
_symmetry_space_group_name_H-M "I B A M"
_symmetry_group_IT_number 72
_symmetry_cell_setting 'orthorhombic'
loop_
_space_group_symop_operation_xyz
x,y,z
-x,-y,z
x,-y,1/2-z
-x,y,1/2-z
-x,-y,-z
x,y,-z
-x,y,1/2+z
x,-y,1/2+z
1/2+x,1/2+y,1/2+z
1/2-x,1/2-y,1/2+z
1/2+x,1/2-y,-z
1/2-x,1/2+y,-z
1/2-x,1/2-y,1/2-z
1/2+x,1/2+y,1/2-z
1/2-x,1/2+y,z
1/2+x,1/2-y,z
loop_
_atom_site_type_symbol
_atom_site_label
_atom_site_fract_x
_atom_site_fract_y
_atom_site_fract_z
Si Si1 0.131223 0.528678 0.500000
Si Si2 0.312398 0.307116 0.223253
Si Si3 0.467223 0.886328 0.500000
Si Si4 0.536752 0.226390 0.347494
Si Si5 0.416938 0.486617 0.401531
Si Si6 0.249827 0.044388 0.334478
Si Si7 0.102768 0.174402 0.093182
O O1 0.091433 0.452396 0.500000
O O2 0.187616 0.537811 0.585663
O O3 0.057562 0.583059 0.500000
O O4 0.250000 0.250000 0.250000
O O5 0.382598 0.270855 0.166636
O O6 0.270530 0.375261 0.184311
O O7 0.348439 0.324776 0.317911
O O8 0.453660 0.838889 0.412748
O O9 0.500000 0.208288 0.250000
O O10 0.472522 0.276667 0.392635
O O11 0.500000 0.500000 0.353517
O O12 0.419072 0.519519 0.500000
O O13 0.335748 0.511093 0.358353
O O14 0.418683 0.405161 0.412674
O O15 0.279252 0.000000 0.250000
O O16 0.143150 0.194527 0.000000
#
# Coordination Sequence:
#
# PCOD9527282 Si02
#       7
#     8  16   8  16  16  16  16
#     4  11  30  47  72 101 133 184 257 291 355 412
#     4  11  26  42  63 104 135 179 226 283 355 424
#     4  11  26  51  73  99 130 190 244 307 350 403
#     4  10  23  42  72 101 139 175 233 286 349 418
#     4  10  20  37  65  98 137 180 222 263 335 423
#     4  12  25  45  70 101 150 184 226 295 357 418
#     4  10  20  40  64  94 132 177 223 271 336 409
#
# _framework density 19.481020000000001
#
# number of rings (size 3 to 8) (size 9 to 14) (size 15 to 20)
#    0.000    1.333    3.333    1.000    7.000    1.000 
#    1.500    1.667    0.000    0.000    0.000    0.000 
#    0.000    0.000    0.000    0.000    0.000    0.000 
#
# Total GULP energy -267636.405456 kJ/mol
# GULP energy per Si atom -5575.758447 kJ/mol
# Density = 1.943668 g / cm^3
# Si number density = 19.481020 Si / 1000 Ang^3
#
#
#
# Elastic Constant Matrix: (Units=GPa)
#
#
# Indices 1 2 3 4 5 6 
#
# 1 99.7245 57.2209 71.6114 0.0000 0.0000 0.0000
# 2 57.2209 147.3899 75.6884 0.0000 0.0000 0.0000
# 3 71.6114 75.6884 148.0614 0.0000 0.0000 0.0000
# 4 0.0000 0.0000 0.0000 31.5023 0.0000 0.0000
# 5 0.0000 0.0000 0.0000 0.0000 -28.0795 0.0000
# 6 0.0000 0.0000 0.0000 0.0000 0.0000 27.2629
#
#
#
# Elastic Compliance Matrix: (Units=1/GPa)
#
#
# Indices 1 2 3 4 5 6 
#
# 1 0.016345 -0.003100 -0.006321 0.000000 0.000000 0.000000
# 2 -0.003100 0.009788 -0.003504 0.000000 0.000000 0.000000
# 3 -0.006321 -0.003504 0.011602 0.000000 0.000000 0.000000
# 4 0.000000 0.000000 0.000000 0.031744 0.000000 0.000000
# 5 0.000000 0.000000 0.000000 0.000000 -0.035613 0.000000
# 6 0.000000 0.000000 0.000000 0.000000 0.000000 0.036680
#
#
# Mechanical properties :
#
#
# Convention : Reuss Voigt Hill
#
# Bulk Modulus (GPa) = 84.13546 89.35748 86.74647
# Shear Modulus (GPa) = 49.82191 18.84747 34.33469
#
# Velocity S-wave (km/s) = 5.06262 3.11381 4.20273
# Velocity P-wave (km/s) = 8.80089 7.67439 8.25687
#
# Compressibility (1/GPa) = 0.01188559
#
# Stress axis : x y z
#
# Youngs Moduli (GPa) = 61.17981 102.17011 86.18839
#
# Poissons Ratio (x) = 0.31670 0.54480
# Poissons Ratio (y) = 0.18964 0.30202
# Poissons Ratio (z) = 0.38672 0.35802
#
# Static dielectric constant tensor:
#      x y z
#    x 1.691170 0.000000 0.000000 
#    y 0.000000 1.639810 0.000000 
#    z 0.000000 0.000000 1.589040 
# 
# From -- ./inp_files/21888.got.cif
#   From: 2010.05.17/outbox.cif.g08.bks.cpg/sg72_11_cif.got.tgz:21888.got - 2010.06.03 17:03:01.
