data_PCOD9527283
_publ_section_title
;
Structure prediction by ZEFSAII (Michael W. Deem and Ramdas Pophale) SiO2 
 PCOD9527283
Probable space group: I B A M
;
_chemical_formula_sum "Si O2"
_cell_formula_units_Z 88
_cell_length_a 11.349201
_cell_length_b 10.516054
_cell_length_c 31.748885
_cell_angle_alpha 90.000000
_cell_angle_beta 90.000000
_cell_angle_gamma 90.000000
_cell_volume 3789.191662
_symmetry_space_group_name_H-M "I B A M"
_symmetry_group_IT_number 72
_symmetry_cell_setting 'orthorhombic'
loop_
_space_group_symop_operation_xyz
x,y,z
-x,-y,z
x,-y,1/2-z
-x,y,1/2-z
-x,-y,-z
x,y,-z
-x,y,1/2+z
x,-y,1/2+z
1/2+x,1/2+y,1/2+z
1/2-x,1/2-y,1/2+z
1/2+x,1/2-y,-z
1/2-x,1/2+y,-z
1/2-x,1/2-y,1/2-z
1/2+x,1/2+y,1/2-z
1/2-x,1/2+y,z
1/2+x,1/2-y,z
loop_
_atom_site_type_symbol
_atom_site_label
_atom_site_fract_x
_atom_site_fract_y
_atom_site_fract_z
Si Si1 0.524291 0.809502 0.428356
Si Si2 0.708701 0.153247 0.000000
Si Si3 0.029815 0.851774 0.704954
Si Si4 0.752978 0.401049 0.153091
Si Si5 0.859722 0.382132 0.000000
Si Si6 0.500000 0.000000 0.645880
Si Si7 0.869338 0.158690 0.875586
O O1 0.635539 0.804040 0.458756
O O2 0.433328 0.888837 0.457265
O O3 0.541199 0.888084 0.385658
O O4 0.461630 0.679281 0.413444
O O5 0.821355 0.237730 0.000000
O O6 0.725464 0.002381 0.000000
O O7 0.164477 0.848731 0.688903
O O8 0.000000 0.789955 0.750000
O O9 0.942765 0.814892 0.667321
O O10 0.000000 0.000000 0.709152
O O11 0.879647 0.456514 0.168491
O O12 0.781016 0.279871 0.123357
O O13 0.688745 0.519988 0.129615
#
# Coordination Sequence:
#
# PCOD9527283 Si02
#       7
#    16   8  16  16   8   8  16
#     4  10  21  40  63  91 131 181 224 279 345 410
#     4  11  23  43  64  94 136 174 232 279 354 413
#     4   9  20  43  67  95 138 184 223 279 355 417
#     4  10  23  38  66  99 130 173 227 278 337 412
#     4  11  23  39  66  90 132 183 223 283 351 409
#     4  10  20  37  66  93 136 170 228 280 335 407
#     4  10  23  39  68  96 130 175 230 281 339 410
#
# _framework density 23.223951
#
# number of rings (size 3 to 8) (size 9 to 14) (size 15 to 20)
#    0.000    2.000    1.818    0.545    7.636    2.182 
#    0.000    3.636    0.000    0.000    0.000    0.000 
#    0.000    0.000    0.000    0.000    0.000    0.000 
#
# Total GULP energy -245425.867785 kJ/mol
# GULP energy per Si atom -5577.860631 kJ/mol
# Density = 2.317109 g / cm^3
# Si number density = 23.223951 Si / 1000 Ang^3
#
#
#
# Elastic Constant Matrix: (Units=GPa)
#
#
# Indices 1 2 3 4 5 6 
#
# 1 59.1223 1.8595 16.3712 0.0000 0.0000 0.0000
# 2 1.8595 85.3878 21.0415 0.0000 0.0000 0.0000
# 3 16.3712 21.0415 81.7439 0.0000 0.0000 0.0000
# 4 0.0000 0.0000 0.0000 26.0090 0.0000 0.0000
# 5 0.0000 0.0000 0.0000 0.0000 -44.9251 0.0000
# 6 0.0000 0.0000 0.0000 0.0000 0.0000 38.0117
#
#
#
# Elastic Compliance Matrix: (Units=1/GPa)
#
#
# Indices 1 2 3 4 5 6 
#
# 1 0.017929 0.000528 -0.003727 0.000000 0.000000 0.000000
# 2 0.000528 0.012520 -0.003328 0.000000 0.000000 0.000000
# 3 -0.003727 -0.003328 0.013836 0.000000 0.000000 0.000000
# 4 0.000000 0.000000 0.000000 0.038448 0.000000 0.000000
# 5 0.000000 0.000000 0.000000 0.000000 -0.022259 0.000000
# 6 0.000000 0.000000 0.000000 0.000000 0.000000 0.026308
#
#
# Mechanical properties :
#
#
# Convention : Reuss Voigt Hill
#
# Bulk Modulus (GPa) = 32.01912 33.86651 32.94281
# Shear Modulus (GPa) = 45.35253 16.28458 30.81856
#
# Velocity S-wave (km/s) = 4.42388 2.65089 3.64678
# Velocity P-wave (km/s) = 6.31754 4.89733 5.65222
#
# Compressibility (1/GPa) = 0.03123134
#
# Stress axis : x y z
#
# Youngs Moduli (GPa) = 55.77427 79.87228 72.27286
#
# Poissons Ratio (x) = -0.04216 0.26934
# Poissons Ratio (y) = -0.02944 0.24056
# Poissons Ratio (z) = 0.20785 0.26585
#
# Static dielectric constant tensor:
#      x y z
#    x 1.972580 0.000000 0.000000 
#    y 0.000000 1.968520 0.000000 
#    z 0.000000 0.000000 1.933900 
# 
# From -- ./inp_files/51328.got.cif
#   From: 2010.05.17/outbox.cif.g08.bks.cpg/sg72_26_cif.got.tgz:51328.got - 2010.06.03 17:03:01.
