data_PCOD9527720
_publ_section_title
;
Structure prediction by ZEFSAII (Michael W. Deem and Ramdas Pophale) SiO2 
 PCOD9527720
Probable space group: I B A M
;
_chemical_formula_sum "Si O2"
_cell_formula_units_Z 96
_cell_length_a 15.627528
_cell_length_b 20.144169
_cell_length_c 14.406026
_cell_angle_alpha 90.000000
_cell_angle_beta 90.000000
_cell_angle_gamma 90.000000
_cell_volume 4535.068343
_symmetry_space_group_name_H-M "I B A M"
_symmetry_group_IT_number 72
_symmetry_cell_setting 'orthorhombic'
loop_
_space_group_symop_operation_xyz
x,y,z
-x,-y,z
x,-y,1/2-z
-x,y,1/2-z
-x,-y,-z
x,y,-z
-x,y,1/2+z
x,-y,1/2+z
1/2+x,1/2+y,1/2+z
1/2-x,1/2-y,1/2+z
1/2+x,1/2-y,-z
1/2-x,1/2+y,-z
1/2-x,1/2-y,1/2-z
1/2+x,1/2+y,1/2-z
1/2-x,1/2+y,z
1/2+x,1/2-y,z
loop_
_atom_site_type_symbol
_atom_site_label
_atom_site_fract_x
_atom_site_fract_y
_atom_site_fract_z
Si Si1 0.937490 0.060943 0.112814
Si Si2 0.984051 0.200848 0.613632
Si Si3 0.607890 0.182166 0.612834
Si Si4 0.702687 0.331157 0.886456
Si Si5 0.219116 0.981865 0.392751
Si Si6 0.412790 0.028134 0.146768
O O1 0.972824 0.131698 0.144507
O O2 0.842910 0.038839 0.145229
O O3 0.938378 0.066079 0.000000
O O4 0.000000 0.000000 0.137269
O O5 0.984169 0.200954 0.500000
O O6 0.040581 0.263015 0.643602
O O7 0.885077 0.202927 0.643164
O O8 0.606950 0.179978 0.500000
O O9 0.705593 0.198132 0.641648
O O10 0.585869 0.107814 0.644547
O O11 0.702326 0.408135 0.854441
O O12 0.702714 0.331295 0.000000
O O13 0.193198 0.976029 0.500000
O O14 0.320404 0.993952 0.391431
O O15 0.500000 0.000000 0.102929
O O16 0.411644 0.000000 0.250000
#
# Coordination Sequence:
#
# PCOD9527720 Si02
#       6
#    16  16  16  16  16  16
#     4   9  14  23  44  77 111 138 165 200 250 309
#     4   9  15  25  43  72 110 141 163 200 254 307
#     4   9  18  31  49  77 107 133 170 214 257 308
#     4   8  13  24  42  66 102 141 165 195 251 297
#     4   9  16  28  50  79 105 130 168 217 257 302
#     4  10  21  37  54  70  91 136 179 219 264 313
#
# _framework density 21.168368999999998
#
# number of rings (size 3 to 8) (size 9 to 14) (size 15 to 20)
#    0.000    3.000    1.667    1.500    0.000    1.333 
#    3.000    0.000    0.000    1.500    4.333    0.000 
#    0.000    0.000    0.000    0.000    0.000    0.000 
#
# Total GULP energy -267691.195257 kJ/mol
# GULP energy per Si atom -5576.899901 kJ/mol
# Density = 2.112019 g / cm^3
# Si number density = 21.168369 Si / 1000 Ang^3
#
#
#
# Elastic Constant Matrix: (Units=GPa)
#
#
# Indices 1 2 3 4 5 6 
#
# 1 227.5099 114.2336 6.4034 0.0000 0.0000 0.0000
# 2 114.2336 118.4962 12.6390 0.0000 0.0000 0.0000
# 3 6.4034 12.6390 53.6455 0.0000 0.0000 0.0000
# 4 0.0000 0.0000 0.0000 3613.9593 0.0003 0.0000
# 5 0.0000 0.0000 0.0000 0.0003 76.4410 0.0000
# 6 0.0000 0.0000 0.0000 0.0000 0.0000 33.6423
#
#
#
# Elastic Compliance Matrix: (Units=1/GPa)
#
#
# Indices 1 2 3 4 5 6 
#
# 1 0.008566 -0.008358 0.000947 0.000000 0.000000 0.000000
# 2 -0.008358 0.016813 -0.002963 0.000000 0.000000 0.000000
# 3 0.000947 -0.002963 0.019226 0.000000 0.000000 0.000000
# 4 0.000000 0.000000 0.000000 0.000277 0.000000 0.000000
# 5 0.000000 0.000000 0.000000 0.000000 0.013082 0.000000
# 6 0.000000 0.000000 0.000000 0.000000 0.000000 0.029724
#
#
# Mechanical properties :
#
#
# Convention : Reuss Voigt Hill
#
# Bulk Modulus (GPa) = 41.92092 74.02264 57.97178
# Shear Modulus (GPa) = 42.95926 762.56690 402.76308
#
# Velocity S-wave (km/s) = 4.50978 19.00055 13.80868
# Velocity P-wave (km/s) = 6.85303 22.72456 16.78347
#
# Compressibility (1/GPa) = 0.02385444
#
# Stress axis : x y z
#
# Youngs Moduli (GPa) = 116.74648 59.47802 52.01274
#
# Poissons Ratio (x) = 0.49714 -0.04925
# Poissons Ratio (y) = 0.97582 0.15414
# Poissons Ratio (z) = -0.11054 0.17626
#
# Static dielectric constant tensor:
#      x y z
#    x 1.802700 0.000000 0.000000 
#    y 0.000000 1.718960 0.000000 
#    z 0.000000 0.000000 1.867530 
# 
# From -- ./inp_files/21857.got.cif
#   From: 2010.05.17/outbox.cif.g08.bks.cpg/sg72_11_cif.got.tgz:21857.got - 2010.06.03 17:03:01.
