data_PCOD9527904
_publ_section_title
;
Structure prediction by ZEFSAII (Michael W. Deem and Ramdas Pophale) SiO2 
 PCOD9527904
Probable space group: I B A M
;
_chemical_formula_sum "Si O2"
_cell_formula_units_Z 96
_cell_length_a 13.566329
_cell_length_b 20.115088
_cell_length_c 17.676460
_cell_angle_alpha 90.000000
_cell_angle_beta 90.000000
_cell_angle_gamma 90.000000
_cell_volume 4823.692078
_symmetry_space_group_name_H-M "I B A M"
_symmetry_group_IT_number 72
_symmetry_cell_setting 'orthorhombic'
loop_
_space_group_symop_operation_xyz
x,y,z
-x,-y,z
x,-y,1/2-z
-x,y,1/2-z
-x,-y,-z
x,y,-z
-x,y,1/2+z
x,-y,1/2+z
1/2+x,1/2+y,1/2+z
1/2-x,1/2-y,1/2+z
1/2+x,1/2-y,-z
1/2-x,1/2+y,-z
1/2-x,1/2-y,1/2-z
1/2+x,1/2+y,1/2-z
1/2-x,1/2+y,z
1/2+x,1/2-y,z
loop_
_atom_site_type_symbol
_atom_site_label
_atom_site_fract_x
_atom_site_fract_y
_atom_site_fract_z
Si Si1 0.824934 0.246286 0.913302
Si Si2 0.014896 0.421115 0.584896
Si Si3 0.681489 0.373729 0.087660
Si Si4 0.477021 0.290192 0.331092
Si Si5 0.341803 0.837088 0.842042
Si Si6 0.688137 0.068901 0.704370
O O1 0.762020 0.313950 0.904869
O O2 0.749835 0.187971 0.890700
O O3 0.923069 0.239814 0.864816
O O4 0.854240 0.240499 0.000000
O O5 0.045071 0.397665 0.500000
O O6 0.094300 0.414730 0.651558
O O7 0.000000 0.500000 0.579678
O O8 0.915900 0.383899 0.610693
O O9 0.578607 0.341281 0.113757
O O10 0.719893 0.428679 0.146677
O O11 0.679367 0.394644 0.000000
O O12 0.500000 0.321657 0.250000
O O13 0.403400 0.228206 0.319188
O O14 0.304537 0.874778 0.767981
O O15 0.676288 0.000000 0.750000
#
# Coordination Sequence:
#
# PCOD9527904 Si02
#       6
#    16  16  16  16  16  16
#     4  10  21  38  60  88 120 156 195 245 305 358
#     4  11  22  36  55  84 120 159 196 234 288 350
#     4  10  22  39  60  88 121 157 198 244 301 361
#     4  11  21  36  61  90 121 155 198 251 304 355
#     4  11  22  37  59  90 124 157 199 246 295 359
#     4  12  23  38  59  85 120 161 199 245 294 355
#
# _framework density 19.901769000000002
#
# number of rings (size 3 to 8) (size 9 to 14) (size 15 to 20)
#    0.000    1.167    1.667    6.000    0.000    6.000 
#    0.000    0.000    0.000    4.500    0.000    5.833 
#    0.000    0.000    0.000    0.000    0.000    0.000 
#
# Total GULP energy -268302.212788 kJ/mol
# GULP energy per Si atom -5589.629433 kJ/mol
# Density = 1.985647 g / cm^3
# Si number density = 19.901769 Si / 1000 Ang^3
#
#
#
# Elastic Constant Matrix: (Units=GPa)
#
#
# Indices 1 2 3 4 5 6 
#
# 1 58.7059 7.9604 19.5288 0.0000 0.0000 0.0000
# 2 7.9604 28.3327 31.7614 0.0000 0.0000 0.0000
# 3 19.5288 31.7614 129.3307 0.0000 0.0000 0.0000
# 4 0.0000 0.0000 0.0000 26.2398 0.0000 0.0000
# 5 0.0000 0.0000 0.0000 0.0000 35.8341 0.0000
# 6 0.0000 0.0000 0.0000 0.0000 0.0000 27.0424
#
#
#
# Elastic Compliance Matrix: (Units=1/GPa)
#
#
# Indices 1 2 3 4 5 6 
#
# 1 0.018093 -0.002789 -0.002047 0.000000 0.000000 0.000000
# 2 -0.002789 0.049133 -0.011645 0.000000 0.000000 0.000000
# 3 -0.002047 -0.011645 0.010901 0.000000 0.000000 0.000000
# 4 0.000000 0.000000 0.000000 0.038110 0.000000 0.000000
# 5 0.000000 0.000000 0.000000 0.000000 0.027906 0.000000
# 6 0.000000 0.000000 0.000000 0.000000 0.000000 0.036979
#
#
# Mechanical properties :
#
#
# Convention : Reuss Voigt Hill
#
# Bulk Modulus (GPa) = 22.14089 37.20783 29.67436
# Shear Modulus (GPa) = 21.82079 28.29784 25.05931
#
# Velocity S-wave (km/s) = 3.31482 3.77487 3.55230
# Velocity P-wave (km/s) = 5.07937 6.14295 5.63630
#
# Compressibility (1/GPa) = 0.04516530
#
# Stress axis : x y z
#
# Youngs Moduli (GPa) = 55.26939 20.35303 91.73411
#
# Poissons Ratio (x) = 0.05676 0.18780
# Poissons Ratio (y) = 0.15412 1.06825
# Poissons Ratio (z) = 0.11315 0.23701
#
# Static dielectric constant tensor:
#      x y z
#    x 1.692940 0.000000 0.000000 
#    y 0.000000 1.700930 0.000000 
#    z 0.000000 0.000000 1.711920 
# 
# From -- ./inp_files/21838.got.cif
#   From: 2010.05.17/outbox.cif.g08.bks.cpg/sg72_11_cif.got.tgz:21838.got - 2010.06.03 17:03:01.
