data_PCOD9527535
_publ_section_title
;
Structure prediction by ZEFSAII (Michael W. Deem and Ramdas Pophale) SiO2 
 PCOD9527535
Probable space group: I B A M
;
_chemical_formula_sum "Si O2"
_cell_formula_units_Z 128
_cell_length_a 17.735861
_cell_length_b 22.479241
_cell_length_c 20.047474
_cell_angle_alpha 90.000000
_cell_angle_beta 90.000000
_cell_angle_gamma 90.000000
_cell_volume 7992.701222
_symmetry_space_group_name_H-M "I B A M"
_symmetry_group_IT_number 72
_symmetry_cell_setting 'orthorhombic'
loop_
_space_group_symop_operation_xyz
x,y,z
-x,-y,z
x,-y,1/2-z
-x,y,1/2-z
-x,-y,-z
x,y,-z
-x,y,1/2+z
x,-y,1/2+z
1/2+x,1/2+y,1/2+z
1/2-x,1/2-y,1/2+z
1/2+x,1/2-y,-z
1/2-x,1/2+y,-z
1/2-x,1/2-y,1/2-z
1/2+x,1/2+y,1/2-z
1/2-x,1/2+y,z
1/2+x,1/2-y,z
loop_
_atom_site_type_symbol
_atom_site_label
_atom_site_fract_x
_atom_site_fract_y
_atom_site_fract_z
Si Si1 0.276945 0.932330 0.734224
Si Si2 0.408626 0.929899 0.624559
Si Si3 0.205710 0.231387 0.351447
Si Si4 0.573546 0.203322 0.577160
Si Si5 0.668521 0.854274 0.643736
Si Si6 0.449656 0.241787 0.683443
Si Si7 0.567482 0.943391 0.575356
Si Si8 0.177552 0.824745 0.291023
O O1 0.350987 0.930677 0.686366
O O2 0.300566 0.900921 0.802900
O O3 0.207820 0.892153 0.706467
O O4 0.256438 0.000000 0.750000
O O5 0.402183 0.865212 0.590878
O O6 0.500345 0.935122 0.629763
O O7 0.394762 0.991951 0.585252
O O8 0.142014 0.255291 0.399414
O O9 0.264046 0.185583 0.383911
O O10 0.173396 0.198176 0.285747
O O11 0.255249 0.286471 0.324352
O O12 0.555386 0.209741 0.500000
O O13 0.503462 0.223394 0.622732
O O14 0.613921 0.809625 0.684566
O O15 0.624187 0.890251 0.588282
O O16 0.500000 0.242044 0.750000
O O17 0.401517 0.302915 0.677528
O O18 0.536433 0.939435 0.500000
#
# Coordination Sequence:
#
# PCOD9527535 Si02
#       8
#    16  16  16  16  16  16  16  16
#     4  11  20  34  55  80 100 131 177 229 260 309
#     4  11  21  35  48  70 109 144 173 211 258 306
#     4   9  18  34  51  75 103 137 170 221 265 314
#     4  12  22  34  54  81 109 141 182 220 264 324
#     4  10  21  32  51  78 103 131 178 217 254 308
#     4  11  20  34  56  79 104 145 173 218 272 324
#     4  11  22  35  46  64 105 153 179 204 248 309
#     4   9  18  34  54  75 106 132 175 218 275 312
#
# _framework density 16.014610999999999
#
# number of rings (size 3 to 8) (size 9 to 14) (size 15 to 20)
#    0.000    1.500    5.000    3.000    0.000    0.500 
#    0.000    1.875    0.000    0.375    0.000    0.000 
#    0.000    4.000    0.000    0.000    0.000    0.000 
#
# Total GULP energy -356454.110076 kJ/mol
# GULP energy per Si atom -5569.595470 kJ/mol
# Density = 1.597816 g / cm^3
# Si number density = 16.014611 Si / 1000 Ang^3
#
#
#
# Elastic Constant Matrix: (Units=GPa)
#
#
# Indices 1 2 3 4 5 6 
#
# 1 61.6816 58.6619 18.2566 0.0000 0.0000 0.0000
# 2 58.6619 125.1728 33.4348 0.0000 0.0000 0.0000
# 3 18.2566 33.4348 52.0037 0.0000 0.0000 0.0000
# 4 0.0000 0.0000 0.0000 12.5537 0.0000 0.0000
# 5 0.0000 0.0000 0.0000 0.0000 16.4998 0.0000
# 6 0.0000 0.0000 0.0000 0.0000 0.0000 32.7199
#
#
#
# Elastic Compliance Matrix: (Units=1/GPa)
#
#
# Indices 1 2 3 4 5 6 
#
# 1 0.029382 -0.013298 -0.001765 0.000000 0.000000 0.000000
# 2 -0.013298 0.015664 -0.005402 0.000000 0.000000 0.000000
# 3 -0.001765 -0.005402 0.023322 0.000000 0.000000 0.000000
# 4 0.000000 0.000000 0.000000 0.079658 0.000000 0.000000
# 5 0.000000 0.000000 0.000000 0.000000 0.060607 0.000000
# 6 0.000000 0.000000 0.000000 0.000000 0.000000 0.030562
#
#
# Mechanical properties :
#
#
# Convention : Reuss Voigt Hill
#
# Bulk Modulus (GPa) = 36.44711 51.06272 43.75492
# Shear Modulus (GPa) = 17.28472 20.92168 19.10320
#
# Velocity S-wave (km/s) = 3.28885 3.61835 3.45753
# Velocity P-wave (km/s) = 6.10165 7.02929 6.58183
#
# Compressibility (1/GPa) = 0.02743702
#
# Stress axis : x y z
#
# Youngs Moduli (GPa) = 34.03451 63.83981 42.87715
#
# Poissons Ratio (x) = 0.84896 0.07568
# Poissons Ratio (y) = 0.45260 0.23164
# Poissons Ratio (z) = 0.06007 0.34489
#
# Static dielectric constant tensor:
#      x y z
#    x 1.552060 0.000000 0.000000 
#    y 0.000000 1.559320 0.000000 
#    z 0.000000 0.000000 1.533420 
# 
# From -- ./inp_files/39364.got.cif
#   From: 2010.05.17/outbox.cif.g08.bks.cpg/sg72_20_cif.got.tgz:39364.got - 2010.06.03 17:03:01.
