data_PCOD9527449
_publ_section_title
;
Structure prediction by ZEFSAII (Michael W. Deem and Ramdas Pophale) SiO2 
 PCOD9527449
Probable space group: I B A M
;
_chemical_formula_sum "Si O2"
_cell_formula_units_Z 120
_cell_length_a 14.133115
_cell_length_b 14.963236
_cell_length_c 28.301328
_cell_angle_alpha 90.000000
_cell_angle_beta 90.000000
_cell_angle_gamma 90.000000
_cell_volume 5985.083767
_symmetry_space_group_name_H-M "I B A M"
_symmetry_group_IT_number 72
_symmetry_cell_setting 'orthorhombic'
loop_
_space_group_symop_operation_xyz
x,y,z
-x,-y,z
x,-y,1/2-z
-x,y,1/2-z
-x,-y,-z
x,y,-z
-x,y,1/2+z
x,-y,1/2+z
1/2+x,1/2+y,1/2+z
1/2-x,1/2-y,1/2+z
1/2+x,1/2-y,-z
1/2-x,1/2+y,-z
1/2-x,1/2-y,1/2-z
1/2+x,1/2+y,1/2-z
1/2-x,1/2+y,z
1/2+x,1/2-y,z
loop_
_atom_site_type_symbol
_atom_site_label
_atom_site_fract_x
_atom_site_fract_y
_atom_site_fract_z
Si Si1 0.759761 0.280304 0.554054
Si Si2 0.544243 0.238556 0.650004
Si Si3 0.200398 0.371334 0.382932
Si Si4 0.000000 0.000000 0.080404
Si Si5 0.655212 0.288528 0.806890
Si Si6 0.970247 0.197648 0.551260
Si Si7 0.308776 0.355195 0.789469
Si Si8 0.296445 0.448474 0.880191
O O1 0.738517 0.306848 0.500000
O O2 0.704365 0.192643 0.571624
O O3 0.868908 0.246920 0.555440
O O4 0.735810 0.360013 0.590828
O O5 0.600503 0.145521 0.643322
O O6 0.444306 0.250881 0.675477
O O7 0.527054 0.274679 0.597411
O O8 0.616227 0.299327 0.679498
O O9 0.284078 0.333148 0.348796
O O10 0.228208 0.471175 0.395133
O O11 0.094371 0.972246 0.108877
O O12 0.967277 0.910487 0.053224
O O13 0.651185 0.358216 0.763369
O O14 0.713298 0.202971 0.788471
O O15 0.010557 0.222520 0.500000
O O16 0.288137 0.437842 0.823505
#
# Coordination Sequence:
#
# PCOD9527449 Si02
#       8
#    16  16  16   8  16  16  16  16
#     4  11  23  42  63  88 133 177 217 277 342 398
#     4  11  19  39  61  91 125 169 214 265 335 394
#     4  11  23  39  65  93 133 171 220 277 330 404
#     4  12  21  38  66  93 132 162 227 280 329 398
#     4  10  20  40  63  92 126 168 219 269 322 407
#     4  11  22  38  64  93 126 170 218 276 332 394
#     4  10  21  37  65  91 125 169 210 270 333 384
#     4  12  23  41  63 100 132 175 221 279 339 404
#
# _framework density 20.049845999999999
#
# number of rings (size 3 to 8) (size 9 to 14) (size 15 to 20)
#    0.000    1.067    6.667    0.600    0.000    3.733 
#    0.000    2.667    0.000    1.600    0.000   11.200 
#    0.000    0.000    0.000    0.000    0.000    0.000 
#
# Total GULP energy -334581.989238 kJ/mol
# GULP energy per Si atom -5576.366487 kJ/mol
# Density = 2.000421 g / cm^3
# Si number density = 20.049846 Si / 1000 Ang^3
#
#
#
# Elastic Constant Matrix: (Units=GPa)
#
#
# Indices 1 2 3 4 5 6 
#
# 1 114.1929 41.2888 32.3008 0.0000 0.0000 0.0000
# 2 41.2888 90.7636 25.5938 0.0000 0.0000 0.0000
# 3 32.3008 25.5938 112.2302 0.0000 0.0000 0.0000
# 4 0.0000 0.0000 0.0000 18.2401 0.0000 0.0000
# 5 0.0000 0.0000 0.0000 0.0000 16.8955 0.0000
# 6 0.0000 0.0000 0.0000 0.0000 0.0000 22.4117
#
#
#
# Elastic Compliance Matrix: (Units=1/GPa)
#
#
# Indices 1 2 3 4 5 6 
#
# 1 0.010947 -0.004373 -0.002154 0.000000 0.000000 0.000000
# 2 -0.004373 0.013521 -0.001825 0.000000 0.000000 0.000000
# 3 -0.002154 -0.001825 0.009946 0.000000 0.000000 0.000000
# 4 0.000000 0.000000 0.000000 0.054824 0.000000 0.000000
# 5 0.000000 0.000000 0.000000 0.000000 0.059187 0.000000
# 6 0.000000 0.000000 0.000000 0.000000 0.000000 0.044620
#
#
# Mechanical properties :
#
#
# Convention : Reuss Voigt Hill
#
# Bulk Modulus (GPa) = 56.45754 57.28374 56.87064
# Shear Modulus (GPa) = 23.18541 26.04301 24.61421
#
# Velocity S-wave (km/s) = 3.40426 3.60795 3.50759
# Velocity P-wave (km/s) = 6.60846 6.78153 6.69555
#
# Compressibility (1/GPa) = 0.01771243
#
# Stress axis : x y z
#
# Youngs Moduli (GPa) = 91.34655 73.95667 100.54036
#
# Poissons Ratio (x) = 0.32339 0.21652
# Poissons Ratio (y) = 0.39943 0.18349
# Poissons Ratio (z) = 0.19672 0.13497
#
# Static dielectric constant tensor:
#      x y z
#    x 1.739340 0.000000 0.000000 
#    y 0.000000 1.727200 0.000000 
#    z 0.000000 0.000000 1.754830 
# 
# From -- ./inp_files/51892.got.cif
#   From: 2010.05.17/outbox.cif.g08.bks.cpg/sg72_26_cif.got.tgz:51892.got - 2010.06.03 17:03:01.
