data_PCOD9527832
_publ_section_title
;
Structure prediction by ZEFSAII (Michael W. Deem and Ramdas Pophale) SiO2 
 PCOD9527832
Probable space group: I B A M
;
_chemical_formula_sum "Si O2"
_cell_formula_units_Z 72
_cell_length_a 8.280382
_cell_length_b 13.797235
_cell_length_c 28.493218
_cell_angle_alpha 90.000000
_cell_angle_beta 90.000000
_cell_angle_gamma 90.000000
_cell_volume 3255.246907
_symmetry_space_group_name_H-M "I B A M"
_symmetry_group_IT_number 72
_symmetry_cell_setting 'orthorhombic'
loop_
_space_group_symop_operation_xyz
x,y,z
-x,-y,z
x,-y,1/2-z
-x,y,1/2-z
-x,-y,-z
x,y,-z
-x,y,1/2+z
x,-y,1/2+z
1/2+x,1/2+y,1/2+z
1/2-x,1/2-y,1/2+z
1/2+x,1/2-y,-z
1/2-x,1/2+y,-z
1/2-x,1/2-y,1/2-z
1/2+x,1/2+y,1/2-z
1/2-x,1/2+y,z
1/2+x,1/2-y,z
loop_
_atom_site_type_symbol
_atom_site_label
_atom_site_fract_x
_atom_site_fract_y
_atom_site_fract_z
Si Si1 0.752612 0.000000 0.750000
Si Si2 0.661876 0.359511 0.397882
Si Si3 0.828597 0.858581 0.500000
Si Si4 0.000000 0.500000 0.319538
Si Si5 0.439277 0.865033 0.500000
Si Si6 0.449152 0.137657 0.898184
Si Si7 0.000000 0.000000 0.823482
O O1 0.627995 0.946863 0.714674
O O2 0.871961 0.048956 0.712552
O O3 0.609887 0.395737 0.449958
O O4 0.610966 0.247139 0.393832
O O5 0.856028 0.362569 0.397166
O O6 0.583399 0.421978 0.356996
O O7 0.633986 0.865605 0.500000
O O8 0.875978 0.744929 0.500000
O O9 0.094635 0.428173 0.354122
O O10 0.390074 0.904326 0.551253
#
# Coordination Sequence:
#
# PCOD9527832 Si02
#       7
#     8  16   8   8   8  16   8
#     4  10  24  42  62  80 116 152 192 262 298 336
#     4  10  21  37  62  90 120 156 192 234 287 352
#     4   8  16  33  54  86 123 151 185 229 279 341
#     4  11  22  43  62  82 116 153 198 245 302 340
#     4   8  16  33  54  86 123 151 185 229 279 341
#     4  10  21  37  62  90 120 156 192 234 287 352
#     4  11  22  43  62  82 116 153 198 245 302 340
#
# _framework density 22.118137000000001
#
# number of rings (size 3 to 8) (size 9 to 14) (size 15 to 20)
#    0.000    2.222    2.222    0.000    3.111    0.889 
#    0.000    6.667    0.000    0.000    0.000    0.000 
#    0.000    0.000    0.000    0.000    0.000    0.000 
#
# Total GULP energy -200520.438271 kJ/mol
# GULP energy per Si atom -5570.012174 kJ/mol
# Density = 2.206780 g / cm^3
# Si number density = 22.118137 Si / 1000 Ang^3
#
#
#
# Elastic Constant Matrix: (Units=GPa)
#
#
# Indices 1 2 3 4 5 6 
#
# 1 48.3703 15.8843 52.5964 0.0000 0.0000 0.0000
# 2 15.8843 66.3986 38.9460 0.0000 0.0000 0.0000
# 3 52.5964 38.9460 205.5563 0.0000 0.0000 0.0000
# 4 0.0000 0.0000 0.0000 24.0892 0.0000 0.0000
# 5 0.0000 0.0000 0.0000 0.0000 43.0312 0.0000
# 6 0.0000 0.0000 0.0000 0.0000 0.0000 26.4195
#
#
#
# Elastic Compliance Matrix: (Units=1/GPa)
#
#
# Indices 1 2 3 4 5 6 
#
# 1 0.029139 -0.002922 -0.006902 0.000000 0.000000 0.000000
# 2 -0.002922 0.017237 -0.002518 0.000000 0.000000 0.000000
# 3 -0.006902 -0.002518 0.007108 0.000000 0.000000 0.000000
# 4 0.000000 0.000000 0.000000 0.041512 0.000000 0.000000
# 5 0.000000 0.000000 0.000000 0.000000 0.023239 0.000000
# 6 0.000000 0.000000 0.000000 0.000000 0.000000 0.037851
#
#
# Mechanical properties :
#
#
# Convention : Reuss Voigt Hill
#
# Bulk Modulus (GPa) = 34.72420 59.46428 47.09424
# Shear Modulus (GPa) = 26.26467 32.90121 29.58294
#
# Velocity S-wave (km/s) = 3.44971 3.86102 3.66115
# Velocity P-wave (km/s) = 5.62146 6.84251 6.26182
#
# Compressibility (1/GPa) = 0.02879836
#
# Stress axis : x y z
#
# Youngs Moduli (GPa) = 34.31865 58.01611 140.68652
#
# Poissons Ratio (x) = 0.16954 0.97104
# Poissons Ratio (y) = 0.10029 0.35425
# Poissons Ratio (z) = 0.23687 0.14609
#
# Static dielectric constant tensor:
#      x y z
#    x 1.857860 0.000000 0.000000 
#    y 0.000000 1.432780 0.000000 
#    z 0.000000 0.000000 1.885550 
# 
# From -- ./inp_files/47077.got.cif
#   From: 2010.05.17/outbox.cif.g08.bks.cpg/sg72_24_cif.got.tgz:47077.got - 2010.06.03 17:03:01.
