data_PCOD9527887
_publ_section_title
;
Structure prediction by ZEFSAII (Michael W. Deem and Ramdas Pophale) SiO2 
 PCOD9527887
Probable space group: I B A M
;
_chemical_formula_sum "Si O2"
_cell_formula_units_Z 112
_cell_length_a 16.487890
_cell_length_b 12.719475
_cell_length_c 27.009949
_cell_angle_alpha 90.000000
_cell_angle_beta 90.000000
_cell_angle_gamma 90.000000
_cell_volume 5664.453703
_symmetry_space_group_name_H-M "I B A M"
_symmetry_group_IT_number 72
_symmetry_cell_setting 'orthorhombic'
loop_
_space_group_symop_operation_xyz
x,y,z
-x,-y,z
x,-y,1/2-z
-x,y,1/2-z
-x,-y,-z
x,y,-z
-x,y,1/2+z
x,-y,1/2+z
1/2+x,1/2+y,1/2+z
1/2-x,1/2-y,1/2+z
1/2+x,1/2-y,-z
1/2-x,1/2+y,-z
1/2-x,1/2-y,1/2-z
1/2+x,1/2+y,1/2-z
1/2-x,1/2+y,z
1/2+x,1/2-y,z
loop_
_atom_site_type_symbol
_atom_site_label
_atom_site_fract_x
_atom_site_fract_y
_atom_site_fract_z
Si Si1 0.952039 0.896850 0.870125
Si Si2 0.104894 0.779688 0.159316
Si Si3 0.629879 0.047052 0.696822
Si Si4 0.092045 0.481574 0.089268
Si Si5 0.642943 0.750745 0.557810
Si Si6 0.681290 0.511711 0.193684
Si Si7 0.668485 0.196181 0.557383
O O1 0.916959 0.824062 0.912510
O O2 0.015987 0.831086 0.837317
O O3 0.876044 0.939725 0.839477
O O4 0.000000 0.000000 0.888495
O O5 0.113327 0.671167 0.189277
O O6 0.168599 0.867844 0.176903
O O7 0.120120 0.755667 0.100994
O O8 0.591982 0.991235 0.648873
O O9 0.726162 0.025587 0.691539
O O10 0.604590 0.000000 0.750000
O O11 0.126381 0.369604 0.074185
O O12 0.147249 0.574313 0.067030
O O13 0.000000 0.500000 0.071598
O O14 0.626801 0.741553 0.500000
O O15 0.736607 0.718951 0.566088
O O16 0.653396 0.500000 0.250000
O O17 0.649207 0.223400 0.500000
#
# Coordination Sequence:
#
# PCOD9527887 Si02
#       7
#    16  16  16  16  16  16  16
#     4  10  22  39  59  86 118 153 195 244 293 349
#     4  10  21  38  59  87 120 153 192 242 295 346
#     4  10  22  39  62  91 119 152 196 245 292 341
#     4  11  23  40  61  88 124 160 197 244 300 365
#     4  11  23  39  62  88 117 159 201 243 299 355
#     4  10  22  40  63  86 114 157 200 236 287 356
#     4  10  22  40  61  85 116 155 199 244 291 351
#
# _framework density 19.772428000000001
#
# number of rings (size 3 to 8) (size 9 to 14) (size 15 to 20)
#    0.000    1.714    0.000    4.714    0.000   10.571 
#    0.000    7.857    0.000    0.000    0.000    0.000 
#    0.000    0.000    0.000    0.000    0.000    0.000 
#
# Total GULP energy -312935.346978 kJ/mol
# GULP energy per Si atom -5588.131196 kJ/mol
# Density = 1.972742 g / cm^3
# Si number density = 19.772428 Si / 1000 Ang^3
#
#
#
# Elastic Constant Matrix: (Units=GPa)
#
#
# Indices 1 2 3 4 5 6 
#
# 1 79.0523 51.2662 15.2218 0.0000 0.0000 0.0000
# 2 51.2662 117.7432 33.5150 0.0000 0.0000 0.0000
# 3 15.2218 33.5150 61.6031 0.0000 0.0000 0.0000
# 4 0.0000 0.0000 0.0000 33.5321 0.0000 0.0000
# 5 0.0000 0.0000 0.0000 0.0000 -130.9712 0.0000
# 6 0.0000 0.0000 0.0000 0.0000 0.0000 -34.8517
#
#
#
# Elastic Compliance Matrix: (Units=1/GPa)
#
#
# Indices 1 2 3 4 5 6 
#
# 1 0.017630 -0.007615 -0.000213 0.000000 0.000000 0.000000
# 2 -0.007615 0.013339 -0.005375 0.000000 0.000000 0.000000
# 3 -0.000213 -0.005375 0.019210 0.000000 0.000000 0.000000
# 4 0.000000 0.000000 0.000000 0.029822 0.000000 0.000000
# 5 0.000000 0.000000 0.000000 0.000000 -0.007635 0.000000
# 6 0.000000 0.000000 0.000000 0.000000 0.000000 -0.028693
#
#
# Mechanical properties :
#
#
# Convention : Reuss Voigt Hill
#
# Bulk Modulus (GPa) = 42.06796 50.93383 46.50090
# Shear Modulus (GPa) = 64.09976 -15.89847 24.10064
#
# Velocity S-wave (km/s) = 5.69992 -2.83869 3.49506
# Velocity P-wave (km/s) = 8.03997 3.88223 6.31319
#
# Compressibility (1/GPa) = 0.02377106
#
# Stress axis : x y z
#
# Youngs Moduli (GPa) = 56.72300 74.96875 52.05622
#
# Poissons Ratio (x) = 0.57092 0.01109
# Poissons Ratio (y) = 0.43197 0.27982
# Poissons Ratio (z) = 0.01208 0.40298
#
# Static dielectric constant tensor:
#      x y z
#    x 1.685960 0.000000 0.000000 
#    y 0.000000 1.667360 0.000000 
#    z 0.000000 0.000000 1.692760 
# 
# From -- ./inp_files/51782.got.cif
#   From: 2010.05.17/outbox.cif.g08.bks.cpg/sg72_26_cif.got.tgz:51782.got - 2010.06.03 17:03:01.
