data_PCOD9527369
_publ_section_title
;
Structure prediction by ZEFSAII (Michael W. Deem and Ramdas Pophale) SiO2 
 PCOD9527369
Probable space group: I B A M
;
_chemical_formula_sum "Si O2"
_cell_formula_units_Z 116
_cell_length_a 24.156893
_cell_length_b 17.590510
_cell_length_c 14.561738
_cell_angle_alpha 90.000000
_cell_angle_beta 90.000000
_cell_angle_gamma 90.000000
_cell_volume 6187.749440
_symmetry_space_group_name_H-M "I B A M"
_symmetry_group_IT_number 72
_symmetry_cell_setting 'orthorhombic'
loop_
_space_group_symop_operation_xyz
x,y,z
-x,-y,z
x,-y,1/2-z
-x,y,1/2-z
-x,-y,-z
x,y,-z
-x,y,1/2+z
x,-y,1/2+z
1/2+x,1/2+y,1/2+z
1/2-x,1/2-y,1/2+z
1/2+x,1/2-y,-z
1/2-x,1/2+y,-z
1/2-x,1/2-y,1/2-z
1/2+x,1/2+y,1/2-z
1/2-x,1/2+y,z
1/2+x,1/2-y,z
loop_
_atom_site_type_symbol
_atom_site_label
_atom_site_fract_x
_atom_site_fract_y
_atom_site_fract_z
Si Si1 0.151718 0.204116 0.891384
Si Si2 0.419815 0.946382 0.835517
Si Si3 0.712113 0.578266 0.727847
Si Si4 0.747009 0.686914 0.893068
Si Si5 0.858437 0.295214 0.104338
Si Si6 0.500000 0.000000 0.500000
Si Si7 0.563244 0.226326 0.773081
Si Si8 0.182486 0.534948 0.106549
O O1 0.177435 0.134912 0.835011
O O2 0.193369 0.275453 0.874262
O O3 0.091863 0.223520 0.851433
O O4 0.152046 0.190175 0.000000
O O5 0.457073 0.969924 0.920577
O O6 0.430955 0.860322 0.807396
O O7 0.433199 0.000000 0.750000
O O8 0.356014 0.965926 0.860815
O O9 0.680795 0.500000 0.750000
O O10 0.731198 0.623343 0.819120
O O11 0.764980 0.550617 0.669294
O O12 0.701270 0.754696 0.884136
O O13 0.745436 0.661474 0.000000
O O14 0.899814 0.266146 0.181365
O O15 0.852464 0.386315 0.112761
O O16 0.877126 0.279147 0.000000
O O17 0.500000 0.243432 0.750000
O O18 0.197926 0.525072 0.000000
#
# Coordination Sequence:
#
# PCOD9527369 Si02
#       8
#    16  16  16  16  16   4  16  16
#     4  11  24  43  65  95 132 169 214 278 334 392
#     4  12  25  41  58  86 125 177 224 281 323 376
#     4  12  24  38  64  96 133 165 206 270 338 405
#     4  10  21  40  65  93 126 170 216 270 333 397
#     4  10  20  38  65  88 120 168 217 271 326 383
#     4  12  26  44  56  74 128 180 234 286 308 360
#     4  12  26  42  64  91 126 176 235 273 324 392
#     4  11  22  37  58  90 127 174 215 261 321 389
#
# _framework density 18.74672
#
# number of rings (size 3 to 8) (size 9 to 14) (size 15 to 20)
#    0.000    0.828    4.828    3.103    2.897    1.655 
#    0.000    0.000    0.000    0.414    0.000    0.966 
#    0.000    0.000    0.000    0.000    0.000    0.000 
#
# Total GULP energy -323936.462017 kJ/mol
# GULP energy per Si atom -5585.111414 kJ/mol
# Density = 1.870405 g / cm^3
# Si number density = 18.746720 Si / 1000 Ang^3
#
#
#
# Elastic Constant Matrix: (Units=GPa)
#
#
# Indices 1 2 3 4 5 6 
#
# 1 96.5889 32.0891 42.9666 0.0000 0.0000 0.0000
# 2 32.0891 83.7862 48.1029 0.0000 0.0000 0.0000
# 3 42.9666 48.1029 136.2122 0.0000 0.0000 0.0000
# 4 0.0000 0.0000 0.0000 -4.8875 0.0000 0.0000
# 5 0.0000 0.0000 0.0000 0.0000 33.5584 0.0000
# 6 0.0000 0.0000 0.0000 0.0000 0.0000 12.8059
#
#
#
# Elastic Compliance Matrix: (Units=1/GPa)
#
#
# Indices 1 2 3 4 5 6 
#
# 1 0.012698 -0.003216 -0.002870 0.000000 0.000000 0.000000
# 2 -0.003216 0.015785 -0.004560 0.000000 0.000000 0.000000
# 3 -0.002870 -0.004560 0.009857 0.000000 0.000000 0.000000
# 4 0.000000 0.000000 0.000000 -0.204602 0.000000 0.000000
# 5 0.000000 0.000000 0.000000 0.000000 0.029799 0.000000
# 6 0.000000 0.000000 0.000000 0.000000 0.000000 0.078089
#
#
# Mechanical properties :
#
#
# Convention : Reuss Voigt Hill
#
# Bulk Modulus (GPa) = 58.65471 62.54496 60.59983
# Shear Modulus (GPa) = -159.23003 21.19060 -69.01971
#
# Velocity S-wave (km/s) = -9.22615 3.36573 -6.07428
# Velocity P-wave (km/s) = 9.06311 6.96705 4.09879
#
# Compressibility (1/GPa) = 0.01704893
#
# Stress axis : x y z
#
# Youngs Moduli (GPa) = 78.75206 63.35282 101.44963
#
# Poissons Ratio (x) = 0.20371 0.29115
# Poissons Ratio (y) = 0.25323 0.46261
# Poissons Ratio (z) = 0.22601 0.28889
#
# Static dielectric constant tensor:
#      x y z
#    x 1.653010 0.000000 0.000000 
#    y 0.000000 1.664990 0.000000 
#    z 0.000000 0.000000 1.661340 
# 
# From -- ./inp_files/25370.got.cif
#   From: 2010.05.17/outbox.cif.g08.bks.cpg/sg72_13_cif.got.tgz:25370.got - 2010.06.03 17:03:01.
