data_PCOD9527531
_publ_section_title
;
Structure prediction by ZEFSAII (Michael W. Deem and Ramdas Pophale) SiO2 
 PCOD9527531
Probable space group: I B A M
;
_chemical_formula_sum "Si O2"
_cell_formula_units_Z 84
_cell_length_a 20.380006
_cell_length_b 10.088390
_cell_length_c 24.610822
_cell_angle_alpha 90.000000
_cell_angle_beta 90.000000
_cell_angle_gamma 90.000000
_cell_volume 5060.020658
_symmetry_space_group_name_H-M "I B A M"
_symmetry_group_IT_number 72
_symmetry_cell_setting 'orthorhombic'
loop_
_space_group_symop_operation_xyz
x,y,z
-x,-y,z
x,-y,1/2-z
-x,y,1/2-z
-x,-y,-z
x,y,-z
-x,y,1/2+z
x,-y,1/2+z
1/2+x,1/2+y,1/2+z
1/2-x,1/2-y,1/2+z
1/2+x,1/2-y,-z
1/2-x,1/2+y,-z
1/2-x,1/2-y,1/2-z
1/2+x,1/2+y,1/2-z
1/2-x,1/2+y,z
1/2+x,1/2-y,z
loop_
_atom_site_type_symbol
_atom_site_label
_atom_site_fract_x
_atom_site_fract_y
_atom_site_fract_z
Si Si1 0.000000 0.500000 0.750000
Si Si2 0.225879 0.353873 0.372391
Si Si3 0.839916 0.874358 0.212938
Si Si4 0.072947 0.962099 0.868106
Si Si5 0.700911 0.582449 0.064554
Si Si6 0.898729 0.693578 0.305106
O O1 0.954084 0.593068 0.713459
O O2 0.281204 0.331876 0.326331
O O3 0.250431 0.475916 0.408386
O O4 0.217795 0.224310 0.409424
O O5 0.157220 0.374444 0.341607
O O6 0.864215 0.758712 0.252259
O O7 0.818159 0.000000 0.250000
O O8 0.898795 0.932544 0.175853
O O9 0.127498 0.954548 0.915191
O O10 0.073331 0.819377 0.838375
O O11 0.000000 0.000000 0.885381
O O12 0.705627 0.583451 0.000000
#
# Coordination Sequence:
#
# PCOD9527531 Si02
#       6
#     4  16  16  16  16  16
#     4  12  24  28  46  76 118 152 166 194 252 332
#     4  10  21  35  56  79 107 139 177 224 267 311
#     4   9  18  32  55  79 106 140 178 212 251 313
#     4   9  18  35  54  75 104 140 178 216 257 308
#     4  10  21  37  57  81 102 134 181 232 275 305
#     4  10  21  32  47  78 112 145 170 206 256 315
#
# _framework density 16.600722999999999
#
# number of rings (size 3 to 8) (size 9 to 14) (size 15 to 20)
#    0.000    2.286    0.000    3.429    4.000    3.048 
#    0.000    0.000    0.000    0.000    0.000    3.333 
#    0.000    0.000    0.000    0.000    0.000    0.000 
#
# Total GULP energy -234429.416701 kJ/mol
# GULP energy per Si atom -5581.652779 kJ/mol
# Density = 1.656294 g / cm^3
# Si number density = 16.600723 Si / 1000 Ang^3
#
#
#
# Elastic Constant Matrix: (Units=GPa)
#
#
# Indices 1 2 3 4 5 6 
#
# 1 133.1891 71.7441 65.5894 0.0000 0.0000 0.0000
# 2 71.7441 70.1352 60.4303 0.0000 0.0000 0.0000
# 3 65.5894 60.4303 120.8428 0.0000 0.0000 0.0000
# 4 0.0000 0.0000 0.0000 17.0692 0.0000 0.0000
# 5 0.0000 0.0000 0.0000 0.0000 5.5480 0.0000
# 6 0.0000 0.0000 0.0000 0.0000 0.0000 15.9175
#
#
#
# Elastic Compliance Matrix: (Units=1/GPa)
#
#
# Indices 1 2 3 4 5 6 
#
# 1 0.016781 -0.016373 -0.000921 0.000000 0.000000 0.000000
# 2 -0.016373 0.041027 -0.011630 0.000000 0.000000 0.000000
# 3 -0.000921 -0.011630 0.014591 0.000000 0.000000 0.000000
# 4 0.000000 0.000000 0.000000 0.058585 0.000000 0.000000
# 5 0.000000 0.000000 0.000000 0.000000 0.180245 0.000000
# 6 0.000000 0.000000 0.000000 0.000000 0.000000 0.062824
#
#
# Mechanical properties :
#
#
# Convention : Reuss Voigt Hill
#
# Bulk Modulus (GPa) = 68.71801 79.96608 74.34205
# Shear Modulus (GPa) = 11.44820 16.13382 13.79101
#
# Velocity S-wave (km/s) = 2.62891 3.12087 2.88540
# Velocity P-wave (km/s) = 7.12035 7.82696 7.48200
#
# Compressibility (1/GPa) = 0.01455223
#
# Stress axis : x y z
#
# Youngs Moduli (GPa) = 59.59209 24.37408 68.53637
#
# Poissons Ratio (x) = 0.39907 0.06309
# Poissons Ratio (y) = 0.97567 0.79709
# Poissons Ratio (z) = 0.05486 0.28347
#
# Static dielectric constant tensor:
#      x y z
#    x 1.546290 0.000000 0.000000 
#    y 0.000000 1.546860 0.000000 
#    z 0.000000 0.000000 1.537510 
# 
# From -- ./inp_files/39669.got.cif
#   From: 2010.05.17/outbox.cif.g08.bks.cpg/sg72_20_cif.got.tgz:39669.got - 2010.06.03 17:03:01.
