data_PCOD9527380
_publ_section_title
;
Structure prediction by ZEFSAII (Michael W. Deem and Ramdas Pophale) SiO2 
 PCOD9527380
Probable space group: I B A M
;
_chemical_formula_sum "Si O2"
_cell_formula_units_Z 80
_cell_length_a 16.515111
_cell_length_b 8.114091
_cell_length_c 25.965730
_cell_angle_alpha 90.000000
_cell_angle_beta 90.000000
_cell_angle_gamma 90.000000
_cell_volume 3479.540597
_symmetry_space_group_name_H-M "I B A M"
_symmetry_group_IT_number 72
_symmetry_cell_setting 'orthorhombic'
loop_
_space_group_symop_operation_xyz
x,y,z
-x,-y,z
x,-y,1/2-z
-x,y,1/2-z
-x,-y,-z
x,y,-z
-x,y,1/2+z
x,-y,1/2+z
1/2+x,1/2+y,1/2+z
1/2-x,1/2-y,1/2+z
1/2+x,1/2-y,-z
1/2-x,1/2+y,-z
1/2-x,1/2-y,1/2-z
1/2+x,1/2+y,1/2-z
1/2-x,1/2+y,z
1/2+x,1/2-y,z
loop_
_atom_site_type_symbol
_atom_site_label
_atom_site_fract_x
_atom_site_fract_y
_atom_site_fract_z
Si Si1 0.062204 0.876543 0.341136
Si Si2 0.405275 0.052642 0.695843
Si Si3 0.654622 0.967960 0.419912
Si Si4 0.665524 0.576737 0.573872
Si Si5 0.956767 0.223822 0.943930
O O1 0.011008 0.805159 0.392115
O O2 0.086787 0.746309 0.300284
O O3 0.144113 0.942970 0.365781
O O4 0.000000 0.000000 0.317916
O O5 0.500000 0.000000 0.690172
O O6 0.369692 0.000000 0.750000
O O7 0.358893 0.021867 0.642215
O O8 0.742226 0.033555 0.436353
O O9 0.588620 0.100245 0.439808
O O10 0.652705 0.773872 0.436357
O O11 0.605981 0.431215 0.553924
O O12 0.998984 0.221068 0.000000
#
# Coordination Sequence:
#
# PCOD9527380 Si02
#       5
#    16  16  16  16  16
#     4   9  20  40  64  90 120 160 206 259 308 360
#     4  10  20  38  66  90 119 162 204 252 311 373
#     4  11  21  41  62  89 128 164 200 256 316 362
#     4  10  22  38  63  84 123 163 199 250 308 366
#     4  11  23  40  63  90 121 164 212 257 303 366
#
# _framework density 22.991541000000002
#
# number of rings (size 3 to 8) (size 9 to 14) (size 15 to 20)
#    0.000    1.800    4.000    0.000    0.000    5.200 
#    0.000   13.000    0.000    0.000    0.000    0.000 
#    0.000    0.000    0.000    0.000    0.000    0.000 
#
# Total GULP energy -222695.388016 kJ/mol
# GULP energy per Si atom -5567.384700 kJ/mol
# Density = 2.293921 g / cm^3
# Si number density = 22.991541 Si / 1000 Ang^3
#
#
#
# Elastic Constant Matrix: (Units=GPa)
#
#
# Indices 1 2 3 4 5 6 
#
# 1 84.4898 26.6052 12.8737 0.0000 0.0000 0.0000
# 2 26.6052 133.7512 50.5586 0.0000 0.0000 0.0000
# 3 12.8737 50.5586 121.6894 0.0000 0.0000 0.0000
# 4 0.0000 0.0000 0.0000 1052.9416 0.0000 0.0000
# 5 0.0000 0.0000 0.0000 0.0000 1.4745 0.0000
# 6 0.0000 0.0000 0.0000 0.0000 0.0000 30.8163
#
#
#
# Elastic Compliance Matrix: (Units=1/GPa)
#
#
# Indices 1 2 3 4 5 6 
#
# 1 0.012639 -0.002383 -0.000347 0.000000 0.000000 0.000000
# 2 -0.002383 0.009319 -0.003620 0.000000 0.000000 0.000000
# 3 -0.000347 -0.003620 0.009758 0.000000 0.000000 0.000000
# 4 0.000000 0.000000 0.000000 0.000950 0.000000 0.000000
# 5 0.000000 0.000000 0.000000 0.000000 0.678182 0.000000
# 6 0.000000 0.000000 0.000000 0.000000 0.000000 0.032450
#
#
# Mechanical properties :
#
#
# Convention : Reuss Voigt Hill
#
# Bulk Modulus (GPa) = 52.58499 57.77837 55.18168
# Shear Modulus (GPa) = 6.55878 233.70603 120.13241
#
# Velocity S-wave (km/s) = 1.69082 10.09304 7.23631
# Velocity P-wave (km/s) = 5.17039 12.68900 9.68875
#
# Compressibility (1/GPa) = 0.01901683
#
# Stress axis : x y z
#
# Youngs Moduli (GPa) = 79.12029 107.30998 102.47784
#
# Poissons Ratio (x) = 0.25571 0.03557
# Poissons Ratio (y) = 0.18854 0.37093
# Poissons Ratio (z) = 0.02746 0.38842
#
# Static dielectric constant tensor:
#      x y z
#    x 2.429040 0.000000 0.000000 
#    y 0.000000 2.001730 0.000000 
#    z 0.000000 0.000000 1.914720 
# 
# From -- ./inp_files/47183.got.cif
#   From: 2010.05.17/outbox.cif.g08.bks.cpg/sg72_24_cif.got.tgz:47183.got - 2010.06.03 17:03:01.
