data_PCOD9527278
_publ_section_title
;
Structure prediction by ZEFSAII (Michael W. Deem and Ramdas Pophale) SiO2 
 PCOD9527278
Probable space group: I B A M
;
_chemical_formula_sum "Si O2"
_cell_formula_units_Z 84
_cell_length_a 17.877470
_cell_length_b 13.475918
_cell_length_c 13.576148
_cell_angle_alpha 90.000000
_cell_angle_beta 90.000000
_cell_angle_gamma 90.000000
_cell_volume 3270.702037
_symmetry_space_group_name_H-M "I B A M"
_symmetry_group_IT_number 72
_symmetry_cell_setting 'orthorhombic'
loop_
_space_group_symop_operation_xyz
x,y,z
-x,-y,z
x,-y,1/2-z
-x,y,1/2-z
-x,-y,-z
x,y,-z
-x,y,1/2+z
x,-y,1/2+z
1/2+x,1/2+y,1/2+z
1/2-x,1/2-y,1/2+z
1/2+x,1/2-y,-z
1/2-x,1/2+y,-z
1/2-x,1/2-y,1/2-z
1/2+x,1/2+y,1/2-z
1/2-x,1/2+y,z
1/2+x,1/2-y,z
loop_
_atom_site_type_symbol
_atom_site_label
_atom_site_fract_x
_atom_site_fract_y
_atom_site_fract_z
Si Si1 0.654553 0.209317 0.198348
Si Si2 0.989596 0.681049 0.382376
Si Si3 0.444964 0.591061 0.381035
Si Si4 0.730567 0.160559 0.386718
Si Si5 0.500000 0.000000 0.750000
Si Si6 0.775413 0.061007 0.884823
O O1 0.577199 0.179781 0.149487
O O2 0.686153 0.307387 0.146775
O O3 0.538960 0.080479 0.325118
O O4 0.720148 0.134777 0.167758
O O5 0.979113 0.670237 0.500000
O O6 0.967895 0.795560 0.353237
O O7 0.831968 0.707869 0.315963
O O8 0.500000 0.500000 0.353236
O O9 0.445784 0.592014 0.500000
O O10 0.360556 0.565862 0.348454
O O11 0.716743 0.187336 0.500000
O O12 0.734841 0.043743 0.377084
O O13 0.778493 0.086162 0.000000
#
# Coordination Sequence:
#
# PCOD9527278 Si02
#       6
#    16  16  16  16   4  16
#     4  11  23  41  67 102 140 183 243 295 359 440
#     4  11  25  48  74 101 144 198 250 308 370 442
#     4   9  19  40  73 107 143 186 239 305 382 451
#     4  10  22  39  64 101 144 182 227 298 368 433
#     4  12  30  48  66  98 144 196 264 298 356 438
#     4  10  20  37  65 105 143 179 230 295 372 443
#
# _framework density 25.682558
#
# number of rings (size 3 to 8) (size 9 to 14) (size 15 to 20)
#    0.000    1.714    0.000    3.714    2.667    6.095 
#    0.000    5.238    0.000    0.000    0.000    1.333 
#    0.000    6.857    0.000    0.000    0.000    0.000 
#
# Total GULP energy -234816.108488 kJ/mol
# GULP energy per Si atom -5590.859726 kJ/mol
# Density = 2.562410 g / cm^3
# Si number density = 25.682558 Si / 1000 Ang^3
#
#
#
# Elastic Constant Matrix: (Units=GPa)
#
#
# Indices 1 2 3 4 5 6 
#
# 1 139.5783 47.8370 22.6228 0.0000 0.0000 0.0000
# 2 47.8370 167.1851 37.4728 0.0000 0.0000 0.0000
# 3 22.6228 37.4728 153.8408 0.0000 0.0000 0.0000
# 4 0.0000 0.0000 0.0000 27.6615 0.0000 0.0000
# 5 0.0000 0.0000 0.0000 0.0000 16.7036 0.0000
# 6 0.0000 0.0000 0.0000 0.0000 0.0000 -45.2363
#
#
#
# Elastic Compliance Matrix: (Units=1/GPa)
#
#
# Indices 1 2 3 4 5 6 
#
# 1 0.008005 -0.002144 -0.000655 0.000000 0.000000 0.000000
# 2 -0.002144 0.006901 -0.001366 0.000000 0.000000 0.000000
# 3 -0.000655 -0.001366 0.006929 0.000000 0.000000 0.000000
# 4 0.000000 0.000000 0.000000 0.036151 0.000000 0.000000
# 5 0.000000 0.000000 0.000000 0.000000 0.059867 0.000000
# 6 0.000000 0.000000 0.000000 0.000000 0.000000 -0.022106
#
#
# Mechanical properties :
#
#
# Convention : Reuss Voigt Hill
#
# Bulk Modulus (GPa) = 74.03854 75.16326 74.60090
# Shear Modulus (GPa) = 46.04939 23.33719 34.69329
#
# Velocity S-wave (km/s) = 4.23900 3.01770 3.67938
# Velocity P-wave (km/s) = 7.26979 6.43986 6.86737
#
# Compressibility (1/GPa) = 0.01350648
#
# Stress axis : x y z
#
# Youngs Moduli (GPa) = 124.91681 144.90873 144.31666
#
# Poissons Ratio (x) = 0.31065 0.09453
# Poissons Ratio (y) = 0.26779 0.19709
# Poissons Ratio (z) = 0.08182 0.19790
#
# Static dielectric constant tensor:
#      x y z
#    x 2.012570 0.000000 0.000000 
#    y 0.000000 2.063600 0.000000 
#    z 0.000000 0.000000 2.089280 
# 
# From -- ./inp_files/37934.got.cif
#   From: 2010.05.17/outbox.cif.g08.bks.cpg/sg72_19_cif.got.tgz:37934.got - 2010.06.03 17:03:01.
