data_PCOD9527420
_publ_section_title
;
Structure prediction by ZEFSAII (Michael W. Deem and Ramdas Pophale) SiO2 
 PCOD9527420
Probable space group: I B A M
;
_chemical_formula_sum "Si O2"
_cell_formula_units_Z 112
_cell_length_a 13.660378
_cell_length_b 28.070169
_cell_length_c 14.246578
_cell_angle_alpha 90.000000
_cell_angle_beta 90.000000
_cell_angle_gamma 90.000000
_cell_volume 5462.837784
_symmetry_space_group_name_H-M "I B A M"
_symmetry_group_IT_number 72
_symmetry_cell_setting 'orthorhombic'
loop_
_space_group_symop_operation_xyz
x,y,z
-x,-y,z
x,-y,1/2-z
-x,y,1/2-z
-x,-y,-z
x,y,-z
-x,y,1/2+z
x,-y,1/2+z
1/2+x,1/2+y,1/2+z
1/2-x,1/2-y,1/2+z
1/2+x,1/2-y,-z
1/2-x,1/2+y,-z
1/2-x,1/2-y,1/2-z
1/2+x,1/2+y,1/2-z
1/2-x,1/2+y,z
1/2+x,1/2-y,z
loop_
_atom_site_type_symbol
_atom_site_label
_atom_site_fract_x
_atom_site_fract_y
_atom_site_fract_z
Si Si1 0.366864 0.163665 0.887612
Si Si2 0.107777 0.514535 0.641218
Si Si3 0.781174 0.386941 0.388408
Si Si4 0.742259 0.930320 0.895913
Si Si5 0.577637 0.198483 0.114694
Si Si6 0.342306 0.699113 0.113015
Si Si7 0.887097 0.893513 0.763500
O O1 0.331055 0.110981 0.857209
O O2 0.470217 0.182344 0.852208
O O3 0.275211 0.198570 0.871797
O O4 0.378981 0.159350 0.000000
O O5 0.107766 0.500000 0.750000
O O6 0.145558 0.568098 0.627090
O O7 0.186735 0.479340 0.598126
O O8 0.000000 0.500000 0.605752
O O9 0.761196 0.384126 0.500000
O O10 0.841037 0.340062 0.357241
O O11 0.681148 0.390115 0.328931
O O12 0.833167 0.932524 0.827409
O O13 0.773268 0.914794 0.000000
O O14 0.608244 0.251558 0.142318
O O15 0.576773 0.198204 0.000000
O O16 0.380170 0.655156 0.175003
O O17 0.358250 0.692453 0.000000
O O18 0.000000 0.904249 0.750000
#
# Coordination Sequence:
#
# PCOD9527420 Si02
#       7
#    16  16  16  16  16  16  16
#     4   8  15  30  55  86 118 155 198 241 291 352
#     4  11  22  39  67  98 132 164 196 243 303 369
#     4  11  24  41  61  92 128 162 203 251 308 368
#     4  10  20  39  65  91 121 162 206 250 305 371
#     4   9  18  34  58  89 127 163 198 248 304 363
#     4   9  19  37  61  88 119 161 209 251 302 368
#     4  11  24  42  62  86 121 157 210 266 310 357
#
# _framework density 20.502164
#
# number of rings (size 3 to 8) (size 9 to 14) (size 15 to 20)
#    0.000    2.143    1.429    2.571    0.000    5.143 
#    0.000    5.714    0.000    1.714    0.000    0.000 
#    0.000    0.000    0.000    0.000    0.000    0.000 
#
# Total GULP energy -312668.784696 kJ/mol
# GULP energy per Si atom -5583.371155 kJ/mol
# Density = 2.045550 g / cm^3
# Si number density = 20.502164 Si / 1000 Ang^3
#
#
#
# Elastic Constant Matrix: (Units=GPa)
#
#
# Indices 1 2 3 4 5 6 
#
# 1 134.2593 28.5798 40.5390 0.0000 0.0001 0.0000
# 2 28.5798 79.2089 7.2518 0.0000 0.0000 0.0000
# 3 40.5390 7.2518 94.3728 0.0000 -0.0001 0.0001
# 4 0.0000 0.0000 0.0000 17.5076 -0.0001 0.0000
# 5 0.0001 0.0000 -0.0001 -0.0001 -4.8392 0.0000
# 6 0.0000 0.0000 0.0001 0.0000 0.0000 18.1056
#
#
#
# Elastic Compliance Matrix: (Units=1/GPa)
#
#
# Indices 1 2 3 4 5 6 
#
# 1 0.009208 -0.002981 -0.003726 0.000000 0.000000 0.000000
# 2 -0.002981 0.013680 0.000229 0.000000 0.000000 0.000000
# 3 -0.003726 0.000229 0.012179 0.000000 0.000000 0.000000
# 4 0.000000 0.000000 0.000000 0.057118 -0.000002 0.000000
# 5 0.000000 0.000000 0.000000 -0.000002 -0.206646 0.000000
# 6 0.000000 0.000000 0.000000 0.000000 0.000000 0.055232
#
#
# Mechanical properties :
#
#
# Convention : Reuss Voigt Hill
#
# Bulk Modulus (GPa) = 45.22708 51.17582 48.20145
# Shear Modulus (GPa) = -128.52521 21.58616 -53.46953
#
# Velocity S-wave (km/s) = -7.92620 3.24832 -5.11239
# Velocity P-wave (km/s) = 7.85231 6.25173 3.35966
#
# Compressibility (1/GPa) = 0.02211065
#
# Stress axis : x y z
#
# Youngs Moduli (GPa) = 108.60064 73.10196 82.10630
#
# Poissons Ratio (x) = 0.21794 0.30596
# Poissons Ratio (y) = 0.32377 -0.01884
# Poissons Ratio (z) = 0.40468 -0.01677
#
# Static dielectric constant tensor:
#      x y z
#    x 1.711000 0.000000 0.000000 
#    y 0.000000 1.715920 0.000000 
#    z 0.000000 0.000000 1.821140 
# 
# From -- ./inp_files/20727.got.cif
#   From: 2010.05.17/outbox.cif.g08.bks.cpg/sg72_11_cif.got.tgz:20727.got - 2010.06.03 17:03:01.
