data_PCOD9527866
_publ_section_title
;
Structure prediction by ZEFSAII (Michael W. Deem and Ramdas Pophale) SiO2 
 PCOD9527866
Probable space group: I B A M
;
_chemical_formula_sum "Si O2"
_cell_formula_units_Z 96
_cell_length_a 7.463089
_cell_length_b 27.920380
_cell_length_c 23.872881
_cell_angle_alpha 90.000000
_cell_angle_beta 90.000000
_cell_angle_gamma 90.000000
_cell_volume 4974.446665
_symmetry_space_group_name_H-M "I B A M"
_symmetry_group_IT_number 72
_symmetry_cell_setting 'orthorhombic'
loop_
_space_group_symop_operation_xyz
x,y,z
-x,-y,z
x,-y,1/2-z
-x,y,1/2-z
-x,-y,-z
x,y,-z
-x,y,1/2+z
x,-y,1/2+z
1/2+x,1/2+y,1/2+z
1/2-x,1/2-y,1/2+z
1/2+x,1/2-y,-z
1/2-x,1/2+y,-z
1/2-x,1/2-y,1/2-z
1/2+x,1/2+y,1/2-z
1/2-x,1/2+y,z
1/2+x,1/2-y,z
loop_
_atom_site_type_symbol
_atom_site_label
_atom_site_fract_x
_atom_site_fract_y
_atom_site_fract_z
Si Si1 0.203184 0.807344 0.936763
Si Si2 0.276632 0.696735 0.063920
Si Si3 0.814384 0.100872 0.871467
Si Si4 0.475661 0.056106 0.561230
Si Si5 0.744316 0.608304 0.361132
Si Si6 0.783222 0.055882 0.246816
O O1 0.247190 0.752551 0.922934
O O2 0.253645 0.846449 0.890252
O O3 0.989024 0.810655 0.940005
O O4 0.272830 0.817358 0.000000
O O5 0.215649 0.661391 0.113750
O O6 0.204869 0.688131 0.000000
O O7 0.723409 0.067455 0.917578
O O8 0.744205 0.081263 0.812205
O O9 0.030596 0.099805 0.870916
O O10 0.502524 0.077537 0.500000
O O11 0.626697 0.075912 0.601906
O O12 0.500000 0.000000 0.558853
O O13 0.776637 0.590543 0.297521
O O14 0.000000 0.053417 0.250000
O O15 0.720466 0.000000 0.250000
#
# Coordination Sequence:
#
# PCOD9527866 Si02
#       6
#    16  16  16  16  16  16
#     4   9  18  32  53  80 109 146 186 230 286 339
#     4   9  18  32  53  80 109 146 186 230 286 339
#     4  10  21  38  58  82 115 149 191 238 286 336
#     4  11  24  37  55  85 115 150 191 233 291 348
#     4  10  21  38  58  82 115 149 191 238 286 336
#     4   9  18  35  60  83 106 148 196 236 282 335
#
# _framework density 19.298629999999999
#
# number of rings (size 3 to 8) (size 9 to 14) (size 15 to 20)
#    0.000    2.333    0.000    2.000    2.333    4.667 
#    0.000    4.167    0.000    0.000    0.000    0.000 
#    0.000    0.000    0.000    0.000    0.000    0.000 
#
# Total GULP energy -267420.816267 kJ/mol
# GULP energy per Si atom -5571.267006 kJ/mol
# Density = 1.925471 g / cm^3
# Si number density = 19.298630 Si / 1000 Ang^3
#
#
#
# Elastic Constant Matrix: (Units=GPa)
#
#
# Indices 1 2 3 4 5 6 
#
# 1 46.2703 1.6027 8.2539 0.0000 0.0000 0.0000
# 2 1.6027 137.7244 58.3435 0.0000 0.0000 0.0000
# 3 8.2539 58.3435 110.9988 0.0000 0.0000 0.0000
# 4 0.0000 0.0000 0.0000 26.2595 0.0000 0.0000
# 5 0.0000 0.0000 0.0000 0.0000 31.5054 0.0000
# 6 0.0000 0.0000 0.0000 0.0000 0.0000 18.9518
#
#
#
# Elastic Compliance Matrix: (Units=1/GPa)
#
#
# Indices 1 2 3 4 5 6 
#
# 1 0.021936 0.000561 -0.001926 0.000000 0.000000 0.000000
# 2 0.000561 0.009355 -0.004959 0.000000 0.000000 0.000000
# 3 -0.001926 -0.004959 0.011759 0.000000 0.000000 0.000000
# 4 0.000000 0.000000 0.000000 0.038081 0.000000 0.000000
# 5 0.000000 0.000000 0.000000 0.000000 0.031741 0.000000
# 6 0.000000 0.000000 0.000000 0.000000 0.000000 0.052765
#
#
# Mechanical properties :
#
#
# Convention : Reuss Voigt Hill
#
# Bulk Modulus (GPa) = 32.89282 47.93264 40.41273
# Shear Modulus (GPa) = 26.53648 30.46291 28.49970
#
# Velocity S-wave (km/s) = 3.71218 3.97735 3.84705
# Velocity P-wave (km/s) = 5.95440 6.78112 6.38116
#
# Compressibility (1/GPa) = 0.03040178
#
# Stress axis : x y z
#
# Youngs Moduli (GPa) = 45.58664 106.89379 85.04242
#
# Poissons Ratio (x) = -0.05992 0.16378
# Poissons Ratio (y) = -0.02555 0.42172
# Poissons Ratio (z) = 0.08779 0.53008
#
# Static dielectric constant tensor:
#      x y z
#    x 1.757560 0.000000 0.000000 
#    y 0.000000 1.684420 0.000000 
#    z 0.000000 0.000000 1.686010 
# 
# From -- ./inp_files/42419.got.cif
#   From: 2010.05.17/outbox.cif.g08.bks.cpg/sg72_22_cif.got.tgz:42419.got - 2010.06.03 17:03:01.
