data_PCOD9527991
_publ_section_title
;
Structure prediction by ZEFSAII (Michael W. Deem and Ramdas Pophale) SiO2 
 PCOD9527991
Probable space group: I B A M
;
_chemical_formula_sum "Si O2"
_cell_formula_units_Z 64
_cell_length_a 8.374074
_cell_length_b 11.133794
_cell_length_c 31.076771
_cell_angle_alpha 90.000000
_cell_angle_beta 90.000000
_cell_angle_gamma 90.000000
_cell_volume 2897.449421
_symmetry_space_group_name_H-M "I B A M"
_symmetry_group_IT_number 72
_symmetry_cell_setting 'orthorhombic'
loop_
_space_group_symop_operation_xyz
x,y,z
-x,-y,z
x,-y,1/2-z
-x,y,1/2-z
-x,-y,-z
x,y,-z
-x,y,1/2+z
x,-y,1/2+z
1/2+x,1/2+y,1/2+z
1/2-x,1/2-y,1/2+z
1/2+x,1/2-y,-z
1/2-x,1/2+y,-z
1/2-x,1/2-y,1/2-z
1/2+x,1/2+y,1/2-z
1/2-x,1/2+y,z
1/2+x,1/2-y,z
loop_
_atom_site_type_symbol
_atom_site_label
_atom_site_fract_x
_atom_site_fract_y
_atom_site_fract_z
Si Si1 0.897045 0.382001 0.449936
Si Si2 0.956675 0.129202 0.926456
Si Si3 0.919390 0.119696 0.669650
Si Si4 0.625329 0.817681 0.781669
O O1 0.849314 0.399063 0.500000
O O2 0.735131 0.371418 0.422461
O O3 0.000000 0.500000 0.437618
O O4 0.992335 0.255902 0.447287
O O5 0.050230 0.126500 0.881121
O O6 0.000000 0.000000 0.947772
O O7 0.736843 0.115097 0.684492
O O8 0.017084 0.227334 0.690889
O O9 0.000000 0.000000 0.686837
O O10 0.500000 0.879321 0.750000
O O11 0.750000 0.750000 0.750000
#
# Coordination Sequence:
#
# PCOD9527991 Si02
#       4
#    16  16  16  16
#     4  11  24  41  63  93 129 171 221 275 331 390
#     4  11  23  40  64  92 127 173 217 270 330 390
#     4  10  21  39  60  86 122 160 202 258 317 380
#     4   9  19  36  58  86 117 153 200 250 306 375
#
# _framework density 22.088391000000001
#
# number of rings (size 3 to 8) (size 9 to 14) (size 15 to 20)
#    0.000    1.750    0.000    3.750    0.000   10.500 
#    0.000    8.750    0.000    0.000    0.000    0.000 
#    0.000    0.000    0.000    0.000    0.000    0.000 
#
# Total GULP energy -178566.077166 kJ/mol
# GULP energy per Si atom -5580.189911 kJ/mol
# Density = 2.203812 g / cm^3
# Si number density = 22.088391 Si / 1000 Ang^3
#
#
#
# Elastic Constant Matrix: (Units=GPa)
#
#
# Indices 1 2 3 4 5 6 
#
# 1 160.6468 59.3456 38.6527 0.0000 0.0000 0.0000
# 2 59.3456 161.8618 14.4492 0.0000 0.0000 0.0000
# 3 38.6527 14.4492 86.8626 0.0000 0.0000 0.0000
# 4 0.0000 0.0000 0.0000 169.2062 0.0000 0.0000
# 5 0.0000 0.0000 0.0000 0.0000 27.4136 0.0000
# 6 0.0000 0.0000 0.0000 0.0000 0.0000 34.6786
#
#
#
# Elastic Compliance Matrix: (Units=1/GPa)
#
#
# Indices 1 2 3 4 5 6 
#
# 1 0.007944 -0.002636 -0.003096 0.000000 0.000000 0.000000
# 2 -0.002636 0.007146 -0.000016 0.000000 0.000000 0.000000
# 3 -0.003096 -0.000016 0.012893 0.000000 0.000000 0.000000
# 4 0.000000 0.000000 0.000000 0.005910 0.000000 0.000000
# 5 0.000000 0.000000 0.000000 0.000000 0.036478 0.000000
# 6 0.000000 0.000000 0.000000 0.000000 0.000000 0.028836
#
#
# Mechanical properties :
#
#
# Convention : Reuss Voigt Hill
#
# Bulk Modulus (GPa) = 60.65623 70.47403 65.56513
# Shear Modulus (GPa) = 43.02979 66.05460 54.54219
#
# Velocity S-wave (km/s) = 4.41849 5.47445 4.97457
# Velocity P-wave (km/s) = 7.31785 8.48140 7.92102
#
# Compressibility (1/GPa) = 0.01648635
#
# Stress axis : x y z
#
# Youngs Moduli (GPa) = 125.88685 139.93821 77.56226
#
# Poissons Ratio (x) = 0.36889 0.24016
# Poissons Ratio (y) = 0.33185 0.00122
# Poissons Ratio (z) = 0.38979 0.00219
#
# Static dielectric constant tensor:
#      x y z
#    x 1.735390 0.000000 0.000000 
#    y 0.000000 1.831320 0.000000 
#    z 0.000000 0.000000 1.919400 
# 
# From -- ./inp_files/50595.got.cif
#   From: 2010.05.17/outbox.cif.g08.bks.cpg/sg72_26_cif.got.tgz:50595.got - 2010.06.03 17:03:01.
