data_PCOD9527791
_publ_section_title
;
Structure prediction by ZEFSAII (Michael W. Deem and Ramdas Pophale) SiO2 
 PCOD9527791
Probable space group: I B A M
;
_chemical_formula_sum "Si O2"
_cell_formula_units_Z 96
_cell_length_a 11.834805
_cell_length_b 22.377583
_cell_length_c 18.873728
_cell_angle_alpha 90.000000
_cell_angle_beta 90.000000
_cell_angle_gamma 90.000000
_cell_volume 4998.411132
_symmetry_space_group_name_H-M "I B A M"
_symmetry_group_IT_number 72
_symmetry_cell_setting 'orthorhombic'
loop_
_space_group_symop_operation_xyz
x,y,z
-x,-y,z
x,-y,1/2-z
-x,y,1/2-z
-x,-y,-z
x,y,-z
-x,y,1/2+z
x,-y,1/2+z
1/2+x,1/2+y,1/2+z
1/2-x,1/2-y,1/2+z
1/2+x,1/2-y,-z
1/2-x,1/2+y,-z
1/2-x,1/2-y,1/2-z
1/2+x,1/2+y,1/2-z
1/2-x,1/2+y,z
1/2+x,1/2-y,z
loop_
_atom_site_type_symbol
_atom_site_label
_atom_site_fract_x
_atom_site_fract_y
_atom_site_fract_z
Si Si1 0.824582 0.105558 0.582757
Si Si2 0.390794 0.809775 0.581679
Si Si3 0.212194 0.968728 0.083460
Si Si4 0.696597 0.286749 0.684684
Si Si5 0.461806 0.602087 0.678169
Si Si6 0.636506 0.141622 0.083043
O O1 0.859862 0.106338 0.500000
O O2 0.721027 0.150605 0.590758
O O3 0.929895 0.121024 0.632200
O O4 0.780060 0.038728 0.599540
O O5 0.394181 0.788053 0.500000
O O6 0.379660 0.756697 0.636928
O O7 0.503809 0.848153 0.593302
O O8 0.112289 0.940290 0.128732
O O9 0.320515 0.926085 0.096169
O O10 0.185662 0.963653 0.000000
O O11 0.750000 0.250000 0.750000
O O12 0.616411 0.342586 0.703075
O O13 0.794283 0.314373 0.634284
O O14 0.500000 0.571011 0.750000
O O15 0.662173 0.155189 0.000000
#
# Coordination Sequence:
#
# PCOD9527791 Si02
#       6
#    16  16  16  16  16  16
#     4  10  21  37  59  89 119 148 188 237 291 350
#     4  10  22  37  58  86 115 151 192 238 286 344
#     4   9  19  38  61  85 117 152 188 235 290 347
#     4  11  24  39  58  79 115 156 197 243 291 341
#     4  11  23  37  57  85 113 154 193 238 292 339
#     4   9  20  39  60  84 113 151 195 236 288 347
#
# _framework density 19.206104
#
# number of rings (size 3 to 8) (size 9 to 14) (size 15 to 20)
#    0.000    2.000    0.000    2.500    4.667    5.333 
#    0.000    3.333    0.000    0.000    0.000    4.667 
#    0.000    0.000    0.000    0.000    0.000    0.000 
#
# Total GULP energy -268006.850902 kJ/mol
# GULP energy per Si atom -5583.476060 kJ/mol
# Density = 1.916239 g / cm^3
# Si number density = 19.206104 Si / 1000 Ang^3
#
#
#
# Elastic Constant Matrix: (Units=GPa)
#
#
# Indices 1 2 3 4 5 6 
#
# 1 38.0696 -19.3636 6.0208 0.0000 0.0000 0.0000
# 2 -19.3636 50.5539 12.2048 0.0000 0.0000 0.0000
# 3 6.0208 12.2048 29.0967 0.0000 0.0000 0.0000
# 4 0.0000 0.0000 0.0000 18.3762 0.0000 0.0000
# 5 0.0000 0.0000 0.0000 0.0000 22.4159 0.0000
# 6 0.0000 0.0000 0.0000 0.0000 0.0000 9.8919
#
#
#
# Elastic Compliance Matrix: (Units=1/GPa)
#
#
# Indices 1 2 3 4 5 6 
#
# 1 0.038054 0.018333 -0.015564 0.000000 0.000000 0.000000
# 2 0.018333 0.030842 -0.016731 0.000000 0.000000 0.000000
# 3 -0.015564 -0.016731 0.044607 0.000000 0.000000 0.000000
# 4 0.000000 0.000000 0.000000 0.054418 0.000000 0.000000
# 5 0.000000 0.000000 0.000000 0.000000 0.044611 0.000000
# 6 0.000000 0.000000 0.000000 0.000000 0.000000 0.101093
#
#
# Mechanical properties :
#
#
# Convention : Reuss Voigt Hill
#
# Bulk Modulus (GPa) = 11.68497 12.82712 12.25605
# Shear Modulus (GPa) = 13.51075 18.06066 15.78571
#
# Velocity S-wave (km/s) = 2.65516 3.06986 2.87001
# Velocity P-wave (km/s) = 3.93663 4.38845 4.16867
#
# Compressibility (1/GPa) = 0.08558004
#
# Stress axis : x y z
#
# Youngs Moduli (GPa) = 26.27827 32.42305 22.41823
#
# Poissons Ratio (x) = -0.59443 0.34893
# Poissons Ratio (y) = -0.48177 0.37507
# Poissons Ratio (z) = 0.40901 0.54246
#
# Static dielectric constant tensor:
#      x y z
#    x 1.645620 0.000000 0.000000 
#    y 0.000000 1.666890 0.000000 
#    z 0.000000 0.000000 1.669250 
# 
# From -- ./inp_files/29443.got.cif
#   From: 2010.05.17/outbox.cif.g08.bks.cpg/sg72_15_cif.got.tgz:29443.got - 2010.06.03 17:03:01.
