data_PCOD9527265
_publ_section_title
;
Structure prediction by ZEFSAII (Michael W. Deem and Ramdas Pophale) SiO2 
 PCOD9527265
Probable space group: I B A M
;
_chemical_formula_sum "Si O2"
_cell_formula_units_Z 96
_cell_length_a 22.503654
_cell_length_b 12.567605
_cell_length_c 16.752893
_cell_angle_alpha 90.000000
_cell_angle_beta 90.000000
_cell_angle_gamma 90.000000
_cell_volume 4738.003518
_symmetry_space_group_name_H-M "I B A M"
_symmetry_group_IT_number 72
_symmetry_cell_setting 'orthorhombic'
loop_
_space_group_symop_operation_xyz
x,y,z
-x,-y,z
x,-y,1/2-z
-x,y,1/2-z
-x,-y,-z
x,y,-z
-x,y,1/2+z
x,-y,1/2+z
1/2+x,1/2+y,1/2+z
1/2-x,1/2-y,1/2+z
1/2+x,1/2-y,-z
1/2-x,1/2+y,-z
1/2-x,1/2-y,1/2-z
1/2+x,1/2+y,1/2-z
1/2-x,1/2+y,z
1/2+x,1/2-y,z
loop_
_atom_site_type_symbol
_atom_site_label
_atom_site_fract_x
_atom_site_fract_y
_atom_site_fract_z
Si Si1 0.326038 0.868350 0.096148
Si Si2 0.136832 0.140873 0.903714
Si Si3 0.804238 0.078575 0.097766
Si Si4 0.604446 0.243412 0.593975
Si Si5 0.567845 0.985706 0.155431
Si Si6 0.005586 0.873013 0.656644
O O1 0.326856 0.744911 0.121168
O O2 0.264198 0.920007 0.123446
O O3 0.385163 0.928733 0.123055
O O4 0.325778 0.870836 0.000000
O O5 0.070128 0.157244 0.874346
O O6 0.162944 0.028674 0.874725
O O7 0.136596 0.136589 0.000000
O O8 0.840529 0.183831 0.122894
O O9 0.805636 0.078530 0.000000
O O10 0.612737 0.223259 0.500000
O O11 0.546107 0.314866 0.608542
O O12 0.593023 0.130940 0.635268
O O13 0.500000 0.000000 0.123920
O O14 0.565052 0.000000 0.250000
O O15 0.000000 0.845272 0.750000
O O16 0.000000 0.000000 0.648018
#
# Coordination Sequence:
#
# PCOD9527265 Si02
#       6
#    16  16  16  16  16  16
#     4  10  22  40  65  91 122 163 209 256 308 373
#     4  10  20  37  63  90 122 162 209 258 307 366
#     4   9  20  38  62  96 126 158 204 261 311 359
#     4  11  23  40  67  93 124 166 213 260 310 370
#     4  11  26  44  63  90 127 167 205 258 318 372
#     4  11  23  37  59  94 129 167 204 257 319 367
#
# _framework density 20.261697999999999
#
# number of rings (size 3 to 8) (size 9 to 14) (size 15 to 20)
#    0.000    1.667    1.667    2.000    7.000    3.333 
#    0.000    2.500    0.000    0.000    0.000    0.000 
#    0.000    0.000    0.000    0.000    0.000    0.000 
#
# Total GULP energy -268185.399399 kJ/mol
# GULP energy per Si atom -5587.195821 kJ/mol
# Density = 2.021558 g / cm^3
# Si number density = 20.261698 Si / 1000 Ang^3
#
#
#
# Elastic Constant Matrix: (Units=GPa)
#
#
# Indices 1 2 3 4 5 6 
#
# 1 134.6528 54.6765 10.9895 0.0000 0.0000 0.0000
# 2 54.6765 120.1265 28.3625 0.0000 0.0000 0.0000
# 3 10.9895 28.3625 12.3544 0.0000 0.0000 0.0000
# 4 0.0000 0.0000 0.0000 -34.1781 0.0000 0.0000
# 5 0.0000 0.0000 0.0000 0.0000 2.0662 0.0000
# 6 0.0000 0.0000 0.0000 0.0000 0.0000 33.0055
#
#
#
# Elastic Compliance Matrix: (Units=1/GPa)
#
#
# Indices 1 2 3 4 5 6 
#
# 1 0.009165 -0.004906 0.003110 0.000000 0.000000 0.000000
# 2 -0.004906 0.020803 -0.043395 0.000000 0.000000 0.000000
# 3 0.003110 -0.043395 0.177801 0.000000 0.000000 0.000000
# 4 0.000000 0.000000 0.000000 -0.029259 0.000000 0.000000
# 5 0.000000 0.000000 0.000000 0.000000 0.483981 0.000000
# 6 0.000000 0.000000 0.000000 0.000000 0.000000 0.030298
#
#
# Mechanical properties :
#
#
# Convention : Reuss Voigt Hill
#
# Bulk Modulus (GPa) = 8.51885 50.57673 29.54779
# Shear Modulus (GPa) = 6.08051 11.71907 8.89979
#
# Velocity S-wave (km/s) = 1.73421 2.40757 2.09808
# Velocity P-wave (km/s) = 2.86767 5.72228 4.52593
#
# Compressibility (1/GPa) = 0.11738677
#
# Stress axis : x y z
#
# Youngs Moduli (GPa) = 109.11488 48.06955 5.62428
#
# Poissons Ratio (x) = 0.23581 -0.01749
# Poissons Ratio (y) = 0.53528 0.24407
# Poissons Ratio (z) = -0.33933 2.08598
#
# Static dielectric constant tensor:
#      x y z
#    x 1.702860 0.000000 0.000000 
#    y 0.000000 1.725240 0.000000 
#    z 0.000000 0.000000 1.717060 
# 
# From -- ./inp_files/33258.got.cif
#   From: 2010.05.17/outbox.cif.g08.bks.cpg/sg72_17_cif.got.tgz:33258.got - 2010.06.03 17:03:01.
