data_PCOD9527918
_publ_section_title
;
Structure prediction by ZEFSAII (Michael W. Deem and Ramdas Pophale) SiO2 
 PCOD9527918
Probable space group: I B A M
;
_chemical_formula_sum "Si O2"
_cell_formula_units_Z 88
_cell_length_a 13.557931
_cell_length_b 10.652659
_cell_length_c 32.193693
_cell_angle_alpha 90.000000
_cell_angle_beta 90.000000
_cell_angle_gamma 90.000000
_cell_volume 4649.671198
_symmetry_space_group_name_H-M "I B A M"
_symmetry_group_IT_number 72
_symmetry_cell_setting 'orthorhombic'
loop_
_space_group_symop_operation_xyz
x,y,z
-x,-y,z
x,-y,1/2-z
-x,y,1/2-z
-x,-y,-z
x,y,-z
-x,y,1/2+z
x,-y,1/2+z
1/2+x,1/2+y,1/2+z
1/2-x,1/2-y,1/2+z
1/2+x,1/2-y,-z
1/2-x,1/2+y,-z
1/2-x,1/2-y,1/2-z
1/2+x,1/2+y,1/2-z
1/2-x,1/2+y,z
1/2+x,1/2-y,z
loop_
_atom_site_type_symbol
_atom_site_label
_atom_site_fract_x
_atom_site_fract_y
_atom_site_fract_z
Si Si1 0.763769 0.376514 0.777268
Si Si2 0.218039 0.688683 0.906219
Si Si3 0.554801 0.868052 0.158580
Si Si4 0.300678 0.558277 0.548565
Si Si5 0.000000 0.000000 0.091410
Si Si6 0.387421 0.676551 0.155949
O O1 0.773766 0.500000 0.750000
O O2 0.750000 0.250000 0.750000
O O3 0.860398 0.370271 0.806495
O O4 0.667180 0.391801 0.806395
O O5 0.112502 0.675675 0.883248
O O6 0.246699 0.552745 0.925320
O O7 0.228221 0.799839 0.939401
O O8 0.295632 0.729875 0.870466
O O9 0.467014 0.775388 0.171281
O O10 0.500000 0.000000 0.152091
O O11 0.286805 0.534864 0.500000
O O12 0.414790 0.552985 0.562220
O O13 0.054492 0.093380 0.122784
#
# Coordination Sequence:
#
# PCOD9527918 Si02
#       6
#    16  16  16  16   8  16
#     4  11  26  42  60  94 129 155 206 265 313 371
#     4  10  22  39  64  93 125 161 217 249 301 385
#     4  11  22  41  67  87 122 172 206 251 312 372
#     4  11  21  38  62  93 129 162 200 264 316 356
#     4  10  21  38  61  88 116 166 220 238 299 386
#     4  10  22  39  65  87 118 164 208 250 301 368
#
# _framework density 18.926069999999999
#
# number of rings (size 3 to 8) (size 9 to 14) (size 15 to 20)
#    0.000    1.455    1.818    3.000    2.545    5.455 
#    0.000    0.000    0.000    2.182    0.000    0.000 
#    0.000    0.000    0.000    0.000    0.000    0.000 
#
# Total GULP energy -245394.982785 kJ/mol
# GULP energy per Si atom -5577.158700 kJ/mol
# Density = 1.888299 g / cm^3
# Si number density = 18.926070 Si / 1000 Ang^3
#
#
#
# Elastic Constant Matrix: (Units=GPa)
#
#
# Indices 1 2 3 4 5 6 
#
# 1 102.3100 30.4962 24.9373 0.0000 0.0000 0.0000
# 2 30.4962 87.2692 29.0483 0.0000 0.0000 0.0000
# 3 24.9373 29.0483 86.2700 0.0000 0.0000 0.0000
# 4 0.0000 0.0000 0.0000 22.5625 0.0000 0.0000
# 5 0.0000 0.0000 0.0000 0.0000 26.4791 0.0000
# 6 0.0000 0.0000 0.0000 0.0000 0.0000 27.0439
#
#
#
# Elastic Compliance Matrix: (Units=1/GPa)
#
#
# Indices 1 2 3 4 5 6 
#
# 1 0.011261 -0.003212 -0.002174 0.000000 0.000000 0.000000
# 2 -0.003212 0.013821 -0.003725 0.000000 0.000000 0.000000
# 3 -0.002174 -0.003725 0.013474 0.000000 0.000000 0.000000
# 4 0.000000 0.000000 0.000000 0.044321 0.000000 0.000000
# 5 0.000000 0.000000 0.000000 0.000000 0.037766 0.000000
# 6 0.000000 0.000000 0.000000 0.000000 0.000000 0.036977
#
#
# Mechanical properties :
#
#
# Convention : Reuss Voigt Hill
#
# Bulk Modulus (GPa) = 49.17632 49.42365 49.29999
# Shear Modulus (GPa) = 27.37912 27.97492 27.67702
#
# Velocity S-wave (km/s) = 3.80759 3.84880 3.82825
# Velocity P-wave (km/s) = 6.73574 6.77656 6.75618
#
# Compressibility (1/GPa) = 0.02033499
#
# Stress axis : x y z
#
# Youngs Moduli (GPa) = 88.79889 72.35283 74.21558
#
# Poissons Ratio (x) = 0.23238 0.16133
# Poissons Ratio (y) = 0.28520 0.27648
# Poissons Ratio (z) = 0.19303 0.26954
#
# Static dielectric constant tensor:
#      x y z
#    x 1.732220 0.000000 0.000000 
#    y 0.000000 1.660680 0.000000 
#    z 0.000000 0.000000 1.686690 
# 
# From -- ./inp_files/51301.got.cif
#   From: 2010.05.17/outbox.cif.g08.bks.cpg/sg72_26_cif.got.tgz:51301.got - 2010.06.03 17:03:01.
