data_PCOD9527623
_publ_section_title
;
Structure prediction by ZEFSAII (Michael W. Deem and Ramdas Pophale) SiO2 
 PCOD9527623
Probable space group: I B A M
;
_chemical_formula_sum "Si O2"
_cell_formula_units_Z 112
_cell_length_a 15.778496
_cell_length_b 15.168927
_cell_length_c 24.757092
_cell_angle_alpha 90.000000
_cell_angle_beta 90.000000
_cell_angle_gamma 90.000000
_cell_volume 5925.433056
_symmetry_space_group_name_H-M "I B A M"
_symmetry_group_IT_number 72
_symmetry_cell_setting 'orthorhombic'
loop_
_space_group_symop_operation_xyz
x,y,z
-x,-y,z
x,-y,1/2-z
-x,y,1/2-z
-x,-y,-z
x,y,-z
-x,y,1/2+z
x,-y,1/2+z
1/2+x,1/2+y,1/2+z
1/2-x,1/2-y,1/2+z
1/2+x,1/2-y,-z
1/2-x,1/2+y,-z
1/2-x,1/2-y,1/2-z
1/2+x,1/2+y,1/2-z
1/2-x,1/2+y,z
1/2+x,1/2-y,z
loop_
_atom_site_type_symbol
_atom_site_label
_atom_site_fract_x
_atom_site_fract_y
_atom_site_fract_z
Si Si1 0.401016 0.400086 0.244602
Si Si2 0.572649 0.427780 0.934940
Si Si3 0.804723 0.850925 0.362579
Si Si4 0.432941 0.925414 0.434890
Si Si5 0.755427 0.455549 0.878539
Si Si6 0.223060 0.200332 0.194294
Si Si7 0.447846 0.275252 0.935416
O O1 0.366615 0.500000 0.250000
O O2 0.500000 0.405065 0.250000
O O3 0.368425 0.362159 0.188126
O O4 0.368488 0.336882 0.291784
O O5 0.500000 0.500000 0.918452
O O6 0.663857 0.435534 0.906518
O O7 0.529549 0.334184 0.922543
O O8 0.583613 0.437341 0.000000
O O9 0.739902 0.772030 0.351128
O O10 0.865026 0.823890 0.411768
O O11 0.754467 0.941717 0.365482
O O12 0.435565 0.925885 0.500000
O O13 0.337127 0.943704 0.416113
O O14 0.454467 0.825685 0.416341
O O15 0.500000 0.000000 0.416070
O O16 0.768082 0.388849 0.827815
O O17 0.250000 0.250000 0.250000
O O18 0.439869 0.274529 0.000000
#
# Coordination Sequence:
#
# PCOD9527623 Si02
#       7
#    16  16  16  16  16  16  16
#     4  10  21  37  62  91 121 157 203 259 316 377
#     4  10  21  35  57  95 135 160 196 261 322 377
#     4  11  22  38  62  91 125 164 204 260 318 376
#     4  10  23  44  63  87 128 174 220 262 303 377
#     4  12  22  37  66  93 120 171 216 259 319 385
#     4  10  23  40  55  86 124 159 204 265 318 372
#     4  10  21  39  60  89 131 168 204 257 318 378
#
# _framework density 18.901571000000001
#
# number of rings (size 3 to 8) (size 9 to 14) (size 15 to 20)
#    0.000    1.571    4.286    0.429    2.000    1.714 
#    0.000    0.000    0.000    0.000    0.000    3.000 
#    0.000    0.000    0.000    0.000    0.000    0.000 
#
# Total GULP energy -312082.050462 kJ/mol
# GULP energy per Si atom -5572.893758 kJ/mol
# Density = 1.885855 g / cm^3
# Si number density = 18.901571 Si / 1000 Ang^3
#
#
#
# Elastic Constant Matrix: (Units=GPa)
#
#
# Indices 1 2 3 4 5 6 
#
# 1 101.5025 58.3197 21.2705 0.0000 0.0000 0.0000
# 2 58.3197 147.8240 17.2133 0.0000 0.0000 0.0000
# 3 21.2705 17.2133 23.5742 0.0000 0.0000 0.0000
# 4 0.0000 0.0000 0.0000 20.6413 0.0000 0.0000
# 5 0.0000 0.0000 0.0000 0.0000 21.2400 0.0000
# 6 0.0000 0.0000 0.0000 0.0000 0.0000 0.1058
#
#
#
# Elastic Compliance Matrix: (Units=1/GPa)
#
#
# Indices 1 2 3 4 5 6 
#
# 1 0.014540 -0.004600 -0.009761 0.000000 0.000000 0.000000
# 2 -0.004600 0.008849 -0.002311 0.000000 0.000000 0.000000
# 3 -0.009761 -0.002311 0.052913 0.000000 0.000000 0.000000
# 4 0.000000 0.000000 0.000000 0.048447 0.000000 0.000000
# 5 0.000000 0.000000 0.000000 0.000000 0.047081 0.000000
# 6 0.000000 0.000000 0.000000 0.000000 0.000000 9.452036
#
#
# Mechanical properties :
#
#
# Convention : Reuss Voigt Hill
#
# Bulk Modulus (GPa) = 23.27762 51.83419 37.55591
# Shear Modulus (GPa) = 0.51698 20.13722 10.32710
#
# Velocity S-wave (km/s) = 0.52355 3.26755 2.33997
# Velocity P-wave (km/s) = 3.56474 6.45899 5.21661
#
# Compressibility (1/GPa) = 0.04295972
#
# Stress axis : x y z
#
# Youngs Moduli (GPa) = 68.77425 113.01201 18.89884
#
# Poissons Ratio (x) = 0.51984 0.18447
# Poissons Ratio (y) = 0.31635 0.04367
# Poissons Ratio (z) = 0.67129 0.26113
#
# Static dielectric constant tensor:
#      x y z
#    x 1.625970 0.000000 0.000000 
#    y 0.000000 1.751240 0.000000 
#    z 0.000000 0.000000 1.704130 
# 
# From -- ./inp_files/44350.got.cif
#   From: 2010.05.17/outbox.cif.g08.bks.cpg/sg72_23_cif.got.tgz:44350.got - 2010.06.03 17:03:01.
