data_PCOD9527536
_publ_section_title
;
Structure prediction by ZEFSAII (Michael W. Deem and Ramdas Pophale) SiO2 
 PCOD9527536
Probable space group: I B A M
;
_chemical_formula_sum "Si O2"
_cell_formula_units_Z 88
_cell_length_a 18.995080
_cell_length_b 16.776897
_cell_length_c 14.788880
_cell_angle_alpha 90.000000
_cell_angle_beta 90.000000
_cell_angle_gamma 90.000000
_cell_volume 4712.898105
_symmetry_space_group_name_H-M "I B A M"
_symmetry_group_IT_number 72
_symmetry_cell_setting 'orthorhombic'
loop_
_space_group_symop_operation_xyz
x,y,z
-x,-y,z
x,-y,1/2-z
-x,y,1/2-z
-x,-y,-z
x,y,-z
-x,y,1/2+z
x,-y,1/2+z
1/2+x,1/2+y,1/2+z
1/2-x,1/2-y,1/2+z
1/2+x,1/2-y,-z
1/2-x,1/2+y,-z
1/2-x,1/2-y,1/2-z
1/2+x,1/2+y,1/2-z
1/2-x,1/2+y,z
1/2+x,1/2-y,z
loop_
_atom_site_type_symbol
_atom_site_label
_atom_site_fract_x
_atom_site_fract_y
_atom_site_fract_z
Si Si1 0.825911 0.623850 0.602411
Si Si2 0.000000 0.206307 0.750000
Si Si3 0.422487 0.032068 0.394743
Si Si4 0.372263 0.811967 0.209591
Si Si5 0.018632 0.908476 0.393554
Si Si6 0.670344 0.665431 0.394699
O O1 0.837484 0.655972 0.500000
O O2 0.868853 0.541778 0.608130
O O3 0.852134 0.675999 0.686225
O O4 0.741912 0.615362 0.614575
O O5 0.055330 0.264225 0.794686
O O6 0.973055 0.148352 0.829136
O O7 0.430856 0.057625 0.500000
O O8 0.388349 0.103767 0.337781
O O9 0.500000 0.000000 0.364634
O O10 0.322026 0.748554 0.159431
O O11 0.007531 0.893397 0.500000
O O12 0.100202 0.885489 0.371445
O O13 0.000000 0.000000 0.375762
O O14 0.662105 0.686958 0.500000
#
# Coordination Sequence:
#
# PCOD9527536 Si02
#       6
#    16   8  16  16  16  16
#     4  10  21  36  53  76 108 142 179 222 265 317
#     4  10  21  32  51  80 108 134 172 220 263 312
#     4  10  21  37  58  82 108 143 186 228 271 324
#     4  11  20  34  55  79 109 144 178 220 273 324
#     4   9  18  35  57  78 104 139 176 215 262 315
#     4   9  19  36  56  79 107 139 177 221 268 318
#
# _framework density 18.672162
#
# number of rings (size 3 to 8) (size 9 to 14) (size 15 to 20)
#    0.000    2.182    0.000    3.000    0.000    2.182 
#    0.000    9.091    0.000    4.364    0.000    0.000 
#    0.000    0.000    0.000    0.000    0.000    0.000 
#
# Total GULP energy -245070.445845 kJ/mol
# GULP energy per Si atom -5569.782860 kJ/mol
# Density = 1.862966 g / cm^3
# Si number density = 18.672162 Si / 1000 Ang^3
#
#
#
# Elastic Constant Matrix: (Units=GPa)
#
#
# Indices 1 2 3 4 5 6 
#
# 1 52.0524 34.2425 20.7208 0.0000 0.0000 0.0000
# 2 34.2425 81.5378 46.8960 0.0000 0.0000 0.0000
# 3 20.7208 46.8960 83.9400 0.0000 0.0000 0.0000
# 4 0.0000 0.0000 0.0000 20.6685 0.0000 0.0000
# 5 0.0000 0.0000 0.0000 0.0000 19.8825 0.0000
# 6 0.0000 0.0000 0.0000 0.0000 0.0000 21.1171
#
#
#
# Elastic Compliance Matrix: (Units=1/GPa)
#
#
# Indices 1 2 3 4 5 6 
#
# 1 0.026558 -0.010878 -0.000478 0.000000 0.000000 0.000000
# 2 -0.010878 0.022526 -0.009900 0.000000 0.000000 0.000000
# 3 -0.000478 -0.009900 0.017562 0.000000 0.000000 0.000000
# 4 0.000000 0.000000 0.000000 0.048383 0.000000 0.000000
# 5 0.000000 0.000000 0.000000 0.000000 0.050296 0.000000
# 6 0.000000 0.000000 0.000000 0.000000 0.000000 0.047355
#
#
# Mechanical properties :
#
#
# Convention : Reuss Voigt Hill
#
# Bulk Modulus (GPa) = 41.43559 46.80540 44.12049
# Shear Modulus (GPa) = 18.99424 20.04500 19.51962
#
# Velocity S-wave (km/s) = 3.19289 3.28002 3.23675
# Velocity P-wave (km/s) = 5.98599 6.28220 6.13588
#
# Compressibility (1/GPa) = 0.02413384
#
# Stress axis : x y z
#
# Youngs Moduli (GPa) = 37.65348 44.39225 56.94009
#
# Poissons Ratio (x) = 0.48290 0.02725
# Poissons Ratio (y) = 0.40960 0.56370
# Poissons Ratio (z) = 0.01802 0.43948
#
# Static dielectric constant tensor:
#      x y z
#    x 1.685960 0.000000 0.000000 
#    y 0.000000 1.610800 0.000000 
#    z 0.000000 0.000000 1.695060 
# 
# From -- ./inp_files/24070.got.cif
#   From: 2010.05.17/outbox.cif.g08.bks.cpg/sg72_13_cif.got.tgz:24070.got - 2010.06.03 17:03:01.
