data_PCOD9527088
_publ_section_title
;
Structure prediction by ZEFSAII (Michael W. Deem and Ramdas Pophale) SiO2 
 PCOD9527088
Probable space group: I B A M
;
_chemical_formula_sum "Si O2"
_cell_formula_units_Z 112
_cell_length_a 21.110980
_cell_length_b 16.441012
_cell_length_c 14.624420
_cell_angle_alpha 90.000000
_cell_angle_beta 90.000000
_cell_angle_gamma 90.000000
_cell_volume 5075.929620
_symmetry_space_group_name_H-M "I B A M"
_symmetry_group_IT_number 72
_symmetry_cell_setting 'orthorhombic'
loop_
_space_group_symop_operation_xyz
x,y,z
-x,-y,z
x,-y,1/2-z
-x,y,1/2-z
-x,-y,-z
x,y,-z
-x,y,1/2+z
x,-y,1/2+z
1/2+x,1/2+y,1/2+z
1/2-x,1/2-y,1/2+z
1/2+x,1/2-y,-z
1/2-x,1/2+y,-z
1/2-x,1/2-y,1/2-z
1/2+x,1/2+y,1/2-z
1/2-x,1/2+y,z
1/2+x,1/2-y,z
loop_
_atom_site_type_symbol
_atom_site_label
_atom_site_fract_x
_atom_site_fract_y
_atom_site_fract_z
Si Si1 0.847101 0.414628 0.271132
Si Si2 0.125808 0.847417 0.105008
Si Si3 0.448215 0.862422 0.892139
Si Si4 0.426232 0.483474 0.388662
Si Si5 0.263231 0.217623 0.649114
Si Si6 0.591635 0.176429 0.391682
Si Si7 0.886374 0.193428 0.394915
O O1 0.816637 0.500000 0.250000
O O2 0.912488 0.425142 0.326950
O O3 0.804331 0.363153 0.339160
O O4 0.860383 0.367470 0.176764
O O5 0.113685 0.937353 0.143540
O O6 0.196997 0.811425 0.107794
O O7 0.086113 0.770532 0.140683
O O8 0.105589 0.855002 0.000000
O O9 0.523229 0.864175 0.884275
O O10 0.423130 0.773230 0.858978
O O11 0.431729 0.872472 0.000000
O O12 0.500000 0.500000 0.366808
O O13 0.420936 0.479784 0.500000
O O14 0.402659 0.394900 0.354700
O O15 0.250000 0.250000 0.750000
O O16 0.311594 0.283717 0.607268
O O17 0.609891 0.174710 0.500000
O O18 0.907328 0.190128 0.500000
#
# Coordination Sequence:
#
# PCOD9527088 Si02
#       7
#    16  16  16  16  16  16  16
#     4  11  24  40  59  86 117 155 197 251 300 347
#     4  10  20  36  60  88 117 155 199 245 298 358
#     4   9  19  36  61  87 118 157 196 238 294 361
#     4   9  17  32  59  94 123 145 182 242 307 363
#     4  11  22  39  58  75 111 157 201 238 291 349
#     4  10  20  37  60  87 118 156 197 242 298 359
#     4   9  18  34  57  85 113 148 190 236 289 351
#
# _framework density 22.064923
#
# number of rings (size 3 to 8) (size 9 to 14) (size 15 to 20)
#    0.000    2.143    1.429    1.714    0.000    6.857 
#    0.000    1.429    0.000    0.857    0.000    0.000 
#    0.000    0.000    0.000    0.000    0.000    0.000 
#
# Total GULP energy -312280.061489 kJ/mol
# GULP energy per Si atom -5576.429669 kJ/mol
# Density = 2.201470 g / cm^3
# Si number density = 22.064923 Si / 1000 Ang^3
#
#
#
# Elastic Constant Matrix: (Units=GPa)
#
#
# Indices 1 2 3 4 5 6 
#
# 1 51.7093 -3.0612 -12.5454 0.0000 0.0000 0.0000
# 2 -3.0612 74.6259 -4.9858 0.0000 0.0000 0.0000
# 3 -12.5454 -4.9858 55.9969 0.0000 0.0000 0.0000
# 4 0.0000 0.0000 0.0000 20.7335 0.0000 0.0000
# 5 0.0000 0.0000 0.0000 0.0000 -16.5960 0.0000
# 6 0.0000 0.0000 0.0000 0.0000 0.0000 20.2777
#
#
#
# Elastic Compliance Matrix: (Units=1/GPa)
#
#
# Indices 1 2 3 4 5 6 
#
# 1 0.020549 0.001157 0.004707 0.000000 0.000000 0.000000
# 2 0.001157 0.013546 0.001465 0.000000 0.000000 0.000000
# 3 0.004707 0.001465 0.019043 0.000000 0.000000 0.000000
# 4 0.000000 0.000000 0.000000 0.048231 0.000000 0.000000
# 5 0.000000 0.000000 0.000000 0.000000 -0.060256 0.000000
# 6 0.000000 0.000000 0.000000 0.000000 0.000000 0.049315
#
#
# Mechanical properties :
#
#
# Convention : Reuss Voigt Hill
#
# Bulk Modulus (GPa) = 14.74984 15.68303 15.21643
# Shear Modulus (GPa) = 50.82916 18.41134 34.62025
#
# Velocity S-wave (km/s) = 4.80481 2.89176 3.96538
# Velocity P-wave (km/s) = 6.12216 4.27467 5.27985
#
# Compressibility (1/GPa) = 0.06779736
#
# Stress axis : x y z
#
# Youngs Moduli (GPa) = 48.66334 73.82497 52.51236
#
# Poissons Ratio (x) = -0.08545 -0.24717
# Poissons Ratio (y) = -0.05632 -0.07695
# Poissons Ratio (z) = -0.22905 -0.10818
#
# Static dielectric constant tensor:
#      x y z
#    x 1.852320 0.000000 0.000000 
#    y 0.000000 1.855880 0.000000 
#    z 0.000000 0.000000 1.830470 
# 
# From -- ./inp_files/25225.got.cif
#   From: 2010.05.17/outbox.cif.g08.bks.cpg/sg72_13_cif.got.tgz:25225.got - 2010.06.03 17:03:01.
