data_PCOD9527104
_publ_section_title
;
Structure prediction by ZEFSAII (Michael W. Deem and Ramdas Pophale) SiO2 
 PCOD9527104
Probable space group: I B A M
;
_chemical_formula_sum "Si O2"
_cell_formula_units_Z 48
_cell_length_a 12.704661
_cell_length_b 12.565972
_cell_length_c 12.154824
_cell_angle_alpha 90.000000
_cell_angle_beta 90.000000
_cell_angle_gamma 90.000000
_cell_volume 1940.474069
_symmetry_space_group_name_H-M "I B A M"
_symmetry_group_IT_number 72
_symmetry_cell_setting 'orthorhombic'
loop_
_space_group_symop_operation_xyz
x,y,z
-x,-y,z
x,-y,1/2-z
-x,y,1/2-z
-x,-y,-z
x,y,-z
-x,y,1/2+z
x,-y,1/2+z
1/2+x,1/2+y,1/2+z
1/2-x,1/2-y,1/2+z
1/2+x,1/2-y,-z
1/2-x,1/2+y,-z
1/2-x,1/2-y,1/2-z
1/2+x,1/2+y,1/2-z
1/2-x,1/2+y,z
1/2+x,1/2-y,z
loop_
_atom_site_type_symbol
_atom_site_label
_atom_site_fract_x
_atom_site_fract_y
_atom_site_fract_z
Si Si1 0.774518 0.573271 0.616854
Si Si2 0.547653 0.366522 0.875708
Si Si3 0.609559 0.137954 0.188227
O O1 0.799480 0.622674 0.500000
O O2 0.649823 0.556801 0.624638
O O3 0.840580 0.464049 0.627793
O O4 0.809867 0.651555 0.711745
O O5 0.500000 0.375946 0.750000
O O6 0.590151 0.245135 0.876884
O O7 0.496863 0.380104 0.000000
O O8 0.500000 0.113367 0.250000
#
# Coordination Sequence:
#
# PCOD9527104 Si02
#       3
#    16  16  16
#     4  10  20  36  60  91 126 162 205 258 313 369
#     4  10  22  41  65  92 124 165 210 257 310 369
#     4  10  21  37  60  91 124 162 207 256 311 370
#
# _framework density 24.736225000000001
#
# number of rings (size 3 to 8) (size 9 to 14) (size 15 to 20)
#    0.000    2.000    0.000    4.000    0.000    8.000 
#    0.000   11.667    0.000   20.000    0.000    0.000 
#    0.000    0.000    0.000    0.000    0.000    0.000 
#
# Total GULP energy -133697.968192 kJ/mol
# GULP energy per Si atom -5570.748675 kJ/mol
# Density = 2.467992 g / cm^3
# Si number density = 24.736225 Si / 1000 Ang^3
#
#
#
# Elastic Constant Matrix: (Units=GPa)
#
#
# Indices 1 2 3 4 5 6 
#
# 1 74.7773 27.9380 51.8819 0.0000 0.0000 0.0000
# 2 27.9380 138.0665 25.9423 0.0000 0.0000 0.0000
# 3 51.8819 25.9423 230.6014 0.0000 0.0000 0.0000
# 4 0.0000 0.0000 0.0000 -16.1512 0.0000 0.0000
# 5 0.0000 0.0000 0.0000 0.0000 40.3504 0.0000
# 6 0.0000 0.0000 0.0000 0.0000 0.0000 42.8029
#
#
#
# Elastic Compliance Matrix: (Units=1/GPa)
#
#
# Indices 1 2 3 4 5 6 
#
# 1 0.016809 -0.002749 -0.003473 0.000000 0.000000 0.000000
# 2 -0.002749 0.007849 -0.000265 0.000000 0.000000 0.000000
# 3 -0.003473 -0.000265 0.005148 0.000000 0.000000 0.000000
# 4 0.000000 0.000000 0.000000 -0.061915 0.000000 0.000000
# 5 0.000000 0.000000 0.000000 0.000000 0.024783 0.000000
# 6 0.000000 0.000000 0.000000 0.000000 0.000000 0.023363
#
#
# Mechanical properties :
#
#
# Convention : Reuss Voigt Hill
#
# Bulk Modulus (GPa) = 59.40468 72.77441 66.08954
# Shear Modulus (GPa) = 144.42440 35.91261 90.16850
#
# Velocity S-wave (km/s) = 7.64935 3.81441 6.04410
# Velocity P-wave (km/s) = 10.10367 6.99169 8.68815
#
# Compressibility (1/GPa) = 0.01683369
#
# Stress axis : x y z
#
# Youngs Moduli (GPa) = 59.49030 127.40738 194.26774
#
# Poissons Ratio (x) = 0.35023 0.67462
# Poissons Ratio (y) = 0.16353 0.05139
# Poissons Ratio (z) = 0.20659 0.03370
#
# Static dielectric constant tensor:
#      x y z
#    x 2.086600 0.000000 0.000000 
#    y 0.000000 1.974510 0.000000 
#    z 0.000000 0.000000 1.995710 
# 
# From -- ./inp_files/10959.got.cif
#   From: 2010.05.17/outbox.cif.g08.bks.cpg/sg72_6_cif.got.tgz:10959.got - 2010.06.03 17:03:01.
