data_PCOD9527938
_publ_section_title
;
Structure prediction by ZEFSAII (Michael W. Deem and Ramdas Pophale) SiO2 
 PCOD9527938
Probable space group: I B A M
;
_chemical_formula_sum "Si O2"
_cell_formula_units_Z 64
_cell_length_a 5.290342
_cell_length_b 23.804132
_cell_length_c 25.395315
_cell_angle_alpha 90.000000
_cell_angle_beta 90.000000
_cell_angle_gamma 90.000000
_cell_volume 3198.082791
_symmetry_space_group_name_H-M "I B A M"
_symmetry_group_IT_number 72
_symmetry_cell_setting 'orthorhombic'
loop_
_space_group_symop_operation_xyz
x,y,z
-x,-y,z
x,-y,1/2-z
-x,y,1/2-z
-x,-y,-z
x,y,-z
-x,y,1/2+z
x,-y,1/2+z
1/2+x,1/2+y,1/2+z
1/2-x,1/2-y,1/2+z
1/2+x,1/2-y,-z
1/2-x,1/2+y,-z
1/2-x,1/2-y,1/2-z
1/2+x,1/2+y,1/2-z
1/2-x,1/2+y,z
1/2+x,1/2-y,z
loop_
_atom_site_type_symbol
_atom_site_label
_atom_site_fract_x
_atom_site_fract_y
_atom_site_fract_z
Si Si1 0.251407 0.064458 0.773189
Si Si2 0.141189 0.942828 0.937883
Si Si3 0.342493 0.100597 0.891030
Si Si4 0.979289 0.712874 0.439503
O O1 0.500000 0.092013 0.750000
O O2 0.268560 0.073265 0.835223
O O3 0.000000 0.090719 0.750000
O O4 0.251254 0.000000 0.750000
O O5 0.413693 0.933799 0.912085
O O6 0.919377 0.899035 0.924080
O O7 0.183374 0.944515 0.000000
O O8 0.000000 0.000000 0.921373
O O9 0.442978 0.164045 0.896735
O O10 0.969689 0.689106 0.500000
O O11 0.747127 0.756109 0.434645
#
# Coordination Sequence:
#
# PCOD9527938 Si02
#       4
#    16  16  16  16
#     4  10  23  39  60  88 117 158 217 266 308 368
#     4  11  24  37  56  92 132 167 204 244 310 405
#     4  12  23  39  66  87 127 174 207 260 327 372
#     4  10  21  38  62  92 124 161 212 262 309 380
#
# _framework density 20.011987999999999
#
# number of rings (size 3 to 8) (size 9 to 14) (size 15 to 20)
#    0.000    1.250    0.000    6.000   10.500    4.000 
#    0.000    0.000    0.000    4.500    0.000    0.000 
#    0.000    0.000    0.000    0.000    0.000    0.000 
#
# Total GULP energy -178472.684147 kJ/mol
# GULP energy per Si atom -5577.271380 kJ/mol
# Density = 1.996644 g / cm^3
# Si number density = 20.011988 Si / 1000 Ang^3
#
#
#
# Elastic Constant Matrix: (Units=GPa)
#
#
# Indices 1 2 3 4 5 6 
#
# 1 172.5344 6.8456 51.4574 0.0000 0.0000 0.0000
# 2 6.8456 56.0082 35.8868 0.0000 0.0000 0.0000
# 3 51.4574 35.8868 113.7044 0.0000 0.0000 0.0000
# 4 0.0000 0.0000 0.0000 18.3128 0.0000 0.0000
# 5 0.0000 0.0000 0.0000 0.0000 36.8326 0.0000
# 6 0.0000 0.0000 0.0000 0.0000 0.0000 19.7803
#
#
#
# Elastic Compliance Matrix: (Units=1/GPa)
#
#
# Indices 1 2 3 4 5 6 
#
# 1 0.006790 0.001428 -0.003524 0.000000 0.000000 0.000000
# 2 0.001428 0.022681 -0.007804 0.000000 0.000000 0.000000
# 3 -0.003524 -0.007804 0.012853 0.000000 0.000000 0.000000
# 4 0.000000 0.000000 0.000000 0.054607 0.000000 0.000000
# 5 0.000000 0.000000 0.000000 0.000000 0.027150 0.000000
# 6 0.000000 0.000000 0.000000 0.000000 0.000000 0.050555
#
#
# Mechanical properties :
#
#
# Convention : Reuss Voigt Hill
#
# Bulk Modulus (GPa) = 44.39940 58.95850 51.67895
# Shear Modulus (GPa) = 24.75942 31.52230 28.14086
#
# Velocity S-wave (km/s) = 3.52124 3.97315 3.75400
# Velocity P-wave (km/s) = 6.22630 7.11150 6.68357
#
# Compressibility (1/GPa) = 0.02252283
#
# Stress axis : x y z
#
# Youngs Moduli (GPa) = 147.27171 44.09044 77.80568
#
# Poissons Ratio (x) = -0.06295 0.27415
# Poissons Ratio (y) = -0.21027 0.60723
# Poissons Ratio (z) = 0.51892 0.34410
#
# Static dielectric constant tensor:
#      x y z
#    x 1.770620 0.000000 0.000000 
#    y 0.000000 1.758930 0.000000 
#    z 0.000000 0.000000 1.734500 
# 
# From -- ./inp_files/40027.got.cif
#   From: 2010.05.17/outbox.cif.g08.bks.cpg/sg72_21_cif.got.tgz:40027.got - 2010.06.03 17:03:01.
