data_PCOD9527068
_publ_section_title
;
Structure prediction by ZEFSAII (Michael W. Deem and Ramdas Pophale) SiO2 
 PCOD9527068
Probable space group: I B A M
;
_chemical_formula_sum "Si O2"
_cell_formula_units_Z 104
_cell_length_a 20.064238
_cell_length_b 8.351068
_cell_length_c 27.078143
_cell_angle_alpha 90.000000
_cell_angle_beta 90.000000
_cell_angle_gamma 90.000000
_cell_volume 4537.154500
_symmetry_space_group_name_H-M "I B A M"
_symmetry_group_IT_number 72
_symmetry_cell_setting 'orthorhombic'
loop_
_space_group_symop_operation_xyz
x,y,z
-x,-y,z
x,-y,1/2-z
-x,y,1/2-z
-x,-y,-z
x,y,-z
-x,y,1/2+z
x,-y,1/2+z
1/2+x,1/2+y,1/2+z
1/2-x,1/2-y,1/2+z
1/2+x,1/2-y,-z
1/2-x,1/2+y,-z
1/2-x,1/2-y,1/2-z
1/2+x,1/2+y,1/2-z
1/2-x,1/2+y,z
1/2+x,1/2-y,z
loop_
_atom_site_type_symbol
_atom_site_label
_atom_site_fract_x
_atom_site_fract_y
_atom_site_fract_z
Si Si1 0.744975 0.370674 0.118472
Si Si2 0.106580 0.512772 0.865684
Si Si3 0.951347 0.274840 0.056161
Si Si4 0.882626 0.161076 0.320213
Si Si5 0.923905 0.328803 0.231538
Si Si6 0.500000 0.500000 0.624766
Si Si7 0.193335 0.113021 0.554421
O O1 0.814707 0.458097 0.129169
O O2 0.692217 0.372927 0.162378
O O3 0.770681 0.200188 0.099670
O O4 0.703508 0.432223 0.070808
O O5 0.069500 0.560740 0.916201
O O6 0.096833 0.333675 0.845185
O O7 0.080059 0.645990 0.826634
O O8 0.881321 0.176937 0.053674
O O9 0.975281 0.296883 0.000000
O O10 0.995000 0.155320 0.089348
O O11 0.887132 0.191095 0.261560
O O12 0.935521 0.032104 0.340643
O O13 0.895616 0.500000 0.250000
O O14 0.000000 0.318395 0.250000
O O15 0.222042 0.140839 0.500000
#
# Coordination Sequence:
#
# PCOD9527068 Si02
#       7
#    16  16  16  16  16   8  16
#     4  11  20  38  62  91 127 163 210 266 321 382
#     4  10  22  42  66  90 127 166 215 267 315 385
#     4  10  22  40  61  88 125 167 210 261 321 377
#     4  11  23  40  65  94 125 169 211 264 323 382
#     4   9  19  39  65  89 118 163 211 252 314 375
#     4  12  23  40  65  90 132 164 210 272 320 382
#     4  10  20  36  59  88 122 166 215 262 313 376
#
# _framework density 22.921855999999998
#
# number of rings (size 3 to 8) (size 9 to 14) (size 15 to 20)
#    0.000    1.692    3.077    1.615    0.000    3.077 
#    0.000    5.769    0.000    0.000    0.000    0.000 
#    0.000    0.000    0.000    0.000    0.000    0.000 
#
# Total GULP energy -290248.347862 kJ/mol
# GULP energy per Si atom -5581.698997 kJ/mol
# Density = 2.286969 g / cm^3
# Si number density = 22.921856 Si / 1000 Ang^3
#
#
#
# Elastic Constant Matrix: (Units=GPa)
#
#
# Indices 1 2 3 4 5 6 
#
# 1 88.8418 -1.7605 22.0242 0.0000 0.0000 0.0000
# 2 -1.7605 44.0958 -3.2267 0.0000 0.0000 0.0000
# 3 22.0242 -3.2267 85.3187 0.0000 0.0000 0.0000
# 4 0.0000 0.0000 0.0000 25.0107 0.0000 0.0000
# 5 0.0000 0.0000 0.0000 0.0000 20.3068 0.0000
# 6 0.0000 0.0000 0.0000 0.0000 0.0000 6.0233
#
#
#
# Elastic Compliance Matrix: (Units=1/GPa)
#
#
# Indices 1 2 3 4 5 6 
#
# 1 0.012028 0.000254 -0.003095 0.000000 0.000000 0.000000
# 2 0.000254 0.022746 0.000795 0.000000 0.000000 0.000000
# 3 -0.003095 0.000795 0.012550 0.000000 0.000000 0.000000
# 4 0.000000 0.000000 0.000000 0.039983 0.000000 0.000000
# 5 0.000000 0.000000 0.000000 0.000000 0.049245 0.000000
# 6 0.000000 0.000000 0.000000 0.000000 0.000000 0.166023
#
#
# Mechanical properties :
#
#
# Convention : Reuss Voigt Hill
#
# Bulk Modulus (GPa) = 23.13178 28.03669 25.58424
# Shear Modulus (GPa) = 15.57251 23.68278 19.62765
#
# Velocity S-wave (km/s) = 2.60931 3.21782 2.92941
# Velocity P-wave (km/s) = 4.38081 5.10527 4.75685
#
# Compressibility (1/GPa) = 0.04323056
#
# Stress axis : x y z
#
# Youngs Moduli (GPa) = 83.13688 43.96340 79.68213
#
# Poissons Ratio (x) = -0.01115 0.24665
# Poissons Ratio (y) = -0.02109 -0.06333
# Poissons Ratio (z) = 0.25734 -0.03494
#
# Static dielectric constant tensor:
#      x y z
#    x 1.831210 0.000000 0.000000 
#    y 0.000000 1.919510 0.000000 
#    z 0.000000 0.000000 1.870720 
# 
# From -- ./inp_files/49425.got.cif
#   From: 2010.05.17/outbox.cif.g08.bks.cpg/sg72_25_cif.got.tgz:49425.got - 2010.06.03 17:03:01.
