data_PCOD9527354
_publ_section_title
;
Structure prediction by ZEFSAII (Michael W. Deem and Ramdas Pophale) SiO2 
 PCOD9527354
Probable space group: I B A M
;
_chemical_formula_sum "Si O2"
_cell_formula_units_Z 52
_cell_length_a 24.968189
_cell_length_b 10.714503
_cell_length_c 9.717064
_cell_angle_alpha 90.000000
_cell_angle_beta 90.000000
_cell_angle_gamma 90.000000
_cell_volume 2599.525830
_symmetry_space_group_name_H-M "I B A M"
_symmetry_group_IT_number 72
_symmetry_cell_setting 'orthorhombic'
loop_
_space_group_symop_operation_xyz
x,y,z
-x,-y,z
x,-y,1/2-z
-x,y,1/2-z
-x,-y,-z
x,y,-z
-x,y,1/2+z
x,-y,1/2+z
1/2+x,1/2+y,1/2+z
1/2-x,1/2-y,1/2+z
1/2+x,1/2-y,-z
1/2-x,1/2+y,-z
1/2-x,1/2-y,1/2-z
1/2+x,1/2+y,1/2-z
1/2-x,1/2+y,z
1/2+x,1/2-y,z
loop_
_atom_site_type_symbol
_atom_site_label
_atom_site_fract_x
_atom_site_fract_y
_atom_site_fract_z
Si Si1 0.651506 0.335654 0.500000
Si Si2 0.166588 0.624343 0.782938
Si Si3 0.571702 0.576150 0.500000
Si Si4 0.000000 0.000000 0.250000
Si Si5 0.752104 0.977473 0.000000
Si Si6 0.167923 0.754192 0.500000
O O1 0.645161 0.241617 0.370637
O O2 0.608673 0.449098 0.500000
O O3 0.712251 0.394812 0.500000
O O4 0.131458 0.500000 0.750000
O O5 0.215136 0.565648 0.871927
O O6 0.181632 0.679399 0.636067
O O7 0.537294 0.573162 0.640623
O O8 0.607046 0.700323 0.500000
O O9 0.799505 0.879340 0.000000
#
# Coordination Sequence:
#
# PCOD9527354 Si02
#       6
#     8  16   8   4   8   8
#     4  10  23  41  56  83 120 161 202 244 300 339
#     4  11  24  36  54  81 118 168 207 242 272 338
#     4  10  21  39  66  92 119 144 180 252 312 366
#     4  10  20  38  64 102 114 130 188 242 328 376
#     4  10  24  34  55  76 114 164 208 248 279 324
#     4  11  22  38  55  84 117 156 195 243 302 341
#
# _framework density 20.003648999999999
#
# number of rings (size 3 to 8) (size 9 to 14) (size 15 to 20)
#    0.000    1.538    0.000    4.615   12.923    2.462 
#    0.000    0.000    0.000    0.000    0.000   75.385 
#    0.000    0.000    0.000    0.000    0.000    0.000 
#
# Total GULP energy -144793.760856 kJ/mol
# GULP energy per Si atom -5568.990802 kJ/mol
# Density = 1.995812 g / cm^3
# Si number density = 20.003649 Si / 1000 Ang^3
#
#
#
# Elastic Constant Matrix: (Units=GPa)
#
#
# Indices 1 2 3 4 5 6 
#
# 1 70.6479 21.7779 34.1837 0.0000 0.0000 0.0000
# 2 21.7779 124.7400 39.1558 0.0000 0.0000 0.0000
# 3 34.1837 39.1558 183.8817 0.0000 0.0000 0.0000
# 4 0.0000 0.0000 0.0000 61.7288 0.0000 0.0000
# 5 0.0000 0.0000 0.0000 0.0000 -30.6270 0.0000
# 6 0.0000 0.0000 0.0000 0.0000 0.0000 7.2655
#
#
#
# Elastic Compliance Matrix: (Units=1/GPa)
#
#
# Indices 1 2 3 4 5 6 
#
# 1 0.016003 -0.001993 -0.002551 0.000000 0.000000 0.000000
# 2 -0.001993 0.008839 -0.001512 0.000000 0.000000 0.000000
# 3 -0.002551 -0.001512 0.006234 0.000000 0.000000 0.000000
# 4 0.000000 0.000000 0.000000 0.016200 0.000000 0.000000
# 5 0.000000 0.000000 0.000000 0.000000 -0.032651 0.000000
# 6 0.000000 0.000000 0.000000 0.000000 0.000000 0.137637
#
#
# Mechanical properties :
#
#
# Convention : Reuss Voigt Hill
#
# Bulk Modulus (GPa) = 52.72678 63.27825 58.00252
# Shear Modulus (GPa) = 29.29187 26.61695 27.95441
#
# Velocity S-wave (km/s) = 3.83080 3.65170 3.74232
# Velocity P-wave (km/s) = 6.78104 7.03434 6.90885
#
# Compressibility (1/GPa) = 0.01896569
#
# Stress axis : x y z
#
# Youngs Moduli (GPa) = 62.48724 113.13256 160.40238
#
# Poissons Ratio (x) = 0.22551 0.40912
# Poissons Ratio (y) = 0.12456 0.24247
# Poissons Ratio (z) = 0.15938 0.17102
#
# Static dielectric constant tensor:
#      x y z
#    x 1.741720 0.000000 0.000000 
#    y 0.000000 1.762020 0.000000 
#    z 0.000000 0.000000 1.755280 
# 
# From -- ./inp_files/7674.got.cif
#   From: 2010.05.17/outbox.cif.g08.bks.cpg/sg72_4_cif.got.tgz:7674.got - 2010.06.03 17:03:01.
