data_PCOD9527099
_publ_section_title
;
Structure prediction by ZEFSAII (Michael W. Deem and Ramdas Pophale) SiO2 
 PCOD9527099
Probable space group: I B A M
;
_chemical_formula_sum "Si O2"
_cell_formula_units_Z 112
_cell_length_a 14.942542
_cell_length_b 13.741873
_cell_length_c 26.656468
_cell_angle_alpha 90.000000
_cell_angle_beta 90.000000
_cell_angle_gamma 90.000000
_cell_volume 5473.599540
_symmetry_space_group_name_H-M "I B A M"
_symmetry_group_IT_number 72
_symmetry_cell_setting 'orthorhombic'
loop_
_space_group_symop_operation_xyz
x,y,z
-x,-y,z
x,-y,1/2-z
-x,y,1/2-z
-x,-y,-z
x,y,-z
-x,y,1/2+z
x,-y,1/2+z
1/2+x,1/2+y,1/2+z
1/2-x,1/2-y,1/2+z
1/2+x,1/2-y,-z
1/2-x,1/2+y,-z
1/2-x,1/2-y,1/2-z
1/2+x,1/2+y,1/2-z
1/2-x,1/2+y,z
1/2+x,1/2-y,z
loop_
_atom_site_type_symbol
_atom_site_label
_atom_site_fract_x
_atom_site_fract_y
_atom_site_fract_z
Si Si1 0.955864 0.105514 0.339402
Si Si2 0.478432 0.776257 0.605574
Si Si3 0.297338 0.698941 0.796471
Si Si4 0.333615 0.147570 0.378492
Si Si5 0.336043 0.343801 0.054279
Si Si6 0.153745 0.924941 0.442526
Si Si7 0.179244 0.582479 0.875593
O O1 0.884982 0.129201 0.295410
O O2 0.905460 0.106695 0.394380
O O3 0.020022 0.198322 0.348102
O O4 0.000000 0.000000 0.333510
O O5 0.576620 0.817429 0.593484
O O6 0.425196 0.716908 0.563417
O O7 0.415424 0.866976 0.617580
O O8 0.250000 0.750000 0.750000
O O9 0.332929 0.790032 0.828434
O O10 0.227961 0.634896 0.829046
O O11 0.241692 0.175225 0.406089
O O12 0.331370 0.032845 0.369166
O O13 0.358116 0.458190 0.056662
O O14 0.297592 0.322183 0.000000
O O15 0.136515 0.890671 0.500000
O O16 0.255241 0.904376 0.424006
#
# Coordination Sequence:
#
# PCOD9527099 Si02
#       7
#    16  16  16  16  16  16  16
#     4  10  20  37  63  94 132 166 216 275 328 380
#     4  11  21  37  59  91 126 167 214 259 315 382
#     4  10  22  41  67  96 125 166 214 268 332 406
#     4  10  22  41  62  91 128 169 210 266 328 385
#     4  10  20  36  60  89 125 170 214 259 315 384
#     4   9  19  36  58  88 126 171 216 260 318 386
#     4  10  21  39  63  87 126 172 207 265 322 387
#
# _framework density 20.461853999999999
#
# number of rings (size 3 to 8) (size 9 to 14) (size 15 to 20)
#    0.000    2.000    2.857    0.429    0.000    2.571 
#    0.000    2.857    0.000   12.000    0.000    0.000 
#    0.000    0.000    0.000    0.000    0.000    0.000 
#
# Total GULP energy -312234.124288 kJ/mol
# GULP energy per Si atom -5575.609362 kJ/mol
# Density = 2.041528 g / cm^3
# Si number density = 20.461854 Si / 1000 Ang^3
#
#
#
# Elastic Constant Matrix: (Units=GPa)
#
#
# Indices 1 2 3 4 5 6 
#
# 1 83.4828 38.7023 29.4024 0.0000 0.0000 0.0000
# 2 38.7023 130.8089 33.0505 0.0000 0.0000 0.0000
# 3 29.4024 33.0505 59.9065 0.0000 0.0000 0.0000
# 4 0.0000 0.0000 0.0000 22.0829 0.0000 0.0000
# 5 0.0000 0.0000 0.0000 0.0000 11.6281 0.0000
# 6 0.0000 0.0000 0.0000 0.0000 0.0000 37.5407
#
#
#
# Elastic Compliance Matrix: (Units=1/GPa)
#
#
# Indices 1 2 3 4 5 6 
#
# 1 0.015489 -0.003093 -0.005896 0.000000 0.000000 0.000000
# 2 -0.003093 0.009501 -0.003723 0.000000 0.000000 0.000000
# 3 -0.005896 -0.003723 0.021640 0.000000 0.000000 0.000000
# 4 0.000000 0.000000 0.000000 0.045284 0.000000 0.000000
# 5 0.000000 0.000000 0.000000 0.000000 0.085999 0.000000
# 6 0.000000 0.000000 0.000000 0.000000 0.000000 0.026638
#
#
# Mechanical properties :
#
#
# Convention : Reuss Voigt Hill
#
# Bulk Modulus (GPa) = 47.15678 52.94540 50.05109
# Shear Modulus (GPa) = 21.09320 25.78652 23.43986
#
# Velocity S-wave (km/s) = 3.21418 3.55381 3.38825
# Velocity P-wave (km/s) = 6.07213 6.53994 6.31037
#
# Compressibility (1/GPa) = 0.02120586
#
# Stress axis : x y z
#
# Youngs Moduli (GPa) = 64.56251 105.25588 46.20970
#
# Poissons Ratio (x) = 0.32557 0.27243
# Poissons Ratio (y) = 0.19970 0.17206
# Poissons Ratio (z) = 0.38063 0.39191
#
# Static dielectric constant tensor:
#      x y z
#    x 1.788960 0.000000 0.000000 
#    y 0.000000 1.749110 0.000000 
#    z 0.000000 0.000000 1.730320 
# 
# From -- ./inp_files/44371.got.cif
#   From: 2010.05.17/outbox.cif.g08.bks.cpg/sg72_23_cif.got.tgz:44371.got - 2010.06.03 17:03:01.
