data_PCOD9527399
_publ_section_title
;
Structure prediction by ZEFSAII (Michael W. Deem and Ramdas Pophale) SiO2 
 PCOD9527399
Probable space group: I B A M
;
_chemical_formula_sum "Si O2"
_cell_formula_units_Z 112
_cell_length_a 29.839336
_cell_length_b 13.730841
_cell_length_c 14.924943
_cell_angle_alpha 90.000000
_cell_angle_beta 90.000000
_cell_angle_gamma 90.000000
_cell_volume 6115.035380
_symmetry_space_group_name_H-M "I B A M"
_symmetry_group_IT_number 72
_symmetry_cell_setting 'orthorhombic'
loop_
_space_group_symop_operation_xyz
x,y,z
-x,-y,z
x,-y,1/2-z
-x,y,1/2-z
-x,-y,-z
x,y,-z
-x,y,1/2+z
x,-y,1/2+z
1/2+x,1/2+y,1/2+z
1/2-x,1/2-y,1/2+z
1/2+x,1/2-y,-z
1/2-x,1/2+y,-z
1/2-x,1/2-y,1/2-z
1/2+x,1/2+y,1/2-z
1/2-x,1/2+y,z
1/2+x,1/2-y,z
loop_
_atom_site_type_symbol
_atom_site_label
_atom_site_fract_x
_atom_site_fract_y
_atom_site_fract_z
Si Si1 0.819917 0.470812 0.845375
Si Si2 0.553449 0.849247 0.248050
Si Si3 0.113666 0.837864 0.248333
Si Si4 0.630852 0.494950 0.108839
Si Si5 0.771851 0.057841 0.897648
Si Si6 0.294412 0.247914 0.810658
Si Si7 0.584407 0.996685 0.601057
O O1 0.839937 0.500000 0.750000
O O2 0.774603 0.533253 0.851208
O O3 0.805240 0.358458 0.848747
O O4 0.861643 0.495955 0.906817
O O5 0.500000 0.845294 0.250000
O O6 0.576053 0.743892 0.244204
O O7 0.570204 0.905165 0.337588
O O8 0.568495 0.911221 0.160715
O O9 0.111449 0.902074 0.338801
O O10 0.161855 0.783924 0.243190
O O11 0.112193 0.910678 0.162287
O O12 0.684386 0.497355 0.131097
O O13 0.625661 0.497483 0.000000
O O14 0.785322 0.169874 0.884904
O O15 0.763840 0.033729 0.000000
O O16 0.250000 0.250000 0.750000
O O17 0.565779 0.994392 0.500000
#
# Coordination Sequence:
#
# PCOD9527399 Si02
#       7
#    16  16  16  16  16  16  16
#     4  12  20  36  58  83 120 156 197 245 289 342
#     4  11  24  43  64  90 120 154 197 246 305 364
#     4  10  20  39  60  87 118 155 197 244 301 354
#     4   9  20  38  61  87 120 159 201 242 292 354
#     4  10  22  35  51  82 118 157 199 239 284 343
#     4  11  20  33  58  81 112 158 199 238 288 348
#     4  11  23  41  63  88 120 157 200 249 296 353
#
# _framework density 18.315511999999998
#
# number of rings (size 3 to 8) (size 9 to 14) (size 15 to 20)
#    0.000    1.429    4.286    2.143    2.000    3.429 
#    0.000    2.143    0.000    0.857    0.000    0.000 
#    0.000    0.000    0.000    0.000    0.000    0.000 
#
# Total GULP energy -312273.588870 kJ/mol
# GULP energy per Si atom -5576.314087 kJ/mol
# Density = 1.827382 g / cm^3
# Si number density = 18.315512 Si / 1000 Ang^3
#
#
#
# Elastic Constant Matrix: (Units=GPa)
#
#
# Indices 1 2 3 4 5 6 
#
# 1 102.2201 62.6552 44.3610 0.0000 0.0000 0.0000
# 2 62.6552 90.0046 26.0345 0.0000 0.0000 0.0000
# 3 44.3610 26.0345 123.2334 0.0000 0.0000 0.0000
# 4 0.0000 0.0000 0.0000 5.4824 0.0000 0.0000
# 5 0.0000 0.0000 0.0000 0.0000 4.5696 0.0000
# 6 0.0000 0.0000 0.0000 0.0000 0.0000 14.9808
#
#
#
# Elastic Compliance Matrix: (Units=1/GPa)
#
#
# Indices 1 2 3 4 5 6 
#
# 1 0.018992 -0.011975 -0.004307 0.000000 0.000000 0.000000
# 2 -0.011975 0.019384 0.000216 0.000000 0.000000 0.000000
# 3 -0.004307 0.000216 0.009619 0.000000 0.000000 0.000000
# 4 0.000000 0.000000 0.000000 0.182403 0.000000 0.000000
# 5 0.000000 0.000000 0.000000 0.000000 0.218836 0.000000
# 6 0.000000 0.000000 0.000000 0.000000 0.000000 0.066752
#
#
# Mechanical properties :
#
#
# Convention : Reuss Voigt Hill
#
# Bulk Modulus (GPa) = 63.03889 64.61772 63.82830
# Shear Modulus (GPa) = 9.03494 17.16705 13.10100
#
# Velocity S-wave (km/s) = 2.22343 3.06485 2.67740
# Velocity P-wave (km/s) = 6.40972 6.91963 6.66955
#
# Compressibility (1/GPa) = 0.01586322
#
# Stress axis : x y z
#
# Youngs Moduli (GPa) = 52.65393 51.58763 103.95593
#
# Poissons Ratio (x) = 0.61777 0.44771
# Poissons Ratio (y) = 0.63054 -0.02241
# Poissons Ratio (z) = 0.22677 -0.01112
#
# Static dielectric constant tensor:
#      x y z
#    x 1.650890 0.000000 0.000000 
#    y 0.000000 1.630200 0.000000 
#    z 0.000000 0.000000 1.622040 
# 
# From -- ./inp_files/26378.got.cif
#   From: 2010.05.17/outbox.cif.g08.bks.cpg/sg72_14_cif.got.tgz:26378.got - 2010.06.03 17:03:01.
