data_PCOD9527240
_publ_section_title
;
Structure prediction by ZEFSAII (Michael W. Deem and Ramdas Pophale) SiO2 
 PCOD9527240
Probable space group: I B A M
;
_chemical_formula_sum "Si O2"
_cell_formula_units_Z 116
_cell_length_a 26.779499
_cell_length_b 22.774384
_cell_length_c 9.213459
_cell_angle_alpha 90.000000
_cell_angle_beta 90.000000
_cell_angle_gamma 90.000000
_cell_volume 5619.165124
_symmetry_space_group_name_H-M "I B A M"
_symmetry_group_IT_number 72
_symmetry_cell_setting 'orthorhombic'
loop_
_space_group_symop_operation_xyz
x,y,z
-x,-y,z
x,-y,1/2-z
-x,y,1/2-z
-x,-y,-z
x,y,-z
-x,y,1/2+z
x,-y,1/2+z
1/2+x,1/2+y,1/2+z
1/2-x,1/2-y,1/2+z
1/2+x,1/2-y,-z
1/2-x,1/2+y,-z
1/2-x,1/2-y,1/2-z
1/2+x,1/2+y,1/2-z
1/2-x,1/2+y,z
1/2+x,1/2-y,z
loop_
_atom_site_type_symbol
_atom_site_label
_atom_site_fract_x
_atom_site_fract_y
_atom_site_fract_z
Si Si1 0.552581 0.343914 0.825376
Si Si2 0.687080 0.060144 0.672513
Si Si3 0.091995 0.713431 0.673260
Si Si4 0.301764 0.255322 0.332441
Si Si5 0.500000 0.000000 0.250000
Si Si6 0.879328 0.059739 0.827349
Si Si7 0.708405 0.391605 0.165940
Si Si8 0.922541 0.400721 0.167054
O O1 0.500000 0.355980 0.750000
O O2 0.566261 0.275810 0.798272
O O3 0.591135 0.387023 0.747088
O O4 0.552386 0.353093 0.000000
O O5 0.683058 0.050350 0.500000
O O6 0.732312 0.105625 0.695387
O O7 0.631974 0.078758 0.723490
O O8 0.701359 0.000000 0.750000
O O9 0.093563 0.705453 0.500000
O O10 0.149663 0.721236 0.725702
O O11 0.065190 0.657711 0.743531
O O12 0.294679 0.237567 0.500000
O O13 0.250000 0.250000 0.250000
O O14 0.311689 0.325223 0.331013
O O15 0.461962 0.954015 0.325602
O O16 0.821930 0.070713 0.781198
O O17 0.896244 0.000000 0.750000
O O18 0.885536 0.057995 0.000000
O O19 0.700520 0.413806 0.000000
O O20 0.916981 0.383302 0.000000
#
# Coordination Sequence:
#
# PCOD9527240 Si02
#       8
#    16  16  16  16   4  16  16  16
#     4  11  24  46  70  98 135 174 221 277 334 397
#     4  10  21  38  60  88 125 170 217 273 336 399
#     4  10  23  43  68  97 134 175 216 270 337 401
#     4  10  20  37  61  93 133 176 216 266 328 393
#     4  12  26  48  72  98 134 180 230 290 352 400
#     4  12  25  42  67  99 134 177 224 272 329 393
#     4  10  20  38  62  90 132 176 218 272 331 395
#     4  11  25  44  68  96 128 171 224 281 339 406
#
# _framework density 20.643636999999998
#
# number of rings (size 3 to 8) (size 9 to 14) (size 15 to 20)
#    0.000    1.379    2.069    3.103    0.966    6.897 
#    0.000    1.379    0.000    0.000    0.000    0.000 
#    0.000    0.000    0.000    0.000    0.000    0.000 
#
# Total GULP energy -323894.194518 kJ/mol
# GULP energy per Si atom -5584.382664 kJ/mol
# Density = 2.059665 g / cm^3
# Si number density = 20.643637 Si / 1000 Ang^3
#
#
#
# Elastic Constant Matrix: (Units=GPa)
#
#
# Indices 1 2 3 4 5 6 
#
# 1 107.4497 28.6765 37.2851 0.0000 0.0000 0.0000
# 2 28.6765 106.5912 47.5876 0.0000 0.0000 0.0000
# 3 37.2851 47.5876 81.0822 0.0000 0.0000 0.0000
# 4 0.0000 0.0000 0.0000 25.7083 0.0000 0.0000
# 5 0.0000 0.0000 0.0000 0.0000 13.3275 0.0000
# 6 0.0000 0.0000 0.0000 0.0000 0.0000 29.0742
#
#
#
# Elastic Compliance Matrix: (Units=1/GPa)
#
#
# Indices 1 2 3 4 5 6 
#
# 1 0.011146 -0.000963 -0.004560 0.000000 0.000000 0.000000
# 2 -0.000963 0.012796 -0.007067 0.000000 0.000000 0.000000
# 3 -0.004560 -0.007067 0.018578 0.000000 0.000000 0.000000
# 4 0.000000 0.000000 0.000000 0.038898 0.000000 0.000000
# 5 0.000000 0.000000 0.000000 0.000000 0.075033 0.000000
# 6 0.000000 0.000000 0.000000 0.000000 0.000000 0.034395
#
#
# Mechanical properties :
#
#
# Convention : Reuss Voigt Hill
#
# Bulk Modulus (GPa) = 57.67273 58.02460 57.84866
# Shear Modulus (GPa) = 22.54222 25.72693 24.13458
#
# Velocity S-wave (km/s) = 3.30808 3.53404 3.42293
# Velocity P-wave (km/s) = 6.52604 6.69488 6.61100
#
# Compressibility (1/GPa) = 0.01733922
#
# Stress axis : x y z
#
# Youngs Moduli (GPa) = 89.71765 78.15066 53.82686
#
# Poissons Ratio (x) = 0.07523 0.24548
# Poissons Ratio (y) = 0.08637 0.38041
# Poissons Ratio (z) = 0.40916 0.55231
#
# Static dielectric constant tensor:
#      x y z
#    x 1.793020 0.000000 0.000000 
#    y 0.000000 1.738720 0.000000 
#    z 0.000000 0.000000 1.699580 
# 
# From -- ./inp_files/8376.got.cif
#   From: 2010.05.17/outbox.cif.g08.bks.cpg/sg72_5_cif.got.tgz:8376.got - 2010.06.03 17:03:01.
