data_PCOD9527703
_publ_section_title
;
Structure prediction by ZEFSAII (Michael W. Deem and Ramdas Pophale) SiO2 
 PCOD9527703
Probable space group: I B A M
;
_chemical_formula_sum "Si O2"
_cell_formula_units_Z 92
_cell_length_a 19.528642
_cell_length_b 23.944170
_cell_length_c 9.544773
_cell_angle_alpha 90.000000
_cell_angle_beta 90.000000
_cell_angle_gamma 90.000000
_cell_volume 4463.108403
_symmetry_space_group_name_H-M "I B A M"
_symmetry_group_IT_number 72
_symmetry_cell_setting 'orthorhombic'
loop_
_space_group_symop_operation_xyz
x,y,z
-x,-y,z
x,-y,1/2-z
-x,y,1/2-z
-x,-y,-z
x,y,-z
-x,y,1/2+z
x,-y,1/2+z
1/2+x,1/2+y,1/2+z
1/2-x,1/2-y,1/2+z
1/2+x,1/2-y,-z
1/2-x,1/2+y,-z
1/2-x,1/2-y,1/2-z
1/2+x,1/2+y,1/2-z
1/2-x,1/2+y,z
1/2+x,1/2-y,z
loop_
_atom_site_type_symbol
_atom_site_label
_atom_site_fract_x
_atom_site_fract_y
_atom_site_fract_z
Si Si1 0.905898 0.810593 0.839175
Si Si2 0.284005 0.947042 0.838539
Si Si3 0.602205 0.796601 0.163964
Si Si4 0.937638 0.407356 0.664195
Si Si5 0.750419 0.342879 0.844105
Si Si6 0.500000 0.500000 0.500000
Si Si7 0.000000 0.911355 0.250000
O O1 0.922353 0.760421 0.733913
O O2 0.823607 0.815604 0.839671
O O3 0.938489 0.868809 0.789344
O O4 0.927786 0.799156 0.000000
O O5 0.366539 0.940887 0.829048
O O6 0.255408 0.890595 0.771592
O O7 0.260939 0.000000 0.750000
O O8 0.264794 0.952597 0.000000
O O9 0.576449 0.848783 0.256015
O O10 0.685240 0.801561 0.171570
O O11 0.583090 0.801197 0.000000
O O12 0.954182 0.399429 0.500000
O O13 0.000000 0.433773 0.750000
O O14 0.759099 0.368962 0.000000
O O15 0.513846 0.451987 0.620899
#
# Coordination Sequence:
#
# PCOD9527703 Si02
#       7
#    16  16  16  16  16   4   8
#     4  11  23  40  63  94 122 155 203 247 299 365
#     4  10  21  38  58  84 116 153 200 251 294 352
#     4  10  21  36  61  89 127 160 195 244 298 362
#     4  10  21  37  57  83 117 160 199 241 300 349
#     4   9  20  40  60  88 122 161 197 246 307 357
#     4  10  24  50  68  82 124 158 200 254 316 358
#     4  11  24  46  68  90 118 160 201 256 308 362
#
# _framework density 20.613437000000001
#
# number of rings (size 3 to 8) (size 9 to 14) (size 15 to 20)
#    0.000    1.913    0.870    2.087    2.435    3.826 
#    3.130    1.739    0.000    0.000    0.000    0.000 
#    0.000    0.000    0.000    0.000    0.000    0.000 
#
# Total GULP energy -256425.647462 kJ/mol
# GULP energy per Si atom -5574.470597 kJ/mol
# Density = 2.056652 g / cm^3
# Si number density = 20.613437 Si / 1000 Ang^3
#
#
#
# Elastic Constant Matrix: (Units=GPa)
#
#
# Indices 1 2 3 4 5 6 
#
# 1 57.9573 -8.2298 11.5753 0.0000 0.0000 0.0000
# 2 -8.2298 96.7240 66.5319 0.0000 0.0000 0.0000
# 3 11.5753 66.5319 199.1819 0.0000 0.0000 0.0000
# 4 0.0000 0.0000 0.0000 35.3680 0.0000 0.0000
# 5 0.0000 0.0000 0.0000 0.0000 16.1743 0.0000
# 6 0.0000 0.0000 0.0000 0.0000 0.0000 0.1706
#
#
#
# Elastic Compliance Matrix: (Units=1/GPa)
#
#
# Indices 1 2 3 4 5 6 
#
# 1 0.018076 0.002935 -0.002031 0.000000 0.000000 0.000000
# 2 0.002935 0.013899 -0.004813 0.000000 0.000000 0.000000
# 3 -0.002031 -0.004813 0.006746 0.000000 0.000000 0.000000
# 4 0.000000 0.000000 0.000000 0.028274 0.000000 0.000000
# 5 0.000000 0.000000 0.000000 0.000000 0.061826 0.000000
# 6 0.000000 0.000000 0.000000 0.000000 0.000000 5.862060
#
#
# Mechanical properties :
#
#
# Convention : Reuss Voigt Hill
#
# Bulk Modulus (GPa) = 32.35862 54.84647 43.60254
# Shear Modulus (GPa) = 0.83208 29.27496 15.05352
#
# Velocity S-wave (km/s) = 0.63603 3.77263 2.70530
# Velocity P-wave (km/s) = 4.03377 6.75588 5.56386
#
# Compressibility (1/GPa) = 0.03090367
#
# Stress axis : x y z
#
# Youngs Moduli (GPa) = 55.32063 71.94639 148.22900
#
# Poissons Ratio (x) = -0.21116 0.30103
# Poissons Ratio (y) = -0.16236 0.71347
# Poissons Ratio (z) = 0.11235 0.34630
#
# Static dielectric constant tensor:
#      x y z
#    x 1.774240 0.000000 0.000000 
#    y 0.000000 1.693420 0.000000 
#    z 0.000000 0.000000 1.710320 
# 
# From -- ./inp_files/6047.got.cif
#   From: 2010.05.17/outbox.cif.g08.bks.cpg/sg72_4_cif.got.tgz:6047.got - 2010.06.03 17:03:01.
