data_PCOD9527823
_publ_section_title
;
Structure prediction by ZEFSAII (Michael W. Deem and Ramdas Pophale) SiO2 
 PCOD9527823
Probable space group: I B A M
;
_chemical_formula_sum "Si O2"
_cell_formula_units_Z 56
_cell_length_a 15.595044
_cell_length_b 11.416284
_cell_length_c 13.124101
_cell_angle_alpha 90.000000
_cell_angle_beta 90.000000
_cell_angle_gamma 90.000000
_cell_volume 2336.581493
_symmetry_space_group_name_H-M "I B A M"
_symmetry_group_IT_number 72
_symmetry_cell_setting 'orthorhombic'
loop_
_space_group_symop_operation_xyz
x,y,z
-x,-y,z
x,-y,1/2-z
-x,y,1/2-z
-x,-y,-z
x,y,-z
-x,y,1/2+z
x,-y,1/2+z
1/2+x,1/2+y,1/2+z
1/2-x,1/2-y,1/2+z
1/2+x,1/2-y,-z
1/2-x,1/2+y,-z
1/2-x,1/2-y,1/2-z
1/2+x,1/2+y,1/2-z
1/2-x,1/2+y,z
1/2+x,1/2-y,z
loop_
_atom_site_type_symbol
_atom_site_label
_atom_site_fract_x
_atom_site_fract_y
_atom_site_fract_z
Si Si1 0.645723 0.000000 0.250000
Si Si2 0.567078 0.797264 0.884588
Si Si3 0.930769 0.104267 0.382374
Si Si4 0.702719 0.637907 0.794445
O O1 0.591665 0.901951 0.191314
O O2 0.716129 0.941203 0.326308
O O3 0.478627 0.728046 0.864810
O O4 0.637215 0.691967 0.875556
O O5 0.565737 0.841713 0.000000
O O6 0.902499 0.098943 0.500000
O O7 0.854628 0.095502 0.302288
O O8 0.000000 0.000000 0.367767
O O9 0.750000 0.750000 0.750000
#
# Coordination Sequence:
#
# PCOD9527823 Si02
#       4
#     8  16  16  16
#     4  10  22  40  64  96 132 178 222 274 339 396
#     4  10  22  40  63  94 131 173 223 277 335 400
#     4  10  21  40  70 101 129 168 218 273 329 392
#     4  10  21  37  61  92 129 169 211 266 327 390
#
# _framework density 23.966636000000001
#
# number of rings (size 3 to 8) (size 9 to 14) (size 15 to 20)
#    0.000    2.000    0.000    2.571    0.000    6.857 
#    0.000   15.714    0.000   24.000    0.000    0.000 
#    0.000    0.000    0.000    0.000    0.000    0.000 
#
# Total GULP energy -156407.638653 kJ/mol
# GULP energy per Si atom -5585.987095 kJ/mol
# Density = 2.391209 g / cm^3
# Si number density = 23.966636 Si / 1000 Ang^3
#
#
#
# Elastic Constant Matrix: (Units=GPa)
#
#
# Indices 1 2 3 4 5 6 
#
# 1 112.0727 65.4129 63.2765 0.0000 0.0000 0.0000
# 2 65.4129 132.5757 66.0834 0.0000 0.0000 0.0000
# 3 63.2765 66.0834 142.1334 0.0000 0.0000 0.0000
# 4 0.0000 0.0000 0.0000 31.7563 0.0000 0.0000
# 5 0.0000 0.0000 0.0000 0.0000 3.1332 0.0000
# 6 0.0000 0.0000 0.0000 0.0000 0.0000 60.1695
#
#
#
# Elastic Compliance Matrix: (Units=1/GPa)
#
#
# Indices 1 2 3 4 5 6 
#
# 1 0.014048 -0.004965 -0.003946 0.000000 0.000000 0.000000
# 2 -0.004965 0.011573 -0.003170 0.000000 0.000000 0.000000
# 3 -0.003946 -0.003170 0.010266 0.000000 0.000000 0.000000
# 4 0.000000 0.000000 0.000000 0.031490 0.000000 0.000000
# 5 0.000000 0.000000 0.000000 0.000000 0.319164 0.000000
# 6 0.000000 0.000000 0.000000 0.000000 0.000000 0.016620
#
#
# Mechanical properties :
#
#
# Convention : Reuss Voigt Hill
#
# Bulk Modulus (GPa) = 85.28398 86.25860 85.77129
# Shear Modulus (GPa) = 11.59472 31.81240 21.70356
#
# Velocity S-wave (km/s) = 2.20190 3.64725 3.01254
# Velocity P-wave (km/s) = 6.49047 7.33525 6.92575
#
# Compressibility (1/GPa) = 0.01172553
#
# Stress axis : x y z
#
# Youngs Moduli (GPa) = 71.18296 86.41030 97.40511
#
# Poissons Ratio (x) = 0.42899 0.38436
# Poissons Ratio (y) = 0.35339 0.30882
# Poissons Ratio (z) = 0.28089 0.27396
#
# Static dielectric constant tensor:
#      x y z
#    x 2.022020 0.000000 0.000000 
#    y 0.000000 2.075680 0.000000 
#    z 0.000000 0.000000 1.920480 
# 
# From -- ./inp_files/21047.got.cif
#   From: 2010.05.17/outbox.cif.g08.bks.cpg/sg72_11_cif.got.tgz:21047.got - 2010.06.03 17:03:01.
