data_PCOD9527236
_publ_section_title
;
Structure prediction by ZEFSAII (Michael W. Deem and Ramdas Pophale) SiO2 
 PCOD9527236
Probable space group: I B A M
;
_chemical_formula_sum "Si O2"
_cell_formula_units_Z 64
_cell_length_a 15.196056
_cell_length_b 10.247021
_cell_length_c 21.417480
_cell_angle_alpha 90.000000
_cell_angle_beta 90.000000
_cell_angle_gamma 90.000000
_cell_volume 3335.008012
_symmetry_space_group_name_H-M "I B A M"
_symmetry_group_IT_number 72
_symmetry_cell_setting 'orthorhombic'
loop_
_space_group_symop_operation_xyz
x,y,z
-x,-y,z
x,-y,1/2-z
-x,y,1/2-z
-x,-y,-z
x,y,-z
-x,y,1/2+z
x,-y,1/2+z
1/2+x,1/2+y,1/2+z
1/2-x,1/2-y,1/2+z
1/2+x,1/2-y,-z
1/2-x,1/2+y,-z
1/2-x,1/2-y,1/2-z
1/2+x,1/2+y,1/2-z
1/2-x,1/2+y,z
1/2+x,1/2-y,z
loop_
_atom_site_type_symbol
_atom_site_label
_atom_site_fract_x
_atom_site_fract_y
_atom_site_fract_z
Si Si1 0.838316 0.511667 0.683003
Si Si2 0.724878 0.711661 0.861988
Si Si3 0.543847 0.635058 0.074260
Si Si4 0.396665 0.147163 0.572190
O O1 0.884278 0.500000 0.750000
O O2 0.762689 0.399944 0.683510
O O3 0.796380 0.651637 0.669955
O O4 0.894893 0.469699 0.622358
O O5 0.635830 0.661911 0.893168
O O6 0.804057 0.721031 0.912816
O O7 0.500000 0.500000 0.095935
O O8 0.475631 0.753080 0.084230
O O9 0.558619 0.624144 0.000000
O O10 0.398961 0.104357 0.500000
#
# Coordination Sequence:
#
# PCOD9527236 Si02
#       4
#    16  16  16  16
#     4  10  22  40  64  85 126 165 206 252 311 370
#     4  10  21  38  64  85 122 161 206 250 316 360
#     4  10  20  37  61  92 126 160 203 258 312 370
#     4   9  21  36  60  92 122 156 208 253 304 371
#
# _framework density 19.190359000000001
#
# number of rings (size 3 to 8) (size 9 to 14) (size 15 to 20)
#    1.500    0.750    0.000    3.000    0.000    3.000 
#    0.000    5.000    0.000    0.000    0.000    0.000 
#    0.000    0.000    0.000    0.000    0.000    0.000 
#
# Total GULP energy -178306.471638 kJ/mol
# GULP energy per Si atom -5572.077239 kJ/mol
# Density = 1.914668 g / cm^3
# Si number density = 19.190359 Si / 1000 Ang^3
#
#
#
# Elastic Constant Matrix: (Units=GPa)
#
#
# Indices 1 2 3 4 5 6 
#
# 1 85.7135 7.3000 40.2024 0.0000 0.0000 0.0000
# 2 7.3000 97.6653 30.3477 0.0000 0.0000 0.0000
# 3 40.2024 30.3477 77.5563 0.0000 0.0000 0.0000
# 4 0.0000 0.0000 0.0000 7.8893 0.0000 0.0000
# 5 0.0000 0.0000 0.0000 0.0000 4.8401 0.0000
# 6 0.0000 0.0000 0.0000 0.0000 0.0000 18.9952
#
#
#
# Elastic Compliance Matrix: (Units=1/GPa)
#
#
# Indices 1 2 3 4 5 6 
#
# 1 0.015614 0.001534 -0.008694 0.000000 0.000000 0.000000
# 2 0.001534 0.011807 -0.005416 0.000000 0.000000 0.000000
# 3 -0.008694 -0.005416 0.019520 0.000000 0.000000 0.000000
# 4 0.000000 0.000000 0.000000 0.126754 0.000000 0.000000
# 5 0.000000 0.000000 0.000000 0.000000 0.206607 0.000000
# 6 0.000000 0.000000 0.000000 0.000000 0.000000 0.052645
#
#
# Mechanical properties :
#
#
# Convention : Reuss Voigt Hill
#
# Bulk Modulus (GPa) = 45.89191 46.29284 46.09237
# Shear Modulus (GPa) = 10.74435 18.55058 14.64747
#
# Velocity S-wave (km/s) = 2.36875 3.11249 2.76574
# Velocity P-wave (km/s) = 5.60779 6.09033 5.85403
#
# Compressibility (1/GPa) = 0.02179033
#
# Stress axis : x y z
#
# Youngs Moduli (GPa) = 64.04548 84.69455 51.23039
#
# Poissons Ratio (x) = -0.12996 0.44540
# Poissons Ratio (y) = -0.09828 0.27744
# Poissons Ratio (z) = 0.55682 0.45867
#
# Static dielectric constant tensor:
#      x y z
#    x 1.641250 0.000000 0.000000 
#    y 0.000000 1.660520 0.000000 
#    z 0.000000 0.000000 1.683130 
# 
# From -- ./inp_files/43923.got.cif
#   From: 2010.05.17/outbox.cif.g08.bks.cpg/sg72_22_cif.got.tgz:43923.got - 2010.06.03 17:03:01.
