data_PCOD9527101
_publ_section_title
;
Structure prediction by ZEFSAII (Michael W. Deem and Ramdas Pophale) SiO2 
 PCOD9527101
Probable space group: I B A M
;
_chemical_formula_sum "Si O2"
_cell_formula_units_Z 116
_cell_length_a 21.111523
_cell_length_b 27.463735
_cell_length_c 9.611944
_cell_angle_alpha 90.000000
_cell_angle_beta 90.000000
_cell_angle_gamma 90.000000
_cell_volume 5573.017368
_symmetry_space_group_name_H-M "I B A M"
_symmetry_group_IT_number 72
_symmetry_cell_setting 'orthorhombic'
loop_
_space_group_symop_operation_xyz
x,y,z
-x,-y,z
x,-y,1/2-z
-x,y,1/2-z
-x,-y,-z
x,y,-z
-x,y,1/2+z
x,-y,1/2+z
1/2+x,1/2+y,1/2+z
1/2-x,1/2-y,1/2+z
1/2+x,1/2-y,-z
1/2-x,1/2+y,-z
1/2-x,1/2-y,1/2-z
1/2+x,1/2+y,1/2-z
1/2-x,1/2+y,z
1/2+x,1/2-y,z
loop_
_atom_site_type_symbol
_atom_site_label
_atom_site_fract_x
_atom_site_fract_y
_atom_site_fract_z
Si Si1 0.000000 0.500000 0.750000
Si Si2 0.745024 0.324131 0.340629
Si Si3 0.094084 0.416160 0.340097
Si Si4 0.623203 0.732330 0.840601
Si Si5 0.936257 0.874313 0.337883
Si Si6 0.261860 0.082680 0.157573
Si Si7 0.397500 0.179987 0.339809
Si Si8 0.129744 0.955064 0.661699
O O1 0.046750 0.461690 0.674024
O O2 0.725901 0.334005 0.500000
O O3 0.694833 0.283093 0.293560
O O4 0.740950 0.372881 0.252680
O O5 0.820428 0.315407 0.340075
O O6 0.091146 0.398898 0.500000
O O7 0.166524 0.433021 0.308862
O O8 0.082951 0.370123 0.237567
O O9 0.586980 0.681226 0.838241
O O10 0.586983 0.771943 0.747934
O O11 0.627696 0.750732 0.000000
O O12 0.941950 0.889749 0.500000
O O13 0.889506 0.907980 0.249327
O O14 0.000000 0.877658 0.250000
O O15 0.206357 0.043457 0.160398
O O16 0.264076 0.101928 0.000000
O O17 0.419180 0.180021 0.500000
O O18 0.109119 0.953686 0.500000
O O19 0.103758 0.000000 0.750000
#
# Coordination Sequence:
#
# PCOD9527101 Si02
#       8
#     4  16  16  16  16  16  16  16
#     4  12  26  44  76  98 122 172 226 274 320 388
#     4   9  17  32  56  89 127 165 205 252 313 381
#     4  10  23  44  66  92 127 166 211 263 322 381
#     4  10  20  36  60  89 126 170 207 254 317 378
#     4  11  24  43  65  90 124 167 215 264 316 380
#     4   9  19  36  60  91 126 163 206 261 319 379
#     4  10  21  36  60  95 129 164 209 260 312 377
#     4  11  23  39  63  94 127 164 208 260 318 375
#
# _framework density 20.814577
#
# number of rings (size 3 to 8) (size 9 to 14) (size 15 to 20)
#    0.000    1.931    1.379    1.862    0.966    4.138 
#    1.241    1.379    0.000    0.000    0.000    0.000 
#    0.000    0.000    0.000    0.000    0.000    0.000 
#
# Total GULP energy -323332.822935 kJ/mol
# GULP energy per Si atom -5574.703844 kJ/mol
# Density = 2.076720 g / cm^3
# Si number density = 20.814577 Si / 1000 Ang^3
#
#
#
# Elastic Constant Matrix: (Units=GPa)
#
#
# Indices 1 2 3 4 5 6 
#
# 1 77.6270 22.6088 33.2243 0.0000 0.0000 0.0000
# 2 22.6088 93.2857 72.4252 0.0000 0.0000 0.0000
# 3 33.2243 72.4252 135.3250 0.0000 0.0000 0.0000
# 4 0.0000 0.0000 0.0000 32.0603 0.0000 0.0000
# 5 0.0000 0.0000 0.0000 0.0000 9.9400 0.0000
# 6 0.0000 0.0000 0.0000 0.0000 0.0000 27.5982
#
#
#
# Elastic Compliance Matrix: (Units=1/GPa)
#
#
# Indices 1 2 3 4 5 6 
#
# 1 0.014484 -0.001282 -0.002870 0.000000 0.000000 0.000000
# 2 -0.001282 0.018454 -0.009562 0.000000 0.000000 0.000000
# 3 -0.002870 -0.009562 0.013212 0.000000 0.000000 0.000000
# 4 0.000000 0.000000 0.000000 0.031191 0.000000 0.000000
# 5 0.000000 0.000000 0.000000 0.000000 0.100604 0.000000
# 6 0.000000 0.000000 0.000000 0.000000 0.000000 0.036234
#
#
# Mechanical properties :
#
#
# Convention : Reuss Voigt Hill
#
# Bulk Modulus (GPa) = 53.41312 62.52825 57.97069
# Shear Modulus (GPa) = 20.17379 25.78501 22.97940
#
# Velocity S-wave (km/s) = 3.11660 3.52347 3.32626
# Velocity P-wave (km/s) = 6.21836 6.83074 6.53173
#
# Compressibility (1/GPa) = 0.01872199
#
# Stress axis : x y z
#
# Youngs Moduli (GPa) = 69.04251 54.18870 75.69148
#
# Poissons Ratio (x) = 0.06949 0.21721
# Poissons Ratio (y) = 0.08854 0.72374
# Poissons Ratio (z) = 0.19813 0.51813
#
# Static dielectric constant tensor:
#      x y z
#    x 1.823460 0.000000 0.000000 
#    y 0.000000 1.728750 0.000000 
#    z 0.000000 0.000000 1.750990 
# 
# From -- ./inp_files/7262.got.cif
#   From: 2010.05.17/outbox.cif.g08.bks.cpg/sg72_4_cif.got.tgz:7262.got - 2010.06.03 17:03:01.
