data_PCOD9527235
_publ_section_title
;
Structure prediction by ZEFSAII (Michael W. Deem and Ramdas Pophale) SiO2 
 PCOD9527235
Probable space group: I B A M
;
_chemical_formula_sum "Si O2"
_cell_formula_units_Z 80
_cell_length_a 15.365948
_cell_length_b 15.268947
_cell_length_c 18.169913
_cell_angle_alpha 90.000000
_cell_angle_beta 90.000000
_cell_angle_gamma 90.000000
_cell_volume 4263.058523
_symmetry_space_group_name_H-M "I B A M"
_symmetry_group_IT_number 72
_symmetry_cell_setting 'orthorhombic'
loop_
_space_group_symop_operation_xyz
x,y,z
-x,-y,z
x,-y,1/2-z
-x,y,1/2-z
-x,-y,-z
x,y,-z
-x,y,1/2+z
x,-y,1/2+z
1/2+x,1/2+y,1/2+z
1/2-x,1/2-y,1/2+z
1/2+x,1/2-y,-z
1/2-x,1/2+y,-z
1/2-x,1/2-y,1/2-z
1/2+x,1/2+y,1/2-z
1/2-x,1/2+y,z
1/2+x,1/2-y,z
loop_
_atom_site_type_symbol
_atom_site_label
_atom_site_fract_x
_atom_site_fract_y
_atom_site_fract_z
Si Si1 0.031059 0.618905 0.166132
Si Si2 0.445019 0.314583 0.175397
Si Si3 0.623917 0.956004 0.588158
Si Si4 0.700033 0.534881 0.829574
Si Si5 0.430207 0.420738 0.418379
O O1 0.077586 0.712816 0.166993
O O2 0.090136 0.543841 0.129841
O O3 0.000000 0.600541 0.250000
O O4 0.943576 0.617340 0.116681
O O5 0.500000 0.325636 0.250000
O O6 0.365287 0.382436 0.176898
O O7 0.513071 0.341449 0.112148
O O8 0.620434 0.965243 0.500000
O O9 0.720213 0.940089 0.618227
O O10 0.729875 0.500000 0.750000
O O11 0.645220 0.455530 0.865666
O O12 0.500000 0.500000 0.420822
O O13 0.396183 0.404778 0.500000
#
# Coordination Sequence:
#
# PCOD9527235 Si02
#       5
#    16  16  16  16  16
#     4  10  21  41  65  86 117 156 208 250 304 361
#     4  10  20  37  61  92 117 156 196 248 301 364
#     4  11  23  41  61  86 119 166 205 248 308 362
#     4  11  20  36  63  87 123 155 198 245 300 357
#     4   9  18  31  52  82 116 154 190 233 294 353
#
# _framework density 18.76587
#
# number of rings (size 3 to 8) (size 9 to 14) (size 15 to 20)
#    0.000    1.800    2.000    4.200    0.000    2.400 
#    3.600    3.000    0.000    0.000    0.000    0.000 
#    0.000    0.000    0.000    0.000    0.000    0.000 
#
# Total GULP energy -223117.185372 kJ/mol
# GULP energy per Si atom -5577.929634 kJ/mol
# Density = 1.872316 g / cm^3
# Si number density = 18.765870 Si / 1000 Ang^3
#
#
#
# Elastic Constant Matrix: (Units=GPa)
#
#
# Indices 1 2 3 4 5 6 
#
# 1 71.8821 15.1692 20.9262 0.0000 0.0000 0.0000
# 2 15.1692 84.7190 27.2317 0.0000 0.0000 0.0000
# 3 20.9262 27.2317 141.6888 0.0000 0.0000 0.0000
# 4 0.0000 0.0000 0.0000 9.9717 0.0000 0.0000
# 5 0.0000 0.0000 0.0000 0.0000 26.4864 0.0000
# 6 0.0000 0.0000 0.0000 0.0000 0.0000 10.1780
#
#
#
# Elastic Compliance Matrix: (Units=1/GPa)
#
#
# Indices 1 2 3 4 5 6 
#
# 1 0.014875 -0.002086 -0.001796 0.000000 0.000000 0.000000
# 2 -0.002086 0.012874 -0.002166 0.000000 0.000000 0.000000
# 3 -0.001796 -0.002166 0.007739 0.000000 0.000000 0.000000
# 4 0.000000 0.000000 0.000000 0.100284 0.000000 0.000000
# 5 0.000000 0.000000 0.000000 0.000000 0.037755 0.000000
# 6 0.000000 0.000000 0.000000 0.000000 0.000000 0.098251
#
#
# Mechanical properties :
#
#
# Convention : Reuss Voigt Hill
#
# Bulk Modulus (GPa) = 42.75103 47.21600 44.98351
# Shear Modulus (GPa) = 17.14261 24.99140 21.06700
#
# Velocity S-wave (km/s) = 3.02569 3.65327 3.35419
# Velocity P-wave (km/s) = 5.91922 6.55823 6.24690
#
# Compressibility (1/GPa) = 0.02339125
#
# Stress axis : x y z
#
# Youngs Moduli (GPa) = 67.22815 77.67886 129.21100
#
# Poissons Ratio (x) = 0.16204 0.23206
# Poissons Ratio (y) = 0.14024 0.27988
# Poissons Ratio (z) = 0.12074 0.16826
#
# Static dielectric constant tensor:
#      x y z
#    x 1.647660 0.000000 0.000000 
#    y 0.000000 1.650690 0.000000 
#    z 0.000000 0.000000 1.662730 
# 
# From -- ./inp_files/30443.got.cif
#   From: 2010.05.17/outbox.cif.g08.bks.cpg/sg72_16_cif.got.tgz:30443.got - 2010.06.03 17:03:01.
