data_PCOD9527039
_publ_section_title
;
Structure prediction by ZEFSAII (Michael W. Deem and Ramdas Pophale) SiO2 
 PCOD9527039
Probable space group: I B A M
;
_chemical_formula_sum "Si O2"
_cell_formula_units_Z 96
_cell_length_a 27.512709
_cell_length_b 20.765723
_cell_length_c 8.854057
_cell_angle_alpha 90.000000
_cell_angle_beta 90.000000
_cell_angle_gamma 90.000000
_cell_volume 5058.511303
_symmetry_space_group_name_H-M "I B A M"
_symmetry_group_IT_number 72
_symmetry_cell_setting 'orthorhombic'
loop_
_space_group_symop_operation_xyz
x,y,z
-x,-y,z
x,-y,1/2-z
-x,y,1/2-z
-x,-y,-z
x,y,-z
-x,y,1/2+z
x,-y,1/2+z
1/2+x,1/2+y,1/2+z
1/2-x,1/2-y,1/2+z
1/2+x,1/2-y,-z
1/2-x,1/2+y,-z
1/2-x,1/2-y,1/2-z
1/2+x,1/2+y,1/2-z
1/2-x,1/2+y,z
1/2+x,1/2-y,z
loop_
_atom_site_type_symbol
_atom_site_label
_atom_site_fract_x
_atom_site_fract_y
_atom_site_fract_z
Si Si1 0.092065 0.430580 0.180194
Si Si2 0.883323 0.807689 0.819496
Si Si3 0.769809 0.184130 0.680763
Si Si4 0.053412 0.933243 0.680542
Si Si5 0.551348 0.198589 0.679937
Si Si6 0.292558 0.930817 0.179760
O O1 0.079213 0.500000 0.250000
O O2 0.063536 0.372085 0.256040
O O3 0.149847 0.419940 0.208393
O O4 0.084206 0.430967 0.000000
O O5 0.827035 0.818946 0.783297
O O6 0.913327 0.872185 0.784547
O O7 0.907013 0.747762 0.733612
O O8 0.887185 0.795239 0.000000
O O9 0.764481 0.184634 0.500000
O O10 0.750000 0.250000 0.750000
O O11 0.739655 0.124943 0.748114
O O12 0.049564 0.939726 0.500000
O O13 0.000000 0.923271 0.750000
O O14 0.072653 0.000000 0.750000
O O15 0.500000 0.220406 0.750000
O O16 0.548182 0.197196 0.500000
O O17 0.279995 0.000000 0.250000
O O18 0.285679 0.932127 0.000000
#
# Coordination Sequence:
#
# PCOD9527039 Si02
#       6
#    16  16  16  16  16  16
#     4  10  21  39  62  88 119 153 192 238 287 342
#     4  10  23  41  59  83 116 152 192 241 290 337
#     4  11  23  39  59  85 118 154 194 241 291 345
#     4  10  20  36  58  83 112 146 184 228 279 334
#     4  12  25  40  61  87 116 152 193 238 289 346
#     4  10  21  38  61  88 119 155 194 239 290 345
#
# _framework density 18.977914999999999
#
# number of rings (size 3 to 8) (size 9 to 14) (size 15 to 20)
#    0.000    1.500    0.000    5.500    0.000   11.000 
#    0.000    3.333    0.000    0.000    0.000    0.000 
#    0.000    0.000    0.000    0.000    0.000    0.000 
#
# Total GULP energy -268457.718709 kJ/mol
# GULP energy per Si atom -5592.869140 kJ/mol
# Density = 1.893472 g / cm^3
# Si number density = 18.977915 Si / 1000 Ang^3
#
#
#
# Elastic Constant Matrix: (Units=GPa)
#
#
# Indices 1 2 3 4 5 6 
#
# 1 35.4754 20.8458 27.4723 0.0000 0.0000 0.0000
# 2 20.8458 89.7240 36.0748 0.0000 0.0000 0.0000
# 3 27.4723 36.0748 69.0198 0.0000 0.0000 0.0000
# 4 0.0000 0.0000 0.0000 40.0957 0.0000 0.0000
# 5 0.0000 0.0000 0.0000 0.0000 29.1185 0.0000
# 6 0.0000 0.0000 0.0000 0.0000 0.0000 38.7690
#
#
#
# Elastic Compliance Matrix: (Units=1/GPa)
#
#
# Indices 1 2 3 4 5 6 
#
# 1 0.041759 -0.003822 -0.014624 0.000000 0.000000 0.000000
# 2 -0.003822 0.014460 -0.006037 0.000000 0.000000 0.000000
# 3 -0.014624 -0.006037 0.023465 0.000000 0.000000 0.000000
# 4 0.000000 0.000000 0.000000 0.024940 0.000000 0.000000
# 5 0.000000 0.000000 0.000000 0.000000 0.034342 0.000000
# 6 0.000000 0.000000 0.000000 0.000000 0.000000 0.025794
#
#
# Mechanical properties :
#
#
# Convention : Reuss Voigt Hill
#
# Bulk Modulus (GPa) = 32.55342 40.33388 36.44365
# Shear Modulus (GPa) = 22.32477 28.91839 25.62158
#
# Velocity S-wave (km/s) = 3.43352 3.90781 3.67832
# Velocity P-wave (km/s) = 5.73667 6.45450 6.10614
#
# Compressibility (1/GPa) = 0.03071874
#
# Stress axis : x y z
#
# Youngs Moduli (GPa) = 23.94670 69.15405 42.61734
#
# Poissons Ratio (x) = 0.26433 0.62323
# Poissons Ratio (y) = 0.09153 0.25727
# Poissons Ratio (z) = 0.35019 0.41746
#
# Static dielectric constant tensor:
#      x y z
#    x 1.645450 0.000000 0.000000 
#    y 0.000000 1.615510 0.000000 
#    z 0.000000 0.000000 1.631510 
# 
# From -- ./inp_files/8050.got.cif
#   From: 2010.05.17/outbox.cif.g08.bks.cpg/sg72_5_cif.got.tgz:8050.got - 2010.06.03 17:03:01.
