data_PCOD9527290
_publ_section_title
;
Structure prediction by ZEFSAII (Michael W. Deem and Ramdas Pophale) SiO2 
 PCOD9527290
Probable space group: I B A M
;
_chemical_formula_sum "Si O2"
_cell_formula_units_Z 48
_cell_length_a 15.255566
_cell_length_b 11.257196
_cell_length_c 10.837690
_cell_angle_alpha 90.000000
_cell_angle_beta 90.000000
_cell_angle_gamma 90.000000
_cell_volume 1861.209571
_symmetry_space_group_name_H-M "I B A M"
_symmetry_group_IT_number 72
_symmetry_cell_setting 'orthorhombic'
loop_
_space_group_symop_operation_xyz
x,y,z
-x,-y,z
x,-y,1/2-z
-x,y,1/2-z
-x,-y,-z
x,y,-z
-x,y,1/2+z
x,-y,1/2+z
1/2+x,1/2+y,1/2+z
1/2-x,1/2-y,1/2+z
1/2+x,1/2-y,-z
1/2-x,1/2+y,-z
1/2-x,1/2-y,1/2-z
1/2+x,1/2+y,1/2-z
1/2-x,1/2+y,z
1/2+x,1/2-y,z
loop_
_atom_site_type_symbol
_atom_site_label
_atom_site_fract_x
_atom_site_fract_y
_atom_site_fract_z
Si Si1 0.161955 0.797439 0.000000
Si Si2 0.296447 0.569007 0.000000
Si Si3 0.149569 0.204704 0.772870
Si Si4 0.096990 0.553370 0.367312
O O1 0.113028 0.798459 0.867424
O O2 0.209824 0.925222 0.000000
O O3 0.226884 0.682241 0.000000
O O4 0.345441 0.596590 0.131075
O O5 0.250000 0.250000 0.750000
O O6 0.099391 0.307933 0.846447
O O7 0.147122 0.500000 0.250000
O O8 0.131321 0.518096 0.500000
O O9 0.000000 0.500000 0.366398
#
# Coordination Sequence:
#
# PCOD9527290 Si02
#       4
#     8   8  16  16
#     4  10  22  34  59  91 137 193 231 286 370 440
#     4  10  20  38  57  89 139 191 235 288 360 446
#     4  10  21  37  57  92 139 181 233 297 372 429
#     4  10  22  41  66  99 137 183 240 304 360 425
#
# _framework density 25.789681000000002
#
# number of rings (size 3 to 8) (size 9 to 14) (size 15 to 20)
#    0.000    2.000    1.667    1.000    2.333   10.667 
#    0.000    0.000    0.000    0.000    0.000   28.000 
#    0.000    0.000    0.000    0.000    0.000    0.000 
#
# Total GULP energy -133803.833329 kJ/mol
# GULP energy per Si atom -5575.159722 kJ/mol
# Density = 2.573098 g / cm^3
# Si number density = 25.789681 Si / 1000 Ang^3
#
#
#
# Elastic Constant Matrix: (Units=GPa)
#
#
# Indices 1 2 3 4 5 6 
#
# 1 52.1991 43.6181 -5.1979 0.0000 0.0000 0.0000
# 2 43.6181 188.7799 40.5941 0.0000 0.0000 0.0000
# 3 -5.1979 40.5941 271.1662 0.0000 0.0000 0.0000
# 4 0.0000 0.0000 0.0000 24.6648 0.0000 0.0000
# 5 0.0000 0.0000 0.0000 0.0000 -14.1367 0.0000
# 6 0.0000 0.0000 0.0000 0.0000 0.0000 28.2659
#
#
#
# Elastic Compliance Matrix: (Units=1/GPa)
#
#
# Indices 1 2 3 4 5 6 
#
# 1 0.024206 -0.005882 0.001345 0.000000 0.000000 0.000000
# 2 -0.005882 0.006903 -0.001146 0.000000 0.000000 0.000000
# 3 0.001345 -0.001146 0.003885 0.000000 0.000000 0.000000
# 4 0.000000 0.000000 0.000000 0.040544 0.000000 0.000000
# 5 0.000000 0.000000 0.000000 0.000000 -0.070738 0.000000
# 6 0.000000 0.000000 0.000000 0.000000 0.000000 0.035378
#
#
# Mechanical properties :
#
#
# Convention : Reuss Voigt Hill
#
# Bulk Modulus (GPa) = 42.32446 74.46376 58.39411
# Shear Modulus (GPa) = 84.14524 36.63421 60.38973
#
# Velocity S-wave (km/s) = 5.71824 3.77304 4.84428
# Velocity P-wave (km/s) = 7.74886 6.92223 7.34718
#
# Compressibility (1/GPa) = 0.02362700
#
# Stress axis : x y z
#
# Youngs Moduli (GPa) = 41.31135 144.87093 257.39220
#
# Poissons Ratio (x) = 0.85214 -0.34608
# Poissons Ratio (y) = 0.24300 0.29500
# Poissons Ratio (z) = -0.05555 0.16604
#
# Static dielectric constant tensor:
#      x y z
#    x 2.508590 0.000000 0.000000 
#    y 0.000000 2.008080 0.000000 
#    z 0.000000 0.000000 2.529470 
# 
# From -- ./inp_files/10966.got.cif
#   From: 2010.05.17/outbox.cif.g08.bks.cpg/sg72_6_cif.got.tgz:10966.got - 2010.06.03 17:03:01.
