data_PCOD9527567
_publ_section_title
;
Structure prediction by ZEFSAII (Michael W. Deem and Ramdas Pophale) SiO2 
 PCOD9527567
Probable space group: I B A M
;
_chemical_formula_sum "Si O2"
_cell_formula_units_Z 88
_cell_length_a 14.393962
_cell_length_b 19.193050
_cell_length_c 15.636310
_cell_angle_alpha 90.000000
_cell_angle_beta 90.000000
_cell_angle_gamma 90.000000
_cell_volume 4319.750052
_symmetry_space_group_name_H-M "I B A M"
_symmetry_group_IT_number 72
_symmetry_cell_setting 'orthorhombic'
loop_
_space_group_symop_operation_xyz
x,y,z
-x,-y,z
x,-y,1/2-z
-x,y,1/2-z
-x,-y,-z
x,y,-z
-x,y,1/2+z
x,-y,1/2+z
1/2+x,1/2+y,1/2+z
1/2-x,1/2-y,1/2+z
1/2+x,1/2-y,-z
1/2-x,1/2+y,-z
1/2-x,1/2-y,1/2-z
1/2+x,1/2+y,1/2-z
1/2-x,1/2+y,z
1/2+x,1/2-y,z
loop_
_atom_site_type_symbol
_atom_site_label
_atom_site_fract_x
_atom_site_fract_y
_atom_site_fract_z
Si Si1 0.230746 0.500000 0.250000
Si Si2 0.395062 0.027192 0.096693
Si Si3 0.872565 0.808481 0.591893
Si Si4 0.171989 0.716961 0.646118
Si Si5 0.521191 0.828566 0.148411
Si Si6 0.312346 0.354556 0.737705
O O1 0.164519 0.513144 0.332007
O O2 0.290301 0.434039 0.281264
O O3 0.413273 0.107253 0.123717
O O4 0.500000 0.000000 0.096941
O O5 0.357392 0.022150 0.000000
O O6 0.899140 0.838421 0.500000
O O7 0.763953 0.786426 0.589730
O O8 0.930601 0.740362 0.613694
O O9 0.875563 0.854882 0.677000
O O10 0.213145 0.679582 0.732033
O O11 0.149481 0.797244 0.671260
O O12 0.083951 0.675059 0.611646
O O13 0.500000 0.826700 0.250000
#
# Coordination Sequence:
#
# PCOD9527567 Si02
#       6
#     8  16  16  16  16  16
#     4  12  21  38  62  81 124 166 202 248 319 371
#     4  11  24  35  51  89 126 161 203 239 305 390
#     4  10  21  34  53  85 113 145 203 255 299 364
#     4   9  18  36  56  81 113 153 202 243 297 365
#     4  12  19  35  62  81 119 159 202 257 308 361
#     4   9  19  36  55  82 110 154 198 243 294 369
#
# _framework density 20.371549000000002
#
# number of rings (size 3 to 8) (size 9 to 14) (size 15 to 20)
#    1.091    0.545    1.818    5.182    0.000    2.182 
#    0.000    0.000    0.000    2.182    0.000    1.273 
#    0.000    0.000    0.000    0.000    0.000    0.000 
#
# Total GULP energy -244972.902306 kJ/mol
# GULP energy per Si atom -5567.565962 kJ/mol
# Density = 2.032518 g / cm^3
# Si number density = 20.371549 Si / 1000 Ang^3
#
#
#
# Elastic Constant Matrix: (Units=GPa)
#
#
# Indices 1 2 3 4 5 6 
#
# 1 24.6765 -6.4771 -10.8745 0.0000 0.0000 0.0000
# 2 -6.4771 58.9523 -11.1524 0.0000 0.0000 0.0000
# 3 -10.8745 -11.1524 81.8604 0.0000 0.0000 0.0000
# 4 0.0000 0.0000 0.0000 8.2897 0.0000 0.0000
# 5 0.0000 0.0000 0.0000 0.0000 -10.2061 0.0000
# 6 0.0000 0.0000 0.0000 0.0000 0.0000 21.9074
#
#
#
# Elastic Compliance Matrix: (Units=1/GPa)
#
#
# Indices 1 2 3 4 5 6 
#
# 1 0.045189 0.006262 0.006856 0.000000 0.000000 0.000000
# 2 0.006262 0.018279 0.003322 0.000000 0.000000 0.000000
# 3 0.006856 0.003322 0.013579 0.000000 0.000000 0.000000
# 4 0.000000 0.000000 0.000000 0.120632 0.000000 0.000000
# 5 0.000000 0.000000 0.000000 0.000000 -0.097980 0.000000
# 6 0.000000 0.000000 0.000000 0.000000 0.000000 0.045647
#
#
# Mechanical properties :
#
#
# Convention : Reuss Voigt Hill
#
# Bulk Modulus (GPa) = 9.09681 12.05348 10.57515
# Shear Modulus (GPa) = 33.53262 16.93107 25.23185
#
# Velocity S-wave (km/s) = 4.06156 2.88603 3.52317
# Velocity P-wave (km/s) = 5.14491 4.12738 4.66398
#
# Compressibility (1/GPa) = 0.10992864
#
# Stress axis : x y z
#
# Youngs Moduli (GPa) = 22.12906 54.70658 73.64146
#
# Poissons Ratio (x) = -0.34257 -0.50490
# Poissons Ratio (y) = -0.13857 -0.24465
# Poissons Ratio (z) = -0.15172 -0.18174
#
# Static dielectric constant tensor:
#      x y z
#    x 1.754280 0.000000 0.000000 
#    y 0.000000 1.762010 0.000000 
#    z 0.000000 0.000000 1.813570 
# 
# From -- ./inp_files/23220.got.cif
#   From: 2010.05.17/outbox.cif.g08.bks.cpg/sg72_12_cif.got.tgz:23220.got - 2010.06.03 17:03:01.
