data_PCOD9527695
_publ_section_title
;
Structure prediction by ZEFSAII (Michael W. Deem and Ramdas Pophale) SiO2 
 PCOD9527695
Probable space group: I B A M
;
_chemical_formula_sum "Si O2"
_cell_formula_units_Z 88
_cell_length_a 22.153832
_cell_length_b 8.510953
_cell_length_c 23.078494
_cell_angle_alpha 90.000000
_cell_angle_beta 90.000000
_cell_angle_gamma 90.000000
_cell_volume 4351.455188
_symmetry_space_group_name_H-M "I B A M"
_symmetry_group_IT_number 72
_symmetry_cell_setting 'orthorhombic'
loop_
_space_group_symop_operation_xyz
x,y,z
-x,-y,z
x,-y,1/2-z
-x,y,1/2-z
-x,-y,-z
x,y,-z
-x,y,1/2+z
x,-y,1/2+z
1/2+x,1/2+y,1/2+z
1/2-x,1/2-y,1/2+z
1/2+x,1/2-y,-z
1/2-x,1/2+y,-z
1/2-x,1/2-y,1/2-z
1/2+x,1/2+y,1/2-z
1/2-x,1/2+y,z
1/2+x,1/2-y,z
loop_
_atom_site_type_symbol
_atom_site_label
_atom_site_fract_x
_atom_site_fract_y
_atom_site_fract_z
Si Si1 0.218727 0.000000 0.750000
Si Si2 0.514999 0.832679 0.317129
Si Si3 0.057478 0.910702 0.106040
Si Si4 0.826222 0.741122 0.567005
Si Si5 0.776287 0.427897 0.626601
Si Si6 0.137382 0.181983 0.834604
O O1 0.257793 0.949261 0.805711
O O2 0.174212 0.870806 0.722092
O O3 0.500000 0.832929 0.250000
O O4 0.476578 0.696959 0.347138
O O5 0.585797 0.805382 0.320569
O O6 0.500000 0.000000 0.344389
O O7 0.104440 0.799224 0.072455
O O8 0.100884 0.037430 0.137447
O O9 0.000000 0.000000 0.076213
O O10 0.812021 0.711955 0.500000
O O11 0.809641 0.583404 0.603170
O O12 0.783885 0.881167 0.591724
O O13 0.817328 0.272115 0.622990
#
# Coordination Sequence:
#
# PCOD9527695 Si02
#       6
#     8  16  16  16  16  16
#     4  12  22  38  65 100 137 174 206 278 340 418
#     4  10  21  36  59  94 133 177 214 266 331 407
#     4  10  22  42  65  94 129 172 223 272 333 399
#     4  12  25  45  67  91 131 178 230 282 330 399
#     4  12  25  41  65 100 131 173 222 274 346 401
#     4  11  22  38  62  94 138 168 212 267 332 409
#
# _framework density 20.223119000000001
#
# number of rings (size 3 to 8) (size 9 to 14) (size 15 to 20)
#    0.000    0.909    3.636    3.273    0.000    4.364 
#    0.000    0.909    0.000   11.455    0.000    0.000 
#    0.000    0.000    0.000    0.000    0.000    0.000 
#
# Total GULP energy -245528.498924 kJ/mol
# GULP energy per Si atom -5580.193157 kJ/mol
# Density = 2.017709 g / cm^3
# Si number density = 20.223119 Si / 1000 Ang^3
#
#
#
# Elastic Constant Matrix: (Units=GPa)
#
#
# Indices 1 2 3 4 5 6 
#
# 1 130.7561 54.7325 33.4752 0.0000 0.0000 0.0000
# 2 54.7325 115.7607 28.1434 0.0000 0.0000 0.0000
# 3 33.4752 28.1434 83.0793 0.0000 0.0000 0.0000
# 4 0.0000 0.0000 0.0000 20.8064 0.0000 0.0000
# 5 0.0000 0.0000 0.0000 0.0000 7.6447 0.0000
# 6 0.0000 0.0000 0.0000 0.0000 0.0000 -108.9434
#
#
#
# Elastic Compliance Matrix: (Units=1/GPa)
#
#
# Indices 1 2 3 4 5 6 
#
# 1 0.010046 -0.004104 -0.002658 0.000000 0.000000 0.000000
# 2 -0.004104 0.011090 -0.002103 0.000000 0.000000 0.000000
# 3 -0.002658 -0.002103 0.013820 0.000000 0.000000 0.000000
# 4 0.000000 0.000000 0.000000 0.048062 0.000000 0.000000
# 5 0.000000 0.000000 0.000000 0.000000 0.130810 0.000000
# 6 0.000000 0.000000 0.000000 0.000000 0.000000 -0.009179
#
#
# Mechanical properties :
#
#
# Convention : Reuss Voigt Hill
#
# Bulk Modulus (GPa) = 58.04918 62.47757 60.26338
# Shear Modulus (GPa) = 21.91821 -1.88214 10.01804
#
# Velocity S-wave (km/s) = 3.29571 -0.96577 2.22812
# Velocity P-wave (km/s) = 6.57640 5.45138 6.04014
#
# Compressibility (1/GPa) = 0.01722677
#
# Stress axis : x y z
#
# Youngs Moduli (GPa) = 99.54247 90.17041 72.35858
#
# Poissons Ratio (x) = 0.37003 0.19231
# Poissons Ratio (y) = 0.40849 0.15219
# Poissons Ratio (z) = 0.26455 0.18966
#
# Static dielectric constant tensor:
#      x y z
#    x 1.902230 0.000000 0.000000 
#    y 0.000000 1.773110 0.000000 
#    z 0.000000 0.000000 1.664900 
# 
# From -- ./inp_files/45261.got.cif
#   From: 2010.05.17/outbox.cif.g08.bks.cpg/sg72_23_cif.got.tgz:45261.got - 2010.06.03 17:03:01.
