data_PCOD9527550
_publ_section_title
;
Structure prediction by ZEFSAII (Michael W. Deem and Ramdas Pophale) SiO2 
 PCOD9527550
Probable space group: I B A M
;
_chemical_formula_sum "Si O2"
_cell_formula_units_Z 80
_cell_length_a 7.748385
_cell_length_b 17.279914
_cell_length_c 27.144517
_cell_angle_alpha 90.000000
_cell_angle_beta 90.000000
_cell_angle_gamma 90.000000
_cell_volume 3634.418101
_symmetry_space_group_name_H-M "I B A M"
_symmetry_group_IT_number 72
_symmetry_cell_setting 'orthorhombic'
loop_
_space_group_symop_operation_xyz
x,y,z
-x,-y,z
x,-y,1/2-z
-x,y,1/2-z
-x,-y,-z
x,y,-z
-x,y,1/2+z
x,-y,1/2+z
1/2+x,1/2+y,1/2+z
1/2-x,1/2-y,1/2+z
1/2+x,1/2-y,-z
1/2-x,1/2+y,-z
1/2-x,1/2-y,1/2-z
1/2+x,1/2+y,1/2-z
1/2-x,1/2+y,z
1/2+x,1/2-y,z
loop_
_atom_site_type_symbol
_atom_site_label
_atom_site_fract_x
_atom_site_fract_y
_atom_site_fract_z
Si Si1 0.256644 0.553311 0.902722
Si Si2 0.190758 0.849803 0.802826
Si Si3 0.851964 0.131731 0.500000
Si Si4 0.118829 0.618810 0.596418
Si Si5 0.967067 0.703385 0.000000
Si Si6 0.500000 0.775203 0.750000
Si Si7 0.000000 0.000000 0.818569
O O1 0.361666 0.584458 0.949516
O O2 0.193949 0.466360 0.914956
O O3 0.373895 0.548245 0.854640
O O4 0.084570 0.603696 0.892768
O O5 0.276329 0.850582 0.856710
O O6 0.339393 0.827701 0.764330
O O7 0.114377 0.934699 0.792726
O O8 0.049250 0.783004 0.794496
O O9 0.975771 0.204767 0.500000
O O10 0.656024 0.165291 0.500000
O O11 0.126616 0.673477 0.549175
#
# Coordination Sequence:
#
# PCOD9527550 Si02
#       7
#    16  16   8  16   8   8   8
#     4   9  19  36  58  84 119 163 205 250 302 353
#     4  10  23  43  67  93 126 164 208 258 313 374
#     4  10  21  34  50  80 122 162 205 250 295 359
#     4   9  19  38  61  86 120 161 204 251 303 366
#     4  10  21  33  54  88 120 157 201 246 305 372
#     4  10  24  45  68  95 126 164 202 258 330 372
#     4  10  22  40  64  94 122 160 212 257 304 373
#
# _framework density 22.011778
#
# number of rings (size 3 to 8) (size 9 to 14) (size 15 to 20)
#    0.000    2.400    0.000    0.600    0.000   14.400 
#    0.000    6.000    0.000    0.000    0.000    0.000 
#    0.000    0.000    0.000    0.000    0.000    0.000 
#
# Total GULP energy -223675.810934 kJ/mol
# GULP energy per Si atom -5591.895273 kJ/mol
# Density = 2.196168 g / cm^3
# Si number density = 22.011778 Si / 1000 Ang^3
#
#
#
# Elastic Constant Matrix: (Units=GPa)
#
#
# Indices 1 2 3 4 5 6 
#
# 1 75.3627 49.6455 35.7033 0.0000 0.0000 0.0000
# 2 49.6455 113.0648 57.9085 0.0000 0.0000 0.0000
# 3 35.7033 57.9085 89.1116 0.0000 0.0000 0.0000
# 4 0.0000 0.0000 0.0000 41.8174 0.0000 0.0000
# 5 0.0000 0.0000 0.0000 0.0000 22.4963 0.0000
# 6 0.0000 0.0000 0.0000 0.0000 0.0000 33.7372
#
#
#
# Elastic Compliance Matrix: (Units=1/GPa)
#
#
# Indices 1 2 3 4 5 6 
#
# 1 0.019310 -0.006769 -0.003338 0.000000 0.000000 0.000000
# 2 -0.006769 0.015630 -0.007445 0.000000 0.000000 0.000000
# 3 -0.003338 -0.007445 0.017397 0.000000 0.000000 0.000000
# 4 0.000000 0.000000 0.000000 0.023914 0.000000 0.000000
# 5 0.000000 0.000000 0.000000 0.000000 0.044452 0.000000
# 6 0.000000 0.000000 0.000000 0.000000 0.000000 0.029641
#
#
# Mechanical properties :
#
#
# Convention : Reuss Voigt Hill
#
# Bulk Modulus (GPa) = 58.02735 62.67263 60.34999
# Shear Modulus (GPa) = 26.15197 28.56229 27.35713
#
# Velocity S-wave (km/s) = 3.45061 3.60612 3.52922
# Velocity P-wave (km/s) = 6.50344 6.77295 6.63957
#
# Compressibility (1/GPa) = 0.01723325
#
# Stress axis : x y z
#
# Youngs Moduli (GPa) = 51.78764 63.98057 57.48107
#
# Poissons Ratio (x) = 0.43310 0.19185
# Poissons Ratio (y) = 0.35056 0.42793
# Poissons Ratio (z) = 0.17285 0.47632
#
# Static dielectric constant tensor:
#      x y z
#    x 1.835110 0.000000 0.000000 
#    y 0.000000 1.773700 0.000000 
#    z 0.000000 0.000000 1.799760 
# 
# From -- ./inp_files/47246.got.cif
#   From: 2010.05.17/outbox.cif.g08.bks.cpg/sg72_24_cif.got.tgz:47246.got - 2010.06.03 17:03:01.
