data_PCOD9527075
_publ_section_title
;
Structure prediction by ZEFSAII (Michael W. Deem and Ramdas Pophale) SiO2 
 PCOD9527075
Probable space group: I B A M
;
_chemical_formula_sum "Si O2"
_cell_formula_units_Z 56
_cell_length_a 6.420679
_cell_length_b 20.334214
_cell_length_c 15.590670
_cell_angle_alpha 90.000000
_cell_angle_beta 90.000000
_cell_angle_gamma 90.000000
_cell_volume 2035.509469
_symmetry_space_group_name_H-M "I B A M"
_symmetry_group_IT_number 72
_symmetry_cell_setting 'orthorhombic'
loop_
_space_group_symop_operation_xyz
x,y,z
-x,-y,z
x,-y,1/2-z
-x,y,1/2-z
-x,-y,-z
x,y,-z
-x,y,1/2+z
x,-y,1/2+z
1/2+x,1/2+y,1/2+z
1/2-x,1/2-y,1/2+z
1/2+x,1/2-y,-z
1/2-x,1/2+y,-z
1/2-x,1/2-y,1/2-z
1/2+x,1/2+y,1/2-z
1/2-x,1/2+y,z
1/2+x,1/2-y,z
loop_
_atom_site_type_symbol
_atom_site_label
_atom_site_fract_x
_atom_site_fract_y
_atom_site_fract_z
Si Si1 0.000000 0.228347 0.250000
Si Si2 0.917135 0.359632 0.835964
Si Si3 0.242900 0.514454 0.101431
Si Si4 0.368418 0.371515 0.100654
O O1 0.144721 0.288400 0.297286
O O2 0.964194 0.177475 0.170473
O O3 0.117778 0.352941 0.896373
O O4 0.000000 0.394529 0.750000
O O5 0.749058 0.408558 0.874861
O O6 0.364046 0.448851 0.130922
O O7 0.000000 0.500000 0.119246
O O8 0.270221 0.511224 0.000000
O O9 0.429340 0.364378 0.000000
#
# Coordination Sequence:
#
# PCOD9527075 Si02
#       4
#     8  16  16  16
#     4  10  22  36  57  97 136 172 216 266 342 410
#     4   9  19  33  59  91 125 158 221 282 323 394
#     4   8  15  30  54  85 117 158 216 269 319 381
#     4  10  20  36  59  90 133 176 218 271 331 398
#
# _framework density 27.511541999999999
#
# number of rings (size 3 to 8) (size 9 to 14) (size 15 to 20)
#    0.857    2.000    0.000    3.429    0.000    7.429 
#    0.000    0.000    0.000    3.429    3.714   16.000 
#    0.000    1.143    0.000    0.000    0.000    0.000 
#
# Total GULP energy -155940.055590 kJ/mol
# GULP energy per Si atom -5569.287700 kJ/mol
# Density = 2.744892 g / cm^3
# Si number density = 27.511542 Si / 1000 Ang^3
#
#
#
# Elastic Constant Matrix: (Units=GPa)
#
#
# Indices 1 2 3 4 5 6 
#
# 1 105.4325 113.2146 51.8250 0.0000 0.0000 0.0000
# 2 113.2146 311.5914 103.6993 0.0000 0.0000 0.0000
# 3 51.8250 103.6993 159.1562 0.0001 0.0000 0.0000
# 4 0.0000 0.0000 0.0001 55.1694 0.0000 0.0000
# 5 0.0000 0.0000 0.0000 0.0000 56.5223 0.0000
# 6 0.0000 0.0000 0.0000 0.0000 0.0000 104.7809
#
#
#
# Elastic Compliance Matrix: (Units=1/GPa)
#
#
# Indices 1 2 3 4 5 6 
#
# 1 0.015951 -0.005193 -0.001810 0.000000 0.000000 0.000000
# 2 -0.005193 0.005789 -0.002081 0.000000 0.000000 0.000000
# 3 -0.001810 -0.002081 0.008228 0.000000 0.000000 0.000000
# 4 0.000000 0.000000 0.000000 0.018126 0.000000 0.000000
# 5 0.000000 0.000000 0.000000 0.000000 0.017692 0.000000
# 6 0.000000 0.000000 0.000000 0.000000 0.000000 0.009544
#
#
# Mechanical properties :
#
#
# Convention : Reuss Voigt Hill
#
# Bulk Modulus (GPa) = 84.74815 123.73977 104.24396
# Shear Modulus (GPa) = 51.31793 63.79060 57.55427
#
# Velocity S-wave (km/s) = 4.32362 4.82050 4.57881
# Velocity P-wave (km/s) = 7.46970 8.72112 8.11956
#
# Compressibility (1/GPa) = 0.01179967
#
# Stress axis : x y z
#
# Youngs Moduli (GPa) = 62.69116 172.74997 121.53195
#
# Poissons Ratio (x) = 0.89714 0.22002
# Poissons Ratio (y) = 0.32557 0.25286
# Poissons Ratio (z) = 0.11350 0.35943
#
# Static dielectric constant tensor:
#      x y z
#    x 1.041590 0.000000 0.000000 
#    y 0.000000 2.158490 0.000000 
#    z 0.000000 0.000000 1.213830 
# 
# From -- ./inp_files/18373.got.cif
#   From: 2010.05.17/outbox.cif.g08.bks.cpg/sg72_10_cif.got.tgz:18373.got - 2010.06.03 17:03:01.
