data_PCOD9527657
_publ_section_title
;
Structure prediction by ZEFSAII (Michael W. Deem and Ramdas Pophale) SiO2 
 PCOD9527657
Probable space group: I B A M
;
_chemical_formula_sum "Si O2"
_cell_formula_units_Z 80
_cell_length_a 8.602056
_cell_length_b 30.253261
_cell_length_c 15.705104
_cell_angle_alpha 90.000000
_cell_angle_beta 90.000000
_cell_angle_gamma 90.000000
_cell_volume 4087.100117
_symmetry_space_group_name_H-M "I B A M"
_symmetry_group_IT_number 72
_symmetry_cell_setting 'orthorhombic'
loop_
_space_group_symop_operation_xyz
x,y,z
-x,-y,z
x,-y,1/2-z
-x,y,1/2-z
-x,-y,-z
x,y,-z
-x,y,1/2+z
x,-y,1/2+z
1/2+x,1/2+y,1/2+z
1/2-x,1/2-y,1/2+z
1/2+x,1/2-y,-z
1/2-x,1/2+y,-z
1/2-x,1/2-y,1/2-z
1/2+x,1/2+y,1/2-z
1/2-x,1/2+y,z
1/2+x,1/2-y,z
loop_
_atom_site_type_symbol
_atom_site_label
_atom_site_fract_x
_atom_site_fract_y
_atom_site_fract_z
Si Si1 0.408537 0.796748 0.402404
Si Si2 0.439021 0.890259 0.342344
Si Si3 0.562610 0.950608 0.000000
Si Si4 0.437131 0.611809 0.845121
Si Si5 0.061201 0.950342 0.500000
Si Si6 0.567414 0.288605 0.155820
O O1 0.363014 0.806867 0.500000
O O2 0.490887 0.840281 0.365317
O O3 0.508256 0.752473 0.398584
O O4 0.253417 0.788528 0.348121
O O5 0.500000 0.902940 0.250000
O O6 0.488504 0.923661 0.416336
O O7 0.250896 0.889252 0.341844
O O8 0.500000 0.000000 0.000000
O O9 0.750658 0.951280 0.000000
O O10 0.500000 0.603515 0.750000
O O11 0.488719 0.576692 0.915761
O O12 0.482170 0.661939 0.871620
O O13 0.000000 0.000000 0.500000
O O14 0.500000 0.282384 0.250000
#
# Coordination Sequence:
#
# PCOD9527657 Si02
#       6
#    16  16   8  16   8  16
#     4  11  21  35  57  85 117 156 193 235 283 337
#     4  10  21  39  62  83 117 155 191 233 288 341
#     4  10  22  42  61  86 116 148 191 238 291 346
#     4   9  21  39  60  84 115 152 190 233 284 340
#     4  10  22  40  63  84 112 152 183 238 293 342
#     4  10  21  36  56  82 116 156 193 234 282 336
#
# _framework density 19.573781
#
# number of rings (size 3 to 8) (size 9 to 14) (size 15 to 20)
#    0.000    2.000    1.000    1.800    5.600    5.600 
#    0.000    4.000    0.000    0.000    0.000    0.000 
#    0.000    0.000    0.000    0.000    0.000    0.000 
#
# Total GULP energy -223342.794691 kJ/mol
# GULP energy per Si atom -5583.569867 kJ/mol
# Density = 1.952923 g / cm^3
# Si number density = 19.573781 Si / 1000 Ang^3
#
#
#
# Elastic Constant Matrix: (Units=GPa)
#
#
# Indices 1 2 3 4 5 6 
#
# 1 9.4134 29.7140 16.7591 0.0000 0.0000 0.0000
# 2 29.7140 172.1608 93.7059 -0.0001 0.0000 0.0000
# 3 16.7591 93.7059 136.9987 -0.0002 0.0000 0.0000
# 4 0.0000 -0.0001 -0.0002 8.6629 0.0000 0.0000
# 5 0.0000 0.0000 0.0000 0.0000 24.2862 0.0000
# 6 0.0000 0.0000 0.0000 0.0000 0.0000 32.4859
#
#
#
# Elastic Compliance Matrix: (Units=1/GPa)
#
#
# Indices 1 2 3 4 5 6 
#
# 1 0.233595 -0.039451 -0.001592 0.000000 0.000000 0.000000
# 2 -0.039451 0.015916 -0.006061 0.000000 0.000000 0.000000
# 3 -0.001592 -0.006061 0.011639 0.000000 0.000000 0.000000
# 4 0.000000 0.000000 0.000000 0.115435 0.000000 0.000000
# 5 0.000000 0.000000 0.000000 0.000000 0.041176 0.000000
# 6 0.000000 0.000000 0.000000 0.000000 0.000000 0.030783
#
#
# Mechanical properties :
#
#
# Convention : Reuss Voigt Hill
#
# Bulk Modulus (GPa) = 5.99001 66.54788 36.26895
# Shear Modulus (GPa) = 8.35564 24.97993 16.66779
#
# Velocity S-wave (km/s) = 2.06835 3.57626 2.92128
# Velocity P-wave (km/s) = 2.96158 7.15018 5.47248
#
# Compressibility (1/GPa) = 0.16694450
#
# Stress axis : x y z
#
# Youngs Moduli (GPa) = 4.28091 62.82905 85.91509
#
# Poissons Ratio (x) = 2.47866 0.13676
# Poissons Ratio (y) = 0.16889 0.52069
# Poissons Ratio (z) = 0.00681 0.38078
#
# Static dielectric constant tensor:
#      x y z
#    x 1.679050 0.000000 0.000000 
#    y 0.000000 1.686570 0.000000 
#    z 0.000000 0.000000 1.677160 
# 
# From -- ./inp_files/28215.got.cif
#   From: 2010.05.17/outbox.cif.g08.bks.cpg/sg72_15_cif.got.tgz:28215.got - 2010.06.03 17:03:01.
