data_PCOD9527723
_publ_section_title
;
Structure prediction by ZEFSAII (Michael W. Deem and Ramdas Pophale) SiO2 
 PCOD9527723
Probable space group: I B A M
;
_chemical_formula_sum "Si O2"
_cell_formula_units_Z 68
_cell_length_a 21.326186
_cell_length_b 21.428637
_cell_length_c 8.468745
_cell_angle_alpha 90.000000
_cell_angle_beta 90.000000
_cell_angle_gamma 90.000000
_cell_volume 3870.141080
_symmetry_space_group_name_H-M "I B A M"
_symmetry_group_IT_number 72
_symmetry_cell_setting 'orthorhombic'
loop_
_space_group_symop_operation_xyz
x,y,z
-x,-y,z
x,-y,1/2-z
-x,y,1/2-z
-x,-y,-z
x,y,-z
-x,y,1/2+z
x,-y,1/2+z
1/2+x,1/2+y,1/2+z
1/2-x,1/2-y,1/2+z
1/2+x,1/2-y,-z
1/2-x,1/2+y,-z
1/2-x,1/2-y,1/2-z
1/2+x,1/2+y,1/2-z
1/2-x,1/2+y,z
1/2+x,1/2-y,z
loop_
_atom_site_type_symbol
_atom_site_label
_atom_site_fract_x
_atom_site_fract_y
_atom_site_fract_z
Si Si1 0.069082 0.258201 0.809681
Si Si2 0.300828 0.301041 0.691329
Si Si3 0.893547 0.601854 0.190329
Si Si4 0.500000 0.000000 0.250000
Si Si5 0.755796 0.568078 0.688610
O O1 0.128730 0.217077 0.758368
O O2 0.086367 0.328782 0.759217
O O3 0.000000 0.240829 0.750000
O O4 0.067200 0.257345 0.000000
O O5 0.298797 0.299036 0.500000
O O6 0.250000 0.250000 0.750000
O O7 0.282740 0.370943 0.743340
O O8 0.826840 0.581789 0.258185
O O9 0.945817 0.553774 0.243745
O O10 0.890013 0.600542 0.000000
O O11 0.736058 0.500000 0.750000
O O12 0.753406 0.566252 0.500000
#
# Coordination Sequence:
#
# PCOD9527723 Si02
#       5
#    16  16  16   4  16
#     4  10  21  37  55  80 112 146 186 231 278 329
#     4  10  21  37  58  84 112 146 189 237 281 334
#     4  11  22  34  51  76 111 150 186 222 264 321
#     4  12  22  32  48  78 118 152 186 212 266 328
#     4  11  23  37  56  81 111 145 186 232 281 331
#
# _framework density 17.570419000000001
#
# number of rings (size 3 to 8) (size 9 to 14) (size 15 to 20)
#    0.000    1.412    4.706    1.059    0.000    3.765 
#    0.000    0.000    0.000    0.706    0.000    4.941 
#    0.000    0.000    0.000    0.000    0.000    0.000 
#
# Total GULP energy -189306.795704 kJ/mol
# GULP energy per Si atom -5567.846932 kJ/mol
# Density = 1.753043 g / cm^3
# Si number density = 17.570419 Si / 1000 Ang^3
#
#
#
# Elastic Constant Matrix: (Units=GPa)
#
#
# Indices 1 2 3 4 5 6 
#
# 1 147.3312 115.8239 18.9864 0.0000 0.0000 0.0000
# 2 115.8239 175.0256 28.6540 0.0000 0.0000 0.0000
# 3 18.9864 28.6540 22.1545 0.0000 0.0000 0.0000
# 4 0.0000 0.0000 0.0000 17.2526 0.0000 0.0000
# 5 0.0000 0.0000 0.0000 0.0000 56.8442 0.0000
# 6 0.0000 0.0000 0.0000 0.0000 0.0000 47.9819
#
#
#
# Elastic Compliance Matrix: (Units=1/GPa)
#
#
# Indices 1 2 3 4 5 6 
#
# 1 0.014147 -0.009359 -0.000020 0.000000 0.000000 0.000000
# 2 -0.009359 0.013439 -0.009361 0.000000 0.000000 0.000000
# 3 -0.000020 -0.009361 0.057262 0.000000 0.000000 0.000000
# 4 0.000000 0.000000 0.000000 0.057962 0.000000 0.000000
# 5 0.000000 0.000000 0.000000 0.000000 0.017592 0.000000
# 6 0.000000 0.000000 0.000000 0.000000 0.000000 0.020841
#
#
# Mechanical properties :
#
#
# Convention : Reuss Voigt Hill
#
# Bulk Modulus (GPa) = 21.11099 74.60443 47.85771
# Shear Modulus (GPa) = 21.32067 36.48556 28.90311
#
# Velocity S-wave (km/s) = 3.48723 4.56184 4.06024
# Velocity P-wave (km/s) = 5.31559 8.38449 7.01980
#
# Compressibility (1/GPa) = 0.04736869
#
# Stress axis : x y z
#
# Youngs Moduli (GPa) = 70.68434 74.40870 17.46350
#
# Poissons Ratio (x) = 0.69638 0.00035
# Poissons Ratio (y) = 0.66152 0.16348
# Poissons Ratio (z) = 0.00140 0.69657
#
# Static dielectric constant tensor:
#      x y z
#    x 1.568400 0.000000 0.000000 
#    y 0.000000 1.602880 0.000000 
#    z 0.000000 0.000000 1.627530 
# 
# From -- ./inp_files/4395.got.cif
#   From: 2010.05.17/outbox.cif.g08.bks.cpg/sg72_3_cif.got.tgz:4395.got - 2010.06.03 17:03:01.
