data_PCOD9527982
_publ_section_title
;
Structure prediction by ZEFSAII (Michael W. Deem and Ramdas Pophale) SiO2 
 PCOD9527982
Probable space group: I B A M
;
_chemical_formula_sum "Si O2"
_cell_formula_units_Z 96
_cell_length_a 11.089045
_cell_length_b 23.731132
_cell_length_c 18.799986
_cell_angle_alpha 90.000000
_cell_angle_beta 90.000000
_cell_angle_gamma 90.000000
_cell_volume 4947.321420
_symmetry_space_group_name_H-M "I B A M"
_symmetry_group_IT_number 72
_symmetry_cell_setting 'orthorhombic'
loop_
_space_group_symop_operation_xyz
x,y,z
-x,-y,z
x,-y,1/2-z
-x,y,1/2-z
-x,-y,-z
x,y,-z
-x,y,1/2+z
x,-y,1/2+z
1/2+x,1/2+y,1/2+z
1/2-x,1/2-y,1/2+z
1/2+x,1/2-y,-z
1/2-x,1/2+y,-z
1/2-x,1/2-y,1/2-z
1/2+x,1/2+y,1/2-z
1/2-x,1/2+y,z
1/2+x,1/2-y,z
loop_
_atom_site_type_symbol
_atom_site_label
_atom_site_fract_x
_atom_site_fract_y
_atom_site_fract_z
Si Si1 0.947336 0.943066 0.918431
Si Si2 0.426739 0.645069 0.676241
Si Si3 0.325475 0.982043 0.579537
Si Si4 0.420123 0.885046 0.658652
Si Si5 0.828303 0.416386 0.691717
Si Si6 0.126898 0.735293 0.794589
O O1 0.806302 0.953978 0.917536
O O2 0.991309 0.888009 0.879136
O O3 0.991082 0.940534 0.000000
O O4 0.000000 0.000000 0.883806
O O5 0.500000 0.645416 0.750000
O O6 0.302341 0.610987 0.685257
O O7 0.395623 0.709414 0.657830
O O8 0.342990 0.005725 0.500000
O O9 0.408037 0.927838 0.593712
O O10 0.335111 0.029154 0.640902
O O11 0.363970 0.921333 0.724986
O O12 0.562868 0.875855 0.667449
O O13 0.358106 0.824108 0.664576
O O14 0.250000 0.750000 0.750000
O O15 0.000000 0.729951 0.750000
#
# Coordination Sequence:
#
# PCOD9527982 Si02
#       6
#    16  16  16  16  16  16
#     4  10  21  39  59  84 122 158 194 252 309 356
#     4  11  22  35  63  94 115 156 205 247 301 365
#     4  11  24  40  61  86 120 161 202 246 306 369
#     4  11  22  39  60  88 121 157 202 247 302 359
#     4  11  21  39  59  88 123 156 190 250 306 362
#     4  11  21  39  61  90 126 157 201 255 307 358
#
# _framework density 19.404440000000001
#
# number of rings (size 3 to 8) (size 9 to 14) (size 15 to 20)
#    0.000    1.167    5.000    2.000    2.333    3.000 
#    0.000    0.833    0.000    0.000    0.000    0.000 
#    0.000    0.000    0.000    0.000    0.000    0.000 
#
# Total GULP energy -267478.180000 kJ/mol
# GULP energy per Si atom -5572.462083 kJ/mol
# Density = 1.936027 g / cm^3
# Si number density = 19.404440 Si / 1000 Ang^3
#
#
#
# Elastic Constant Matrix: (Units=GPa)
#
#
# Indices 1 2 3 4 5 6 
#
# 1 90.2220 23.9477 7.8016 0.0000 0.0000 0.0000
# 2 23.9477 154.1901 53.6928 0.0000 0.0000 0.0000
# 3 7.8016 53.6928 57.5776 0.0000 0.0000 0.0000
# 4 0.0000 0.0000 0.0000 14.3596 0.0000 0.0000
# 5 0.0000 0.0000 0.0000 0.0000 22.5599 0.0000
# 6 0.0000 0.0000 0.0000 0.0000 0.0000 31.1104
#
#
#
# Elastic Compliance Matrix: (Units=1/GPa)
#
#
# Indices 1 2 3 4 5 6 
#
# 1 0.011561 -0.001851 0.000160 0.000000 0.000000 0.000000
# 2 -0.001851 0.009901 -0.008982 0.000000 0.000000 0.000000
# 3 0.000160 -0.008982 0.025722 0.000000 0.000000 0.000000
# 4 0.000000 0.000000 0.000000 0.069640 0.000000 0.000000
# 5 0.000000 0.000000 0.000000 0.000000 0.044326 0.000000
# 6 0.000000 0.000000 0.000000 0.000000 0.000000 0.032144
#
#
# Mechanical properties :
#
#
# Convention : Reuss Voigt Hill
#
# Bulk Modulus (GPa) = 38.70343 52.54154 45.62248
# Shear Modulus (GPa) = 22.39612 28.04249 25.21931
#
# Velocity S-wave (km/s) = 3.40100 3.80565 3.60900
# Velocity P-wave (km/s) = 5.95074 6.81516 6.39757
#
# Compressibility (1/GPa) = 0.02583750
#
# Stress axis : x y z
#
# Youngs Moduli (GPa) = 86.49521 101.00252 38.87715
#
# Poissons Ratio (x) = 0.18698 -0.00621
# Poissons Ratio (y) = 0.16013 0.34919
# Poissons Ratio (z) = -0.01383 0.90719
#
# Static dielectric constant tensor:
#      x y z
#    x 1.777080 0.000000 0.000000 
#    y 0.000000 1.691020 0.000000 
#    z 0.000000 0.000000 1.663620 
# 
# From -- ./inp_files/29445.got.cif
#   From: 2010.05.17/outbox.cif.g08.bks.cpg/sg72_15_cif.got.tgz:29445.got - 2010.06.03 17:03:01.
