data_PCOD9527119
_publ_section_title
;
Structure prediction by ZEFSAII (Michael W. Deem and Ramdas Pophale) SiO2 
 PCOD9527119
Probable space group: I B A M
;
_chemical_formula_sum "Si O2"
_cell_formula_units_Z 112
_cell_length_a 22.422509
_cell_length_b 18.630093
_cell_length_c 14.615323
_cell_angle_alpha 90.000000
_cell_angle_beta 90.000000
_cell_angle_gamma 90.000000
_cell_volume 6105.308978
_symmetry_space_group_name_H-M "I B A M"
_symmetry_group_IT_number 72
_symmetry_cell_setting 'orthorhombic'
loop_
_space_group_symop_operation_xyz
x,y,z
-x,-y,z
x,-y,1/2-z
-x,y,1/2-z
-x,-y,-z
x,y,-z
-x,y,1/2+z
x,-y,1/2+z
1/2+x,1/2+y,1/2+z
1/2-x,1/2-y,1/2+z
1/2+x,1/2-y,-z
1/2-x,1/2+y,-z
1/2-x,1/2-y,1/2-z
1/2+x,1/2+y,1/2-z
1/2-x,1/2+y,z
1/2+x,1/2-y,z
loop_
_atom_site_type_symbol
_atom_site_label
_atom_site_fract_x
_atom_site_fract_y
_atom_site_fract_z
Si Si1 0.242497 0.665639 0.891406
Si Si2 0.571772 0.303698 0.249988
Si Si3 0.174523 0.085777 0.750012
Si Si4 0.000023 0.580922 0.389061
Si Si5 0.242556 0.665685 0.608595
Si Si6 0.107664 0.683001 0.109593
Si Si7 0.607708 0.817008 0.390408
O O1 0.287745 0.616743 0.835695
O O2 0.249964 0.749978 0.868530
O O3 0.173106 0.652323 0.869872
O O4 0.252029 0.657578 0.000000
O O5 0.500000 0.311773 0.250000
O O6 0.609673 0.376723 0.249960
O O7 0.592958 0.255763 0.336576
O O8 0.592951 0.255740 0.163419
O O9 0.212213 0.116766 0.664301
O O10 0.171687 0.000000 0.750000
O O11 0.000011 0.578568 0.500000
O O12 0.057995 0.625681 0.362847
O O13 0.000000 0.500000 0.355656
O O14 0.942084 0.625738 0.362827
O O15 0.252081 0.657625 0.500000
O O16 0.173167 0.652377 0.630141
O O17 0.105031 0.695563 0.000000
O O18 0.605075 0.804446 0.500000
#
# Coordination Sequence:
#
# PCOD9527119 Si02
#       7
#    16  16  16  16  16  16  16
#     4  10  20  38  66  91 115 154 202 247 295 358
#     4  12  23  38  62  86 112 154 213 252 289 354
#     4  12  26  41  59  88 128 158 192 256 312 354
#     4   9  18  33  53  83 122 152 180 230 292 347
#     4  10  20  38  66  91 115 154 202 247 295 358
#     4  10  20  36  61  89 116 154 199 243 291 351
#     4  10  20  36  61  89 116 154 199 243 291 351
#
# _framework density 18.34469
#
# number of rings (size 3 to 8) (size 9 to 14) (size 15 to 20)
#    0.000    1.571    4.286    1.286    0.000    2.000 
#    0.000    4.286    0.000    0.000    0.000    4.000 
#    0.000    0.000    0.000    0.000    0.000    0.000 
#
# Total GULP energy -312808.116507 kJ/mol
# GULP energy per Si atom -5585.859223 kJ/mol
# Density = 1.830294 g / cm^3
# Si number density = 18.344690 Si / 1000 Ang^3
#
#
#
# Elastic Constant Matrix: (Units=GPa)
#
#
# Indices 1 2 3 4 5 6 
#
# 1 130.0467 59.4052 36.5028 0.0000 0.0000 0.0000
# 2 59.4052 145.8729 40.5222 0.0000 0.0000 0.0000
# 3 36.5028 40.5222 89.1296 0.0000 0.0000 0.0000
# 4 0.0000 0.0000 0.0000 -13.3900 0.0000 0.0000
# 5 0.0000 0.0000 0.0000 0.0000 9.4168 0.0000
# 6 0.0000 0.0000 0.0000 0.0000 0.0000 27.8666
#
#
#
# Elastic Compliance Matrix: (Units=1/GPa)
#
#
# Indices 1 2 3 4 5 6 
#
# 1 0.009929 -0.003335 -0.002550 0.000000 0.000000 0.000000
# 2 -0.003335 0.008966 -0.002711 0.000000 0.000000 0.000000
# 3 -0.002550 -0.002711 0.013496 0.000000 0.000000 0.000000
# 4 0.000000 0.000000 0.000000 -0.074682 0.000000 0.000000
# 5 0.000000 0.000000 0.000000 0.000000 0.106193 0.000000
# 6 0.000000 0.000000 0.000000 0.000000 0.000000 0.035885
#
#
# Mechanical properties :
#
#
# Convention : Reuss Voigt Hill
#
# Bulk Modulus (GPa) = 65.78915 70.87883 68.33399
# Shear Modulus (GPa) = 40.96815 20.01993 30.49404
#
# Velocity S-wave (km/s) = 4.73085 3.30710 4.08153
# Velocity P-wave (km/s) = 8.11060 7.30094 7.71639
#
# Compressibility (1/GPa) = 0.01520007
#
# Stress axis : x y z
#
# Youngs Moduli (GPa) = 100.71767 111.52719 74.09393
#
# Poissons Ratio (x) = 0.37194 0.18894
# Poissons Ratio (y) = 0.33589 0.20085
# Poissons Ratio (z) = 0.25684 0.30232
#
# Static dielectric constant tensor:
#      x y z
#    x 1.639460 0.000000 0.000000 
#    y 0.000000 1.590960 0.000000 
#    z 0.000000 0.000000 1.668820 
# 
# From -- ./inp_files/25173.got.cif
#   From: 2010.05.17/outbox.cif.g08.bks.cpg/sg72_13_cif.got.tgz:25173.got - 2010.06.03 17:03:01.
