data_PCOD9527234
_publ_section_title
;
Structure prediction by ZEFSAII (Michael W. Deem and Ramdas Pophale) SiO2 
 PCOD9527234
Probable space group: I B A M
;
_chemical_formula_sum "Si O2"
_cell_formula_units_Z 112
_cell_length_a 24.542298
_cell_length_b 13.018894
_cell_length_c 15.634972
_cell_angle_alpha 90.000000
_cell_angle_beta 90.000000
_cell_angle_gamma 90.000000
_cell_volume 4995.585817
_symmetry_space_group_name_H-M "I B A M"
_symmetry_group_IT_number 72
_symmetry_cell_setting 'orthorhombic'
loop_
_space_group_symop_operation_xyz
x,y,z
-x,-y,z
x,-y,1/2-z
-x,y,1/2-z
-x,-y,-z
x,y,-z
-x,y,1/2+z
x,-y,1/2+z
1/2+x,1/2+y,1/2+z
1/2-x,1/2-y,1/2+z
1/2+x,1/2-y,-z
1/2-x,1/2+y,-z
1/2-x,1/2-y,1/2-z
1/2+x,1/2+y,1/2-z
1/2-x,1/2+y,z
1/2+x,1/2-y,z
loop_
_atom_site_type_symbol
_atom_site_label
_atom_site_fract_x
_atom_site_fract_y
_atom_site_fract_z
Si Si1 0.608747 0.115286 0.849691
Si Si2 0.276113 0.257031 0.154805
Si Si3 0.993594 0.673502 0.648526
Si Si4 0.656361 0.447474 0.395851
Si Si5 0.532717 0.399329 0.603330
Si Si6 0.623708 0.104148 0.354399
Si Si7 0.834423 0.821360 0.904436
O O1 0.547448 0.118658 0.885855
O O2 0.612905 0.103945 0.747552
O O3 0.633332 0.226953 0.864902
O O4 0.637130 0.011726 0.883808
O O5 0.250000 0.250000 0.250000
O O6 0.297408 0.371939 0.139193
O O7 0.327640 0.184003 0.134923
O O8 0.227411 0.217297 0.096107
O O9 0.994771 0.795716 0.636051
O O10 0.935558 0.638050 0.611592
O O11 0.000000 0.652909 0.750000
O O12 0.660192 0.445728 0.500000
O O13 0.596199 0.407060 0.371336
O O14 0.661946 0.565215 0.364831
O O15 0.500000 0.500000 0.631923
O O16 0.531244 0.397025 0.500000
O O17 0.856397 0.833437 0.000000
#
# Coordination Sequence:
#
# PCOD9527234 Si02
#       7
#    16  16  16  16  16  16  16
#     4  10  21  39  64  93 127 162 205 261 316 378
#     4  12  24  42  66  94 126 169 215 267 316 379
#     4  10  20  37  61  91 124 163 206 257 317 376
#     4  10  23  43  65  91 130 170 212 267 325 384
#     4  10  20  37  62  89 125 169 208 256 320 387
#     4  10  21  40  62  92 125 162 210 260 319 374
#     4  11  25  43  64  93 128 169 215 265 318 381
#
# _framework density 22.419792999999999
#
# number of rings (size 3 to 8) (size 9 to 14) (size 15 to 20)
#    0.000    1.571    2.857    1.714    2.000    4.286 
#    0.000    2.857    0.000    1.714    0.000    0.000 
#    0.000    0.000    0.000    0.000    0.000    0.000 
#
# Total GULP energy -312704.069006 kJ/mol
# GULP energy per Si atom -5584.001232 kJ/mol
# Density = 2.236876 g / cm^3
# Si number density = 22.419793 Si / 1000 Ang^3
#
#
#
# Elastic Constant Matrix: (Units=GPa)
#
#
# Indices 1 2 3 4 5 6 
#
# 1 93.4724 37.1457 2.2210 0.0000 0.0000 0.0000
# 2 37.1457 171.2734 9.9780 0.0000 0.0000 0.0000
# 3 2.2210 9.9780 31.8023 0.0000 0.0000 0.0000
# 4 0.0000 0.0000 0.0000 359.3054 0.0000 0.0000
# 5 0.0000 0.0000 0.0000 0.0000 -61.5886 0.0000
# 6 0.0000 0.0000 0.0000 0.0000 0.0000 37.7096
#
#
#
# Elastic Compliance Matrix: (Units=1/GPa)
#
#
# Indices 1 2 3 4 5 6 
#
# 1 0.011707 -0.002538 -0.000021 0.000000 0.000000 0.000000
# 2 -0.002538 0.006497 -0.001861 0.000000 0.000000 0.000000
# 3 -0.000021 -0.001861 0.032030 0.000000 0.000000 0.000000
# 4 0.000000 0.000000 0.000000 0.002783 0.000000 0.000000
# 5 0.000000 0.000000 0.000000 0.000000 -0.016237 0.000000
# 6 0.000000 0.000000 0.000000 0.000000 0.000000 0.026518
#
#
# Mechanical properties :
#
#
# Convention : Reuss Voigt Hill
#
# Bulk Modulus (GPa) = 24.15837 43.91529 34.03683
# Shear Modulus (GPa) = 58.18116 83.56550 70.87333
#
# Velocity S-wave (km/s) = 5.09972 6.11179 5.62855
# Velocity P-wave (km/s) = 6.74352 8.33280 7.57993
#
# Compressibility (1/GPa) = 0.04139351
#
# Stress axis : x y z
#
# Youngs Moduli (GPa) = 85.41617 153.90619 31.22091
#
# Poissons Ratio (x) = 0.39059 0.00067
# Poissons Ratio (y) = 0.21677 0.05811
# Poissons Ratio (z) = 0.00183 0.28647
#
# Static dielectric constant tensor:
#      x y z
#    x 1.832780 0.000000 0.000000 
#    y 0.000000 1.867500 0.000000 
#    z 0.000000 0.000000 1.871430 
# 
# From -- ./inp_files/40357.got.cif
#   From: 2010.05.17/outbox.cif.g08.bks.cpg/sg72_21_cif.got.tgz:40357.got - 2010.06.03 17:03:01.
