data_PCOD9527873
_publ_section_title
;
Structure prediction by ZEFSAII (Michael W. Deem and Ramdas Pophale) SiO2 
 PCOD9527873
Probable space group: I B A M
;
_chemical_formula_sum "Si O2"
_cell_formula_units_Z 112
_cell_length_a 14.838244
_cell_length_b 14.613511
_cell_length_c 28.891313
_cell_angle_alpha 90.000000
_cell_angle_beta 90.000000
_cell_angle_gamma 90.000000
_cell_volume 6264.758852
_symmetry_space_group_name_H-M "I B A M"
_symmetry_group_IT_number 72
_symmetry_cell_setting 'orthorhombic'
loop_
_space_group_symop_operation_xyz
x,y,z
-x,-y,z
x,-y,1/2-z
-x,y,1/2-z
-x,-y,-z
x,y,-z
-x,y,1/2+z
x,-y,1/2+z
1/2+x,1/2+y,1/2+z
1/2-x,1/2-y,1/2+z
1/2+x,1/2-y,-z
1/2-x,1/2+y,-z
1/2-x,1/2-y,1/2-z
1/2+x,1/2+y,1/2-z
1/2-x,1/2+y,z
1/2+x,1/2-y,z
loop_
_atom_site_type_symbol
_atom_site_label
_atom_site_fract_x
_atom_site_fract_y
_atom_site_fract_z
Si Si1 0.140463 0.053881 0.054228
Si Si2 0.282112 0.859427 0.824443
Si Si3 0.120442 0.261145 0.364246
Si Si4 0.959621 0.737732 0.206050
Si Si5 0.449860 0.645242 0.553687
Si Si6 0.772140 0.437617 0.139437
Si Si7 0.665883 0.400851 0.233950
O O1 0.216227 0.072413 0.092046
O O2 0.054022 0.118828 0.062791
O O3 0.104866 0.949744 0.060639
O O4 0.166674 0.063922 0.000000
O O5 0.210657 0.793884 0.849962
O O6 0.379704 0.815217 0.819312
O O7 0.239047 0.873523 0.773083
O O8 0.291002 0.956053 0.850460
O O9 0.087354 0.222704 0.413081
O O10 0.144361 0.368230 0.362898
O O11 0.040744 0.239855 0.328252
O O12 0.911159 0.826217 0.228107
O O13 0.000000 0.683649 0.250000
O O14 0.441650 0.670208 0.500000
O O15 0.712947 0.408662 0.184067
O O16 0.630847 0.500000 0.250000
#
# Coordination Sequence:
#
# PCOD9527873 Si02
#       7
#    16  16  16  16  16  16  16
#     4   9  18  36  62  91 120 151 196 258 313 359
#     4  11  23  42  57  85 126 155 204 253 294 363
#     4  12  23  38  62  88 119 165 201 251 302 366
#     4  12  23  38  61  85 122 161 200 249 299 357
#     4   9  19  36  60  92 123 151 195 253 316 369
#     4  11  22  38  61  87 119 162 203 244 300 362
#     4  10  21  38  58  87 119 155 197 252 301 353
#
# _framework density 17.877783000000001
#
# number of rings (size 3 to 8) (size 9 to 14) (size 15 to 20)
#    0.000    1.429    4.286    3.000    0.000    1.429 
#    0.000    0.714    0.000    0.857    0.000    2.000 
#    0.000    0.000    0.000    0.000    0.000    0.000 
#
# Total GULP energy -312633.322426 kJ/mol
# GULP energy per Si atom -5582.737900 kJ/mol
# Density = 1.783709 g / cm^3
# Si number density = 17.877783 Si / 1000 Ang^3
#
#
#
# Elastic Constant Matrix: (Units=GPa)
#
#
# Indices 1 2 3 4 5 6 
#
# 1 77.9820 38.1464 36.0048 0.0000 0.0000 0.0000
# 2 38.1464 80.4092 28.3668 0.0000 0.0000 0.0000
# 3 36.0048 28.3668 83.3767 0.0000 0.0000 0.0000
# 4 0.0000 0.0000 0.0000 -9.1299 0.0000 0.0000
# 5 0.0000 0.0000 0.0000 0.0000 22.4622 0.0000
# 6 0.0000 0.0000 0.0000 0.0000 0.0000 16.7895
#
#
#
# Elastic Compliance Matrix: (Units=1/GPa)
#
#
# Indices 1 2 3 4 5 6 
#
# 1 0.018884 -0.006911 -0.005803 0.000000 0.000000 0.000000
# 2 -0.006911 0.016662 -0.002684 0.000000 0.000000 0.000000
# 3 -0.005803 -0.002684 0.015413 0.000000 0.000000 0.000000
# 4 0.000000 0.000000 0.000000 -0.109530 0.000000 0.000000
# 5 0.000000 0.000000 0.000000 0.000000 0.044519 0.000000
# 6 0.000000 0.000000 0.000000 0.000000 0.000000 0.059561
#
#
# Mechanical properties :
#
#
# Convention : Reuss Voigt Hill
#
# Bulk Modulus (GPa) = 49.60019 49.64488 49.62254
# Shear Modulus (GPa) = 60.22129 15.30768 37.76449
#
# Velocity S-wave (km/s) = 5.81017 2.92933 4.60104
# Velocity P-wave (km/s) = 8.53318 6.26663 7.48618
#
# Compressibility (1/GPa) = 0.02016121
#
# Stress axis : x y z
#
# Youngs Moduli (GPa) = 52.95600 60.01653 64.88008
#
# Poissons Ratio (x) = 0.41479 0.37651
# Poissons Ratio (y) = 0.36599 0.17416
# Poissons Ratio (z) = 0.30731 0.16111
#
# Static dielectric constant tensor:
#      x y z
#    x 1.595300 0.000000 0.000000 
#    y 0.000000 1.620310 0.000000 
#    z 0.000000 0.000000 1.606630 
# 
# From -- ./inp_files/48710.got.cif
#   From: 2010.05.17/outbox.cif.g08.bks.cpg/sg72_25_cif.got.tgz:48710.got - 2010.06.03 17:03:01.
