data_PCOD9527934
_publ_section_title
;
Structure prediction by ZEFSAII (Michael W. Deem and Ramdas Pophale) SiO2 
 PCOD9527934
Probable space group: I B A M
;
_chemical_formula_sum "Si O2"
_cell_formula_units_Z 68
_cell_length_a 5.239460
_cell_length_b 24.781646
_cell_length_c 24.456002
_cell_angle_alpha 90.000000
_cell_angle_beta 90.000000
_cell_angle_gamma 90.000000
_cell_volume 3175.427044
_symmetry_space_group_name_H-M "I B A M"
_symmetry_group_IT_number 72
_symmetry_cell_setting 'orthorhombic'
loop_
_space_group_symop_operation_xyz
x,y,z
-x,-y,z
x,-y,1/2-z
-x,y,1/2-z
-x,-y,-z
x,y,-z
-x,y,1/2+z
x,-y,1/2+z
1/2+x,1/2+y,1/2+z
1/2-x,1/2-y,1/2+z
1/2+x,1/2-y,-z
1/2-x,1/2+y,-z
1/2-x,1/2-y,1/2-z
1/2+x,1/2+y,1/2-z
1/2-x,1/2+y,z
1/2+x,1/2-y,z
loop_
_atom_site_type_symbol
_atom_site_label
_atom_site_fract_x
_atom_site_fract_y
_atom_site_fract_z
Si Si1 0.860718 0.446229 0.435636
Si Si2 0.256409 0.103496 0.233265
Si Si3 0.346002 0.396428 0.391641
Si Si4 0.500000 0.000000 0.250000
Si Si5 0.988294 0.215370 0.064244
O O1 0.812532 0.453344 0.500000
O O2 0.087109 0.402888 0.426980
O O3 0.000000 0.500000 0.413443
O O4 0.588460 0.432690 0.409313
O O5 0.500000 0.137458 0.250000
O O6 0.239529 0.090375 0.169802
O O7 0.000000 0.130969 0.250000
O O8 0.299788 0.047393 0.268015
O O9 0.449958 0.336083 0.399018
O O10 0.209717 0.259531 0.073044
O O11 0.002586 0.198424 0.000000
#
# Coordination Sequence:
#
# PCOD9527934 Si02
#       5
#    16  16  16   4  16
#     4  11  24  38  55  88 129 164 202 242 300 386
#     4  10  22  38  58  86 118 152 207 259 299 355
#     4  12  23  39  65  87 121 169 207 255 316 372
#     4   8  22  36  58  80 116 152 206 256 286 340
#     4  10  21  38  62  90 119 155 207 265 314 367
#
# _framework density 21.414441
#
# number of rings (size 3 to 8) (size 9 to 14) (size 15 to 20)
#    0.706    0.706    0.000    6.000    1.647    5.647 
#    0.000    0.000    0.000    4.235    0.000    0.000 
#    0.000    0.000    0.000    0.000    0.000    0.000 
#
# Total GULP energy -189351.595903 kJ/mol
# GULP energy per Si atom -5569.164585 kJ/mol
# Density = 2.136570 g / cm^3
# Si number density = 21.414441 Si / 1000 Ang^3
#
#
#
# Elastic Constant Matrix: (Units=GPa)
#
#
# Indices 1 2 3 4 5 6 
#
# 1 156.6595 0.9170 44.4538 0.0000 0.0000 0.0000
# 2 0.9170 41.5095 14.1261 0.0000 0.0000 0.0000
# 3 44.4538 14.1261 77.4398 0.0000 0.0000 0.0000
# 4 0.0000 0.0000 0.0000 4.5657 0.0000 0.0000
# 5 0.0000 0.0000 0.0000 0.0000 20.4427 0.0000
# 6 0.0000 0.0000 0.0000 0.0000 0.0000 23.5239
#
#
#
# Elastic Compliance Matrix: (Units=1/GPa)
#
#
# Indices 1 2 3 4 5 6 
#
# 1 0.007703 0.001423 -0.004682 0.000000 0.000000 0.000000
# 2 0.001423 0.025948 -0.005550 0.000000 0.000000 0.000000
# 3 -0.004682 -0.005550 0.016613 0.000000 0.000000 0.000000
# 4 0.000000 0.000000 0.000000 0.219023 0.000000 0.000000
# 5 0.000000 0.000000 0.000000 0.000000 0.048917 0.000000
# 6 0.000000 0.000000 0.000000 0.000000 0.000000 0.042510
#
#
# Mechanical properties :
#
#
# Convention : Reuss Voigt Hill
#
# Bulk Modulus (GPa) = 30.63056 43.84473 37.23765
# Shear Modulus (GPa) = 12.84638 24.11394 18.48016
#
# Velocity S-wave (km/s) = 2.45193 3.35932 2.94083
# Velocity P-wave (km/s) = 4.72765 5.96369 5.38127
#
# Compressibility (1/GPa) = 0.03264713
#
# Stress axis : x y z
#
# Youngs Moduli (GPa) = 129.81252 38.53830 60.19318
#
# Poissons Ratio (x) = -0.05484 0.28181
# Poissons Ratio (y) = -0.18473 0.33408
# Poissons Ratio (z) = 0.60774 0.21390
#
# Static dielectric constant tensor:
#      x y z
#    x 1.901710 0.000000 0.000000 
#    y 0.000000 1.787620 0.000000 
#    z 0.000000 0.000000 1.816940 
# 
# From -- ./inp_files/46638.got.cif
#   From: 2010.05.17/outbox.cif.g08.bks.cpg/sg72_24_cif.got.tgz:46638.got - 2010.06.03 17:03:01.
