data_PCOD9527877
_publ_section_title
;
Structure prediction by ZEFSAII (Michael W. Deem and Ramdas Pophale) SiO2 
 PCOD9527877
Probable space group: I B A M
;
_chemical_formula_sum "Si O2"
_cell_formula_units_Z 88
_cell_length_a 31.284765
_cell_length_b 11.041184
_cell_length_c 13.463491
_cell_angle_alpha 90.000000
_cell_angle_beta 90.000000
_cell_angle_gamma 90.000000
_cell_volume 4650.570462
_symmetry_space_group_name_H-M "I B A M"
_symmetry_group_IT_number 72
_symmetry_cell_setting 'orthorhombic'
loop_
_space_group_symop_operation_xyz
x,y,z
-x,-y,z
x,-y,1/2-z
-x,y,1/2-z
-x,-y,-z
x,y,-z
-x,y,1/2+z
x,-y,1/2+z
1/2+x,1/2+y,1/2+z
1/2-x,1/2-y,1/2+z
1/2+x,1/2-y,-z
1/2-x,1/2+y,-z
1/2-x,1/2-y,1/2-z
1/2+x,1/2+y,1/2-z
1/2-x,1/2+y,z
1/2+x,1/2-y,z
loop_
_atom_site_type_symbol
_atom_site_label
_atom_site_fract_x
_atom_site_fract_y
_atom_site_fract_z
Si Si1 0.034448 0.339060 0.382103
Si Si2 0.389258 0.744601 0.719699
Si Si3 0.806336 0.637035 0.714836
Si Si4 0.838077 0.000000 0.750000
Si Si5 0.783481 0.833768 0.882955
Si Si6 0.062157 0.387727 0.881553
O O1 0.034050 0.333355 0.500000
O O2 0.066510 0.241465 0.339016
O O3 0.055767 0.469890 0.357265
O O4 0.984722 0.335004 0.353792
O O5 0.351936 0.825081 0.670290
O O6 0.368326 0.613686 0.728921
O O7 0.402188 0.814600 0.821455
O O8 0.806958 0.500000 0.750000
O O9 0.799055 0.724202 0.811148
O O10 0.766871 0.655619 0.640613
O O11 0.807323 0.046713 0.660872
O O12 0.791511 0.817085 0.000000
O O13 0.068510 0.377639 0.000000
#
# Coordination Sequence:
#
# PCOD9527877 Si02
#       6
#    16  16  16   8  16  16
#     4   9  18  33  55  87 119 146 188 240 292 353
#     4  11  21  35  58  81 115 150 190 244 286 335
#     4  10  21  38  58  91 115 135 201 255 286 367
#     4  10  24  42  55  82 118 156 207 242 274 368
#     4  10  22  42  63  80 116 162 189 239 311 353
#     4   9  18  34  57  85 117 151 187 234 299 355
#
# _framework density 18.922408999999998
#
# number of rings (size 3 to 8) (size 9 to 14) (size 15 to 20)
#    0.000    2.182    0.909    3.273    0.000    6.545 
#    0.000    1.818    0.000    2.182    0.000    0.000 
#    0.000    0.000    0.000    0.000    0.000    0.000 
#
# Total GULP energy -245321.606848 kJ/mol
# GULP energy per Si atom -5575.491065 kJ/mol
# Density = 1.887934 g / cm^3
# Si number density = 18.922409 Si / 1000 Ang^3
#
#
#
# Elastic Constant Matrix: (Units=GPa)
#
#
# Indices 1 2 3 4 5 6 
#
# 1 117.1855 35.9109 11.6213 0.0000 0.0000 0.0000
# 2 35.9109 71.1141 9.6722 0.0000 0.0000 0.0000
# 3 11.6213 9.6722 68.7029 0.0000 0.0000 0.0000
# 4 0.0000 0.0000 0.0000 14.7238 0.0000 0.0000
# 5 0.0000 0.0000 0.0000 0.0000 10.1900 0.0000
# 6 0.0000 0.0000 0.0000 0.0000 0.0000 27.4919
#
#
#
# Elastic Compliance Matrix: (Units=1/GPa)
#
#
# Indices 1 2 3 4 5 6 
#
# 1 0.010165 -0.004995 -0.001016 0.000000 0.000000 0.000000
# 2 -0.004995 0.016791 -0.001519 0.000000 0.000000 0.000000
# 3 -0.001016 -0.001519 0.014941 0.000000 0.000000 0.000000
# 4 0.000000 0.000000 0.000000 0.067917 0.000000 0.000000
# 5 0.000000 0.000000 0.000000 0.000000 0.098136 0.000000
# 6 0.000000 0.000000 0.000000 0.000000 0.000000 0.036374
#
#
# Mechanical properties :
#
#
# Convention : Reuss Voigt Hill
#
# Bulk Modulus (GPa) = 37.26227 41.26792 39.26510
# Shear Modulus (GPa) = 18.63378 23.80100 21.21739
#
# Velocity S-wave (km/s) = 3.14147 3.55042 3.35219
# Velocity P-wave (km/s) = 5.73527 6.21802 5.98152
#
# Compressibility (1/GPa) = 0.02683680
#
# Stress axis : x y z
#
# Youngs Moduli (GPa) = 98.37785 59.55654 66.92915
#
# Poissons Ratio (x) = 0.29747 0.06802
# Poissons Ratio (y) = 0.49138 0.10166
# Poissons Ratio (z) = 0.09998 0.09046
#
# Static dielectric constant tensor:
#      x y z
#    x 1.683500 0.000000 0.000000 
#    y 0.000000 1.647520 0.000000 
#    z 0.000000 0.000000 1.676500 
# 
# From -- ./inp_files/26279.got.cif
#   From: 2010.05.17/outbox.cif.g08.bks.cpg/sg72_14_cif.got.tgz:26279.got - 2010.06.03 17:03:01.
