data_PCOD9527241
_publ_section_title
;
Structure prediction by ZEFSAII (Michael W. Deem and Ramdas Pophale) SiO2 
 PCOD9527241
Probable space group: I B A M
;
_chemical_formula_sum "Si O2"
_cell_formula_units_Z 128
_cell_length_a 16.292484
_cell_length_b 20.455739
_cell_length_c 19.185189
_cell_angle_alpha 90.000000
_cell_angle_beta 90.000000
_cell_angle_gamma 90.000000
_cell_volume 6393.940034
_symmetry_space_group_name_H-M "I B A M"
_symmetry_group_IT_number 72
_symmetry_cell_setting 'orthorhombic'
loop_
_space_group_symop_operation_xyz
x,y,z
-x,-y,z
x,-y,1/2-z
-x,y,1/2-z
-x,-y,-z
x,y,-z
-x,y,1/2+z
x,-y,1/2+z
1/2+x,1/2+y,1/2+z
1/2-x,1/2-y,1/2+z
1/2+x,1/2-y,-z
1/2-x,1/2+y,-z
1/2-x,1/2-y,1/2-z
1/2+x,1/2+y,1/2-z
1/2-x,1/2+y,z
1/2+x,1/2-y,z
loop_
_atom_site_type_symbol
_atom_site_label
_atom_site_fract_x
_atom_site_fract_y
_atom_site_fract_z
Si Si1 0.703283 0.962557 0.185889
Si Si2 0.568116 0.140046 0.302537
Si Si3 0.486173 0.226489 0.582823
Si Si4 0.434772 0.357879 0.862218
Si Si5 0.801530 0.038285 0.921273
Si Si6 0.195695 0.852308 0.246639
Si Si7 0.940503 0.062383 0.425025
Si Si8 0.162663 0.278922 0.815256
O O1 0.637957 0.907423 0.168007
O O2 0.779379 0.920915 0.219186
O O3 0.663659 0.000000 0.250000
O O4 0.730087 0.017794 0.131329
O O5 0.500000 0.109865 0.250000
O O6 0.526585 0.170388 0.370240
O O7 0.608969 0.195344 0.251376
O O8 0.483272 0.216735 0.500000
O O9 0.542227 0.290197 0.600676
O O10 0.395184 0.228897 0.617633
O O11 0.366789 0.405078 0.899964
O O12 0.393669 0.350503 0.787506
O O13 0.522181 0.394672 0.864329
O O14 0.852767 0.969992 0.919966
O O15 0.774173 0.051167 0.000000
O O16 0.199416 0.792559 0.300435
O O17 0.262218 0.830759 0.186953
O O18 0.947931 0.097997 0.500000
O O19 0.000000 0.000000 0.428423
#
# Coordination Sequence:
#
# PCOD9527241 Si02
#       8
#    16  16  16  16  16  16  16  16
#     4  11  22  38  60  89 115 150 204 250 296 360
#     4   9  20  40  64  83 112 153 194 249 308 357
#     4  11  22  37  60  92 121 154 200 244 298 365
#     4  11  19  34  59  86 116 160 200 240 285 356
#     4  10  21  38  55  81 125 166 195 237 298 354
#     4  10  20  37  62  82 112 151 203 246 291 350
#     4   8  16  31  48  69 109 157 191 222 274 338
#     4   9  20  40  60  81 115 156 191 243 301 346
#
# _framework density 20.018955999999999
#
# number of rings (size 3 to 8) (size 9 to 14) (size 15 to 20)
#    0.000    2.125    2.500    1.875    1.750    0.750 
#    0.000    1.875    0.000    0.000    0.000    3.500 
#    0.000    0.000    0.000    0.000    0.000    0.000 
#
# Total GULP energy -356271.667115 kJ/mol
# GULP energy per Si atom -5566.744799 kJ/mol
# Density = 1.997339 g / cm^3
# Si number density = 20.018956 Si / 1000 Ang^3
#
#
#
# Elastic Constant Matrix: (Units=GPa)
#
#
# Indices 1 2 3 4 5 6 
#
# 1 56.1768 6.7922 32.9146 0.0000 0.0000 0.0000
# 2 6.7922 48.7894 29.8310 0.0000 0.0000 0.0000
# 3 32.9146 29.8310 104.9298 0.0000 0.0000 0.0000
# 4 0.0000 0.0000 0.0000 15.5267 0.0000 0.0000
# 5 0.0000 0.0000 0.0000 0.0000 17.3432 0.0000
# 6 0.0000 0.0000 0.0000 0.0000 0.0000 28.2033
#
#
#
# Elastic Compliance Matrix: (Units=1/GPa)
#
#
# Indices 1 2 3 4 5 6 
#
# 1 0.021887 0.001393 -0.007262 0.000000 0.000000 0.000000
# 2 0.001393 0.024897 -0.007515 0.000000 0.000000 0.000000
# 3 -0.007262 -0.007515 0.013945 0.000000 0.000000 0.000000
# 4 0.000000 0.000000 0.000000 0.064405 0.000000 0.000000
# 5 0.000000 0.000000 0.000000 0.000000 0.057659 0.000000
# 6 0.000000 0.000000 0.000000 0.000000 0.000000 0.035457
#
#
# Mechanical properties :
#
#
# Convention : Reuss Voigt Hill
#
# Bulk Modulus (GPa) = 29.44521 38.77460 34.10991
# Shear Modulus (GPa) = 19.50547 21.57187 20.53867
#
# Velocity S-wave (km/s) = 3.12484 3.28620 3.20654
# Velocity P-wave (km/s) = 5.26879 5.81462 5.54842
#
# Compressibility (1/GPa) = 0.03396138
#
# Stress axis : x y z
#
# Youngs Moduli (GPa) = 45.68884 40.16512 71.71280
#
# Poissons Ratio (x) = -0.05595 0.52075
# Poissons Ratio (y) = -0.06364 0.53893
# Poissons Ratio (z) = 0.33177 0.30184
#
# Static dielectric constant tensor:
#      x y z
#    x 1.747700 0.000000 0.000000 
#    y 0.000000 1.739610 0.000000 
#    z 0.000000 0.000000 1.730780 
# 
# From -- ./inp_files/32042.got.cif
#   From: 2010.05.17/outbox.cif.g08.bks.cpg/sg72_17_cif.got.tgz:32042.got - 2010.06.03 17:03:01.
