data_PCOD9527743
_publ_section_title
;
Structure prediction by ZEFSAII (Michael W. Deem and Ramdas Pophale) SiO2 
 PCOD9527743
Probable space group: I B A M
;
_chemical_formula_sum "Si O2"
_cell_formula_units_Z 116
_cell_length_a 23.499953
_cell_length_b 28.717831
_cell_length_c 8.535729
_cell_angle_alpha 90.000000
_cell_angle_beta 90.000000
_cell_angle_gamma 90.000000
_cell_volume 5760.487617
_symmetry_space_group_name_H-M "I B A M"
_symmetry_group_IT_number 72
_symmetry_cell_setting 'orthorhombic'
loop_
_space_group_symop_operation_xyz
x,y,z
-x,-y,z
x,-y,1/2-z
-x,y,1/2-z
-x,-y,-z
x,y,-z
-x,y,1/2+z
x,-y,1/2+z
1/2+x,1/2+y,1/2+z
1/2-x,1/2-y,1/2+z
1/2+x,1/2-y,-z
1/2-x,1/2+y,-z
1/2-x,1/2-y,1/2-z
1/2+x,1/2+y,1/2-z
1/2-x,1/2+y,z
1/2+x,1/2-y,z
loop_
_atom_site_type_symbol
_atom_site_label
_atom_site_fract_x
_atom_site_fract_y
_atom_site_fract_z
Si Si1 0.090765 0.574916 0.189638
Si Si2 0.561688 0.738911 0.688160
Si Si3 0.723279 0.051330 0.686631
Si Si4 0.128342 0.674313 0.813032
Si Si5 0.439267 0.631344 0.813748
Si Si6 0.248361 0.302097 0.812915
Si Si7 0.500000 0.000000 0.750000
Si Si8 0.677477 0.383674 0.313529
O O1 0.157000 0.563004 0.218828
O O2 0.088793 0.629976 0.230128
O O3 0.048841 0.540408 0.283620
O O4 0.079186 0.568364 0.000000
O O5 0.500000 0.753694 0.750000
O O6 0.564205 0.740296 0.500000
O O7 0.604799 0.776225 0.757423
O O8 0.568454 0.685292 0.740940
O O9 0.730277 0.054430 0.500000
O O10 0.770525 0.083582 0.765425
O O11 0.733172 0.000000 0.750000
O O12 0.191467 0.671728 0.742939
O O13 0.133210 0.673107 0.000000
O O14 0.500000 0.614690 0.750000
O O15 0.383371 0.604407 0.758741
O O16 0.441903 0.631710 0.000000
O O17 0.250000 0.250000 0.750000
O O18 0.302158 0.332351 0.758675
O O19 0.248293 0.300519 0.000000
O O20 0.671851 0.383294 0.500000
#
# Coordination Sequence:
#
# PCOD9527743 Si02
#       8
#    16  16  16  16  16  16   4  16
#     4  10  23  40  60  86 117 157 204 260 324 381
#     4  10  21  37  56  83 117 162 210 253 306 367
#     4  11  22  42  66  92 124 160 205 259 318 378
#     4  11  22  38  56  81 118 160 206 260 317 377
#     4  10  21  38  62  90 125 164 204 251 299 361
#     4  11  23  37  57  87 122 163 207 257 315 379
#     4  12  22  44  64  90 120 160 216 276 334 392
#     4  11  23  39  61  92 123 161 208 254 312 377
#
# _framework density 20.137184000000001
#
# number of rings (size 3 to 8) (size 9 to 14) (size 15 to 20)
#    0.000    1.379    2.069    3.517    0.966    5.517 
#    0.000    2.069    0.000    0.414    0.000    2.897 
#    0.000    0.000    0.000    0.000    0.000    0.000 
#
# Total GULP energy -323576.451993 kJ/mol
# GULP energy per Si atom -5578.904345 kJ/mol
# Density = 2.009135 g / cm^3
# Si number density = 20.137184 Si / 1000 Ang^3
#
#
#
# Elastic Constant Matrix: (Units=GPa)
#
#
# Indices 1 2 3 4 5 6 
#
# 1 127.7463 12.9115 12.7021 0.0000 0.0000 0.0000
# 2 12.9115 52.3209 1.8234 0.0000 0.0000 0.0000
# 3 12.7021 1.8234 23.2596 0.0000 0.0000 0.0000
# 4 0.0000 0.0000 0.0000 15.4391 0.0000 0.0000
# 5 0.0000 0.0000 0.0000 0.0000 19.7532 0.0000
# 6 0.0000 0.0000 0.0000 0.0000 0.0000 37.7835
#
#
#
# Elastic Compliance Matrix: (Units=1/GPa)
#
#
# Indices 1 2 3 4 5 6 
#
# 1 0.008468 -0.001934 -0.004473 0.000000 0.000000 0.000000
# 2 -0.001934 0.019607 -0.000481 0.000000 0.000000 0.000000
# 3 -0.004473 -0.000481 0.045473 0.000000 0.000000 0.000000
# 4 0.000000 0.000000 0.000000 0.064771 0.000000 0.000000
# 5 0.000000 0.000000 0.000000 0.000000 0.050625 0.000000
# 6 0.000000 0.000000 0.000000 0.000000 0.000000 0.026467
#
#
# Mechanical properties :
#
#
# Convention : Reuss Voigt Hill
#
# Bulk Modulus (GPa) = 16.72998 28.68898 22.70948
# Shear Modulus (GPa) = 20.07144 26.32114 23.19629
#
# Velocity S-wave (km/s) = 3.16054 3.61929 3.39767
# Velocity P-wave (km/s) = 4.65239 5.63413 5.16663
#
# Compressibility (1/GPa) = 0.05977295
#
# Stress axis : x y z
#
# Youngs Moduli (GPa) = 118.08852 51.00272 21.99092
#
# Poissons Ratio (x) = 0.09863 0.09836
# Poissons Ratio (y) = 0.22837 0.01058
# Poissons Ratio (z) = 0.52820 0.02453
#
# Static dielectric constant tensor:
#      x y z
#    x 1.710300 0.000000 0.000000 
#    y 0.000000 1.745900 0.000000 
#    z 0.000000 0.000000 1.645280 
# 
# From -- ./inp_files/7354.got.cif
#   From: 2010.05.17/outbox.cif.g08.bks.cpg/sg72_4_cif.got.tgz:7354.got - 2010.06.03 17:03:01.
