data_PCOD9527860
_publ_section_title
;
Structure prediction by ZEFSAII (Michael W. Deem and Ramdas Pophale) SiO2 
 PCOD9527860
Probable space group: I B A M
;
_chemical_formula_sum "Si O2"
_cell_formula_units_Z 88
_cell_length_a 9.900805
_cell_length_b 13.267873
_cell_length_c 28.243479
_cell_angle_alpha 90.000000
_cell_angle_beta 90.000000
_cell_angle_gamma 90.000000
_cell_volume 3710.137494
_symmetry_space_group_name_H-M "I B A M"
_symmetry_group_IT_number 72
_symmetry_cell_setting 'orthorhombic'
loop_
_space_group_symop_operation_xyz
x,y,z
-x,-y,z
x,-y,1/2-z
-x,y,1/2-z
-x,-y,-z
x,y,-z
-x,y,1/2+z
x,-y,1/2+z
1/2+x,1/2+y,1/2+z
1/2-x,1/2-y,1/2+z
1/2+x,1/2-y,-z
1/2-x,1/2+y,-z
1/2-x,1/2-y,1/2-z
1/2+x,1/2+y,1/2-z
1/2-x,1/2+y,z
1/2+x,1/2-y,z
loop_
_atom_site_type_symbol
_atom_site_label
_atom_site_fract_x
_atom_site_fract_y
_atom_site_fract_z
Si Si1 0.807774 0.051626 0.151619
Si Si2 0.582564 0.274862 0.053833
Si Si3 0.500000 0.500000 0.071941
Si Si4 0.848636 0.726902 0.380891
Si Si5 0.808580 0.860684 0.798042
Si Si6 0.885633 0.642603 0.787050
O O1 0.861654 0.165097 0.145337
O O2 0.654089 0.073283 0.168794
O O3 0.861028 0.007529 0.102226
O O4 0.864611 0.968420 0.187848
O O5 0.520788 0.388932 0.050230
O O6 0.721993 0.273199 0.082995
O O7 0.478492 0.212327 0.086448
O O8 0.598830 0.237503 0.000000
O O9 0.809897 0.654202 0.337544
O O10 0.898103 0.759755 0.801809
O O11 0.748573 0.861962 0.745754
O O12 0.000000 0.613380 0.750000
#
# Coordination Sequence:
#
# PCOD9527860 Si02
#       6
#    16  16   8  16  16  16
#     4  10  21  38  62  92 126 169 219 263 319 385
#     4  11  22  42  67  96 128 167 220 279 340 403
#     4  10  21  40  67  94 126 174 224 271 327 408
#     4  10  23  39  66  94 126 172 212 270 338 397
#     4  10  21  38  57  86 126 169 214 261 312 383
#     4  10  23  38  60  91 127 173 219 267 318 376
#
# _framework density 23.718798
#
# number of rings (size 3 to 8) (size 9 to 14) (size 15 to 20)
#    0.000    1.818    1.818    1.364    5.091    4.364 
#    0.000    0.909    0.000    1.091    0.000    0.000 
#    0.000    0.000    0.000    0.000    0.000    0.000 
#
# Total GULP energy -245281.794315 kJ/mol
# GULP energy per Si atom -5574.586234 kJ/mol
# Density = 2.366481 g / cm^3
# Si number density = 23.718798 Si / 1000 Ang^3
#
#
#
# Elastic Constant Matrix: (Units=GPa)
#
#
# Indices 1 2 3 4 5 6 
#
# 1 84.2404 23.8596 38.1639 0.0000 0.0000 0.0000
# 2 23.8596 122.4893 29.1262 0.0000 0.0000 0.0000
# 3 38.1639 29.1262 134.8945 0.0000 0.0000 0.0000
# 4 0.0000 0.0000 0.0000 22.4525 0.0000 0.0000
# 5 0.0000 0.0000 0.0000 0.0000 18.1064 0.0000
# 6 0.0000 0.0000 0.0000 0.0000 0.0000 6.1331
#
#
#
# Elastic Compliance Matrix: (Units=1/GPa)
#
#
# Indices 1 2 3 4 5 6 
#
# 1 0.014017 -0.001884 -0.003559 0.000000 0.000000 0.000000
# 2 -0.001884 0.008859 -0.001380 0.000000 0.000000 0.000000
# 3 -0.003559 -0.001380 0.008718 0.000000 0.000000 0.000000
# 4 0.000000 0.000000 0.000000 0.044539 0.000000 0.000000
# 5 0.000000 0.000000 0.000000 0.000000 0.055229 0.000000
# 6 0.000000 0.000000 0.000000 0.000000 0.000000 0.163050
#
#
# Mechanical properties :
#
#
# Convention : Reuss Voigt Hill
#
# Bulk Modulus (GPa) = 55.71512 58.21373 56.96443
# Shear Modulus (GPa) = 15.92158 26.03668 20.97913
#
# Velocity S-wave (km/s) = 2.59369 3.31679 2.97727
# Velocity P-wave (km/s) = 5.70180 6.26615 5.99062
#
# Compressibility (1/GPa) = 0.01794845
#
# Stress axis : x y z
#
# Youngs Moduli (GPa) = 71.34371 112.87859 114.70584
#
# Poissons Ratio (x) = 0.21267 0.40821
# Poissons Ratio (y) = 0.13442 0.15827
# Poissons Ratio (z) = 0.25389 0.15575
#
# Static dielectric constant tensor:
#      x y z
#    x 1.993260 0.000000 0.000000 
#    y 0.000000 1.920770 0.000000 
#    z 0.000000 0.000000 1.899160 
# 
# From -- ./inp_files/48047.got.cif
#   From: 2010.05.17/outbox.cif.g08.bks.cpg/sg72_25_cif.got.tgz:48047.got - 2010.06.03 17:03:01.
