data_PCOD9527712
_publ_section_title
;
Structure prediction by ZEFSAII (Michael W. Deem and Ramdas Pophale) SiO2 
 PCOD9527712
Probable space group: I B A M
;
_chemical_formula_sum "Si O2"
_cell_formula_units_Z 68
_cell_length_a 18.502889
_cell_length_b 9.684274
_cell_length_c 18.195302
_cell_angle_alpha 90.000000
_cell_angle_beta 90.000000
_cell_angle_gamma 90.000000
_cell_volume 3260.362432
_symmetry_space_group_name_H-M "I B A M"
_symmetry_group_IT_number 72
_symmetry_cell_setting 'orthorhombic'
loop_
_space_group_symop_operation_xyz
x,y,z
-x,-y,z
x,-y,1/2-z
-x,y,1/2-z
-x,-y,-z
x,y,-z
-x,y,1/2+z
x,-y,1/2+z
1/2+x,1/2+y,1/2+z
1/2-x,1/2-y,1/2+z
1/2+x,1/2-y,-z
1/2-x,1/2+y,-z
1/2-x,1/2-y,1/2-z
1/2+x,1/2+y,1/2-z
1/2-x,1/2+y,z
1/2+x,1/2-y,z
loop_
_atom_site_type_symbol
_atom_site_label
_atom_site_fract_x
_atom_site_fract_y
_atom_site_fract_z
Si Si1 0.886322 0.302898 0.171927
Si Si2 0.000000 0.500000 0.250000
Si Si3 0.653908 0.295975 0.832117
Si Si4 0.230790 0.511110 0.338291
Si Si5 0.993710 0.835770 0.917002
O O1 0.946795 0.405927 0.203435
O O2 0.854776 0.221069 0.243208
O O3 0.826709 0.398396 0.133962
O O4 0.930357 0.211583 0.115968
O O5 0.691877 0.440876 0.853351
O O6 0.574606 0.289392 0.867555
O O7 0.704499 0.165746 0.856614
O O8 0.222548 0.500000 0.250000
O O9 0.982889 0.784878 0.000000
O O10 0.000000 0.000000 0.917257
#
# Coordination Sequence:
#
# PCOD9527712 Si02
#       5
#    16   4  16  16  16
#     4  11  19  38  65  91 128 160 208 269 321 366
#     4  12  16  36  60  96 124 152 204 274 312 376
#     4  11  22  39  64  97 127 163 208 262 320 373
#     4  10  21  36  62  99 128 156 202 266 316 381
#     4  11  26  43  61  90 129 171 218 262 310 377
#
# _framework density 20.856576
#
# number of rings (size 3 to 8) (size 9 to 14) (size 15 to 20)
#    0.000    1.176    5.882    2.824    6.588    0.941 
#    0.000    7.647    0.000    0.000    0.000    0.000 
#    0.000    0.000    0.000    0.000    0.000    0.000 
#
# Total GULP energy -189774.966027 kJ/mol
# GULP energy per Si atom -5581.616648 kJ/mol
# Density = 2.080911 g / cm^3
# Si number density = 20.856576 Si / 1000 Ang^3
#
#
#
# Elastic Constant Matrix: (Units=GPa)
#
#
# Indices 1 2 3 4 5 6 
#
# 1 90.2280 40.1130 2.3340 0.0000 0.0000 0.0000
# 2 40.1130 89.3102 24.5666 0.0000 0.0000 0.0000
# 3 2.3340 24.5666 34.1410 0.0000 0.0000 0.0000
# 4 0.0000 0.0000 0.0000 -1.1251 0.0000 0.0000
# 5 0.0000 0.0000 0.0000 0.0000 2.5747 0.0000
# 6 0.0000 0.0000 0.0000 0.0000 0.0000 40.7906
#
#
#
# Elastic Compliance Matrix: (Units=1/GPa)
#
#
# Indices 1 2 3 4 5 6 
#
# 1 0.014399 -0.007726 0.004575 0.000000 0.000000 0.000000
# 2 -0.007726 0.018105 -0.012500 0.000000 0.000000 0.000000
# 3 0.004575 -0.012500 0.037972 0.000000 0.000000 0.000000
# 4 0.000000 0.000000 0.000000 -0.888793 0.000000 0.000000
# 5 0.000000 0.000000 0.000000 0.000000 0.388391 0.000000
# 6 0.000000 0.000000 0.000000 0.000000 0.000000 0.024515
#
#
# Mechanical properties :
#
#
# Convention : Reuss Voigt Hill
#
# Bulk Modulus (GPa) = 25.52642 38.63402 32.08022
# Shear Modulus (GPa) = -13.84846 18.22575 2.18864
#
# Velocity S-wave (km/s) = -2.57959 2.95932 1.02550
# Velocity P-wave (km/s) = 1.84207 5.49915 4.10085
#
# Compressibility (1/GPa) = 0.03917510
#
# Stress axis : x y z
#
# Youngs Moduli (GPa) = 69.44755 55.23292 26.33537
#
# Poissons Ratio (x) = 0.42671 -0.12048
# Poissons Ratio (y) = 0.53653 0.32918
# Poissons Ratio (z) = -0.31771 0.69039
#
# Static dielectric constant tensor:
#      x y z
#    x 1.785960 0.000000 0.000000 
#    y 0.000000 1.799850 0.000000 
#    z 0.000000 0.000000 1.731870 
# 
# From -- ./inp_files/27763.got.cif
#   From: 2010.05.17/outbox.cif.g08.bks.cpg/sg72_14_cif.got.tgz:27763.got - 2010.06.03 17:03:01.
