data_PCOD9527157
_publ_section_title
;
Structure prediction by ZEFSAII (Michael W. Deem and Ramdas Pophale) SiO2 
 PCOD9527157
Probable space group: I B A M
;
_chemical_formula_sum "Si O2"
_cell_formula_units_Z 56
_cell_length_a 18.083129
_cell_length_b 8.789931
_cell_length_c 18.535842
_cell_angle_alpha 90.000000
_cell_angle_beta 90.000000
_cell_angle_gamma 90.000000
_cell_volume 2946.262006
_symmetry_space_group_name_H-M "I B A M"
_symmetry_group_IT_number 72
_symmetry_cell_setting 'orthorhombic'
loop_
_space_group_symop_operation_xyz
x,y,z
-x,-y,z
x,-y,1/2-z
-x,y,1/2-z
-x,-y,-z
x,y,-z
-x,y,1/2+z
x,-y,1/2+z
1/2+x,1/2+y,1/2+z
1/2-x,1/2-y,1/2+z
1/2+x,1/2-y,-z
1/2-x,1/2+y,-z
1/2-x,1/2-y,1/2-z
1/2+x,1/2+y,1/2-z
1/2-x,1/2+y,z
1/2+x,1/2-y,z
loop_
_atom_site_type_symbol
_atom_site_label
_atom_site_fract_x
_atom_site_fract_y
_atom_site_fract_z
Si Si1 0.335277 0.015759 0.832640
Si Si2 0.375719 0.521549 0.500000
Si Si3 0.484843 0.748076 0.000000
Si Si4 0.265360 0.298228 0.082677
Si Si5 0.500000 0.000000 0.878464
O O1 0.302222 0.165640 0.870932
O O2 0.423995 0.021935 0.835978
O O3 0.310588 0.000000 0.750000
O O4 0.304303 0.873315 0.878554
O O5 0.413275 0.358742 0.500000
O O6 0.442957 0.641863 0.500000
O O7 0.324709 0.565412 0.431638
O O8 0.488271 0.855836 0.930718
O O9 0.250751 0.244236 0.000000
#
# Coordination Sequence:
#
# PCOD9527157 Si02
#       5
#    16   8   8  16   8
#     4  12  25  42  61  93 132 169 207 267 335 388
#     4   9  20  38  64  96 125 150 225 266 308 366
#     4  10  20  36  66  97 123 167 210 279 305 366
#     4  10  23  41  65  93 123 164 222 264 314 389
#     4  11  23  38  64  92 130 170 218 254 328 388
#
# _framework density 19.007135000000002
#
# number of rings (size 3 to 8) (size 9 to 14) (size 15 to 20)
#    0.857    0.571    2.857    2.143   10.000    0.000 
#    0.000    0.000    0.000    0.000    0.000    0.000 
#    0.000    0.000    0.000    0.000    0.000    0.000 
#
# Total GULP energy -156304.763875 kJ/mol
# GULP energy per Si atom -5582.312996 kJ/mol
# Density = 1.896387 g / cm^3
# Si number density = 19.007135 Si / 1000 Ang^3
#
#
#
# Elastic Constant Matrix: (Units=GPa)
#
#
# Indices 1 2 3 4 5 6 
#
# 1 119.5967 47.1730 39.7378 0.0000 0.0000 0.0000
# 2 47.1730 97.2562 49.5029 0.0000 0.0000 0.0000
# 3 39.7378 49.5029 136.5274 0.0000 0.0000 0.0000
# 4 0.0000 0.0000 0.0000 20.0469 0.0000 0.0000
# 5 0.0000 0.0000 0.0000 0.0000 1.8092 0.0000
# 6 0.0000 0.0000 0.0000 0.0000 0.0000 42.4380
#
#
#
# Elastic Compliance Matrix: (Units=1/GPa)
#
#
# Indices 1 2 3 4 5 6 
#
# 1 0.010583 -0.004372 -0.001495 0.000000 0.000000 0.000000
# 2 -0.004372 0.014415 -0.003954 0.000000 0.000000 0.000000
# 3 -0.001495 -0.003954 0.009193 0.000000 0.000000 0.000000
# 4 0.000000 0.000000 0.000000 0.049883 0.000000 0.000000
# 5 0.000000 0.000000 0.000000 0.000000 0.552745 0.000000
# 6 0.000000 0.000000 0.000000 0.000000 0.000000 0.023564
#
#
# Mechanical properties :
#
#
# Convention : Reuss Voigt Hill
#
# Bulk Modulus (GPa) = 68.73374 69.57866 69.15620
# Shear Modulus (GPa) = 7.30060 27.32324 17.31192
#
# Velocity S-wave (km/s) = 1.96197 3.79558 3.02124
# Velocity P-wave (km/s) = 6.43218 7.47628 6.97380
#
# Compressibility (1/GPa) = 0.01454890
#
# Stress axis : x y z
#
# Youngs Moduli (GPa) = 94.49431 69.36994 108.77325
#
# Poissons Ratio (x) = 0.30329 0.16261
# Poissons Ratio (y) = 0.41314 0.43012
# Poissons Ratio (z) = 0.14126 0.27431
#
# Static dielectric constant tensor:
#      x y z
#    x 1.674770 0.000000 0.000000 
#    y 0.000000 1.672040 0.000000 
#    z 0.000000 0.000000 1.626470 
# 
# From -- ./inp_files/31129.got.cif
#   From: 2010.05.17/outbox.cif.g08.bks.cpg/sg72_16_cif.got.tgz:31129.got - 2010.06.03 17:03:01.
