data_PCOD9527309
_publ_section_title
;
Structure prediction by ZEFSAII (Michael W. Deem and Ramdas Pophale) SiO2 
 PCOD9527309
Probable space group: I B A M
;
_chemical_formula_sum "Si O2"
_cell_formula_units_Z 64
_cell_length_a 14.747097
_cell_length_b 10.469185
_cell_length_c 19.243497
_cell_angle_alpha 90.000000
_cell_angle_beta 90.000000
_cell_angle_gamma 90.000000
_cell_volume 2971.005170
_symmetry_space_group_name_H-M "I B A M"
_symmetry_group_IT_number 72
_symmetry_cell_setting 'orthorhombic'
loop_
_space_group_symop_operation_xyz
x,y,z
-x,-y,z
x,-y,1/2-z
-x,y,1/2-z
-x,-y,-z
x,y,-z
-x,y,1/2+z
x,-y,1/2+z
1/2+x,1/2+y,1/2+z
1/2-x,1/2-y,1/2+z
1/2+x,1/2-y,-z
1/2-x,1/2+y,-z
1/2-x,1/2-y,1/2-z
1/2+x,1/2+y,1/2-z
1/2-x,1/2+y,z
1/2+x,1/2-y,z
loop_
_atom_site_type_symbol
_atom_site_label
_atom_site_fract_x
_atom_site_fract_y
_atom_site_fract_z
Si Si1 0.902308 0.616474 0.712567
Si Si2 0.338144 0.980401 0.577710
Si Si3 0.668681 0.283350 0.079785
Si Si4 0.104907 0.865841 0.727498
O O1 0.852526 0.500000 0.750000
O O2 0.907645 0.575262 0.633554
O O3 0.855247 0.749854 0.727355
O O4 0.000000 0.624579 0.750000
O O5 0.374750 0.973349 0.500000
O O6 0.253876 0.881174 0.582237
O O7 0.313088 0.130437 0.589796
O O8 0.610629 0.329424 0.146245
O O9 0.631903 0.295350 0.000000
O O10 0.000000 0.873801 0.750000
O O11 0.146275 0.000000 0.750000
#
# Coordination Sequence:
#
# PCOD9527309 Si02
#       4
#    16  16  16  16
#     4  10  20  38  60  85 121 152 196 250 292 348
#     4  10  22  39  60  89 121 158 198 242 299 357
#     4  10  22  40  61  87 122 159 197 243 298 357
#     4  10  22  40  60  87 121 157 201 246 296 355
#
# _framework density 21.541532
#
# number of rings (size 3 to 8) (size 9 to 14) (size 15 to 20)
#    0.000    2.000    2.500    0.000    3.500    2.000 
#    0.000   10.000    0.000    0.000    0.000    0.000 
#    0.000    0.000    0.000    0.000    0.000    0.000 
#
# Total GULP energy -178244.778409 kJ/mol
# GULP energy per Si atom -5570.149325 kJ/mol
# Density = 2.149250 g / cm^3
# Si number density = 21.541532 Si / 1000 Ang^3
#
#
#
# Elastic Constant Matrix: (Units=GPa)
#
#
# Indices 1 2 3 4 5 6 
#
# 1 68.9102 22.3953 53.1289 0.0000 0.0000 0.0000
# 2 22.3953 232.1377 87.0821 0.0000 0.0000 0.0000
# 3 53.1289 87.0821 217.6772 0.0000 0.0000 0.0000
# 4 0.0000 0.0000 0.0000 34.4966 0.0000 0.0000
# 5 0.0000 0.0000 0.0000 0.0000 39.0719 0.0000
# 6 0.0000 0.0000 0.0000 0.0000 0.0000 15.5586
#
#
#
# Elastic Compliance Matrix: (Units=1/GPa)
#
#
# Indices 1 2 3 4 5 6 
#
# 1 0.017877 -0.000103 -0.004322 0.000000 0.000000 0.000000
# 2 -0.000103 0.005069 -0.002003 0.000000 0.000000 0.000000
# 3 -0.004322 -0.002003 0.006450 0.000000 0.000000 0.000000
# 4 0.000000 0.000000 0.000000 0.028988 0.000000 0.000000
# 5 0.000000 0.000000 0.000000 0.000000 0.025594 0.000000
# 6 0.000000 0.000000 0.000000 0.000000 0.000000 0.064273
#
#
# Mechanical properties :
#
#
# Convention : Reuss Voigt Hill
#
# Bulk Modulus (GPa) = 60.45805 93.77083 77.11444
# Shear Modulus (GPa) = 30.00814 41.56666 35.78740
#
# Velocity S-wave (km/s) = 3.73639 4.39749 4.08035
# Velocity P-wave (km/s) = 6.83673 8.33119 7.62068
#
# Compressibility (1/GPa) = 0.01654039
#
# Stress axis : x y z
#
# Youngs Moduli (GPa) = 55.93631 197.27705 155.03869
#
# Poissons Ratio (x) = 0.02040 0.67008
# Poissons Ratio (y) = 0.00578 0.31049
# Poissons Ratio (z) = 0.24176 0.39507
#
# Static dielectric constant tensor:
#      x y z
#    x 1.713570 0.000000 0.000000 
#    y 0.000000 1.948120 0.000000 
#    z 0.000000 0.000000 1.848940 
# 
# From -- ./inp_files/30137.got.cif
#   From: 2010.05.17/outbox.cif.g08.bks.cpg/sg72_16_cif.got.tgz:30137.got - 2010.06.03 17:03:01.
