data_PCOD9527115
_publ_section_title
;
Structure prediction by ZEFSAII (Michael W. Deem and Ramdas Pophale) SiO2 
 PCOD9527115
Probable space group: I B A M
;
_chemical_formula_sum "Si O2"
_cell_formula_units_Z 80
_cell_length_a 9.641971
_cell_length_b 24.631316
_cell_length_c 14.865515
_cell_angle_alpha 90.000000
_cell_angle_beta 90.000000
_cell_angle_gamma 90.000000
_cell_volume 3530.477079
_symmetry_space_group_name_H-M "I B A M"
_symmetry_group_IT_number 72
_symmetry_cell_setting 'orthorhombic'
loop_
_space_group_symop_operation_xyz
x,y,z
-x,-y,z
x,-y,1/2-z
-x,y,1/2-z
-x,-y,-z
x,y,-z
-x,y,1/2+z
x,-y,1/2+z
1/2+x,1/2+y,1/2+z
1/2-x,1/2-y,1/2+z
1/2+x,1/2-y,-z
1/2-x,1/2+y,-z
1/2-x,1/2-y,1/2-z
1/2+x,1/2+y,1/2-z
1/2-x,1/2+y,z
1/2+x,1/2-y,z
loop_
_atom_site_type_symbol
_atom_site_label
_atom_site_fract_x
_atom_site_fract_y
_atom_site_fract_z
Si Si1 0.822355 0.418892 0.394795
Si Si2 0.141271 0.171220 0.704107
Si Si3 0.622775 0.098553 0.603107
Si Si4 0.859014 0.973967 0.104550
Si Si5 0.618190 0.786942 0.173145
O O1 0.832626 0.402986 0.500000
O O2 0.728582 0.374515 0.345351
O O3 0.748717 0.476651 0.392113
O O4 0.978297 0.422651 0.357080
O O5 0.235613 0.198023 0.781375
O O6 0.111963 0.224583 0.642032
O O7 0.000000 0.151661 0.750000
O O8 0.628104 0.079242 0.500000
O O9 0.603397 0.163320 0.605417
O O10 0.767789 0.076050 0.643608
O O11 0.896049 0.959456 0.000000
O O12 0.000000 0.000000 0.143935
O O13 0.500000 0.792299 0.250000
#
# Coordination Sequence:
#
# PCOD9527115 Si02
#       5
#    16  16  16  16  16
#     4  10  20  37  60  85 114 151 197 242 289 353
#     4  10  22  37  59  84 116 158 192 237 295 351
#     4  10  20  36  61  86 112 152 198 242 290 352
#     4   9  19  35  56  84 115 147 184 235 297 347
#     4  10  20  39  59  81 115 155 193 234 296 358
#
# _framework density 22.659825999999999
#
# number of rings (size 3 to 8) (size 9 to 14) (size 15 to 20)
#    0.000    2.200    2.000    0.600    2.800    3.200 
#    0.000    1.000    0.000    0.000    0.000    0.000 
#    0.000    0.000    0.000    0.000    0.000    0.000 
#
# Total GULP energy -223064.638190 kJ/mol
# GULP energy per Si atom -5576.615955 kJ/mol
# Density = 2.260825 g / cm^3
# Si number density = 22.659826 Si / 1000 Ang^3
#
#
#
# Elastic Constant Matrix: (Units=GPa)
#
#
# Indices 1 2 3 4 5 6 
#
# 1 151.3217 25.4158 25.1374 0.0000 0.0000 0.0000
# 2 25.4158 101.6382 19.5196 0.0000 0.0000 0.0000
# 3 25.1374 19.5196 45.0532 0.0001 0.0000 0.0000
# 4 0.0000 0.0000 0.0001 29.7457 0.0000 0.0000
# 5 0.0000 0.0000 0.0000 0.0000 24.2355 0.0000
# 6 0.0000 0.0000 0.0000 0.0000 0.0000 40.3628
#
#
#
# Elastic Compliance Matrix: (Units=1/GPa)
#
#
# Indices 1 2 3 4 5 6 
#
# 1 0.007406 -0.001154 -0.003632 0.000000 0.000000 0.000000
# 2 -0.001154 0.010912 -0.004083 0.000000 0.000000 0.000000
# 3 -0.003632 -0.004083 0.025992 0.000000 0.000000 0.000000
# 4 0.000000 0.000000 0.000000 0.033618 0.000000 0.000000
# 5 0.000000 0.000000 0.000000 0.000000 0.041262 0.000000
# 6 0.000000 0.000000 0.000000 0.000000 0.000000 0.024775
#
#
# Mechanical properties :
#
#
# Convention : Reuss Voigt Hill
#
# Bulk Modulus (GPa) = 37.63710 48.68428 43.16069
# Shear Modulus (GPa) = 29.31517 34.06482 31.69000
#
# Velocity S-wave (km/s) = 3.60072 3.88146 3.74372
# Velocity P-wave (km/s) = 5.82516 6.45129 6.14621
#
# Compressibility (1/GPa) = 0.02656953
#
# Stress axis : x y z
#
# Youngs Moduli (GPa) = 135.03221 91.64463 38.47406
#
# Poissons Ratio (x) = 0.10579 0.13973
# Poissons Ratio (y) = 0.15588 0.15711
# Poissons Ratio (z) = 0.49041 0.37423
#
# Static dielectric constant tensor:
#      x y z
#    x 1.900640 0.000000 0.000000 
#    y 0.000000 1.911560 0.000000 
#    z 0.000000 0.000000 1.864990 
# 
# From -- ./inp_files/28127.got.cif
#   From: 2010.05.17/outbox.cif.g08.bks.cpg/sg72_15_cif.got.tgz:28127.got - 2010.06.03 17:03:01.
