data_PCOD9527658
_publ_section_title
;
Structure prediction by ZEFSAII (Michael W. Deem and Ramdas Pophale) SiO2 
 PCOD9527658
Probable space group: I B A M
;
_chemical_formula_sum "Si O2"
_cell_formula_units_Z 92
_cell_length_a 19.688718
_cell_length_b 24.435444
_cell_length_c 9.480802
_cell_angle_alpha 90.000000
_cell_angle_beta 90.000000
_cell_angle_gamma 90.000000
_cell_volume 4561.238171
_symmetry_space_group_name_H-M "I B A M"
_symmetry_group_IT_number 72
_symmetry_cell_setting 'orthorhombic'
loop_
_space_group_symop_operation_xyz
x,y,z
-x,-y,z
x,-y,1/2-z
-x,y,1/2-z
-x,-y,-z
x,y,-z
-x,y,1/2+z
x,-y,1/2+z
1/2+x,1/2+y,1/2+z
1/2-x,1/2-y,1/2+z
1/2+x,1/2-y,-z
1/2-x,1/2+y,-z
1/2-x,1/2-y,1/2-z
1/2+x,1/2+y,1/2-z
1/2-x,1/2+y,z
1/2+x,1/2-y,z
loop_
_atom_site_type_symbol
_atom_site_label
_atom_site_fract_x
_atom_site_fract_y
_atom_site_fract_z
Si Si1 0.890687 0.818977 0.832615
Si Si2 0.286373 0.946963 0.664809
Si Si3 0.604787 0.803244 0.337413
Si Si4 0.938266 0.408065 0.836999
Si Si5 0.743716 0.339902 0.666125
Si Si6 0.500000 0.500000 0.500000
Si Si7 0.000000 0.910731 0.250000
O O1 0.921823 0.758103 0.816642
O O2 0.823029 0.816829 0.738918
O O3 0.937627 0.869131 0.783022
O O4 0.875309 0.825598 0.000000
O O5 0.266568 0.947848 0.500000
O O6 0.368095 0.941170 0.671544
O O7 0.258206 0.895056 0.747404
O O8 0.264007 0.000000 0.750000
O O9 0.591051 0.819844 0.500000
O O10 0.576599 0.848668 0.231851
O O11 0.687077 0.804732 0.321898
O O12 0.000000 0.433018 0.750000
O O13 0.956472 0.402608 0.000000
O O14 0.732872 0.350029 0.500000
O O15 0.510796 0.451873 0.620824
#
# Coordination Sequence:
#
# PCOD9527658 Si02
#       7
#    16  16  16  16  16   4   8
#     4  11  23  40  63  94 123 156 203 248 300 366
#     4  10  21  39  59  83 116 153 203 253 297 351
#     4   9  20  38  60  88 128 161 196 247 298 360
#     4  10  21  36  56  84 118 162 198 242 301 353
#     4  10  21  38  61  90 124 163 198 244 306 361
#     4  10  24  50  68  82 124 158 200 254 320 362
#     4  11  24  46  68  90 118 160 201 258 310 364
#
# _framework density 20.169962000000002
#
# number of rings (size 3 to 8) (size 9 to 14) (size 15 to 20)
#    0.000    1.913    0.870    2.087    2.435    3.826 
#    3.130    1.739    0.000    0.000    0.000    0.000 
#    0.000    0.000    0.000    0.000    0.000    0.000 
#
# Total GULP energy -256264.008417 kJ/mol
# GULP energy per Si atom -5570.956705 kJ/mol
# Density = 2.012405 g / cm^3
# Si number density = 20.169962 Si / 1000 Ang^3
#
#
#
# Elastic Constant Matrix: (Units=GPa)
#
#
# Indices 1 2 3 4 5 6 
#
# 1 35.9835 -5.2947 30.4743 0.0000 0.0000 0.0000
# 2 -5.2947 113.9838 63.4490 0.0000 0.0000 0.0000
# 3 30.4743 63.4490 178.6652 0.0000 0.0000 0.0000
# 4 0.0000 0.0000 0.0000 28.1961 0.0000 0.0000
# 5 0.0000 0.0000 0.0000 0.0000 4.9524 0.0000
# 6 0.0000 0.0000 0.0000 0.0000 0.0000 -3.0518
#
#
#
# Elastic Compliance Matrix: (Units=1/GPa)
#
#
# Indices 1 2 3 4 5 6 
#
# 1 0.035784 0.006306 -0.008343 0.000000 0.000000 0.000000
# 2 0.006306 0.012046 -0.005354 0.000000 0.000000 0.000000
# 3 -0.008343 -0.005354 0.008921 0.000000 0.000000 0.000000
# 4 0.000000 0.000000 0.000000 0.035466 0.000000 0.000000
# 5 0.000000 0.000000 0.000000 0.000000 0.201924 0.000000
# 6 0.000000 0.000000 0.000000 0.000000 0.000000 -0.327678
#
#
# Mechanical properties :
#
#
# Convention : Reuss Voigt Hill
#
# Bulk Modulus (GPa) = 23.82591 56.20997 40.01794
# Shear Modulus (GPa) = -1049.39749 22.01959 -513.68895
#
# Velocity S-wave (km/s) = -22.83433 3.30768 -15.97602
# Velocity P-wave (km/s) = 26.14136 6.52045 17.90048
#
# Compressibility (1/GPa) = 0.04197111
#
# Stress axis : x y z
#
# Youngs Moduli (GPa) = 27.94526 83.01368 112.09067
#
# Poissons Ratio (x) = -0.52352 0.93519
# Poissons Ratio (y) = -0.17624 0.60009
# Poissons Ratio (z) = 0.23315 0.44442
#
# Static dielectric constant tensor:
#      x y z
#    x 1.749130 0.000000 0.000000 
#    y 0.000000 1.699940 0.000000 
#    z 0.000000 0.000000 1.672060 
# 
# From -- ./inp_files/6048.got.cif
#   From: 2010.05.17/outbox.cif.g08.bks.cpg/sg72_4_cif.got.tgz:6048.got - 2010.06.03 17:03:01.
