data_PCOD9527069
_publ_section_title
;
Structure prediction by ZEFSAII (Michael W. Deem and Ramdas Pophale) SiO2 
 PCOD9527069
Probable space group: I B A M
;
_chemical_formula_sum "Si O2"
_cell_formula_units_Z 96
_cell_length_a 14.814783
_cell_length_b 21.055166
_cell_length_c 16.094647
_cell_angle_alpha 90.000000
_cell_angle_beta 90.000000
_cell_angle_gamma 90.000000
_cell_volume 5020.366468
_symmetry_space_group_name_H-M "I B A M"
_symmetry_group_IT_number 72
_symmetry_cell_setting 'orthorhombic'
loop_
_space_group_symop_operation_xyz
x,y,z
-x,-y,z
x,-y,1/2-z
-x,y,1/2-z
-x,-y,-z
x,y,-z
-x,y,1/2+z
x,-y,1/2+z
1/2+x,1/2+y,1/2+z
1/2-x,1/2-y,1/2+z
1/2+x,1/2-y,-z
1/2-x,1/2+y,-z
1/2-x,1/2-y,1/2-z
1/2+x,1/2+y,1/2-z
1/2-x,1/2+y,z
1/2+x,1/2-y,z
loop_
_atom_site_type_symbol
_atom_site_label
_atom_site_fract_x
_atom_site_fract_y
_atom_site_fract_z
Si Si1 0.512064 0.303252 0.344521
Si Si2 0.946171 0.938692 0.098085
Si Si3 0.204709 0.836229 0.903658
Si Si4 0.268786 0.483291 0.905908
Si Si5 0.500000 0.109004 0.750000
Si Si6 0.413897 0.183922 0.596590
Si Si7 0.858500 0.500000 0.250000
O O1 0.500000 0.283583 0.250000
O O2 0.472667 0.373934 0.357764
O O3 0.619143 0.303670 0.361533
O O4 0.454665 0.254713 0.400074
O O5 0.842847 0.961426 0.103294
O O6 0.969212 0.930902 0.000000
O O7 0.000000 0.000000 0.130445
O O8 0.189829 0.912414 0.898321
O O9 0.307677 0.820358 0.877843
O O10 0.199877 0.818294 0.000000
O O11 0.199126 0.488023 0.832002
O O12 0.231161 0.486789 0.000000
O O13 0.471234 0.146810 0.666821
O O14 0.582124 0.061676 0.731544
O O15 0.419722 0.160505 0.500000
#
# Coordination Sequence:
#
# PCOD9527069 Si02
#       7
#    16  16  16  16   8  16   8
#     4  12  25  39  64  98 132 172 216 273 331 394
#     4  10  20  36  59  88 126 165 208 260 313 379
#     4  10  21  42  68  90 125 177 219 261 328 394
#     4  10  21  38  63  93 127 171 210 257 325 389
#     4  11  24  44  64  98 123 166 218 274 333 378
#     4  11  24  46  69  91 130 177 225 271 324 396
#     4  11  24  40  67  92 134 160 207 282 322 391
#
# _framework density 19.122109999999999
#
# number of rings (size 3 to 8) (size 9 to 14) (size 15 to 20)
#    0.000    1.333    4.167    1.500    2.333    1.667 
#    3.000    1.667    0.000    0.000    0.000    0.000 
#    0.000    0.000    0.000    0.000    0.000    0.000 
#
# Total GULP energy -267787.921731 kJ/mol
# GULP energy per Si atom -5578.915036 kJ/mol
# Density = 1.907859 g / cm^3
# Si number density = 19.122110 Si / 1000 Ang^3
#
#
#
# Elastic Constant Matrix: (Units=GPa)
#
#
# Indices 1 2 3 4 5 6 
#
# 1 118.3044 41.3380 71.0204 0.0000 0.0000 0.0000
# 2 41.3380 78.3584 25.5683 0.0000 0.0000 0.0000
# 3 71.0204 25.5683 90.8528 0.0001 0.0000 0.0000
# 4 0.0000 0.0000 0.0001 29.6786 0.0000 0.0000
# 5 0.0000 0.0000 0.0000 0.0000 44.0135 0.0000
# 6 0.0000 0.0000 0.0000 0.0000 0.0000 31.3081
#
#
#
# Elastic Compliance Matrix: (Units=1/GPa)
#
#
# Indices 1 2 3 4 5 6 
#
# 1 0.017736 -0.005321 -0.012367 0.000000 0.000000 0.000000
# 2 -0.005321 0.015649 -0.000244 0.000000 0.000000 0.000000
# 3 -0.012367 -0.000244 0.020743 0.000000 0.000000 0.000000
# 4 0.000000 0.000000 0.000000 0.033694 0.000000 0.000000
# 5 0.000000 0.000000 0.000000 0.000000 0.022720 0.000000
# 6 0.000000 0.000000 0.000000 0.000000 0.000000 0.031941
#
#
# Mechanical properties :
#
#
# Convention : Reuss Voigt Hill
#
# Bulk Modulus (GPa) = 54.75604 62.59655 58.67630
# Shear Modulus (GPa) = 27.10958 30.97262 29.04110
#
# Velocity S-wave (km/s) = 3.76933 4.02895 3.90130
# Velocity P-wave (km/s) = 6.90224 7.37899 7.14459
#
# Compressibility (1/GPa) = 0.01826283
#
# Stress axis : x y z
#
# Youngs Moduli (GPa) = 56.38124 63.90235 48.20905
#
# Poissons Ratio (x) = 0.34005 0.59621
# Poissons Ratio (y) = 0.30003 0.01177
# Poissons Ratio (z) = 0.69727 0.01560
#
# Static dielectric constant tensor:
#      x y z
#    x 1.686420 0.000000 0.000000 
#    y 0.000000 1.670670 0.000000 
#    z 0.000000 0.000000 1.661130 
# 
# From -- ./inp_files/21905.got.cif
#   From: 2010.05.17/outbox.cif.g08.bks.cpg/sg72_11_cif.got.tgz:21905.got - 2010.06.03 17:03:01.
