data_PCOD9527831
_publ_section_title
;
Structure prediction by ZEFSAII (Michael W. Deem and Ramdas Pophale) SiO2 
 PCOD9527831
Probable space group: I B A M
;
_chemical_formula_sum "Si O2"
_cell_formula_units_Z 68
_cell_length_a 14.189958
_cell_length_b 15.464990
_cell_length_c 12.596646
_cell_angle_alpha 90.000000
_cell_angle_beta 90.000000
_cell_angle_gamma 90.000000
_cell_volume 2764.303211
_symmetry_space_group_name_H-M "I B A M"
_symmetry_group_IT_number 72
_symmetry_cell_setting 'orthorhombic'
loop_
_space_group_symop_operation_xyz
x,y,z
-x,-y,z
x,-y,1/2-z
-x,y,1/2-z
-x,-y,-z
x,y,-z
-x,y,1/2+z
x,-y,1/2+z
1/2+x,1/2+y,1/2+z
1/2-x,1/2-y,1/2+z
1/2+x,1/2-y,-z
1/2-x,1/2+y,-z
1/2-x,1/2-y,1/2-z
1/2+x,1/2+y,1/2-z
1/2-x,1/2+y,z
1/2+x,1/2-y,z
loop_
_atom_site_type_symbol
_atom_site_label
_atom_site_fract_x
_atom_site_fract_y
_atom_site_fract_z
Si Si1 0.160080 0.914764 0.617339
Si Si2 0.901751 0.296848 0.798888
Si Si3 0.870387 0.475253 0.875109
Si Si4 0.729567 0.784972 0.383585
Si Si5 0.500000 0.500000 0.250000
O O1 0.125278 0.933252 0.500000
O O2 0.256616 0.968465 0.631341
O O3 0.192265 0.814353 0.620119
O O4 0.073764 0.938407 0.690306
O O5 0.912083 0.377330 0.877011
O O6 0.838826 0.222603 0.852742
O O7 0.834686 0.330412 0.702498
O O8 0.000000 0.269622 0.750000
O O9 0.899339 0.500000 0.750000
O O10 0.890295 0.508289 0.000000
O O11 0.718250 0.820129 0.500000
#
# Coordination Sequence:
#
# PCOD9527831 Si02
#       5
#    16  16  16  16   4
#     4   9  19  34  53  82 120 158 197 250 305 363
#     4  10  21  37  62  87 116 158 208 257 313 373
#     4  10  21  41  62  86 123 164 202 255 317 370
#     4   9  20  39  58  82 122 160 199 257 315 366
#     4  12  18  28  60  86 118 156 212 244 306 376
#
# _framework density 24.599328
#
# number of rings (size 3 to 8) (size 9 to 14) (size 15 to 20)
#    0.000    2.353    1.176    2.471    1.647    3.294 
#    0.000    1.176    0.000    0.000    0.000    0.000 
#    0.000    0.000    0.000    0.000    0.000    0.000 
#
# Total GULP energy -189435.632173 kJ/mol
# GULP energy per Si atom -5571.636240 kJ/mol
# Density = 2.454334 g / cm^3
# Si number density = 24.599328 Si / 1000 Ang^3
#
#
#
# Elastic Constant Matrix: (Units=GPa)
#
#
# Indices 1 2 3 4 5 6 
#
# 1 156.3184 35.9135 31.1774 0.0000 0.0000 0.0000
# 2 35.9135 42.8342 30.8970 0.0000 0.0000 0.0000
# 3 31.1774 30.8970 188.9898 0.0000 0.0000 0.0000
# 4 0.0000 0.0000 0.0000 22.1976 0.0000 0.0000
# 5 0.0000 0.0000 0.0000 0.0000 9.1495 0.0000
# 6 0.0000 0.0000 0.0000 0.0000 0.0000 -5.4646
#
#
#
# Elastic Compliance Matrix: (Units=1/GPa)
#
#
# Indices 1 2 3 4 5 6 
#
# 1 0.007934 -0.006471 -0.000251 0.000000 0.000000 0.000000
# 2 -0.006471 0.031745 -0.004122 0.000000 0.000000 0.000000
# 3 -0.000251 -0.004122 0.006007 0.000000 0.000000 0.000000
# 4 0.000000 0.000000 0.000000 0.045050 0.000000 0.000000
# 5 0.000000 0.000000 0.000000 0.000000 0.109296 0.000000
# 6 0.000000 0.000000 0.000000 0.000000 0.000000 -0.182996
#
#
# Mechanical properties :
#
#
# Convention : Reuss Voigt Hill
#
# Bulk Modulus (GPa) = 41.67210 64.90202 53.28706
# Shear Modulus (GPa) = 107.01432 24.52013 65.76723
#
# Velocity S-wave (km/s) = 6.60283 3.16061 5.17624
# Velocity P-wave (km/s) = 8.66643 6.30557 7.57849
#
# Compressibility (1/GPa) = 0.02399687
#
# Stress axis : x y z
#
# Youngs Moduli (GPa) = 126.04067 31.50114 166.48300
#
# Poissons Ratio (x) = 0.20385 0.04178
# Poissons Ratio (y) = 0.81562 0.68629
# Poissons Ratio (z) = 0.03163 0.12986
#
# Static dielectric constant tensor:
#      x y z
#    x 1.883770 0.000000 0.000000 
#    y 0.000000 1.988660 0.000000 
#    z 0.000000 0.000000 2.080710 
# 
# From -- ./inp_files/12560.got.cif
#   From: 2010.05.17/outbox.cif.g08.bks.cpg/sg72_7_cif.got.tgz:12560.got - 2010.06.03 17:03:01.
