data_PCOD9527897
_publ_section_title
;
Structure prediction by ZEFSAII (Michael W. Deem and Ramdas Pophale) SiO2 
 PCOD9527897
Probable space group: I B A M
;
_chemical_formula_sum "Si O2"
_cell_formula_units_Z 116
_cell_length_a 27.426292
_cell_length_b 25.073243
_cell_length_c 8.306095
_cell_angle_alpha 90.000000
_cell_angle_beta 90.000000
_cell_angle_gamma 90.000000
_cell_volume 5711.819821
_symmetry_space_group_name_H-M "I B A M"
_symmetry_group_IT_number 72
_symmetry_cell_setting 'orthorhombic'
loop_
_space_group_symop_operation_xyz
x,y,z
-x,-y,z
x,-y,1/2-z
-x,y,1/2-z
-x,-y,-z
x,y,-z
-x,y,1/2+z
x,-y,1/2+z
1/2+x,1/2+y,1/2+z
1/2-x,1/2-y,1/2+z
1/2+x,1/2-y,-z
1/2-x,1/2+y,-z
1/2-x,1/2-y,1/2-z
1/2+x,1/2+y,1/2-z
1/2-x,1/2+y,z
1/2+x,1/2-y,z
loop_
_atom_site_type_symbol
_atom_site_label
_atom_site_fract_x
_atom_site_fract_y
_atom_site_fract_z
Si Si1 0.404272 0.698900 0.810488
Si Si2 0.694736 0.255556 0.313843
Si Si3 0.053941 0.688429 0.191862
Si Si4 0.282164 0.939016 0.692739
Si Si5 0.070713 0.910990 0.186263
Si Si6 0.851523 0.649206 0.813189
Si Si7 0.174963 0.060805 0.807558
Si Si8 0.500000 0.500000 0.250000
O O1 0.346463 0.706004 0.766395
O O2 0.428953 0.754641 0.763069
O O3 0.434237 0.651330 0.725248
O O4 0.407046 0.689300 0.000000
O O5 0.696857 0.270507 0.500000
O O6 0.750000 0.250000 0.250000
O O7 0.672367 0.196557 0.290456
O O8 0.092697 0.646357 0.259573
O O9 0.000000 0.676821 0.250000
O O10 0.056585 0.691129 0.000000
O O11 0.287988 0.937127 0.500000
O O12 0.322337 0.904158 0.779699
O O13 0.228136 0.915685 0.730186
O O14 0.284130 0.000000 0.750000
O O15 0.128075 0.917585 0.217840
O O16 0.040739 0.953767 0.293850
O O17 0.058271 0.923534 0.000000
O O18 0.848347 0.664877 0.000000
O O19 0.178264 0.000000 0.750000
O O20 0.167390 0.063867 0.000000
#
# Coordination Sequence:
#
# PCOD9527897 Si02
#       8
#    16  16  16  16  16  16  16   4
#     4  11  24  42  63  90 123 160 207 259 317 383
#     4  11  22  39  61  90 127 165 206 255 316 382
#     4  11  22  41  66  93 125 161 206 255 309 369
#     4  10  21  38  61  92 128 167 209 255 307 367
#     4  12  26  44  65  87 118 157 208 266 329 387
#     4  11  22  38  61  92 127 165 208 254 309 372
#     4  10  21  38  60  85 116 153 201 251 307 371
#     4  12  30  48  68  90 122 160 222 280 346 392
#
# _framework density 20.308765000000001
#
# number of rings (size 3 to 8) (size 9 to 14) (size 15 to 20)
#    0.000    1.103    0.690    8.069    2.897    3.310 
#    0.000    0.000    0.000    0.414    0.000    2.897 
#    0.000    0.000    0.000    0.000    0.000    0.000 
#
# Total GULP energy -323741.079644 kJ/mol
# GULP energy per Si atom -5581.742752 kJ/mol
# Density = 2.026254 g / cm^3
# Si number density = 20.308765 Si / 1000 Ang^3
#
#
#
# Elastic Constant Matrix: (Units=GPa)
#
#
# Indices 1 2 3 4 5 6 
#
# 1 136.2539 31.2854 19.3821 0.0000 0.0000 0.0000
# 2 31.2854 57.1218 -5.9608 0.0000 0.0000 0.0000
# 3 19.3821 -5.9608 84.3216 0.0000 0.0000 0.0000
# 4 0.0000 0.0000 0.0000 16.7921 0.0000 0.0000
# 5 0.0000 0.0000 0.0000 0.0000 25.8980 0.0000
# 6 0.0000 0.0000 0.0000 0.0000 0.0000 11.4945
#
#
#
# Elastic Compliance Matrix: (Units=1/GPa)
#
#
# Indices 1 2 3 4 5 6 
#
# 1 0.008850 -0.005097 -0.002395 0.000000 0.000000 0.000000
# 2 -0.005097 0.020572 0.002626 0.000000 0.000000 0.000000
# 3 -0.002395 0.002626 0.012595 0.000000 0.000000 0.000000
# 4 0.000000 0.000000 0.000000 0.059552 0.000000 0.000000
# 5 0.000000 0.000000 0.000000 0.000000 0.038613 0.000000
# 6 0.000000 0.000000 0.000000 0.000000 0.000000 0.086998
#
#
# Mechanical properties :
#
#
# Convention : Reuss Voigt Hill
#
# Bulk Modulus (GPa) = 30.97312 40.79008 35.88160
# Shear Modulus (GPa) = 20.18777 26.36962 23.27869
#
# Velocity S-wave (km/s) = 3.15626 3.60729 3.38929
# Velocity P-wave (km/s) = 5.34480 6.12198 5.74654
#
# Compressibility (1/GPa) = 0.03228606
#
# Stress axis : x y z
#
# Youngs Moduli (GPa) = 112.99143 48.60942 79.39399
#
# Poissons Ratio (x) = 0.24777 0.19012
# Poissons Ratio (y) = 0.57593 -0.20848
# Poissons Ratio (z) = 0.27057 -0.12764
#
# Static dielectric constant tensor:
#      x y z
#    x 1.804220 0.000000 0.000000 
#    y 0.000000 1.700770 0.000000 
#    z 0.000000 0.000000 1.731180 
# 
# From -- ./inp_files/8420.got.cif
#   From: 2010.05.17/outbox.cif.g08.bks.cpg/sg72_5_cif.got.tgz:8420.got - 2010.06.03 17:03:01.
