data_PCOD9527820
_publ_section_title
;
Structure prediction by ZEFSAII (Michael W. Deem and Ramdas Pophale) SiO2 
 PCOD9527820
Probable space group: I B A M
;
_chemical_formula_sum "Si O2"
_cell_formula_units_Z 116
_cell_length_a 28.326175
_cell_length_b 23.159738
_cell_length_c 9.117136
_cell_angle_alpha 90.000000
_cell_angle_beta 90.000000
_cell_angle_gamma 90.000000
_cell_volume 5981.085478
_symmetry_space_group_name_H-M "I B A M"
_symmetry_group_IT_number 72
_symmetry_cell_setting 'orthorhombic'
loop_
_space_group_symop_operation_xyz
x,y,z
-x,-y,z
x,-y,1/2-z
-x,y,1/2-z
-x,-y,-z
x,y,-z
-x,y,1/2+z
x,-y,1/2+z
1/2+x,1/2+y,1/2+z
1/2-x,1/2-y,1/2+z
1/2+x,1/2-y,-z
1/2-x,1/2+y,-z
1/2-x,1/2-y,1/2-z
1/2+x,1/2+y,1/2-z
1/2-x,1/2+y,z
1/2+x,1/2-y,z
loop_
_atom_site_type_symbol
_atom_site_label
_atom_site_fract_x
_atom_site_fract_y
_atom_site_fract_z
Si Si1 0.365515 0.559981 0.829063
Si Si2 0.300375 0.242571 0.173723
Si Si3 0.252828 0.439172 0.673503
Si Si4 0.617276 0.325895 0.327671
Si Si5 0.328829 0.871860 0.175565
Si Si6 0.000000 0.500000 0.750000
Si Si7 0.450973 0.221915 0.176193
Si Si8 0.419282 0.092600 0.829765
O O1 0.377067 0.500000 0.750000
O O2 0.308930 0.569761 0.812542
O O3 0.389898 0.615693 0.760016
O O4 0.375860 0.554951 0.000000
O O5 0.250000 0.250000 0.250000
O O6 0.329731 0.301480 0.188418
O O7 0.330217 0.191543 0.250841
O O8 0.295686 0.229493 0.000000
O O9 0.242426 0.500000 0.750000
O O10 0.241212 0.438932 0.500000
O O11 0.220627 0.394931 0.761583
O O12 0.609217 0.336613 0.500000
O O13 0.585003 0.272201 0.280654
O O14 0.371825 0.912569 0.232426
O O15 0.329336 0.868694 0.000000
O O16 0.038568 0.454646 0.681685
O O17 0.500000 0.235771 0.250000
O O18 0.438043 0.155978 0.215988
O O19 0.453928 0.222345 0.000000
O O20 0.404625 0.094752 0.000000
#
# Coordination Sequence:
#
# PCOD9527820 Si02
#       8
#    16  16  16  16  16   4  16  16
#     4  10  21  37  61  91 123 160 201 246 295 357
#     4  11  22  38  59  88 126 166 207 258 315 378
#     4  10  21  38  58  82 117 160 206 255 306 366
#     4  10  21  38  60  86 120 161 201 246 309 371
#     4  12  25  39  58  85 119 164 212 260 317 377
#     4  12  26  44  72  98 118 160 222 282 342 404
#     4  10  21  41  65  90 120 159 200 254 317 376
#     4  11  24  44  65  88 121 159 206 267 331 386
#
# _framework density 19.394473000000001
#
# number of rings (size 3 to 8) (size 9 to 14) (size 15 to 20)
#    0.000    1.379    2.069    3.517    0.966    7.172 
#    0.000    0.000    0.000    0.414    0.000    2.897 
#    0.000    0.000    0.000    0.000    0.000    0.000 
#
# Total GULP energy -323673.530882 kJ/mol
# GULP energy per Si atom -5580.578119 kJ/mol
# Density = 1.935033 g / cm^3
# Si number density = 19.394473 Si / 1000 Ang^3
#
#
#
# Elastic Constant Matrix: (Units=GPa)
#
#
# Indices 1 2 3 4 5 6 
#
# 1 61.7176 31.1032 27.3134 0.0000 0.0000 0.0000
# 2 31.1032 133.4695 58.4387 0.0000 0.0000 0.0000
# 3 27.3134 58.4387 87.4996 0.0000 0.0000 0.0000
# 4 0.0000 0.0000 0.0000 28.4487 0.0000 0.0000
# 5 0.0000 0.0000 0.0000 0.0000 24.5615 0.0000
# 6 0.0000 0.0000 0.0000 0.0000 0.0000 30.0452
#
#
#
# Elastic Compliance Matrix: (Units=1/GPa)
#
#
# Indices 1 2 3 4 5 6 
#
# 1 0.019440 -0.002647 -0.004300 0.000000 0.000000 0.000000
# 2 -0.002647 0.010949 -0.006486 0.000000 0.000000 0.000000
# 3 -0.004300 -0.006486 0.017103 0.000000 0.000000 0.000000
# 4 0.000000 0.000000 0.000000 0.035151 0.000000 0.000000
# 5 0.000000 0.000000 0.000000 0.000000 0.040714 0.000000
# 6 0.000000 0.000000 0.000000 0.000000 0.000000 0.033283
#
#
# Mechanical properties :
#
#
# Convention : Reuss Voigt Hill
#
# Bulk Modulus (GPa) = 48.48601 57.37749 52.93175
# Shear Modulus (GPa) = 26.26279 27.66650 26.96464
#
# Velocity S-wave (km/s) = 3.68385 3.78102 3.73275
# Velocity P-wave (km/s) = 6.56876 6.97927 6.77712
#
# Compressibility (1/GPa) = 0.02062450
#
# Stress axis : x y z
#
# Youngs Moduli (GPa) = 51.44003 91.33000 58.46928
#
# Poissons Ratio (x) = 0.24179 0.25143
# Poissons Ratio (y) = 0.13618 0.37925
# Poissons Ratio (z) = 0.22120 0.59240
#
# Static dielectric constant tensor:
#      x y z
#    x 1.680990 0.000000 0.000000 
#    y 0.000000 1.787690 0.000000 
#    z 0.000000 0.000000 1.655510 
# 
# From -- ./inp_files/8400.got.cif
#   From: 2010.05.17/outbox.cif.g08.bks.cpg/sg72_5_cif.got.tgz:8400.got - 2010.06.03 17:03:01.
