data_PCOD9527612
_publ_section_title
;
Structure prediction by ZEFSAII (Michael W. Deem and Ramdas Pophale) SiO2 
 PCOD9527612
Probable space group: I B A M
;
_chemical_formula_sum "Si O2"
_cell_formula_units_Z 80
_cell_length_a 12.243805
_cell_length_b 18.124325
_cell_length_c 14.272521
_cell_angle_alpha 90.000000
_cell_angle_beta 90.000000
_cell_angle_gamma 90.000000
_cell_volume 3167.225141
_symmetry_space_group_name_H-M "I B A M"
_symmetry_group_IT_number 72
_symmetry_cell_setting 'orthorhombic'
loop_
_space_group_symop_operation_xyz
x,y,z
-x,-y,z
x,-y,1/2-z
-x,y,1/2-z
-x,-y,-z
x,y,-z
-x,y,1/2+z
x,-y,1/2+z
1/2+x,1/2+y,1/2+z
1/2-x,1/2-y,1/2+z
1/2+x,1/2-y,-z
1/2-x,1/2+y,-z
1/2-x,1/2-y,1/2-z
1/2+x,1/2+y,1/2-z
1/2-x,1/2+y,z
1/2+x,1/2-y,z
loop_
_atom_site_type_symbol
_atom_site_label
_atom_site_fract_x
_atom_site_fract_y
_atom_site_fract_z
Si Si1 0.896352 0.043669 0.888199
Si Si2 0.753775 0.835350 0.230522
Si Si3 0.464129 0.685015 0.110621
Si Si4 0.171078 0.433787 0.112630
Si Si5 0.458965 0.146508 0.888383
O O1 0.774830 0.013799 0.859919
O O2 0.934726 0.129171 0.876053
O O3 0.895629 0.032827 0.000000
O O4 0.000000 0.000000 0.849954
O O5 0.750000 0.750000 0.250000
O O6 0.866685 0.845307 0.174878
O O7 0.724392 0.866310 0.332430
O O8 0.653542 0.861054 0.165511
O O9 0.493975 0.770774 0.131860
O O10 0.433574 0.682573 0.000000
O O11 0.043978 0.419444 0.136510
O O12 0.171568 0.430225 0.000000
O O13 0.440942 0.142937 0.000000
#
# Coordination Sequence:
#
# PCOD9527612 Si02
#       5
#    16  16  16  16  16
#     4   9  19  38  62  85 115 157 203 248 299 359
#     4  12  22  32  54  81 120 155 201 242 303 370
#     4  10  21  35  55  84 118 155 197 248 302 357
#     4  10  21  36  55  81 116 156 196 248 304 356
#     4  10  21  36  55  83 122 159 195 247 311 368
#
# _framework density 25.258703000000001
#
# number of rings (size 3 to 8) (size 9 to 14) (size 15 to 20)
#    0.000    1.800    2.000    2.400    0.000    4.800 
#    0.000    2.000    0.000    1.200    0.000    9.800 
#    0.000    0.000    0.000    0.000    0.000    0.000 
#
# Total GULP energy -222793.369699 kJ/mol
# GULP energy per Si atom -5569.834242 kJ/mol
# Density = 2.520121 g / cm^3
# Si number density = 25.258703 Si / 1000 Ang^3
#
#
#
# Elastic Constant Matrix: (Units=GPa)
#
#
# Indices 1 2 3 4 5 6 
#
# 1 144.7679 28.3366 11.9753 0.0000 0.0000 0.0000
# 2 28.3366 81.8718 -3.5975 0.0001 0.0000 0.0000
# 3 11.9753 -3.5975 33.6322 0.0002 0.0001 0.0000
# 4 0.0000 0.0001 0.0002 1.9712 0.0000 0.0000
# 5 0.0000 0.0000 0.0001 0.0000 10.4435 0.0000
# 6 0.0000 0.0000 0.0000 0.0000 0.0000 25.5270
#
#
#
# Elastic Compliance Matrix: (Units=1/GPa)
#
#
# Indices 1 2 3 4 5 6 
#
# 1 0.007708 -0.002801 -0.003044 0.000000 0.000000 0.000000
# 2 -0.002801 0.013290 0.002419 -0.000001 0.000000 0.000000
# 3 -0.003044 0.002419 0.031076 -0.000004 0.000000 0.000000
# 4 0.000000 -0.000001 -0.000004 0.507298 -0.000002 0.000000
# 5 0.000000 0.000000 0.000000 -0.000002 0.095754 0.000000
# 6 0.000000 0.000000 0.000000 0.000000 0.000000 0.039174
#
#
# Mechanical properties :
#
#
# Convention : Reuss Voigt Hill
#
# Bulk Modulus (GPa) = 22.11364 37.07785 29.59574
# Shear Modulus (GPa) = 6.98103 22.49218 14.73661
#
# Velocity S-wave (km/s) = 1.66428 2.98732 2.41804
# Velocity P-wave (km/s) = 3.53086 5.15847 4.42023
#
# Compressibility (1/GPa) = 0.04522097
#
# Stress axis : x y z
#
# Youngs Moduli (GPa) = 129.73906 75.24377 32.17906
#
# Poissons Ratio (x) = 0.21080 0.09796
# Poissons Ratio (y) = 0.36346 -0.07784
# Poissons Ratio (z) = 0.39494 -0.18202
#
# Static dielectric constant tensor:
#      x y z
#    x 2.183260 0.000000 0.000000 
#    y 0.000000 2.125480 0.000000 
#    z 0.000000 0.000000 2.131390 
# 
# From -- ./inp_files/20208.got.cif
#   From: 2010.05.17/outbox.cif.g08.bks.cpg/sg72_11_cif.got.tgz:20208.got - 2010.06.03 17:03:01.
