data_PCOD9527544
_publ_section_title
;
Structure prediction by ZEFSAII (Michael W. Deem and Ramdas Pophale) SiO2 
 PCOD9527544
Probable space group: I B A M
;
_chemical_formula_sum "Si O2"
_cell_formula_units_Z 112
_cell_length_a 11.669770
_cell_length_b 28.451478
_cell_length_c 21.161033
_cell_angle_alpha 90.000000
_cell_angle_beta 90.000000
_cell_angle_gamma 90.000000
_cell_volume 7025.932824
_symmetry_space_group_name_H-M "I B A M"
_symmetry_group_IT_number 72
_symmetry_cell_setting 'orthorhombic'
loop_
_space_group_symop_operation_xyz
x,y,z
-x,-y,z
x,-y,1/2-z
-x,y,1/2-z
-x,-y,-z
x,y,-z
-x,y,1/2+z
x,-y,1/2+z
1/2+x,1/2+y,1/2+z
1/2-x,1/2-y,1/2+z
1/2+x,1/2-y,-z
1/2-x,1/2+y,-z
1/2-x,1/2-y,1/2-z
1/2+x,1/2+y,1/2-z
1/2-x,1/2+y,z
1/2+x,1/2-y,z
loop_
_atom_site_type_symbol
_atom_site_label
_atom_site_fract_x
_atom_site_fract_y
_atom_site_fract_z
Si Si1 0.003324 0.947394 0.144505
Si Si2 0.253634 0.693579 0.358789
Si Si3 0.693324 0.447718 0.251084
Si Si4 0.909508 0.269866 0.191980
Si Si5 0.066409 0.752583 0.574224
Si Si6 0.866757 0.636721 0.246946
Si Si7 0.971307 0.147979 0.925741
O O1 0.901771 0.946306 0.196018
O O2 0.121286 0.942098 0.184157
O O3 0.991553 0.902447 0.100221
O O4 0.000000 0.000000 0.115523
O O5 0.317981 0.728143 0.309832
O O6 0.183818 0.726868 0.406689
O O7 0.168080 0.660197 0.320057
O O8 0.353394 0.664261 0.392522
O O9 0.745220 0.500000 0.250000
O O10 0.784040 0.406784 0.242431
O O11 0.854055 0.320616 0.203327
O O12 0.000000 0.263498 0.250000
O O13 0.974259 0.267069 0.124718
O O14 0.040000 0.744589 0.500000
O O15 0.060643 0.809007 0.585113
O O16 0.000000 0.623138 0.250000
O O17 0.951632 0.144997 0.000000
#
# Coordination Sequence:
#
# PCOD9527544 Si02
#       7
#    16  16  16  16  16  16  16
#     4   9  18  35  56  80 106 133 171 219 276 328
#     4  11  20  34  52  72 108 143 178 216 265 320
#     4   9  19  34  54  78 105 135 166 216 282 328
#     4  10  21  33  50  79 104 135 181 225 264 310
#     4  10  21  36  50  73 111 145 179 218 260 319
#     4  11  20  32  51  79 105 132 178 223 259 314
#     4  10  21  34  52  79 104 140 183 217 268 320
#
# _framework density 15.940944
#
# number of rings (size 3 to 8) (size 9 to 14) (size 15 to 20)
#    0.000    2.000    4.286    1.714    2.000    2.286 
#    0.000    0.000    0.000    0.000    0.000    0.000 
#    0.000    3.714    0.000    0.000    0.000    0.000 
#
# Total GULP energy -312017.257065 kJ/mol
# GULP energy per Si atom -5571.736733 kJ/mol
# Density = 1.590466 g / cm^3
# Si number density = 15.940944 Si / 1000 Ang^3
#
#
#
# Elastic Constant Matrix: (Units=GPa)
#
#
# Indices 1 2 3 4 5 6 
#
# 1 57.8074 42.5641 14.4895 0.0000 0.0000 0.0000
# 2 42.5641 140.0785 48.5994 0.0000 0.0000 0.0000
# 3 14.4895 48.5994 70.4831 0.0000 0.0000 0.0000
# 4 0.0000 0.0000 0.0000 24.0512 0.0000 0.0000
# 5 0.0000 0.0000 0.0000 0.0000 15.6944 0.0000
# 6 0.0000 0.0000 0.0000 0.0000 0.0000 32.0008
#
#
#
# Elastic Compliance Matrix: (Units=1/GPa)
#
#
# Indices 1 2 3 4 5 6 
#
# 1 0.022285 -0.006812 0.000115 0.000000 0.000000 0.000000
# 2 -0.006812 0.011466 -0.006505 0.000000 0.000000 0.000000
# 3 0.000115 -0.006505 0.018650 0.000000 0.000000 0.000000
# 4 0.000000 0.000000 0.000000 0.041578 0.000000 0.000000
# 5 0.000000 0.000000 0.000000 0.000000 0.063717 0.000000
# 6 0.000000 0.000000 0.000000 0.000000 0.000000 0.031249
#
#
# Mechanical properties :
#
#
# Convention : Reuss Voigt Hill
#
# Bulk Modulus (GPa) = 38.46542 53.29724 45.88133
# Shear Modulus (GPa) = 22.32000 25.19700 23.75850
#
# Velocity S-wave (km/s) = 3.74594 3.98005 3.86477
# Velocity P-wave (km/s) = 6.54918 7.39106 6.98282
#
# Compressibility (1/GPa) = 0.02599738
#
# Stress axis : x y z
#
# Youngs Moduli (GPa) = 44.87246 87.21670 53.62013
#
# Poissons Ratio (x) = 0.59409 -0.00619
# Poissons Ratio (y) = 0.30566 0.34883
# Poissons Ratio (z) = -0.00518 0.56739
#
# Static dielectric constant tensor:
#      x y z
#    x 1.546130 0.000000 0.000000 
#    y 0.000000 1.541050 0.000000 
#    z 0.000000 0.000000 1.527620 
# 
# From -- ./inp_files/43627.got.cif
#   From: 2010.05.17/outbox.cif.g08.bks.cpg/sg72_22_cif.got.tgz:43627.got - 2010.06.03 17:03:01.
