data_PCOD9527843
_publ_section_title
;
Structure prediction by ZEFSAII (Michael W. Deem and Ramdas Pophale) SiO2 
 PCOD9527843
Probable space group: I B A M
;
_chemical_formula_sum "Si O2"
_cell_formula_units_Z 56
_cell_length_a 8.332883
_cell_length_b 17.980624
_cell_length_c 14.496935
_cell_angle_alpha 90.000000
_cell_angle_beta 90.000000
_cell_angle_gamma 90.000000
_cell_volume 2172.082093
_symmetry_space_group_name_H-M "I B A M"
_symmetry_group_IT_number 72
_symmetry_cell_setting 'orthorhombic'
loop_
_space_group_symop_operation_xyz
x,y,z
-x,-y,z
x,-y,1/2-z
-x,y,1/2-z
-x,-y,-z
x,y,-z
-x,y,1/2+z
x,-y,1/2+z
1/2+x,1/2+y,1/2+z
1/2-x,1/2-y,1/2+z
1/2+x,1/2-y,-z
1/2-x,1/2+y,-z
1/2-x,1/2-y,1/2-z
1/2+x,1/2+y,1/2-z
1/2-x,1/2+y,z
1/2+x,1/2-y,z
loop_
_atom_site_type_symbol
_atom_site_label
_atom_site_fract_x
_atom_site_fract_y
_atom_site_fract_z
Si Si1 0.498343 0.685083 0.110412
Si Si2 0.875795 0.654443 0.611303
Si Si3 0.500000 0.000000 0.873151
Si Si4 0.341770 0.461549 0.850409
O O1 0.313482 0.664794 0.126769
O O2 0.536704 0.769340 0.137229
O O3 0.614828 0.624965 0.156411
O O4 0.527441 0.680076 0.000000
O O5 0.899168 0.642343 0.500000
O O6 0.944117 0.581810 0.660281
O O7 0.678603 0.024403 0.904743
O O8 0.500000 0.500000 0.892578
O O9 0.323106 0.500000 0.750000
#
# Coordination Sequence:
#
# PCOD9527843 Si02
#       4
#    16  16   8  16
#     4  10  21  41  66  99 137 178 218 273 333 398
#     4  10  21  37  65 102 140 172 217 272 333 397
#     4  12  22  40  66  98 131 180 221 272 329 398
#     4  11  24  43  66  91 134 172 225 276 329 386
#
# _framework density 25.781714999999998
#
# number of rings (size 3 to 8) (size 9 to 14) (size 15 to 20)
#    0.000    1.429    2.857    2.571    0.000    5.143 
#    0.000    1.429    6.286    0.000    0.000    0.000 
#    0.000    0.000    0.000    0.000    0.000    0.000 
#
# Total GULP energy -156382.712349 kJ/mol
# GULP energy per Si atom -5585.096870 kJ/mol
# Density = 2.572303 g / cm^3
# Si number density = 25.781715 Si / 1000 Ang^3
#
#
#
# Elastic Constant Matrix: (Units=GPa)
#
#
# Indices 1 2 3 4 5 6 
#
# 1 220.3903 89.0965 44.2868 0.0000 0.0000 0.0000
# 2 89.0965 298.8288 55.2612 0.0000 0.0000 0.0000
# 3 44.2868 55.2612 132.2943 0.0001 0.0000 0.0000
# 4 0.0000 0.0000 0.0001 -226.4530 0.0000 0.0000
# 5 0.0000 0.0000 0.0000 0.0000 -6.3314 0.0000
# 6 0.0000 0.0000 0.0000 0.0000 0.0000 65.3318
#
#
#
# Elastic Compliance Matrix: (Units=1/GPa)
#
#
# Indices 1 2 3 4 5 6 
#
# 1 0.005334 -0.001366 -0.001215 0.000000 0.000000 0.000000
# 2 -0.001366 0.003976 -0.001204 0.000000 0.000000 0.000000
# 3 -0.001215 -0.001204 0.008468 0.000000 0.000000 0.000000
# 4 0.000000 0.000000 0.000000 -0.004416 0.000000 0.000000
# 5 0.000000 0.000000 0.000000 0.000000 -0.157943 0.000000
# 6 0.000000 0.000000 0.000000 0.000000 0.000000 0.015306
#
#
# Mechanical properties :
#
#
# Convention : Reuss Voigt Hill
#
# Bulk Modulus (GPa) = 97.94796 114.31136 106.12966
# Shear Modulus (GPa) = -42.26476 -2.63260 -22.44868
#
# Velocity S-wave (km/s) = -4.05326 -1.01160 -2.95400
# Velocity P-wave (km/s) = 4.02101 6.56277 5.44236
#
# Compressibility (1/GPa) = 0.01020950
#
# Stress axis : x y z
#
# Youngs Moduli (GPa) = 187.49031 251.50015 118.08474
#
# Poissons Ratio (x) = 0.34343 0.14348
# Poissons Ratio (y) = 0.25602 0.14215
# Poissons Ratio (z) = 0.22781 0.30275
#
# Static dielectric constant tensor:
#      x y z
#    x 1.950810 0.000000 0.000000 
#    y 0.000000 1.961870 0.000000 
#    z 0.000000 0.000000 2.205820 
# 
# From -- ./inp_files/35245.got.cif
#   From: 2010.05.17/outbox.cif.g08.bks.cpg/sg72_18_cif.got.tgz:35245.got - 2010.06.03 17:03:01.
