data_PCOD9527503
_publ_section_title
;
Structure prediction by ZEFSAII (Michael W. Deem and Ramdas Pophale) SiO2 
 PCOD9527503
Probable space group: I B A M
;
_chemical_formula_sum "Si O2"
_cell_formula_units_Z 52
_cell_length_a 17.432786
_cell_length_b 4.910959
_cell_length_c 26.538299
_cell_angle_alpha 90.000000
_cell_angle_beta 90.000000
_cell_angle_gamma 90.000000
_cell_volume 2271.988821
_symmetry_space_group_name_H-M "I B A M"
_symmetry_group_IT_number 72
_symmetry_cell_setting 'orthorhombic'
loop_
_space_group_symop_operation_xyz
x,y,z
-x,-y,z
x,-y,1/2-z
-x,y,1/2-z
-x,-y,-z
x,y,-z
-x,y,1/2+z
x,-y,1/2+z
1/2+x,1/2+y,1/2+z
1/2-x,1/2-y,1/2+z
1/2+x,1/2-y,-z
1/2-x,1/2+y,-z
1/2-x,1/2-y,1/2-z
1/2+x,1/2+y,1/2-z
1/2-x,1/2+y,z
1/2+x,1/2-y,z
loop_
_atom_site_type_symbol
_atom_site_label
_atom_site_fract_x
_atom_site_fract_y
_atom_site_fract_z
Si Si1 0.793291 0.346003 0.500000
Si Si2 0.000000 0.500000 0.000000
Si Si3 0.395042 0.882686 0.585269
Si Si4 0.691249 0.500000 0.250000
Si Si5 0.588273 0.402776 0.151727
O O1 0.715560 0.523370 0.500000
O O2 0.837315 0.456183 0.451300
O O3 0.962308 0.315755 0.045461
O O4 0.411809 0.096577 0.630172
O O5 0.371938 0.602619 0.610932
O O6 0.750000 0.750000 0.250000
O O7 0.635636 0.449461 0.202464
O O8 0.500000 0.500000 0.157064
#
# Coordination Sequence:
#
# PCOD9527503 Si02
#       5
#     8   4  16   8  16
#     4  11  24  41  58  95 138 181 218 268 332 409
#     4  10  20  42  60 104 132 164 220 260 336 378
#     4  11  24  39  70  96 134 174 223 276 330 404
#     4  12  29  48  71 100 138 180 232 288 347 414
#     4  12  24  46  70 103 130 181 226 288 343 402
#
# _framework density 22.887436999999998
#
# number of rings (size 3 to 8) (size 9 to 14) (size 15 to 20)
#    0.000    0.615    3.077    4.154    0.000   12.308 
#    0.000    4.615    0.000    0.000    0.000    0.000 
#    0.000    0.000    0.000    0.000    0.000    0.000 
#
# Total GULP energy -144740.526802 kJ/mol
# GULP energy per Si atom -5566.943339 kJ/mol
# Density = 2.283534 g / cm^3
# Si number density = 22.887437 Si / 1000 Ang^3
#
#
#
# Elastic Constant Matrix: (Units=GPa)
#
#
# Indices 1 2 3 4 5 6 
#
# 1 56.6759 8.4762 33.4597 0.0000 0.0000 0.0000
# 2 8.4762 133.8705 33.7750 0.0000 0.0000 0.0000
# 3 33.4597 33.7750 166.9460 0.0000 0.0000 0.0000
# 4 0.0000 0.0000 0.0000 16.3792 0.0000 0.0000
# 5 0.0000 0.0000 0.0000 0.0000 70.1013 0.0000
# 6 0.0000 0.0000 0.0000 0.0000 0.0000 31.4359
#
#
#
# Elastic Compliance Matrix: (Units=1/GPa)
#
#
# Indices 1 2 3 4 5 6 
#
# 1 0.020021 -0.000269 -0.003958 0.000000 0.000000 0.000000
# 2 -0.000269 0.007875 -0.001539 0.000000 0.000000 0.000000
# 3 -0.003958 -0.001539 0.007095 0.000000 0.000000 0.000000
# 4 0.000000 0.000000 0.000000 0.061053 0.000000 0.000000
# 5 0.000000 0.000000 0.000000 0.000000 0.014265 0.000000
# 6 0.000000 0.000000 0.000000 0.000000 0.000000 0.031811
#
#
# Mechanical properties :
#
#
# Convention : Reuss Voigt Hill
#
# Bulk Modulus (GPa) = 42.62938 56.54601 49.58770
# Shear Modulus (GPa) = 30.96501 42.36872 36.66686
#
# Velocity S-wave (km/s) = 3.68220 4.30720 4.00691
# Velocity P-wave (km/s) = 6.06171 7.03532 6.56658
#
# Compressibility (1/GPa) = 0.02345800
#
# Stress axis : x y z
#
# Youngs Moduli (GPa) = 49.94693 126.97912 140.95003
#
# Poissons Ratio (x) = 0.03416 0.55792
# Poissons Ratio (y) = 0.01344 0.21697
# Poissons Ratio (z) = 0.19770 0.19546
#
# Static dielectric constant tensor:
#      x y z
#    x 2.021920 0.000000 0.000000 
#    y 0.000000 1.788230 0.000000 
#    z 0.000000 0.000000 1.796640 
# 
# From -- ./inp_files/48853.got.cif
#   From: 2010.05.17/outbox.cif.g08.bks.cpg/sg72_25_cif.got.tgz:48853.got - 2010.06.03 17:03:01.
