data_PCOD9527490
_publ_section_title
;
Structure prediction by ZEFSAII (Michael W. Deem and Ramdas Pophale) SiO2 
 PCOD9527490
Probable space group: I B A M
;
_chemical_formula_sum "Si O2"
_cell_formula_units_Z 72
_cell_length_a 14.218119
_cell_length_b 29.242484
_cell_length_c 7.506026
_cell_angle_alpha 90.000000
_cell_angle_beta 90.000000
_cell_angle_gamma 90.000000
_cell_volume 3120.803829
_symmetry_space_group_name_H-M "I B A M"
_symmetry_group_IT_number 72
_symmetry_cell_setting 'orthorhombic'
loop_
_space_group_symop_operation_xyz
x,y,z
-x,-y,z
x,-y,1/2-z
-x,y,1/2-z
-x,-y,-z
x,y,-z
-x,y,1/2+z
x,-y,1/2+z
1/2+x,1/2+y,1/2+z
1/2-x,1/2-y,1/2+z
1/2+x,1/2-y,-z
1/2-x,1/2+y,-z
1/2-x,1/2-y,1/2-z
1/2+x,1/2+y,1/2-z
1/2-x,1/2+y,z
1/2+x,1/2-y,z
loop_
_atom_site_type_symbol
_atom_site_label
_atom_site_fract_x
_atom_site_fract_y
_atom_site_fract_z
Si Si1 0.387886 0.739789 0.299442
Si Si2 0.889989 0.613851 0.711724
Si Si3 0.889790 0.861789 0.212691
Si Si4 0.830715 0.309188 0.500000
Si Si5 0.272821 0.447801 0.710230
O O1 0.500000 0.741259 0.250000
O O2 0.378486 0.757402 0.500000
O O3 0.359255 0.686240 0.298792
O O4 0.335136 0.768820 0.153937
O O5 0.876615 0.624268 0.500000
O O6 0.848889 0.652200 0.841885
O O7 0.833298 0.567290 0.752753
O O8 0.000000 0.610238 0.750000
O O9 0.837764 0.906847 0.283128
O O10 0.000000 0.866966 0.250000
O O11 0.876342 0.856582 0.000000
O O12 0.295415 0.500000 0.750000
O O13 0.284548 0.443923 0.500000
#
# Coordination Sequence:
#
# PCOD9527490 Si02
#       5
#    16  16  16   8  16
#     4  11  20  33  60  95 130 178 213 259 317 385
#     4  11  24  42  65  98 131 174 219 273 320 387
#     4  10  20  41  65  97 134 171 215 267 321 391
#     4  12  22  38  64  93 138 168 230 256 332 367
#     4  10  25  45  70  93 130 168 215 276 338 388
#
# _framework density 23.070979000000001
#
# number of rings (size 3 to 8) (size 9 to 14) (size 15 to 20)
#    0.000    1.333    3.333    3.333    1.556    2.667 
#    0.000    5.556    0.000    0.000    0.000    0.000 
#    0.000    0.000    0.000    0.000    0.000    0.000 
#
# Total GULP energy -200464.683777 kJ/mol
# GULP energy per Si atom -5568.463438 kJ/mol
# Density = 2.301847 g / cm^3
# Si number density = 23.070979 Si / 1000 Ang^3
#
#
#
# Elastic Constant Matrix: (Units=GPa)
#
#
# Indices 1 2 3 4 5 6 
#
# 1 72.8977 29.2521 2.7701 -0.0011 0.0020 0.0009
# 2 29.2521 144.1866 29.0793 0.0052 -0.0003 0.0008
# 3 2.7701 29.0793 177.9701 0.0296 -0.0117 -0.0019
# 4 -0.0011 0.0052 0.0296 51.6472 -0.0101 -0.0014
# 5 0.0020 -0.0003 -0.0117 -0.0101 -18.7546 -0.0002
# 6 0.0009 0.0008 -0.0019 -0.0014 -0.0002 20.8891
#
#
#
# Elastic Compliance Matrix: (Units=1/GPa)
#
#
# Indices 1 2 3 4 5 6 
#
# 1 0.014946 -0.003087 0.000272 0.000000 0.000002 0.000000
# 2 -0.003087 0.007809 -0.001228 0.000000 0.000000 0.000000
# 3 0.000272 -0.001228 0.005815 -0.000003 -0.000004 0.000001
# 4 0.000000 0.000000 -0.000003 0.019362 -0.000010 0.000001
# 5 0.000002 0.000000 -0.000004 -0.000010 -0.053320 0.000000
# 6 0.000000 0.000000 0.000001 0.000001 0.000000 0.047872
#
#
# Mechanical properties :
#
#
# Convention : Reuss Voigt Hill
#
# Bulk Modulus (GPa) = 48.81736 57.47304 53.14520
# Shear Modulus (GPa) = 87.10870 33.01986 60.06428
#
# Velocity S-wave (km/s) = 6.15132 3.78726 5.10794
# Velocity P-wave (km/s) = 8.46506 6.64003 7.60747
#
# Compressibility (1/GPa) = 0.02048452
#
# Stress axis : x y z
#
# Youngs Moduli (GPa) = 66.90621 128.05069 171.95918
#
# Poissons Ratio (x) = 0.39530 -0.04673
# Poissons Ratio (y) = 0.20654 0.21116
# Poissons Ratio (z) = -0.01818 0.15724
#
# Static dielectric constant tensor:
#      x y z
#    x 1.959300 0.000000 0.000000 
#    y 0.000000 1.847810 0.000000 
#    z 0.000000 0.000000 1.775300 
# 
# From -- ./inp_files/4587.got.cif
#   From: 2010.05.17/outbox.cif.g08.bks.cpg/sg72_3_cif.got.tgz:4587.got - 2010.06.03 17:03:01.
