data_PCOD9527299
_publ_section_title
;
Structure prediction by ZEFSAII (Michael W. Deem and Ramdas Pophale) SiO2 
 PCOD9527299
Probable space group: I B A M
;
_chemical_formula_sum "Si O2"
_cell_formula_units_Z 80
_cell_length_a 11.963167
_cell_length_b 18.236242
_cell_length_c 16.842386
_cell_angle_alpha 90.000000
_cell_angle_beta 90.000000
_cell_angle_gamma 90.000000
_cell_volume 3674.388969
_symmetry_space_group_name_H-M "I B A M"
_symmetry_group_IT_number 72
_symmetry_cell_setting 'orthorhombic'
loop_
_space_group_symop_operation_xyz
x,y,z
-x,-y,z
x,-y,1/2-z
-x,y,1/2-z
-x,-y,-z
x,y,-z
-x,y,1/2+z
x,-y,1/2+z
1/2+x,1/2+y,1/2+z
1/2-x,1/2-y,1/2+z
1/2+x,1/2-y,-z
1/2-x,1/2+y,-z
1/2-x,1/2-y,1/2-z
1/2+x,1/2+y,1/2-z
1/2-x,1/2+y,z
1/2+x,1/2-y,z
loop_
_atom_site_type_symbol
_atom_site_label
_atom_site_fract_x
_atom_site_fract_y
_atom_site_fract_z
Si Si1 0.976520 0.719956 0.000000
Si Si2 0.116921 0.043714 0.090168
Si Si3 0.263585 0.412931 0.842437
Si Si4 0.935248 0.668720 0.831650
Si Si5 0.617087 0.326153 0.796188
Si Si6 0.794991 0.183038 0.000000
O O1 0.996923 0.682141 0.085366
O O2 0.083058 0.776800 0.000000
O O3 0.832969 0.722345 0.000000
O O4 0.104184 0.124373 0.125699
O O5 0.193185 0.994466 0.146978
O O6 0.158488 0.046159 0.000000
O O7 0.000000 0.000000 0.090691
O O8 0.131869 0.405699 0.840612
O O9 0.305810 0.370019 0.764916
O O10 0.297811 0.367707 0.921497
O O11 0.857923 0.742562 0.820084
O O12 0.000000 0.665259 0.750000
O O13 0.500000 0.323688 0.750000
#
# Coordination Sequence:
#
# PCOD9527299 Si02
#       6
#     8  16  16  16  16   8
#     4  10  22  36  63  88 139 176 224 269 344 393
#     4  11  23  36  58  91 132 174 204 263 342 412
#     4  11  21  38  60  89 134 169 217 271 338 396
#     4  10  23  40  63  93 127 180 221 277 332 399
#     4  11  21  35  58  90 128 163 216 268 332 404
#     4  10  20  38  58  95 128 183 209 284 329 408
#
# _framework density 21.772328000000002
#
# number of rings (size 3 to 8) (size 9 to 14) (size 15 to 20)
#    0.000    1.400    3.000    3.600    1.400    1.600 
#    0.000    0.000    2.200    2.400    0.000    1.400 
#    0.000    0.000    0.000    0.000    0.000    0.000 
#
# Total GULP energy -222814.155444 kJ/mol
# GULP energy per Si atom -5570.353886 kJ/mol
# Density = 2.172277 g / cm^3
# Si number density = 21.772328 Si / 1000 Ang^3
#
#
#
# Elastic Constant Matrix: (Units=GPa)
#
#
# Indices 1 2 3 4 5 6 
#
# 1 49.7693 32.1448 10.9413 0.0000 0.0000 0.0000
# 2 32.1448 62.4970 7.1834 0.0000 0.0000 0.0000
# 3 10.9413 7.1834 135.6418 0.0000 0.0000 0.0000
# 4 0.0000 0.0000 0.0000 14.3981 0.0000 0.0000
# 5 0.0000 0.0000 0.0000 0.0000 32.6181 0.0000
# 6 0.0000 0.0000 0.0000 0.0000 0.0000 6.0016
#
#
#
# Elastic Compliance Matrix: (Units=1/GPa)
#
#
# Indices 1 2 3 4 5 6 
#
# 1 0.030445 -0.015471 -0.001636 0.000000 0.000000 0.000000
# 2 -0.015471 0.023961 -0.000021 0.000000 0.000000 0.000000
# 3 -0.001636 -0.000021 0.007505 0.000000 0.000000 0.000000
# 4 0.000000 0.000000 0.000000 0.069454 0.000000 0.000000
# 5 0.000000 0.000000 0.000000 0.000000 0.030658 0.000000
# 6 0.000000 0.000000 0.000000 0.000000 0.000000 0.166622
#
#
# Mechanical properties :
#
#
# Convention : Reuss Voigt Hill
#
# Bulk Modulus (GPa) = 36.16107 38.71635 37.43871
# Shear Modulus (GPa) = 13.43656 23.77947 18.60802
#
# Velocity S-wave (km/s) = 2.48692 3.30841 2.92663
# Velocity P-wave (km/s) = 4.98911 5.69343 5.35286
#
# Compressibility (1/GPa) = 0.02765405
#
# Stress axis : x y z
#
# Youngs Moduli (GPa) = 32.84633 41.73532 133.23616
#
# Poissons Ratio (x) = 0.64568 0.21803
# Poissons Ratio (y) = 0.50816 0.00280
# Poissons Ratio (z) = 0.05375 0.00088
#
# Static dielectric constant tensor:
#      x y z
#    x 1.859440 0.000000 0.000000 
#    y 0.000000 1.764080 0.000000 
#    z 0.000000 0.000000 1.974210 
# 
# From -- ./inp_files/29227.got.cif
#   From: 2010.05.17/outbox.cif.g08.bks.cpg/sg72_15_cif.got.tgz:29227.got - 2010.06.03 17:03:01.
