data_PCOD9527800
_publ_section_title
;
Structure prediction by ZEFSAII (Michael W. Deem and Ramdas Pophale) SiO2 
 PCOD9527800
Probable space group: I B A M
;
_chemical_formula_sum "Si O2"
_cell_formula_units_Z 88
_cell_length_a 33.447272
_cell_length_b 5.190350
_cell_length_c 25.633687
_cell_angle_alpha 90.000000
_cell_angle_beta 90.000000
_cell_angle_gamma 90.000000
_cell_volume 4450.086200
_symmetry_space_group_name_H-M "I B A M"
_symmetry_group_IT_number 72
_symmetry_cell_setting 'orthorhombic'
loop_
_space_group_symop_operation_xyz
x,y,z
-x,-y,z
x,-y,1/2-z
-x,y,1/2-z
-x,-y,-z
x,y,-z
-x,y,1/2+z
x,-y,1/2+z
1/2+x,1/2+y,1/2+z
1/2-x,1/2-y,1/2+z
1/2+x,1/2-y,-z
1/2-x,1/2+y,-z
1/2-x,1/2-y,1/2-z
1/2+x,1/2+y,1/2-z
1/2-x,1/2+y,z
1/2+x,1/2-y,z
loop_
_atom_site_type_symbol
_atom_site_label
_atom_site_fract_x
_atom_site_fract_y
_atom_site_fract_z
Si Si1 0.224573 0.876156 0.000000
Si Si2 0.379801 0.912200 0.061489
Si Si3 0.335196 0.412093 0.096245
Si Si4 0.951666 0.981018 0.808810
Si Si5 0.452345 0.981929 0.374767
Si Si6 0.776752 0.013144 0.688623
O O1 0.198532 0.926315 0.051371
O O2 0.239773 0.583094 0.000000
O O3 0.366994 0.632575 0.081883
O O4 0.425883 0.969412 0.074540
O O5 0.354505 0.130713 0.091290
O O6 0.371716 0.932003 0.000000
O O7 0.314214 0.467567 0.151154
O O8 0.940869 0.214573 0.847002
O O9 0.935731 0.000000 0.750000
O O10 0.941950 0.708887 0.834269
O O11 0.000000 0.000000 0.805317
O O12 0.500000 0.000000 0.384288
O O13 0.755430 0.286194 0.678227
O O14 0.787240 0.000000 0.750000
#
# Coordination Sequence:
#
# PCOD9527800 Si02
#       6
#     8  16  16  16  16  16
#     4  12  22  36  62  92 117 148 195 242 284 346
#     4  12  24  42  59  82 122 165 196 252 321 349
#     4  12  23  41  61  90 124 158 196 245 302 367
#     4   9  17  33  57  85 115 143 183 250 312 351
#     4  10  21  37  60  87 113 157 212 252 296 367
#     4  10  21  40  65  91 122 160 196 238 290 351
#
# _framework density 19.774899999999999
#
# number of rings (size 3 to 8) (size 9 to 14) (size 15 to 20)
#    0.000    1.273    1.818    4.909    0.000    2.545 
#    0.000    5.455    0.000    5.455    0.000    0.000 
#    0.000    0.000    0.000    0.000    0.000    0.000 
#
# Total GULP energy -245942.872978 kJ/mol
# GULP energy per Si atom -5589.610750 kJ/mol
# Density = 1.972989 g / cm^3
# Si number density = 19.774900 Si / 1000 Ang^3
#
#
#
# Elastic Constant Matrix: (Units=GPa)
#
#
# Indices 1 2 3 4 5 6 
#
# 1 38.9925 -9.1959 18.7099 0.0000 0.0000 0.0000
# 2 -9.1959 72.7274 -7.0775 0.0000 0.0000 0.0000
# 3 18.7099 -7.0775 51.3458 0.0000 0.0000 0.0000
# 4 0.0000 0.0000 0.0000 39.9108 0.0000 0.0000
# 5 0.0000 0.0000 0.0000 0.0000 17.5319 0.0000
# 6 0.0000 0.0000 0.0000 0.0000 0.0000 20.2280
#
#
#
# Elastic Compliance Matrix: (Units=1/GPa)
#
#
# Indices 1 2 3 4 5 6 
#
# 1 0.031681 0.002922 -0.011142 0.000000 0.000000 0.000000
# 2 0.002922 0.014206 0.000894 0.000000 0.000000 0.000000
# 3 -0.011142 0.000894 0.023659 0.000000 0.000000 0.000000
# 4 0.000000 0.000000 0.000000 0.025056 0.000000 0.000000
# 5 0.000000 0.000000 0.000000 0.000000 0.057039 0.000000
# 6 0.000000 0.000000 0.000000 0.000000 0.000000 0.049436
#
#
# Mechanical properties :
#
#
# Convention : Reuss Voigt Hill
#
# Bulk Modulus (GPa) = 18.21707 18.65987 18.43847
# Shear Modulus (GPa) = 21.36496 26.24275 23.80385
#
# Velocity S-wave (km/s) = 3.29052 3.64685 3.47326
# Velocity P-wave (km/s) = 4.86507 5.21434 5.04273
#
# Compressibility (1/GPa) = 0.05489356
#
# Stress axis : x y z
#
# Youngs Moduli (GPa) = 31.56459 70.39104 42.26755
#
# Poissons Ratio (x) = -0.20566 0.47093
# Poissons Ratio (y) = -0.09222 -0.03777
# Poissons Ratio (z) = 0.35168 -0.06290
#
# Static dielectric constant tensor:
#      x y z
#    x 1.705190 0.000000 0.000000 
#    y 0.000000 1.675080 0.000000 
#    z 0.000000 0.000000 1.674510 
# 
# From -- ./inp_files/46135.got.cif
#   From: 2010.05.17/outbox.cif.g08.bks.cpg/sg72_24_cif.got.tgz:46135.got - 2010.06.03 17:03:01.
