data_PCOD9527757
_publ_section_title
;
Structure prediction by ZEFSAII (Michael W. Deem and Ramdas Pophale) SiO2 
 PCOD9527757
Probable space group: I B A M
;
_chemical_formula_sum "Si O2"
_cell_formula_units_Z 96
_cell_length_a 9.628333
_cell_length_b 22.642784
_cell_length_c 24.418638
_cell_angle_alpha 90.000000
_cell_angle_beta 90.000000
_cell_angle_gamma 90.000000
_cell_volume 5323.562564
_symmetry_space_group_name_H-M "I B A M"
_symmetry_group_IT_number 72
_symmetry_cell_setting 'orthorhombic'
loop_
_space_group_symop_operation_xyz
x,y,z
-x,-y,z
x,-y,1/2-z
-x,y,1/2-z
-x,-y,-z
x,y,-z
-x,y,1/2+z
x,-y,1/2+z
1/2+x,1/2+y,1/2+z
1/2-x,1/2-y,1/2+z
1/2+x,1/2-y,-z
1/2-x,1/2+y,-z
1/2-x,1/2-y,1/2-z
1/2+x,1/2+y,1/2-z
1/2-x,1/2+y,z
1/2+x,1/2-y,z
loop_
_atom_site_type_symbol
_atom_site_label
_atom_site_fract_x
_atom_site_fract_y
_atom_site_fract_z
Si Si1 0.953086 0.681843 0.935308
Si Si2 0.812566 0.831518 0.297287
Si Si3 0.391203 0.634533 0.175224
Si Si4 0.581708 0.087965 0.154687
Si Si5 0.729170 0.766254 0.882520
Si Si6 0.301224 0.028063 0.189374
O O1 0.088049 0.715519 0.912061
O O2 0.945475 0.620330 0.902392
O O3 0.819726 0.720589 0.917841
O O4 0.960575 0.674531 0.000000
O O5 0.847651 0.836190 0.233520
O O6 0.670685 0.866065 0.309465
O O7 0.803985 0.767544 0.325344
O O8 0.942779 0.863407 0.327036
O O9 0.319616 0.675631 0.130084
O O10 0.329219 0.568909 0.176153
O O11 0.437412 0.069390 0.183208
O O12 0.670009 0.027839 0.150636
O O13 0.291978 0.000000 0.250000
#
# Coordination Sequence:
#
# PCOD9527757 Si02
#       6
#    16  16  16  16  16  16
#     4  11  23  40  64  84 110 153 201 250 298 343
#     4  10  22  35  54  89 122 157 187 228 288 356
#     4  11  21  36  56  86 122 157 193 227 286 360
#     4  10  21  37  57  84 117 149 195 242 286 336
#     4  11  21  40  58  87 120 147 192 245 299 348
#     4  11  21  36  59  87 118 156 191 231 291 347
#
# _framework density 18.033035999999999
#
# number of rings (size 3 to 8) (size 9 to 14) (size 15 to 20)
#    0.000    1.333    5.000    2.000    0.000    0.667 
#    0.000    1.667    0.000    0.000    0.000    2.333 
#    0.000    0.000    0.000    0.000    0.000    0.000 
#
# Total GULP energy -267998.961706 kJ/mol
# GULP energy per Si atom -5583.311702 kJ/mol
# Density = 1.799199 g / cm^3
# Si number density = 18.033036 Si / 1000 Ang^3
#
#
#
# Elastic Constant Matrix: (Units=GPa)
#
#
# Indices 1 2 3 4 5 6 
#
# 1 50.5126 26.4096 -10.0612 0.0000 0.0000 0.0000
# 2 26.4096 96.2495 24.5394 0.0000 0.0000 0.0000
# 3 -10.0612 24.5394 41.6503 0.0000 0.0000 0.0000
# 4 0.0000 0.0000 0.0000 16.3787 0.0000 0.0000
# 5 0.0000 0.0000 0.0000 0.0000 14.6865 0.0000
# 6 0.0000 0.0000 0.0000 0.0000 0.0000 19.8882
#
#
#
# Elastic Compliance Matrix: (Units=1/GPa)
#
#
# Indices 1 2 3 4 5 6 
#
# 1 0.028331 -0.011201 0.013443 0.000000 0.000000 0.000000
# 2 -0.011201 0.016655 -0.012518 0.000000 0.000000 0.000000
# 3 0.013443 -0.012518 0.034632 0.000000 0.000000 0.000000
# 4 0.000000 0.000000 0.000000 0.061055 0.000000 0.000000
# 5 0.000000 0.000000 0.000000 0.000000 0.068090 0.000000
# 6 0.000000 0.000000 0.000000 0.000000 0.000000 0.050281
#
#
# Mechanical properties :
#
#
# Convention : Reuss Voigt Hill
#
# Bulk Modulus (GPa) = 16.93037 30.02090 23.47563
# Shear Modulus (GPa) = 16.70649 20.02565 18.36607
#
# Velocity S-wave (km/s) = 3.04705 3.33603 3.19481
# Velocity P-wave (km/s) = 4.66779 5.61450 5.16289
#
# Compressibility (1/GPa) = 0.05906546
#
# Stress axis : x y z
#
# Youngs Moduli (GPa) = 35.29708 60.04305 28.87478
#
# Poissons Ratio (x) = 0.67255 -0.38817
# Poissons Ratio (y) = 0.39536 0.36146
# Poissons Ratio (z) = -0.47450 0.75164
#
# Static dielectric constant tensor:
#      x y z
#    x 1.627470 0.000000 0.000000 
#    y 0.000000 1.629010 0.000000 
#    z 0.000000 0.000000 1.595570 
# 
# From -- ./inp_files/42426.got.cif
#   From: 2010.05.17/outbox.cif.g08.bks.cpg/sg72_22_cif.got.tgz:42426.got - 2010.06.03 17:03:01.
