data_PCOD9527485
_publ_section_title
;
Structure prediction by ZEFSAII (Michael W. Deem and Ramdas Pophale) SiO2 
 PCOD9527485
Probable space group: I B A M
;
_chemical_formula_sum "Si O2"
_cell_formula_units_Z 80
_cell_length_a 11.315456
_cell_length_b 13.763510
_cell_length_c 23.434542
_cell_angle_alpha 90.000000
_cell_angle_beta 90.000000
_cell_angle_gamma 90.000000
_cell_volume 3649.704753
_symmetry_space_group_name_H-M "I B A M"
_symmetry_group_IT_number 72
_symmetry_cell_setting 'orthorhombic'
loop_
_space_group_symop_operation_xyz
x,y,z
-x,-y,z
x,-y,1/2-z
-x,y,1/2-z
-x,-y,-z
x,y,-z
-x,y,1/2+z
x,-y,1/2+z
1/2+x,1/2+y,1/2+z
1/2-x,1/2-y,1/2+z
1/2+x,1/2-y,-z
1/2-x,1/2+y,-z
1/2-x,1/2-y,1/2-z
1/2+x,1/2+y,1/2-z
1/2-x,1/2+y,z
1/2+x,1/2-y,z
loop_
_atom_site_type_symbol
_atom_site_label
_atom_site_fract_x
_atom_site_fract_y
_atom_site_fract_z
Si Si1 0.359329 0.163094 0.660946
Si Si2 0.048872 0.673162 0.935398
Si Si3 0.785640 0.533415 0.639395
Si Si4 0.872027 0.866571 0.390627
Si Si5 0.925371 0.136571 0.696349
O O1 0.426721 0.175698 0.600199
O O2 0.219767 0.183064 0.653942
O O3 0.410118 0.246976 0.699879
O O4 0.362828 0.048311 0.672190
O O5 0.135641 0.604185 0.898718
O O6 0.101495 0.782563 0.935481
O O7 0.033672 0.638693 0.000000
O O8 0.700317 0.465743 0.598710
O O9 0.700007 0.587682 0.683572
O O10 0.993361 0.885824 0.358376
O O11 0.000000 0.103034 0.750000
#
# Coordination Sequence:
#
# PCOD9527485 Si02
#       5
#    16  16  16  16  16
#     4   9  22  41  59  90 135 159 204 271 310 364
#     4  11  22  40  67  90 122 174 214 254 322 381
#     4  10  20  41  62  93 128 160 209 271 307 368
#     4   9  22  40  60  90 133 159 203 272 309 366
#     4  11  22  42  68  92 124 173 211 250 320 383
#
# _framework density 21.919581000000001
#
# number of rings (size 3 to 8) (size 9 to 14) (size 15 to 20)
#    1.200    0.800    2.000    1.200    0.000    5.600 
#    0.000    0.000    0.000    3.600    0.000    0.000 
#    0.000    0.000    0.000    0.000    0.000    0.000 
#
# Total GULP energy -222713.090505 kJ/mol
# GULP energy per Si atom -5567.827263 kJ/mol
# Density = 2.186969 g / cm^3
# Si number density = 21.919581 Si / 1000 Ang^3
#
#
#
# Elastic Constant Matrix: (Units=GPa)
#
#
# Indices 1 2 3 4 5 6 
#
# 1 55.4955 34.4566 5.7810 0.0000 0.0000 0.0000
# 2 34.4566 138.2056 49.1990 0.0000 0.0000 0.0000
# 3 5.7810 49.1990 48.5453 0.0000 0.0000 0.0000
# 4 0.0000 0.0000 0.0000 -16.6363 0.0000 0.0000
# 5 0.0000 0.0000 0.0000 0.0000 6.7694 0.0000
# 6 0.0000 0.0000 0.0000 0.0000 0.0000 32.9990
#
#
#
# Elastic Compliance Matrix: (Units=1/GPa)
#
#
# Indices 1 2 3 4 5 6 
#
# 1 0.021954 -0.007107 0.004588 0.000000 0.000000 0.000000
# 2 -0.007107 0.013620 -0.012957 0.000000 0.000000 0.000000
# 3 0.004588 -0.012957 0.033184 0.000000 0.000000 0.000000
# 4 0.000000 0.000000 0.000000 -0.060110 0.000000 0.000000
# 5 0.000000 0.000000 0.000000 0.000000 0.147723 0.000000
# 6 0.000000 0.000000 0.000000 0.000000 0.000000 0.030304
#
#
# Mechanical properties :
#
#
# Convention : Reuss Voigt Hill
#
# Bulk Modulus (GPa) = 26.45015 46.79105 36.62060
# Shear Modulus (GPa) = 21.71747 14.81376 18.26561
#
# Velocity S-wave (km/s) = 3.15108 2.60248 2.88983
# Velocity P-wave (km/s) = 5.03311 5.51576 5.27995
#
# Compressibility (1/GPa) = 0.03780697
#
# Stress axis : x y z
#
# Youngs Moduli (GPa) = 45.54976 73.42214 30.13467
#
# Poissons Ratio (x) = 0.52179 -0.13826
# Poissons Ratio (y) = 0.32371 0.39045
# Poissons Ratio (z) = -0.20898 0.95133
#
# Static dielectric constant tensor:
#      x y z
#    x 1.782400 0.000000 0.000000 
#    y 0.000000 1.876030 0.000000 
#    z 0.000000 0.000000 1.793680 
# 
# From -- ./inp_files/43083.got.cif
#   From: 2010.05.17/outbox.cif.g08.bks.cpg/sg72_22_cif.got.tgz:43083.got - 2010.06.03 17:03:01.
