data_PCOD9527145
_publ_section_title
;
Structure prediction by ZEFSAII (Michael W. Deem and Ramdas Pophale) SiO2 
 PCOD9527145
Probable space group: I B A M
;
_chemical_formula_sum "Si O2"
_cell_formula_units_Z 96
_cell_length_a 14.968499
_cell_length_b 19.948306
_cell_length_c 13.796584
_cell_angle_alpha 90.000000
_cell_angle_beta 90.000000
_cell_angle_gamma 90.000000
_cell_volume 4119.607533
_symmetry_space_group_name_H-M "I B A M"
_symmetry_group_IT_number 72
_symmetry_cell_setting 'orthorhombic'
loop_
_space_group_symop_operation_xyz
x,y,z
-x,-y,z
x,-y,1/2-z
-x,y,1/2-z
-x,-y,-z
x,y,-z
-x,y,1/2+z
x,-y,1/2+z
1/2+x,1/2+y,1/2+z
1/2-x,1/2-y,1/2+z
1/2+x,1/2-y,-z
1/2-x,1/2+y,-z
1/2-x,1/2-y,1/2-z
1/2+x,1/2+y,1/2-z
1/2-x,1/2+y,z
1/2+x,1/2-y,z
loop_
_atom_site_type_symbol
_atom_site_label
_atom_site_fract_x
_atom_site_fract_y
_atom_site_fract_z
Si Si1 0.951233 0.292185 0.890160
Si Si2 0.762235 0.864558 0.611875
Si Si3 0.758115 0.016981 0.386175
Si Si4 0.070475 0.554822 0.884611
Si Si5 0.865050 0.249404 0.690346
Si Si6 0.893742 0.897709 0.232223
O O1 0.965360 0.370931 0.872555
O O2 0.892120 0.264056 0.802371
O O3 0.049055 0.262633 0.876381
O O4 0.916961 0.282319 0.000000
O O5 0.770096 0.847276 0.500000
O O6 0.709660 0.803704 0.662179
O O7 0.855846 0.883329 0.660676
O O8 0.722158 0.939924 0.619230
O O9 0.776223 0.029692 0.500000
O O10 0.671544 0.055766 0.346122
O O11 0.844366 0.042585 0.326407
O O12 0.000000 0.500000 0.850452
O O13 0.081725 0.542379 0.000000
O O14 0.855691 0.169578 0.679599
O O15 0.000000 0.903260 0.250000
#
# Coordination Sequence:
#
# PCOD9527145 Si02
#       6
#    16  16  16  16  16  16
#     4  10  20  36  63  98 137 183 234 290 363 446
#     4  11  25  45  71 100 136 184 243 307 374 444
#     4  10  23  43  70 105 140 187 244 302 377 452
#     4   9  17  33  61  98 136 171 218 284 356 436
#     4  11  23  44  66 100 142 186 241 304 371 446
#     4  12  26  47  68  99 144 195 249 312 370 455
#
# _framework density 23.303191000000002
#
# number of rings (size 3 to 8) (size 9 to 14) (size 15 to 20)
#    0.000    1.500    1.667    3.500    0.000    6.667 
#    0.000    8.333    0.000    0.000    0.000    0.000 
#    0.000    0.000    0.000    0.000    0.000    0.000 
#
# Total GULP energy -267856.418759 kJ/mol
# GULP energy per Si atom -5580.342057 kJ/mol
# Density = 2.325015 g / cm^3
# Si number density = 23.303191 Si / 1000 Ang^3
#
#
#
# Elastic Constant Matrix: (Units=GPa)
#
#
# Indices 1 2 3 4 5 6 
#
# 1 91.3932 20.6491 30.6041 0.0000 0.0000 0.0000
# 2 20.6491 117.6240 26.0874 0.0000 0.0000 0.0000
# 3 30.6041 26.0874 125.0367 0.0000 0.0000 0.0000
# 4 0.0000 0.0000 0.0000 18.4294 0.0000 0.0000
# 5 0.0000 0.0000 0.0000 0.0000 16.8573 0.0000
# 6 0.0000 0.0000 0.0000 0.0000 0.0000 34.3816
#
#
#
# Elastic Compliance Matrix: (Units=1/GPa)
#
#
# Indices 1 2 3 4 5 6 
#
# 1 0.012182 -0.001549 -0.002658 0.000000 0.000000 0.000000
# 2 -0.001549 0.009111 -0.001522 0.000000 0.000000 0.000000
# 3 -0.002658 -0.001522 0.008966 0.000000 0.000000 0.000000
# 4 0.000000 0.000000 0.000000 0.054261 0.000000 0.000000
# 5 0.000000 0.000000 0.000000 0.000000 0.059321 0.000000
# 6 0.000000 0.000000 0.000000 0.000000 0.000000 0.029085
#
#
# Mechanical properties :
#
#
# Convention : Reuss Voigt Hill
#
# Bulk Modulus (GPa) = 53.19031 54.30389 53.74710
# Shear Modulus (GPa) = 26.22579 31.04788 28.63683
#
# Velocity S-wave (km/s) = 3.35836 3.65409 3.50934
# Velocity P-wave (km/s) = 6.15735 6.41537 6.28768
#
# Compressibility (1/GPa) = 0.01880042
#
# Stress axis : x y z
#
# Youngs Moduli (GPa) = 82.08883 109.75622 111.53427
#
# Poissons Ratio (x) = 0.17001 0.29651
# Poissons Ratio (y) = 0.12715 0.16973
# Poissons Ratio (z) = 0.21823 0.16703
#
# Static dielectric constant tensor:
#      x y z
#    x 1.965010 0.000000 0.000000 
#    y 0.000000 1.976600 0.000000 
#    z 0.000000 0.000000 1.897200 
# 
# From -- ./inp_files/21776.got.cif
#   From: 2010.05.17/outbox.cif.g08.bks.cpg/sg72_11_cif.got.tgz:21776.got - 2010.06.03 17:03:01.
