data_PCOD9527225
_publ_section_title
;
Structure prediction by ZEFSAII (Michael W. Deem and Ramdas Pophale) SiO2 
 PCOD9527225
Probable space group: I B A M
;
_chemical_formula_sum "Si O2"
_cell_formula_units_Z 116
_cell_length_a 32.371296
_cell_length_b 22.413407
_cell_length_c 8.578428
_cell_angle_alpha 90.000000
_cell_angle_beta 90.000000
_cell_angle_gamma 90.000000
_cell_volume 6224.087291
_symmetry_space_group_name_H-M "I B A M"
_symmetry_group_IT_number 72
_symmetry_cell_setting 'orthorhombic'
loop_
_space_group_symop_operation_xyz
x,y,z
-x,-y,z
x,-y,1/2-z
-x,y,1/2-z
-x,-y,-z
x,y,-z
-x,y,1/2+z
x,-y,1/2+z
1/2+x,1/2+y,1/2+z
1/2-x,1/2-y,1/2+z
1/2+x,1/2-y,-z
1/2-x,1/2+y,-z
1/2-x,1/2-y,1/2-z
1/2+x,1/2+y,1/2-z
1/2-x,1/2+y,z
1/2+x,1/2-y,z
loop_
_atom_site_type_symbol
_atom_site_label
_atom_site_fract_x
_atom_site_fract_y
_atom_site_fract_z
Si Si1 0.840839 0.565150 0.685286
Si Si2 0.954771 0.731377 0.315024
Si Si3 0.000000 0.500000 0.250000
Si Si4 0.396274 0.332103 0.313446
Si Si5 0.063292 0.591816 0.812987
Si Si6 0.717761 0.832120 0.313776
Si Si7 0.544902 0.433599 0.685503
Si Si8 0.804403 0.197979 0.311868
O O1 0.830713 0.500000 0.750000
O O2 0.836422 0.565242 0.500000
O O3 0.888884 0.579261 0.720032
O O4 0.811475 0.615677 0.754426
O O5 0.953700 0.742277 0.500000
O O6 0.920515 0.772245 0.234629
O O7 0.946375 0.661233 0.288445
O O8 0.000000 0.746276 0.250000
O O9 0.965483 0.449858 0.294750
O O10 0.397124 0.337828 0.500000
O O11 0.420616 0.387298 0.239779
O O12 0.348673 0.327037 0.261660
O O13 0.055082 0.578082 0.000000
O O14 0.718348 0.832493 0.500000
O O15 0.764510 0.836198 0.251947
O O16 0.700605 0.767209 0.261722
O O17 0.552847 0.500000 0.750000
O O18 0.500000 0.414478 0.750000
O O19 0.542742 0.435800 0.500000
O O20 0.803066 0.196750 0.500000
#
# Coordination Sequence:
#
# PCOD9527225 Si02
#       8
#    16  16   4  16  16  16  16  16
#     4  11  22  38  57  82 113 149 192 238 288 341
#     4  11  22  37  54  80 115 154 198 244 293 340
#     4  12  18  40  56  78 112 156 208 248 298 340
#     4  11  22  38  59  87 119 152 190 234 286 341
#     4  10  22  36  55  80 111 154 201 248 295 343
#     4  10  20  37  61  88 114 145 186 233 287 344
#     4  11  22  39  62  88 118 155 194 233 278 335
#     4   9  20  38  61  87 115 148 185 230 284 343
#
# _framework density 18.637270999999998
#
# number of rings (size 3 to 8) (size 9 to 14) (size 15 to 20)
#    0.000    1.517    1.379    4.759    0.000    1.655 
#    0.000    2.759    0.000    3.310    0.000    0.000 
#    0.000    0.000    0.000    0.000    0.000    0.000 
#
# Total GULP energy -323834.367245 kJ/mol
# GULP energy per Si atom -5583.351159 kJ/mol
# Density = 1.859485 g / cm^3
# Si number density = 18.637271 Si / 1000 Ang^3
#
#
#
# Elastic Constant Matrix: (Units=GPa)
#
#
# Indices 1 2 3 4 5 6 
#
# 1 176.8838 83.8391 50.8281 0.0000 0.0000 0.0000
# 2 83.8391 88.1183 33.9059 0.0000 0.0000 0.0000
# 3 50.8281 33.9059 64.1530 0.0000 0.0000 0.0000
# 4 0.0000 0.0000 0.0000 19.2720 0.0000 0.0000
# 5 0.0000 0.0000 0.0000 0.0000 17.3139 0.0000
# 6 0.0000 0.0000 0.0000 0.0000 0.0000 9.2040
#
#
#
# Elastic Compliance Matrix: (Units=1/GPa)
#
#
# Indices 1 2 3 4 5 6 
#
# 1 0.011066 -0.008981 -0.004021 0.000000 0.000000 0.000000
# 2 -0.008981 0.021535 -0.004266 0.000000 0.000000 0.000000
# 3 -0.004021 -0.004266 0.021028 0.000000 0.000000 0.000000
# 4 0.000000 0.000000 0.000000 0.051889 0.000000 0.000000
# 5 0.000000 0.000000 0.000000 0.000000 0.057757 0.000000
# 6 0.000000 0.000000 0.000000 0.000000 0.000000 0.108649
#
#
# Mechanical properties :
#
#
# Convention : Reuss Voigt Hill
#
# Bulk Modulus (GPa) = 52.37469 74.03348 63.20409
# Shear Modulus (GPa) = 15.98351 19.86343 17.92347
#
# Velocity S-wave (km/s) = 2.93167 3.26819 3.10449
# Velocity P-wave (km/s) = 6.29466 7.35194 6.84375
#
# Compressibility (1/GPa) = 0.01909319
#
# Stress axis : x y z
#
# Youngs Moduli (GPa) = 90.36940 46.43633 47.55648
#
# Poissons Ratio (x) = 0.41706 0.19120
# Poissons Ratio (y) = 0.81164 0.20286
# Poissons Ratio (z) = 0.36333 0.19808
#
# Static dielectric constant tensor:
#      x y z
#    x 1.620330 0.000000 0.000000 
#    y 0.000000 1.641310 0.000000 
#    z 0.000000 0.000000 1.661880 
# 
# From -- ./inp_files/7509.got.cif
#   From: 2010.05.17/outbox.cif.g08.bks.cpg/sg72_4_cif.got.tgz:7509.got - 2010.06.03 17:03:01.
