data_PCOD9527375
_publ_section_title
;
Structure prediction by ZEFSAII (Michael W. Deem and Ramdas Pophale) SiO2 
 PCOD9527375
Probable space group: I B A M
;
_chemical_formula_sum "Si O2"
_cell_formula_units_Z 96
_cell_length_a 13.844638
_cell_length_b 14.173371
_cell_length_c 18.716241
_cell_angle_alpha 90.000000
_cell_angle_beta 90.000000
_cell_angle_gamma 90.000000
_cell_volume 3672.597960
_symmetry_space_group_name_H-M "I B A M"
_symmetry_group_IT_number 72
_symmetry_cell_setting 'orthorhombic'
loop_
_space_group_symop_operation_xyz
x,y,z
-x,-y,z
x,-y,1/2-z
-x,y,1/2-z
-x,-y,-z
x,y,-z
-x,y,1/2+z
x,-y,1/2+z
1/2+x,1/2+y,1/2+z
1/2-x,1/2-y,1/2+z
1/2+x,1/2-y,-z
1/2-x,1/2+y,-z
1/2-x,1/2-y,1/2-z
1/2+x,1/2+y,1/2-z
1/2-x,1/2+y,z
1/2+x,1/2-y,z
loop_
_atom_site_type_symbol
_atom_site_label
_atom_site_fract_x
_atom_site_fract_y
_atom_site_fract_z
Si Si1 0.303142 0.371670 0.301565
Si Si2 0.187383 0.988738 0.083369
Si Si3 0.104664 0.694086 0.225109
Si Si4 0.870180 0.758899 0.919627
Si Si5 0.585378 0.288005 0.578630
Si Si6 0.092714 0.447809 0.915390
O O1 0.344292 0.465431 0.339702
O O2 0.198940 0.371941 0.263719
O O3 0.371312 0.299284 0.257781
O O4 0.291723 0.311723 0.374666
O O5 0.150493 0.880929 0.085298
O O6 0.303388 0.996269 0.088685
O O7 0.161717 0.020989 0.000000
O O8 0.096472 0.714708 0.141312
O O9 0.000000 0.661073 0.250000
O O10 0.890787 0.657146 0.886851
O O11 0.971194 0.815203 0.918504
O O12 0.837320 0.746377 0.000000
O O13 0.599510 0.245402 0.500000
O O14 0.000000 0.500000 0.884233
O O15 0.072054 0.433799 0.000000
#
# Coordination Sequence:
#
# PCOD9527375 Si02
#       6
#    16  16  16  16  16  16
#     4  11  24  40  67  97 134 185 227 286 351 422
#     4  10  22  40  64 103 144 177 231 297 349 416
#     4  11  24  45  66  95 135 185 236 285 342 421
#     4  10  20  38  65  97 133 181 234 285 353 427
#     4  10  22  41  68  97 130 177 230 287 349 418
#     4   9  19  35  57  92 134 174 227 289 347 414
#
# _framework density 26.139533
#
# number of rings (size 3 to 8) (size 9 to 14) (size 15 to 20)
#    0.000    1.833    1.667    1.500    2.333    4.000 
#    0.000    3.333    0.000    0.000    4.333    0.000 
#    0.000    0.000    0.000    0.000    0.000    0.000 
#
# Total GULP energy -268125.480105 kJ/mol
# GULP energy per Si atom -5585.947502 kJ/mol
# Density = 2.608004 g / cm^3
# Si number density = 26.139533 Si / 1000 Ang^3
#
#
#
# Elastic Constant Matrix: (Units=GPa)
#
#
# Indices 1 2 3 4 5 6 
#
# 1 116.8639 9.9660 12.2136 0.0000 0.0000 0.0000
# 2 9.9660 63.8166 2.8192 0.0000 0.0000 0.0000
# 3 12.2136 2.8192 97.6695 0.0000 0.0000 0.0000
# 4 0.0000 0.0000 0.0000 20.7822 0.0000 0.0000
# 5 0.0000 0.0000 0.0000 0.0000 34.3364 0.0000
# 6 0.0000 0.0000 0.0000 0.0000 0.0000 28.3257
#
#
#
# Elastic Compliance Matrix: (Units=1/GPa)
#
#
# Indices 1 2 3 4 5 6 
#
# 1 0.008781 -0.001324 -0.001060 0.000000 0.000000 0.000000
# 2 -0.001324 0.015890 -0.000293 0.000000 0.000000 0.000000
# 3 -0.001060 -0.000293 0.010380 0.000000 0.000000 0.000000
# 4 0.000000 0.000000 0.000000 0.048118 0.000000 0.000000
# 5 0.000000 0.000000 0.000000 0.000000 0.029124 0.000000
# 6 0.000000 0.000000 0.000000 0.000000 0.000000 0.035304
#
#
# Mechanical properties :
#
#
# Convention : Reuss Voigt Hill
#
# Bulk Modulus (GPa) = 33.67521 36.48307 35.07914
# Shear Modulus (GPa) = 30.70344 33.57894 32.14119
#
# Velocity S-wave (km/s) = 3.43096 3.58802 3.51037
# Velocity P-wave (km/s) = 5.34847 5.58145 5.46620
#
# Compressibility (1/GPa) = 0.02969543
#
# Stress axis : x y z
#
# Youngs Moduli (GPa) = 113.88655 62.93397 96.34280
#
# Poissons Ratio (x) = 0.08335 0.10210
# Poissons Ratio (y) = 0.15083 0.02823
# Poissons Ratio (z) = 0.12070 0.01844
#
# Static dielectric constant tensor:
#      x y z
#    x 2.035000 0.000000 0.000000 
#    y 0.000000 2.116150 0.000000 
#    z 0.000000 0.000000 2.103960 
# 
# From -- ./inp_files/38049.got.cif
#   From: 2010.05.17/outbox.cif.g08.bks.cpg/sg72_20_cif.got.tgz:38049.got - 2010.06.03 17:03:01.
