data_PCOD9527734
_publ_section_title
;
Structure prediction by ZEFSAII (Michael W. Deem and Ramdas Pophale) SiO2 
 PCOD9527734
Probable space group: I B A M
;
_chemical_formula_sum "Si O2"
_cell_formula_units_Z 96
_cell_length_a 30.448472
_cell_length_b 20.404434
_cell_length_c 8.752731
_cell_angle_alpha 90.000000
_cell_angle_beta 90.000000
_cell_angle_gamma 90.000000
_cell_volume 5437.930303
_symmetry_space_group_name_H-M "I B A M"
_symmetry_group_IT_number 72
_symmetry_cell_setting 'orthorhombic'
loop_
_space_group_symop_operation_xyz
x,y,z
-x,-y,z
x,-y,1/2-z
-x,y,1/2-z
-x,-y,-z
x,y,-z
-x,y,1/2+z
x,-y,1/2+z
1/2+x,1/2+y,1/2+z
1/2-x,1/2-y,1/2+z
1/2+x,1/2-y,-z
1/2-x,1/2+y,-z
1/2-x,1/2-y,1/2-z
1/2+x,1/2+y,1/2-z
1/2-x,1/2+y,z
1/2+x,1/2-y,z
loop_
_atom_site_type_symbol
_atom_site_label
_atom_site_fract_x
_atom_site_fract_y
_atom_site_fract_z
Si Si1 0.163316 0.068683 0.816438
Si Si2 0.734104 0.931097 0.816446
Si Si3 0.373947 0.707455 0.183655
Si Si4 0.950988 0.710993 0.683119
Si Si5 0.549437 0.065544 0.317684
Si Si6 0.292496 0.212506 0.815685
O O1 0.214544 0.076561 0.769760
O O2 0.136480 0.132748 0.769210
O O3 0.147163 0.000000 0.750000
O O4 0.162690 0.065264 0.000000
O O5 0.709960 0.864223 0.771050
O O6 0.717744 0.000000 0.750000
O O7 0.732852 0.935291 0.000000
O O8 0.419548 0.734951 0.245746
O O9 0.335353 0.752414 0.251188
O O10 0.372815 0.710563 0.000000
O O11 0.952714 0.716524 0.500000
O O12 0.932329 0.637668 0.719137
O O13 0.000000 0.715319 0.750000
O O14 0.500000 0.067131 0.250000
O O15 0.547105 0.059053 0.500000
O O16 0.571154 0.000000 0.250000
O O17 0.250000 0.250000 0.750000
O O18 0.291624 0.216028 0.000000
#
# Coordination Sequence:
#
# PCOD9527734 Si02
#       6
#    16  16  16  16  16  16
#     4   9  18  33  52  78 108 138 177 221 265 318
#     4   9  18  33  51  75 107 143 183 223 265 318
#     4  11  22  37  56  82 112 143 182 226 272 325
#     4  10  21  37  56  81 109 143 183 227 277 327
#     4   9  16  27  47  73 101 130 170 215 260 313
#     4  11  21  35  54  79 111 144 180 223 268 321
#
# _framework density 17.653776000000001
#
# number of rings (size 3 to 8) (size 9 to 14) (size 15 to 20)
#    0.000    2.167    1.667    2.500    0.000    4.667 
#    0.000    0.833    0.000    0.500    0.000    3.500 
#    0.000    0.000    0.000    0.000    0.000    0.000 
#
# Total GULP energy -267753.009094 kJ/mol
# GULP energy per Si atom -5578.187689 kJ/mol
# Density = 1.761360 g / cm^3
# Si number density = 17.653776 Si / 1000 Ang^3
#
#
#
# Elastic Constant Matrix: (Units=GPa)
#
#
# Indices 1 2 3 4 5 6 
#
# 1 62.4416 59.5929 23.3963 0.0000 0.0000 0.0000
# 2 59.5929 193.6950 51.9714 0.0000 0.0000 0.0000
# 3 23.3963 51.9714 50.1417 0.0000 0.0000 0.0000
# 4 0.0000 0.0000 0.0000 35.2642 0.0000 0.0000
# 5 0.0000 0.0000 0.0000 0.0000 24.4497 0.0000
# 6 0.0000 0.0000 0.0000 0.0000 0.0000 27.7679
#
#
#
# Elastic Compliance Matrix: (Units=1/GPa)
#
#
# Indices 1 2 3 4 5 6 
#
# 1 0.023479 -0.005935 -0.004804 0.000000 0.000000 0.000000
# 2 -0.005935 0.008652 -0.006198 0.000000 0.000000 0.000000
# 3 -0.004804 -0.006198 0.028610 0.000000 0.000000 0.000000
# 4 0.000000 0.000000 0.000000 0.028357 0.000000 0.000000
# 5 0.000000 0.000000 0.000000 0.000000 0.040900 0.000000
# 6 0.000000 0.000000 0.000000 0.000000 0.000000 0.036013
#
#
# Mechanical properties :
#
#
# Convention : Reuss Voigt Hill
#
# Bulk Modulus (GPa) = 37.22172 64.02216 50.62194
# Shear Modulus (GPa) = 23.94174 28.91754 26.42964
#
# Velocity S-wave (km/s) = 3.68663 4.05166 3.87345
# Velocity P-wave (km/s) = 6.26512 7.63099 6.98154
#
# Compressibility (1/GPa) = 0.02686603
#
# Stress axis : x y z
#
# Youngs Moduli (GPa) = 42.59148 115.58416 34.95320
#
# Poissons Ratio (x) = 0.68594 0.16792
# Poissons Ratio (y) = 0.25276 0.21665
# Poissons Ratio (z) = 0.20462 0.71643
#
# Static dielectric constant tensor:
#      x y z
#    x 1.590740 0.000000 0.000000 
#    y 0.000000 1.629450 0.000000 
#    z 0.000000 0.000000 1.588630 
# 
# From -- ./inp_files/8047.got.cif
#   From: 2010.05.17/outbox.cif.g08.bks.cpg/sg72_5_cif.got.tgz:8047.got - 2010.06.03 17:03:01.
