data_PCOD9527511
_publ_section_title
;
Structure prediction by ZEFSAII (Michael W. Deem and Ramdas Pophale) SiO2 
 PCOD9527511
Probable space group: I B A M
;
_chemical_formula_sum "Si O2"
_cell_formula_units_Z 72
_cell_length_a 14.561703
_cell_length_b 8.266456
_cell_length_c 26.955264
_cell_angle_alpha 90.000000
_cell_angle_beta 90.000000
_cell_angle_gamma 90.000000
_cell_volume 3244.704246
_symmetry_space_group_name_H-M "I B A M"
_symmetry_group_IT_number 72
_symmetry_cell_setting 'orthorhombic'
loop_
_space_group_symop_operation_xyz
x,y,z
-x,-y,z
x,-y,1/2-z
-x,y,1/2-z
-x,-y,-z
x,y,-z
-x,y,1/2+z
x,-y,1/2+z
1/2+x,1/2+y,1/2+z
1/2-x,1/2-y,1/2+z
1/2+x,1/2-y,-z
1/2-x,1/2+y,-z
1/2-x,1/2-y,1/2-z
1/2+x,1/2+y,1/2-z
1/2-x,1/2+y,z
1/2+x,1/2-y,z
loop_
_atom_site_type_symbol
_atom_site_label
_atom_site_fract_x
_atom_site_fract_y
_atom_site_fract_z
Si Si1 0.000000 0.000000 0.250000
Si Si2 0.110394 0.784341 0.608543
Si Si3 0.645342 0.894939 0.000000
Si Si4 0.049091 0.250601 0.000000
Si Si5 0.500000 0.000000 0.250000
Si Si6 0.709407 0.066995 0.391919
Si Si7 0.571386 0.253351 0.324650
O O1 0.066666 0.098488 0.286703
O O2 0.079997 0.822081 0.552174
O O3 0.184986 0.917828 0.623981
O O4 0.161265 0.608603 0.611508
O O5 0.020221 0.771678 0.641908
O O6 0.560697 0.770903 0.000000
O O7 0.702867 0.882180 0.050149
O O8 0.595863 0.070523 0.000000
O O9 0.439272 0.894034 0.286337
O O10 0.652241 0.198319 0.360661
#
# Coordination Sequence:
#
# PCOD9527511 Si02
#       7
#     4  16   8   8   4  16  16
#     4  10  28  42  70  88 120 160 204 286 310 360
#     4  11  22  38  65  95 129 166 204 249 302 373
#     4   9  17  34  61  94 127 166 203 238 297 370
#     4   9  17  34  61  94 127 166 203 238 297 370
#     4  10  20  42  70  84 108 164 216 254 306 372
#     4  11  22  38  65  95 129 166 204 249 302 373
#     4  11  22  45  65  88 123 162 208 256 324 363
#
# _framework density 22.190003000000001
#
# number of rings (size 3 to 8) (size 9 to 14) (size 15 to 20)
#    0.000    1.556    4.444    0.667    3.111    0.000 
#    0.000    6.667    0.000    2.667    0.000    0.000 
#    0.000    0.000    0.000    0.000    0.000    0.000 
#
# Total GULP energy -201149.534006 kJ/mol
# GULP energy per Si atom -5587.487056 kJ/mol
# Density = 2.213950 g / cm^3
# Si number density = 22.190003 Si / 1000 Ang^3
#
#
#
# Elastic Constant Matrix: (Units=GPa)
#
#
# Indices 1 2 3 4 5 6 
#
# 1 64.8199 -14.4477 27.5897 0.0000 0.0000 0.0000
# 2 -14.4477 53.6266 29.9573 0.0000 0.0000 0.0000
# 3 27.5897 29.9573 148.2723 0.0000 0.0000 0.0000
# 4 0.0000 0.0000 0.0000 22.9713 0.0000 0.0000
# 5 0.0000 0.0000 0.0000 0.0000 14.7767 0.0000
# 6 0.0000 0.0000 0.0000 0.0000 0.0000 4.1253
#
#
#
# Elastic Compliance Matrix: (Units=1/GPa)
#
#
# Indices 1 2 3 4 5 6 
#
# 1 0.019508 0.008210 -0.005289 0.000000 0.000000 0.000000
# 2 0.008210 0.024475 -0.006473 0.000000 0.000000 0.000000
# 3 -0.005289 -0.006473 0.009036 0.000000 0.000000 0.000000
# 4 0.000000 0.000000 0.000000 0.043533 0.000000 0.000000
# 5 0.000000 0.000000 0.000000 0.000000 0.067674 0.000000
# 6 0.000000 0.000000 0.000000 0.000000 0.000000 0.242407
#
#
# Mechanical properties :
#
#
# Convention : Reuss Voigt Hill
#
# Bulk Modulus (GPa) = 21.77825 39.21307 30.49566
# Shear Modulus (GPa) = 11.65387 23.28263 17.46825
#
# Velocity S-wave (km/s) = 2.29418 3.24271 2.80877
# Velocity P-wave (km/s) = 4.10529 5.63295 4.92867
#
# Compressibility (1/GPa) = 0.04591736
#
# Stress axis : x y z
#
# Youngs Moduli (GPa) = 51.25974 40.85755 110.66534
#
# Poissons Ratio (x) = -0.33545 0.58529
# Poissons Ratio (y) = -0.42086 0.71631
# Poissons Ratio (z) = 0.27111 0.26446
#
# Static dielectric constant tensor:
#      x y z
#    x 1.759010 0.000000 0.000000 
#    y 0.000000 1.909270 0.000000 
#    z 0.000000 0.000000 1.670500 
# 
# From -- ./inp_files/51680.got.cif
#   From: 2010.05.17/outbox.cif.g08.bks.cpg/sg72_26_cif.got.tgz:51680.got - 2010.06.03 17:03:01.
