data_PCOD9527285
_publ_section_title
;
Structure prediction by ZEFSAII (Michael W. Deem and Ramdas Pophale) SiO2 
 PCOD9527285
Probable space group: I B A M
;
_chemical_formula_sum "Si O2"
_cell_formula_units_Z 52
_cell_length_a 10.238928
_cell_length_b 28.567107
_cell_length_c 10.294881
_cell_angle_alpha 90.000000
_cell_angle_beta 90.000000
_cell_angle_gamma 90.000000
_cell_volume 3011.217193
_symmetry_space_group_name_H-M "I B A M"
_symmetry_group_IT_number 72
_symmetry_cell_setting 'orthorhombic'
loop_
_space_group_symop_operation_xyz
x,y,z
-x,-y,z
x,-y,1/2-z
-x,y,1/2-z
-x,-y,-z
x,y,-z
-x,y,1/2+z
x,-y,1/2+z
1/2+x,1/2+y,1/2+z
1/2-x,1/2-y,1/2+z
1/2+x,1/2-y,-z
1/2-x,1/2+y,-z
1/2-x,1/2-y,1/2-z
1/2+x,1/2+y,1/2-z
1/2-x,1/2+y,z
1/2+x,1/2-y,z
loop_
_atom_site_type_symbol
_atom_site_label
_atom_site_fract_x
_atom_site_fract_y
_atom_site_fract_z
Si Si1 0.352863 0.853548 0.733605
Si Si2 0.805636 0.699016 0.000000
Si Si3 0.000000 0.000000 0.750000
Si Si4 0.601534 0.781291 0.000000
Si Si5 0.895011 0.908244 0.852499
O O1 0.500000 0.872567 0.750000
O O2 0.363876 0.812262 0.626688
O O3 0.247949 0.890694 0.684223
O O4 0.307400 0.832356 0.870753
O O5 0.945390 0.726106 0.000000
O O6 0.686111 0.734650 0.000000
O O7 0.913438 0.964140 0.833946
O O8 0.000000 0.887790 0.750000
O O9 0.925755 0.895075 0.000000
#
# Coordination Sequence:
#
# PCOD9527285 Si02
#       5
#    16   8   4   8  16
#     4  10  21  37  58  83 117 157 191 240 290 345
#     4  10  22  34  56  82 115 151 197 235 288 344
#     4   8  22  36  64  88 122 144 192 244 294 340
#     4  10  20  38  54  80 117 153 193 243 288 336
#     4  10  21  38  61  87 118 149 190 240 293 343
#
# _framework density 17.268764999999998
#
# number of rings (size 3 to 8) (size 9 to 14) (size 15 to 20)
#    0.923    1.231    1.538    1.385    2.154    2.462 
#    0.000    0.769    0.000    1.846    0.000    0.000 
#    0.000    0.000    0.000    0.000    0.000    0.000 
#
# Total GULP energy -144862.601594 kJ/mol
# GULP energy per Si atom -5571.638523 kJ/mol
# Density = 1.722946 g / cm^3
# Si number density = 17.268765 Si / 1000 Ang^3
#
#
#
# Elastic Constant Matrix: (Units=GPa)
#
#
# Indices 1 2 3 4 5 6 
#
# 1 91.5172 42.1886 39.7205 0.0001 -0.0006 0.0002
# 2 42.1886 38.1589 17.7879 0.0001 -0.0002 0.0000
# 3 39.7205 17.7879 146.0224 0.0001 -0.0014 0.0005
# 4 0.0001 0.0001 0.0001 -0.6856 -0.0014 0.0002
# 5 -0.0006 -0.0002 -0.0014 -0.0014 12.5969 0.0004
# 6 0.0002 0.0000 0.0005 0.0002 0.0004 33.8179
#
#
#
# Elastic Compliance Matrix: (Units=1/GPa)
#
#
# Indices 1 2 3 4 5 6 
#
# 1 0.023836 -0.024735 -0.003471 0.000001 0.000000 0.000000
# 2 -0.024735 0.053452 0.000217 0.000001 0.000000 0.000000
# 3 -0.003471 0.000217 0.007766 0.000001 0.000001 0.000000
# 4 0.000001 0.000001 0.000001 -1.458552 -0.000166 0.000008
# 5 0.000000 0.000000 0.000001 -0.000166 0.079384 -0.000001
# 6 0.000000 0.000000 0.000000 0.000008 -0.000001 0.029570
#
#
# Mechanical properties :
#
#
# Convention : Reuss Voigt Hill
#
# Bulk Modulus (GPa) = 34.39197 52.78808 43.59003
# Shear Modulus (GPa) = -4.17059 20.87927 8.35434
#
# Velocity S-wave (km/s) = -1.55575 3.48095 2.20189
# Velocity P-wave (km/s) = 4.09045 6.84039 5.63572
#
# Compressibility (1/GPa) = 0.02907655
#
# Stress axis : x y z
#
# Youngs Moduli (GPa) = 41.95334 18.70821 128.76813
#
# Poissons Ratio (x) = 0.46275 0.44691
# Poissons Ratio (y) = 1.03773 -0.02795
# Poissons Ratio (z) = 0.14560 -0.00406
#
# Static dielectric constant tensor:
#      x y z
#    x 1.581880 0.000000 0.000000 
#    y 0.000000 1.556880 0.000000 
#    z 0.000000 0.000000 1.594240 
# 
# From -- ./inp_files/2508.got.cif
#   From: 2010.05.17/outbox.cif.g08.bks.cpg/sg72_2_cif.got.tgz:2508.got - 2010.06.03 17:03:01.
