data_PCOD9527481
_publ_section_title
;
Structure prediction by ZEFSAII (Michael W. Deem and Ramdas Pophale) SiO2 
 PCOD9527481
Probable space group: I B A M
;
_chemical_formula_sum "Si O2"
_cell_formula_units_Z 104
_cell_length_a 9.219210
_cell_length_b 19.382637
_cell_length_c 28.957112
_cell_angle_alpha 90.000000
_cell_angle_beta 90.000000
_cell_angle_gamma 90.000000
_cell_volume 5174.421657
_symmetry_space_group_name_H-M "I B A M"
_symmetry_group_IT_number 72
_symmetry_cell_setting 'orthorhombic'
loop_
_space_group_symop_operation_xyz
x,y,z
-x,-y,z
x,-y,1/2-z
-x,y,1/2-z
-x,-y,-z
x,y,-z
-x,y,1/2+z
x,-y,1/2+z
1/2+x,1/2+y,1/2+z
1/2-x,1/2-y,1/2+z
1/2+x,1/2-y,-z
1/2-x,1/2+y,-z
1/2-x,1/2-y,1/2-z
1/2+x,1/2+y,1/2-z
1/2-x,1/2+y,z
1/2+x,1/2-y,z
loop_
_atom_site_type_symbol
_atom_site_label
_atom_site_fract_x
_atom_site_fract_y
_atom_site_fract_z
Si Si1 0.251796 0.167218 0.500000
Si Si2 0.097254 0.682888 0.000000
Si Si3 0.560155 0.209822 0.298607
Si Si4 0.772904 0.113490 0.101270
Si Si5 0.260272 0.608582 0.917320
Si Si6 0.313856 0.259339 0.358847
Si Si7 0.500000 0.500000 0.590938
Si Si8 0.484043 0.926356 0.345167
O O1 0.162296 0.239306 0.500000
O O2 0.423213 0.185570 0.500000
O O3 0.219972 0.122942 0.454046
O O4 0.157990 0.639260 0.956930
O O5 0.500000 0.234989 0.250000
O O6 0.472167 0.240674 0.341675
O O7 0.725475 0.221745 0.312364
O O8 0.524703 0.129933 0.305514
O O9 0.765033 0.192399 0.119633
O O10 0.620522 0.085291 0.120743
O O11 0.899462 0.059273 0.115461
O O12 0.326266 0.677643 0.894196
O O13 0.378062 0.550752 0.932107
O O14 0.158100 0.578361 0.877144
O O15 0.500000 0.000000 0.323368
#
# Coordination Sequence:
#
# PCOD9527481 Si02
#       8
#     8   8  16  16  16  16   8  16
#     4  12  26  40  63  91 129 167 221 267 318 370
#     4  12  26  40  63  91 129 167 221 267 318 370
#     4  10  21  36  62  92 120 155 202 260 314 381
#     4  11  23  40  63  91 124 172 209 263 312 377
#     4  11  23  40  63  91 124 172 209 263 312 377
#     4  10  21  39  64  90 126 162 206 251 321 382
#     4  12  26  39  62  96 129 156 224 266 313 360
#     4  10  20  41  59  84 119 166 208 247 322 383
#
# _framework density 20.098863000000001
#
# number of rings (size 3 to 8) (size 9 to 14) (size 15 to 20)
#    0.000    1.231    4.615    1.385    2.154    1.538 
#    0.000    1.538    0.000    0.000    0.000    6.462 
#    0.000    0.000    0.000    0.000    0.000    0.000 
#
# Total GULP energy -289740.968859 kJ/mol
# GULP energy per Si atom -5571.941709 kJ/mol
# Density = 2.005312 g / cm^3
# Si number density = 20.098863 Si / 1000 Ang^3
#
#
#
# Elastic Constant Matrix: (Units=GPa)
#
#
# Indices 1 2 3 4 5 6 
#
# 1 84.4179 28.7656 -1.2774 0.0000 0.0000 0.0000
# 2 28.7656 113.1652 5.1946 0.0000 0.0000 0.0000
# 3 -1.2774 5.1946 50.4968 0.0000 0.0000 0.0000
# 4 0.0000 0.0000 0.0000 19.3154 0.0000 0.0000
# 5 0.0000 0.0000 0.0000 0.0000 9.4526 0.0000
# 6 0.0000 0.0000 0.0000 0.0000 0.0000 31.1545
#
#
#
# Elastic Compliance Matrix: (Units=1/GPa)
#
#
# Indices 1 2 3 4 5 6 
#
# 1 0.012992 -0.003333 0.000672 0.000000 0.000000 0.000000
# 2 -0.003333 0.009734 -0.001086 0.000000 0.000000 0.000000
# 3 0.000672 -0.001086 0.019932 0.000000 0.000000 0.000000
# 4 0.000000 0.000000 0.000000 0.051772 0.000000 0.000000
# 5 0.000000 0.000000 0.000000 0.000000 0.105791 0.000000
# 6 0.000000 0.000000 0.000000 0.000000 0.000000 0.032098
#
#
# Mechanical properties :
#
#
# Convention : Reuss Voigt Hill
#
# Bulk Modulus (GPa) = 28.43915 34.82728 31.63322
# Shear Modulus (GPa) = 19.87800 26.34429 23.11115
#
# Velocity S-wave (km/s) = 3.14827 3.62434 3.39466
# Velocity P-wave (km/s) = 5.23410 5.90593 5.58013
#
# Compressibility (1/GPa) = 0.03516279
#
# Stress axis : x y z
#
# Youngs Moduli (GPa) = 76.97162 102.73531 50.17088
#
# Poissons Ratio (x) = 0.34244 -0.03369
# Poissons Ratio (y) = 0.25656 0.05447
# Poissons Ratio (z) = -0.05169 0.11153
#
# Static dielectric constant tensor:
#      x y z
#    x 1.716540 0.000000 0.000000 
#    y 0.000000 1.742340 0.000000 
#    z 0.000000 0.000000 1.696120 
# 
# From -- ./inp_files/47449.got.cif
#   From: 2010.05.17/outbox.cif.g08.bks.cpg/sg72_24_cif.got.tgz:47449.got - 2010.06.03 17:03:01.
