data_PCOD9527143
_publ_section_title
;
Structure prediction by ZEFSAII (Michael W. Deem and Ramdas Pophale) SiO2 
 PCOD9527143
Probable space group: I B A M
;
_chemical_formula_sum "Si O2"
_cell_formula_units_Z 64
_cell_length_a 14.655153
_cell_length_b 7.929877
_cell_length_c 22.571414
_cell_angle_alpha 90.000000
_cell_angle_beta 90.000000
_cell_angle_gamma 90.000000
_cell_volume 2623.104391
_symmetry_space_group_name_H-M "I B A M"
_symmetry_group_IT_number 72
_symmetry_cell_setting 'orthorhombic'
loop_
_space_group_symop_operation_xyz
x,y,z
-x,-y,z
x,-y,1/2-z
-x,y,1/2-z
-x,-y,-z
x,y,-z
-x,y,1/2+z
x,-y,1/2+z
1/2+x,1/2+y,1/2+z
1/2-x,1/2-y,1/2+z
1/2+x,1/2-y,-z
1/2-x,1/2+y,-z
1/2-x,1/2-y,1/2-z
1/2+x,1/2+y,1/2-z
1/2-x,1/2+y,z
1/2+x,1/2-y,z
loop_
_atom_site_type_symbol
_atom_site_label
_atom_site_fract_x
_atom_site_fract_y
_atom_site_fract_z
Si Si1 0.154379 0.235186 0.500000
Si Si2 0.383788 0.841146 0.368600
Si Si3 0.723635 0.481791 0.319477
Si Si4 0.441386 0.325082 0.626502
Si Si5 0.365391 0.330707 0.500000
O O1 0.117630 0.314067 0.560669
O O2 0.262723 0.264417 0.500000
O O3 0.135890 0.035212 0.500000
O O4 0.325701 0.689758 0.338568
O O5 0.320352 0.997983 0.352369
O O6 0.487596 0.811374 0.348360
O O7 0.738566 0.500000 0.250000
O O8 0.649689 0.623495 0.338913
O O9 0.500000 0.500000 0.623443
O O10 0.414014 0.276883 0.559967
#
# Coordination Sequence:
#
# PCOD9527143 Si02
#       5
#     8  16  16  16   8
#     4  12  19  36  65  95 129 167 212 266 338 376
#     4  11  22  39  65  92 128 167 216 267 325 381
#     4  11  23  41  63  92 127 169 217 266 317 383
#     4  10  20  36  63  92 121 168 216 259 312 386
#     4  12  20  37  64  94 133 163 218 269 323 388
#
# _framework density 24.398572000000001
#
# number of rings (size 3 to 8) (size 9 to 14) (size 15 to 20)
#    0.000    1.000    7.500    1.875    0.000    4.500 
#    0.000    1.250    0.000    4.500    0.000    0.000 
#    0.000    0.000    0.000    0.000    0.000    0.000 
#
# Total GULP energy -179282.158353 kJ/mol
# GULP energy per Si atom -5602.567449 kJ/mol
# Density = 2.434304 g / cm^3
# Si number density = 24.398572 Si / 1000 Ang^3
#
#
#
# Elastic Constant Matrix: (Units=GPa)
#
#
# Indices 1 2 3 4 5 6 
#
# 1 165.3990 4.0759 17.3062 0.0000 0.0000 0.0000
# 2 4.0759 76.6339 2.1556 0.0000 0.0000 0.0000
# 3 17.3062 2.1556 124.2193 0.0000 0.0000 0.0000
# 4 0.0000 0.0000 0.0000 -1.2457 0.0000 0.0000
# 5 0.0000 0.0000 0.0000 0.0000 434.1798 0.0000
# 6 0.0000 0.0000 0.0000 0.0000 0.0000 35.4705
#
#
#
# Elastic Compliance Matrix: (Units=1/GPa)
#
#
# Indices 1 2 3 4 5 6 
#
# 1 0.006142 -0.000303 -0.000851 0.000000 0.000000 0.000000
# 2 -0.000303 0.013070 -0.000185 0.000000 0.000000 0.000000
# 3 -0.000851 -0.000185 0.008172 0.000000 0.000000 0.000000
# 4 0.000000 0.000000 0.000000 -0.802748 0.000000 0.000000
# 5 0.000000 0.000000 0.000000 0.000000 0.002303 0.000000
# 6 0.000000 0.000000 0.000000 0.000000 0.000000 0.028192
#
#
# Mechanical properties :
#
#
# Convention : Reuss Voigt Hill
#
# Bulk Modulus (GPa) = 40.47117 45.92528 43.19823
# Shear Modulus (GPa) = -6.81241 116.52856 54.85807
#
# Velocity S-wave (km/s) = -1.67278 6.91839 4.74689
# Velocity P-wave (km/s) = 3.59063 9.09300 6.91286
#
# Compressibility (1/GPa) = 0.02470895
#
# Stress axis : x y z
#
# Youngs Moduli (GPa) = 162.80184 76.50908 122.36943
#
# Poissons Ratio (x) = 0.02316 0.10408
# Poissons Ratio (y) = 0.04929 0.02259
# Poissons Ratio (z) = 0.13846 0.01413
#
# Static dielectric constant tensor:
#      x y z
#    x 1.916340 0.000000 0.000000 
#    y 0.000000 2.028060 0.000000 
#    z 0.000000 0.000000 1.855730 
# 
# From -- ./inp_files/41965.got.cif
#   From: 2010.05.17/outbox.cif.g08.bks.cpg/sg72_21_cif.got.tgz:41965.got - 2010.06.03 17:03:01.
