data_PCOD9527362
_publ_section_title
;
Structure prediction by ZEFSAII (Michael W. Deem and Ramdas Pophale) SiO2 
 PCOD9527362
Probable space group: I B A M
;
_chemical_formula_sum "Si O2"
_cell_formula_units_Z 120
_cell_length_a 11.253996
_cell_length_b 24.784276
_cell_length_c 21.096168
_cell_angle_alpha 90.000000
_cell_angle_beta 90.000000
_cell_angle_gamma 90.000000
_cell_volume 5884.188387
_symmetry_space_group_name_H-M "I B A M"
_symmetry_group_IT_number 72
_symmetry_cell_setting 'orthorhombic'
loop_
_space_group_symop_operation_xyz
x,y,z
-x,-y,z
x,-y,1/2-z
-x,y,1/2-z
-x,-y,-z
x,y,-z
-x,y,1/2+z
x,-y,1/2+z
1/2+x,1/2+y,1/2+z
1/2-x,1/2-y,1/2+z
1/2+x,1/2-y,-z
1/2-x,1/2+y,-z
1/2-x,1/2-y,1/2-z
1/2+x,1/2+y,1/2-z
1/2-x,1/2+y,z
1/2+x,1/2-y,z
loop_
_atom_site_type_symbol
_atom_site_label
_atom_site_fract_x
_atom_site_fract_y
_atom_site_fract_z
Si Si1 0.198841 0.281756 0.926407
Si Si2 0.169558 0.604686 0.358996
Si Si3 0.809813 0.134893 0.263805
Si Si4 0.876155 0.971780 0.188313
Si Si5 0.556607 0.771698 0.115915
Si Si6 0.500000 0.271636 0.750000
Si Si7 0.409239 0.113151 0.858571
Si Si8 0.702310 0.989456 0.076234
O O1 0.182596 0.342708 0.902436
O O2 0.318891 0.258309 0.895306
O O3 0.069728 0.253617 0.914478
O O4 0.222379 0.280178 0.000000
O O5 0.267942 0.613789 0.304864
O O6 0.173235 0.549983 0.399870
O O7 0.038684 0.605813 0.328082
O O8 0.893516 0.090208 0.294914
O O9 0.883701 0.190251 0.260954
O O10 0.693709 0.129405 0.308924
O O11 0.815649 0.977016 0.120432
O O12 0.811063 0.000000 0.250000
O O13 0.000000 0.000000 0.184108
O O14 0.526763 0.765235 0.189970
O O15 0.579429 0.833858 0.097596
O O16 0.382613 0.058744 0.898134
O O17 0.713496 0.987440 0.000000
#
# Coordination Sequence:
#
# PCOD9527362 Si02
#       8
#    16  16  16  16  16   8  16  16
#     4  11  24  43  66  96 135 179 226 274 336 408
#     4  11  22  41  65  97 130 173 222 274 334 402
#     4  11  22  39  63  99 131 169 212 276 336 403
#     4  10  20  38  64  91 130 176 217 265 328 403
#     4  11  25  43  68  99 131 179 222 284 338 412
#     4  12  24  40  71 100 139 164 220 282 348 396
#     4  10  25  40  63  93 130 175 220 271 338 397
#     4  11  24  42  64  96 134 172 223 280 334 398
#
# _framework density 20.393636999999998
#
# number of rings (size 3 to 8) (size 9 to 14) (size 15 to 20)
#    0.000    1.200    2.667    3.200    3.733    5.067 
#    0.000    1.333    0.000    2.400    0.000    0.000 
#    0.000    0.000    0.000    0.000    0.000    0.000 
#
# Total GULP energy -334377.120117 kJ/mol
# GULP energy per Si atom -5572.952002 kJ/mol
# Density = 2.034722 g / cm^3
# Si number density = 20.393637 Si / 1000 Ang^3
#
#
#
# Elastic Constant Matrix: (Units=GPa)
#
#
# Indices 1 2 3 4 5 6 
#
# 1 105.3806 32.3791 27.9375 0.0000 0.0000 0.0000
# 2 32.3791 96.9676 9.5880 0.0000 0.0000 0.0000
# 3 27.9375 9.5880 88.7188 0.0000 0.0000 0.0000
# 4 0.0000 0.0000 0.0000 18.8761 0.0000 0.0000
# 5 0.0000 0.0000 0.0000 0.0000 -17.3600 0.0000
# 6 0.0000 0.0000 0.0000 0.0000 0.0000 34.6136
#
#
#
# Elastic Compliance Matrix: (Units=1/GPa)
#
#
# Indices 1 2 3 4 5 6 
#
# 1 0.011416 -0.003494 -0.003217 0.000000 0.000000 0.000000
# 2 -0.003494 0.011493 -0.000142 0.000000 0.000000 0.000000
# 3 -0.003217 -0.000142 0.012300 0.000000 0.000000 0.000000
# 4 0.000000 0.000000 0.000000 0.052977 0.000000 0.000000
# 5 0.000000 0.000000 0.000000 0.000000 -0.057604 0.000000
# 6 0.000000 0.000000 0.000000 0.000000 0.000000 0.028890
#
#
# Mechanical properties :
#
#
# Convention : Reuss Voigt Hill
#
# Bulk Modulus (GPa) = 46.50453 47.87514 47.18984
# Shear Modulus (GPa) = 62.23015 21.97010 42.10012
#
# Velocity S-wave (km/s) = 5.52999 3.28579 4.54847
# Velocity P-wave (km/s) = 7.97667 6.15806 7.12562
#
# Compressibility (1/GPa) = 0.02150328
#
# Stress axis : x y z
#
# Youngs Moduli (GPa) = 87.59748 87.00638 81.30073
#
# Poissons Ratio (x) = 0.30399 0.26157
# Poissons Ratio (y) = 0.30605 0.01154
# Poissons Ratio (z) = 0.28182 0.01235
#
# Static dielectric constant tensor:
#      x y z
#    x 1.789500 0.000000 0.000000 
#    y 0.000000 1.756820 0.000000 
#    z 0.000000 0.000000 1.705590 
# 
# From -- ./inp_files/37370.got.cif
#   From: 2010.05.17/outbox.cif.g08.bks.cpg/sg72_19_cif.got.tgz:37370.got - 2010.06.03 17:03:01.
