data_PCOD9527692
_publ_section_title
;
Structure prediction by ZEFSAII (Michael W. Deem and Ramdas Pophale) SiO2 
 PCOD9527692
Probable space group: I B A M
;
_chemical_formula_sum "Si O2"
_cell_formula_units_Z 96
_cell_length_a 22.841637
_cell_length_b 14.635461
_cell_length_c 14.808111
_cell_angle_alpha 90.000000
_cell_angle_beta 90.000000
_cell_angle_gamma 90.000000
_cell_volume 4950.320225
_symmetry_space_group_name_H-M "I B A M"
_symmetry_group_IT_number 72
_symmetry_cell_setting 'orthorhombic'
loop_
_space_group_symop_operation_xyz
x,y,z
-x,-y,z
x,-y,1/2-z
-x,y,1/2-z
-x,-y,-z
x,y,-z
-x,y,1/2+z
x,-y,1/2+z
1/2+x,1/2+y,1/2+z
1/2-x,1/2-y,1/2+z
1/2+x,1/2-y,-z
1/2-x,1/2+y,-z
1/2-x,1/2-y,1/2-z
1/2+x,1/2+y,1/2-z
1/2-x,1/2+y,z
1/2+x,1/2-y,z
loop_
_atom_site_type_symbol
_atom_site_label
_atom_site_fract_x
_atom_site_fract_y
_atom_site_fract_z
Si Si1 0.406893 0.000000 0.892655
Si Si2 0.500000 0.152440 0.650064
Si Si3 0.268602 0.000000 0.110294
Si Si4 0.500000 0.351952 0.899473
Si Si5 0.776865 0.850679 0.250000
Si Si6 0.405196 0.395363 0.750000
O O1 0.443561 0.087924 0.860828
O O2 0.338609 0.000000 0.869948
O O3 0.443561 0.912076 0.860827
O O4 0.411538 0.000000 0.000000
O O5 0.500000 0.191189 0.750000
O O6 0.500000 0.242424 0.591819
O O7 0.242028 0.088394 0.162396
O O8 0.242028 0.911606 0.162396
O O9 0.260310 0.000000 0.000000
O O10 0.444516 0.379527 0.838529
O O11 0.555483 0.379527 0.838528
O O12 0.500000 0.391396 0.000000
O O13 0.750000 0.750000 0.250000
O O14 0.846644 0.837411 0.250000
O O15 0.385265 0.500000 0.750000
#
# Coordination Sequence:
#
# PCOD9527692 Si02
#       6
#    16  16  16  16  16  16
#     4  10  21  36  59  92 131 165 205 249 310 389
#     4  11  21  35  59  95 131 167 205 252 315 377
#     4  10  24  44  68  98 129 172 220 265 325 393
#     4  11  24  40  67  94 125 164 208 267 320 370
#     4  11  26  45  70  94 135 173 218 275 323 383
#     4  11  24  47  63  94 125 158 218 264 317 389
#
# _framework density 19.392685
#
# number of rings (size 3 to 8) (size 9 to 14) (size 15 to 20)
#    0.000    1.333    3.333    4.000    9.333    3.333 
#    0.000    0.000    0.000    0.000    0.000    0.000 
#    0.000    0.000    0.000    0.000    0.000    0.000 
#
# Total GULP energy -267921.016273 kJ/mol
# GULP energy per Si atom -5581.687839 kJ/mol
# Density = 1.934855 g / cm^3
# Si number density = 19.392685 Si / 1000 Ang^3
#
#
#
# Elastic Constant Matrix: (Units=GPa)
#
#
# Indices 1 2 3 4 5 6 
#
# 1 138.3530 13.3987 50.0066 0.0000 0.0000 0.0000
# 2 13.3987 100.9688 24.9882 0.0000 0.0000 0.0000
# 3 50.0066 24.9882 166.3015 0.0000 0.0000 0.0000
# 4 0.0000 0.0000 0.0000 -7.1125 0.0000 0.0000
# 5 0.0000 0.0000 0.0000 0.0000 18.2779 0.0000
# 6 0.0000 0.0000 0.0000 0.0000 0.0000 15.3673
#
#
#
# Elastic Compliance Matrix: (Units=1/GPa)
#
#
# Indices 1 2 3 4 5 6 
#
# 1 0.008133 -0.000492 -0.002372 0.000000 0.000000 0.000000
# 2 -0.000492 0.010316 -0.001402 0.000000 0.000000 0.000000
# 3 -0.002372 -0.001402 0.006937 0.000000 0.000000 0.000000
# 4 0.000000 0.000000 0.000000 -0.140598 0.000000 0.000000
# 5 0.000000 0.000000 0.000000 0.000000 0.054711 0.000000
# 6 0.000000 0.000000 0.000000 0.000000 0.000000 0.065073
#
#
# Mechanical properties :
#
#
# Convention : Reuss Voigt Hill
#
# Bulk Modulus (GPa) = 59.33229 64.71226 62.02227
# Shear Modulus (GPa) = 267.05356 26.45518 146.75437
#
# Velocity S-wave (km/s) = 11.74765 3.69749 8.70858
# Velocity P-wave (km/s) = 14.65167 7.18822 11.53997
#
# Compressibility (1/GPa) = 0.01685423
#
# Stress axis : x y z
#
# Youngs Moduli (GPa) = 122.95984 96.93328 144.15524
#
# Poissons Ratio (x) = 0.04772 0.34187
# Poissons Ratio (y) = 0.06053 0.20212
# Poissons Ratio (z) = 0.29160 0.13591
#
# Static dielectric constant tensor:
#      x y z
#    x 1.673470 0.000000 0.000000 
#    y 0.000000 1.734340 0.000000 
#    z 0.000000 0.000000 1.687290 
# 
# From -- ./inp_files/24150.got.cif
#   From: 2010.05.17/outbox.cif.g08.bks.cpg/sg72_13_cif.got.tgz:24150.got - 2010.06.03 17:03:01.
