data_PCOD9527339
_publ_section_title
;
Structure prediction by ZEFSAII (Michael W. Deem and Ramdas Pophale) SiO2 
 PCOD9527339
Probable space group: I B A M
;
_chemical_formula_sum "Si O2"
_cell_formula_units_Z 84
_cell_length_a 7.574030
_cell_length_b 19.227181
_cell_length_c 25.306904
_cell_angle_alpha 90.000000
_cell_angle_beta 90.000000
_cell_angle_gamma 90.000000
_cell_volume 3685.374727
_symmetry_space_group_name_H-M "I B A M"
_symmetry_group_IT_number 72
_symmetry_cell_setting 'orthorhombic'
loop_
_space_group_symop_operation_xyz
x,y,z
-x,-y,z
x,-y,1/2-z
-x,y,1/2-z
-x,-y,-z
x,y,-z
-x,y,1/2+z
x,-y,1/2+z
1/2+x,1/2+y,1/2+z
1/2-x,1/2-y,1/2+z
1/2+x,1/2-y,-z
1/2-x,1/2+y,-z
1/2-x,1/2-y,1/2-z
1/2+x,1/2+y,1/2-z
1/2-x,1/2+y,z
1/2+x,1/2-y,z
loop_
_atom_site_type_symbol
_atom_site_label
_atom_site_fract_x
_atom_site_fract_y
_atom_site_fract_z
Si Si1 0.183826 0.966927 0.170841
Si Si2 0.363285 0.174494 0.440127
Si Si3 0.291465 0.983209 0.057065
Si Si4 0.500000 0.000000 0.250000
Si Si5 0.511468 0.671982 0.187539
Si Si6 0.823374 0.294385 0.871762
O O1 0.215123 0.003060 0.113968
O O2 0.355108 0.969565 0.208441
O O3 0.143944 0.885219 0.165610
O O4 0.000000 0.000000 0.192008
O O5 0.408394 0.195843 0.500000
O O6 0.268112 0.100488 0.443904
O O7 0.261109 0.237262 0.411536
O O8 0.538700 0.162428 0.405602
O O9 0.500000 0.000000 0.057716
O O10 0.223589 0.011145 0.000000
O O11 0.500000 0.664046 0.250000
O O12 0.325490 0.662974 0.158253
O O13 0.575650 0.748814 0.172186
#
# Coordination Sequence:
#
# PCOD9527339 Si02
#       6
#    16  16  16   4  16  16
#     4  12  26  45  71 102 131 172 226 274 332 398
#     4  10  20  38  62  92 126 167 215 267 329 390
#     4  10  22  42  67  94 131 175 215 269 335 390
#     4  12  26  48  70  94 136 180 210 274 342 386
#     4  11  23  42  61  92 128 166 216 268 319 391
#     4  10  22  38  62  91 125 171 212 267 321 385
#
# _framework density 22.792798000000001
#
# number of rings (size 3 to 8) (size 9 to 14) (size 15 to 20)
#    0.000    1.333    2.857    2.571    2.667    1.905 
#    1.714    0.952    0.000    0.000    0.000    0.000 
#    0.000    0.000    0.000    0.000    0.000    0.000 
#
# Total GULP energy -234478.773426 kJ/mol
# GULP energy per Si atom -5582.827939 kJ/mol
# Density = 2.274092 g / cm^3
# Si number density = 22.792798 Si / 1000 Ang^3
#
#
#
# Elastic Constant Matrix: (Units=GPa)
#
#
# Indices 1 2 3 4 5 6 
#
# 1 77.1917 -5.5317 30.3631 0.0000 0.0000 0.0000
# 2 -5.5317 34.8968 13.0618 0.0000 0.0000 0.0000
# 3 30.3631 13.0618 164.1250 0.0000 0.0000 0.0000
# 4 0.0000 0.0000 0.0000 16.8950 0.0000 0.0000
# 5 0.0000 0.0000 0.0000 0.0000 -12.9216 0.0000
# 6 0.0000 0.0000 0.0000 0.0000 0.0000 3.3954
#
#
#
# Elastic Compliance Matrix: (Units=1/GPa)
#
#
# Indices 1 2 3 4 5 6 
#
# 1 0.014345 0.003368 -0.002922 0.000000 0.000000 0.000000
# 2 0.003368 0.030326 -0.003037 0.000000 0.000000 0.000000
# 3 -0.002922 -0.003037 0.006875 0.000000 0.000000 0.000000
# 4 0.000000 0.000000 0.000000 0.059189 0.000000 0.000000
# 5 0.000000 0.000000 0.000000 0.000000 -0.077390 0.000000
# 6 0.000000 0.000000 0.000000 0.000000 0.000000 0.294516
#
#
# Mechanical properties :
#
#
# Convention : Reuss Voigt Hill
#
# Bulk Modulus (GPa) = 21.56786 39.11108 30.33947
# Shear Modulus (GPa) = 14.34726 17.36178 15.85452
#
# Velocity S-wave (km/s) = 2.51164 2.76293 2.64027
# Velocity P-wave (km/s) = 4.23015 5.23211 4.75758
#
# Compressibility (1/GPa) = 0.04636529
#
# Stress axis : x y z
#
# Youngs Moduli (GPa) = 69.70866 32.97470 145.45189
#
# Poissons Ratio (x) = -0.11105 0.42500
# Poissons Ratio (y) = -0.23475 0.44167
# Poissons Ratio (z) = 0.20368 0.10013
#
# Static dielectric constant tensor:
#      x y z
#    x 1.863110 0.000000 0.000000 
#    y 0.000000 1.862670 0.000000 
#    z 0.000000 0.000000 1.874130 
# 
# From -- ./inp_files/42211.got.cif
#   From: 2010.05.17/outbox.cif.g08.bks.cpg/sg72_22_cif.got.tgz:42211.got - 2010.06.03 17:03:01.
