data_PCOD9527048
_publ_section_title
;
Structure prediction by ZEFSAII (Michael W. Deem and Ramdas Pophale) SiO2 
 PCOD9527048
Probable space group: I B A M
;
_chemical_formula_sum "Si O2"
_cell_formula_units_Z 80
_cell_length_a 27.884276
_cell_length_b 5.141527
_cell_length_c 26.270127
_cell_angle_alpha 90.000000
_cell_angle_beta 90.000000
_cell_angle_gamma 90.000000
_cell_volume 3766.289209
_symmetry_space_group_name_H-M "I B A M"
_symmetry_group_IT_number 72
_symmetry_cell_setting 'orthorhombic'
loop_
_space_group_symop_operation_xyz
x,y,z
-x,-y,z
x,-y,1/2-z
-x,y,1/2-z
-x,-y,-z
x,y,-z
-x,y,1/2+z
x,-y,1/2+z
1/2+x,1/2+y,1/2+z
1/2-x,1/2-y,1/2+z
1/2+x,1/2-y,-z
1/2-x,1/2+y,-z
1/2-x,1/2-y,1/2-z
1/2+x,1/2+y,1/2-z
1/2-x,1/2+y,z
1/2+x,1/2-y,z
loop_
_atom_site_type_symbol
_atom_site_label
_atom_site_fract_x
_atom_site_fract_y
_atom_site_fract_z
Si Si1 0.717045 0.334243 0.611504
Si Si2 0.500000 0.000000 0.385473
Si Si3 0.445505 0.385957 0.941773
Si Si4 0.883703 0.920187 0.654527
Si Si5 0.432540 0.895219 0.805103
Si Si6 0.780438 0.068484 0.000000
O O1 0.757742 0.555420 0.616803
O O2 0.672832 0.384936 0.648233
O O3 0.696464 0.362034 0.553749
O O4 0.458123 0.904626 0.422611
O O5 0.524088 0.812826 0.343032
O O6 0.500000 0.500000 0.938573
O O7 0.408055 0.489556 0.900349
O O8 0.429577 0.404442 0.000000
O O9 0.906463 0.646297 0.670944
O O10 0.897794 0.148286 0.693342
O O11 0.447067 0.000000 0.750000
O O12 0.734312 0.265387 0.000000
#
# Coordination Sequence:
#
# PCOD9527048 Si02
#       6
#    16   8  16  16  16   8
#     4  10  20  37  60  85 120 156 197 250 295 349
#     4  10  20  38  58  88 120 166 208 242 300 360
#     4  10  20  36  58  87 132 166 193 236 286 366
#     4  11  23  39  62  92 119 161 205 242 306 369
#     4  11  23  40  62  87 119 155 205 264 304 349
#     4   8  16  30  52  80 111 146 187 234 282 336
#
# _framework density 21.241064999999999
#
# number of rings (size 3 to 8) (size 9 to 14) (size 15 to 20)
#    0.000    1.800    2.000    2.400    1.400    0.000 
#    0.000    2.000    0.000   12.000    0.000    0.000 
#    0.000    0.000    0.000    0.000    0.000    0.000 
#
# Total GULP energy -222835.795513 kJ/mol
# GULP energy per Si atom -5570.894888 kJ/mol
# Density = 2.119272 g / cm^3
# Si number density = 21.241065 Si / 1000 Ang^3
#
#
#
# Elastic Constant Matrix: (Units=GPa)
#
#
# Indices 1 2 3 4 5 6 
#
# 1 50.8469 1.7631 22.7662 0.0000 0.0000 0.0000
# 2 1.7631 84.4972 18.1266 0.0000 0.0000 0.0000
# 3 22.7662 18.1266 84.5811 0.0000 0.0000 0.0000
# 4 0.0000 0.0000 0.0000 25.6516 0.0000 0.0000
# 5 0.0000 0.0000 0.0000 0.0000 19.3657 0.0000
# 6 0.0000 0.0000 0.0000 0.0000 0.0000 10.5708
#
#
#
# Elastic Compliance Matrix: (Units=1/GPa)
#
#
# Indices 1 2 3 4 5 6 
#
# 1 0.022422 0.000867 -0.006221 0.000000 0.000000 0.000000
# 2 0.000867 0.012439 -0.002899 0.000000 0.000000 0.000000
# 3 -0.006221 -0.002899 0.014119 0.000000 0.000000 0.000000
# 4 0.000000 0.000000 0.000000 0.038984 0.000000 0.000000
# 5 0.000000 0.000000 0.000000 0.000000 0.051638 0.000000
# 6 0.000000 0.000000 0.000000 0.000000 0.000000 0.094600
#
#
# Mechanical properties :
#
#
# Convention : Reuss Voigt Hill
#
# Bulk Modulus (GPa) = 30.79491 33.91520 32.35506
# Shear Modulus (GPa) = 19.11810 22.93557 21.02684
#
# Velocity S-wave (km/s) = 3.00334 3.28956 3.14970
# Velocity P-wave (km/s) = 5.15326 5.51631 5.33787
#
# Compressibility (1/GPa) = 0.03247290
#
# Stress axis : x y z
#
# Youngs Moduli (GPa) = 44.59861 80.39535 70.82795
#
# Poissons Ratio (x) = -0.06968 0.44062
# Poissons Ratio (y) = -0.03865 0.20533
# Poissons Ratio (z) = 0.27745 0.23306
#
# Static dielectric constant tensor:
#      x y z
#    x 1.760480 0.000000 0.000000 
#    y 0.000000 1.928640 0.000000 
#    z 0.000000 0.000000 1.784790 
# 
# From -- ./inp_files/46123.got.cif
#   From: 2010.05.17/outbox.cif.g08.bks.cpg/sg72_24_cif.got.tgz:46123.got - 2010.06.03 17:03:01.
