data_PCOD9527051
_publ_section_title
;
Structure prediction by ZEFSAII (Michael W. Deem and Ramdas Pophale) SiO2 
 PCOD9527051
Probable space group: I B A M
;
_chemical_formula_sum "Si O2"
_cell_formula_units_Z 120
_cell_length_a 30.096957
_cell_length_b 7.910536
_cell_length_c 26.808659
_cell_angle_alpha 90.000000
_cell_angle_beta 90.000000
_cell_angle_gamma 90.000000
_cell_volume 6382.687619
_symmetry_space_group_name_H-M "I B A M"
_symmetry_group_IT_number 72
_symmetry_cell_setting 'orthorhombic'
loop_
_space_group_symop_operation_xyz
x,y,z
-x,-y,z
x,-y,1/2-z
-x,y,1/2-z
-x,-y,-z
x,y,-z
-x,y,1/2+z
x,-y,1/2+z
1/2+x,1/2+y,1/2+z
1/2-x,1/2-y,1/2+z
1/2+x,1/2-y,-z
1/2-x,1/2+y,-z
1/2-x,1/2-y,1/2-z
1/2+x,1/2+y,1/2-z
1/2-x,1/2+y,z
1/2+x,1/2-y,z
loop_
_atom_site_type_symbol
_atom_site_label
_atom_site_fract_x
_atom_site_fract_y
_atom_site_fract_z
Si Si1 0.298303 0.926608 0.943413
Si Si2 0.919075 0.339683 0.715423
Si Si3 0.545417 0.105828 0.057589
Si Si4 0.631650 0.418279 0.355218
Si Si5 0.627285 0.500000 0.250000
Si Si6 0.039903 0.126075 0.861990
Si Si7 0.695984 0.522404 0.556387
Si Si8 0.623829 0.029149 0.372620
O O1 0.305318 0.725431 0.942467
O O2 0.246636 0.965883 0.934466
O O3 0.330351 0.004506 0.902134
O O4 0.308688 0.987356 0.000000
O O5 0.929668 0.500000 0.750000
O O6 0.901586 0.172440 0.743865
O O7 0.958696 0.271139 0.680429
O O8 0.882683 0.406992 0.675077
O O9 0.536854 0.283137 0.084833
O O10 0.500000 0.000000 0.060161
O O11 0.584507 0.016980 0.088823
O O12 0.558431 0.125298 0.000000
O O13 0.652509 0.473669 0.302100
O O14 0.586501 0.526662 0.359552
O O15 0.663282 0.454233 0.401715
O O16 0.620117 0.221230 0.355277
O O17 0.000000 0.000000 0.853208
O O18 0.683878 0.466742 0.500000
#
# Coordination Sequence:
#
# PCOD9527051 Si02
#       8
#    16  16  16  16   8  16  16  16
#     4  10  20  36  58  88 124 156 200 254 303 364
#     4  10  20  39  64  85 117 160 198 255 311 362
#     4  10  21  37  58  85 121 162 203 248 302 367
#     4  11  22  37  62  85 119 162 201 257 307 374
#     4  10  20  38  63  86 120 154 206 250 307 360
#     4  10  22  39  61  85 121 155 206 259 302 369
#     4  10  21  37  59  89 123 160 202 254 311 367
#     4  11  21  36  63  87 119 162 203 250 308 369
#
# _framework density 18.800857000000001
#
# number of rings (size 3 to 8) (size 9 to 14) (size 15 to 20)
#    0.000    1.733    1.333    4.400    0.000    4.000 
#    0.000    5.333   19.067    2.400    0.000    0.000 
#    0.000    0.000    0.000    0.000    0.000    0.000 
#
# Total GULP energy -334960.336396 kJ/mol
# GULP energy per Si atom -5582.672273 kJ/mol
# Density = 1.875807 g / cm^3
# Si number density = 18.800857 Si / 1000 Ang^3
#
#
#
# Elastic Constant Matrix: (Units=GPa)
#
#
# Indices 1 2 3 4 5 6 
#
# 1 63.3139 21.8423 56.3810 0.0000 0.0000 0.0000
# 2 21.8423 116.9290 54.8659 0.0000 0.0000 0.0000
# 3 56.3810 54.8659 140.4822 0.0000 0.0000 0.0000
# 4 0.0000 0.0000 0.0000 -27.5680 0.0000 0.0000
# 5 0.0000 0.0000 0.0000 0.0000 1.1532 0.0000
# 6 0.0000 0.0000 0.0000 0.0000 0.0000 25.1659
#
#
#
# Elastic Compliance Matrix: (Units=1/GPa)
#
#
# Indices 1 2 3 4 5 6 
#
# 1 0.024579 0.000046 -0.009882 0.000000 0.000000 0.000000
# 2 0.000046 0.010471 -0.004108 0.000000 0.000000 0.000000
# 3 -0.009882 -0.004108 0.012689 0.000000 0.000000 0.000000
# 4 0.000000 0.000000 0.000000 -0.036274 0.000000 0.000000
# 5 0.000000 0.000000 0.000000 0.000000 0.867151 0.000000
# 6 0.000000 0.000000 0.000000 0.000000 0.000000 0.039736
#
#
# Mechanical properties :
#
#
# Convention : Reuss Voigt Hill
#
# Bulk Modulus (GPa) = 50.37831 65.21152 57.79491
# Shear Modulus (GPa) = 5.24737 12.25927 8.75332
#
# Velocity S-wave (km/s) = 1.67245 2.55632 2.16007
# Velocity P-wave (km/s) = 5.53022 6.59346 6.08511
#
# Compressibility (1/GPa) = 0.01984981
#
# Stress axis : x y z
#
# Youngs Moduli (GPa) = 40.68558 95.50010 78.80938
#
# Poissons Ratio (x) = -0.00436 0.77881
# Poissons Ratio (y) = -0.00186 0.32374
# Poissons Ratio (z) = 0.40207 0.39231
#
# Static dielectric constant tensor:
#      x y z
#    x 1.617880 0.000000 0.000000 
#    y 0.000000 1.661960 0.000000 
#    z 0.000000 0.000000 1.677970 
# 
# From -- ./inp_files/49891.got.cif
#   From: 2010.05.17/outbox.cif.g08.bks.cpg/sg72_25_cif.got.tgz:49891.got - 2010.06.03 17:03:01.
