data_PCOD9527690
_publ_section_title
;
Structure prediction by ZEFSAII (Michael W. Deem and Ramdas Pophale) SiO2 
 PCOD9527690
Probable space group: I B A M
;
_chemical_formula_sum "Si O2"
_cell_formula_units_Z 92
_cell_length_a 7.220485
_cell_length_b 18.632255
_cell_length_c 30.704914
_cell_angle_alpha 90.000000
_cell_angle_beta 90.000000
_cell_angle_gamma 90.000000
_cell_volume 4130.852374
_symmetry_space_group_name_H-M "I B A M"
_symmetry_group_IT_number 72
_symmetry_cell_setting 'orthorhombic'
loop_
_space_group_symop_operation_xyz
x,y,z
-x,-y,z
x,-y,1/2-z
-x,y,1/2-z
-x,-y,-z
x,y,-z
-x,y,1/2+z
x,-y,1/2+z
1/2+x,1/2+y,1/2+z
1/2-x,1/2-y,1/2+z
1/2+x,1/2-y,-z
1/2-x,1/2+y,-z
1/2-x,1/2-y,1/2-z
1/2+x,1/2+y,1/2-z
1/2-x,1/2+y,z
1/2+x,1/2-y,z
loop_
_atom_site_type_symbol
_atom_site_label
_atom_site_fract_x
_atom_site_fract_y
_atom_site_fract_z
Si Si1 0.287388 0.567315 0.827990
Si Si2 0.508891 0.086702 0.048349
Si Si3 0.482813 0.850328 0.140698
Si Si4 0.500000 0.500000 0.600894
Si Si5 0.000000 0.000000 0.250000
Si Si6 0.936216 0.862381 0.451991
Si Si7 0.059637 0.190637 0.363247
O O1 0.076021 0.591211 0.828381
O O2 0.330835 0.506520 0.864721
O O3 0.369237 0.544585 0.782169
O O4 0.409299 0.636225 0.843882
O O5 0.444550 0.126404 0.092340
O O6 0.721454 0.113848 0.045906
O O7 0.500000 0.000000 0.053877
O O8 0.426137 0.102118 0.000000
O O9 0.261828 0.844112 0.141957
O O10 0.550524 0.770959 0.153753
O O11 0.524744 0.566658 0.568945
O O12 0.999512 0.843365 0.500000
O O13 0.969714 0.802988 0.415510
#
# Coordination Sequence:
#
# PCOD9527690 Si02
#       7
#    16  16  16   8   4  16  16
#     4  10  21  41  64  91 119 150 191 249 307 372
#     4   9  18  31  49  80 119 161 211 260 296 332
#     4  11  20  37  63  86 122 166 205 242 296 358
#     4   9  17  31  55  82 116 158 203 249 307 355
#     4  10  24  48  72  96 126 142 180 252 318 370
#     4   9  17  29  47  77 119 161 206 252 288 333
#     4  10  21  36  59  88 120 163 205 243 290 357
#
# _framework density 22.271432999999998
#
# number of rings (size 3 to 8) (size 9 to 14) (size 15 to 20)
#    0.000    2.261    1.739    1.304    0.000    2.087 
#    0.000    6.087    0.000    0.000    0.000    0.000 
#    0.000    0.000    0.000    0.000    0.000    0.000 
#
# Total GULP energy -256706.691029 kJ/mol
# GULP energy per Si atom -5580.580240 kJ/mol
# Density = 2.222074 g / cm^3
# Si number density = 22.271433 Si / 1000 Ang^3
#
#
#
# Elastic Constant Matrix: (Units=GPa)
#
#
# Indices 1 2 3 4 5 6 
#
# 1 64.4810 5.2510 16.4095 0.0000 0.0000 0.0000
# 2 5.2510 63.9472 3.3092 0.0000 0.0000 0.0000
# 3 16.4095 3.3092 99.2971 0.0000 0.0000 0.0000
# 4 0.0000 0.0000 0.0000 47.5022 0.0000 0.0000
# 5 0.0000 0.0000 0.0000 0.0000 30.7018 0.0000
# 6 0.0000 0.0000 0.0000 0.0000 0.0000 26.0597
#
#
#
# Elastic Compliance Matrix: (Units=1/GPa)
#
#
# Indices 1 2 3 4 5 6 
#
# 1 0.016281 -0.001200 -0.002651 0.000000 0.000000 0.000000
# 2 -0.001200 0.015753 -0.000327 0.000000 0.000000 0.000000
# 3 -0.002651 -0.000327 0.010520 0.000000 0.000000 0.000000
# 4 0.000000 0.000000 0.000000 0.021052 0.000000 0.000000
# 5 0.000000 0.000000 0.000000 0.000000 0.032571 0.000000
# 6 0.000000 0.000000 0.000000 0.000000 0.000000 0.038373
#
#
# Mechanical properties :
#
#
# Convention : Reuss Voigt Hill
#
# Bulk Modulus (GPa) = 29.23995 30.85161 30.04578
# Shear Modulus (GPa) = 32.40359 34.36980 33.38669
#
# Velocity S-wave (km/s) = 3.81851 3.93265 3.87600
# Velocity P-wave (km/s) = 5.70953 5.87398 5.79234
#
# Compressibility (1/GPa) = 0.03419978
#
# Stress axis : x y z
#
# Youngs Moduli (GPa) = 61.42257 63.47867 95.05987
#
# Poissons Ratio (x) = 0.07616 0.25196
# Poissons Ratio (y) = 0.07369 0.03106
# Poissons Ratio (z) = 0.16280 0.02074
#
# Static dielectric constant tensor:
#      x y z
#    x 1.898600 0.000000 0.000000 
#    y 0.000000 1.813740 0.000000 
#    z 0.000000 0.000000 1.809590 
# 
# From -- ./inp_files/50872.got.cif
#   From: 2010.05.17/outbox.cif.g08.bks.cpg/sg72_26_cif.got.tgz:50872.got - 2010.06.03 17:03:01.
