data_PCOD9527117
_publ_section_title
;
Structure prediction by ZEFSAII (Michael W. Deem and Ramdas Pophale) SiO2 
 PCOD9527117
Probable space group: I B A M
;
_chemical_formula_sum "Si O2"
_cell_formula_units_Z 96
_cell_length_a 12.265292
_cell_length_b 22.982705
_cell_length_c 15.620959
_cell_angle_alpha 90.000000
_cell_angle_beta 90.000000
_cell_angle_gamma 90.000000
_cell_volume 4403.385693
_symmetry_space_group_name_H-M "I B A M"
_symmetry_group_IT_number 72
_symmetry_cell_setting 'orthorhombic'
loop_
_space_group_symop_operation_xyz
x,y,z
-x,-y,z
x,-y,1/2-z
-x,y,1/2-z
-x,-y,-z
x,y,-z
-x,y,1/2+z
x,-y,1/2+z
1/2+x,1/2+y,1/2+z
1/2-x,1/2-y,1/2+z
1/2+x,1/2-y,-z
1/2-x,1/2+y,-z
1/2-x,1/2-y,1/2-z
1/2+x,1/2+y,1/2-z
1/2-x,1/2+y,z
1/2+x,1/2-y,z
loop_
_atom_site_type_symbol
_atom_site_label
_atom_site_fract_x
_atom_site_fract_y
_atom_site_fract_z
Si Si1 0.294730 0.072446 0.332844
Si Si2 0.835883 0.731954 0.395468
Si Si3 0.903618 0.861965 0.603747
Si Si4 0.013930 0.643073 0.402359
Si Si5 0.676330 0.055026 0.368716
Si Si6 0.851914 0.150205 0.401756
O O1 0.171349 0.090324 0.351708
O O2 0.375763 0.124192 0.358111
O O3 0.316121 0.061447 0.233530
O O4 0.321697 0.013592 0.385184
O O5 0.834945 0.725260 0.500000
O O6 0.850953 0.799149 0.377301
O O7 0.941403 0.695435 0.365329
O O8 0.726547 0.699991 0.363009
O O9 0.900340 0.870881 0.500000
O O10 0.028630 0.860525 0.634689
O O11 0.041052 0.657906 0.500000
O O12 0.931856 0.587848 0.399502
O O13 0.779068 0.091883 0.402359
O O14 0.872921 0.168474 0.500000
#
# Coordination Sequence:
#
# PCOD9527117 Si02
#       6
#    16  16  16  16  16  16
#     4  11  23  36  57  84 115 153 190 235 284 340
#     4   8  17  34  57  83 113 147 183 231 290 339
#     4  10  21  35  57  88 114 146 193 238 278 335
#     4  10  20  36  61  88 113 146 188 238 289 337
#     4  10  22  40  56  78 116 156 191 231 287 341
#     4   9  19  37  59  79 110 151 189 235 286 336
#
# _framework density 21.801407000000001
#
# number of rings (size 3 to 8) (size 9 to 14) (size 15 to 20)
#    0.000    2.333    0.000    3.000    2.333    6.000 
#    0.000    6.667    7.333    0.000    0.000    0.000 
#    0.000    0.000    0.000    0.000    0.000    0.000 
#
# Total GULP energy -268100.788928 kJ/mol
# GULP energy per Si atom -5585.433103 kJ/mol
# Density = 2.175179 g / cm^3
# Si number density = 21.801407 Si / 1000 Ang^3
#
#
#
# Elastic Constant Matrix: (Units=GPa)
#
#
# Indices 1 2 3 4 5 6 
#
# 1 101.0260 -9.5848 2.0505 0.0000 0.0000 0.0000
# 2 -9.5848 29.7068 -11.9394 -0.0001 0.0000 0.0000
# 3 2.0505 -11.9394 33.5948 -0.0001 -0.0001 0.0000
# 4 0.0000 -0.0001 -0.0001 -19.6743 0.0000 0.0000
# 5 0.0000 0.0000 -0.0001 0.0000 -21.2634 0.0000
# 6 0.0000 0.0000 0.0000 0.0000 0.0000 5.7587
#
#
#
# Elastic Compliance Matrix: (Units=1/GPa)
#
#
# Indices 1 2 3 4 5 6 
#
# 1 0.010223 0.003555 0.000640 0.000000 0.000000 0.000000
# 2 0.003555 0.040508 0.014179 0.000000 0.000000 0.000000
# 3 0.000640 0.014179 0.034767 0.000000 0.000000 0.000000
# 4 0.000000 0.000000 0.000000 -0.050828 0.000000 0.000000
# 5 0.000000 0.000000 0.000000 0.000000 -0.047029 0.000000
# 6 0.000000 0.000000 0.000000 0.000000 0.000000 0.173651
#
#
# Mechanical properties :
#
#
# Convention : Reuss Voigt Hill
#
# Bulk Modulus (GPa) = 8.18019 13.93114 11.05567
# Shear Modulus (GPa) = 30.24959 5.21762 17.73361
#
# Velocity S-wave (km/s) = 3.72897 1.54869 2.85514
# Velocity P-wave (km/s) = 4.72234 3.09868 3.99389
#
# Compressibility (1/GPa) = 0.12224647
#
# Stress axis : x y z
#
# Youngs Moduli (GPa) = 97.82075 24.68633 28.76314
#
# Poissons Ratio (x) = -0.08777 -0.01840
# Poissons Ratio (y) = -0.34779 -0.40784
# Poissons Ratio (z) = -0.06257 -0.35004
#
# Static dielectric constant tensor:
#      x y z
#    x 1.778730 0.000000 0.000000 
#    y 0.000000 1.794850 0.000000 
#    z 0.000000 0.000000 1.834840 
# 
# From -- ./inp_files/29475.got.cif
#   From: 2010.05.17/outbox.cif.g08.bks.cpg/sg72_15_cif.got.tgz:29475.got - 2010.06.03 17:03:01.
