data_PCOD9527004
_publ_section_title
;
Structure prediction by ZEFSAII (Michael W. Deem and Ramdas Pophale) SiO2 
 PCOD9527004
Probable space group: I B A M
;
_chemical_formula_sum "Si O2"
_cell_formula_units_Z 80
_cell_length_a 13.854683
_cell_length_b 7.833173
_cell_length_c 29.351137
_cell_angle_alpha 90.000000
_cell_angle_beta 90.000000
_cell_angle_gamma 90.000000
_cell_volume 3185.365274
_symmetry_space_group_name_H-M "I B A M"
_symmetry_group_IT_number 72
_symmetry_cell_setting 'orthorhombic'
loop_
_space_group_symop_operation_xyz
x,y,z
-x,-y,z
x,-y,1/2-z
-x,y,1/2-z
-x,-y,-z
x,y,-z
-x,y,1/2+z
x,-y,1/2+z
1/2+x,1/2+y,1/2+z
1/2-x,1/2-y,1/2+z
1/2+x,1/2-y,-z
1/2-x,1/2+y,-z
1/2-x,1/2-y,1/2-z
1/2+x,1/2+y,1/2-z
1/2-x,1/2+y,z
1/2+x,1/2-y,z
loop_
_atom_site_type_symbol
_atom_site_label
_atom_site_fract_x
_atom_site_fract_y
_atom_site_fract_z
Si Si1 0.622414 0.832043 0.451056
Si Si2 0.377228 0.652857 0.648972
Si Si3 0.108506 0.269566 0.548465
Si Si4 0.569723 0.170857 0.855243
Si Si5 0.778524 0.473284 0.802726
O O1 0.659059 0.762772 0.500000
O O2 0.507392 0.792114 0.452228
O O3 0.637610 0.784056 0.398629
O O4 0.644037 0.034732 0.451170
O O5 0.361636 0.676342 0.594520
O O6 0.491252 0.684761 0.654330
O O7 0.318762 0.494927 0.668275
O O8 0.328908 0.801875 0.679615
O O9 0.133978 0.185946 0.500000
O O10 0.639666 0.112906 0.815470
O O11 0.500000 0.000000 0.865941
O O12 0.757118 0.500000 0.750000
#
# Coordination Sequence:
#
# PCOD9527004 Si02
#       5
#    16  16  16  16  16
#     4   8  10  19  44  75 105 135 180 227 264 311
#     4  10  20  36  55  80 112 145 183 237 285 337
#     4   8  12  23  46  77 109 139 176 227 277 324
#     4   9  16  31  52  78 104 143 185 227 273 330
#     4  11  22  37  56  80 108 143 189 233 285 332
#
# _framework density 25.11486
#
# number of rings (size 3 to 8) (size 9 to 14) (size 15 to 20)
#    0.000    2.800    6.000    1.800    0.000    3.600 
#    0.000    3.000    0.000    1.200    0.000    0.000 
#    0.000    8.000    0.000    0.000    0.000    0.000 
#
# Total GULP energy -223177.369305 kJ/mol
# GULP energy per Si atom -5579.434233 kJ/mol
# Density = 2.505770 g / cm^3
# Si number density = 25.114860 Si / 1000 Ang^3
#
#
#
# Elastic Constant Matrix: (Units=GPa)
#
#
# Indices 1 2 3 4 5 6 
#
# 1 109.7361 -1.0555 27.9826 0.0000 0.0000 0.0000
# 2 -1.0555 60.9060 19.0522 0.0000 0.0000 0.0000
# 3 27.9826 19.0522 218.2221 0.0000 0.0000 0.0000
# 4 0.0000 0.0000 0.0000 3.6041 0.0000 0.0000
# 5 0.0000 0.0000 0.0000 0.0000 32.4644 0.0000
# 6 0.0000 0.0000 0.0000 0.0000 0.0000 23.7942
#
#
#
# Elastic Compliance Matrix: (Units=1/GPa)
#
#
# Indices 1 2 3 4 5 6 
#
# 1 0.009439 0.000557 -0.001259 0.000000 0.000000 0.000000
# 2 0.000557 0.016913 -0.001548 0.000000 0.000000 0.000000
# 3 -0.001259 -0.001548 0.004879 0.000000 0.000000 0.000000
# 4 0.000000 0.000000 0.000000 0.277464 0.000000 0.000000
# 5 0.000000 0.000000 0.000000 0.000000 0.030803 0.000000
# 6 0.000000 0.000000 0.000000 0.000000 0.000000 0.042027
#
#
# Mechanical properties :
#
#
# Convention : Reuss Voigt Hill
#
# Bulk Modulus (GPa) = 37.40896 53.42476 45.41686
# Shear Modulus (GPa) = 12.66031 34.83153 23.74592
#
# Velocity S-wave (km/s) = 2.24764 3.72814 3.07822
# Velocity P-wave (km/s) = 4.65439 6.31271 5.54589
#
# Compressibility (1/GPa) = 0.02673156
#
# Stress axis : x y z
#
# Youngs Moduli (GPa) = 105.94129 59.12727 204.95618
#
# Poissons Ratio (x) = -0.03296 0.25805
# Poissons Ratio (y) = -0.05905 0.31729
# Poissons Ratio (z) = 0.13339 0.09153
#
# Static dielectric constant tensor:
#      x y z
#    x 2.024070 0.000000 0.000000 
#    y 0.000000 2.080620 0.000000 
#    z 0.000000 0.000000 1.963580 
# 
# From -- ./inp_files/48544.got.cif
#   From: 2010.05.17/outbox.cif.g08.bks.cpg/sg72_25_cif.got.tgz:48544.got - 2010.06.03 17:03:01.
