data_PCOD9527255
_publ_section_title
;
Structure prediction by ZEFSAII (Michael W. Deem and Ramdas Pophale) SiO2 
 PCOD9527255
Probable space group: I B A M
;
_chemical_formula_sum "Si O2"
_cell_formula_units_Z 116
_cell_length_a 12.059237
_cell_length_b 26.985830
_cell_length_c 18.210018
_cell_angle_alpha 90.000000
_cell_angle_beta 90.000000
_cell_angle_gamma 90.000000
_cell_volume 5926.059200
_symmetry_space_group_name_H-M "I B A M"
_symmetry_group_IT_number 72
_symmetry_cell_setting 'orthorhombic'
loop_
_space_group_symop_operation_xyz
x,y,z
-x,-y,z
x,-y,1/2-z
-x,y,1/2-z
-x,-y,-z
x,y,-z
-x,y,1/2+z
x,-y,1/2+z
1/2+x,1/2+y,1/2+z
1/2-x,1/2-y,1/2+z
1/2+x,1/2-y,-z
1/2-x,1/2+y,-z
1/2-x,1/2-y,1/2-z
1/2+x,1/2+y,1/2-z
1/2-x,1/2+y,z
1/2+x,1/2-y,z
loop_
_atom_site_type_symbol
_atom_site_label
_atom_site_fract_x
_atom_site_fract_y
_atom_site_fract_z
Si Si1 0.086265 0.374661 0.086866
Si Si2 0.163844 0.606444 0.085779
Si Si3 0.617558 0.792619 0.706527
Si Si4 0.189712 0.074658 0.587846
Si Si5 0.211579 0.185489 0.831782
Si Si6 0.347990 0.461906 0.632255
Si Si7 0.523970 0.627266 0.584129
Si Si8 0.000000 0.000000 0.750000
O O1 0.092413 0.326885 0.137421
O O2 0.186785 0.410217 0.109038
O O3 0.966077 0.398332 0.097511
O O4 0.097448 0.363012 0.000000
O O5 0.206369 0.661592 0.106802
O O6 0.232240 0.566951 0.133523
O O7 0.187984 0.597221 0.000000
O O8 0.500000 0.784351 0.750000
O O9 0.709997 0.818947 0.759160
O O10 0.671406 0.741959 0.675923
O O11 0.182949 0.075394 0.500000
O O12 0.100217 0.116051 0.611494
O O13 0.163294 0.018974 0.611167
O O14 0.098713 0.156416 0.856350
O O15 0.421554 0.427428 0.579800
O O16 0.418527 0.464275 0.705815
O O17 0.525678 0.648215 0.500000
#
# Coordination Sequence:
#
# PCOD9527255 Si02
#       8
#    16  16  16  16  16  16  16   4
#     4  10  23  42  64  91 124 166 215 264 313 370
#     4  10  21  42  68  93 124 169 215 262 315 375
#     4  11  23  43  62  90 125 166 205 260 333 381
#     4  10  20  37  62  92 125 163 207 261 314 366
#     4  10  22  38  64  92 122 158 214 251 316 402
#     4  11  21  38  57  90 127 165 212 256 309 374
#     4  10  20  38  64  95 126 165 212 264 319 371
#     4  12  24  36  50  90 128 172 216 254 330 368
#
# _framework density 19.574560000000002
#
# number of rings (size 3 to 8) (size 9 to 14) (size 15 to 20)
#    0.000    1.655    2.759    2.483    0.000    7.172 
#    4.966    2.069    0.000    0.828    0.000    0.000 
#    0.000    0.000    0.000    0.000    0.000    0.000 
#
# Total GULP energy -322911.973545 kJ/mol
# GULP energy per Si atom -5567.447820 kJ/mol
# Density = 1.953001 g / cm^3
# Si number density = 19.574560 Si / 1000 Ang^3
#
#
#
# Elastic Constant Matrix: (Units=GPa)
#
#
# Indices 1 2 3 4 5 6 
#
# 1 153.8673 47.7872 56.4152 0.0000 0.0000 0.0000
# 2 47.7872 59.0594 37.0340 0.0000 -0.0001 0.0000
# 3 56.4152 37.0340 56.8402 0.0000 -0.0002 0.0000
# 4 0.0000 0.0000 0.0000 6.4534 -0.0001 0.0000
# 5 0.0000 -0.0001 -0.0002 -0.0001 -8.9006 0.0000
# 6 0.0000 0.0000 0.0000 0.0000 0.0000 19.4156
#
#
#
# Elastic Compliance Matrix: (Units=1/GPa)
#
#
# Indices 1 2 3 4 5 6 
#
# 1 0.010594 -0.003345 -0.008335 0.000000 0.000000 0.000000
# 2 -0.003345 0.029685 -0.016021 0.000000 0.000000 0.000000
# 3 -0.008335 -0.016021 0.036304 0.000000 -0.000001 0.000000
# 4 0.000000 0.000000 0.000000 0.154957 -0.000002 0.000000
# 5 0.000000 0.000000 -0.000001 -0.000002 -0.112352 0.000000
# 6 0.000000 0.000000 0.000000 0.000000 0.000000 0.051505
#
#
# Mechanical properties :
#
#
# Convention : Reuss Voigt Hill
#
# Bulk Modulus (GPa) = 47.21282 61.35997 54.28639
# Shear Modulus (GPa) = 21.44483 11.96239 16.70361
#
# Velocity S-wave (km/s) = 3.31349 2.47476 2.92435
# Velocity P-wave (km/s) = 6.22983 6.29133 6.26066
#
# Compressibility (1/GPa) = 0.02118069
#
# Stress axis : x y z
#
# Youngs Moduli (GPa) = 94.39099 33.68698 27.54482
#
# Poissons Ratio (x) = 0.11270 0.22959
# Poissons Ratio (y) = 0.31578 0.44129
# Poissons Ratio (z) = 0.78678 0.53969
#
# Static dielectric constant tensor:
#      x y z
#    x 1.747750 0.000000 0.000000 
#    y 0.000000 1.670860 0.000000 
#    z 0.000000 0.000000 1.718230 
# 
# From -- ./inp_files/29722.got.cif
#   From: 2010.05.17/outbox.cif.g08.bks.cpg/sg72_15_cif.got.tgz:29722.got - 2010.06.03 17:03:01.
