data_PCOD9527165
_publ_section_title
;
Structure prediction by ZEFSAII (Michael W. Deem and Ramdas Pophale) SiO2 
 PCOD9527165
Probable space group: I B A M
;
_chemical_formula_sum "Si O2"
_cell_formula_units_Z 88
_cell_length_a 12.584239
_cell_length_b 14.846147
_cell_length_c 22.244714
_cell_angle_alpha 90.000000
_cell_angle_beta 90.000000
_cell_angle_gamma 90.000000
_cell_volume 4155.923461
_symmetry_space_group_name_H-M "I B A M"
_symmetry_group_IT_number 72
_symmetry_cell_setting 'orthorhombic'
loop_
_space_group_symop_operation_xyz
x,y,z
-x,-y,z
x,-y,1/2-z
-x,y,1/2-z
-x,-y,-z
x,y,-z
-x,y,1/2+z
x,-y,1/2+z
1/2+x,1/2+y,1/2+z
1/2-x,1/2-y,1/2+z
1/2+x,1/2-y,-z
1/2-x,1/2+y,-z
1/2-x,1/2-y,1/2-z
1/2+x,1/2+y,1/2-z
1/2-x,1/2+y,z
1/2+x,1/2-y,z
loop_
_atom_site_type_symbol
_atom_site_label
_atom_site_fract_x
_atom_site_fract_y
_atom_site_fract_z
Si Si1 0.735536 0.609192 0.366713
Si Si2 0.828287 0.397806 0.000000
Si Si3 0.464875 0.284240 0.631268
Si Si4 0.601678 0.560405 0.892132
Si Si5 0.965067 0.596075 0.318852
Si Si6 0.242623 0.600277 0.500000
Si Si7 0.460875 0.775908 0.000000
O O1 0.769832 0.625372 0.436842
O O2 0.650368 0.683647 0.348697
O O3 0.675796 0.513813 0.361018
O O4 0.840181 0.606770 0.327454
O O5 0.823501 0.506488 0.000000
O O6 0.942705 0.348932 0.000000
O O7 0.552926 0.359179 0.647866
O O8 0.484956 0.182859 0.650224
O O9 0.469564 0.284219 0.559013
O O10 0.500000 0.500000 0.914504
O O11 0.678115 0.600612 0.943356
O O12 0.000000 0.500000 0.346393
O O13 0.000000 0.596222 0.250000
O O14 0.154125 0.676847 0.500000
#
# Coordination Sequence:
#
# PCOD9527165 Si02
#       7
#    16   8  16  16  16   8   8
#     4  10  22  41  68  96 134 174 213 259 324 385
#     4  10  20  37  56  96 141 172 212 254 319 393
#     4  11  24  39  67  98 135 170 215 265 318 387
#     4   9  20  39  60  93 132 174 215 256 312 386
#     4  11  27  47  66  91 125 166 218 275 326 379
#     4  10  21  30  59  90 134 186 207 253 318 375
#     4  12  23  31  56 104 140 169 212 264 312 391
#
# _framework density 21.174596000000001
#
# number of rings (size 3 to 8) (size 9 to 14) (size 15 to 20)
#    0.000    1.636    1.818    1.636    7.636    5.091 
#    0.000    1.818    0.000    3.818    0.000    0.000 
#    0.000    0.000    0.000    0.000    0.000    0.000 
#
# Total GULP energy -245807.571693 kJ/mol
# GULP energy per Si atom -5586.535720 kJ/mol
# Density = 2.112640 g / cm^3
# Si number density = 21.174596 Si / 1000 Ang^3
#
#
#
# Elastic Constant Matrix: (Units=GPa)
#
#
# Indices 1 2 3 4 5 6 
#
# 1 153.8708 78.3929 26.5448 0.0000 0.0000 0.0000
# 2 78.3929 129.1132 17.7965 0.0000 0.0000 0.0000
# 3 26.5448 17.7965 36.4740 0.0000 0.0000 0.0000
# 4 0.0000 0.0000 0.0000 111.5635 0.0000 0.0000
# 5 0.0000 0.0000 0.0000 0.0000 178.2867 0.0000
# 6 0.0000 0.0000 0.0000 0.0000 0.0000 37.6637
#
#
#
# Elastic Compliance Matrix: (Units=1/GPa)
#
#
# Indices 1 2 3 4 5 6 
#
# 1 0.010102 -0.005489 -0.004673 0.000000 0.000000 0.000000
# 2 -0.005489 0.011286 -0.001512 0.000000 0.000000 0.000000
# 3 -0.004673 -0.001512 0.031556 0.000000 0.000000 0.000000
# 4 0.000000 0.000000 0.000000 0.008964 0.000000 0.000000
# 5 0.000000 0.000000 0.000000 0.000000 0.005609 0.000000
# 6 0.000000 0.000000 0.000000 0.000000 0.000000 0.026551
#
#
# Mechanical properties :
#
#
# Convention : Reuss Voigt Hill
#
# Bulk Modulus (GPa) = 33.79002 62.76959 48.27980
# Shear Modulus (GPa) = 39.28298 78.61771 58.95034
#
# Velocity S-wave (km/s) = 4.31187 6.09991 5.28210
# Velocity P-wave (km/s) = 6.38608 8.90618 7.74926
#
# Compressibility (1/GPa) = 0.02959454
#
# Stress axis : x y z
#
# Youngs Moduli (GPa) = 98.99188 88.60179 31.68995
#
# Poissons Ratio (x) = 0.48636 0.14810
# Poissons Ratio (y) = 0.54340 0.04791
# Poissons Ratio (z) = 0.46264 0.13396
#
# Static dielectric constant tensor:
#      x y z
#    x 1.762840 0.000000 0.000000 
#    y 0.000000 1.778990 0.000000 
#    z 0.000000 0.000000 1.511520 
# 
# From -- ./inp_files/43250.got.cif
#   From: 2010.05.17/outbox.cif.g08.bks.cpg/sg72_22_cif.got.tgz:43250.got - 2010.06.03 17:03:01.
