data_PCOD9527739
_publ_section_title
;
Structure prediction by ZEFSAII (Michael W. Deem and Ramdas Pophale) SiO2 
 PCOD9527739
Probable space group: I B A M
;
_chemical_formula_sum "Si O2"
_cell_formula_units_Z 112
_cell_length_a 24.690436
_cell_length_b 15.082667
_cell_length_c 13.835205
_cell_angle_alpha 90.000000
_cell_angle_beta 90.000000
_cell_angle_gamma 90.000000
_cell_volume 5152.197473
_symmetry_space_group_name_H-M "I B A M"
_symmetry_group_IT_number 72
_symmetry_cell_setting 'orthorhombic'
loop_
_space_group_symop_operation_xyz
x,y,z
-x,-y,z
x,-y,1/2-z
-x,y,1/2-z
-x,-y,-z
x,y,-z
-x,y,1/2+z
x,-y,1/2+z
1/2+x,1/2+y,1/2+z
1/2-x,1/2-y,1/2+z
1/2+x,1/2-y,-z
1/2-x,1/2+y,-z
1/2-x,1/2-y,1/2-z
1/2+x,1/2+y,1/2-z
1/2-x,1/2+y,z
1/2+x,1/2-y,z
loop_
_atom_site_type_symbol
_atom_site_label
_atom_site_fract_x
_atom_site_fract_y
_atom_site_fract_z
Si Si1 0.427044 0.656892 0.385356
Si Si2 0.232664 0.272235 0.886254
Si Si3 0.608886 0.465302 0.116540
Si Si4 0.049499 0.215934 0.885449
Si Si5 0.188317 0.397363 0.387761
Si Si6 0.276482 0.459551 0.116069
Si Si7 0.128491 0.710396 0.252709
O O1 0.414665 0.661683 0.500000
O O2 0.424819 0.553311 0.358070
O O3 0.486483 0.696708 0.369274
O O4 0.384185 0.714209 0.326739
O O5 0.269722 0.185402 0.880652
O O6 0.266044 0.359070 0.852566
O O7 0.179048 0.266805 0.821935
O O8 0.217937 0.283252 0.000000
O O9 0.582045 0.373265 0.145920
O O10 0.670093 0.487318 0.148041
O O11 0.609101 0.459916 0.000000
O O12 0.076191 0.292308 0.821719
O O13 0.057507 0.229790 0.000000
O O14 0.170047 0.401540 0.500000
O O15 0.223093 0.483818 0.364288
O O16 0.142631 0.375710 0.310110
O O17 0.282534 0.454836 0.000000
#
# Coordination Sequence:
#
# PCOD9527739 Si02
#       7
#    16  16  16  16  16  16  16
#     4  10  21  37  57  83 115 152 196 243 292 350
#     4  10  21  37  56  82 117 155 197 241 285 342
#     4   9  17  33  57  82 115 157 192 230 285 350
#     4  10  21  37  57  83 115 152 196 243 292 350
#     4  10  21  37  56  82 117 155 197 241 285 342
#     4   9  18  34  57  85 119 158 194 231 282 346
#     4  12  22  34  53  78 110 150 190 235 286 333
#
# _framework density 21.738296999999999
#
# number of rings (size 3 to 8) (size 9 to 14) (size 15 to 20)
#    0.000    2.000    0.000    3.857    0.000    7.429 
#    0.000    4.286    0.000    0.000    0.000    8.000 
#    0.000   22.857    0.000    0.000    0.000    0.000 
#
# Total GULP energy -313255.660898 kJ/mol
# GULP energy per Si atom -5593.851087 kJ/mol
# Density = 2.168882 g / cm^3
# Si number density = 21.738297 Si / 1000 Ang^3
#
#
#
# Elastic Constant Matrix: (Units=GPa)
#
#
# Indices 1 2 3 4 5 6 
#
# 1 100.2016 23.3422 43.7502 0.0000 0.0000 0.0000
# 2 23.3422 46.8370 10.9722 0.0000 0.0000 0.0000
# 3 43.7502 10.9722 114.0689 0.0000 0.0000 0.0000
# 4 0.0000 0.0000 0.0000 24.4272 0.0000 0.0000
# 5 0.0000 0.0000 0.0000 0.0000 33.2056 0.0000
# 6 0.0000 0.0000 0.0000 0.0000 0.0000 22.9188
#
#
#
# Elastic Compliance Matrix: (Units=1/GPa)
#
#
# Indices 1 2 3 4 5 6 
#
# 1 0.013258 -0.005541 -0.004552 0.000000 0.000000 0.000000
# 2 -0.005541 0.024159 -0.000199 0.000000 0.000000 0.000000
# 3 -0.004552 -0.000199 0.010532 0.000000 0.000000 0.000000
# 4 0.000000 0.000000 0.000000 0.040938 0.000000 0.000000
# 5 0.000000 0.000000 0.000000 0.000000 0.030115 0.000000
# 6 0.000000 0.000000 0.000000 0.000000 0.000000 0.043632
#
#
# Mechanical properties :
#
#
# Convention : Reuss Voigt Hill
#
# Bulk Modulus (GPa) = 36.54298 46.35964 41.45131
# Shear Modulus (GPa) = 25.99570 28.31318 27.15444
#
# Velocity S-wave (km/s) = 3.46186 3.61287 3.53817
# Velocity P-wave (km/s) = 5.72941 6.22706 5.98341
#
# Compressibility (1/GPa) = 0.02736504
#
# Stress axis : x y z
#
# Youngs Moduli (GPa) = 75.42481 41.39295 94.95189
#
# Poissons Ratio (x) = 0.22936 0.43223
# Poissons Ratio (y) = 0.41794 0.01885
# Poissons Ratio (z) = 0.34334 0.00822
#
# Static dielectric constant tensor:
#      x y z
#    x 1.782640 0.000000 0.000000 
#    y 0.000000 1.766440 0.000000 
#    z 0.000000 0.000000 1.876740 
# 
# From -- ./inp_files/25209.got.cif
#   From: 2010.05.17/outbox.cif.g08.bks.cpg/sg72_13_cif.got.tgz:25209.got - 2010.06.03 17:03:01.
