data_PCOD9527460
_publ_section_title
;
Structure prediction by ZEFSAII (Michael W. Deem and Ramdas Pophale) SiO2 
 PCOD9527460
Probable space group: I B A M
;
_chemical_formula_sum "Si O2"
_cell_formula_units_Z 96
_cell_length_a 11.503995
_cell_length_b 21.565008
_cell_length_c 20.059392
_cell_angle_alpha 90.000000
_cell_angle_beta 90.000000
_cell_angle_gamma 90.000000
_cell_volume 4976.409074
_symmetry_space_group_name_H-M "I B A M"
_symmetry_group_IT_number 72
_symmetry_cell_setting 'orthorhombic'
loop_
_space_group_symop_operation_xyz
x,y,z
-x,-y,z
x,-y,1/2-z
-x,y,1/2-z
-x,-y,-z
x,y,-z
-x,y,1/2+z
x,-y,1/2+z
1/2+x,1/2+y,1/2+z
1/2-x,1/2-y,1/2+z
1/2+x,1/2-y,-z
1/2-x,1/2+y,-z
1/2-x,1/2-y,1/2-z
1/2+x,1/2+y,1/2-z
1/2-x,1/2+y,z
1/2+x,1/2-y,z
loop_
_atom_site_type_symbol
_atom_site_label
_atom_site_fract_x
_atom_site_fract_y
_atom_site_fract_z
Si Si1 0.615599 0.793568 0.869583
Si Si2 0.686817 0.650777 0.874918
Si Si3 0.193248 0.411367 0.000000
Si Si4 0.698485 0.646460 0.727512
Si Si5 0.546739 0.568627 0.367343
Si Si6 0.799897 0.049130 0.500000
Si Si7 0.500000 0.253011 0.750000
Si Si8 0.434513 0.128870 0.000000
O O1 0.665825 0.724542 0.883240
O O2 0.709255 0.832551 0.827339
O O3 0.511910 0.785059 0.817107
O O4 0.574041 0.827633 0.935239
O O5 0.762880 0.624748 0.934733
O O6 0.741631 0.634385 0.802494
O O7 0.560785 0.616351 0.875847
O O8 0.258438 0.477649 0.000000
O O9 0.053132 0.410796 0.000000
O O10 0.623805 0.592076 0.694386
O O11 0.611242 0.703638 0.740670
O O12 0.500000 0.500000 0.355062
O O13 0.623555 0.564990 0.434743
O O14 0.681484 0.087849 0.500000
#
# Coordination Sequence:
#
# PCOD9527460 Si02
#       8
#    16  16   8  16  16   8   8   8
#     4  11  24  42  64 100 132 173 207 266 322 390
#     4  11  23  42  67 103 130 167 212 262 332 389
#     4  12  27  45  64  90 128 176 224 264 315 390
#     4  11  22  40  66  99 137 165 206 270 327 391
#     4  12  22  42  71  96 129 164 219 270 326 383
#     4  12  25  49  64  90 126 181 211 277 328 373
#     4  10  20  40  65  94 137 170 204 256 336 388
#     4  12  28  43  67  91 126 175 228 262 311 389
#
# _framework density 19.291018999999999
#
# number of rings (size 3 to 8) (size 9 to 14) (size 15 to 20)
#    0.000    0.667    6.667    3.500    4.667    1.333 
#    3.000    0.000    0.000    0.000    0.000    0.000 
#    0.000    0.000    0.000    0.000    0.000    0.000 
#
# Total GULP energy -268250.604594 kJ/mol
# GULP energy per Si atom -5588.554262 kJ/mol
# Density = 1.924711 g / cm^3
# Si number density = 19.291019 Si / 1000 Ang^3
#
#
#
# Elastic Constant Matrix: (Units=GPa)
#
#
# Indices 1 2 3 4 5 6 
#
# 1 48.4498 22.5025 38.7742 0.0000 0.0000 0.0000
# 2 22.5025 75.5019 43.9201 0.0000 0.0000 0.0000
# 3 38.7742 43.9201 158.4293 0.0000 0.0000 0.0000
# 4 0.0000 0.0000 0.0000 -155.5752 0.0000 0.0000
# 5 0.0000 0.0000 0.0000 0.0000 21.0076 0.0000
# 6 0.0000 0.0000 0.0000 0.0000 0.0000 -353.1084
#
#
#
# Elastic Compliance Matrix: (Units=1/GPa)
#
#
# Indices 1 2 3 4 5 6 
#
# 1 0.027190 -0.005046 -0.005255 0.000000 0.000000 0.000000
# 2 -0.005046 0.016728 -0.003402 0.000000 0.000000 0.000000
# 3 -0.005255 -0.003402 0.008541 0.000000 0.000000 0.000000
# 4 0.000000 0.000000 0.000000 -0.006428 0.000000 0.000000
# 5 0.000000 0.000000 0.000000 0.000000 0.047602 0.000000
# 6 0.000000 0.000000 0.000000 0.000000 0.000000 -0.002832
#
#
# Mechanical properties :
#
#
# Convention : Reuss Voigt Hill
#
# Bulk Modulus (GPa) = 39.91921 54.75272 47.33597
# Shear Modulus (GPa) = 39.50714 -85.72292 -23.10789
#
# Velocity S-wave (km/s) = 4.53034 -6.67332 -3.46476
# Velocity P-wave (km/s) = 6.93566 5.56178 2.93002
#
# Compressibility (1/GPa) = 0.02505059
#
# Stress axis : x y z
#
# Youngs Moduli (GPa) = 36.77868 59.78045 117.07722
#
# Poissons Ratio (x) = 0.30168 0.61529
# Poissons Ratio (y) = 0.18560 0.39833
# Poissons Ratio (z) = 0.19329 0.20339
#
# Static dielectric constant tensor:
#      x y z
#    x 1.865050 0.000000 0.000000 
#    y 0.000000 1.664000 0.000000 
#    z 0.000000 0.000000 1.685800 
# 
# From -- ./inp_files/37180.got.cif
#   From: 2010.05.17/outbox.cif.g08.bks.cpg/sg72_19_cif.got.tgz:37180.got - 2010.06.03 17:03:01.
