data_PCOD9527939
_publ_section_title
;
Structure prediction by ZEFSAII (Michael W. Deem and Ramdas Pophale) SiO2 
 PCOD9527939
Probable space group: I B A M
;
_chemical_formula_sum "Si O2"
_cell_formula_units_Z 80
_cell_length_a 14.360304
_cell_length_b 10.208124
_cell_length_c 26.257529
_cell_angle_alpha 90.000000
_cell_angle_beta 90.000000
_cell_angle_gamma 90.000000
_cell_volume 3849.137492
_symmetry_space_group_name_H-M "I B A M"
_symmetry_group_IT_number 72
_symmetry_cell_setting 'orthorhombic'
loop_
_space_group_symop_operation_xyz
x,y,z
-x,-y,z
x,-y,1/2-z
-x,y,1/2-z
-x,-y,-z
x,y,-z
-x,y,1/2+z
x,-y,1/2+z
1/2+x,1/2+y,1/2+z
1/2-x,1/2-y,1/2+z
1/2+x,1/2-y,-z
1/2-x,1/2+y,-z
1/2-x,1/2-y,1/2-z
1/2+x,1/2+y,1/2-z
1/2-x,1/2+y,z
1/2+x,1/2-y,z
loop_
_atom_site_type_symbol
_atom_site_label
_atom_site_fract_x
_atom_site_fract_y
_atom_site_fract_z
Si Si1 0.968844 0.857390 0.875460
Si Si2 0.717657 0.379697 0.715516
Si Si3 0.168304 0.199453 0.600618
Si Si4 0.407612 0.179030 0.718869
Si Si5 0.787978 0.072582 0.559712
O O1 0.939296 0.762705 0.829707
O O2 0.883489 0.883486 0.912973
O O3 0.057281 0.802344 0.905779
O O4 0.000000 0.000000 0.854400
O O5 0.682836 0.500000 0.750000
O O6 0.684067 0.345104 0.658867
O O7 0.664345 0.262796 0.746524
O O8 0.826926 0.422422 0.703444
O O9 0.210289 0.339864 0.587418
O O10 0.216532 0.083780 0.568241
O O11 0.500000 0.143449 0.750000
O O12 0.787695 0.101014 0.500000
#
# Coordination Sequence:
#
# PCOD9527939 Si02
#       5
#    16  16  16  16  16
#     4  10  21  38  62  93 123 160 208 255 305 372
#     4  11  23  36  58  90 130 162 200 244 307 372
#     4  11  23  41  66  92 126 163 209 261 313 377
#     4  11  22  36  59  91 121 163 203 242 302 370
#     4  11  24  43  65  91 122 162 214 268 317 364
#
# _framework density 20.783877
#
# number of rings (size 3 to 8) (size 9 to 14) (size 15 to 20)
#    0.000    1.200    4.000    3.000    2.800    4.800 
#    0.000    1.000    0.000    2.400    0.000    0.000 
#    0.000    0.000    0.000    0.000    0.000    0.000 
#
# Total GULP energy -222769.546251 kJ/mol
# GULP energy per Si atom -5569.238656 kJ/mol
# Density = 2.073657 g / cm^3
# Si number density = 20.783877 Si / 1000 Ang^3
#
#
#
# Elastic Constant Matrix: (Units=GPa)
#
#
# Indices 1 2 3 4 5 6 
#
# 1 73.0659 14.1818 -28.1770 0.0000 0.0000 0.0000
# 2 14.1818 47.6670 21.7001 0.0000 0.0000 0.0000
# 3 -28.1770 21.7001 99.2956 0.0000 0.0000 0.0000
# 4 0.0000 0.0000 0.0000 38.2184 0.0000 0.0000
# 5 0.0000 0.0000 0.0000 0.0000 3.6075 0.0000
# 6 0.0000 0.0000 0.0000 0.0000 0.0000 23.7430
#
#
#
# Elastic Compliance Matrix: (Units=1/GPa)
#
#
# Indices 1 2 3 4 5 6 
#
# 1 0.018040 -0.008548 0.006987 0.000000 0.000000 0.000000
# 2 -0.008548 0.027347 -0.008402 0.000000 0.000000 0.000000
# 3 0.006987 -0.008402 0.013890 0.000000 0.000000 0.000000
# 4 0.000000 0.000000 0.000000 0.026165 0.000000 0.000000
# 5 0.000000 0.000000 0.000000 0.000000 0.277198 0.000000
# 6 0.000000 0.000000 0.000000 0.000000 0.000000 0.042118
#
#
# Mechanical properties :
#
#
# Convention : Reuss Voigt Hill
#
# Bulk Modulus (GPa) = 25.41228 26.15983 25.78605
# Shear Modulus (GPa) = 11.42070 27.26869 19.34469
#
# Velocity S-wave (km/s) = 2.34668 3.62610 3.05414
# Velocity P-wave (km/s) = 4.42674 5.49048 4.98705
#
# Compressibility (1/GPa) = 0.03935106
#
# Stress axis : x y z
#
# Youngs Moduli (GPa) = 55.43225 36.56689 71.99455
#
# Poissons Ratio (x) = 0.31258 -0.50305
# Poissons Ratio (y) = 0.47385 0.60491
# Poissons Ratio (z) = -0.38732 0.30724
#
# Static dielectric constant tensor:
#      x y z
#    x 1.594100 0.000000 0.000000 
#    y 0.000000 0.928930 0.000000 
#    z 0.000000 0.000000 1.656780 
# 
# From -- ./inp_files/44059.got.cif
#   From: 2010.05.17/outbox.cif.g08.bks.cpg/sg72_23_cif.got.tgz:44059.got - 2010.06.03 17:03:01.
