data_PCOD9527951
_publ_section_title
;
Structure prediction by ZEFSAII (Michael W. Deem and Ramdas Pophale) SiO2 
 PCOD9527951
Probable space group: I B A M
;
_chemical_formula_sum "Si O2"
_cell_formula_units_Z 128
_cell_length_a 12.402619
_cell_length_b 23.862999
_cell_length_c 18.720719
_cell_angle_alpha 90.000000
_cell_angle_beta 90.000000
_cell_angle_gamma 90.000000
_cell_volume 5540.652977
_symmetry_space_group_name_H-M "I B A M"
_symmetry_group_IT_number 72
_symmetry_cell_setting 'orthorhombic'
loop_
_space_group_symop_operation_xyz
x,y,z
-x,-y,z
x,-y,1/2-z
-x,y,1/2-z
-x,-y,-z
x,y,-z
-x,y,1/2+z
x,-y,1/2+z
1/2+x,1/2+y,1/2+z
1/2-x,1/2-y,1/2+z
1/2+x,1/2-y,-z
1/2-x,1/2+y,-z
1/2-x,1/2-y,1/2-z
1/2+x,1/2+y,1/2-z
1/2-x,1/2+y,z
1/2+x,1/2-y,z
loop_
_atom_site_type_symbol
_atom_site_label
_atom_site_fract_x
_atom_site_fract_y
_atom_site_fract_z
Si Si1 0.313347 0.679909 0.416465
Si Si2 0.219508 0.460334 0.577911
Si Si3 0.382589 0.170874 0.686635
Si Si4 0.571846 0.396375 0.817010
Si Si5 0.187495 0.436666 0.275229
Si Si6 0.900203 0.054206 0.916909
Si Si7 0.311173 0.337016 0.578240
Si Si8 0.615209 0.217730 0.663572
O O1 0.312758 0.696207 0.500000
O O2 0.197230 0.681237 0.378596
O O3 0.350935 0.616120 0.411657
O O4 0.386429 0.720735 0.368997
O O5 0.171090 0.473205 0.500000
O O6 0.142891 0.443278 0.643526
O O7 0.303084 0.510289 0.597193
O O8 0.287829 0.403372 0.569591
O O9 0.365551 0.109435 0.723437
O O10 0.497193 0.184446 0.838980
O O11 0.355932 0.212495 0.752763
O O12 0.500000 0.382223 0.750000
O O13 0.686719 0.418672 0.786230
O O14 0.503000 0.440746 0.864525
O O15 0.595305 0.341343 0.864214
O O16 0.182091 0.500000 0.250000
O O17 0.932845 0.046778 0.000000
O O18 0.336139 0.313691 0.500000
O O19 0.206995 0.310923 0.614943
#
# Coordination Sequence:
#
# PCOD9527951 Si02
#       8
#    16  16  16  16  16  16  16  16
#     4  11  25  45  70 100 137 181 233 295 361 430
#     4   9  18  35  61  91 133 182 230 286 350 421
#     4  11  24  47  72 106 140 178 236 296 365 429
#     4  11  21  35  58  92 139 183 234 282 348 422
#     4  11  22  40  66  99 142 189 237 299 362 430
#     4  10  22  39  62  99 143 189 237 293 360 429
#     4  10  21  38  63  97 134 179 233 289 346 417
#     4  11  24  46  72  99 139 181 235 293 359 426
#
# _framework density 23.101970000000001
#
# number of rings (size 3 to 8) (size 9 to 14) (size 15 to 20)
#    0.000    1.500    2.500    3.375    0.000    6.750 
#    6.750    8.125    0.000    0.000    0.000    7.875 
#    0.000    0.000    0.000    0.000    0.000    0.000 
#
# Total GULP energy -357414.220476 kJ/mol
# GULP energy per Si atom -5584.597195 kJ/mol
# Density = 2.304939 g / cm^3
# Si number density = 23.101970 Si / 1000 Ang^3
#
#
#
# Elastic Constant Matrix: (Units=GPa)
#
#
# Indices 1 2 3 4 5 6 
#
# 1 64.7271 37.0525 15.9517 0.0000 0.0000 0.0000
# 2 37.0525 112.0296 18.3515 0.0000 0.0000 0.0000
# 3 15.9517 18.3515 104.9534 0.0000 0.0000 0.0000
# 4 0.0000 0.0000 0.0000 27.8453 0.0000 0.0000
# 5 0.0000 0.0000 0.0000 0.0000 4.1456 0.0000
# 6 0.0000 0.0000 0.0000 0.0000 0.0000 24.9195
#
#
#
# Elastic Compliance Matrix: (Units=1/GPa)
#
#
# Indices 1 2 3 4 5 6 
#
# 1 0.019412 -0.006112 -0.001882 0.000000 0.000000 0.000000
# 2 -0.006112 0.011114 -0.001014 0.000000 0.000000 0.000000
# 3 -0.001882 -0.001014 0.009991 0.000000 0.000000 0.000000
# 4 0.000000 0.000000 0.000000 0.035913 0.000000 0.000000
# 5 0.000000 0.000000 0.000000 0.000000 0.241221 0.000000
# 6 0.000000 0.000000 0.000000 0.000000 0.000000 0.040129
#
#
# Mechanical properties :
#
#
# Convention : Reuss Voigt Hill
#
# Bulk Modulus (GPa) = 44.44225 47.15794 45.80009
# Shear Modulus (GPa) = 13.04471 25.40569 19.22520
#
# Velocity S-wave (km/s) = 2.37883 3.31980 2.88790
# Velocity P-wave (km/s) = 5.17922 5.92891 5.56670
#
# Compressibility (1/GPa) = 0.02250111
#
# Stress axis : x y z
#
# Youngs Moduli (GPa) = 51.51448 89.97771 100.08610
#
# Poissons Ratio (x) = 0.54995 0.18833
# Poissons Ratio (y) = 0.31486 0.10152
# Poissons Ratio (z) = 0.09693 0.09127
#
# Static dielectric constant tensor:
#      x y z
#    x 1.881710 0.000000 0.000000 
#    y 0.000000 1.918740 0.000000 
#    z 0.000000 0.000000 2.050010 
# 
# From -- ./inp_files/39974.got.cif
#   From: 2010.05.17/outbox.cif.g08.bks.cpg/sg72_20_cif.got.tgz:39974.got - 2010.06.03 17:03:01.
