data_PCOD9527878
_publ_section_title
;
Structure prediction by ZEFSAII (Michael W. Deem and Ramdas Pophale) SiO2 
 PCOD9527878
Probable space group: I B A M
;
_chemical_formula_sum "Si O2"
_cell_formula_units_Z 64
_cell_length_a 14.961025
_cell_length_b 19.862663
_cell_length_c 8.649496
_cell_angle_alpha 90.000000
_cell_angle_beta 90.000000
_cell_angle_gamma 90.000000
_cell_volume 2570.334379
_symmetry_space_group_name_H-M "I B A M"
_symmetry_group_IT_number 72
_symmetry_cell_setting 'orthorhombic'
loop_
_space_group_symop_operation_xyz
x,y,z
-x,-y,z
x,-y,1/2-z
-x,y,1/2-z
-x,-y,-z
x,y,-z
-x,y,1/2+z
x,-y,1/2+z
1/2+x,1/2+y,1/2+z
1/2-x,1/2-y,1/2+z
1/2+x,1/2-y,-z
1/2-x,1/2+y,-z
1/2-x,1/2-y,1/2-z
1/2+x,1/2+y,1/2-z
1/2-x,1/2+y,z
1/2+x,1/2-y,z
loop_
_atom_site_type_symbol
_atom_site_label
_atom_site_fract_x
_atom_site_fract_y
_atom_site_fract_z
Si Si1 0.444938 0.399822 0.500000
Si Si2 0.347058 0.600767 0.500000
Si Si3 0.500000 0.812054 0.750000
Si Si4 0.646047 0.073858 0.812233
Si Si5 0.616654 0.500000 0.750000
Si Si6 0.243714 0.629365 0.000000
Si Si7 0.377308 0.743219 0.500000
O O1 0.546308 0.376197 0.500000
O O2 0.435437 0.449708 0.641983
O O3 0.351442 0.360657 0.500000
O O4 0.331723 0.551068 0.640824
O O5 0.315127 0.676151 0.500000
O O6 0.427238 0.865634 0.815403
O O7 0.442561 0.761519 0.642949
O O8 0.708685 0.094581 0.659981
O O9 0.614164 0.000000 0.750000
O O10 0.670659 0.068397 0.000000
O O11 0.197025 0.699983 0.000000
#
# Coordination Sequence:
#
# PCOD9527878 Si02
#       7
#     8   8   8  16   8   8   8
#     4  11  22  40  66  94 138 166 216 283 334 392
#     4  11  22  44  74 101 127 172 224 284 336 398
#     4  10  21  38  58  91 120 176 232 278 322 401
#     4  11  21  36  60  89 130 181 235 285 335 385
#     4  10  23  42  70 104 124 167 232 279 330 400
#     4  10  25  42  60  99 141 176 222 273 340 424
#     4  10  23  40  68  90 132 172 221 270 339 403
#
# _framework density 24.899486
#
# number of rings (size 3 to 8) (size 9 to 14) (size 15 to 20)
#    0.000    1.500    2.500    3.375    5.250    1.000 
#    2.250    1.250    0.000    0.000    0.000    0.000 
#    0.000    0.000    0.000    0.000    0.000    0.000 
#
# Total GULP energy -178138.366589 kJ/mol
# GULP energy per Si atom -5566.823956 kJ/mol
# Density = 2.484281 g / cm^3
# Si number density = 24.899486 Si / 1000 Ang^3
#
#
#
# Elastic Constant Matrix: (Units=GPa)
#
#
# Indices 1 2 3 4 5 6 
#
# 1 79.7442 6.1201 39.8558 0.0000 0.0000 0.0000
# 2 6.1201 157.2008 55.4198 0.0000 0.0000 0.0000
# 3 39.8558 55.4198 190.0119 0.0000 0.0000 0.0000
# 4 0.0000 0.0000 0.0000 19.0042 0.0000 0.0000
# 5 0.0000 0.0000 0.0000 0.0000 59.7935 0.0000
# 6 0.0000 0.0000 0.0000 0.0000 0.0000 10.6839
#
#
#
# Elastic Compliance Matrix: (Units=1/GPa)
#
#
# Indices 1 2 3 4 5 6 
#
# 1 0.014051 0.000548 -0.003107 0.000000 0.000000 0.000000
# 2 0.000548 0.007112 -0.002189 0.000000 0.000000 0.000000
# 3 -0.003107 -0.002189 0.006553 0.000000 0.000000 0.000000
# 4 0.000000 0.000000 0.000000 0.052620 0.000000 0.000000
# 5 0.000000 0.000000 0.000000 0.000000 0.016724 0.000000
# 6 0.000000 0.000000 0.000000 0.000000 0.000000 0.093599
#
#
# Mechanical properties :
#
#
# Convention : Reuss Voigt Hill
#
# Bulk Modulus (GPa) = 54.88575 69.97204 62.42890
# Shear Modulus (GPa) = 24.24495 39.60040 31.92267
#
# Velocity S-wave (km/s) = 3.12382 3.99232 3.58447
# Velocity P-wave (km/s) = 5.92468 7.02953 6.50062
#
# Compressibility (1/GPa) = 0.01821966
#
# Stress axis : x y z
#
# Youngs Moduli (GPa) = 71.16945 140.61234 152.59933
#
# Poissons Ratio (x) = -0.07711 0.47416
# Poissons Ratio (y) = -0.03903 0.33408
# Poissons Ratio (z) = 0.22114 0.30784
#
# Static dielectric constant tensor:
#      x y z
#    x 2.227290 0.000000 0.000000 
#    y 0.000000 1.900200 0.000000 
#    z 0.000000 0.000000 2.090880 
# 
# From -- ./inp_files/4376.got.cif
#   From: 2010.05.17/outbox.cif.g08.bks.cpg/sg72_3_cif.got.tgz:4376.got - 2010.06.03 17:03:01.
