data_PCOD9527777
_publ_section_title
;
Structure prediction by ZEFSAII (Michael W. Deem and Ramdas Pophale) SiO2 
 PCOD9527777
Probable space group: I B A M
;
_chemical_formula_sum "Si O2"
_cell_formula_units_Z 56
_cell_length_a 18.820873
_cell_length_b 13.982394
_cell_length_c 10.249512
_cell_angle_alpha 90.000000
_cell_angle_beta 90.000000
_cell_angle_gamma 90.000000
_cell_volume 2697.270410
_symmetry_space_group_name_H-M "I B A M"
_symmetry_group_IT_number 72
_symmetry_cell_setting 'orthorhombic'
loop_
_space_group_symop_operation_xyz
x,y,z
-x,-y,z
x,-y,1/2-z
-x,y,1/2-z
-x,-y,-z
x,y,-z
-x,y,1/2+z
x,-y,1/2+z
1/2+x,1/2+y,1/2+z
1/2-x,1/2-y,1/2+z
1/2+x,1/2-y,-z
1/2-x,1/2+y,-z
1/2-x,1/2-y,1/2-z
1/2+x,1/2+y,1/2-z
1/2-x,1/2+y,z
1/2+x,1/2-y,z
loop_
_atom_site_type_symbol
_atom_site_label
_atom_site_fract_x
_atom_site_fract_y
_atom_site_fract_z
Si Si1 0.944943 0.622178 0.359878
Si Si2 0.223247 0.164739 0.653347
Si Si3 0.937246 0.851613 0.650150
Si Si4 0.322248 0.000000 0.750000
O O1 0.977365 0.603458 0.500000
O O2 0.933700 0.735762 0.349923
O O3 0.873149 0.564180 0.340265
O O4 0.000000 0.597220 0.250000
O O5 0.221634 0.195717 0.500000
O O6 0.250000 0.250000 0.750000
O O7 0.144071 0.125991 0.687703
O O8 0.275701 0.075509 0.670502
O O9 0.951441 0.882426 0.500000
O O10 0.000000 0.880475 0.750000
#
# Coordination Sequence:
#
# PCOD9527777 Si02
#       4
#    16  16  16   8
#     4  10  21  37  58  88 125 161 202 250 307 376
#     4  11  24  42  65  93 129 167 210 260 313 373
#     4   9  19  39  62  88 119 160 207 254 305 367
#     4  12  23  38  63  94 126 166 206 256 315 372
#
# _framework density 20.761731000000001
#
# number of rings (size 3 to 8) (size 9 to 14) (size 15 to 20)
#    0.000    1.714    2.857    1.286    0.000    5.714 
#    0.000    0.714    0.000    3.429    0.000    0.000 
#    0.000    0.000    0.000    0.000    0.000    0.000 
#
# Total GULP energy -156290.108590 kJ/mol
# GULP energy per Si atom -5581.789592 kJ/mol
# Density = 2.071448 g / cm^3
# Si number density = 20.761731 Si / 1000 Ang^3
#
#
#
# Elastic Constant Matrix: (Units=GPa)
#
#
# Indices 1 2 3 4 5 6 
#
# 1 153.3646 21.5253 82.9795 0.0000 0.0000 0.0000
# 2 21.5253 49.4260 13.7470 0.0000 0.0000 0.0000
# 3 82.9795 13.7470 144.3594 0.0000 0.0000 0.0000
# 4 0.0000 0.0000 0.0000 138.9043 0.0000 0.0000
# 5 0.0000 0.0000 0.0000 0.0000 35.0646 0.0000
# 6 0.0000 0.0000 0.0000 0.0000 0.0000 39.2323
#
#
#
# Elastic Compliance Matrix: (Units=1/GPa)
#
#
# Indices 1 2 3 4 5 6 
#
# 1 0.009822 -0.002781 -0.005381 0.000000 0.000000 0.000000
# 2 -0.002781 0.021570 -0.000456 0.000000 0.000000 0.000000
# 3 -0.005381 -0.000456 0.010064 0.000000 0.000000 0.000000
# 4 0.000000 0.000000 0.000000 0.007199 0.000000 0.000000
# 5 0.000000 0.000000 0.000000 0.000000 0.028519 0.000000
# 6 0.000000 0.000000 0.000000 0.000000 0.000000 0.025489
#
#
# Mechanical properties :
#
#
# Convention : Reuss Voigt Hill
#
# Bulk Modulus (GPa) = 41.28688 64.85040 53.06864
# Shear Modulus (GPa) = 39.07103 57.90012 48.48558
#
# Velocity S-wave (km/s) = 4.34277 5.28663 4.83777
# Velocity P-wave (km/s) = 6.71382 8.28058 7.53802
#
# Compressibility (1/GPa) = 0.02422077
#
# Stress axis : x y z
#
# Youngs Moduli (GPa) = 101.80972 46.36045 99.36740
#
# Poissons Ratio (x) = 0.12893 0.53471
# Poissons Ratio (y) = 0.28313 0.04526
# Poissons Ratio (z) = 0.54785 0.02112
#
# Static dielectric constant tensor:
#      x y z
#    x 1.755800 0.000000 0.000000 
#    y 0.000000 1.792620 0.000000 
#    z 0.000000 0.000000 1.741820 
# 
# From -- ./inp_files/3131.got.cif
#   From: 2010.05.17/outbox.cif.g08.bks.cpg/sg72_2_cif.got.tgz:3131.got - 2010.06.03 17:03:01.
