data_PCOD9527673
_publ_section_title
;
Structure prediction by ZEFSAII (Michael W. Deem and Ramdas Pophale) SiO2 
 PCOD9527673
Probable space group: I B A M
;
_chemical_formula_sum "Si O2"
_cell_formula_units_Z 112
_cell_length_a 22.760874
_cell_length_b 14.905922
_cell_length_c 15.765223
_cell_angle_alpha 90.000000
_cell_angle_beta 90.000000
_cell_angle_gamma 90.000000
_cell_volume 5348.695782
_symmetry_space_group_name_H-M "I B A M"
_symmetry_group_IT_number 72
_symmetry_cell_setting 'orthorhombic'
loop_
_space_group_symop_operation_xyz
x,y,z
-x,-y,z
x,-y,1/2-z
-x,y,1/2-z
-x,-y,-z
x,y,-z
-x,y,1/2+z
x,-y,1/2+z
1/2+x,1/2+y,1/2+z
1/2-x,1/2-y,1/2+z
1/2+x,1/2-y,-z
1/2-x,1/2+y,-z
1/2-x,1/2-y,1/2-z
1/2+x,1/2+y,1/2-z
1/2-x,1/2+y,z
1/2+x,1/2-y,z
loop_
_atom_site_type_symbol
_atom_site_label
_atom_site_fract_x
_atom_site_fract_y
_atom_site_fract_z
Si Si1 0.190164 0.630372 0.096956
Si Si2 0.751905 0.142765 0.763863
Si Si3 0.338792 0.929653 0.904673
Si Si4 0.129546 0.196753 0.680067
Si Si5 0.020796 0.093749 0.402849
Si Si6 0.042205 0.228462 0.181226
Si Si7 0.476281 0.096630 0.598174
O O1 0.239104 0.610039 0.168665
O O2 0.154359 0.537597 0.098693
O O3 0.153093 0.716776 0.127680
O O4 0.210650 0.644502 0.000000
O O5 0.750000 0.250000 0.750000
O O6 0.703141 0.107214 0.830321
O O7 0.816536 0.129940 0.800881
O O8 0.405538 0.896445 0.898999
O O9 0.315868 0.907408 0.000000
O O10 0.078806 0.143097 0.632218
O O11 0.103495 0.233213 0.770065
O O12 0.035016 0.075497 0.500000
O O13 0.965213 0.162079 0.396753
O O14 0.000000 0.000000 0.362649
O O15 0.008090 0.319433 0.156056
O O16 0.000000 0.181925 0.250000
O O17 0.495482 0.107653 0.500000
O O18 0.500000 0.000000 0.626926
#
# Coordination Sequence:
#
# PCOD9527673 Si02
#       7
#    16  16  16  16  16  16  16
#     4  10  21  39  62  92 125 167 213 264 322 392
#     4  10  21  39  62  90 123 167 216 268 329 394
#     4  10  22  39  61  90 131 167 209 268 323 386
#     4  10  22  40  66  91 124 171 219 265 336 409
#     4  10  22  42  65  91 124 165 215 276 336 396
#     4  10  22  38  56  88 122 158 207 263 318 381
#     4  10  21  36  57  88 125 166 204 249 316 387
#
# _framework density 20.939684
#
# number of rings (size 3 to 8) (size 9 to 14) (size 15 to 20)
#    0.000    2.000    0.000    3.000    4.000    5.714 
#    5.143    1.429    0.000    0.000    0.000    0.000 
#    0.000    0.000    0.000    0.000    0.000    0.000 
#
# Total GULP energy -311791.558313 kJ/mol
# GULP energy per Si atom -5567.706398 kJ/mol
# Density = 2.089202 g / cm^3
# Si number density = 20.939684 Si / 1000 Ang^3
#
#
#
# Elastic Constant Matrix: (Units=GPa)
#
#
# Indices 1 2 3 4 5 6 
#
# 1 66.8684 12.1268 50.6000 0.0000 0.0000 0.0000
# 2 12.1268 90.4593 39.3126 0.0000 0.0000 0.0000
# 3 50.6000 39.3126 111.1419 0.0000 0.0000 0.0000
# 4 0.0000 0.0000 0.0000 27.9340 0.0000 0.0000
# 5 0.0000 0.0000 0.0000 0.0000 22.0301 0.0000
# 6 0.0000 0.0000 0.0000 0.0000 0.0000 32.4944
#
#
#
# Elastic Compliance Matrix: (Units=1/GPa)
#
#
# Indices 1 2 3 4 5 6 
#
# 1 0.023043 0.001737 -0.011106 0.000000 0.000000 0.000000
# 2 0.001737 0.013194 -0.005458 0.000000 0.000000 0.000000
# 3 -0.011106 -0.005458 0.015984 0.000000 0.000000 0.000000
# 4 0.000000 0.000000 0.000000 0.035799 0.000000 0.000000
# 5 0.000000 0.000000 0.000000 0.000000 0.045393 0.000000
# 6 0.000000 0.000000 0.000000 0.000000 0.000000 0.030774
#
#
# Mechanical properties :
#
#
# Convention : Reuss Voigt Hill
#
# Bulk Modulus (GPa) = 44.30855 52.50538 48.40697
# Shear Modulus (GPa) = 24.83093 27.58704 26.20899
#
# Velocity S-wave (km/s) = 3.44733 3.63361 3.54169
# Velocity P-wave (km/s) = 6.08699 6.53706 6.31604
#
# Compressibility (1/GPa) = 0.02256901
#
# Stress axis : x y z
#
# Youngs Moduli (GPa) = 43.39645 75.79392 62.56247
#
# Poissons Ratio (x) = -0.13167 0.69479
# Poissons Ratio (y) = -0.07539 0.34145
# Poissons Ratio (z) = 0.48194 0.41366
#
# Static dielectric constant tensor:
#      x y z
#    x 1.834010 0.000000 0.000000 
#    y 0.000000 1.816770 0.000000 
#    z 0.000000 0.000000 1.847020 
# 
# From -- ./inp_files/25198.got.cif
#   From: 2010.05.17/outbox.cif.g08.bks.cpg/sg72_13_cif.got.tgz:25198.got - 2010.06.03 17:03:01.
