data_PCOD9527609
_publ_section_title
;
Structure prediction by ZEFSAII (Michael W. Deem and Ramdas Pophale) SiO2 
 PCOD9527609
Probable space group: I B A M
;
_chemical_formula_sum "Si O2"
_cell_formula_units_Z 96
_cell_length_a 12.086733
_cell_length_b 23.543017
_cell_length_c 14.668881
_cell_angle_alpha 90.000000
_cell_angle_beta 90.000000
_cell_angle_gamma 90.000000
_cell_volume 4174.149794
_symmetry_space_group_name_H-M "I B A M"
_symmetry_group_IT_number 72
_symmetry_cell_setting 'orthorhombic'
loop_
_space_group_symop_operation_xyz
x,y,z
-x,-y,z
x,-y,1/2-z
-x,y,1/2-z
-x,-y,-z
x,y,-z
-x,y,1/2+z
x,-y,1/2+z
1/2+x,1/2+y,1/2+z
1/2-x,1/2-y,1/2+z
1/2+x,1/2-y,-z
1/2-x,1/2+y,-z
1/2-x,1/2-y,1/2-z
1/2+x,1/2+y,1/2-z
1/2-x,1/2+y,z
1/2+x,1/2-y,z
loop_
_atom_site_type_symbol
_atom_site_label
_atom_site_fract_x
_atom_site_fract_y
_atom_site_fract_z
Si Si1 0.320643 0.578314 0.895612
Si Si2 0.114734 0.351257 0.366652
Si Si3 0.518765 0.647123 0.109633
Si Si4 0.634059 0.139046 0.148854
Si Si5 0.696804 0.733128 0.846718
Si Si6 0.191557 0.047221 0.390800
O O1 0.194845 0.598307 0.895745
O O2 0.397099 0.628821 0.856744
O O3 0.328785 0.515929 0.853661
O O4 0.361151 0.573418 0.000000
O O5 0.119441 0.350812 0.256601
O O6 0.168606 0.291723 0.396428
O O7 0.987503 0.358411 0.393268
O O8 0.581223 0.698845 0.157726
O O9 0.591627 0.590592 0.126601
O O10 0.519618 0.659818 0.000000
O O11 0.715757 0.188264 0.111655
O O12 0.697603 0.079393 0.139844
O O13 0.750000 0.750000 0.750000
O O14 0.200672 0.041787 0.500000
#
# Coordination Sequence:
#
# PCOD9527609 Si02
#       6
#    16  16  16  16  16  16
#     4  10  21  35  55  86 115 145 188 237 294 348
#     4  10  21  35  55  79 114 150 187 238 282 344
#     4   9  18  35  59  84 111 148 189 234 290 343
#     4   9  20  38  54  80 108 149 197 229 290 346
#     4   9  19  36  57  80 110 147 189 236 282 345
#     4   9  18  36  59  80 110 148 189 240 290 346
#
# _framework density 22.998695999999999
#
# number of rings (size 3 to 8) (size 9 to 14) (size 15 to 20)
#    0.000    2.667    0.000    0.500    2.333    4.667 
#    3.000    5.833    0.000    6.000    0.000    0.000 
#    0.000    0.000    0.000    0.000    0.000    0.333 
#
# Total GULP energy -268074.766779 kJ/mol
# GULP energy per Si atom -5584.890975 kJ/mol
# Density = 2.294635 g / cm^3
# Si number density = 22.998696 Si / 1000 Ang^3
#
#
#
# Elastic Constant Matrix: (Units=GPa)
#
#
# Indices 1 2 3 4 5 6 
#
# 1 108.9792 10.6563 8.3066 0.0001 0.0000 0.0000
# 2 10.6563 84.7064 11.7000 0.0002 -0.0001 -0.0001
# 3 8.3066 11.7000 78.2264 0.0001 -0.0001 -0.0001
# 4 0.0001 0.0002 0.0001 20.1766 -0.0001 -0.0001
# 5 0.0000 -0.0001 -0.0001 -0.0001 14.0253 0.0000
# 6 0.0000 -0.0001 -0.0001 -0.0001 0.0000 27.1325
#
#
#
# Elastic Compliance Matrix: (Units=1/GPa)
#
#
# Indices 1 2 3 4 5 6 
#
# 1 0.009343 -0.001060 -0.000834 0.000000 0.000000 0.000000
# 2 -0.001060 0.012175 -0.001708 0.000000 0.000000 0.000000
# 3 -0.000834 -0.001708 0.013127 0.000000 0.000000 0.000000
# 4 0.000000 0.000000 0.000000 0.049562 0.000000 0.000000
# 5 0.000000 0.000000 0.000000 0.000000 0.071300 0.000000
# 6 0.000000 0.000000 0.000000 0.000000 0.000000 0.036856
#
#
# Mechanical properties :
#
#
# Convention : Reuss Voigt Hill
#
# Bulk Modulus (GPa) = 36.44158 37.02642 36.73400
# Shear Modulus (GPa) = 23.95611 28.35017 26.15314
#
# Velocity S-wave (km/s) = 3.23093 3.51477 3.37584
# Velocity P-wave (km/s) = 5.45875 5.71015 5.58587
#
# Compressibility (1/GPa) = 0.02744118
#
# Stress axis : x y z
#
# Youngs Moduli (GPa) = 107.02883 82.13664 76.17638
#
# Poissons Ratio (x) = 0.08709 0.06350
# Poissons Ratio (y) = 0.11348 0.13014
# Poissons Ratio (z) = 0.08921 0.14032
#
# Static dielectric constant tensor:
#      x y z
#    x 1.850790 0.000000 0.000000 
#    y 0.000000 1.852210 0.000000 
#    z 0.000000 0.000000 1.947660 
# 
# From -- ./inp_files/33265.got.cif
#   From: 2010.05.17/outbox.cif.g08.bks.cpg/sg72_17_cif.got.tgz:33265.got - 2010.06.03 17:03:01.
