data_PCOD9527212
_publ_section_title
;
Structure prediction by ZEFSAII (Michael W. Deem and Ramdas Pophale) SiO2 
 PCOD9527212
Probable space group: I B A M
;
_chemical_formula_sum "Si O2"
_cell_formula_units_Z 80
_cell_length_a 20.361349
_cell_length_b 9.880675
_cell_length_c 22.199727
_cell_angle_alpha 90.000000
_cell_angle_beta 90.000000
_cell_angle_gamma 90.000000
_cell_volume 4466.227036
_symmetry_space_group_name_H-M "I B A M"
_symmetry_group_IT_number 72
_symmetry_cell_setting 'orthorhombic'
loop_
_space_group_symop_operation_xyz
x,y,z
-x,-y,z
x,-y,1/2-z
-x,y,1/2-z
-x,-y,-z
x,y,-z
-x,y,1/2+z
x,-y,1/2+z
1/2+x,1/2+y,1/2+z
1/2-x,1/2-y,1/2+z
1/2+x,1/2-y,-z
1/2-x,1/2+y,-z
1/2-x,1/2-y,1/2-z
1/2+x,1/2+y,1/2-z
1/2-x,1/2+y,z
1/2+x,1/2-y,z
loop_
_atom_site_type_symbol
_atom_site_label
_atom_site_fract_x
_atom_site_fract_y
_atom_site_fract_z
Si Si1 0.096872 0.385907 0.000000
Si Si2 0.029201 0.149915 0.615748
Si Si3 0.279374 0.869918 0.791058
Si Si4 0.058091 0.312733 0.500000
Si Si5 0.112734 0.250008 0.126267
Si Si6 0.147157 0.034938 0.678646
O O1 0.100638 0.549649 0.000000
O O2 0.123398 0.314773 0.939531
O O3 0.018746 0.355238 0.000000
O O4 0.064059 0.220579 0.559155
O O5 0.084571 0.128570 0.665854
O O6 0.966035 0.238044 0.635224
O O7 0.000000 0.000000 0.600074
O O8 0.250000 0.750000 0.750000
O O9 0.345416 0.832553 0.825380
O O10 0.218132 0.902721 0.834736
O O11 0.291204 0.000000 0.750000
O O12 0.137858 0.097319 0.137503
O O13 0.146832 0.000000 0.750000
#
# Coordination Sequence:
#
# PCOD9527212 Si02
#       6
#     8  16  16   8  16  16
#     4   9  20  36  59  79 126 155 193 253 296 356
#     4   9  19  33  62  88 120 151 203 254 295 360
#     4  11  21  39  62  85 117 165 201 242 304 369
#     4   9  17  36  55  85 117 162 193 234 319 353
#     4  10  20  39  59  88 115 160 198 244 305 351
#     4  10  20  37  60  88 118 154 199 251 303 358
#
# _framework density 17.912212
#
# number of rings (size 3 to 8) (size 9 to 14) (size 15 to 20)
#    0.000    2.200    4.000    0.300    0.000    7.600 
#    0.000    2.000    0.000    0.000    0.000    0.000 
#    0.000    0.000    0.000    0.000    0.000    0.000 
#
# Total GULP energy -222726.175675 kJ/mol
# GULP energy per Si atom -5568.154392 kJ/mol
# Density = 1.787144 g / cm^3
# Si number density = 17.912212 Si / 1000 Ang^3
#
#
#
# Elastic Constant Matrix: (Units=GPa)
#
#
# Indices 1 2 3 4 5 6 
#
# 1 98.4301 48.7259 51.6501 0.0000 0.0000 0.0000
# 2 48.7259 80.7312 49.8545 0.0000 0.0000 0.0000
# 3 51.6501 49.8545 86.4239 0.0000 0.0000 0.0000
# 4 0.0000 0.0000 0.0000 28.5265 0.0000 0.0000
# 5 0.0000 0.0000 0.0000 0.0000 -70.9466 0.0000
# 6 0.0000 0.0000 0.0000 0.0000 0.0000 28.5228
#
#
#
# Elastic Compliance Matrix: (Units=1/GPa)
#
#
# Indices 1 2 3 4 5 6 
#
# 1 0.016484 -0.006004 -0.006388 0.000000 0.000000 0.000000
# 2 -0.006004 0.021428 -0.008773 0.000000 0.000000 0.000000
# 3 -0.006388 -0.008773 0.020449 0.000000 0.000000 0.000000
# 4 0.000000 0.000000 0.000000 0.035055 0.000000 0.000000
# 5 0.000000 0.000000 0.000000 0.000000 -0.014095 0.000000
# 6 0.000000 0.000000 0.000000 0.000000 0.000000 0.035060
#
#
# Mechanical properties :
#
#
# Convention : Reuss Voigt Hill
#
# Bulk Modulus (GPa) = 62.37660 62.89402 62.63531
# Shear Modulus (GPa) = 30.85406 4.91087 17.88247
#
# Velocity S-wave (km/s) = 4.15482 1.65758 3.16308
# Velocity P-wave (km/s) = 7.61025 6.23314 6.95586
#
# Compressibility (1/GPa) = 0.01603165
#
# Stress axis : x y z
#
# Youngs Moduli (GPa) = 60.66646 46.66765 48.90219
#
# Poissons Ratio (x) = 0.28020 0.31237
# Poissons Ratio (y) = 0.36425 0.42900
# Poissons Ratio (z) = 0.38751 0.40940
#
# Static dielectric constant tensor:
#      x y z
#    x 1.619810 0.000000 0.000000 
#    y 0.000000 1.662410 0.000000 
#    z 0.000000 0.000000 1.604520 
# 
# From -- ./inp_files/40112.got.cif
#   From: 2010.05.17/outbox.cif.g08.bks.cpg/sg72_21_cif.got.tgz:40112.got - 2010.06.03 17:03:01.
