data_PCOD9527182
_publ_section_title
;
Structure prediction by ZEFSAII (Michael W. Deem and Ramdas Pophale) SiO2 
 PCOD9527182
Probable space group: I B A M
;
_chemical_formula_sum "Si O2"
_cell_formula_units_Z 116
_cell_length_a 9.518607
_cell_length_b 25.633482
_cell_length_c 25.300095
_cell_angle_alpha 90.000000
_cell_angle_beta 90.000000
_cell_angle_gamma 90.000000
_cell_volume 6173.097722
_symmetry_space_group_name_H-M "I B A M"
_symmetry_group_IT_number 72
_symmetry_cell_setting 'orthorhombic'
loop_
_space_group_symop_operation_xyz
x,y,z
-x,-y,z
x,-y,1/2-z
-x,y,1/2-z
-x,-y,-z
x,y,-z
-x,y,1/2+z
x,-y,1/2+z
1/2+x,1/2+y,1/2+z
1/2-x,1/2-y,1/2+z
1/2+x,1/2-y,-z
1/2-x,1/2+y,-z
1/2-x,1/2-y,1/2-z
1/2+x,1/2+y,1/2-z
1/2-x,1/2+y,z
1/2+x,1/2-y,z
loop_
_atom_site_type_symbol
_atom_site_label
_atom_site_fract_x
_atom_site_fract_y
_atom_site_fract_z
Si Si1 0.217979 0.703624 0.823124
Si Si2 0.972456 0.376791 0.689939
Si Si3 0.000000 0.000000 0.000000
Si Si4 0.687102 0.319256 0.296186
Si Si5 0.610667 0.039690 0.886062
Si Si6 0.161402 0.017642 0.811029
Si Si7 0.563967 0.628210 0.650210
Si Si8 0.142696 0.091112 0.442295
O O1 0.285360 0.695368 0.764696
O O2 0.190539 0.764849 0.828266
O O3 0.326592 0.674705 0.861481
O O4 0.074588 0.671131 0.822874
O O5 0.814904 0.355639 0.686655
O O6 0.985962 0.425338 0.651905
O O7 0.000000 0.393184 0.750000
O O8 0.080765 0.965712 0.955168
O O9 0.546797 0.350547 0.307238
O O10 0.700799 0.079115 0.922061
O O11 0.500000 0.000000 0.912873
O O12 0.727125 0.010346 0.849581
O O13 0.150703 0.079440 0.824963
O O14 0.192930 0.000000 0.750000
O O15 0.000000 0.000000 0.820441
O O16 0.464852 0.614666 0.600341
O O17 0.142095 0.118688 0.500000
#
# Coordination Sequence:
#
# PCOD9527182 Si02
#       8
#    16  16   4  16  16  16  16  16
#     4  10  22  34  58  92 124 161 202 241 291 365
#     4  10  21  35  52  81 127 166 190 233 294 363
#     4   8  20  40  66  84 114 140 210 276 312 368
#     4  10  20  37  58  87 127 164 198 245 292 356
#     4  12  24  38  57  85 125 164 197 237 308 375
#     4  11  24  34  54  89 126 166 205 241 296 367
#     4  12  21  38  63  87 114 162 214 252 300 361
#     4  10  22  41  63  82 111 148 206 268 310 347
#
# _framework density 18.791212999999999
#
# number of rings (size 3 to 8) (size 9 to 14) (size 15 to 20)
#    0.414    0.966    2.759    2.897    9.655    2.483 
#    0.000    0.000    0.000    0.828    0.000    0.000 
#    0.000    0.000    0.000    0.000    0.000    0.000 
#
# Total GULP energy -322915.468982 kJ/mol
# GULP energy per Si atom -5567.508086 kJ/mol
# Density = 1.874844 g / cm^3
# Si number density = 18.791213 Si / 1000 Ang^3
#
#
#
# Elastic Constant Matrix: (Units=GPa)
#
#
# Indices 1 2 3 4 5 6 
#
# 1 50.6612 3.5471 17.5300 0.0000 0.0000 0.0000
# 2 3.5471 61.3870 20.8276 0.0000 0.0000 0.0000
# 3 17.5300 20.8276 54.7254 0.0000 0.0000 0.0000
# 4 0.0000 0.0000 0.0000 9.7260 0.0000 0.0000
# 5 0.0000 0.0000 0.0000 0.0000 1.9966 0.0000
# 6 0.0000 0.0000 0.0000 0.0000 0.0000 294.5741
#
#
#
# Elastic Compliance Matrix: (Units=1/GPa)
#
#
# Indices 1 2 3 4 5 6 
#
# 1 0.022290 0.001303 -0.007636 0.000000 0.000000 0.000000
# 2 0.001303 0.018782 -0.007565 0.000000 0.000000 0.000000
# 3 -0.007636 -0.007565 0.023598 0.000000 0.000000 0.000000
# 4 0.000000 0.000000 0.000000 0.102818 0.000000 0.000000
# 5 0.000000 0.000000 0.000000 0.000000 0.500846 0.000000
# 6 0.000000 0.000000 0.000000 0.000000 0.000000 0.003395
#
#
# Mechanical properties :
#
#
# Convention : Reuss Voigt Hill
#
# Bulk Modulus (GPa) = 27.12011 27.84255 27.48133
# Shear Modulus (GPa) = 7.02428 69.58394 38.30411
#
# Velocity S-wave (km/s) = 1.93551 6.09183 4.51977
# Velocity P-wave (km/s) = 4.41119 8.02057 6.47256
#
# Compressibility (1/GPa) = 0.03687301
#
# Stress axis : x y z
#
# Youngs Moduli (GPa) = 44.86329 53.24361 42.37598
#
# Poissons Ratio (x) = -0.06936 0.32358
# Poissons Ratio (y) = -0.05845 0.32059
# Poissons Ratio (z) = 0.34257 0.40280
#
# Static dielectric constant tensor:
#      x y z
#    x 1.690500 0.000000 0.000000 
#    y 0.000000 1.713850 0.000000 
#    z 0.000000 0.000000 1.704660 
# 
# From -- ./inp_files/51006.got.cif
#   From: 2010.05.17/outbox.cif.g08.bks.cpg/sg72_26_cif.got.tgz:51006.got - 2010.06.03 17:03:01.
