data_PCOD9527363
_publ_section_title
;
Structure prediction by ZEFSAII (Michael W. Deem and Ramdas Pophale) SiO2 
 PCOD9527363
Probable space group: I B A M
;
_chemical_formula_sum "Si O2"
_cell_formula_units_Z 104
_cell_length_a 12.828496
_cell_length_b 21.156125
_cell_length_c 16.695396
_cell_angle_alpha 90.000000
_cell_angle_beta 90.000000
_cell_angle_gamma 90.000000
_cell_volume 4531.151593
_symmetry_space_group_name_H-M "I B A M"
_symmetry_group_IT_number 72
_symmetry_cell_setting 'orthorhombic'
loop_
_space_group_symop_operation_xyz
x,y,z
-x,-y,z
x,-y,1/2-z
-x,y,1/2-z
-x,-y,-z
x,y,-z
-x,y,1/2+z
x,-y,1/2+z
1/2+x,1/2+y,1/2+z
1/2-x,1/2-y,1/2+z
1/2+x,1/2-y,-z
1/2-x,1/2+y,-z
1/2-x,1/2-y,1/2-z
1/2+x,1/2+y,1/2-z
1/2-x,1/2+y,z
1/2+x,1/2-y,z
loop_
_atom_site_type_symbol
_atom_site_label
_atom_site_fract_x
_atom_site_fract_y
_atom_site_fract_z
Si Si1 0.004644 0.112019 0.000000
Si Si2 0.724674 0.332599 0.000000
Si Si3 0.571947 0.265739 0.325360
Si Si4 0.940482 0.916636 0.332360
Si Si5 0.281968 0.058978 0.302916
Si Si6 0.478739 0.924532 0.093250
Si Si7 0.907705 0.234192 0.000000
Si Si8 0.177282 0.644630 0.162370
O O1 0.101091 0.161212 0.000000
O O2 0.002986 0.076042 0.915675
O O3 0.903104 0.158107 0.000000
O O4 0.794174 0.268146 0.000000
O O5 0.761812 0.366708 0.080482
O O6 0.500000 0.249710 0.250000
O O7 0.583178 0.340986 0.326312
O O8 0.536467 0.248158 0.416479
O O9 0.669506 0.219038 0.319694
O O10 0.831820 0.953757 0.337969
O O11 0.000000 0.931947 0.250000
O O12 0.364967 0.081317 0.367962
O O13 0.268823 0.112435 0.236430
O O14 0.321641 0.000000 0.250000
O O15 0.563635 0.886661 0.146105
O O16 0.500000 0.000000 0.095496
O O17 0.485222 0.904359 0.000000
#
# Coordination Sequence:
#
# PCOD9527363 Si02
#       8
#     8   8  16  16  16  16   8  16
#     4  10  20  42  67  89 131 176 221 274 342 396
#     4  10  20  38  64  92 125 177 222 271 331 396
#     4   9  18  36  61  87 126 165 211 264 326 390
#     4  10  23  43  65  94 130 174 221 281 335 400
#     4  12  25  40  66  94 130 174 220 275 343 399
#     4  11  23  41  64  94 133 173 215 275 335 402
#     4   8  18  34  58  93 123 165 219 273 319 400
#     4  11  21  39  63  96 130 170 226 266 329 407
#
# _framework density 22.952221999999999
#
# number of rings (size 3 to 8) (size 9 to 14) (size 15 to 20)
#    0.000    1.692    2.308    2.308    1.077    0.923 
#    0.000   21.538    0.000    1.846    0.000    0.000 
#    0.000    0.000    0.000    0.000    0.000    0.000 
#
# Total GULP energy -290115.552439 kJ/mol
# GULP energy per Si atom -5579.145239 kJ/mol
# Density = 2.289998 g / cm^3
# Si number density = 22.952222 Si / 1000 Ang^3
#
#
#
# Elastic Constant Matrix: (Units=GPa)
#
#
# Indices 1 2 3 4 5 6 
#
# 1 96.8720 1.1043 45.0738 0.0000 0.0000 0.0000
# 2 1.1043 65.4271 16.4743 0.0000 0.0000 0.0000
# 3 45.0738 16.4743 166.5326 0.0000 0.0000 0.0000
# 4 0.0000 0.0000 0.0000 -55.7485 0.0000 0.0000
# 5 0.0000 0.0000 0.0000 0.0000 10.5369 0.0000
# 6 0.0000 0.0000 0.0000 0.0000 0.0000 15.0943
#
#
#
# Elastic Compliance Matrix: (Units=1/GPa)
#
#
# Indices 1 2 3 4 5 6 
#
# 1 0.011835 0.000622 -0.003265 0.000000 0.000000 0.000000
# 2 0.000622 0.015707 -0.001722 0.000000 0.000000 0.000000
# 3 -0.003265 -0.001722 0.007059 0.000000 0.000000 0.000000
# 4 0.000000 0.000000 0.000000 -0.017938 0.000000 0.000000
# 5 0.000000 0.000000 0.000000 0.000000 0.094905 0.000000
# 6 0.000000 0.000000 0.000000 0.000000 0.000000 0.066250
#
#
# Mechanical properties :
#
#
# Convention : Reuss Voigt Hill
#
# Bulk Modulus (GPa) = 38.65250 50.45962 44.55606
# Shear Modulus (GPa) = 25.61848 11.72182 18.67015
#
# Velocity S-wave (km/s) = 3.34453 2.26233 2.85517
# Velocity P-wave (km/s) = 5.63839 5.37183 5.50672
#
# Compressibility (1/GPa) = 0.02587155
#
# Stress axis : x y z
#
# Youngs Moduli (GPa) = 84.49591 63.66443 141.66594
#
# Poissons Ratio (x) = -0.03962 0.46251
# Poissons Ratio (y) = -0.05258 0.24399
# Poissons Ratio (z) = 0.27586 0.10965
#
# Static dielectric constant tensor:
#      x y z
#    x 1.876130 0.000000 0.000000 
#    y 0.000000 1.907890 0.000000 
#    z 0.000000 0.000000 1.864750 
# 
# From -- ./inp_files/29687.got.cif
#   From: 2010.05.17/outbox.cif.g08.bks.cpg/sg72_15_cif.got.tgz:29687.got - 2010.06.03 17:03:01.
