data_PCOD9527701
_publ_section_title
;
Structure prediction by ZEFSAII (Michael W. Deem and Ramdas Pophale) SiO2 
 PCOD9527701
Probable space group: I B A M
;
_chemical_formula_sum "Si O2"
_cell_formula_units_Z 96
_cell_length_a 25.598432
_cell_length_b 8.878868
_cell_length_c 21.122270
_cell_angle_alpha 90.000000
_cell_angle_beta 90.000000
_cell_angle_gamma 90.000000
_cell_volume 4800.777222
_symmetry_space_group_name_H-M "I B A M"
_symmetry_group_IT_number 72
_symmetry_cell_setting 'orthorhombic'
loop_
_space_group_symop_operation_xyz
x,y,z
-x,-y,z
x,-y,1/2-z
-x,y,1/2-z
-x,-y,-z
x,y,-z
-x,y,1/2+z
x,-y,1/2+z
1/2+x,1/2+y,1/2+z
1/2-x,1/2-y,1/2+z
1/2+x,1/2-y,-z
1/2-x,1/2+y,-z
1/2-x,1/2-y,1/2-z
1/2+x,1/2+y,1/2-z
1/2-x,1/2+y,z
1/2+x,1/2-y,z
loop_
_atom_site_type_symbol
_atom_site_label
_atom_site_fract_x
_atom_site_fract_y
_atom_site_fract_z
Si Si1 0.613041 0.673369 0.755659
Si Si2 0.395967 0.877058 0.071123
Si Si3 0.948741 0.400359 0.834044
Si Si4 0.188431 0.778762 0.362318
Si Si5 0.996789 0.172189 0.426484
Si Si6 0.715087 0.418377 0.681719
O O1 0.592049 0.500000 0.750000
O O2 0.574612 0.806926 0.775409
O O3 0.642821 0.711085 0.690837
O O4 0.659988 0.665166 0.807327
O O5 0.339215 0.805043 0.080348
O O6 0.439141 0.744377 0.077290
O O7 0.408466 0.995808 0.126632
O O8 0.402666 0.940862 0.000000
O O9 0.967018 0.273342 0.883276
O O10 0.000000 0.500000 0.820483
O O11 0.237219 0.686810 0.335387
O O12 0.207017 0.950153 0.369437
O O13 0.012909 0.178959 0.500000
O O14 0.000000 0.000000 0.405534
O O15 0.725076 0.500000 0.750000
#
# Coordination Sequence:
#
# PCOD9527701 Si02
#       6
#    16  16  16  16  16  16
#     4   9  20  37  62  91 119 156 198 247 302 360
#     4  10  22  38  58  86 119 155 201 250 294 351
#     4  10  21  38  63  88 122 158 198 243 303 357
#     4  10  21  36  61  85 115 154 192 250 292 356
#     4   9  19  36  61  84 112 160 208 240 281 350
#     4   9  19  35  58  88 111 151 199 240 289 352
#
# _framework density 19.996763000000001
#
# number of rings (size 3 to 8) (size 9 to 14) (size 15 to 20)
#    0.000    2.833    0.000    2.500    9.333    2.000 
#    0.000    6.667    0.000    0.000    0.000    0.000 
#    0.000    0.000    0.000    0.000    0.000    0.000 
#
# Total GULP energy -267849.953039 kJ/mol
# GULP energy per Si atom -5580.207355 kJ/mol
# Density = 1.995125 g / cm^3
# Si number density = 19.996763 Si / 1000 Ang^3
#
#
#
# Elastic Constant Matrix: (Units=GPa)
#
#
# Indices 1 2 3 4 5 6 
#
# 1 28.7557 23.4773 10.2941 0.0000 0.0000 0.0000
# 2 23.4773 109.3798 31.7780 0.0000 0.0000 0.0000
# 3 10.2941 31.7780 36.3474 0.0000 0.0000 0.0000
# 4 0.0000 0.0000 0.0000 28.4297 0.0000 0.0000
# 5 0.0000 0.0000 0.0000 0.0000 10.6857 0.0000
# 6 0.0000 0.0000 0.0000 0.0000 0.0000 21.9771
#
#
#
# Elastic Compliance Matrix: (Units=1/GPa)
#
#
# Indices 1 2 3 4 5 6 
#
# 1 0.042971 -0.007624 -0.005504 0.000000 0.000000 0.000000
# 2 -0.007624 0.013608 -0.009738 0.000000 0.000000 0.000000
# 3 -0.005504 -0.009738 0.037585 0.000000 0.000000 0.000000
# 4 0.000000 0.000000 0.000000 0.035175 0.000000 0.000000
# 5 0.000000 0.000000 0.000000 0.000000 0.093583 0.000000
# 6 0.000000 0.000000 0.000000 0.000000 0.000000 0.045502
#
#
# Mechanical properties :
#
#
# Convention : Reuss Voigt Hill
#
# Bulk Modulus (GPa) = 20.64793 33.95352 27.30073
# Shear Modulus (GPa) = 15.13774 19.48072 17.30923
#
# Velocity S-wave (km/s) = 2.75437 3.12459 2.94530
# Velocity P-wave (km/s) = 4.52365 5.48031 5.02480
#
# Compressibility (1/GPa) = 0.04843099
#
# Stress axis : x y z
#
# Youngs Moduli (GPa) = 23.27159 73.48559 26.60636
#
# Poissons Ratio (x) = 0.56027 0.14645
# Poissons Ratio (y) = 0.17743 0.25910
# Poissons Ratio (z) = 0.12809 0.71561
#
# Static dielectric constant tensor:
#      x y z
#    x 1.711130 0.000000 0.000000 
#    y 0.000000 1.748340 0.000000 
#    z 0.000000 0.000000 1.736000 
# 
# From -- ./inp_files/42545.got.cif
#   From: 2010.05.17/outbox.cif.g08.bks.cpg/sg72_22_cif.got.tgz:42545.got - 2010.06.03 17:03:01.
