data_PCOD9527043
_publ_section_title
;
Structure prediction by ZEFSAII (Michael W. Deem and Ramdas Pophale) SiO2 
 PCOD9527043
Probable space group: I B A M
;
_chemical_formula_sum "Si O2"
_cell_formula_units_Z 80
_cell_length_a 9.387451
_cell_length_b 16.428683
_cell_length_c 25.192571
_cell_angle_alpha 90.000000
_cell_angle_beta 90.000000
_cell_angle_gamma 90.000000
_cell_volume 3885.285382
_symmetry_space_group_name_H-M "I B A M"
_symmetry_group_IT_number 72
_symmetry_cell_setting 'orthorhombic'
loop_
_space_group_symop_operation_xyz
x,y,z
-x,-y,z
x,-y,1/2-z
-x,y,1/2-z
-x,-y,-z
x,y,-z
-x,y,1/2+z
x,-y,1/2+z
1/2+x,1/2+y,1/2+z
1/2-x,1/2-y,1/2+z
1/2+x,1/2-y,-z
1/2-x,1/2+y,-z
1/2-x,1/2-y,1/2-z
1/2+x,1/2+y,1/2-z
1/2-x,1/2+y,z
1/2+x,1/2-y,z
loop_
_atom_site_type_symbol
_atom_site_label
_atom_site_fract_x
_atom_site_fract_y
_atom_site_fract_z
Si Si1 0.611842 0.225062 0.559139
Si Si2 0.654109 0.629014 0.235029
Si Si3 0.180270 0.636862 0.558055
Si Si4 0.137181 0.302599 0.322393
Si Si5 0.605414 0.926695 0.668919
O O1 0.658652 0.195229 0.500000
O O2 0.668932 0.317316 0.561954
O O3 0.442822 0.207116 0.560613
O O4 0.667897 0.188431 0.614664
O O5 0.500000 0.598676 0.250000
O O6 0.743424 0.655376 0.286697
O O7 0.633231 0.709576 0.197674
O O8 0.752637 0.568354 0.202502
O O9 0.167825 0.597857 0.500000
O O10 0.146941 0.579967 0.607292
O O11 0.983019 0.345333 0.314979
O O12 0.500000 0.000000 0.678700
#
# Coordination Sequence:
#
# PCOD9527043 Si02
#       5
#    16  16  16  16  16
#     4   9  17  30  53  84 116 147 192 246 290 344
#     4  11  22  36  60  84 111 154 208 250 290 354
#     4   9  18  33  56  87 119 154 195 243 299 357
#     4  10  20  36  58  85 117 156 199 242 295 355
#     4  11  23  39  58  86 124 159 195 248 308 360
#
# _framework density 20.590506999999999
#
# number of rings (size 3 to 8) (size 9 to 14) (size 15 to 20)
#    0.000    2.000    2.000    3.000    2.800    2.000 
#    0.000    2.000    0.000    0.000    0.000    0.000 
#    0.000   22.400    0.000    0.000    0.000    0.000 
#
# Total GULP energy -223178.728177 kJ/mol
# GULP energy per Si atom -5579.468204 kJ/mol
# Density = 2.054364 g / cm^3
# Si number density = 20.590507 Si / 1000 Ang^3
#
#
#
# Elastic Constant Matrix: (Units=GPa)
#
#
# Indices 1 2 3 4 5 6 
#
# 1 111.0421 26.8090 63.5020 0.0000 0.0000 0.0000
# 2 26.8090 40.0492 22.9064 0.0000 0.0000 0.0000
# 3 63.5020 22.9064 167.1958 0.0000 0.0000 0.0000
# 4 0.0000 0.0000 0.0000 8.7353 0.0000 0.0000
# 5 0.0000 0.0000 0.0000 0.0000 25.2641 0.0000
# 6 0.0000 0.0000 0.0000 0.0000 0.0000 23.4553
#
#
#
# Elastic Compliance Matrix: (Units=1/GPa)
#
#
# Indices 1 2 3 4 5 6 
#
# 1 0.012814 -0.006287 -0.004006 0.000000 0.000000 0.000000
# 2 -0.006287 0.030177 -0.001747 0.000000 0.000000 0.000000
# 3 -0.004006 -0.001747 0.007742 0.000000 0.000000 0.000000
# 4 0.000000 0.000000 0.000000 0.114478 0.000000 0.000000
# 5 0.000000 0.000000 0.000000 0.000000 0.039582 0.000000
# 6 0.000000 0.000000 0.000000 0.000000 0.000000 0.042634
#
#
# Mechanical properties :
#
#
# Convention : Reuss Voigt Hill
#
# Bulk Modulus (GPa) = 37.51703 60.52465 49.02084
# Shear Modulus (GPa) = 17.83235 25.16225 21.49730
#
# Velocity S-wave (km/s) = 2.94606 3.49955 3.23467
# Velocity P-wave (km/s) = 5.46191 6.76664 6.14898
#
# Compressibility (1/GPa) = 0.02665456
#
# Stress axis : x y z
#
# Youngs Moduli (GPa) = 78.03906 33.13829 129.17172
#
# Poissons Ratio (x) = 0.20833 0.51741
# Poissons Ratio (y) = 0.49061 0.22560
# Poissons Ratio (z) = 0.31259 0.05788
#
# Static dielectric constant tensor:
#      x y z
#    x 1.730080 0.000000 0.000000 
#    y 0.000000 1.745170 0.000000 
#    z 0.000000 0.000000 1.781050 
# 
# From -- ./inp_files/47207.got.cif
#   From: 2010.05.17/outbox.cif.g08.bks.cpg/sg72_24_cif.got.tgz:47207.got - 2010.06.03 17:03:01.
