data_PCOD9527946
_publ_section_title
;
Structure prediction by ZEFSAII (Michael W. Deem and Ramdas Pophale) SiO2 
 PCOD9527946
Probable space group: I B A M
;
_chemical_formula_sum "Si O2"
_cell_formula_units_Z 92
_cell_length_a 21.708878
_cell_length_b 7.908145
_cell_length_c 26.688908
_cell_angle_alpha 90.000000
_cell_angle_beta 90.000000
_cell_angle_gamma 90.000000
_cell_volume 4581.870458
_symmetry_space_group_name_H-M "I B A M"
_symmetry_group_IT_number 72
_symmetry_cell_setting 'orthorhombic'
loop_
_space_group_symop_operation_xyz
x,y,z
-x,-y,z
x,-y,1/2-z
-x,y,1/2-z
-x,-y,-z
x,y,-z
-x,y,1/2+z
x,-y,1/2+z
1/2+x,1/2+y,1/2+z
1/2-x,1/2-y,1/2+z
1/2+x,1/2-y,-z
1/2-x,1/2+y,-z
1/2-x,1/2-y,1/2-z
1/2+x,1/2+y,1/2-z
1/2-x,1/2+y,z
1/2+x,1/2-y,z
loop_
_atom_site_type_symbol
_atom_site_label
_atom_site_fract_x
_atom_site_fract_y
_atom_site_fract_z
Si Si1 0.589979 0.912968 0.500000
Si Si2 0.500000 0.500000 0.593642
Si Si3 0.961494 0.213453 0.000000
Si Si4 0.686478 0.553894 0.303786
Si Si5 0.663115 0.934624 0.596116
Si Si6 0.000000 0.500000 0.250000
Si Si7 0.283108 0.260746 0.869907
Si Si8 0.428501 0.242477 0.328605
O O1 0.528972 0.801047 0.500000
O O2 0.629068 0.870925 0.547949
O O3 0.579005 0.116128 0.500000
O O4 0.458171 0.603655 0.551924
O O5 0.533206 0.638240 0.631328
O O6 0.709576 0.500000 0.250000
O O7 0.677108 0.395849 0.340321
O O8 0.740873 0.660836 0.329570
O O9 0.620964 0.643411 0.299139
O O10 0.730708 0.853835 0.598565
O O11 0.617651 0.879690 0.640535
O O12 0.675324 0.133043 0.599586
O O13 0.034765 0.372194 0.211226
#
# Coordination Sequence:
#
# PCOD9527946 Si02
#       8
#     8   8   8  16  16   4  16  16
#     4  11  22  40  70  97 129 173 215 264 344 390
#     4  11  24  45  66  96 130 167 224 285 314 400
#     4  10  24  42  68 101 125 175 227 268 324 401
#     4  10  21  38  63  93 120 172 212 270 316 391
#     4  10  22  42  64  96 127 175 208 278 322 398
#     4  12  32  46  60 102 132 182 220 268 328 414
#     4   9  21  40  63  91 132 161 220 264 330 382
#     4  11  27  41  66  90 136 170 219 271 333 378
#
# _framework density 20.079136999999999
#
# number of rings (size 3 to 8) (size 9 to 14) (size 15 to 20)
#    0.000    1.739    1.739    0.522    9.739    0.696 
#    3.130    0.000    0.000    0.000    0.000    0.000 
#    0.000    0.000    0.000    0.000    0.000    0.000 
#
# Total GULP energy -256269.591986 kJ/mol
# GULP energy per Si atom -5571.078087 kJ/mol
# Density = 2.003344 g / cm^3
# Si number density = 20.079137 Si / 1000 Ang^3
#
#
#
# Elastic Constant Matrix: (Units=GPa)
#
#
# Indices 1 2 3 4 5 6 
#
# 1 41.7155 17.7636 15.2772 0.0000 0.0000 0.0000
# 2 17.7636 76.1437 13.0575 0.0000 0.0000 0.0000
# 3 15.2772 13.0575 62.1555 0.0000 0.0000 0.0000
# 4 0.0000 0.0000 0.0000 6.2970 0.0000 0.0000
# 5 0.0000 0.0000 0.0000 0.0000 -56.3859 0.0000
# 6 0.0000 0.0000 0.0000 0.0000 0.0000 1.0555
#
#
#
# Elastic Compliance Matrix: (Units=1/GPa)
#
#
# Indices 1 2 3 4 5 6 
#
# 1 0.028511 -0.005653 -0.005820 0.000000 0.000000 0.000000
# 2 -0.005653 0.014745 -0.001708 0.000000 0.000000 0.000000
# 3 -0.005820 -0.001708 0.017878 0.000000 0.000000 0.000000
# 4 0.000000 0.000000 0.000000 0.158805 0.000000 0.000000
# 5 0.000000 0.000000 0.000000 0.000000 -0.017735 0.000000
# 6 0.000000 0.000000 0.000000 0.000000 0.000000 0.947409
#
#
# Mechanical properties :
#
#
# Convention : Reuss Voigt Hill
#
# Bulk Modulus (GPa) = 28.75969 30.24569 29.50269
# Shear Modulus (GPa) = 4.21029 -0.87891 1.66569
#
# Velocity S-wave (km/s) = 1.44962 -0.66232 0.91179
# Velocity P-wave (km/s) = 4.14200 3.80934 3.97914
#
# Compressibility (1/GPa) = 0.03477089
#
# Stress axis : x y z
#
# Youngs Moduli (GPa) = 35.07461 67.82045 55.93468
#
# Poissons Ratio (x) = 0.38341 0.32554
# Poissons Ratio (y) = 0.19829 0.09554
# Poissons Ratio (z) = 0.20413 0.11584
#
# Static dielectric constant tensor:
#      x y z
#    x 1.672350 0.000000 0.000000 
#    y 0.000000 1.858480 0.000000 
#    z 0.000000 0.000000 1.672990 
# 
# From -- ./inp_files/49400.got.cif
#   From: 2010.05.17/outbox.cif.g08.bks.cpg/sg72_25_cif.got.tgz:49400.got - 2010.06.03 17:03:01.
