data_PCOD9527014
_publ_section_title
;
Structure prediction by ZEFSAII (Michael W. Deem and Ramdas Pophale) SiO2 
 PCOD9527014
Probable space group: I B A M
;
_chemical_formula_sum "Si O2"
_cell_formula_units_Z 80
_cell_length_a 17.402703
_cell_length_b 26.325365
_cell_length_c 8.721459
_cell_angle_alpha 90.000000
_cell_angle_beta 90.000000
_cell_angle_gamma 90.000000
_cell_volume 3995.583889
_symmetry_space_group_name_H-M "I B A M"
_symmetry_group_IT_number 72
_symmetry_cell_setting 'orthorhombic'
loop_
_space_group_symop_operation_xyz
x,y,z
-x,-y,z
x,-y,1/2-z
-x,y,1/2-z
-x,-y,-z
x,y,-z
-x,y,1/2+z
x,-y,1/2+z
1/2+x,1/2+y,1/2+z
1/2-x,1/2-y,1/2+z
1/2+x,1/2-y,-z
1/2-x,1/2+y,-z
1/2-x,1/2-y,1/2-z
1/2+x,1/2+y,1/2-z
1/2-x,1/2+y,z
1/2+x,1/2-y,z
loop_
_atom_site_type_symbol
_atom_site_label
_atom_site_fract_x
_atom_site_fract_y
_atom_site_fract_z
Si Si1 0.882744 0.553345 0.677449
Si Si2 0.793832 0.162317 0.685860
Si Si3 0.804786 0.052015 0.675408
Si Si4 0.079445 0.235039 0.681883
Si Si5 0.622464 0.839601 0.318221
O O1 0.908363 0.500000 0.750000
O O2 0.905908 0.556966 0.500000
O O3 0.788871 0.552401 0.681668
O O4 0.904593 0.604224 0.768185
O O5 0.782903 0.162324 0.500000
O O6 0.828301 0.107398 0.734912
O O7 0.849497 0.206972 0.737491
O O8 0.711856 0.165515 0.768787
O O9 0.828035 0.049974 0.500000
O O10 0.831578 0.000000 0.750000
O O11 0.083285 0.228687 0.500000
O O12 0.083165 0.294337 0.725609
O O13 0.000000 0.214171 0.750000
O O14 0.613373 0.832797 0.500000
#
# Coordination Sequence:
#
# PCOD9527014 Si02
#       5
#    16  16  16  16  16
#     4   9  16  28  47  76 110 143 177 219 267 317
#     4  10  20  36  56  82 112 144 181 224 269 320
#     4   8  15  26  45  73 107 139 171 211 259 309
#     4  12  25  41  58  78 105 141 181 226 276 329
#     4  11  21  35  56  83 112 145 182 224 269 319
#
# _framework density 20.022103999999999
#
# number of rings (size 3 to 8) (size 9 to 14) (size 15 to 20)
#    0.000    2.000    0.000    6.600    0.000    5.600 
#    0.000    0.000    0.000    1.200    0.000    8.400 
#    0.000    0.000    0.000    0.000    0.000    0.000 
#
# Total GULP energy -223356.111813 kJ/mol
# GULP energy per Si atom -5583.902795 kJ/mol
# Density = 1.997653 g / cm^3
# Si number density = 20.022104 Si / 1000 Ang^3
#
#
#
# Elastic Constant Matrix: (Units=GPa)
#
#
# Indices 1 2 3 4 5 6 
#
# 1 38.0657 5.8139 -6.9326 0.0000 0.0000 0.0000
# 2 5.8139 91.6700 -3.3134 0.0000 0.0000 0.0000
# 3 -6.9326 -3.3134 73.0441 0.0000 0.0000 0.0000
# 4 0.0000 0.0000 0.0000 38.0521 0.0000 0.0000
# 5 0.0000 0.0000 0.0000 0.0000 14.2559 0.0000
# 6 0.0000 0.0000 0.0000 0.0000 0.0000 -14.8831
#
#
#
# Elastic Compliance Matrix: (Units=1/GPa)
#
#
# Indices 1 2 3 4 5 6 
#
# 1 0.026971 -0.001621 0.002486 0.000000 0.000000 0.000000
# 2 -0.001621 0.011024 0.000346 0.000000 0.000000 0.000000
# 3 0.002486 0.000346 0.013942 0.000000 0.000000 0.000000
# 4 0.000000 0.000000 0.000000 0.026280 0.000000 0.000000
# 5 0.000000 0.000000 0.000000 0.000000 0.070146 0.000000
# 6 0.000000 0.000000 0.000000 0.000000 0.000000 -0.067190
#
#
# Mechanical properties :
#
#
# Convention : Reuss Voigt Hill
#
# Bulk Modulus (GPa) = 18.39573 21.54617 19.97095
# Shear Modulus (GPa) = 51.61599 21.29911 36.45755
#
# Velocity S-wave (km/s) = 5.08286 3.26510 4.27179
# Velocity P-wave (km/s) = 6.60719 4.99991 5.85893
#
# Compressibility (1/GPa) = 0.05436044
#
# Stress axis : x y z
#
# Youngs Moduli (GPa) = 37.07729 90.71124 71.72549
#
# Poissons Ratio (x) = 0.14701 -0.17833
# Poissons Ratio (y) = 0.06009 -0.02484
# Poissons Ratio (z) = -0.09218 -0.03141
#
# Static dielectric constant tensor:
#      x y z
#    x 1.734690 0.000000 0.000000 
#    y 0.000000 1.737420 0.000000 
#    z 0.000000 0.000000 1.732830 
# 
# From -- ./inp_files/4782.got.cif
#   From: 2010.05.17/outbox.cif.g08.bks.cpg/sg72_3_cif.got.tgz:4782.got - 2010.06.03 17:03:01.
