data_PCOD9527252
_publ_section_title
;
Structure prediction by ZEFSAII (Michael W. Deem and Ramdas Pophale) SiO2 
 PCOD9527252
Probable space group: I B A M
;
_chemical_formula_sum "Si O2"
_cell_formula_units_Z 84
_cell_length_a 23.886445
_cell_length_b 9.292257
_cell_length_c 16.258361
_cell_angle_alpha 90.000000
_cell_angle_beta 90.000000
_cell_angle_gamma 90.000000
_cell_volume 3608.689318
_symmetry_space_group_name_H-M "I B A M"
_symmetry_group_IT_number 72
_symmetry_cell_setting 'orthorhombic'
loop_
_space_group_symop_operation_xyz
x,y,z
-x,-y,z
x,-y,1/2-z
-x,y,1/2-z
-x,-y,-z
x,y,-z
-x,y,1/2+z
x,-y,1/2+z
1/2+x,1/2+y,1/2+z
1/2-x,1/2-y,1/2+z
1/2+x,1/2-y,-z
1/2-x,1/2+y,-z
1/2-x,1/2-y,1/2-z
1/2+x,1/2+y,1/2-z
1/2-x,1/2+y,z
1/2+x,1/2-y,z
loop_
_atom_site_type_symbol
_atom_site_label
_atom_site_fract_x
_atom_site_fract_y
_atom_site_fract_z
Si Si1 0.810594 0.184503 0.817990
Si Si2 0.920161 0.844410 0.587470
Si Si3 0.983182 0.332268 0.340483
Si Si4 0.855830 0.627724 0.818780
Si Si5 0.500000 0.500000 0.500000
Si Si6 0.764878 0.464038 0.905564
O O1 0.875393 0.165371 0.842934
O O2 0.817166 0.255082 0.727981
O O3 0.782859 0.306471 0.875745
O O4 0.778764 0.038995 0.842653
O O5 0.892040 0.804464 0.500000
O O6 0.974737 0.744534 0.597188
O O7 0.950208 0.994886 0.570534
O O8 0.916519 0.320741 0.347454
O O9 0.000000 0.500000 0.343502
O O10 0.000000 0.276607 0.250000
O O11 0.864584 0.500000 0.750000
O O12 0.820892 0.558831 0.892490
O O13 0.745534 0.465924 0.000000
#
# Coordination Sequence:
#
# PCOD9527252 Si02
#       6
#    16  16  16  16   4  16
#     4  11  22  42  67  88 129 173 217 267 330 385
#     4  10  21  41  66  86 128 170 204 262 329 381
#     4  11  18  34  63  98 124 163 209 266 326 392
#     4  10  20  37  62  90 132 163 210 270 326 394
#     4   8  24  44  60  92 124 168 202 266 312 402
#     4  11  23  39  61  96 125 175 220 271 325 389
#
# _framework density 23.277149999999999
#
# number of rings (size 3 to 8) (size 9 to 14) (size 15 to 20)
#    0.571    0.952    3.810    3.429    0.000    1.143 
#    3.429    0.476    0.000    0.000    0.000    0.000 
#    0.000    0.000    0.000    0.000    0.000    0.000 
#
# Total GULP energy -233860.779874 kJ/mol
# GULP energy per Si atom -5568.113807 kJ/mol
# Density = 2.322417 g / cm^3
# Si number density = 23.277150 Si / 1000 Ang^3
#
#
#
# Elastic Constant Matrix: (Units=GPa)
#
#
# Indices 1 2 3 4 5 6 
#
# 1 111.4489 32.7048 9.2013 0.0000 0.0000 0.0000
# 2 32.7048 71.7197 5.9766 0.0000 0.0000 0.0000
# 3 9.2013 5.9766 46.7106 0.0000 0.0000 0.0000
# 4 0.0000 0.0000 0.0000 -0.2031 0.0000 0.0000
# 5 0.0000 0.0000 0.0000 0.0000 21.3480 0.0000
# 6 0.0000 0.0000 0.0000 0.0000 0.0000 39.8275
#
#
#
# Elastic Compliance Matrix: (Units=1/GPa)
#
#
# Indices 1 2 3 4 5 6 
#
# 1 0.010457 -0.004646 -0.001465 0.000000 0.000000 0.000000
# 2 -0.004646 0.016158 -0.001152 0.000000 0.000000 0.000000
# 3 -0.001465 -0.001152 0.021845 0.000000 0.000000 0.000000
# 4 0.000000 0.000000 0.000000 -4.923231 0.000000 0.000000
# 5 0.000000 0.000000 0.000000 0.000000 0.046843 0.000000
# 6 0.000000 0.000000 0.000000 0.000000 0.000000 0.025108
#
#
# Mechanical properties :
#
#
# Convention : Reuss Voigt Hill
#
# Bulk Modulus (GPa) = 29.47093 36.18274 32.82684
# Shear Modulus (GPa) = -1.04669 24.32757 11.64044
#
# Velocity S-wave (km/s) = -0.67130 3.23635 2.23867
# Velocity P-wave (km/s) = 3.47671 5.43538 4.56239
#
# Compressibility (1/GPa) = 0.03393174
#
# Stress axis : x y z
#
# Youngs Moduli (GPa) = 95.62775 61.88878 45.77809
#
# Poissons Ratio (x) = 0.28756 0.06708
# Poissons Ratio (y) = 0.44433 0.05274
# Poissons Ratio (z) = 0.14013 0.07130
#
# Static dielectric constant tensor:
#      x y z
#    x 1.848860 0.000000 0.000000 
#    y 0.000000 1.977550 0.000000 
#    z 0.000000 0.000000 1.872580 
# 
# From -- ./inp_files/39661.got.cif
#   From: 2010.05.17/outbox.cif.g08.bks.cpg/sg72_20_cif.got.tgz:39661.got - 2010.06.03 17:03:01.
