data_PCOD9527034
_publ_section_title
;
Structure prediction by ZEFSAII (Michael W. Deem and Ramdas Pophale) SiO2 
 PCOD9527034
Probable space group: I B A M
;
_chemical_formula_sum "Si O2"
_cell_formula_units_Z 116
_cell_length_a 16.197587
_cell_length_b 23.295252
_cell_length_c 14.568490
_cell_angle_alpha 90.000000
_cell_angle_beta 90.000000
_cell_angle_gamma 90.000000
_cell_volume 5497.082746
_symmetry_space_group_name_H-M "I B A M"
_symmetry_group_IT_number 72
_symmetry_cell_setting 'orthorhombic'
loop_
_space_group_symop_operation_xyz
x,y,z
-x,-y,z
x,-y,1/2-z
-x,y,1/2-z
-x,-y,-z
x,y,-z
-x,y,1/2+z
x,-y,1/2+z
1/2+x,1/2+y,1/2+z
1/2-x,1/2-y,1/2+z
1/2+x,1/2-y,-z
1/2-x,1/2+y,-z
1/2-x,1/2-y,1/2-z
1/2+x,1/2+y,1/2-z
1/2-x,1/2+y,z
1/2+x,1/2-y,z
loop_
_atom_site_type_symbol
_atom_site_label
_atom_site_fract_x
_atom_site_fract_y
_atom_site_fract_z
Si Si1 0.933833 0.195573 0.104988
Si Si2 0.294868 0.742376 0.895534
Si Si3 0.633648 0.584911 0.790798
Si Si4 0.606241 0.369518 0.903933
Si Si5 0.500000 0.500000 0.750000
Si Si6 0.326782 0.917520 0.253206
Si Si7 0.635335 0.786601 0.783953
Si Si8 0.901677 0.509649 0.107323
O O1 0.882514 0.143895 0.153725
O O2 0.938065 0.253482 0.165407
O O3 0.024932 0.169124 0.099086
O O4 0.906158 0.206394 0.000000
O O5 0.319135 0.675556 0.900040
O O6 0.356133 0.771405 0.823036
O O7 0.208158 0.744355 0.843229
O O8 0.295732 0.764527 0.000000
O O9 0.608702 0.593943 0.685531
O O10 0.564860 0.536751 0.814053
O O11 0.732035 0.574578 0.782064
O O12 0.609138 0.401921 0.000000
O O13 0.349536 0.854176 0.288449
O O14 0.381076 0.933061 0.164043
O O15 0.351982 0.961195 0.334912
O O16 0.000000 0.500000 0.113468
O O17 0.878587 0.511012 0.000000
#
# Coordination Sequence:
#
# PCOD9527034 Si02
#       8
#    16  16  16  16   4  16  16  16
#     4  11  23  40  61  89 134 182 220 270 332 394
#     4  10  20  36  57  88 127 167 210 257 322 396
#     4  12  22  42  62  95 135 176 225 283 333 379
#     4  10  20  39  62  82 125 181 217 262 326 383
#     4  12  24  36  70  92 126 186 240 278 318 400
#     4  11  23  41  70 101 129 164 218 277 336 399
#     4  11  21  36  63  96 125 166 210 270 333 393
#     4  10  24  50  72  90 126 168 203 265 343 404
#
# _framework density 21.102101000000001
#
# number of rings (size 3 to 8) (size 9 to 14) (size 15 to 20)
#    0.000    1.241    4.138    2.897    0.000    2.759 
#    4.966    1.379    0.000    0.000    0.000    0.000 
#    0.000    0.000    0.000    0.000    0.000    0.000 
#
# Total GULP energy -323282.504962 kJ/mol
# GULP energy per Si atom -5573.836292 kJ/mol
# Density = 2.105407 g / cm^3
# Si number density = 21.102101 Si / 1000 Ang^3
#
#
#
# Elastic Constant Matrix: (Units=GPa)
#
#
# Indices 1 2 3 4 5 6 
#
# 1 86.1027 19.5867 35.2020 0.0000 0.0000 0.0000
# 2 19.5867 96.2257 34.3586 0.0000 0.0000 0.0000
# 3 35.2020 34.3586 162.2981 0.0001 0.0000 0.0000
# 4 0.0000 0.0000 0.0001 -16.4864 0.0001 0.0000
# 5 0.0000 0.0000 0.0000 0.0001 37.1015 0.0000
# 6 0.0000 0.0000 0.0000 0.0000 0.0000 26.5940
#
#
#
# Elastic Compliance Matrix: (Units=1/GPa)
#
#
# Indices 1 2 3 4 5 6 
#
# 1 0.013019 -0.001776 -0.002448 0.000000 0.000000 0.000000
# 2 -0.001776 0.011484 -0.002046 0.000000 0.000000 0.000000
# 3 -0.002448 -0.002046 0.007126 0.000000 0.000000 0.000000
# 4 0.000000 0.000000 0.000000 -0.060656 0.000000 0.000000
# 5 0.000000 0.000000 0.000000 0.000000 0.026953 0.000000
# 6 0.000000 0.000000 0.000000 0.000000 0.000000 0.037603
#
#
# Mechanical properties :
#
#
# Convention : Reuss Voigt Hill
#
# Bulk Modulus (GPa) = 52.38589 58.10236 55.24412
# Shear Modulus (GPa) = 91.85996 26.47375 59.16686
#
# Velocity S-wave (km/s) = 6.60498 3.54581 5.30087
# Velocity P-wave (km/s) = 9.11298 6.66014 7.98135
#
# Compressibility (1/GPa) = 0.01908911
#
# Stress axis : x y z
#
# Youngs Moduli (GPa) = 76.81217 87.07541 140.33978
#
# Poissons Ratio (x) = 0.15464 0.34352
# Poissons Ratio (y) = 0.13642 0.28714
# Poissons Ratio (z) = 0.18802 0.17816
#
# Static dielectric constant tensor:
#      x y z
#    x 1.885480 0.000000 0.000000 
#    y 0.000000 1.853090 0.000000 
#    z 0.000000 0.000000 1.195910 
# 
# From -- ./inp_files/23552.got.cif
#   From: 2010.05.17/outbox.cif.g08.bks.cpg/sg72_12_cif.got.tgz:23552.got - 2010.06.03 17:03:01.
