data_PCOD9527443
_publ_section_title
;
Structure prediction by ZEFSAII (Michael W. Deem and Ramdas Pophale) SiO2 
 PCOD9527443
Probable space group: I B A M
;
_chemical_formula_sum "Si O2"
_cell_formula_units_Z 44
_cell_length_a 24.923366
_cell_length_b 4.844879
_cell_length_c 19.649032
_cell_angle_alpha 90.000000
_cell_angle_beta 90.000000
_cell_angle_gamma 90.000000
_cell_volume 2372.634222
_symmetry_space_group_name_H-M "I B A M"
_symmetry_group_IT_number 72
_symmetry_cell_setting 'orthorhombic'
loop_
_space_group_symop_operation_xyz
x,y,z
-x,-y,z
x,-y,1/2-z
-x,y,1/2-z
-x,-y,-z
x,y,-z
-x,y,1/2+z
x,-y,1/2+z
1/2+x,1/2+y,1/2+z
1/2-x,1/2-y,1/2+z
1/2+x,1/2-y,-z
1/2-x,1/2+y,-z
1/2-x,1/2-y,1/2-z
1/2+x,1/2+y,1/2-z
1/2-x,1/2+y,z
1/2+x,1/2-y,z
loop_
_atom_site_type_symbol
_atom_site_label
_atom_site_fract_x
_atom_site_fract_y
_atom_site_fract_z
Si Si1 0.053264 0.842424 0.632020
Si Si2 0.712803 0.842133 0.000000
Si Si3 0.110234 0.316502 0.424899
Si Si4 0.000000 0.500000 0.750000
O O1 0.076070 0.589648 0.588476
O O2 0.035565 0.697893 0.702227
O O3 0.097033 0.085880 0.630778
O O4 0.000000 0.000000 0.605907
O O5 0.827177 0.386981 0.063969
O O6 0.764037 0.036264 0.000000
O O7 0.095564 0.198773 0.500000
#
# Coordination Sequence:
#
# PCOD9527443 Si02
#       4
#    16   8  16   4
#     4  12  22  39  56  84 127 162 198 237 274 360
#     4  10  20  40  61  87 124 148 188 244 310 372
#     4  10  23  36  59  93 118 152 197 237 308 350
#     4  12  26  40  56  80 122 180 206 226 278 328
#
# _framework density 18.544786999999999
#
# number of rings (size 3 to 8) (size 9 to 14) (size 15 to 20)
#    1.091    0.000    3.636    3.818    0.000    4.364 
#    0.000    0.000    0.000    0.000    0.000   25.455 
#    0.000    0.000    0.000    0.000    0.000    0.000 
#
# Total GULP energy -122497.978002 kJ/mol
# GULP energy per Si atom -5568.089909 kJ/mol
# Density = 1.850258 g / cm^3
# Si number density = 18.544787 Si / 1000 Ang^3
#
#
#
# Elastic Constant Matrix: (Units=GPa)
#
#
# Indices 1 2 3 4 5 6 
#
# 1 80.9969 22.6873 34.9235 0.0000 0.0000 0.0000
# 2 22.6873 104.6048 23.8419 0.0000 0.0000 0.0000
# 3 34.9235 23.8419 46.7867 0.0000 0.0000 0.0000
# 4 0.0000 0.0000 0.0000 64.2332 0.0000 0.0000
# 5 0.0000 0.0000 0.0000 0.0000 5.6991 0.0000
# 6 0.0000 0.0000 0.0000 0.0000 0.0000 38.3558
#
#
#
# Elastic Compliance Matrix: (Units=1/GPa)
#
#
# Indices 1 2 3 4 5 6 
#
# 1 0.018292 -0.000968 -0.013161 0.000000 0.000000 0.000000
# 2 -0.000968 0.010867 -0.004816 0.000000 0.000000 0.000000
# 3 -0.013161 -0.004816 0.033651 0.000000 0.000000 0.000000
# 4 0.000000 0.000000 0.000000 0.015568 0.000000 0.000000
# 5 0.000000 0.000000 0.000000 0.000000 0.175466 0.000000
# 6 0.000000 0.000000 0.000000 0.000000 0.000000 0.026072
#
#
# Mechanical properties :
#
#
# Convention : Reuss Voigt Hill
#
# Bulk Modulus (GPa) = 40.12422 43.92152 42.02287
# Shear Modulus (GPa) = 15.33222 31.72001 23.52612
#
# Velocity S-wave (km/s) = 2.87848 4.14025 3.56562
# Velocity P-wave (km/s) = 5.72109 6.82576 6.29769
#
# Compressibility (1/GPa) = 0.02492261
#
# Stress axis : x y z
#
# Youngs Moduli (GPa) = 54.66985 92.01987 29.71671
#
# Poissons Ratio (x) = 0.08904 0.39109
# Poissons Ratio (y) = 0.05290 0.14310
# Poissons Ratio (z) = 0.71948 0.44312
#
# Static dielectric constant tensor:
#      x y z
#    x 1.658770 0.000000 0.000000 
#    y 0.000000 1.657390 0.000000 
#    z 0.000000 0.000000 1.653300 
# 
# From -- ./inp_files/25520.got.cif
#   From: 2010.05.17/outbox.cif.g08.bks.cpg/sg72_13_cif.got.tgz:25520.got - 2010.06.03 17:03:01.
