data_PCOD9527200
_publ_section_title
;
Structure prediction by ZEFSAII (Michael W. Deem and Ramdas Pophale) SiO2 
 PCOD9527200
Probable space group: I B A M
;
_chemical_formula_sum "Si O2"
_cell_formula_units_Z 80
_cell_length_a 18.162960
_cell_length_b 14.866748
_cell_length_c 14.969720
_cell_angle_alpha 90.000000
_cell_angle_beta 90.000000
_cell_angle_gamma 90.000000
_cell_volume 4042.185908
_symmetry_space_group_name_H-M "I B A M"
_symmetry_group_IT_number 72
_symmetry_cell_setting 'orthorhombic'
loop_
_space_group_symop_operation_xyz
x,y,z
-x,-y,z
x,-y,1/2-z
-x,y,1/2-z
-x,-y,-z
x,y,-z
-x,y,1/2+z
x,-y,1/2+z
1/2+x,1/2+y,1/2+z
1/2-x,1/2-y,1/2+z
1/2+x,1/2-y,-z
1/2-x,1/2+y,-z
1/2-x,1/2-y,1/2-z
1/2+x,1/2+y,1/2-z
1/2-x,1/2+y,z
1/2+x,1/2-y,z
loop_
_atom_site_type_symbol
_atom_site_label
_atom_site_fract_x
_atom_site_fract_y
_atom_site_fract_z
Si Si1 0.183300 0.128514 0.099946
Si Si2 0.566093 0.071326 0.891527
Si Si3 0.264489 0.957939 0.106826
Si Si4 0.076123 0.754669 0.279009
Si Si5 0.294036 0.736786 0.341720
O O1 0.123098 0.180300 0.157563
O O2 0.255286 0.192101 0.094769
O O3 0.214352 0.037972 0.143858
O O4 0.154792 0.112666 0.000000
O O5 0.649211 0.038223 0.867218
O O6 0.559554 0.162873 0.833828
O O7 0.500000 0.000000 0.873254
O O8 0.565248 0.088756 0.000000
O O9 0.226327 0.862957 0.127225
O O10 0.264921 0.969926 0.000000
O O11 0.123509 0.741643 0.188274
O O12 0.000000 0.797231 0.250000
O O13 0.250000 0.750000 0.250000
#
# Coordination Sequence:
#
# PCOD9527200 Si02
#       5
#    16  16  16  16  16
#     4  10  21  40  65  87 119 167 210 253 300 358
#     4  10  21  39  62  91 129 164 197 245 307 376
#     4  10  20  38  65  93 118 158 214 256 297 360
#     4  11  24  40  56  91 130 162 198 251 315 368
#     4  10  20  37  59  88 123 161 201 251 301 358
#
# _framework density 19.791271999999999
#
# number of rings (size 3 to 8) (size 9 to 14) (size 15 to 20)
#    0.000    1.800    4.000    1.200    2.800    3.600 
#    0.000    5.000    0.000    2.400    0.000    0.000 
#    0.000    0.000    0.000    0.000    0.000    0.000 
#
# Total GULP energy -222998.840423 kJ/mol
# GULP energy per Si atom -5574.971011 kJ/mol
# Density = 1.974623 g / cm^3
# Si number density = 19.791272 Si / 1000 Ang^3
#
#
#
# Elastic Constant Matrix: (Units=GPa)
#
#
# Indices 1 2 3 4 5 6 
#
# 1 109.5990 28.6979 22.9250 0.0000 0.0000 0.0000
# 2 28.6979 126.2236 9.0098 0.0000 0.0000 0.0000
# 3 22.9250 9.0098 49.7287 0.0000 0.0000 0.0000
# 4 0.0000 0.0000 0.0000 27.3178 0.0000 0.0000
# 5 0.0000 0.0000 0.0000 0.0000 23.3712 0.0000
# 6 0.0000 0.0000 0.0000 0.0000 0.0000 35.7447
#
#
#
# Elastic Compliance Matrix: (Units=1/GPa)
#
#
# Indices 1 2 3 4 5 6 
#
# 1 0.010616 -0.002091 -0.004515 0.000000 0.000000 0.000000
# 2 -0.002091 0.008438 -0.000565 0.000000 0.000000 0.000000
# 3 -0.004515 -0.000565 0.022293 0.000000 0.000000 0.000000
# 4 0.000000 0.000000 0.000000 0.036606 0.000000 0.000000
# 5 0.000000 0.000000 0.000000 0.000000 0.042788 0.000000
# 6 0.000000 0.000000 0.000000 0.000000 0.000000 0.027976
#
#
# Mechanical properties :
#
#
# Convention : Reuss Voigt Hill
#
# Bulk Modulus (GPa) = 37.03036 45.20186 41.11611
# Shear Modulus (GPa) = 29.05934 32.28131 30.67032
#
# Velocity S-wave (km/s) = 3.83599 4.04305 3.94088
# Velocity P-wave (km/s) = 6.19442 6.68460 6.44417
#
# Compressibility (1/GPa) = 0.02700487
#
# Stress axis : x y z
#
# Youngs Moduli (GPa) = 94.19529 118.50795 44.85724
#
# Poissons Ratio (x) = 0.24785 0.20254
# Poissons Ratio (y) = 0.19700 0.02533
# Poissons Ratio (z) = 0.42531 0.06692
#
# Static dielectric constant tensor:
#      x y z
#    x 1.706410 0.000000 0.000000 
#    y 0.000000 1.590860 0.000000 
#    z 0.000000 0.000000 1.947060 
# 
# From -- ./inp_files/31366.got.cif
#   From: 2010.05.17/outbox.cif.g08.bks.cpg/sg72_16_cif.got.tgz:31366.got - 2010.06.03 17:03:01.
