data_PCOD9527927
_publ_section_title
;
Structure prediction by ZEFSAII (Michael W. Deem and Ramdas Pophale) SiO2 
 PCOD9527927
Probable space group: I B A M
;
_chemical_formula_sum "Si O2"
_cell_formula_units_Z 80
_cell_length_a 19.789548
_cell_length_b 23.382998
_cell_length_c 9.062318
_cell_angle_alpha 90.000000
_cell_angle_beta 90.000000
_cell_angle_gamma 90.000000
_cell_volume 4193.487618
_symmetry_space_group_name_H-M "I B A M"
_symmetry_group_IT_number 72
_symmetry_cell_setting 'orthorhombic'
loop_
_space_group_symop_operation_xyz
x,y,z
-x,-y,z
x,-y,1/2-z
-x,y,1/2-z
-x,-y,-z
x,y,-z
-x,y,1/2+z
x,-y,1/2+z
1/2+x,1/2+y,1/2+z
1/2-x,1/2-y,1/2+z
1/2+x,1/2-y,-z
1/2-x,1/2+y,-z
1/2-x,1/2-y,1/2-z
1/2+x,1/2+y,1/2-z
1/2-x,1/2+y,z
1/2+x,1/2-y,z
loop_
_atom_site_type_symbol
_atom_site_label
_atom_site_fract_x
_atom_site_fract_y
_atom_site_fract_z
Si Si1 0.936801 0.938760 0.671943
Si Si2 0.574175 0.846486 0.321078
Si Si3 0.320641 0.749412 0.832971
Si Si4 0.820316 0.884501 0.834790
Si Si5 0.327581 0.937509 0.324142
O O1 0.949328 0.943776 0.500000
O O2 0.866061 0.910507 0.708468
O O3 0.000000 0.907596 0.750000
O O4 0.932742 0.000000 0.750000
O O5 0.500000 0.842675 0.250000
O O6 0.569330 0.849122 0.500000
O O7 0.620325 0.791234 0.277775
O O8 0.613938 0.901429 0.256722
O O9 0.250000 0.750000 0.750000
O O10 0.337308 0.682461 0.835646
O O11 0.307329 0.768850 0.000000
O O12 0.742187 0.901107 0.810185
O O13 0.837840 0.907248 0.000000
O O14 0.341070 0.943234 0.500000
O O15 0.319682 0.000000 0.250000
#
# Coordination Sequence:
#
# PCOD9527927 Si02
#       5
#    16  16  16  16  16
#     4  11  22  37  57  82 117 160 203 251 304 359
#     4  11  24  42  65  93 127 164 208 255 309 368
#     4  10  21  39  64  92 123 159 199 246 299 360
#     4  10  21  38  61  91 125 159 202 251 301 361
#     4  11  23  40  64  92 126 164 208 258 310 369
#
# _framework density 19.077200000000001
#
# number of rings (size 3 to 8) (size 9 to 14) (size 15 to 20)
#    0.000    1.400    2.000    4.200    0.000    6.000 
#    0.000    4.000    0.000    0.000    0.000    0.000 
#    0.000    0.000    0.000    0.000    0.000    0.000 
#
# Total GULP energy -223153.691716 kJ/mol
# GULP energy per Si atom -5578.842293 kJ/mol
# Density = 1.903378 g / cm^3
# Si number density = 19.077200 Si / 1000 Ang^3
#
#
#
# Elastic Constant Matrix: (Units=GPa)
#
#
# Indices 1 2 3 4 5 6 
#
# 1 119.6207 41.9919 61.8234 0.0000 0.0000 0.0000
# 2 41.9919 93.0416 34.8661 0.0000 0.0000 0.0000
# 3 61.8234 34.8661 123.5206 0.0000 0.0000 0.0000
# 4 0.0000 0.0000 0.0000 24.2518 0.0000 0.0000
# 5 0.0000 0.0000 0.0000 0.0000 28.2438 0.0000
# 6 0.0000 0.0000 0.0000 0.0000 0.0000 26.5246
#
#
#
# Elastic Compliance Matrix: (Units=1/GPa)
#
#
# Indices 1 2 3 4 5 6 
#
# 1 0.012279 -0.003622 -0.005123 0.000000 0.000000 0.000000
# 2 -0.003622 0.013088 -0.001881 0.000000 0.000000 0.000000
# 3 -0.005123 -0.001881 0.011191 0.000000 0.000000 0.000000
# 4 0.000000 0.000000 0.000000 0.041234 0.000000 0.000000
# 5 0.000000 0.000000 0.000000 0.000000 0.035406 0.000000
# 6 0.000000 0.000000 0.000000 0.000000 0.000000 0.037701
#
#
# Mechanical properties :
#
#
# Convention : Reuss Voigt Hill
#
# Bulk Modulus (GPa) = 65.34099 68.17174 66.75637
# Shear Modulus (GPa) = 28.20811 28.97081 28.58946
#
# Velocity S-wave (km/s) = 3.84947 3.90116 3.87540
# Velocity P-wave (km/s) = 7.35412 7.49028 7.42251
#
# Compressibility (1/GPa) = 0.01530433
#
# Stress axis : x y z
#
# Youngs Moduli (GPa) = 81.43876 76.40835 89.35556
#
# Poissons Ratio (x) = 0.27674 0.45781
# Poissons Ratio (y) = 0.29496 0.16812
# Poissons Ratio (z) = 0.41725 0.14376
#
# Static dielectric constant tensor:
#      x y z
#    x 1.704350 0.000000 0.000000 
#    y 0.000000 1.714800 0.000000 
#    z 0.000000 0.000000 1.670440 
# 
# From -- ./inp_files/4813.got.cif
#   From: 2010.05.17/outbox.cif.g08.bks.cpg/sg72_3_cif.got.tgz:4813.got - 2010.06.03 17:03:01.
