data_PCOD9527958
_publ_section_title
;
Structure prediction by ZEFSAII (Michael W. Deem and Ramdas Pophale) SiO2 
 PCOD9527958
Probable space group: I B A M
;
_chemical_formula_sum "Si O2"
_cell_formula_units_Z 80
_cell_length_a 9.573436
_cell_length_b 20.946244
_cell_length_c 16.544055
_cell_angle_alpha 90.000000
_cell_angle_beta 90.000000
_cell_angle_gamma 90.000000
_cell_volume 3317.538425
_symmetry_space_group_name_H-M "I B A M"
_symmetry_group_IT_number 72
_symmetry_cell_setting 'orthorhombic'
loop_
_space_group_symop_operation_xyz
x,y,z
-x,-y,z
x,-y,1/2-z
-x,y,1/2-z
-x,-y,-z
x,y,-z
-x,y,1/2+z
x,-y,1/2+z
1/2+x,1/2+y,1/2+z
1/2-x,1/2-y,1/2+z
1/2+x,1/2-y,-z
1/2-x,1/2+y,-z
1/2-x,1/2-y,1/2-z
1/2+x,1/2+y,1/2-z
1/2-x,1/2+y,z
1/2+x,1/2-y,z
loop_
_atom_site_type_symbol
_atom_site_label
_atom_site_fract_x
_atom_site_fract_y
_atom_site_fract_z
Si Si1 0.334474 0.206039 0.815099
Si Si2 0.415660 0.567288 0.910838
Si Si3 0.895672 0.747037 0.090572
Si Si4 0.296258 0.380213 0.911496
Si Si5 0.291904 0.069545 0.240449
O O1 0.250000 0.250000 0.750000
O O2 0.218008 0.200144 0.885336
O O3 0.523987 0.237366 0.651877
O O4 0.366483 0.135120 0.784950
O O5 0.500000 0.500000 0.911741
O O6 0.535492 0.622182 0.908173
O O7 0.325221 0.565073 0.829722
O O8 0.345093 0.571650 0.000000
O O9 0.794540 0.684156 0.091993
O O10 0.951108 0.752973 0.000000
O O11 0.260896 0.417188 0.830651
O O12 0.263688 0.409572 0.000000
O O13 0.358008 0.000000 0.250000
#
# Coordination Sequence:
#
# PCOD9527958 Si02
#       5
#    16  16  16  16  16
#     4  12  27  48  76 108 152 194 253 319 389 460
#     4  10  21  38  65 104 150 193 247 313 381 452
#     4  11  26  50  76 109 149 200 257 320 395 468
#     4  10  22  41  66  99 146 195 244 310 378 450
#     4  12  25  42  72 107 150 200 260 312 384 460
#
# _framework density 24.114265
#
# number of rings (size 3 to 8) (size 9 to 14) (size 15 to 20)
#    0.000    1.000    4.000    1.800    2.800    3.200 
#    0.000    2.000    0.000    2.400    0.000    0.000 
#    0.000    0.000    0.000    0.000    0.000    0.000 
#
# Total GULP energy -223405.555187 kJ/mol
# GULP energy per Si atom -5585.138880 kJ/mol
# Density = 2.405938 g / cm^3
# Si number density = 24.114265 Si / 1000 Ang^3
#
#
#
# Elastic Constant Matrix: (Units=GPa)
#
#
# Indices 1 2 3 4 5 6 
#
# 1 147.0398 47.6973 70.4210 0.0000 0.0000 0.0000
# 2 47.6973 147.2466 51.7129 0.0000 0.0000 0.0000
# 3 70.4210 51.7129 215.3883 0.0001 0.0000 0.0000
# 4 0.0000 0.0000 0.0001 35.4993 0.0000 0.0000
# 5 0.0000 0.0000 0.0000 0.0000 37.9932 0.0000
# 6 0.0000 0.0000 0.0000 0.0000 0.0000 23.2887
#
#
#
# Elastic Compliance Matrix: (Units=1/GPa)
#
#
# Indices 1 2 3 4 5 6 
#
# 1 0.008548 -0.001952 -0.002326 0.000000 0.000000 0.000000
# 2 -0.001952 0.007862 -0.001249 0.000000 0.000000 0.000000
# 3 -0.002326 -0.001249 0.005703 0.000000 0.000000 0.000000
# 4 0.000000 0.000000 0.000000 0.028170 0.000000 0.000000
# 5 0.000000 0.000000 0.000000 0.000000 0.026321 0.000000
# 6 0.000000 0.000000 0.000000 0.000000 0.000000 0.042939
#
#
# Mechanical properties :
#
#
# Convention : Reuss Voigt Hill
#
# Bulk Modulus (GPa) = 90.42771 94.37080 92.39925
# Shear Modulus (GPa) = 37.23431 42.01247 39.62339
#
# Velocity S-wave (km/s) = 3.93374 4.17852 4.05798
# Velocity P-wave (km/s) = 7.62978 7.90569 7.76896
#
# Compressibility (1/GPa) = 0.01105856
#
# Stress axis : x y z
#
# Youngs Moduli (GPa) = 116.98463 127.18647 175.33708
#
# Poissons Ratio (x) = 0.24827 0.40786
# Poissons Ratio (y) = 0.22836 0.21908
# Poissons Ratio (z) = 0.27212 0.15892
#
# Static dielectric constant tensor:
#      x y z
#    x 1.908300 0.000000 0.000000 
#    y 0.000000 2.090920 0.000000 
#    z 0.000000 0.000000 1.966670 
# 
# From -- ./inp_files/23422.got.cif
#   From: 2010.05.17/outbox.cif.g08.bks.cpg/sg72_12_cif.got.tgz:23422.got - 2010.06.03 17:03:01.
