data_PCOD9527154
_publ_section_title
;
Structure prediction by ZEFSAII (Michael W. Deem and Ramdas Pophale) SiO2 
 PCOD9527154
Probable space group: I B A M
;
_chemical_formula_sum "Si O2"
_cell_formula_units_Z 60
_cell_length_a 5.187574
_cell_length_b 23.081736
_cell_length_c 25.999789
_cell_angle_alpha 90.000000
_cell_angle_beta 90.000000
_cell_angle_gamma 90.000000
_cell_volume 3113.168287
_symmetry_space_group_name_H-M "I B A M"
_symmetry_group_IT_number 72
_symmetry_cell_setting 'orthorhombic'
loop_
_space_group_symop_operation_xyz
x,y,z
-x,-y,z
x,-y,1/2-z
-x,y,1/2-z
-x,-y,-z
x,y,-z
-x,y,1/2+z
x,-y,1/2+z
1/2+x,1/2+y,1/2+z
1/2-x,1/2-y,1/2+z
1/2+x,1/2-y,-z
1/2-x,1/2+y,-z
1/2-x,1/2-y,1/2-z
1/2+x,1/2+y,1/2-z
1/2-x,1/2+y,z
1/2+x,1/2-y,z
loop_
_atom_site_type_symbol
_atom_site_label
_atom_site_fract_x
_atom_site_fract_y
_atom_site_fract_z
Si Si1 0.398576 0.066258 0.389794
Si Si2 0.117382 0.094822 0.171830
Si Si3 0.747147 0.041498 0.000000
Si Si4 0.298182 0.274623 0.307318
Si Si5 0.500000 0.500000 0.750000
O O1 0.656606 0.097478 0.370618
O O2 0.285661 0.076411 0.446966
O O3 0.159894 0.078966 0.352150
O O4 0.500000 0.000000 0.388031
O O5 0.121112 0.158867 0.195074
O O6 0.162656 0.044125 0.213964
O O7 0.500000 0.000000 0.000000
O O8 0.000000 0.000000 0.000000
O O9 0.250000 0.250000 0.250000
O O10 0.523023 0.237114 0.333035
#
# Coordination Sequence:
#
# PCOD9527154 Si02
#       5
#    16  16   8  16   4
#     4  11  21  40  56  95 122 158 204 247 311 385
#     4  12  24  37  61  87 128 163 204 254 303 369
#     4  10  20  36  66  82 124 168 194 252 308 379
#     4  10  21  40  58  79 111 159 220 252 284 343
#     4  12  24  38  52  88 132 170 188 240 320 364
#
# _framework density 19.272971999999999
#
# number of rings (size 3 to 8) (size 9 to 14) (size 15 to 20)
#    0.000    1.067    2.667    6.400    0.000    4.267 
#    0.000    0.000    0.000    0.000    0.000   18.667 
#    0.000    0.000    0.000    0.000    0.000    0.000 
#
# Total GULP energy -167183.598427 kJ/mol
# GULP energy per Si atom -5572.786614 kJ/mol
# Density = 1.922911 g / cm^3
# Si number density = 19.272972 Si / 1000 Ang^3
#
#
#
# Elastic Constant Matrix: (Units=GPa)
#
#
# Indices 1 2 3 4 5 6 
#
# 1 158.5009 30.3320 28.8864 0.0000 0.0000 0.0000
# 2 30.3320 129.0159 49.6832 0.0000 0.0000 0.0000
# 3 28.8864 49.6832 68.7527 0.0000 0.0000 0.0000
# 4 0.0000 0.0000 0.0000 13.6784 0.0000 0.0000
# 5 0.0000 0.0000 0.0000 0.0000 16.1390 0.0000
# 6 0.0000 0.0000 0.0000 0.0000 0.0000 18.9662
#
#
#
# Elastic Compliance Matrix: (Units=1/GPa)
#
#
# Indices 1 2 3 4 5 6 
#
# 1 0.006877 -0.000699 -0.002385 0.000000 0.000000 0.000000
# 2 -0.000699 0.010811 -0.007519 0.000000 0.000000 0.000000
# 3 -0.002385 -0.007519 0.020980 0.000000 0.000000 0.000000
# 4 0.000000 0.000000 0.000000 0.073108 0.000000 0.000000
# 5 0.000000 0.000000 0.000000 0.000000 0.061962 0.000000
# 6 0.000000 0.000000 0.000000 0.000000 0.000000 0.052726
#
#
# Mechanical properties :
#
#
# Convention : Reuss Voigt Hill
#
# Bulk Modulus (GPa) = 57.25991 63.78586 60.52289
# Shear Modulus (GPa) = 19.72476 26.24790 22.98633
#
# Velocity S-wave (km/s) = 3.20260 3.69440 3.45725
# Velocity P-wave (km/s) = 6.59166 7.16701 6.88534
#
# Compressibility (1/GPa) = 0.01746423
#
# Stress axis : x y z
#
# Youngs Moduli (GPa) = 145.40363 92.50190 47.66426
#
# Poissons Ratio (x) = 0.06462 0.11367
# Poissons Ratio (y) = 0.10157 0.35837
# Poissons Ratio (z) = 0.34675 0.69549
#
# Static dielectric constant tensor:
#      x y z
#    x 1.713670 0.000000 0.000000 
#    y 0.000000 1.710930 0.000000 
#    z 0.000000 0.000000 1.656170 
# 
# From -- ./inp_files/41339.got.cif
#   From: 2010.05.17/outbox.cif.g08.bks.cpg/sg72_21_cif.got.tgz:41339.got - 2010.06.03 17:03:01.
