data_PCOD9527121
_publ_section_title
;
Structure prediction by ZEFSAII (Michael W. Deem and Ramdas Pophale) SiO2 
 PCOD9527121
Probable space group: I B A M
;
_chemical_formula_sum "Si O2"
_cell_formula_units_Z 104
_cell_length_a 17.951702
_cell_length_b 22.575614
_cell_length_c 14.171248
_cell_angle_alpha 90.000000
_cell_angle_beta 90.000000
_cell_angle_gamma 90.000000
_cell_volume 5743.191526
_symmetry_space_group_name_H-M "I B A M"
_symmetry_group_IT_number 72
_symmetry_cell_setting 'orthorhombic'
loop_
_space_group_symop_operation_xyz
x,y,z
-x,-y,z
x,-y,1/2-z
-x,y,1/2-z
-x,-y,-z
x,y,-z
-x,y,1/2+z
x,-y,1/2+z
1/2+x,1/2+y,1/2+z
1/2-x,1/2-y,1/2+z
1/2+x,1/2-y,-z
1/2-x,1/2+y,-z
1/2-x,1/2-y,1/2-z
1/2+x,1/2+y,1/2-z
1/2-x,1/2+y,z
1/2+x,1/2-y,z
loop_
_atom_site_type_symbol
_atom_site_label
_atom_site_fract_x
_atom_site_fract_y
_atom_site_fract_z
Si Si1 0.673781 0.032642 0.000000
Si Si2 0.144162 0.835966 0.611902
Si Si3 0.734020 0.558293 0.185639
Si Si4 0.114108 0.600970 0.000000
Si Si5 0.306750 0.844144 0.315749
Si Si6 0.557414 0.140513 0.000000
Si Si7 0.574732 0.220202 0.188867
Si Si8 0.415483 0.570817 0.245417
O O1 0.726673 0.040301 0.910000
O O2 0.613739 0.085332 0.000000
O O3 0.633819 0.968777 0.000000
O O4 0.141505 0.835629 0.500000
O O5 0.227667 0.820717 0.646169
O O6 0.089641 0.786852 0.654728
O O7 0.121111 0.900203 0.652464
O O8 0.728898 0.500000 0.250000
O O9 0.784681 0.604546 0.242047
O O10 0.649547 0.584091 0.177627
O O11 0.150159 0.629532 0.906088
O O12 0.026631 0.615485 0.000000
O O13 0.358147 0.799412 0.257722
O O14 0.570339 0.179499 0.094722
O O15 0.500000 0.214552 0.250000
O O16 0.422492 0.500000 0.250000
O O17 0.500000 0.594212 0.250000
#
# Coordination Sequence:
#
# PCOD9527121 Si02
#       8
#     8  16  16   8  16   8  16  16
#     4  12  23  38  64  94 134 169 225 273 312 394
#     4  11  23  40  66  96 120 165 219 263 319 385
#     4  10  20  36  61  89 122 169 211 263 324 371
#     4  12  23  39  65  96 124 172 224 262 325 392
#     4  11  22  39  63  90 123 167 215 264 317 389
#     4  12  25  41  61  97 129 171 221 267 327 373
#     4  12  24  42  66  87 131 170 211 269 324 383
#     4   9  20  41  62  89 128 160 202 258 322 382
#
# _framework density 18.108398999999999
#
# number of rings (size 3 to 8) (size 9 to 14) (size 15 to 20)
#    0.000    1.077    6.154    1.154    0.000    0.000 
#    1.385    0.769    0.000    0.000    0.000    0.000 
#    0.000    0.000    0.000    0.000    0.000    0.000 
#
# Total GULP energy -290006.490147 kJ/mol
# GULP energy per Si atom -5577.047887 kJ/mol
# Density = 1.806718 g / cm^3
# Si number density = 18.108399 Si / 1000 Ang^3
#
#
#
# Elastic Constant Matrix: (Units=GPa)
#
#
# Indices 1 2 3 4 5 6 
#
# 1 120.7359 23.7309 50.4480 0.0000 0.0000 0.0000
# 2 23.7309 77.0733 48.7967 0.0000 0.0000 0.0000
# 3 50.4480 48.7967 127.0991 0.0000 0.0000 0.0000
# 4 0.0000 0.0000 0.0000 30.6111 0.0000 0.0000
# 5 0.0000 0.0000 0.0000 0.0000 11.5571 0.0000
# 6 0.0000 0.0000 0.0000 0.0000 0.0000 27.2107
#
#
#
# Elastic Compliance Matrix: (Units=1/GPa)
#
#
# Indices 1 2 3 4 5 6 
#
# 1 0.009962 -0.000745 -0.003668 0.000000 0.000000 0.000000
# 2 -0.000745 0.017197 -0.006307 0.000000 0.000000 0.000000
# 3 -0.003668 -0.006307 0.011745 0.000000 0.000000 0.000000
# 4 0.000000 0.000000 0.000000 0.032668 0.000000 0.000000
# 5 0.000000 0.000000 0.000000 0.000000 0.086527 0.000000
# 6 0.000000 0.000000 0.000000 0.000000 0.000000 0.036750
#
#
# Mechanical properties :
#
#
# Convention : Reuss Voigt Hill
#
# Bulk Modulus (GPa) = 57.25914 63.42882 60.34398
# Shear Modulus (GPa) = 22.51148 27.33796 24.92472
#
# Velocity S-wave (km/s) = 3.52966 3.88968 3.71404
# Velocity P-wave (km/s) = 6.94983 7.43479 7.19640
#
# Compressibility (1/GPa) = 0.01746446
#
# Stress axis : x y z
#
# Youngs Moduli (GPa) = 100.38585 58.14998 85.14225
#
# Poissons Ratio (x) = 0.04332 0.31230
# Poissons Ratio (y) = 0.07478 0.53696
# Poissons Ratio (z) = 0.36821 0.36673
#
# Static dielectric constant tensor:
#      x y z
#    x 1.651060 0.000000 0.000000 
#    y 0.000000 1.623120 0.000000 
#    z 0.000000 0.000000 1.617770 
# 
# From -- ./inp_files/23406.got.cif
#   From: 2010.05.17/outbox.cif.g08.bks.cpg/sg72_12_cif.got.tgz:23406.got - 2010.06.03 17:03:01.
