data_PCOD9527732
_publ_section_title
;
Structure prediction by ZEFSAII (Michael W. Deem and Ramdas Pophale) SiO2 
 PCOD9527732
Probable space group: I B A M
;
_chemical_formula_sum "Si O2"
_cell_formula_units_Z 72
_cell_length_a 19.737567
_cell_length_b 13.420846
_cell_length_c 14.260471
_cell_angle_alpha 90.000000
_cell_angle_beta 90.000000
_cell_angle_gamma 90.000000
_cell_volume 3777.525285
_symmetry_space_group_name_H-M "I B A M"
_symmetry_group_IT_number 72
_symmetry_cell_setting 'orthorhombic'
loop_
_space_group_symop_operation_xyz
x,y,z
-x,-y,z
x,-y,1/2-z
-x,y,1/2-z
-x,-y,-z
x,y,-z
-x,y,1/2+z
x,-y,1/2+z
1/2+x,1/2+y,1/2+z
1/2-x,1/2-y,1/2+z
1/2+x,1/2-y,-z
1/2-x,1/2+y,-z
1/2-x,1/2-y,1/2-z
1/2+x,1/2+y,1/2-z
1/2-x,1/2+y,z
1/2+x,1/2-y,z
loop_
_atom_site_type_symbol
_atom_site_label
_atom_site_fract_x
_atom_site_fract_y
_atom_site_fract_z
Si Si1 0.146501 0.653024 0.778617
Si Si2 0.800781 0.460848 0.389682
Si Si3 0.170694 0.842919 0.106721
Si Si4 0.500000 0.775641 0.750000
Si Si5 0.488586 0.611420 0.392412
O O1 0.164074 0.625500 0.671874
O O2 0.175363 0.563618 0.842677
O O3 0.177928 0.755036 0.818052
O O4 0.064848 0.662523 0.783824
O O5 0.816706 0.459203 0.500000
O O6 0.721119 0.435157 0.377813
O O7 0.092190 0.872302 0.110035
O O8 0.184703 0.805967 0.000000
O O9 0.521633 0.698870 0.668052
O O10 0.500000 0.500000 0.357259
O O11 0.511949 0.616405 0.500000
#
# Coordination Sequence:
#
# PCOD9527732 Si02
#       5
#    16  16  16   8  16
#     4  10  21  38  57  82 111 150 190 234 279 335
#     4  10  21  37  56  82 112 149 189 230 280 335
#     4   9  18  36  59  82 113 146 181 228 285 339
#     4  10  21  37  56  80 112 150 190 230 280 330
#     4   9  18  35  57  83 111 143 183 232 285 334
#
# _framework density 19.060098
#
# number of rings (size 3 to 8) (size 9 to 14) (size 15 to 20)
#    0.000    2.444    0.000    1.667    0.000    3.556 
#   20.000    1.111    0.000    0.000    0.000    0.000 
#    0.000    0.000    0.000    0.000    0.000    0.000 
#
# Total GULP energy -200666.536488 kJ/mol
# GULP energy per Si atom -5574.070458 kJ/mol
# Density = 1.901672 g / cm^3
# Si number density = 19.060098 Si / 1000 Ang^3
#
#
#
# Elastic Constant Matrix: (Units=GPa)
#
#
# Indices 1 2 3 4 5 6 
#
# 1 46.4356 32.7617 19.3630 0.0000 0.0000 0.0000
# 2 32.7617 81.6919 45.6295 0.0000 0.0000 0.0000
# 3 19.3630 45.6295 117.2925 0.0000 0.0000 0.0000
# 4 0.0000 0.0000 0.0000 33.7762 0.0000 0.0000
# 5 0.0000 0.0000 0.0000 0.0000 23.9598 0.0000
# 6 0.0000 0.0000 0.0000 0.0000 0.0000 30.9910
#
#
#
# Elastic Compliance Matrix: (Units=1/GPa)
#
#
# Indices 1 2 3 4 5 6 
#
# 1 0.030044 -0.011854 -0.000348 0.000000 0.000000 0.000000
# 2 -0.011854 0.020317 -0.005947 0.000000 0.000000 0.000000
# 3 -0.000348 -0.005947 0.010897 0.000000 0.000000 0.000000
# 4 0.000000 0.000000 0.000000 0.029607 0.000000 0.000000
# 5 0.000000 0.000000 0.000000 0.000000 0.041737 0.000000
# 6 0.000000 0.000000 0.000000 0.000000 0.000000 0.032267
#
#
# Mechanical properties :
#
#
# Convention : Reuss Voigt Hill
#
# Bulk Modulus (GPa) = 40.06595 48.99204 44.52900
# Shear Modulus (GPa) = 23.86794 27.58979 25.72886
#
# Velocity S-wave (km/s) = 3.54255 3.80875 3.67806
# Velocity P-wave (km/s) = 6.14812 6.71579 6.43822
#
# Compressibility (1/GPa) = 0.02495885
#
# Stress axis : x y z
#
# Youngs Moduli (GPa) = 33.28455 49.22040 91.77186
#
# Poissons Ratio (x) = 0.58348 0.03195
# Poissons Ratio (y) = 0.39457 0.54574
# Poissons Ratio (z) = 0.01159 0.29270
#
# Static dielectric constant tensor:
#      x y z
#    x 1.665960 0.000000 0.000000 
#    y 0.000000 1.649870 0.000000 
#    z 0.000000 0.000000 1.702790 
# 
# From -- ./inp_files/23015.got.cif
#   From: 2010.05.17/outbox.cif.g08.bks.cpg/sg72_12_cif.got.tgz:23015.got - 2010.06.03 17:03:01.
