data_PCOD9527827
_publ_section_title
;
Structure prediction by ZEFSAII (Michael W. Deem and Ramdas Pophale) SiO2 
 PCOD9527827
Probable space group: I B A M
;
_chemical_formula_sum "Si O2"
_cell_formula_units_Z 52
_cell_length_a 5.013797
_cell_length_b 28.548345
_cell_length_c 15.041206
_cell_angle_alpha 90.000000
_cell_angle_beta 90.000000
_cell_angle_gamma 90.000000
_cell_volume 2152.932144
_symmetry_space_group_name_H-M "I B A M"
_symmetry_group_IT_number 72
_symmetry_cell_setting 'orthorhombic'
loop_
_space_group_symop_operation_xyz
x,y,z
-x,-y,z
x,-y,1/2-z
-x,y,1/2-z
-x,-y,-z
x,y,-z
-x,y,1/2+z
x,-y,1/2+z
1/2+x,1/2+y,1/2+z
1/2-x,1/2-y,1/2+z
1/2+x,1/2-y,-z
1/2-x,1/2+y,-z
1/2-x,1/2-y,1/2-z
1/2+x,1/2+y,1/2-z
1/2-x,1/2+y,z
1/2+x,1/2-y,z
loop_
_atom_site_type_symbol
_atom_site_label
_atom_site_fract_x
_atom_site_fract_y
_atom_site_fract_z
Si Si1 0.896745 0.567263 0.401600
Si Si2 0.670568 0.223314 0.892447
Si Si3 0.500000 0.000000 0.750000
Si Si4 0.581896 0.376937 0.648430
O O1 0.878025 0.546275 0.500000
O O2 0.837065 0.532336 0.319646
O O3 0.692067 0.610602 0.400473
O O4 0.192727 0.586488 0.382606
O O5 0.874832 0.263863 0.861559
O O6 0.791696 0.173854 0.865714
O O7 0.664885 0.223625 0.000000
O O8 0.500000 0.381790 0.750000
#
# Coordination Sequence:
#
# PCOD9527827 Si02
#       4
#    16  16   4  16
#     4  12  26  46  73 100 139 182 222 280 347 407
#     4  10  21  37  61  94 133 177 227 275 326 394
#     4  12  26  50  72 108 132 170 234 290 332 420
#     4  12  24  45  68 101 141 179 228 283 333 405
#
# _framework density 24.153106000000001
#
# number of rings (size 3 to 8) (size 9 to 14) (size 15 to 20)
#    0.000    0.615    3.077    5.077    0.000    6.154 
#    0.000    3.077    0.000    0.000    0.000    0.000 
#    0.000    0.000    0.000    0.000    0.000    0.000 
#
# Total GULP energy -145530.298108 kJ/mol
# GULP energy per Si atom -5597.319158 kJ/mol
# Density = 2.409813 g / cm^3
# Si number density = 24.153106 Si / 1000 Ang^3
#
#
#
# Elastic Constant Matrix: (Units=GPa)
#
#
# Indices 1 2 3 4 5 6 
#
# 1 86.0977 -13.9245 13.7544 0.0000 0.0000 0.0000
# 2 -13.9245 72.0904 17.0642 0.0000 0.0001 0.0000
# 3 13.7544 17.0642 144.6516 0.0000 -0.0006 0.0000
# 4 0.0000 0.0000 0.0000 26.1425 -0.0001 0.0000
# 5 0.0000 0.0001 -0.0006 -0.0001-1142.4933 -0.0001
# 6 0.0000 0.0000 0.0000 0.0000 -0.0001 12.9069
#
#
#
# Elastic Compliance Matrix: (Units=1/GPa)
#
#
# Indices 1 2 3 4 5 6 
#
# 1 0.012294 0.002727 -0.001491 0.000000 0.000000 0.000000
# 2 0.002727 0.014875 -0.002014 0.000000 0.000000 0.000000
# 3 -0.001491 -0.002014 0.007293 0.000000 0.000000 0.000000
# 4 0.000000 0.000000 0.000000 0.038252 0.000000 0.000000
# 5 0.000000 0.000000 0.000000 0.000000 -0.000875 0.000000
# 6 0.000000 0.000000 0.000000 0.000000 0.000000 0.077478
#
#
# Mechanical properties :
#
#
# Convention : Reuss Voigt Hill
#
# Bulk Modulus (GPa) = 30.38887 37.40310 33.89598
# Shear Modulus (GPa) = 30.89473 -201.62575 -85.36551
#
# Velocity S-wave (km/s) = 3.58036 -9.14655 -5.95149
# Velocity P-wave (km/s) = 5.44987 9.79931 5.75871
#
# Compressibility (1/GPa) = 0.03290679
#
# Stress axis : x y z
#
# Youngs Moduli (GPa) = 81.34062 67.22668 137.12692
#
# Poissons Ratio (x) = -0.18336 0.20442
# Poissons Ratio (y) = -0.22186 0.27619
# Poissons Ratio (z) = 0.12126 0.13540
#
# Static dielectric constant tensor:
#      x y z
#    x 1.879070 0.000000 0.000000 
#    y 0.000000 1.957440 0.000000 
#    z 0.000000 0.000000 1.865850 
# 
# From -- ./inp_files/17583.got.cif
#   From: 2010.05.17/outbox.cif.g08.bks.cpg/sg72_9_cif.got.tgz:17583.got - 2010.06.03 17:03:01.
