data_PCOD9527960
_publ_section_title
;
Structure prediction by ZEFSAII (Michael W. Deem and Ramdas Pophale) SiO2 
 PCOD9527960
Probable space group: I B A M
;
_chemical_formula_sum "Si O2"
_cell_formula_units_Z 112
_cell_length_a 11.771470
_cell_length_b 28.631005
_cell_length_c 14.521160
_cell_angle_alpha 90.000000
_cell_angle_beta 90.000000
_cell_angle_gamma 90.000000
_cell_volume 4894.052272
_symmetry_space_group_name_H-M "I B A M"
_symmetry_group_IT_number 72
_symmetry_cell_setting 'orthorhombic'
loop_
_space_group_symop_operation_xyz
x,y,z
-x,-y,z
x,-y,1/2-z
-x,y,1/2-z
-x,-y,-z
x,y,-z
-x,y,1/2+z
x,-y,1/2+z
1/2+x,1/2+y,1/2+z
1/2-x,1/2-y,1/2+z
1/2+x,1/2-y,-z
1/2-x,1/2+y,-z
1/2-x,1/2-y,1/2-z
1/2+x,1/2+y,1/2-z
1/2-x,1/2+y,z
1/2+x,1/2-y,z
loop_
_atom_site_type_symbol
_atom_site_label
_atom_site_fract_x
_atom_site_fract_y
_atom_site_fract_z
Si Si1 0.921243 0.870886 0.391333
Si Si2 0.631954 0.191689 0.729218
Si Si3 0.321055 0.985663 0.351599
Si Si4 0.303092 0.281002 0.111988
Si Si5 0.935866 0.609763 0.607278
Si Si6 0.060720 0.955599 0.651819
Si Si7 0.314497 0.090917 0.603973
O O1 0.907808 0.872101 0.500000
O O2 0.908599 0.816565 0.367060
O O3 0.807010 0.896137 0.351967
O O4 0.030592 0.902988 0.377229
O O5 0.500000 0.200593 0.750000
O O6 0.674149 0.230950 0.656798
O O7 0.701401 0.197500 0.825039
O O8 0.637701 0.142943 0.672995
O O9 0.395379 0.943760 0.389638
O O10 0.192656 0.966498 0.347093
O O11 0.359541 0.000000 0.250000
O O12 0.320500 0.035070 0.401560
O O13 0.284493 0.279474 0.000000
O O14 0.931658 0.625166 0.500000
O O15 0.066299 0.609027 0.642960
O O16 0.000000 0.955800 0.750000
O O17 0.000000 0.000000 0.601900
O O18 0.314578 0.109828 0.500000
#
# Coordination Sequence:
#
# PCOD9527960 Si02
#       7
#    16  16  16  16  16  16  16
#     4  10  21  38  65  93 125 171 221 275 339 417
#     4  11  25  45  77 105 134 187 236 294 361 435
#     4  12  24  38  61  93 134 184 230 286 341 419
#     4  10  24  47  71 105 144 179 233 299 365 435
#     4  11  26  44  66 100 142 183 234 296 356 421
#     4  11  21  38  58  87 127 177 224 279 339 399
#     4  10  21  39  62  90 129 176 223 278 343 409
#
# _framework density 22.884920999999999
#
# number of rings (size 3 to 8) (size 9 to 14) (size 15 to 20)
#    0.000    1.286    2.857    2.143    6.000    6.000 
#    2.571    0.000    0.000    0.000    0.000    0.000 
#    0.000    0.000    0.000    0.000    0.000    0.000 
#
# Total GULP energy -312501.177250 kJ/mol
# GULP energy per Si atom -5580.378165 kJ/mol
# Density = 2.283283 g / cm^3
# Si number density = 22.884921 Si / 1000 Ang^3
#
#
#
# Elastic Constant Matrix: (Units=GPa)
#
#
# Indices 1 2 3 4 5 6 
#
# 1 65.3950 7.6794 12.4825 0.0000 0.0000 0.0000
# 2 7.6794 107.3056 28.9465 0.0002 -0.0001 -0.0001
# 3 12.4825 28.9465 119.4342 0.0005 -0.0006 -0.0003
# 4 0.0000 0.0002 0.0005 36.5097 -0.0001 -0.0001
# 5 0.0000 -0.0001 -0.0006 -0.0001 17.9417 0.0000
# 6 0.0000 -0.0001 -0.0003 -0.0001 0.0000 35.3026
#
#
#
# Elastic Compliance Matrix: (Units=1/GPa)
#
#
# Indices 1 2 3 4 5 6 
#
# 1 0.015656 -0.000727 -0.001460 0.000000 0.000000 0.000000
# 2 -0.000727 0.010005 -0.002349 0.000000 0.000000 0.000000
# 3 -0.001460 -0.002349 0.009095 0.000000 0.000000 0.000000
# 4 0.000000 0.000000 0.000000 0.027390 0.000000 0.000000
# 5 0.000000 0.000000 0.000000 0.000000 0.055736 0.000000
# 6 0.000000 0.000000 0.000000 0.000000 0.000000 0.028327
#
#
# Mechanical properties :
#
#
# Convention : Reuss Voigt Hill
#
# Bulk Modulus (GPa) = 38.93454 43.37238 41.15346
# Shear Modulus (GPa) = 30.51754 34.15257 32.33506
#
# Velocity S-wave (km/s) = 3.65570 3.86730 3.76299
# Velocity P-wave (km/s) = 5.90500 6.23978 6.07470
#
# Compressibility (1/GPa) = 0.02568413
#
# Stress axis : x y z
#
# Youngs Moduli (GPa) = 63.87440 99.95204 109.95416
#
# Poissons Ratio (x) = 0.07262 0.16055
# Poissons Ratio (y) = 0.04641 0.25827
# Poissons Ratio (z) = 0.09327 0.23477
#
# Static dielectric constant tensor:
#      x y z
#    x 1.909830 0.000000 0.000000 
#    y 0.000000 1.948770 0.000000 
#    z 0.000000 0.000000 1.879380 
# 
# From -- ./inp_files/20717.got.cif
#   From: 2010.05.17/outbox.cif.g08.bks.cpg/sg72_11_cif.got.tgz:20717.got - 2010.06.03 17:03:01.
