data_PCOD9527161
_publ_section_title
;
Structure prediction by ZEFSAII (Michael W. Deem and Ramdas Pophale) SiO2 
 PCOD9527161
Probable space group: I B A M
;
_chemical_formula_sum "Si O2"
_cell_formula_units_Z 60
_cell_length_a 4.874147
_cell_length_b 19.831083
_cell_length_c 27.760685
_cell_angle_alpha 90.000000
_cell_angle_beta 90.000000
_cell_angle_gamma 90.000000
_cell_volume 2683.337088
_symmetry_space_group_name_H-M "I B A M"
_symmetry_group_IT_number 72
_symmetry_cell_setting 'orthorhombic'
loop_
_space_group_symop_operation_xyz
x,y,z
-x,-y,z
x,-y,1/2-z
-x,y,1/2-z
-x,-y,-z
x,y,-z
-x,y,1/2+z
x,-y,1/2+z
1/2+x,1/2+y,1/2+z
1/2-x,1/2-y,1/2+z
1/2+x,1/2-y,-z
1/2-x,1/2+y,-z
1/2-x,1/2-y,1/2-z
1/2+x,1/2+y,1/2-z
1/2-x,1/2+y,z
1/2+x,1/2-y,z
loop_
_atom_site_type_symbol
_atom_site_label
_atom_site_fract_x
_atom_site_fract_y
_atom_site_fract_z
Si Si1 0.572507 0.819767 0.000000
Si Si2 0.374995 0.209419 0.107762
Si Si3 0.070967 0.095508 0.500000
Si Si4 0.500000 0.000000 0.250000
Si Si5 0.500000 0.500000 0.182214
Si Si6 0.318519 0.067156 0.603395
O O1 0.655230 0.787178 0.950157
O O2 0.252709 0.836721 0.000000
O O3 0.748396 0.890084 0.000000
O O4 0.579190 0.268004 0.125950
O O5 0.505347 0.135069 0.112509
O O6 0.165165 0.066672 0.551533
O O7 0.264008 0.973091 0.287296
O O8 0.607234 0.558505 0.147125
O O9 0.500000 0.000000 0.604085
#
# Coordination Sequence:
#
# PCOD9527161 Si02
#       6
#     8  16   8   4   8  16
#     4  10  20  37  54  77 122 188 243 270 291 359
#     4  11  23  38  58  86 129 183 234 274 317 377
#     4  10  23  36  58  91 139 181 219 262 324 383
#     4  10  24  46  68 104 124 166 216 294 350 420
#     4  11  24  43  72  98 136 161 224 281 360 408
#     4  11  25  41  66 101 142 182 226 278 334 401
#
# _framework density 22.360216000000001
#
# number of rings (size 3 to 8) (size 9 to 14) (size 15 to 20)
#    0.000    1.333    1.333    4.400   11.200    0.533 
#    0.000    0.000    0.000    0.000    0.000   18.667 
#    0.000    0.000    0.000    0.000    0.000    0.000 
#
# Total GULP energy -167174.598130 kJ/mol
# GULP energy per Si atom -5572.486604 kJ/mol
# Density = 2.230932 g / cm^3
# Si number density = 22.360216 Si / 1000 Ang^3
#
#
#
# Elastic Constant Matrix: (Units=GPa)
#
#
# Indices 1 2 3 4 5 6 
#
# 1 115.6225 35.1140 38.8561 0.0000 0.0000 0.0000
# 2 35.1140 112.7719 23.4012 0.0000 0.0000 0.0000
# 3 38.8561 23.4012 102.4530 0.0000 0.0000 0.0000
# 4 0.0000 0.0000 0.0000 -2.7723 0.0000 0.0000
# 5 0.0000 0.0000 0.0000 0.0000 57.4937 0.0000
# 6 0.0000 0.0000 0.0000 0.0000 0.0000 45.5474
#
#
#
# Elastic Compliance Matrix: (Units=1/GPa)
#
#
# Indices 1 2 3 4 5 6 
#
# 1 0.010585 -0.002585 -0.003424 0.000000 0.000000 0.000000
# 2 -0.002585 0.009940 -0.001290 0.000000 0.000000 0.000000
# 3 -0.003424 -0.001290 0.011354 0.000000 0.000000 0.000000
# 4 0.000000 0.000000 0.000000 -0.360712 0.000000 0.000000
# 5 0.000000 0.000000 0.000000 0.000000 0.017393 0.000000
# 6 0.000000 0.000000 0.000000 0.000000 0.000000 0.021955
#
#
# Mechanical properties :
#
#
# Convention : Reuss Voigt Hill
#
# Bulk Modulus (GPa) = 57.86898 58.39890 58.13394
# Shear Modulus (GPa) = -18.57858 35.61882 8.52012
#
# Velocity S-wave (km/s) = -2.88562 3.99551 1.95414
# Velocity P-wave (km/s) = 3.85151 6.88909 5.58093
#
# Compressibility (1/GPa) = 0.01728042
#
# Stress axis : x y z
#
# Youngs Moduli (GPa) = 94.47721 100.60249 88.07699
#
# Poissons Ratio (x) = 0.26008 0.30156
# Poissons Ratio (y) = 0.24425 0.11361
# Poissons Ratio (z) = 0.32347 0.12977
#
# Static dielectric constant tensor:
#      x y z
#    x 1.887210 0.000000 0.000000 
#    y 0.000000 1.851820 0.000000 
#    z 0.000000 0.000000 1.854750 
# 
# From -- ./inp_files/50206.got.cif
#   From: 2010.05.17/outbox.cif.g08.bks.cpg/sg72_26_cif.got.tgz:50206.got - 2010.06.03 17:03:01.
