data_PCOD9527890
_publ_section_title
;
Structure prediction by ZEFSAII (Michael W. Deem and Ramdas Pophale) SiO2 
 PCOD9527890
Probable space group: I B A M
;
_chemical_formula_sum "Si O2"
_cell_formula_units_Z 60
_cell_length_a 4.932195
_cell_length_b 24.062001
_cell_length_c 21.651105
_cell_angle_alpha 90.000000
_cell_angle_beta 90.000000
_cell_angle_gamma 90.000000
_cell_volume 2569.520254
_symmetry_space_group_name_H-M "I B A M"
_symmetry_group_IT_number 72
_symmetry_cell_setting 'orthorhombic'
loop_
_space_group_symop_operation_xyz
x,y,z
-x,-y,z
x,-y,1/2-z
-x,y,1/2-z
-x,-y,-z
x,y,-z
-x,y,1/2+z
x,-y,1/2+z
1/2+x,1/2+y,1/2+z
1/2-x,1/2-y,1/2+z
1/2+x,1/2-y,-z
1/2-x,1/2+y,-z
1/2-x,1/2-y,1/2-z
1/2+x,1/2+y,1/2-z
1/2-x,1/2+y,z
1/2+x,1/2-y,z
loop_
_atom_site_type_symbol
_atom_site_label
_atom_site_fract_x
_atom_site_fract_y
_atom_site_fract_z
Si Si1 0.953579 0.710466 0.616099
Si Si2 0.000000 0.000000 0.250000
Si Si3 0.165163 0.053111 0.870327
Si Si4 0.685097 0.896929 0.429870
Si Si5 0.500000 0.791578 0.750000
O O1 0.750000 0.750000 0.750000
O O2 0.048015 0.663682 0.569588
O O3 0.158670 0.762637 0.611607
O O4 0.011843 0.680308 0.816519
O O5 0.168853 0.961372 0.297391
O O6 0.543128 0.935771 0.898525
O O7 0.958691 0.102174 0.889080
O O8 0.000000 0.000000 0.897322
O O9 0.747095 0.913641 0.500000
#
# Coordination Sequence:
#
# PCOD9527890 Si02
#       5
#    16   4  16  16   8
#     4  10  21  38  59  88 127 168 212 262 308 362
#     4   8  24  46  68  98 124 158 212 254 356 378
#     4  10  24  44  67  92 129 158 212 273 318 387
#     4  12  25  40  64  98 128 176 219 249 317 383
#     4   8  16  32  53  78 109 150 205 251 306 352
#
# _framework density 23.350662
#
# number of rings (size 3 to 8) (size 9 to 14) (size 15 to 20)
#    0.800    1.067    0.000    3.200    0.000    8.533 
#    0.000    2.667    0.000    0.000    0.000    0.000 
#    0.000    0.000    0.000    0.000    0.000    0.000 
#
# Total GULP energy -167417.136761 kJ/mol
# GULP energy per Si atom -5580.571225 kJ/mol
# Density = 2.329751 g / cm^3
# Si number density = 23.350662 Si / 1000 Ang^3
#
#
#
# Elastic Constant Matrix: (Units=GPa)
#
#
# Indices 1 2 3 4 5 6 
#
# 1 119.1419 -5.3574 23.4561 0.0000 0.0000 0.0000
# 2 -5.3574 59.0088 18.5417 0.0000 0.0000 0.0000
# 3 23.4561 18.5417 158.7334 0.0000 0.0000 0.0000
# 4 0.0000 0.0000 0.0000 31.2137 0.0000 0.0000
# 5 0.0000 0.0000 0.0000 0.0000 11.2061 0.0000
# 6 0.0000 0.0000 0.0000 0.0000 0.0000 30.1184
#
#
#
# Elastic Compliance Matrix: (Units=1/GPa)
#
#
# Indices 1 2 3 4 5 6 
#
# 1 0.008732 0.001244 -0.001436 0.000000 0.000000 0.000000
# 2 0.001244 0.017770 -0.002259 0.000000 0.000000 0.000000
# 3 -0.001436 -0.002259 0.006776 0.000000 0.000000 0.000000
# 4 0.000000 0.000000 0.000000 0.032037 0.000000 0.000000
# 5 0.000000 0.000000 0.000000 0.000000 0.089237 0.000000
# 6 0.000000 0.000000 0.000000 0.000000 0.000000 0.033202
#
#
# Mechanical properties :
#
#
# Convention : Reuss Voigt Hill
#
# Bulk Modulus (GPa) = 35.24237 45.57389 40.40813
# Shear Modulus (GPa) = 24.73846 34.52389 29.63118
#
# Velocity S-wave (km/s) = 3.25842 3.84929 3.56612
# Velocity P-wave (km/s) = 5.41127 6.27022 5.85651
#
# Compressibility (1/GPa) = 0.02837494
#
# Stress axis : x y z
#
# Youngs Moduli (GPa) = 114.52230 56.27615 147.58094
#
# Poissons Ratio (x) = -0.07000 0.21187
# Poissons Ratio (y) = -0.14245 0.33345
# Poissons Ratio (z) = 0.16441 0.12715
#
# Static dielectric constant tensor:
#      x y z
#    x 1.837210 0.000000 0.000000 
#    y 0.000000 1.941300 0.000000 
#    z 0.000000 0.000000 1.944010 
# 
# From -- ./inp_files/27923.got.cif
#   From: 2010.05.17/outbox.cif.g08.bks.cpg/sg72_14_cif.got.tgz:27923.got - 2010.06.03 17:03:01.
