data_PCOD9527305
_publ_section_title
;
Structure prediction by ZEFSAII (Michael W. Deem and Ramdas Pophale) SiO2 
 PCOD9527305
Probable space group: I B A M
;
_chemical_formula_sum "Si O2"
_cell_formula_units_Z 120
_cell_length_a 22.290121
_cell_length_b 11.561601
_cell_length_c 25.261414
_cell_angle_alpha 90.000000
_cell_angle_beta 90.000000
_cell_angle_gamma 90.000000
_cell_volume 6510.105998
_symmetry_space_group_name_H-M "I B A M"
_symmetry_group_IT_number 72
_symmetry_cell_setting 'orthorhombic'
loop_
_space_group_symop_operation_xyz
x,y,z
-x,-y,z
x,-y,1/2-z
-x,y,1/2-z
-x,-y,-z
x,y,-z
-x,y,1/2+z
x,-y,1/2+z
1/2+x,1/2+y,1/2+z
1/2-x,1/2-y,1/2+z
1/2+x,1/2-y,-z
1/2-x,1/2+y,-z
1/2-x,1/2-y,1/2-z
1/2+x,1/2+y,1/2-z
1/2-x,1/2+y,z
1/2+x,1/2-y,z
loop_
_atom_site_type_symbol
_atom_site_label
_atom_site_fract_x
_atom_site_fract_y
_atom_site_fract_z
Si Si1 0.745431 0.500000 0.250000
Si Si2 0.085164 0.683951 0.938785
Si Si3 0.351642 0.301934 0.729660
Si Si4 0.454559 0.297090 0.439344
Si Si5 0.373394 0.069107 0.560094
Si Si6 0.567048 0.540139 0.660474
Si Si7 0.349174 0.687931 0.346256
Si Si8 0.710624 0.882721 0.344735
O O1 0.702749 0.609184 0.259362
O O2 0.783637 0.515021 0.197647
O O3 0.085786 0.544998 0.931960
O O4 0.128859 0.737267 0.895374
O O5 0.021082 0.745456 0.931055
O O6 0.103180 0.706141 0.000000
O O7 0.406017 0.374742 0.704946
O O8 0.362786 0.254572 0.788787
O O9 0.329116 0.212240 0.685963
O O10 0.450776 0.341823 0.500000
O O11 0.411176 0.186544 0.434838
O O12 0.438336 0.391339 0.395256
O O13 0.350235 0.062616 0.500000
O O14 0.320483 0.075870 0.602202
O O15 0.500000 0.500000 0.674200
O O16 0.612882 0.432392 0.655106
O O17 0.278407 0.662738 0.352599
#
# Coordination Sequence:
#
# PCOD9527305 Si02
#       8
#     8  16  16  16  16  16  16  16
#     4  10  20  38  59  88 115 162 198 242 288 356
#     4  10  22  40  62  87 116 154 199 246 297 353
#     4  11  22  40  57  89 121 160 200 238 298 356
#     4  10  21  41  64  87 115 154 202 245 297 357
#     4  10  22  40  63  88 116 153 198 250 301 348
#     4  12  22  39  61  91 122 156 194 248 300 352
#     4  11  23  38  61  90 121 158 198 242 292 357
#     4  11  23  37  64  85 123 155 204 242 292 355
#
# _framework density 18.432880000000001
#
# number of rings (size 3 to 8) (size 9 to 14) (size 15 to 20)
#    0.000    1.333    5.333    2.000    3.733    4.000 
#    0.000    0.000    0.000    0.000    0.000    0.000 
#    0.000    0.000    0.000    0.000    0.000    0.000 
#
# Total GULP energy -334911.727309 kJ/mol
# GULP energy per Si atom -5581.862122 kJ/mol
# Density = 1.839093 g / cm^3
# Si number density = 18.432880 Si / 1000 Ang^3
#
#
#
# Elastic Constant Matrix: (Units=GPa)
#
#
# Indices 1 2 3 4 5 6 
#
# 1 82.9322 17.3549 56.3331 0.0000 0.0000 0.0000
# 2 17.3549 33.8162 32.0382 0.0000 0.0000 0.0000
# 3 56.3331 32.0382 123.8213 0.0000 0.0000 0.0000
# 4 0.0000 0.0000 0.0000 36.2566 0.0000 0.0000
# 5 0.0000 0.0000 0.0000 0.0000 59.5147 0.0000
# 6 0.0000 0.0000 0.0000 0.0000 0.0000 -84.0396
#
#
#
# Elastic Compliance Matrix: (Units=1/GPa)
#
#
# Indices 1 2 3 4 5 6 
#
# 1 0.017544 -0.001910 -0.007487 0.000000 0.000000 0.000000
# 2 -0.001910 0.039383 -0.009321 0.000000 0.000000 0.000000
# 3 -0.007487 -0.009321 0.013894 0.000000 0.000000 0.000000
# 4 0.000000 0.000000 0.000000 0.027581 0.000000 0.000000
# 5 0.000000 0.000000 0.000000 0.000000 0.016803 0.000000
# 6 0.000000 0.000000 0.000000 0.000000 0.000000 -0.011899
#
#
# Mechanical properties :
#
#
# Convention : Reuss Voigt Hill
#
# Bulk Modulus (GPa) = 29.95451 50.22468 40.08960
# Shear Modulus (GPa) = 32.92275 11.33591 22.12933
#
# Velocity S-wave (km/s) = 4.23080 2.48258 3.46863
# Velocity P-wave (km/s) = 6.33657 5.96021 6.15127
#
# Compressibility (1/GPa) = 0.03338395
#
# Stress axis : x y z
#
# Youngs Moduli (GPa) = 57.00065 25.39171 71.97129
#
# Poissons Ratio (x) = 0.04849 0.53888
# Poissons Ratio (y) = 0.10886 0.67086
# Poissons Ratio (z) = 0.42679 0.23668
#
# Static dielectric constant tensor:
#      x y z
#    x 1.616920 0.000000 0.000000 
#    y 0.000000 1.665670 0.000000 
#    z 0.000000 0.000000 1.648090 
# 
# From -- ./inp_files/45453.got.cif
#   From: 2010.05.17/outbox.cif.g08.bks.cpg/sg72_23_cif.got.tgz:45453.got - 2010.06.03 17:03:01.
