data_PCOD9527787
_publ_section_title
;
Structure prediction by ZEFSAII (Michael W. Deem and Ramdas Pophale) SiO2 
 PCOD9527787
Probable space group: I B A M
;
_chemical_formula_sum "Si O2"
_cell_formula_units_Z 88
_cell_length_a 12.908112
_cell_length_b 12.786372
_cell_length_c 26.571712
_cell_angle_alpha 90.000000
_cell_angle_beta 90.000000
_cell_angle_gamma 90.000000
_cell_volume 4385.605846
_symmetry_space_group_name_H-M "I B A M"
_symmetry_group_IT_number 72
_symmetry_cell_setting 'orthorhombic'
loop_
_space_group_symop_operation_xyz
x,y,z
-x,-y,z
x,-y,1/2-z
-x,y,1/2-z
-x,-y,-z
x,y,-z
-x,y,1/2+z
x,-y,1/2+z
1/2+x,1/2+y,1/2+z
1/2-x,1/2-y,1/2+z
1/2+x,1/2-y,-z
1/2-x,1/2+y,-z
1/2-x,1/2-y,1/2-z
1/2+x,1/2+y,1/2-z
1/2-x,1/2+y,z
1/2+x,1/2-y,z
loop_
_atom_site_type_symbol
_atom_site_label
_atom_site_fract_x
_atom_site_fract_y
_atom_site_fract_z
Si Si1 0.549620 0.295595 0.393644
Si Si2 0.164891 0.383276 0.328936
Si Si3 0.137813 0.242316 0.830140
Si Si4 0.534661 0.818136 0.000000
Si Si5 0.749751 0.576034 0.107959
Si Si6 0.337650 0.973783 0.000000
Si Si7 0.500000 0.865966 0.750000
O O1 0.601981 0.196825 0.364561
O O2 0.443133 0.320656 0.364937
O O3 0.535457 0.254223 0.450470
O O4 0.630701 0.389642 0.389134
O O5 0.265222 0.321828 0.308605
O O6 0.212362 0.477294 0.360438
O O7 0.082333 0.419877 0.287477
O O8 0.184786 0.328577 0.868159
O O9 0.072642 0.295085 0.785751
O O10 0.435821 0.895223 0.000000
O O11 0.627522 0.904208 0.000000
O O12 0.776508 0.553094 0.050375
#
# Coordination Sequence:
#
# PCOD9527787 Si02
#       7
#    16  16  16   8  16   8   8
#     4  10  21  37  59  85 124 168 203 250 312 366
#     4  10  22  39  61  89 120 154 206 254 312 374
#     4  10  22  40  60  88 121 158 203 253 308 377
#     4  11  19  34  60  89 122 166 210 257 308 362
#     4  11  22  38  60  89 125 165 200 257 307 362
#     4  11  21  34  62  91 126 160 210 263 304 356
#     4  10  22  39  66  89 118 158 196 261 314 369
#
# _framework density 20.065643000000001
#
# number of rings (size 3 to 8) (size 9 to 14) (size 15 to 20)
#    0.000    1.636    3.636    1.091    0.000    5.091 
#    0.000    0.909    0.000   12.000    0.000    0.000 
#    0.000    0.000    0.000    0.000    0.000    0.000 
#
# Total GULP energy -245695.443949 kJ/mol
# GULP energy per Si atom -5583.987362 kJ/mol
# Density = 2.001997 g / cm^3
# Si number density = 20.065643 Si / 1000 Ang^3
#
#
#
# Elastic Constant Matrix: (Units=GPa)
#
#
# Indices 1 2 3 4 5 6 
#
# 1 101.2449 28.4267 38.2243 0.0000 0.0000 0.0000
# 2 28.4267 50.7761 23.4189 0.0000 0.0000 0.0000
# 3 38.2243 23.4189 109.7374 0.0000 0.0000 0.0000
# 4 0.0000 0.0000 0.0000 19.4158 0.0000 0.0000
# 5 0.0000 0.0000 0.0000 0.0000 32.0658 0.0000
# 6 0.0000 0.0000 0.0000 0.0000 0.0000 21.8593
#
#
#
# Elastic Compliance Matrix: (Units=1/GPa)
#
#
# Indices 1 2 3 4 5 6 
#
# 1 0.012665 -0.005608 -0.003215 0.000000 0.000000 0.000000
# 2 -0.005608 0.024327 -0.003238 0.000000 0.000000 0.000000
# 3 -0.003215 -0.003238 0.010924 0.000000 0.000000 0.000000
# 4 0.000000 0.000000 0.000000 0.051504 0.000000 0.000000
# 5 0.000000 0.000000 0.000000 0.000000 0.031186 0.000000
# 6 0.000000 0.000000 0.000000 0.000000 0.000000 0.045747
#
#
# Mechanical properties :
#
#
# Convention : Reuss Voigt Hill
#
# Bulk Modulus (GPa) = 42.02708 49.09981 45.56344
# Shear Modulus (GPa) = 23.99151 26.11409 25.05280
#
# Velocity S-wave (km/s) = 3.46157 3.61145 3.53731
# Velocity P-wave (km/s) = 6.08004 6.47401 6.28012
#
# Compressibility (1/GPa) = 0.02379418
#
# Stress axis : x y z
#
# Youngs Moduli (GPa) = 78.95576 41.10592 91.54506
#
# Poissons Ratio (x) = 0.23051 0.29431
# Poissons Ratio (y) = 0.44277 0.29645
# Poissons Ratio (z) = 0.25383 0.13311
#
# Static dielectric constant tensor:
#      x y z
#    x 1.707290 0.000000 0.000000 
#    y 0.000000 1.723760 0.000000 
#    z 0.000000 0.000000 1.674080 
# 
# From -- ./inp_files/48609.got.cif
#   From: 2010.05.17/outbox.cif.g08.bks.cpg/sg72_25_cif.got.tgz:48609.got - 2010.06.03 17:03:01.
