data_PCOD9527320
_publ_section_title
;
Structure prediction by ZEFSAII (Michael W. Deem and Ramdas Pophale) SiO2 
 PCOD9527320
Probable space group: I B A M
;
_chemical_formula_sum "Si O2"
_cell_formula_units_Z 96
_cell_length_a 18.565749
_cell_length_b 30.288966
_cell_length_c 7.724001
_cell_angle_alpha 90.000000
_cell_angle_beta 90.000000
_cell_angle_gamma 90.000000
_cell_volume 4343.494178
_symmetry_space_group_name_H-M "I B A M"
_symmetry_group_IT_number 72
_symmetry_cell_setting 'orthorhombic'
loop_
_space_group_symop_operation_xyz
x,y,z
-x,-y,z
x,-y,1/2-z
-x,y,1/2-z
-x,-y,-z
x,y,-z
-x,y,1/2+z
x,-y,1/2+z
1/2+x,1/2+y,1/2+z
1/2-x,1/2-y,1/2+z
1/2+x,1/2-y,-z
1/2-x,1/2+y,-z
1/2-x,1/2-y,1/2-z
1/2+x,1/2+y,1/2-z
1/2-x,1/2+y,z
1/2+x,1/2-y,z
loop_
_atom_site_type_symbol
_atom_site_label
_atom_site_fract_x
_atom_site_fract_y
_atom_site_fract_z
Si Si1 0.082835 0.227463 0.790888
Si Si2 0.710894 0.549423 0.708929
Si Si3 0.336966 0.645465 0.202620
Si Si4 0.301929 0.799215 0.194614
Si Si5 0.076552 0.639142 0.206106
Si Si6 0.623832 0.047051 0.706354
O O1 0.101203 0.177901 0.726397
O O2 0.148614 0.259493 0.727951
O O3 0.000000 0.239142 0.750000
O O4 0.088679 0.229012 0.000000
O O5 0.681305 0.500000 0.750000
O O6 0.712326 0.552263 0.500000
O O7 0.675482 0.595662 0.773041
O O8 0.793884 0.549576 0.773728
O O9 0.265345 0.676403 0.216275
O O10 0.352287 0.639240 0.000000
O O11 0.361086 0.837173 0.192924
O O12 0.279713 0.786491 0.000000
O O13 0.079167 0.588639 0.265892
O O14 0.000000 0.659035 0.250000
O O15 0.089846 0.642549 0.000000
O O16 0.628957 0.050054 0.500000
O O17 0.592240 0.000000 0.750000
#
# Coordination Sequence:
#
# PCOD9527320 Si02
#       6
#    16  16  16  16  16  16
#     4  10  23  40  59  84 116 151 187 230 282 335
#     4   9  17  32  54  81 110 142 179 224 280 331
#     4  10  20  38  61  85 115 150 186 230 281 331
#     4  11  22  36  56  85 112 145 190 232 275 325
#     4  11  22  36  51  72 104 145 187 230 281 330
#     4   9  18  32  49  69  97 136 178 224 279 329
#
# _framework density 22.102018999999999
#
# number of rings (size 3 to 8) (size 9 to 14) (size 15 to 20)
#    0.000    2.000    1.667    2.000    0.000    5.667 
#    0.000    1.667    0.000    0.500    0.000    3.500 
#    0.000    0.000    0.000    0.000    0.000    0.000 
#
# Total GULP energy -267565.874469 kJ/mol
# GULP energy per Si atom -5574.289051 kJ/mol
# Density = 2.205171 g / cm^3
# Si number density = 22.102019 Si / 1000 Ang^3
#
#
#
# Elastic Constant Matrix: (Units=GPa)
#
#
# Indices 1 2 3 4 5 6 
#
# 1 29.8906 46.3870 -0.6312 0.0001 0.0000 0.0001
# 2 46.3870 187.2209 2.3843 0.0001 0.0001 0.0001
# 3 -0.6312 2.3843 43.6500 0.0043 0.0009 0.0090
# 4 0.0001 0.0001 0.0043 -1.0157 0.0004 0.0011
# 5 0.0000 0.0001 0.0009 0.0004 12.2531 -0.0022
# 6 0.0001 0.0001 0.0090 0.0011 -0.0022 167.3760
#
#
#
# Elastic Compliance Matrix: (Units=1/GPa)
#
#
# Indices 1 2 3 4 5 6 
#
# 1 0.054457 -0.013512 0.001526 0.000010 0.000000 0.000000
# 2 -0.013512 0.008698 -0.000670 -0.000003 0.000000 0.000000
# 3 0.001526 -0.000670 0.022968 0.000097 -0.000002 -0.000001
# 4 0.000010 -0.000003 0.000097 -0.984514 0.000028 0.000006
# 5 0.000000 0.000000 -0.000002 0.000028 0.081612 0.000001
# 6 0.000000 0.000000 -0.000001 0.000006 0.000001 0.005975
#
#
# Mechanical properties :
#
#
# Convention : Reuss Voigt Hill
#
# Bulk Modulus (GPa) = 16.44503 39.67131 28.05817
# Shear Modulus (GPa) = -6.53405 49.89744 21.68169
#
# Velocity S-wave (km/s) = -1.72126 4.75657 3.13546
# Velocity P-wave (km/s) = 1.87253 6.93936 5.08238
#
# Compressibility (1/GPa) = 0.06080866
#
# Stress axis : x y z
#
# Youngs Moduli (GPa) = 18.36323 114.97398 43.53852
#
# Poissons Ratio (x) = 1.55352 -0.06642
# Poissons Ratio (y) = 0.24812 0.02919
# Poissons Ratio (z) = -0.02801 0.07709
#
# Static dielectric constant tensor:
#      x y z
#    x 1.780810 0.000000 0.000000 
#    y 0.000000 1.894970 0.000000 
#    z 0.000000 0.000000 1.874440 
# 
# From -- ./inp_files/5961.got.cif
#   From: 2010.05.17/outbox.cif.g08.bks.cpg/sg72_3_cif.got.tgz:5961.got - 2010.06.03 17:03:01.
