data_PCOD9527009
_publ_section_title
;
Structure prediction by ZEFSAII (Michael W. Deem and Ramdas Pophale) SiO2 
 PCOD9527009
Probable space group: I B A M
;
_chemical_formula_sum "Si O2"
_cell_formula_units_Z 128
_cell_length_a 19.423135
_cell_length_b 19.800639
_cell_length_c 19.122326
_cell_angle_alpha 90.000000
_cell_angle_beta 90.000000
_cell_angle_gamma 90.000000
_cell_volume 7354.264619
_symmetry_space_group_name_H-M "I B A M"
_symmetry_group_IT_number 72
_symmetry_cell_setting 'orthorhombic'
loop_
_space_group_symop_operation_xyz
x,y,z
-x,-y,z
x,-y,1/2-z
-x,y,1/2-z
-x,-y,-z
x,y,-z
-x,y,1/2+z
x,-y,1/2+z
1/2+x,1/2+y,1/2+z
1/2-x,1/2-y,1/2+z
1/2+x,1/2-y,-z
1/2-x,1/2+y,-z
1/2-x,1/2-y,1/2-z
1/2+x,1/2+y,1/2-z
1/2-x,1/2+y,z
1/2+x,1/2-y,z
loop_
_atom_site_type_symbol
_atom_site_label
_atom_site_fract_x
_atom_site_fract_y
_atom_site_fract_z
Si Si1 0.169136 0.065665 0.298336
Si Si2 0.424961 0.677695 0.771137
Si Si3 0.352865 0.201515 0.199672
Si Si4 0.196205 0.356298 0.833163
Si Si5 0.581897 0.079148 0.754056
Si Si6 0.380667 0.345665 0.420911
Si Si7 0.252194 0.759382 0.579495
Si Si8 0.918612 0.002436 0.919453
O O1 0.132677 0.124531 0.253610
O O2 0.243252 0.089780 0.325227
O O3 0.175412 0.000000 0.250000
O O4 0.120979 0.048141 0.364190
O O5 0.500000 0.651939 0.750000
O O6 0.409048 0.746558 0.729654
O O7 0.419645 0.686313 0.854679
O O8 0.299923 0.191045 0.264000
O O9 0.385424 0.126666 0.193616
O O10 0.314634 0.229101 0.132437
O O11 0.121333 0.390299 0.822226
O O12 0.210587 0.307765 0.897762
O O13 0.500000 0.086881 0.750000
O O14 0.598352 0.000000 0.750000
O O15 0.403931 0.326760 0.500000
O O16 0.302087 0.320804 0.414516
O O17 0.389761 0.426130 0.414759
O O18 0.275587 0.754017 0.500000
O O19 0.910771 0.025510 0.000000
O O20 0.000000 0.000000 0.903653
#
# Coordination Sequence:
#
# PCOD9527009 Si02
#       8
#    16  16  16  16  16  16  16  16
#     4  12  23  33  56  85 115 151 198 237 283 343
#     4  12  22  36  59  86 112 153 198 235 285 343
#     4  10  21  37  58  83 113 147 188 245 291 344
#     4  10  21  36  58  83 114 149 186 248 286 341
#     4   9  19  35  61  91 115 144 190 248 312 361
#     4  10  20  36  56  77 109 152 189 229 287 344
#     4  11  21  36  57  84 118 154 192 239 297 347
#     4  10  22  38  52  74 114 156 191 237 289 340
#
# _framework density 17.404866999999999
#
# number of rings (size 3 to 8) (size 9 to 14) (size 15 to 20)
#    0.750    0.750    3.750    2.625    0.000    0.500 
#    0.000    0.625    0.000    1.500    0.000    1.750 
#    0.000    0.000    0.000    0.000    0.000    0.000 
#
# Total GULP energy -356588.317688 kJ/mol
# GULP energy per Si atom -5571.692464 kJ/mol
# Density = 1.736525 g / cm^3
# Si number density = 17.404867 Si / 1000 Ang^3
#
#
#
# Elastic Constant Matrix: (Units=GPa)
#
#
# Indices 1 2 3 4 5 6 
#
# 1 55.4107 14.5703 12.6005 0.0000 0.0000 0.0000
# 2 14.5703 72.4958 -2.2102 0.0000 0.0000 0.0000
# 3 12.6005 -2.2102 77.8303 0.0000 0.0000 0.0000
# 4 0.0000 0.0000 0.0000 12.3655 0.0000 0.0000
# 5 0.0000 0.0000 0.0000 0.0000 16.9777 0.0000
# 6 0.0000 0.0000 0.0000 0.0000 0.0000 25.8946
#
#
#
# Elastic Compliance Matrix: (Units=1/GPa)
#
#
# Indices 1 2 3 4 5 6 
#
# 1 0.019883 -0.004098 -0.003335 0.000000 0.000000 0.000000
# 2 -0.004098 0.014650 0.001079 0.000000 0.000000 0.000000
# 3 -0.003335 0.001079 0.013419 0.000000 0.000000 0.000000
# 4 0.000000 0.000000 0.000000 0.080870 0.000000 0.000000
# 5 0.000000 0.000000 0.000000 0.000000 0.058901 0.000000
# 6 0.000000 0.000000 0.000000 0.000000 0.000000 0.038618
#
#
# Mechanical properties :
#
#
# Convention : Reuss Voigt Hill
#
# Bulk Modulus (GPa) = 28.37274 28.40645 28.38960
# Shear Modulus (GPa) = 19.93644 23.09932 21.51788
#
# Velocity S-wave (km/s) = 3.38812 3.64699 3.51994
# Velocity P-wave (km/s) = 5.62520 5.83871 5.73295
#
# Compressibility (1/GPa) = 0.03524510
#
# Stress axis : x y z
#
# Youngs Moduli (GPa) = 50.29413 68.25756 74.52061
#
# Poissons Ratio (x) = 0.27971 0.24855
# Poissons Ratio (y) = 0.20609 -0.08044
# Poissons Ratio (z) = 0.16775 -0.07368
#
# Static dielectric constant tensor:
#      x y z
#    x 1.589820 0.000000 0.000000 
#    y 0.000000 1.609380 0.000000 
#    z 0.000000 0.000000 1.596960 
# 
# From -- ./inp_files/32960.got.cif
#   From: 2010.05.17/outbox.cif.g08.bks.cpg/sg72_17_cif.got.tgz:32960.got - 2010.06.03 17:03:01.
