data_PCOD9527799
_publ_section_title
;
Structure prediction by ZEFSAII (Michael W. Deem and Ramdas Pophale) SiO2 
 PCOD9527799
Probable space group: I B A M
;
_chemical_formula_sum "Si O2"
_cell_formula_units_Z 116
_cell_length_a 27.965059
_cell_length_b 12.277547
_cell_length_c 18.684292
_cell_angle_alpha 90.000000
_cell_angle_beta 90.000000
_cell_angle_gamma 90.000000
_cell_volume 6415.108279
_symmetry_space_group_name_H-M "I B A M"
_symmetry_group_IT_number 72
_symmetry_cell_setting 'orthorhombic'
loop_
_space_group_symop_operation_xyz
x,y,z
-x,-y,z
x,-y,1/2-z
-x,y,1/2-z
-x,-y,-z
x,y,-z
-x,y,1/2+z
x,-y,1/2+z
1/2+x,1/2+y,1/2+z
1/2-x,1/2-y,1/2+z
1/2+x,1/2-y,-z
1/2-x,1/2+y,-z
1/2-x,1/2-y,1/2-z
1/2+x,1/2+y,1/2-z
1/2-x,1/2+y,z
1/2+x,1/2-y,z
loop_
_atom_site_type_symbol
_atom_site_label
_atom_site_fract_x
_atom_site_fract_y
_atom_site_fract_z
Si Si1 0.871589 0.845894 0.580108
Si Si2 0.359079 0.401339 0.415659
Si Si3 0.946943 0.192317 0.668011
Si Si4 0.280668 0.393882 0.698701
Si Si5 0.000000 0.000000 0.750000
Si Si6 0.074596 0.617524 0.219092
Si Si7 0.321009 0.207458 0.199844
Si Si8 0.467555 0.791616 0.581705
O O1 0.853263 0.827538 0.500000
O O2 0.836905 0.785565 0.634832
O O3 0.924351 0.795456 0.584920
O O4 0.876038 0.973877 0.591614
O O5 0.357376 0.373168 0.500000
O O6 0.396575 0.329195 0.370866
O O7 0.308107 0.402744 0.376267
O O8 0.943023 0.282696 0.730763
O O9 0.984333 0.235929 0.609547
O O10 0.967219 0.080974 0.702767
O O11 0.286473 0.500000 0.750000
O O12 0.305176 0.290771 0.738044
O O13 0.224987 0.367586 0.686990
O O14 0.064044 0.500000 0.250000
O O15 0.131651 0.637307 0.214721
O O16 0.049728 0.623807 0.141604
O O17 0.471622 0.830819 0.500000
#
# Coordination Sequence:
#
# PCOD9527799 Si02
#       8
#    16  16  16  16   4  16  16  16
#     4   9  19  36  59  87 121 159 195 241 302 368
#     4  11  23  37  58  89 125 158 194 251 315 364
#     4  12  23  38  61  92 124 162 203 261 298 367
#     4  11  21  36  61  87 115 147 201 250 301 360
#     4  12  24  36  64  96 124 156 210 246 312 344
#     4  11  23  42  63  88 121 161 211 252 300 365
#     4  10  21  37  60  87 112 156 197 249 298 358
#     4  10  21  40  61  90 124 163 205 248 308 361
#
# _framework density 18.082314
#
# number of rings (size 3 to 8) (size 9 to 14) (size 15 to 20)
#    0.000    1.379    4.138    1.655    2.897    1.655 
#    0.000    4.828    0.000    0.000    0.000    0.000 
#    0.000    0.000    0.000    0.000    0.000    0.000 
#
# Total GULP energy -323713.014993 kJ/mol
# GULP energy per Si atom -5581.258879 kJ/mol
# Density = 1.804116 g / cm^3
# Si number density = 18.082314 Si / 1000 Ang^3
#
#
#
# Elastic Constant Matrix: (Units=GPa)
#
#
# Indices 1 2 3 4 5 6 
#
# 1 98.1368 32.2483 55.2813 0.0000 0.0000 0.0000
# 2 32.2483 76.3876 47.9374 0.0000 0.0000 0.0000
# 3 55.2813 47.9374 127.1082 0.0000 0.0000 0.0000
# 4 0.0000 0.0000 0.0000 18.2076 0.0000 0.0000
# 5 0.0000 0.0000 0.0000 0.0000 4.6404 0.0000
# 6 0.0000 0.0000 0.0000 0.0000 0.0000 9.5759
#
#
#
# Elastic Compliance Matrix: (Units=1/GPa)
#
#
# Indices 1 2 3 4 5 6 
#
# 1 0.013915 -0.002720 -0.005026 0.000000 0.000000 0.000000
# 2 -0.002720 0.017682 -0.005485 0.000000 0.000000 0.000000
# 3 -0.005026 -0.005485 0.012122 0.000000 0.000000 0.000000
# 4 0.000000 0.000000 0.000000 0.054922 0.000000 0.000000
# 5 0.000000 0.000000 0.000000 0.000000 0.215498 0.000000
# 6 0.000000 0.000000 0.000000 0.000000 0.000000 0.104428
#
#
# Mechanical properties :
#
#
# Convention : Reuss Voigt Hill
#
# Bulk Modulus (GPa) = 57.95268 63.61851 60.78559
# Shear Modulus (GPa) = 11.09182 17.56249 14.32715
#
# Velocity S-wave (km/s) = 2.47939 3.11987 2.81789
# Velocity P-wave (km/s) = 6.34945 6.94530 6.65405
#
# Compressibility (1/GPa) = 0.01725546
#
# Stress axis : x y z
#
# Youngs Moduli (GPa) = 71.86542 56.55468 82.49549
#
# Poissons Ratio (x) = 0.15385 0.41461
# Poissons Ratio (y) = 0.19551 0.45252
# Poissons Ratio (z) = 0.36118 0.31023
#
# Static dielectric constant tensor:
#      x y z
#    x 1.616720 0.000000 0.000000 
#    y 0.000000 1.606690 0.000000 
#    z 0.000000 0.000000 1.628940 
# 
# From -- ./inp_files/33966.got.cif
#   From: 2010.05.17/outbox.cif.g08.bks.cpg/sg72_17_cif.got.tgz:33966.got - 2010.06.03 17:03:01.
