data_PCOD9527498
_publ_section_title
;
Structure prediction by ZEFSAII (Michael W. Deem and Ramdas Pophale) SiO2 
 PCOD9527498
Probable space group: I B A M
;
_chemical_formula_sum "Si O2"
_cell_formula_units_Z 88
_cell_length_a 13.173456
_cell_length_b 12.310130
_cell_length_c 26.749154
_cell_angle_alpha 90.000000
_cell_angle_beta 90.000000
_cell_angle_gamma 90.000000
_cell_volume 4337.828877
_symmetry_space_group_name_H-M "I B A M"
_symmetry_group_IT_number 72
_symmetry_cell_setting 'orthorhombic'
loop_
_space_group_symop_operation_xyz
x,y,z
-x,-y,z
x,-y,1/2-z
-x,y,1/2-z
-x,-y,-z
x,y,-z
-x,y,1/2+z
x,-y,1/2+z
1/2+x,1/2+y,1/2+z
1/2-x,1/2-y,1/2+z
1/2+x,1/2-y,-z
1/2-x,1/2+y,-z
1/2-x,1/2-y,1/2-z
1/2+x,1/2+y,1/2-z
1/2-x,1/2+y,z
1/2+x,1/2-y,z
loop_
_atom_site_type_symbol
_atom_site_label
_atom_site_fract_x
_atom_site_fract_y
_atom_site_fract_z
Si Si1 0.663037 0.308271 0.913274
Si Si2 0.047740 0.880473 0.896093
Si Si3 0.249518 0.424879 0.500000
Si Si4 0.121661 0.372142 0.756491
Si Si5 0.215916 0.220924 0.670975
Si Si6 0.631433 0.852778 0.500000
Si Si7 0.084753 0.236519 0.500000
O O1 0.553650 0.308847 0.887398
O O2 0.749471 0.302218 0.872636
O O3 0.668837 0.204085 0.949215
O O4 0.680509 0.409301 0.951073
O O5 0.134528 0.859437 0.855084
O O6 0.082747 0.839435 0.951000
O O7 0.000000 0.000000 0.895129
O O8 0.176412 0.527530 0.500000
O O9 0.176869 0.319781 0.500000
O O10 0.144382 0.500000 0.750000
O O11 0.166462 0.293178 0.714065
O O12 0.183417 0.336473 0.806439
O O13 0.000000 0.360486 0.750000
O O14 0.513546 0.816230 0.500000
#
# Coordination Sequence:
#
# PCOD9527498 Si02
#       7
#    16  16   8  16  16   8   8
#     4  10  23  38  59  94 129 167 223 267 322 395
#     4  11  24  39  65  98 136 179 221 271 330 391
#     4  11  20  36  63  87 132 180 223 271 328 382
#     4  10  24  46  71  96 125 166 211 274 348 400
#     4  11  23  43  69  94 133 164 216 278 324 410
#     4   9  22  36  56  89 132 170 226 273 328 377
#     4  10  20  42  56  95 133 182 221 283 310 401
#
# _framework density 20.286646000000001
#
# number of rings (size 3 to 8) (size 9 to 14) (size 15 to 20)
#    0.000    1.636    1.818    2.182    5.091    0.000 
#    0.000    1.818    0.000    0.000    0.000    0.000 
#    0.000    0.000    0.000    0.000    0.000    0.000 
#
# Total GULP energy -245373.665304 kJ/mol
# GULP energy per Si atom -5576.674211 kJ/mol
# Density = 2.024047 g / cm^3
# Si number density = 20.286646 Si / 1000 Ang^3
#
#
#
# Elastic Constant Matrix: (Units=GPa)
#
#
# Indices 1 2 3 4 5 6 
#
# 1 122.6867 47.1197 56.0131 0.0000 0.0000 0.0000
# 2 47.1197 98.5018 36.9319 0.0000 0.0000 0.0000
# 3 56.0131 36.9319 89.6454 0.0000 0.0000 0.0000
# 4 0.0000 0.0000 0.0000 -1.4234 0.0000 0.0000
# 5 0.0000 0.0000 0.0000 0.0000 34.7674 0.0000
# 6 0.0000 0.0000 0.0000 0.0000 0.0000 8.0078
#
#
#
# Elastic Compliance Matrix: (Units=1/GPa)
#
#
# Indices 1 2 3 4 5 6 
#
# 1 0.012384 -0.003575 -0.006265 0.000000 0.000000 0.000000
# 2 -0.003575 0.013039 -0.003138 0.000000 0.000000 0.000000
# 3 -0.006265 -0.003138 0.016362 0.000000 0.000000 0.000000
# 4 0.000000 0.000000 0.000000 -0.702530 0.000000 0.000000
# 5 0.000000 0.000000 0.000000 0.000000 0.028763 0.000000
# 6 0.000000 0.000000 0.000000 0.000000 0.000000 0.124879
#
#
# Mechanical properties :
#
#
# Convention : Reuss Voigt Hill
#
# Bulk Modulus (GPa) = 63.17436 65.66258 64.41847
# Shear Modulus (GPa) = -10.50706 19.65497 4.57396
#
# Velocity S-wave (km/s) = -2.27828 3.11603 1.50318
# Velocity P-wave (km/s) = 4.92826 6.73675 5.90219
#
# Compressibility (1/GPa) = 0.01582921
#
# Stress axis : x y z
#
# Youngs Moduli (GPa) = 80.74711 76.69405 61.11552
#
# Poissons Ratio (x) = 0.27419 0.38290
# Poissons Ratio (y) = 0.28868 0.19177
# Poissons Ratio (z) = 0.50590 0.24065
#
# Static dielectric constant tensor:
#      x y z
#    x 1.768840 0.000000 0.000000 
#    y 0.000000 1.711390 0.000000 
#    z 0.000000 0.000000 1.717440 
# 
# From -- ./inp_files/44182.got.cif
#   From: 2010.05.17/outbox.cif.g08.bks.cpg/sg72_23_cif.got.tgz:44182.got - 2010.06.03 17:03:01.
