data_PCOD9527173
_publ_section_title
;
Structure prediction by ZEFSAII (Michael W. Deem and Ramdas Pophale) SiO2 
 PCOD9527173
Probable space group: I B A M
;
_chemical_formula_sum "Si O2"
_cell_formula_units_Z 88
_cell_length_a 5.670335
_cell_length_b 23.517747
_cell_length_c 27.684626
_cell_angle_alpha 90.000000
_cell_angle_beta 90.000000
_cell_angle_gamma 90.000000
_cell_volume 3691.841882
_symmetry_space_group_name_H-M "I B A M"
_symmetry_group_IT_number 72
_symmetry_cell_setting 'orthorhombic'
loop_
_space_group_symop_operation_xyz
x,y,z
-x,-y,z
x,-y,1/2-z
-x,y,1/2-z
-x,-y,-z
x,y,-z
-x,y,1/2+z
x,-y,1/2+z
1/2+x,1/2+y,1/2+z
1/2-x,1/2-y,1/2+z
1/2+x,1/2-y,-z
1/2-x,1/2+y,-z
1/2-x,1/2-y,1/2-z
1/2+x,1/2+y,1/2-z
1/2-x,1/2+y,z
1/2+x,1/2-y,z
loop_
_atom_site_type_symbol
_atom_site_label
_atom_site_fract_x
_atom_site_fract_y
_atom_site_fract_z
Si Si1 0.326063 0.259248 0.843543
Si Si2 0.370379 0.060957 0.446476
Si Si3 0.723931 0.843498 0.914120
Si Si4 0.461920 0.285466 0.500000
Si Si5 0.249339 0.479669 0.805016
Si Si6 0.104569 0.112442 0.640217
O O1 0.580175 0.255283 0.817665
O O2 0.349868 0.215378 0.888624
O O3 0.307953 0.323262 0.862410
O O4 0.260819 0.062091 0.500000
O O5 0.544287 0.115390 0.441273
O O6 0.195942 0.072118 0.402469
O O7 0.500000 0.000000 0.442135
O O8 0.827755 0.880625 0.869589
O O9 0.921255 0.824626 0.952980
O O10 0.720998 0.255240 0.500000
O O11 0.500000 0.500000 0.826488
O O12 0.247662 0.500000 0.750000
O O13 0.286153 0.412743 0.811177
O O14 0.000000 0.500000 0.826153
#
# Coordination Sequence:
#
# PCOD9527173 Si02
#       6
#    16  16  16   8  16  16
#     4  10  20  37  57  95 128 170 231 276 338 403
#     4  11  25  41  58  89 140 192 247 295 342 404
#     4  11  24  38  60  94 134 188 244 292 348 405
#     4  12  26  40  65  91 137 193 252 308 334 396
#     4  10  24  46  74 109 138 169 227 292 359 431
#     4  11  24  39  68  93 139 181 232 293 356 416
#
# _framework density 23.836338999999999
#
# number of rings (size 3 to 8) (size 9 to 14) (size 15 to 20)
#    0.000    1.273    2.727    2.727    8.909    0.000 
#    0.000    1.818    0.000    0.000    0.000   61.091 
#    0.000    0.000    0.000    0.000    0.000    0.000 
#
# Total GULP energy -245328.077419 kJ/mol
# GULP energy per Si atom -5575.638123 kJ/mol
# Density = 2.378209 g / cm^3
# Si number density = 23.836339 Si / 1000 Ang^3
#
#
#
# Elastic Constant Matrix: (Units=GPa)
#
#
# Indices 1 2 3 4 5 6 
#
# 1 132.3175 34.5556 20.1810 0.0000 0.0000 0.0000
# 2 34.5556 115.2966 28.0054 0.0000 0.0000 0.0000
# 3 20.1810 28.0054 60.8588 0.0000 0.0000 0.0000
# 4 0.0000 0.0000 0.0000 14.7289 0.0000 0.0000
# 5 0.0000 0.0000 0.0000 0.0000 11.5753 0.0000
# 6 0.0000 0.0000 0.0000 0.0000 0.0000 43.9111
#
#
#
# Elastic Compliance Matrix: (Units=1/GPa)
#
#
# Indices 1 2 3 4 5 6 
#
# 1 0.008376 -0.002067 -0.001826 0.000000 0.000000 0.000000
# 2 -0.002067 0.010275 -0.004043 0.000000 0.000000 0.000000
# 3 -0.001826 -0.004043 0.018897 0.000000 0.000000 0.000000
# 4 0.000000 0.000000 0.000000 0.067894 0.000000 0.000000
# 5 0.000000 0.000000 0.000000 0.000000 0.086391 0.000000
# 6 0.000000 0.000000 0.000000 0.000000 0.000000 0.022773
#
#
# Mechanical properties :
#
#
# Convention : Reuss Voigt Hill
#
# Bulk Modulus (GPa) = 46.13349 52.66188 49.39769
# Shear Modulus (GPa) = 21.03464 29.09179 25.06322
#
# Velocity S-wave (km/s) = 2.97385 3.49733 3.24616
# Velocity P-wave (km/s) = 5.58462 6.20076 5.90074
#
# Compressibility (1/GPa) = 0.02167623
#
# Stress axis : x y z
#
# Youngs Moduli (GPa) = 119.39046 97.32668 52.91710
#
# Poissons Ratio (x) = 0.20114 0.09665
# Poissons Ratio (y) = 0.24674 0.21393
# Poissons Ratio (z) = 0.21806 0.39347
#
# Static dielectric constant tensor:
#      x y z
#    x 2.056730 0.000000 0.000000 
#    y 0.000000 2.037590 0.000000 
#    z 0.000000 0.000000 1.889190 
# 
# From -- ./inp_files/50305.got.cif
#   From: 2010.05.17/outbox.cif.g08.bks.cpg/sg72_26_cif.got.tgz:50305.got - 2010.06.03 17:03:01.
