data_PCOD9527696
_publ_section_title
;
Structure prediction by ZEFSAII (Michael W. Deem and Ramdas Pophale) SiO2 
 PCOD9527696
Probable space group: I B A M
;
_chemical_formula_sum "Si O2"
_cell_formula_units_Z 88
_cell_length_a 21.481974
_cell_length_b 22.713809
_cell_length_c 9.391074
_cell_angle_alpha 90.000000
_cell_angle_beta 90.000000
_cell_angle_gamma 90.000000
_cell_volume 4582.256741
_symmetry_space_group_name_H-M "I B A M"
_symmetry_group_IT_number 72
_symmetry_cell_setting 'orthorhombic'
loop_
_space_group_symop_operation_xyz
x,y,z
-x,-y,z
x,-y,1/2-z
-x,y,1/2-z
-x,-y,-z
x,y,-z
-x,y,1/2+z
x,-y,1/2+z
1/2+x,1/2+y,1/2+z
1/2-x,1/2-y,1/2+z
1/2+x,1/2-y,-z
1/2-x,1/2+y,-z
1/2-x,1/2-y,1/2-z
1/2+x,1/2+y,1/2-z
1/2-x,1/2+y,z
1/2+x,1/2-y,z
loop_
_atom_site_type_symbol
_atom_site_label
_atom_site_fract_x
_atom_site_fract_y
_atom_site_fract_z
Si Si1 0.200261 0.617752 0.834586
Si Si2 0.324158 0.646351 0.332015
Si Si3 0.118931 0.266030 0.338693
Si Si4 0.910096 0.556552 0.838071
Si Si5 0.000000 0.342410 0.250000
Si Si6 0.941528 0.061399 0.167271
O O1 0.266177 0.622536 0.757417
O O2 0.170381 0.682996 0.834029
O O3 0.151151 0.579077 0.745406
O O4 0.204437 0.598648 0.000000
O O5 0.305474 0.653301 0.500000
O O6 0.351595 0.707836 0.269604
O O7 0.380571 0.600716 0.324892
O O8 0.107629 0.246397 0.500000
O O9 0.054851 0.298194 0.297206
O O10 0.932407 0.500000 0.750000
O O11 0.960257 0.609898 0.841246
O O12 0.895963 0.539817 0.000000
O O13 0.000000 0.089885 0.250000
O O14 0.931354 0.000000 0.250000
O O15 0.955749 0.052625 0.000000
#
# Coordination Sequence:
#
# PCOD9527696 Si02
#       6
#    16  16  16  16   8  16
#     4  10  21  38  59  84 116 153 194 242 291 346
#     4  10  21  37  59  85 115 151 192 239 292 347
#     4   9  19  36  56  82 117 153 193 239 289 346
#     4  11  23  39  61  88 120 159 201 246 297 353
#     4  10  21  36  60  88 121 158 198 244 296 350
#     4  10  21  37  58  81 110 145 181 229 282 338
#
# _framework density 19.204512000000001
#
# number of rings (size 3 to 8) (size 9 to 14) (size 15 to 20)
#    0.000    2.000    0.000    3.545    1.273    5.091 
#    0.000    6.364    0.000    0.000    0.000    0.000 
#    0.000    0.000    0.000    0.000    0.000    0.000 
#
# Total GULP energy -245080.673033 kJ/mol
# GULP energy per Si atom -5570.015296 kJ/mol
# Density = 1.916080 g / cm^3
# Si number density = 19.204512 Si / 1000 Ang^3
#
#
#
# Elastic Constant Matrix: (Units=GPa)
#
#
# Indices 1 2 3 4 5 6 
#
# 1 141.5121 34.8479 67.6253 0.0000 0.0000 0.0000
# 2 34.8479 55.1638 38.2986 0.0000 0.0000 0.0000
# 3 67.6253 38.2986 143.0237 0.0000 0.0000 0.0000
# 4 0.0000 0.0000 0.0000 18.9729 0.0000 0.0000
# 5 0.0000 0.0000 0.0000 0.0000 -143.8711 0.0000
# 6 0.0000 0.0000 0.0000 0.0000 0.0000 14.4103
#
#
#
# Elastic Compliance Matrix: (Units=1/GPa)
#
#
# Indices 1 2 3 4 5 6 
#
# 1 0.009681 -0.003608 -0.003611 0.000000 0.000000 0.000000
# 2 -0.003608 0.023613 -0.004617 0.000000 0.000000 0.000000
# 3 -0.003611 -0.004617 0.009936 0.000000 0.000000 0.000000
# 4 0.000000 0.000000 0.000000 0.052707 0.000000 0.000000
# 5 0.000000 0.000000 0.000000 0.000000 -0.006951 0.000000
# 6 0.000000 0.000000 0.000000 0.000000 0.000000 0.069395
#
#
# Mechanical properties :
#
#
# Convention : Reuss Voigt Hill
#
# Bulk Modulus (GPa) = 51.13425 69.02701 60.08063
# Shear Modulus (GPa) = 26.51518 -8.83572 8.83973
#
# Velocity S-wave (km/s) = 3.71977 -2.14729 2.14777
# Velocity P-wave (km/s) = 6.71810 5.46565 6.12398
#
# Compressibility (1/GPa) = 0.01955636
#
# Stress axis : x y z
#
# Youngs Moduli (GPa) = 103.29761 42.35019 100.64900
#
# Poissons Ratio (x) = 0.15282 0.36345
# Poissons Ratio (y) = 0.37275 0.46467
# Poissons Ratio (z) = 0.37301 0.19552
#
# Static dielectric constant tensor:
#      x y z
#    x 1.673790 0.000000 0.000000 
#    y 0.000000 1.683560 0.000000 
#    z 0.000000 0.000000 1.684780 
# 
# From -- ./inp_files/5772.got.cif
#   From: 2010.05.17/outbox.cif.g08.bks.cpg/sg72_3_cif.got.tgz:5772.got - 2010.06.03 17:03:01.
