data_PCOD9527576
_publ_section_title
;
Structure prediction by ZEFSAII (Michael W. Deem and Ramdas Pophale) SiO2 
 PCOD9527576
Probable space group: I B A M
;
_chemical_formula_sum "Si O2"
_cell_formula_units_Z 52
_cell_length_a 7.788238
_cell_length_b 21.355460
_cell_length_c 16.257080
_cell_angle_alpha 90.000000
_cell_angle_beta 90.000000
_cell_angle_gamma 90.000000
_cell_volume 2703.900388
_symmetry_space_group_name_H-M "I B A M"
_symmetry_group_IT_number 72
_symmetry_cell_setting 'orthorhombic'
loop_
_space_group_symop_operation_xyz
x,y,z
-x,-y,z
x,-y,1/2-z
-x,y,1/2-z
-x,-y,-z
x,y,-z
-x,y,1/2+z
x,-y,1/2+z
1/2+x,1/2+y,1/2+z
1/2-x,1/2-y,1/2+z
1/2+x,1/2-y,-z
1/2-x,1/2+y,-z
1/2-x,1/2-y,1/2-z
1/2+x,1/2+y,1/2-z
1/2-x,1/2+y,z
1/2+x,1/2-y,z
loop_
_atom_site_type_symbol
_atom_site_label
_atom_site_fract_x
_atom_site_fract_y
_atom_site_fract_z
Si Si1 0.500000 0.000000 0.750000
Si Si2 0.155617 0.682663 0.654734
Si Si3 0.036585 0.814107 0.405053
Si Si4 0.671296 0.884979 0.831310
O O1 0.380598 0.045489 0.804395
O O2 0.099124 0.754817 0.648830
O O3 0.335868 0.675077 0.609452
O O4 0.181722 0.655446 0.746495
O O5 0.992289 0.644055 0.620943
O O6 0.068339 0.798237 0.500000
O O7 0.153674 0.872639 0.378801
#
# Coordination Sequence:
#
# PCOD9527576 Si02
#       4
#     4  16  16  16
#     4   8  20  44  64  84 100 158 216 248 266 332
#     4  10  21  34  56  87 118 152 192 237 287 353
#     4  12  22  33  55  91 127 152 179 234 305 361
#     4  10  22  39  63  81 115 154 204 245 284 330
#
# _framework density 19.231477999999999
#
# number of rings (size 3 to 8) (size 9 to 14) (size 15 to 20)
#    0.000    1.846    3.077    2.769    4.308    1.231 
#    0.000   13.077    0.000   11.077    0.000    0.000 
#    0.000    0.000    0.000    0.000    0.000    0.000 
#
# Total GULP energy -145060.152074 kJ/mol
# GULP energy per Si atom -5579.236618 kJ/mol
# Density = 1.918771 g / cm^3
# Si number density = 19.231478 Si / 1000 Ang^3
#
#
#
# Elastic Constant Matrix: (Units=GPa)
#
#
# Indices 1 2 3 4 5 6 
#
# 1 121.9561 41.2779 9.1185 0.0000 0.0000 0.0000
# 2 41.2779 119.8520 22.1871 0.0000 0.0000 0.0000
# 3 9.1185 22.1871 50.0995 0.0000 0.0000 0.0001
# 4 0.0000 0.0000 0.0000 0.2599 0.0000 0.0001
# 5 0.0000 0.0000 0.0000 0.0000 12.5936 0.0000
# 6 0.0000 0.0000 0.0001 0.0001 0.0000 35.7619
#
#
#
# Elastic Compliance Matrix: (Units=1/GPa)
#
#
# Indices 1 2 3 4 5 6 
#
# 1 0.009286 -0.003143 -0.000298 0.000000 0.000000 0.000000
# 2 -0.003143 0.010152 -0.003924 0.000000 0.000000 0.000000
# 3 -0.000298 -0.003924 0.021752 -0.000002 0.000000 0.000000
# 4 0.000000 0.000000 -0.000002 3.846977 0.000002 -0.000006
# 5 0.000000 0.000000 0.000000 0.000002 0.079405 0.000000
# 6 0.000000 0.000000 0.000000 -0.000006 0.000000 0.027963
#
#
# Mechanical properties :
#
#
# Convention : Reuss Voigt Hill
#
# Bulk Modulus (GPa) = 37.79263 48.56385 43.17824
# Shear Modulus (GPa) = 1.24406 24.34471 12.79439
#
# Velocity S-wave (km/s) = 0.80517 3.56178 2.58211
# Velocity P-wave (km/s) = 4.53415 6.49785 5.60270
#
# Compressibility (1/GPa) = 0.02646018
#
# Stress axis : x y z
#
# Youngs Moduli (GPa) = 107.69230 98.49809 45.97199
#
# Poissons Ratio (x) = 0.30957 0.01371
# Poissons Ratio (y) = 0.33846 0.18040
# Poissons Ratio (z) = 0.03212 0.38652
#
# Static dielectric constant tensor:
#      x y z
#    x 1.705250 0.000000 0.000000 
#    y 0.000000 1.658720 0.000000 
#    z 0.000000 0.000000 1.699540 
# 
# From -- ./inp_files/18292.got.cif
#   From: 2010.05.17/outbox.cif.g08.bks.cpg/sg72_10_cif.got.tgz:18292.got - 2010.06.03 17:03:01.
