data_PCOD9527138
_publ_section_title
;
Structure prediction by ZEFSAII (Michael W. Deem and Ramdas Pophale) SiO2 
 PCOD9527138
Probable space group: I B A M
;
_chemical_formula_sum "Si O2"
_cell_formula_units_Z 88
_cell_length_a 12.251265
_cell_length_b 24.228334
_cell_length_c 14.375878
_cell_angle_alpha 90.000000
_cell_angle_beta 90.000000
_cell_angle_gamma 90.000000
_cell_volume 4267.159382
_symmetry_space_group_name_H-M "I B A M"
_symmetry_group_IT_number 72
_symmetry_cell_setting 'orthorhombic'
loop_
_space_group_symop_operation_xyz
x,y,z
-x,-y,z
x,-y,1/2-z
-x,y,1/2-z
-x,-y,-z
x,y,-z
-x,y,1/2+z
x,-y,1/2+z
1/2+x,1/2+y,1/2+z
1/2-x,1/2-y,1/2+z
1/2+x,1/2-y,-z
1/2-x,1/2+y,-z
1/2-x,1/2-y,1/2-z
1/2+x,1/2+y,1/2-z
1/2-x,1/2+y,z
1/2+x,1/2-y,z
loop_
_atom_site_type_symbol
_atom_site_label
_atom_site_fract_x
_atom_site_fract_y
_atom_site_fract_z
Si Si1 0.618517 0.473397 0.108896
Si Si2 0.372696 0.878110 0.745046
Si Si3 0.206520 0.500000 0.250000
Si Si4 0.795952 0.831537 0.611877
Si Si5 0.250577 0.704464 0.889034
Si Si6 0.459130 0.355440 0.613011
O O1 0.500000 0.500000 0.120147
O O2 0.710811 0.505647 0.163431
O O3 0.602197 0.410973 0.144251
O O4 0.645119 0.472297 0.000000
O O5 0.500000 0.864530 0.750000
O O6 0.302031 0.861618 0.835590
O O7 0.319232 0.841555 0.663499
O O8 0.359087 0.943955 0.733023
O O9 0.788489 0.838852 0.500000
O O10 0.785816 0.766346 0.632773
O O11 0.916220 0.850980 0.644519
O O12 0.378174 0.694665 0.864494
O O13 0.240106 0.696639 0.000000
O O14 0.465778 0.358869 0.500000
#
# Coordination Sequence:
#
# PCOD9527138 Si02
#       6
#    16  16   8  16  16  16
#     4  10  20  36  62  93 124 158 205 264 322 377
#     4  12  27  43  62  92 128 173 220 259 308 380
#     4  12  24  42  62  86 126 173 215 260 312 366
#     4  10  23  42  68  99 130 163 206 266 322 379
#     4  10  22  43  68  94 127 168 209 260 322 381
#     4   9  18  37  64  95 124 155 203 260 320 378
#
# _framework density 20.622617999999999
#
# number of rings (size 3 to 8) (size 9 to 14) (size 15 to 20)
#    0.000    1.636    1.818    2.182    2.545    3.636 
#    0.000    0.000    0.000    3.273    0.000    0.000 
#    0.000    0.000    0.000    0.000    0.000    0.000 
#
# Total GULP energy -245966.746107 kJ/mol
# GULP energy per Si atom -5590.153321 kJ/mol
# Density = 2.057568 g / cm^3
# Si number density = 20.622618 Si / 1000 Ang^3
#
#
#
# Elastic Constant Matrix: (Units=GPa)
#
#
# Indices 1 2 3 4 5 6 
#
# 1 132.6655 20.1824 31.2919 0.0000 0.0000 0.0000
# 2 20.1824 68.6210 12.1355 0.0000 0.0000 0.0000
# 3 31.2919 12.1355 43.1523 0.0001 0.0000 0.0000
# 4 0.0000 0.0000 0.0001 24.4516 0.0000 0.0000
# 5 0.0000 0.0000 0.0000 0.0000 -1.8065 0.0000
# 6 0.0000 0.0000 0.0000 0.0000 0.0000 47.8121
#
#
#
# Elastic Compliance Matrix: (Units=1/GPa)
#
#
# Indices 1 2 3 4 5 6 
#
# 1 0.009260 -0.001616 -0.006261 0.000000 0.000000 0.000000
# 2 -0.001616 0.015618 -0.003220 0.000000 0.000000 0.000000
# 3 -0.006261 -0.003220 0.028619 0.000000 0.000000 0.000000
# 4 0.000000 0.000000 0.000000 0.040897 0.000000 0.000000
# 5 0.000000 0.000000 0.000000 0.000000 -0.553546 0.000000
# 6 0.000000 0.000000 0.000000 0.000000 0.000000 0.020915
#
#
# Mechanical properties :
#
#
# Convention : Reuss Voigt Hill
#
# Bulk Modulus (GPa) = 31.94556 41.29540 36.62048
# Shear Modulus (GPa) = -12.32716 26.14669 6.90976
#
# Velocity S-wave (km/s) = -2.44754 3.56457 1.83244
# Velocity P-wave (km/s) = 2.74534 6.08353 4.71944
#
# Compressibility (1/GPa) = 0.03130325
#
# Stress axis : x y z
#
# Youngs Moduli (GPa) = 107.98734 64.03010 34.94172
#
# Poissons Ratio (x) = 0.10350 0.21875
# Poissons Ratio (y) = 0.17455 0.11251
# Poissons Ratio (z) = 0.67606 0.20617
#
# Static dielectric constant tensor:
#      x y z
#    x 1.699040 0.000000 0.000000 
#    y 0.000000 1.757600 0.000000 
#    z 0.000000 0.000000 1.768180 
# 
# From -- ./inp_files/20313.got.cif
#   From: 2010.05.17/outbox.cif.g08.bks.cpg/sg72_11_cif.got.tgz:20313.got - 2010.06.03 17:03:01.
