data_PCOD9527110
_publ_section_title
;
Structure prediction by ZEFSAII (Michael W. Deem and Ramdas Pophale) SiO2 
 PCOD9527110
Probable space group: I B A M
;
_chemical_formula_sum "Si O2"
_cell_formula_units_Z 112
_cell_length_a 23.113741
_cell_length_b 16.089759
_cell_length_c 13.494624
_cell_angle_alpha 90.000000
_cell_angle_beta 90.000000
_cell_angle_gamma 90.000000
_cell_volume 5018.576746
_symmetry_space_group_name_H-M "I B A M"
_symmetry_group_IT_number 72
_symmetry_cell_setting 'orthorhombic'
loop_
_space_group_symop_operation_xyz
x,y,z
-x,-y,z
x,-y,1/2-z
-x,y,1/2-z
-x,-y,-z
x,y,-z
-x,y,1/2+z
x,-y,1/2+z
1/2+x,1/2+y,1/2+z
1/2-x,1/2-y,1/2+z
1/2+x,1/2-y,-z
1/2-x,1/2+y,-z
1/2-x,1/2-y,1/2-z
1/2+x,1/2+y,1/2-z
1/2-x,1/2+y,z
1/2+x,1/2-y,z
loop_
_atom_site_type_symbol
_atom_site_label
_atom_site_fract_x
_atom_site_fract_y
_atom_site_fract_z
Si Si1 0.306297 0.901936 0.736348
Si Si2 0.479498 0.089819 0.613876
Si Si3 0.310196 0.363787 0.380522
Si Si4 0.366857 0.810592 0.117246
Si Si5 0.404564 0.198212 0.884643
Si Si6 0.922717 0.049090 0.620015
Si Si7 0.535932 0.366534 0.620955
O O1 0.246845 0.879243 0.682641
O O2 0.313820 0.867196 0.847168
O O3 0.355429 0.851898 0.674217
O O4 0.315756 0.000000 0.750000
O O5 0.462173 0.072953 0.500000
O O6 0.425698 0.143708 0.655274
O O7 0.536057 0.146240 0.616300
O O8 0.500000 0.000000 0.651942
O O9 0.298249 0.361635 0.500000
O O10 0.345516 0.280535 0.352499
O O11 0.356662 0.434479 0.357743
O O12 0.373991 0.804926 0.000000
O O13 0.425226 0.288884 0.846811
O O14 0.385797 0.205630 0.000000
O O15 0.927668 0.049054 0.500000
O O16 0.968269 0.121718 0.650225
O O17 0.939526 0.956358 0.650823
O O18 0.536255 0.359882 0.500000
#
# Coordination Sequence:
#
# PCOD9527110 Si02
#       7
#    16  16  16  16  16  16  16
#     4  12  26  42  60  88 125 170 221 272 322 380
#     4   9  17  32  59  92 123 159 203 253 312 378
#     4  10  21  41  65  90 123 167 215 261 316 381
#     4  10  22  42  66  89 119 164 216 269 322 376
#     4  10  20  36  60  93 133 167 204 256 319 389
#     4   8  14  29  58  95 130 161 203 251 306 379
#     4   8  14  28  56  96 132 163 199 248 311 379
#
# _framework density 22.317084999999999
#
# number of rings (size 3 to 8) (size 9 to 14) (size 15 to 20)
#    0.000    2.429    0.000    3.429    0.000    6.286 
#    5.143    1.429    0.000    0.000    0.000    0.000 
#    0.000    0.000    0.000    1.571    0.000    0.143 
#
# Total GULP energy -312467.884716 kJ/mol
# GULP energy per Si atom -5579.783656 kJ/mol
# Density = 2.226629 g / cm^3
# Si number density = 22.317085 Si / 1000 Ang^3
#
#
#
# Elastic Constant Matrix: (Units=GPa)
#
#
# Indices 1 2 3 4 5 6 
#
# 1 160.0554 70.3063 21.5222 0.0000 0.0000 0.0000
# 2 70.3063 146.8349 22.3877 0.0000 0.0000 0.0000
# 3 21.5222 22.3877 38.3298 0.0000 0.0000 0.0000
# 4 0.0000 0.0000 0.0000 24.2479 0.0000 0.0000
# 5 0.0000 0.0000 0.0000 0.0000 16.2512 0.0000
# 6 0.0000 0.0000 0.0000 0.0000 0.0000 29.2029
#
#
#
# Elastic Compliance Matrix: (Units=1/GPa)
#
#
# Indices 1 2 3 4 5 6 
#
# 1 0.008127 -0.003508 -0.002514 0.000000 0.000000 0.000000
# 2 -0.003508 0.008990 -0.003281 0.000000 0.000000 0.000000
# 3 -0.002514 -0.003281 0.029418 0.000000 0.000000 0.000000
# 4 0.000000 0.000000 0.000000 0.041241 0.000000 0.000000
# 5 0.000000 0.000000 0.000000 0.000000 0.061534 0.000000
# 6 0.000000 0.000000 0.000000 0.000000 0.000000 0.034243
#
#
# Mechanical properties :
#
#
# Convention : Reuss Voigt Hill
#
# Bulk Modulus (GPa) = 35.80677 63.73915 49.77296
# Shear Modulus (GPa) = 23.64414 29.34066 26.49240
#
# Velocity S-wave (km/s) = 3.25847 3.62984 3.44916
# Velocity P-wave (km/s) = 5.49875 6.79635 6.18169
#
# Compressibility (1/GPa) = 0.02792768
#
# Stress axis : x y z
#
# Youngs Moduli (GPa) = 123.04969 111.23125 33.99311
#
# Poissons Ratio (x) = 0.39018 0.08547
# Poissons Ratio (y) = 0.43164 0.11154
# Poissons Ratio (z) = 0.30939 0.36499
#
# Static dielectric constant tensor:
#      x y z
#    x 1.760470 0.000000 0.000000 
#    y 0.000000 1.839490 0.000000 
#    z 0.000000 0.000000 1.955100 
# 
# From -- ./inp_files/25183.got.cif
#   From: 2010.05.17/outbox.cif.g08.bks.cpg/sg72_13_cif.got.tgz:25183.got - 2010.06.03 17:03:01.
