data_PCOD9527152
_publ_section_title
;
Structure prediction by ZEFSAII (Michael W. Deem and Ramdas Pophale) SiO2 
 PCOD9527152
Probable space group: I B A M
;
_chemical_formula_sum "Si O2"
_cell_formula_units_Z 92
_cell_length_a 20.319508
_cell_length_b 8.537419
_cell_length_c 26.340417
_cell_angle_alpha 90.000000
_cell_angle_beta 90.000000
_cell_angle_gamma 90.000000
_cell_volume 4569.434227
_symmetry_space_group_name_H-M "I B A M"
_symmetry_group_IT_number 72
_symmetry_cell_setting 'orthorhombic'
loop_
_space_group_symop_operation_xyz
x,y,z
-x,-y,z
x,-y,1/2-z
-x,y,1/2-z
-x,-y,-z
x,y,-z
-x,y,1/2+z
x,-y,1/2+z
1/2+x,1/2+y,1/2+z
1/2-x,1/2-y,1/2+z
1/2+x,1/2-y,-z
1/2-x,1/2+y,-z
1/2-x,1/2-y,1/2-z
1/2+x,1/2+y,1/2-z
1/2-x,1/2+y,z
1/2+x,1/2-y,z
loop_
_atom_site_type_symbol
_atom_site_label
_atom_site_fract_x
_atom_site_fract_y
_atom_site_fract_z
Si Si1 0.331001 0.500000 0.750000
Si Si2 0.500000 0.000000 0.250000
Si Si3 0.721623 0.982721 0.836947
Si Si4 0.397991 0.229693 0.801266
Si Si5 0.818426 0.785888 0.892313
Si Si6 0.075128 0.049974 0.397867
Si Si7 0.282621 0.290756 0.500000
Si Si8 0.649904 0.369080 0.500000
O O1 0.281928 0.499245 0.702189
O O2 0.376905 0.349200 0.756718
O O3 0.454507 0.112537 0.216148
O O4 0.666321 0.871722 0.814203
O O5 0.755546 0.899912 0.885000
O O6 0.690813 0.148072 0.852083
O O7 0.417231 0.332896 0.850327
O O8 0.882116 0.893824 0.886538
O O9 0.813047 0.719090 0.948852
O O10 0.106208 0.124748 0.448988
O O11 0.000000 0.000000 0.405541
O O12 0.307393 0.470128 0.500000
O O13 0.204502 0.265894 0.500000
#
# Coordination Sequence:
#
# PCOD9527152 Si02
#       8
#     8   4  16  16  16  16   8   8
#     4  12  25  43  72  97 131 176 222 296 340 397
#     4  12  34  46  64  98 138 190 222 276 332 418
#     4  12  23  41  66 103 133 170 224 294 343 399
#     4  12  28  45  68  98 135 180 230 282 340 402
#     4  11  22  40  67 103 136 173 224 277 350 394
#     4  11  25  44  68  96 138 190 227 274 330 428
#     4  10  20  36  66 100 135 164 213 282 338 393
#     4  10  21  42  70 105 133 173 224 280 350 395
#
# _framework density 20.133783000000001
#
# number of rings (size 3 to 8) (size 9 to 14) (size 15 to 20)
#    0.000    0.696    3.478    4.435    7.304    0.000 
#    0.000    0.000    0.000    0.522    0.000    0.000 
#    0.000    0.000    0.000    0.000    0.000    0.000 
#
# Total GULP energy -257305.165256 kJ/mol
# GULP energy per Si atom -5593.590549 kJ/mol
# Density = 2.008796 g / cm^3
# Si number density = 20.133783 Si / 1000 Ang^3
#
#
#
# Elastic Constant Matrix: (Units=GPa)
#
#
# Indices 1 2 3 4 5 6 
#
# 1 144.8061 70.6051 41.4971 0.0000 0.0000 0.0000
# 2 70.6051 113.0209 55.0051 0.0000 0.0000 0.0000
# 3 41.4971 55.0051 114.5171 0.0000 0.0000 0.0000
# 4 0.0000 0.0000 0.0000 9.5626 0.0000 0.0000
# 5 0.0000 0.0000 0.0000 0.0000 10.5327 0.0000
# 6 0.0000 0.0000 0.0000 0.0000 0.0000 33.7775
#
#
#
# Elastic Compliance Matrix: (Units=1/GPa)
#
#
# Indices 1 2 3 4 5 6 
#
# 1 0.009988 -0.005844 -0.000812 0.000000 0.000000 0.000000
# 2 -0.005844 0.014967 -0.005071 0.000000 0.000000 0.000000
# 3 -0.000812 -0.005071 0.011462 0.000000 0.000000 0.000000
# 4 0.000000 0.000000 0.000000 0.104574 0.000000 0.000000
# 5 0.000000 0.000000 0.000000 0.000000 0.094943 0.000000
# 6 0.000000 0.000000 0.000000 0.000000 0.000000 0.029605
#
#
# Mechanical properties :
#
#
# Convention : Reuss Voigt Hill
#
# Bulk Modulus (GPa) = 77.14807 78.50651 77.82729
# Shear Modulus (GPa) = 17.04645 24.45700 20.75173
#
# Velocity S-wave (km/s) = 2.91290 3.48907 3.21392
# Velocity P-wave (km/s) = 7.05083 7.43697 7.24647
#
# Compressibility (1/GPa) = 0.01296209
#
# Stress axis : x y z
#
# Youngs Moduli (GPa) = 100.11831 66.81346 87.24159
#
# Poissons Ratio (x) = 0.39049 0.07085
# Poissons Ratio (y) = 0.58514 0.44242
# Poissons Ratio (z) = 0.08131 0.33882
#
# Static dielectric constant tensor:
#      x y z
#    x 1.667430 0.000000 0.000000 
#    y 0.000000 1.724180 0.000000 
#    z 0.000000 0.000000 1.780090 
# 
# From -- ./inp_files/45332.got.cif
#   From: 2010.05.17/outbox.cif.g08.bks.cpg/sg72_23_cif.got.tgz:45332.got - 2010.06.03 17:03:01.
