data_PCOD9527479
_publ_section_title
;
Structure prediction by ZEFSAII (Michael W. Deem and Ramdas Pophale) SiO2 
 PCOD9527479
Probable space group: I B A M
;
_chemical_formula_sum "Si O2"
_cell_formula_units_Z 92
_cell_length_a 22.695154
_cell_length_b 7.931939
_cell_length_c 20.619960
_cell_angle_alpha 90.000000
_cell_angle_beta 90.000000
_cell_angle_gamma 90.000000
_cell_volume 3711.934620
_symmetry_space_group_name_H-M "I B A M"
_symmetry_group_IT_number 72
_symmetry_cell_setting 'orthorhombic'
loop_
_space_group_symop_operation_xyz
x,y,z
-x,-y,z
x,-y,1/2-z
-x,y,1/2-z
-x,-y,-z
x,y,-z
-x,y,1/2+z
x,-y,1/2+z
1/2+x,1/2+y,1/2+z
1/2-x,1/2-y,1/2+z
1/2+x,1/2-y,-z
1/2-x,1/2+y,-z
1/2-x,1/2-y,1/2-z
1/2+x,1/2+y,1/2-z
1/2-x,1/2+y,z
1/2+x,1/2-y,z
loop_
_atom_site_type_symbol
_atom_site_label
_atom_site_fract_x
_atom_site_fract_y
_atom_site_fract_z
Si Si1 0.000000 0.000000 0.750000
Si Si2 0.552525 0.113635 0.857665
Si Si3 0.419002 0.496541 0.643081
Si Si4 0.166798 0.660284 0.000000
Si Si5 0.704553 0.388571 0.686142
Si Si6 0.572301 0.135688 0.000000
Si Si7 0.317800 0.957469 0.640831
Si Si8 0.903391 0.991957 0.500000
O O1 0.955679 0.907504 0.698778
O O2 0.568151 0.303471 0.836807
O O3 0.536969 0.141979 0.933736
O O4 0.500000 0.000000 0.829174
O O5 0.615129 0.018077 0.855587
O O6 0.350172 0.536994 0.645705
O O7 0.436038 0.534948 0.568852
O O8 0.195635 0.616287 0.931084
O O9 0.110304 0.534317 0.000000
O O10 0.147861 0.854181 0.000000
O O11 0.703562 0.500000 0.750000
O O12 0.690556 0.192109 0.692549
O O13 0.768542 0.404411 0.654353
O O14 0.611944 0.307638 0.000000
#
# Coordination Sequence:
#
# PCOD9527479 Si02
#       8
#     4  16  16   8  16   8  16   8
#     4  12  28  46  70 112 148 194 252 308 376 442
#     4  10  22  41  69 103 145 187 241 309 377 442
#     4  11  25  45  74 104 147 191 247 309 369 451
#     4  10  20  40  72 108 146 181 242 310 372 439
#     4  12  25  47  71  97 144 191 248 301 370 454
#     4   8  19  36  65 102 146 185 239 296 370 449
#     4  11  25  43  70 107 138 191 243 303 372 453
#     4  10  20  43  71 107 138 197 236 302 377 445
#
# _framework density 24.78492
#
# number of rings (size 3 to 8) (size 9 to 14) (size 15 to 20)
#    0.000    1.391    2.609    1.826    2.435    1.739 
#    0.000    5.652    0.000    0.000    0.000    0.000 
#    0.000    0.000    0.000    0.000    0.000    0.000 
#
# Total GULP energy -256930.768822 kJ/mol
# GULP energy per Si atom -5585.451496 kJ/mol
# Density = 2.472851 g / cm^3
# Si number density = 24.784920 Si / 1000 Ang^3
#
#
#
# Elastic Constant Matrix: (Units=GPa)
#
#
# Indices 1 2 3 4 5 6 
#
# 1 152.5849 35.9708 28.8951 0.0000 0.0000 0.0000
# 2 35.9708 102.2310 -2.7324 0.0000 0.0000 0.0000
# 3 28.8951 -2.7324 143.3903 0.0000 0.0000 0.0000
# 4 0.0000 0.0000 0.0000 24.4000 0.0000 0.0000
# 5 0.0000 0.0000 0.0000 0.0000 1.1936 0.0000
# 6 0.0000 0.0000 0.0000 0.0000 0.0000 36.8009
#
#
#
# Elastic Compliance Matrix: (Units=1/GPa)
#
#
# Indices 1 2 3 4 5 6 
#
# 1 0.007479 -0.002673 -0.001558 0.000000 0.000000 0.000000
# 2 -0.002673 0.010742 0.000743 0.000000 0.000000 0.000000
# 3 -0.001558 0.000743 0.007302 0.000000 0.000000 0.000000
# 4 0.000000 0.000000 0.000000 0.040984 0.000000 0.000000
# 5 0.000000 0.000000 0.000000 0.000000 0.837813 0.000000
# 6 0.000000 0.000000 0.000000 0.000000 0.000000 0.027173
#
#
# Mechanical properties :
#
#
# Convention : Reuss Voigt Hill
#
# Bulk Modulus (GPa) = 53.91535 58.05258 55.98396
# Shear Modulus (GPa) = 5.29296 34.88374 20.08835
#
# Velocity S-wave (km/s) = 1.46294 3.75568 2.85003
# Velocity P-wave (km/s) = 4.96529 6.50233 5.78508
#
# Compressibility (1/GPa) = 0.01854759
#
# Stress axis : x y z
#
# Youngs Moduli (GPa) = 133.70848 93.09067 136.94677
#
# Poissons Ratio (x) = 0.24885 0.21337
# Poissons Ratio (y) = 0.35743 -0.10180
# Poissons Ratio (z) = 0.20832 -0.06920
#
# Static dielectric constant tensor:
#      x y z
#    x 1.946550 0.000000 0.000000 
#    y 0.000000 2.017450 0.000000 
#    z 0.000000 0.000000 2.029620 
# 
# From -- ./inp_files/40226.got.cif
#   From: 2010.05.17/outbox.cif.g08.bks.cpg/sg72_21_cif.got.tgz:40226.got - 2010.06.03 17:03:01.
