data_PCOD9527893
_publ_section_title
;
Structure prediction by ZEFSAII (Michael W. Deem and Ramdas Pophale) SiO2 
 PCOD9527893
Probable space group: I B A M
;
_chemical_formula_sum "Si O2"
_cell_formula_units_Z 96
_cell_length_a 17.969240
_cell_length_b 11.338105
_cell_length_c 23.975336
_cell_angle_alpha 90.000000
_cell_angle_beta 90.000000
_cell_angle_gamma 90.000000
_cell_volume 4884.666145
_symmetry_space_group_name_H-M "I B A M"
_symmetry_group_IT_number 72
_symmetry_cell_setting 'orthorhombic'
loop_
_space_group_symop_operation_xyz
x,y,z
-x,-y,z
x,-y,1/2-z
-x,y,1/2-z
-x,-y,-z
x,y,-z
-x,y,1/2+z
x,-y,1/2+z
1/2+x,1/2+y,1/2+z
1/2-x,1/2-y,1/2+z
1/2+x,1/2-y,-z
1/2-x,1/2+y,-z
1/2-x,1/2-y,1/2-z
1/2+x,1/2+y,1/2-z
1/2-x,1/2+y,z
1/2+x,1/2-y,z
loop_
_atom_site_type_symbol
_atom_site_label
_atom_site_fract_x
_atom_site_fract_y
_atom_site_fract_z
Si Si1 0.069254 0.574701 0.342755
Si Si2 0.452281 0.253360 0.437241
Si Si3 0.689930 0.593767 0.435165
Si Si4 0.400292 0.634638 0.564979
Si Si5 0.193943 0.635981 0.250874
Si Si6 0.157510 0.365576 0.625322
O O1 0.036032 0.671994 0.383974
O O2 0.130616 0.627573 0.299557
O O3 0.112525 0.485388 0.384167
O O4 0.000000 0.500000 0.317503
O O5 0.465410 0.202867 0.500000
O O6 0.368349 0.299537 0.434900
O O7 0.510395 0.361406 0.432187
O O8 0.714001 0.577495 0.500000
O O9 0.643384 0.480024 0.415349
O O10 0.758869 0.616299 0.395585
O O11 0.381011 0.645927 0.500000
O O12 0.373189 0.750985 0.595699
O O13 0.227635 0.500000 0.250000
O O14 0.250000 0.750000 0.250000
O O15 0.153715 0.648494 0.191674
#
# Coordination Sequence:
#
# PCOD9527893 Si02
#       6
#    16  16  16  16  16  16
#     4  11  23  43  63  93 126 168 211 267 326 393
#     4  10  21  39  63  90 126 168 212 260 318 388
#     4  10  22  37  61  91 127 169 209 262 324 381
#     4  10  21  38  59  89 127 165 209 259 318 384
#     4  10  24  42  66  93 128 170 219 277 328 387
#     4  11  23  38  61  89 123 160 215 258 321 379
#
# _framework density 19.653338000000002
#
# number of rings (size 3 to 8) (size 9 to 14) (size 15 to 20)
#    0.000    1.667    1.667    2.000    7.000    6.667 
#    0.000    0.000    0.000    0.000    0.000    7.000 
#    0.000    0.000    0.000    0.000    0.000    0.000 
#
# Total GULP energy -267443.888463 kJ/mol
# GULP energy per Si atom -5571.747676 kJ/mol
# Density = 1.960861 g / cm^3
# Si number density = 19.653338 Si / 1000 Ang^3
#
#
#
# Elastic Constant Matrix: (Units=GPa)
#
#
# Indices 1 2 3 4 5 6 
#
# 1 91.9160 28.9226 38.7073 0.0000 0.0000 0.0000
# 2 28.9226 76.1263 29.9225 0.0000 0.0000 0.0000
# 3 38.7073 29.9225 59.6429 0.0000 0.0000 0.0000
# 4 0.0000 0.0000 0.0000 18.7181 0.0000 0.0000
# 5 0.0000 0.0000 0.0000 0.0000 24.7398 0.0000
# 6 0.0000 0.0000 0.0000 0.0000 0.0000 32.3066
#
#
#
# Elastic Compliance Matrix: (Units=1/GPa)
#
#
# Indices 1 2 3 4 5 6 
#
# 1 0.015310 -0.002381 -0.008741 0.000000 0.000000 0.000000
# 2 -0.002381 0.016733 -0.006850 0.000000 0.000000 0.000000
# 3 -0.008741 -0.006850 0.025876 0.000000 0.000000 0.000000
# 4 0.000000 0.000000 0.000000 0.053424 0.000000 0.000000
# 5 0.000000 0.000000 0.000000 0.000000 0.040421 0.000000
# 6 0.000000 0.000000 0.000000 0.000000 0.000000 0.030953
#
#
# Mechanical properties :
#
#
# Convention : Reuss Voigt Hill
#
# Bulk Modulus (GPa) = 45.50643 46.97665 46.24154
# Shear Modulus (GPa) = 22.12529 23.82843 22.97686
#
# Velocity S-wave (km/s) = 3.35890 3.48578 3.42293
# Velocity P-wave (km/s) = 6.18448 6.33683 6.26112
#
# Compressibility (1/GPa) = 0.02197492
#
# Stress axis : x y z
#
# Youngs Moduli (GPa) = 65.31777 59.76227 38.64587
#
# Poissons Ratio (x) = 0.14228 0.33782
# Poissons Ratio (y) = 0.15550 0.26472
# Poissons Ratio (z) = 0.57097 0.40936
#
# Static dielectric constant tensor:
#      x y z
#    x 1.721140 0.000000 0.000000 
#    y 0.000000 1.748210 0.000000 
#    z 0.000000 0.000000 1.682680 
# 
# From -- ./inp_files/43340.got.cif
#   From: 2010.05.17/outbox.cif.g08.bks.cpg/sg72_22_cif.got.tgz:43340.got - 2010.06.03 17:03:01.
