data_PCOD9527762
_publ_section_title
;
Structure prediction by ZEFSAII (Michael W. Deem and Ramdas Pophale) SiO2 
 PCOD9527762
Probable space group: I B A M
;
_chemical_formula_sum "Si O2"
_cell_formula_units_Z 92
_cell_length_a 28.311889
_cell_length_b 8.542559
_cell_length_c 16.871047
_cell_angle_alpha 90.000000
_cell_angle_beta 90.000000
_cell_angle_gamma 90.000000
_cell_volume 4080.363643
_symmetry_space_group_name_H-M "I B A M"
_symmetry_group_IT_number 72
_symmetry_cell_setting 'orthorhombic'
loop_
_space_group_symop_operation_xyz
x,y,z
-x,-y,z
x,-y,1/2-z
-x,y,1/2-z
-x,-y,-z
x,y,-z
-x,y,1/2+z
x,-y,1/2+z
1/2+x,1/2+y,1/2+z
1/2-x,1/2-y,1/2+z
1/2+x,1/2-y,-z
1/2-x,1/2+y,-z
1/2-x,1/2-y,1/2-z
1/2+x,1/2+y,1/2-z
1/2-x,1/2+y,z
1/2+x,1/2-y,z
loop_
_atom_site_type_symbol
_atom_site_label
_atom_site_fract_x
_atom_site_fract_y
_atom_site_fract_z
Si Si1 0.432814 0.751798 0.687478
Si Si2 0.500000 0.500000 0.250000
Si Si3 0.000000 0.500000 0.109762
Si Si4 0.410943 0.812240 0.870445
Si Si5 0.184225 0.514502 0.404423
Si Si6 0.863012 0.987443 0.653321
Si Si7 0.724032 0.318179 0.595782
O O1 0.467519 0.605432 0.696455
O O2 0.420897 0.802862 0.776494
O O3 0.390335 0.676890 0.638127
O O4 0.463150 0.887904 0.651438
O O5 0.958850 0.630380 0.085003
O O6 0.368215 0.934108 0.881798
O O7 0.389229 0.637336 0.885438
O O8 0.185040 0.509506 0.500000
O O9 0.222792 0.643248 0.377946
O O10 0.203308 0.347027 0.374963
O O11 0.810473 0.958111 0.622760
O O12 0.863645 0.000000 0.750000
O O13 0.723845 0.314287 0.500000
#
# Coordination Sequence:
#
# PCOD9527762 Si02
#       7
#    16   4   8  16  16  16  16
#     4  11  19  33  53  84 116 154 195 237 291 349
#     4  12  16  34  52  80 118 162 196 236 278 356
#     4  12  21  32  55  84 115 156 198 234 289 354
#     4  11  20  33  54  83 114 149 188 236 286 338
#     4  10  22  40  62  86 111 148 200 244 289 354
#     4  10  21  37  57  89 126 152 191 244 296 343
#     4  10  21  41  65  85 111 153 196 239 294 358
#
# _framework density 22.547008999999999
#
# number of rings (size 3 to 8) (size 9 to 14) (size 15 to 20)
#    0.000    1.391    4.348    3.130    0.000    3.478 
#    0.000   10.000    0.000    1.043    0.000    6.087 
#    0.000    0.000    0.000    0.000    0.000    0.000 
#
# Total GULP energy -256423.941359 kJ/mol
# GULP energy per Si atom -5574.433508 kJ/mol
# Density = 2.249569 g / cm^3
# Si number density = 22.547009 Si / 1000 Ang^3
#
#
#
# Elastic Constant Matrix: (Units=GPa)
#
#
# Indices 1 2 3 4 5 6 
#
# 1 167.5222 48.3903 16.3582 0.0000 0.0000 0.0000
# 2 48.3903 124.8266 18.6988 0.0000 0.0000 0.0000
# 3 16.3582 18.6988 15.7190 0.0000 0.0000 0.0000
# 4 0.0000 0.0000 0.0000 -133.7489 0.0000 0.0000
# 5 0.0000 0.0000 0.0000 0.0000 89.5263 0.0000
# 6 0.0000 0.0000 0.0000 0.0000 0.0000 47.2643
#
#
#
# Elastic Compliance Matrix: (Units=1/GPa)
#
#
# Indices 1 2 3 4 5 6 
#
# 1 0.007025 -0.001981 -0.004954 0.000000 0.000000 0.000000
# 2 -0.001981 0.010307 -0.010199 0.000000 0.000000 0.000000
# 3 -0.004954 -0.010199 0.080905 0.000000 0.000000 0.000000
# 4 0.000000 0.000000 0.000000 -0.007477 0.000000 0.000000
# 5 0.000000 0.000000 0.000000 0.000000 0.011170 0.000000
# 6 0.000000 0.000000 0.000000 0.000000 0.000000 0.021158
#
#
# Mechanical properties :
#
#
# Convention : Reuss Voigt Hill
#
# Bulk Modulus (GPa) = 15.63261 52.77361 34.20311
# Shear Modulus (GPa) = 27.98288 15.58304 21.78296
#
# Velocity S-wave (km/s) = 3.52673 2.63180 3.11161
# Velocity P-wave (km/s) = 4.85100 5.71769 5.30208
#
# Compressibility (1/GPa) = 0.06396885
#
# Stress axis : x y z
#
# Youngs Moduli (GPa) = 142.33948 97.02156 12.36011
#
# Poissons Ratio (x) = 0.19223 0.06123
# Poissons Ratio (y) = 0.28202 0.12606
# Poissons Ratio (z) = 0.70518 0.98952
#
# Static dielectric constant tensor:
#      x y z
#    x 1.892170 0.000000 0.000000 
#    y 0.000000 1.879670 0.000000 
#    z 0.000000 0.000000 1.814780 
# 
# From -- ./inp_files/36100.got.cif
#   From: 2010.05.17/outbox.cif.g08.bks.cpg/sg72_19_cif.got.tgz:36100.got - 2010.06.03 17:03:01.
