data_PCOD9527608
_publ_section_title
;
Structure prediction by ZEFSAII (Michael W. Deem and Ramdas Pophale) SiO2 
 PCOD9527608
Probable space group: I B A M
;
_chemical_formula_sum "Si O2"
_cell_formula_units_Z 56
_cell_length_a 5.151228
_cell_length_b 32.660204
_cell_length_c 14.577329
_cell_angle_alpha 90.000000
_cell_angle_beta 90.000000
_cell_angle_gamma 90.000000
_cell_volume 2452.492124
_symmetry_space_group_name_H-M "I B A M"
_symmetry_group_IT_number 72
_symmetry_cell_setting 'orthorhombic'
loop_
_space_group_symop_operation_xyz
x,y,z
-x,-y,z
x,-y,1/2-z
-x,y,1/2-z
-x,-y,-z
x,y,-z
-x,y,1/2+z
x,-y,1/2+z
1/2+x,1/2+y,1/2+z
1/2-x,1/2-y,1/2+z
1/2+x,1/2-y,-z
1/2-x,1/2+y,-z
1/2-x,1/2-y,1/2-z
1/2+x,1/2+y,1/2-z
1/2-x,1/2+y,z
1/2+x,1/2-y,z
loop_
_atom_site_type_symbol
_atom_site_label
_atom_site_fract_x
_atom_site_fract_y
_atom_site_fract_z
Si Si1 0.039186 0.155430 0.639167
Si Si2 0.040598 0.614500 0.146304
Si Si3 0.742118 0.473162 0.892026
Si Si4 0.705867 0.723148 0.000000
O O1 0.246707 0.119483 0.611745
O O2 0.149284 0.195242 0.589374
O O3 0.000000 0.159257 0.750000
O O4 0.754391 0.143854 0.602892
O O5 0.177490 0.570332 0.149481
O O6 0.000000 0.628275 0.250000
O O7 0.500000 0.500000 0.856704
O O8 0.000000 0.500000 0.883511
O O9 0.691674 0.465351 0.000000
O O10 0.494577 0.759307 0.000000
#
# Coordination Sequence:
#
# PCOD9527608 Si02
#       4
#    16  16  16   8
#     4  10  23  41  63  92 124 161 206 255 305 369
#     4  10  21  39  61  87 120 165 211 251 303 362
#     4  10  21  35  54  86 122 159 203 254 306 351
#     4  12  26  42  66  98 122 158 204 244 320 390
#
# _framework density 22.833915999999999
#
# number of rings (size 3 to 8) (size 9 to 14) (size 15 to 20)
#    0.000    1.714    0.000    3.429    4.000    1.714 
#    0.000    1.429    0.000    0.000    0.000    0.000 
#    0.000    0.000    0.000    0.000    0.000    0.000 
#
# Total GULP energy -156211.410021 kJ/mol
# GULP energy per Si atom -5578.978929 kJ/mol
# Density = 2.278195 g / cm^3
# Si number density = 22.833916 Si / 1000 Ang^3
#
#
#
# Elastic Constant Matrix: (Units=GPa)
#
#
# Indices 1 2 3 4 5 6 
#
# 1 132.2184 31.8562 40.8296 0.0000 0.0000 0.0000
# 2 31.8562 62.3918 -2.0257 0.0000 0.0000 0.0000
# 3 40.8296 -2.0257 76.8532 0.0000 0.0000 0.0000
# 4 0.0000 0.0000 0.0000 34.6859 0.0000 0.0000
# 5 0.0000 0.0000 0.0000 0.0000 -67.7753 0.0000
# 6 0.0000 0.0000 0.0000 0.0000 0.0000 49.7422
#
#
#
# Elastic Compliance Matrix: (Units=1/GPa)
#
#
# Indices 1 2 3 4 5 6 
#
# 1 0.010738 -0.005673 -0.005854 0.000000 0.000000 0.000000
# 2 -0.005673 0.019038 0.003515 0.000000 0.000000 0.000000
# 3 -0.005854 0.003515 0.016215 0.000000 0.000000 0.000000
# 4 0.000000 0.000000 0.000000 0.028830 0.000000 0.000000
# 5 0.000000 0.000000 0.000000 0.000000 -0.014755 0.000000
# 6 0.000000 0.000000 0.000000 0.000000 0.000000 0.020104
#
#
# Mechanical properties :
#
#
# Convention : Reuss Voigt Hill
#
# Bulk Modulus (GPa) = 33.36888 45.86486 39.61687
# Shear Modulus (GPa) = 47.08914 16.71744 31.90329
#
# Velocity S-wave (km/s) = 4.54612 2.70873 3.74195
# Velocity P-wave (km/s) = 6.49629 5.46926 6.00477
#
# Compressibility (1/GPa) = 0.02996804
#
# Stress axis : x y z
#
# Youngs Moduli (GPa) = 93.12936 52.52595 61.67285
#
# Poissons Ratio (x) = 0.29796 0.36104
# Poissons Ratio (y) = 0.52828 -0.21681
# Poissons Ratio (z) = 0.54519 -0.18465
#
# Static dielectric constant tensor:
#      x y z
#    x 1.878270 0.000000 0.000000 
#    y 0.000000 1.826400 0.000000 
#    z 0.000000 0.000000 1.956740 
# 
# From -- ./inp_files/17551.got.cif
#   From: 2010.05.17/outbox.cif.g08.bks.cpg/sg72_9_cif.got.tgz:17551.got - 2010.06.03 17:03:01.
