data_PCOD9527853
_publ_section_title
;
Structure prediction by ZEFSAII (Michael W. Deem and Ramdas Pophale) SiO2 
 PCOD9527853
Probable space group: I B A M
;
_chemical_formula_sum "Si O2"
_cell_formula_units_Z 116
_cell_length_a 23.499158
_cell_length_b 29.589772
_cell_length_c 8.905501
_cell_angle_alpha 90.000000
_cell_angle_beta 90.000000
_cell_angle_gamma 90.000000
_cell_volume 6192.304110
_symmetry_space_group_name_H-M "I B A M"
_symmetry_group_IT_number 72
_symmetry_cell_setting 'orthorhombic'
loop_
_space_group_symop_operation_xyz
x,y,z
-x,-y,z
x,-y,1/2-z
-x,y,1/2-z
-x,-y,-z
x,y,-z
-x,y,1/2+z
x,-y,1/2+z
1/2+x,1/2+y,1/2+z
1/2-x,1/2-y,1/2+z
1/2+x,1/2-y,-z
1/2-x,1/2+y,-z
1/2-x,1/2-y,1/2-z
1/2+x,1/2+y,1/2-z
1/2-x,1/2+y,z
1/2+x,1/2-y,z
loop_
_atom_site_type_symbol
_atom_site_label
_atom_site_fract_x
_atom_site_fract_y
_atom_site_fract_z
Si Si1 0.405506 0.253681 0.322330
Si Si2 0.707299 0.715673 0.175903
Si Si3 0.314631 0.621336 0.180349
Si Si4 0.600492 0.926776 0.326788
Si Si5 0.058321 0.659436 0.821407
Si Si6 0.500000 0.000000 0.750000
Si Si7 0.558106 0.356053 0.824231
Si Si8 0.768236 0.547266 0.822052
O O1 0.389974 0.249541 0.500000
O O2 0.353473 0.262783 0.211544
O O3 0.431104 0.206669 0.264756
O O4 0.439296 0.301099 0.310232
O O5 0.750000 0.750000 0.250000
O O6 0.709821 0.668923 0.264034
O O7 0.716841 0.709158 0.000000
O O8 0.381468 0.623356 0.231077
O O9 0.273040 0.584159 0.248282
O O10 0.314639 0.619072 0.000000
O O11 0.598240 0.911051 0.500000
O O12 0.598125 0.882801 0.219875
O O13 0.663568 0.946721 0.298758
O O14 0.548135 0.963208 0.310686
O O15 0.000000 0.642153 0.750000
O O16 0.055811 0.666766 0.000000
O O17 0.500000 0.372357 0.750000
O O18 0.555401 0.365946 0.000000
O O19 0.751936 0.500000 0.750000
O O20 0.759230 0.547838 0.000000
#
# Coordination Sequence:
#
# PCOD9527853 Si02
#       8
#    16  16  16  16  16   4  16  16
#     4  10  21  38  57  82 120 160 203 251 300 362
#     4  11  22  37  57  84 118 161 207 253 307 365
#     4  10  22  41  62  90 126 164 208 256 307 372
#     4  11  25  42  63  89 118 153 201 256 314 376
#     4  12  25  39  57  83 116 156 201 250 309 364
#     4  12  22  44  72  90 118 152 204 260 322 376
#     4   9  19  35  60  91 123 161 201 246 297 359
#     4  11  24  43  66  94 123 159 204 257 317 378
#
# _framework density 18.732931000000001
#
# number of rings (size 3 to 8) (size 9 to 14) (size 15 to 20)
#    0.000    1.379    1.379    5.172    1.931    6.069 
#    0.000    0.000    0.000    0.414    0.000    2.897 
#    0.000    0.000    0.000    0.000    0.000    0.000 
#
# Total GULP energy -323132.698241 kJ/mol
# GULP energy per Si atom -5571.253418 kJ/mol
# Density = 1.869029 g / cm^3
# Si number density = 18.732931 Si / 1000 Ang^3
#
#
#
# Elastic Constant Matrix: (Units=GPa)
#
#
# Indices 1 2 3 4 5 6 
#
# 1 105.6763 63.1830 50.2834 0.0000 0.0000 0.0000
# 2 63.1830 72.0923 34.4307 0.0000 0.0000 0.0000
# 3 50.2834 34.4307 74.0428 0.0000 0.0000 0.0000
# 4 0.0000 0.0000 0.0000 28.1673 0.0000 0.0000
# 5 0.0000 0.0000 0.0000 0.0000 30.0091 0.0000
# 6 0.0000 0.0000 0.0000 0.0000 0.0000 61.8172
#
#
#
# Elastic Compliance Matrix: (Units=1/GPa)
#
#
# Indices 1 2 3 4 5 6 
#
# 1 0.023104 -0.016397 -0.008066 0.000000 0.000000 0.000000
# 2 -0.016397 0.029468 -0.002568 0.000000 0.000000 0.000000
# 3 -0.008066 -0.002568 0.020177 0.000000 0.000000 0.000000
# 4 0.000000 0.000000 0.000000 0.035502 0.000000 0.000000
# 5 0.000000 0.000000 0.000000 0.000000 0.033323 0.000000
# 6 0.000000 0.000000 0.000000 0.000000 0.000000 0.016177
#
#
# Mechanical properties :
#
#
# Convention : Reuss Voigt Hill
#
# Bulk Modulus (GPa) = 53.50722 60.84509 57.17615
# Shear Modulus (GPa) = 22.93141 30.92633 26.92887
#
# Velocity S-wave (km/s) = 3.50254 4.06754 3.79557
# Velocity P-wave (km/s) = 6.70688 7.38990 7.05666
#
# Compressibility (1/GPa) = 0.01868907
#
# Stress axis : x y z
#
# Youngs Moduli (GPa) = 43.28193 33.93520 49.56097
#
# Poissons Ratio (x) = 0.55643 0.39974
# Poissons Ratio (y) = 0.70969 0.12725
# Poissons Ratio (z) = 0.34910 0.08713
#
# Static dielectric constant tensor:
#      x y z
#    x 1.729980 0.000000 0.000000 
#    y 0.000000 1.670000 0.000000 
#    z 0.000000 0.000000 1.623650 
# 
# From -- ./inp_files/7350.got.cif
#   From: 2010.05.17/outbox.cif.g08.bks.cpg/sg72_4_cif.got.tgz:7350.got - 2010.06.03 17:03:01.
