data_PCOD9527642
_publ_section_title
;
Structure prediction by ZEFSAII (Michael W. Deem and Ramdas Pophale) SiO2 
 PCOD9527642
Probable space group: I B A M
;
_chemical_formula_sum "Si O2"
_cell_formula_units_Z 116
_cell_length_a 27.536205
_cell_length_b 27.595121
_cell_length_c 8.240972
_cell_angle_alpha 90.000000
_cell_angle_beta 90.000000
_cell_angle_gamma 90.000000
_cell_volume 6262.025438
_symmetry_space_group_name_H-M "I B A M"
_symmetry_group_IT_number 72
_symmetry_cell_setting 'orthorhombic'
loop_
_space_group_symop_operation_xyz
x,y,z
-x,-y,z
x,-y,1/2-z
-x,y,1/2-z
-x,-y,-z
x,y,-z
-x,y,1/2+z
x,-y,1/2+z
1/2+x,1/2+y,1/2+z
1/2-x,1/2-y,1/2+z
1/2+x,1/2-y,-z
1/2-x,1/2+y,-z
1/2-x,1/2-y,1/2-z
1/2+x,1/2+y,1/2-z
1/2-x,1/2+y,z
1/2+x,1/2-y,z
loop_
_atom_site_type_symbol
_atom_site_label
_atom_site_fract_x
_atom_site_fract_y
_atom_site_fract_z
Si Si1 0.448660 0.788842 0.695091
Si Si2 0.928433 0.923374 0.808984
Si Si3 0.156671 0.317309 0.694693
Si Si4 0.751799 0.360494 0.688748
Si Si5 0.426338 0.319213 0.188844
Si Si6 0.815778 0.945131 0.806535
Si Si7 0.500000 0.500000 0.750000
Si Si8 0.325700 0.710537 0.187508
O O1 0.500000 0.809452 0.750000
O O2 0.447476 0.786604 0.500000
O O3 0.399875 0.816747 0.747112
O O4 0.444819 0.732731 0.753434
O O5 0.941626 0.867381 0.782043
O O6 0.871491 0.929879 0.770447
O O7 0.936396 0.936558 0.000000
O O8 0.960078 0.959388 0.697806
O O9 0.158045 0.316715 0.500000
O O10 0.192103 0.358780 0.759064
O O11 0.177224 0.266164 0.760311
O O12 0.748397 0.348687 0.500000
O O13 0.722941 0.409639 0.724848
O O14 0.723302 0.318937 0.786880
O O15 0.368077 0.313892 0.206429
O O16 0.439325 0.324237 0.000000
O O17 0.809256 0.000000 0.750000
O O18 0.810041 0.941111 0.000000
O O19 0.159441 0.792851 0.500000
#
# Coordination Sequence:
#
# PCOD9527642 Si02
#       8
#    16  16  16  16  16  16   4  16
#     4   9  20  36  54  78 108 145 181 219 265 317
#     4  11  24  40  58  76  99 135 180 233 294 342
#     4  10  21  37  54  79 113 146 182 224 270 326
#     4  12  23  36  56  82 109 143 181 224 278 334
#     4  10  21  36  54  76 103 137 180 228 276 332
#     4  11  23  41  61  82 107 140 182 229 285 344
#     4  12  26  44  56  78 102 132 188 250 296 340
#     4  11  20  33  53  79 109 143 179 221 273 333
#
# _framework density 18.524357999999999
#
# number of rings (size 3 to 8) (size 9 to 14) (size 15 to 20)
#    0.000    1.379    2.069    5.172    0.966    4.966 
#    0.000    0.000    0.000    0.000    0.000    0.000 
#    0.000    0.552    0.000    5.793    0.000    3.172 
#
# Total GULP energy -323789.989552 kJ/mol
# GULP energy per Si atom -5582.586027 kJ/mol
# Density = 1.848220 g / cm^3
# Si number density = 18.524358 Si / 1000 Ang^3
#
#
#
# Elastic Constant Matrix: (Units=GPa)
#
#
# Indices 1 2 3 4 5 6 
#
# 1 125.5257 45.7738 10.1809 0.0000 0.0000 0.0000
# 2 45.7738 48.3204 13.1038 0.0000 0.0000 0.0000
# 3 10.1809 13.1038 48.4069 0.0000 0.0000 0.0000
# 4 0.0000 0.0000 0.0000 18.0455 0.0000 0.0000
# 5 0.0000 0.0000 0.0000 0.0000 12.3569 0.0000
# 6 0.0000 0.0000 0.0000 0.0000 0.0000 69.7575
#
#
#
# Elastic Compliance Matrix: (Units=1/GPa)
#
#
# Indices 1 2 3 4 5 6 
#
# 1 0.012187 -0.011709 0.000607 0.000000 0.000000 0.000000
# 2 -0.011709 0.033585 -0.006629 0.000000 0.000000 0.000000
# 3 0.000607 -0.006629 0.022325 0.000000 0.000000 0.000000
# 4 0.000000 0.000000 0.000000 0.055415 0.000000 0.000000
# 5 0.000000 0.000000 0.000000 0.000000 0.080926 0.000000
# 6 0.000000 0.000000 0.000000 0.000000 0.000000 0.014335
#
#
# Mechanical properties :
#
#
# Convention : Reuss Voigt Hill
#
# Bulk Modulus (GPa) = 30.64285 40.04111 35.34198
# Shear Modulus (GPa) = 18.85968 30.24496 24.55232
#
# Velocity S-wave (km/s) = 3.19423 4.04507 3.64456
# Velocity P-wave (km/s) = 5.49381 6.59387 6.06882
#
# Compressibility (1/GPa) = 0.03263404
#
# Stress axis : x y z
#
# Youngs Moduli (GPa) = 82.05323 29.77508 44.79269
#
# Poissons Ratio (x) = 0.34865 -0.02717
# Poissons Ratio (y) = 0.96079 0.29692
# Poissons Ratio (z) = -0.04977 0.19737
#
# Static dielectric constant tensor:
#      x y z
#    x 1.690780 0.000000 0.000000 
#    y 0.000000 1.617730 0.000000 
#    z 0.000000 0.000000 1.684140 
# 
# From -- ./inp_files/8427.got.cif
#   From: 2010.05.17/outbox.cif.g08.bks.cpg/sg72_5_cif.got.tgz:8427.got - 2010.06.03 17:03:01.
