data_PCOD9527864
_publ_section_title
;
Structure prediction by ZEFSAII (Michael W. Deem and Ramdas Pophale) SiO2 
 PCOD9527864
Probable space group: I B A M
;
_chemical_formula_sum "Si O2"
_cell_formula_units_Z 96
_cell_length_a 21.598714
_cell_length_b 23.895230
_cell_length_c 8.968780
_cell_angle_alpha 90.000000
_cell_angle_beta 90.000000
_cell_angle_gamma 90.000000
_cell_volume 4628.843312
_symmetry_space_group_name_H-M "I B A M"
_symmetry_group_IT_number 72
_symmetry_cell_setting 'orthorhombic'
loop_
_space_group_symop_operation_xyz
x,y,z
-x,-y,z
x,-y,1/2-z
-x,y,1/2-z
-x,-y,-z
x,y,-z
-x,y,1/2+z
x,-y,1/2+z
1/2+x,1/2+y,1/2+z
1/2-x,1/2-y,1/2+z
1/2+x,1/2-y,-z
1/2-x,1/2+y,-z
1/2-x,1/2-y,1/2-z
1/2+x,1/2+y,1/2-z
1/2-x,1/2+y,z
1/2+x,1/2-y,z
loop_
_atom_site_type_symbol
_atom_site_label
_atom_site_fract_x
_atom_site_fract_y
_atom_site_fract_z
Si Si1 0.188807 0.445570 0.825173
Si Si2 0.110526 0.720745 0.824937
Si Si3 0.618847 0.667726 0.329245
Si Si4 0.931270 0.057391 0.179171
Si Si5 0.236362 0.340375 0.329958
Si Si6 0.435778 0.903531 0.322326
O O1 0.217647 0.500000 0.750000
O O2 0.227185 0.390637 0.784378
O O3 0.122011 0.435007 0.750219
O O4 0.182509 0.453052 0.000000
O O5 0.090637 0.774532 0.731768
O O6 0.183201 0.705199 0.799712
O O7 0.075406 0.662773 0.791268
O O8 0.103110 0.733196 0.000000
O O9 0.599771 0.657032 0.500000
O O10 0.603197 0.613631 0.230891
O O11 0.692849 0.677375 0.326601
O O12 0.000000 0.061858 0.250000
O O13 0.904178 0.000000 0.250000
O O14 0.933842 0.053034 0.000000
O O15 0.222672 0.360784 0.500000
O O16 0.500000 0.921322 0.250000
O O17 0.435968 0.911275 0.500000
#
# Coordination Sequence:
#
# PCOD9527864 Si02
#       6
#    16  16  16  16  16  16
#     4  11  22  37  58  82 111 148 189 234 284 335
#     4   9  19  36  56  81 116 153 187 230 280 328
#     4  11  22  36  59  89 117 149 189 228 272 332
#     4  11  23  42  64  85 113 146 183 229 281 334
#     4   9  20  38  57  81 116 152 187 231 280 330
#     4  10  21  38  58  82 113 148 189 235 283 334
#
# _framework density 20.739522000000001
#
# number of rings (size 3 to 8) (size 9 to 14) (size 15 to 20)
#    0.000    1.833    0.000    6.000    0.000    6.333 
#    0.000    3.333    0.000    0.000    0.000    0.000 
#    0.000    0.000    0.000    0.000    0.000    0.000 
#
# Total GULP energy -268208.360817 kJ/mol
# GULP energy per Si atom -5587.674184 kJ/mol
# Density = 2.069232 g / cm^3
# Si number density = 20.739522 Si / 1000 Ang^3
#
#
#
# Elastic Constant Matrix: (Units=GPa)
#
#
# Indices 1 2 3 4 5 6 
#
# 1 20.3935 -15.8360 3.9402 0.0000 0.0000 0.0000
# 2 -15.8360 84.7000 59.7722 0.0000 0.0000 0.0000
# 3 3.9402 59.7722 134.3538 0.0000 0.0000 0.0000
# 4 0.0000 0.0000 0.0000 35.6072 0.0000 0.0000
# 5 0.0000 0.0000 0.0000 0.0000 25.2194 0.0000
# 6 0.0000 0.0000 0.0000 0.0000 0.0000 -0.2148
#
#
#
# Elastic Compliance Matrix: (Units=1/GPa)
#
#
# Indices 1 2 3 4 5 6 
#
# 1 0.066873 0.020242 -0.010967 0.000000 0.000000 0.000000
# 2 0.020242 0.023336 -0.010976 0.000000 0.000000 0.000000
# 3 -0.010967 -0.010976 0.012648 0.000000 0.000000 0.000000
# 4 0.000000 0.000000 0.000000 0.028084 0.000000 0.000000
# 5 0.000000 0.000000 0.000000 0.000000 0.039652 0.000000
# 6 0.000000 0.000000 0.000000 0.000000 0.000000 -4.654806
#
#
# Mechanical properties :
#
#
# Convention : Reuss Voigt Hill
#
# Bulk Modulus (GPa) = 10.05470 37.24446 23.64958
# Shear Modulus (GPa) = -1.12419 24.89374 11.88478
#
# Velocity S-wave (km/s) = -0.73704 3.46830 2.39644
# Velocity P-wave (km/s) = 2.03330 5.83404 4.36866
#
# Compressibility (1/GPa) = 0.09945596
#
# Stress axis : x y z
#
# Youngs Moduli (GPa) = 14.95381 42.85145 79.06637
#
# Poissons Ratio (x) = -0.86740 0.86709
# Poissons Ratio (y) = -0.30269 0.86781
# Poissons Ratio (z) = 0.16399 0.47033
#
# Static dielectric constant tensor:
#      x y z
#    x 1.743760 0.000000 0.000000 
#    y 0.000000 1.756860 0.000000 
#    z 0.000000 0.000000 1.703910 
# 
# From -- ./inp_files/6978.got.cif
#   From: 2010.05.17/outbox.cif.g08.bks.cpg/sg72_4_cif.got.tgz:6978.got - 2010.06.03 17:03:01.
