data_PCOD9527619
_publ_section_title
;
Structure prediction by ZEFSAII (Michael W. Deem and Ramdas Pophale) SiO2 
 PCOD9527619
Probable space group: I B A M
;
_chemical_formula_sum "Si O2"
_cell_formula_units_Z 80
_cell_length_a 4.985203
_cell_length_b 23.584806
_cell_length_c 25.271678
_cell_angle_alpha 90.000000
_cell_angle_beta 90.000000
_cell_angle_gamma 90.000000
_cell_volume 2971.318694
_symmetry_space_group_name_H-M "I B A M"
_symmetry_group_IT_number 72
_symmetry_cell_setting 'orthorhombic'
loop_
_space_group_symop_operation_xyz
x,y,z
-x,-y,z
x,-y,1/2-z
-x,y,1/2-z
-x,-y,-z
x,y,-z
-x,y,1/2+z
x,-y,1/2+z
1/2+x,1/2+y,1/2+z
1/2-x,1/2-y,1/2+z
1/2+x,1/2-y,-z
1/2-x,1/2+y,-z
1/2-x,1/2-y,1/2-z
1/2+x,1/2+y,1/2-z
1/2-x,1/2+y,z
1/2+x,1/2-y,z
loop_
_atom_site_type_symbol
_atom_site_label
_atom_site_fract_x
_atom_site_fract_y
_atom_site_fract_z
Si Si1 0.928818 0.643279 0.622938
Si Si2 0.239128 0.169448 0.285636
Si Si3 0.458972 0.561846 0.165643
Si Si4 0.540942 0.711060 0.442258
Si Si5 0.299821 0.054108 0.559751
O O1 0.835536 0.588539 0.657795
O O2 0.656116 0.673545 0.605025
O O3 0.118569 0.684139 0.657796
O O4 0.052611 0.613722 0.571402
O O5 0.500000 0.166575 0.250000
O O6 0.114075 0.109055 0.301403
O O7 0.000000 0.198384 0.250000
O O8 0.500000 0.500000 0.189069
O O9 0.583278 0.555825 0.106497
O O10 0.578485 0.683103 0.500000
O O11 0.243419 0.735349 0.441067
O O12 0.193924 0.052442 0.500000
O O13 0.500000 0.000000 0.565634
#
# Coordination Sequence:
#
# PCOD9527619 Si02
#       5
#    16  16  16  16  16
#     4  11  23  42  68  91 134 176 218 281 335 391
#     4  11  24  44  64  96 128 174 221 276 332 392
#     4  11  23  40  60  93 133 176 226 268 318 395
#     4  10  24  44  69 102 134 170 222 272 329 403
#     4  10  21  35  56  92 136 178 216 260 319 397
#
# _framework density 26.924074999999998
#
# number of rings (size 3 to 8) (size 9 to 14) (size 15 to 20)
#    0.000    1.400    4.000    0.600    5.600    2.400 
#    3.600    0.000    0.000    3.600    0.000    0.000 
#    0.000    0.000    0.000    0.000    0.000    0.000 
#
# Total GULP energy -223620.132930 kJ/mol
# GULP energy per Si atom -5590.503323 kJ/mol
# Density = 2.686279 g / cm^3
# Si number density = 26.924075 Si / 1000 Ang^3
#
#
#
# Elastic Constant Matrix: (Units=GPa)
#
#
# Indices 1 2 3 4 5 6 
#
# 1 91.9688 4.8866 60.0145 0.0000 0.0000 0.0000
# 2 4.8866 76.1873 24.5909 0.0000 0.0000 0.0000
# 3 60.0145 24.5909 171.6822 0.0000 0.0000 0.0000
# 4 0.0000 0.0000 0.0000 13.9601 0.0000 0.0000
# 5 0.0000 0.0000 0.0000 0.0000 49.5393 0.0000
# 6 0.0000 0.0000 0.0000 0.0000 0.0000 41.4597
#
#
#
# Elastic Compliance Matrix: (Units=1/GPa)
#
#
# Indices 1 2 3 4 5 6 
#
# 1 0.014124 0.000721 -0.005041 0.000000 0.000000 0.000000
# 2 0.000721 0.013799 -0.002229 0.000000 0.000000 0.000000
# 3 -0.005041 -0.002229 0.007906 0.000000 0.000000 0.000000
# 4 0.000000 0.000000 0.000000 0.071633 0.000000 0.000000
# 5 0.000000 0.000000 0.000000 0.000000 0.020186 0.000000
# 6 0.000000 0.000000 0.000000 0.000000 0.000000 0.024120
#
#
# Mechanical properties :
#
#
# Convention : Reuss Voigt Hill
#
# Bulk Modulus (GPa) = 43.98969 57.64692 50.81830
# Shear Modulus (GPa) = 28.99544 37.68157 33.33851
#
# Velocity S-wave (km/s) = 3.28523 3.74511 3.52268
# Velocity P-wave (km/s) = 5.54655 6.33708 5.95495
#
# Compressibility (1/GPa) = 0.02273260
#
# Stress axis : x y z
#
# Youngs Moduli (GPa) = 70.80027 72.47112 126.48673
#
# Poissons Ratio (x) = -0.05226 0.63758
# Poissons Ratio (y) = -0.05105 0.28188
# Poissons Ratio (z) = 0.35688 0.16150
#
# Static dielectric constant tensor:
#      x y z
#    x 2.151420 0.000000 0.000000 
#    y 0.000000 2.173070 0.000000 
#    z 0.000000 0.000000 2.198410 
# 
# From -- ./inp_files/41548.got.cif
#   From: 2010.05.17/outbox.cif.g08.bks.cpg/sg72_21_cif.got.tgz:41548.got - 2010.06.03 17:03:01.
