data_PCOD9527532
_publ_section_title
;
Structure prediction by ZEFSAII (Michael W. Deem and Ramdas Pophale) SiO2 
 PCOD9527532
Probable space group: I B A M
;
_chemical_formula_sum "Si O2"
_cell_formula_units_Z 128
_cell_length_a 17.926768
_cell_length_b 24.301154
_cell_length_c 18.269372
_cell_angle_alpha 90.000000
_cell_angle_beta 90.000000
_cell_angle_gamma 90.000000
_cell_volume 7958.890226
_symmetry_space_group_name_H-M "I B A M"
_symmetry_group_IT_number 72
_symmetry_cell_setting 'orthorhombic'
loop_
_space_group_symop_operation_xyz
x,y,z
-x,-y,z
x,-y,1/2-z
-x,y,1/2-z
-x,-y,-z
x,y,-z
-x,y,1/2+z
x,-y,1/2+z
1/2+x,1/2+y,1/2+z
1/2-x,1/2-y,1/2+z
1/2+x,1/2-y,-z
1/2-x,1/2+y,-z
1/2-x,1/2-y,1/2-z
1/2+x,1/2+y,1/2-z
1/2-x,1/2+y,z
1/2+x,1/2-y,z
loop_
_atom_site_type_symbol
_atom_site_label
_atom_site_fract_x
_atom_site_fract_y
_atom_site_fract_z
Si Si1 0.858642 0.790111 0.086701
Si Si2 0.114195 0.710807 0.083155
Si Si3 0.641849 0.617053 0.158476
Si Si4 0.089244 0.004443 0.415452
Si Si5 0.251952 0.300641 0.084660
Si Si6 0.985941 0.791299 0.664950
Si Si7 0.270964 0.881576 0.413841
Si Si8 0.188998 0.946582 0.700448
O O1 0.819422 0.733326 0.113321
O O2 0.936027 0.802351 0.125295
O O3 0.798407 0.838922 0.094951
O O4 0.871037 0.783933 0.000000
O O5 0.181916 0.755102 0.084363
O O6 0.153873 0.653179 0.100184
O O7 0.051150 0.735639 0.134155
O O8 0.085817 0.708820 0.000000
O O9 0.619160 0.564130 0.110152
O O10 0.715291 0.648155 0.128695
O O11 0.573302 0.659558 0.153491
O O12 0.658576 0.597663 0.241190
O O13 0.110462 0.993581 0.500000
O O14 0.125047 0.962690 0.357630
O O15 0.000000 0.000000 0.410534
O O16 0.238973 0.316248 0.000000
O O17 0.000000 0.786000 0.750000
O O18 0.271132 0.899007 0.500000
O O19 0.255869 0.926420 0.351602
O O20 0.207105 0.000000 0.750000
#
# Coordination Sequence:
#
# PCOD9527532 Si02
#       8
#    16  16  16  16  16  16  16  16
#     4   9  18  30  48  70  93 121 159 199 227 266
#     4   8  16  31  48  66  91 122 157 195 231 274
#     4  10  21  32  48  65  96 134 158 188 246 292
#     4  10  22  35  48  65  88 123 169 211 236 265
#     4   8  15  31  49  67  89 119 160 197 229 277
#     4  11  21  29  43  71 101 129 156 189 234 293
#     4   9  17  32  52  68  87 124 165 196 228 272
#     4  10  21  34  46  65  93 122 156 202 243 276
#
# _framework density 16.082644999999999
#
# number of rings (size 3 to 8) (size 9 to 14) (size 15 to 20)
#    0.000    2.625    0.000    3.375    3.500    4.250 
#    0.000    3.750    0.000    0.000    0.000    0.000 
#    0.000   11.500    0.000   38.375    0.000    0.000 
#
# Total GULP energy -356593.023020 kJ/mol
# GULP energy per Si atom -5571.765985 kJ/mol
# Density = 1.604604 g / cm^3
# Si number density = 16.082645 Si / 1000 Ang^3
#
#
#
# Elastic Constant Matrix: (Units=GPa)
#
#
# Indices 1 2 3 4 5 6 
#
# 1 25.7648 11.5925 13.6324 0.0000 0.0000 0.0000
# 2 11.5925 49.0744 33.0790 0.0000 0.0000 0.0000
# 3 13.6324 33.0790 76.9044 0.0001 0.0000 0.0000
# 4 0.0000 0.0000 0.0001 23.9650 0.0000 0.0000
# 5 0.0000 0.0000 0.0000 0.0000 17.9078 0.0000
# 6 0.0000 0.0000 0.0000 0.0000 0.0000 24.3199
#
#
#
# Elastic Compliance Matrix: (Units=1/GPa)
#
#
# Indices 1 2 3 4 5 6 
#
# 1 0.044630 -0.007337 -0.004755 0.000000 0.000000 0.000000
# 2 -0.007337 0.029904 -0.011562 0.000000 0.000000 0.000000
# 3 -0.004755 -0.011562 0.018819 0.000000 0.000000 0.000000
# 4 0.000000 0.000000 0.000000 0.041728 0.000000 0.000000
# 5 0.000000 0.000000 0.000000 0.000000 0.055842 0.000000
# 6 0.000000 0.000000 0.000000 0.000000 0.000000 0.041119
#
#
# Mechanical properties :
#
#
# Convention : Reuss Voigt Hill
#
# Bulk Modulus (GPa) = 21.71833 29.81683 25.76758
# Shear Modulus (GPa) = 16.96651 19.46784 18.21718
#
# Velocity S-wave (km/s) = 3.25153 3.48298 3.36925
# Velocity P-wave (km/s) = 5.25644 5.89533 5.58503
#
# Compressibility (1/GPa) = 0.04604405
#
# Stress axis : x y z
#
# Youngs Moduli (GPa) = 22.40643 33.44046 53.13700
#
# Poissons Ratio (x) = 0.24536 0.25268
# Poissons Ratio (y) = 0.16440 0.61437
# Poissons Ratio (z) = 0.10655 0.38664
#
# Static dielectric constant tensor:
#      x y z
#    x 1.527420 0.000000 0.000000 
#    y 0.000000 1.567290 0.000000 
#    z 0.000000 0.000000 1.599230 
# 
# From -- ./inp_files/32046.got.cif
#   From: 2010.05.17/outbox.cif.g08.bks.cpg/sg72_17_cif.got.tgz:32046.got - 2010.06.03 17:03:01.
