data_PCOD9527093
_publ_section_title
;
Structure prediction by ZEFSAII (Michael W. Deem and Ramdas Pophale) SiO2 
 PCOD9527093
Probable space group: I B A M
;
_chemical_formula_sum "Si O2"
_cell_formula_units_Z 68
_cell_length_a 8.870692
_cell_length_b 15.906178
_cell_length_c 26.129231
_cell_angle_alpha 90.000000
_cell_angle_beta 90.000000
_cell_angle_gamma 90.000000
_cell_volume 3686.803294
_symmetry_space_group_name_H-M "I B A M"
_symmetry_group_IT_number 72
_symmetry_cell_setting 'orthorhombic'
loop_
_space_group_symop_operation_xyz
x,y,z
-x,-y,z
x,-y,1/2-z
-x,y,1/2-z
-x,-y,-z
x,y,-z
-x,y,1/2+z
x,-y,1/2+z
1/2+x,1/2+y,1/2+z
1/2-x,1/2-y,1/2+z
1/2+x,1/2-y,-z
1/2-x,1/2+y,-z
1/2-x,1/2-y,1/2-z
1/2+x,1/2+y,1/2-z
1/2-x,1/2+y,z
1/2+x,1/2-y,z
loop_
_atom_site_type_symbol
_atom_site_label
_atom_site_fract_x
_atom_site_fract_y
_atom_site_fract_z
Si Si1 0.321966 0.196505 0.500000
Si Si2 0.802928 0.146704 0.302516
Si Si3 0.184091 0.156999 0.923805
Si Si4 0.000000 0.000000 0.750000
Si Si5 0.096861 0.417094 0.500000
Si Si6 0.500000 0.791270 0.750000
Si Si7 0.950907 0.905406 0.500000
O O1 0.285756 0.252627 0.450145
O O2 0.491723 0.165364 0.500000
O O3 0.222726 0.113599 0.500000
O O4 0.801921 0.150301 0.363787
O O5 0.632373 0.156835 0.279538
O O6 0.890911 0.063355 0.282223
O O7 0.902591 0.227609 0.285345
O O8 0.298101 0.092000 0.950582
O O9 0.023535 0.134912 0.949133
O O10 0.000000 0.500000 0.500000
O O11 0.000000 0.000000 0.500000
#
# Coordination Sequence:
#
# PCOD9527093 Si02
#       7
#     8  16  16   4   8   8   8
#     4  10  20  36  60  88 120 160 200 250 279 377
#     4  10  22  42  66  90 123 162 203 259 313 362
#     4  10  21  36  61  85 117 162 203 233 307 361
#     4  10  24  46  60  92 132 152 204 266 312 364
#     4  10  21  40  51  92 126 150 198 251 293 368
#     4   9  22  42  62  93 122 152 214 261 292 374
#     4  10  21  36  55  90 124 156 196 250 299 361
#
# _framework density 18.444163
#
# number of rings (size 3 to 8) (size 9 to 14) (size 15 to 20)
#    0.000    2.353    0.000    4.235    8.235    0.471 
#    4.235    0.000    0.000    0.000    0.000    0.000 
#    0.000    0.000    0.000    0.000    0.000    0.000 
#
# Total GULP energy -189383.349053 kJ/mol
# GULP energy per Si atom -5570.098502 kJ/mol
# Density = 1.840218 g / cm^3
# Si number density = 18.444163 Si / 1000 Ang^3
#
#
#
# Elastic Constant Matrix: (Units=GPa)
#
#
# Indices 1 2 3 4 5 6 
#
# 1 126.6897 33.3490 61.4180 0.0000 0.0000 0.0000
# 2 33.3490 87.3152 45.8473 0.0000 0.0000 0.0000
# 3 61.4180 45.8473 185.9077 0.0000 0.0000 0.0000
# 4 0.0000 0.0000 0.0000 0.3146 0.0000 0.0000
# 5 0.0000 0.0000 0.0000 0.0000 -13.1490 0.0000
# 6 0.0000 0.0000 0.0000 0.0000 0.0000 38.5226
#
#
#
# Elastic Compliance Matrix: (Units=1/GPa)
#
#
# Indices 1 2 3 4 5 6 
#
# 1 0.009800 -0.002347 -0.002659 0.000000 0.000000 0.000000
# 2 -0.002347 0.013718 -0.002608 0.000000 0.000000 0.000000
# 3 -0.002659 -0.002608 0.006901 0.000000 0.000000 0.000000
# 4 0.000000 0.000000 0.000000 3.179103 0.000000 0.000000
# 5 0.000000 0.000000 0.000000 0.000000 -0.076052 0.000000
# 6 0.000000 0.000000 0.000000 0.000000 0.000000 0.025959
#
#
# Mechanical properties :
#
#
# Convention : Reuss Voigt Hill
#
# Bulk Modulus (GPa) = 65.82453 75.68236 70.75344
# Shear Modulus (GPa) = 1.57247 22.42419 11.99833
#
# Velocity S-wave (km/s) = 0.92434 3.49060 2.55330
# Velocity P-wave (km/s) = 6.07497 7.57417 6.86561
#
# Compressibility (1/GPa) = 0.01519191
#
# Stress axis : x y z
#
# Youngs Moduli (GPa) = 102.03996 72.89455 144.91633
#
# Poissons Ratio (x) = 0.17108 0.38531
# Poissons Ratio (y) = 0.23948 0.37791
# Poissons Ratio (z) = 0.27131 0.19009
#
# Static dielectric constant tensor:
#      x y z
#    x 1.653360 0.000000 0.000000 
#    y 0.000000 1.667860 0.000000 
#    z 0.000000 0.000000 1.593980 
# 
# From -- ./inp_files/44726.got.cif
#   From: 2010.05.17/outbox.cif.g08.bks.cpg/sg72_23_cif.got.tgz:44726.got - 2010.06.03 17:03:01.
