data_PCOD9527196
_publ_section_title
;
Structure prediction by ZEFSAII (Michael W. Deem and Ramdas Pophale) SiO2 
 PCOD9527196
Probable space group: I B A M
;
_chemical_formula_sum "Si O2"
_cell_formula_units_Z 112
_cell_length_a 20.232245
_cell_length_b 16.754648
_cell_length_c 18.917096
_cell_angle_alpha 90.000000
_cell_angle_beta 90.000000
_cell_angle_gamma 90.000000
_cell_volume 6412.595580
_symmetry_space_group_name_H-M "I B A M"
_symmetry_group_IT_number 72
_symmetry_cell_setting 'orthorhombic'
loop_
_space_group_symop_operation_xyz
x,y,z
-x,-y,z
x,-y,1/2-z
-x,y,1/2-z
-x,-y,-z
x,y,-z
-x,y,1/2+z
x,-y,1/2+z
1/2+x,1/2+y,1/2+z
1/2-x,1/2-y,1/2+z
1/2+x,1/2-y,-z
1/2-x,1/2+y,-z
1/2-x,1/2-y,1/2-z
1/2+x,1/2+y,1/2-z
1/2-x,1/2+y,z
1/2+x,1/2-y,z
loop_
_atom_site_type_symbol
_atom_site_label
_atom_site_fract_x
_atom_site_fract_y
_atom_site_fract_z
Si Si1 0.861005 0.166323 0.415885
Si Si2 0.004020 0.257628 0.915756
Si Si3 0.812033 0.547082 0.822811
Si Si4 0.031359 0.419470 0.170585
Si Si5 0.136182 0.178348 0.584689
Si Si6 0.241260 0.726224 0.330416
Si Si7 0.306867 0.494799 0.084189
O O1 0.847912 0.176285 0.500000
O O2 0.934582 0.198385 0.402728
O O3 0.811447 0.219880 0.370826
O O4 0.847895 0.074090 0.397756
O O5 0.014946 0.339142 0.872292
O O6 0.936209 0.211654 0.897895
O O7 0.002921 0.275695 0.000000
O O8 0.801079 0.500000 0.750000
O O9 0.890565 0.560733 0.829815
O O10 0.783428 0.635777 0.826982
O O11 0.765720 0.502948 0.880369
O O12 0.000000 0.500000 0.138905
O O13 0.000000 0.411181 0.250000
O O14 0.145237 0.186030 0.500000
O O15 0.190579 0.228764 0.626527
O O16 0.152255 0.085676 0.602953
O O17 0.250000 0.750000 0.250000
O O18 0.297742 0.492679 0.000000
#
# Coordination Sequence:
#
# PCOD9527196 Si02
#       7
#    16  16  16  16  16  16  16
#     4  10  20  37  59  87 116 150 194 238 288 345
#     4  10  22  38  60  87 117 151 191 238 290 346
#     4  11  21  38  56  82 113 150 193 239 284 343
#     4  11  23  39  59  78 113 154 193 236 292 344
#     4   9  20  38  57  84 119 153 189 237 287 344
#     4  11  22  34  57  84 112 152 195 240 290 336
#     4   9  20  37  60  86 116 152 190 236 288 341
#
# _framework density 17.465626
#
# number of rings (size 3 to 8) (size 9 to 14) (size 15 to 20)
#    0.000    1.857    2.857    1.286    2.000    3.143 
#    0.000    4.286    0.000    0.000    0.000    4.000 
#    0.000    0.000    0.000    0.000    0.000    0.000 
#
# Total GULP energy -312150.452487 kJ/mol
# GULP energy per Si atom -5574.115223 kJ/mol
# Density = 1.742587 g / cm^3
# Si number density = 17.465626 Si / 1000 Ang^3
#
#
#
# Elastic Constant Matrix: (Units=GPa)
#
#
# Indices 1 2 3 4 5 6 
#
# 1 168.9961 69.8106 64.0040 0.0000 0.0000 0.0000
# 2 69.8106 94.5280 47.8900 0.0000 0.0000 0.0000
# 3 64.0040 47.8900 45.2308 0.0000 0.0000 0.0000
# 4 0.0000 0.0000 0.0000 34.8656 0.0000 0.0000
# 5 0.0000 0.0000 0.0000 0.0000 130.3222 0.0000
# 6 0.0000 0.0000 0.0000 0.0000 0.0000 26.6214
#
#
#
# Elastic Compliance Matrix: (Units=1/GPa)
#
#
# Indices 1 2 3 4 5 6 
#
# 1 0.012766 -0.000595 -0.017435 0.000000 0.000000 0.000000
# 2 -0.000595 0.022847 -0.023348 0.000000 0.000000 0.000000
# 3 -0.017435 -0.023348 0.071500 0.000000 0.000000 0.000000
# 4 0.000000 0.000000 0.000000 0.028682 0.000000 0.000000
# 5 0.000000 0.000000 0.000000 0.000000 0.007673 0.000000
# 6 0.000000 0.000000 0.000000 0.000000 0.000000 0.037564
#
#
# Mechanical properties :
#
#
# Convention : Reuss Voigt Hill
#
# Bulk Modulus (GPa) = 41.05426 74.68491 57.86958
# Shear Modulus (GPa) = 18.38862 46.83184 32.61023
#
# Velocity S-wave (km/s) = 3.24828 5.18381 4.32569
# Velocity P-wave (km/s) = 6.13394 8.87035 7.62589
#
# Compressibility (1/GPa) = 0.02435801
#
# Stress axis : x y z
#
# Youngs Moduli (GPa) = 78.33159 43.76920 13.98595
#
# Poissons Ratio (x) = 0.02606 0.24384
# Poissons Ratio (y) = 0.04663 0.32654
# Poissons Ratio (z) = 1.36568 1.02192
#
# Static dielectric constant tensor:
#      x y z
#    x 1.585980 0.000000 0.000000 
#    y 0.000000 1.587810 0.000000 
#    z 0.000000 0.000000 1.556180 
# 
# From -- ./inp_files/32741.got.cif
#   From: 2010.05.17/outbox.cif.g08.bks.cpg/sg72_17_cif.got.tgz:32741.got - 2010.06.03 17:03:01.
