data_PCOD9527021
_publ_section_title
;
Structure prediction by ZEFSAII (Michael W. Deem and Ramdas Pophale) SiO2 
 PCOD9527021
Probable space group: I B A M
;
_chemical_formula_sum "Si O2"
_cell_formula_units_Z 64
_cell_length_a 9.645316
_cell_length_b 21.275821
_cell_length_c 15.966535
_cell_angle_alpha 90.000000
_cell_angle_beta 90.000000
_cell_angle_gamma 90.000000
_cell_volume 3276.524847
_symmetry_space_group_name_H-M "I B A M"
_symmetry_group_IT_number 72
_symmetry_cell_setting 'orthorhombic'
loop_
_space_group_symop_operation_xyz
x,y,z
-x,-y,z
x,-y,1/2-z
-x,y,1/2-z
-x,-y,-z
x,y,-z
-x,y,1/2+z
x,-y,1/2+z
1/2+x,1/2+y,1/2+z
1/2-x,1/2-y,1/2+z
1/2+x,1/2-y,-z
1/2-x,1/2+y,-z
1/2-x,1/2-y,1/2-z
1/2+x,1/2+y,1/2-z
1/2-x,1/2+y,z
1/2+x,1/2-y,z
loop_
_atom_site_type_symbol
_atom_site_label
_atom_site_fract_x
_atom_site_fract_y
_atom_site_fract_z
Si Si1 0.563781 0.698808 0.841115
Si Si2 0.870372 0.303900 0.402869
Si Si3 0.091341 0.557684 0.398490
Si Si4 0.087499 0.059088 0.398913
O O1 0.500000 0.709523 0.750000
O O2 0.729115 0.708515 0.851559
O O3 0.479344 0.747908 0.897351
O O4 0.538894 0.626381 0.865884
O O5 0.825844 0.312575 0.500000
O O6 0.939647 0.369996 0.374349
O O7 0.079479 0.555834 0.500000
O O8 0.252115 0.548962 0.376510
O O9 0.000000 0.500000 0.365405
O O10 0.078804 0.061322 0.500000
O O11 0.000000 0.000000 0.368510
#
# Coordination Sequence:
#
# PCOD9527021 Si02
#       4
#    16  16  16  16
#     4  11  22  36  54  80 113 146 181 231 289 337
#     4  10  20  36  57  80 109 146 189 231 274 334
#     4   8  15  29  50  77 104 130 168 220 267 308
#     4   9  18  33  53  77 105 139 182 225 267 325
#
# _framework density 19.532889999999998
#
# number of rings (size 3 to 8) (size 9 to 14) (size 15 to 20)
#    0.000    2.500    0.000    4.500    0.000    2.500 
#    0.000    5.000    0.000    3.750    0.000    0.000 
#    0.000    0.000    0.000    0.000    0.000    1.000 
#
# Total GULP energy -178440.194377 kJ/mol
# GULP energy per Si atom -5576.256074 kJ/mol
# Density = 1.948843 g / cm^3
# Si number density = 19.532890 Si / 1000 Ang^3
#
#
#
# Elastic Constant Matrix: (Units=GPa)
#
#
# Indices 1 2 3 4 5 6 
#
# 1 67.1128 82.4587 14.2395 0.0000 0.0000 0.0000
# 2 82.4587 151.6676 8.6127 0.0000 0.0000 0.0000
# 3 14.2395 8.6127 37.6667 0.0000 0.0000 0.0000
# 4 0.0000 0.0000 0.0000 -4.1742 0.0000 0.0000
# 5 0.0000 0.0000 0.0000 0.0000 16.6464 0.0000
# 6 0.0000 0.0000 0.0000 0.0000 0.0000 46.2551
#
#
#
# Elastic Compliance Matrix: (Units=1/GPa)
#
#
# Indices 1 2 3 4 5 6 
#
# 1 0.050442 -0.026688 -0.012967 0.000000 0.000000 0.000000
# 2 -0.026688 0.020800 0.005333 0.000000 0.000000 0.000000
# 3 -0.012967 0.005333 0.030231 0.000000 0.000000 0.000000
# 4 0.000000 0.000000 0.000000 -0.239567 0.000000 0.000000
# 5 0.000000 0.000000 0.000000 0.000000 0.060073 0.000000
# 6 0.000000 0.000000 0.000000 0.000000 0.000000 0.021619
#
#
# Mechanical properties :
#
#
# Convention : Reuss Voigt Hill
#
# Bulk Modulus (GPa) = 30.45994 51.89655 41.17824
# Shear Modulus (GPa) = 215.66391 21.82123 118.74257
#
# Velocity S-wave (km/s) = 10.51905 3.34601 7.80532
# Velocity P-wave (km/s) = 12.77348 6.44625 10.11721
#
# Compressibility (1/GPa) = 0.03283000
#
# Stress axis : x y z
#
# Youngs Moduli (GPa) = 19.82485 48.07651 33.07845
#
# Poissons Ratio (x) = 1.28306 0.42892
# Poissons Ratio (y) = 0.52908 -0.17641
# Poissons Ratio (z) = 0.25706 -0.25639
#
# Static dielectric constant tensor:
#      x y z
#    x 1.652780 0.000000 0.000000 
#    y 0.000000 1.691130 0.000000 
#    z 0.000000 0.000000 1.713950 
# 
# From -- ./inp_files/18629.got.cif
#   From: 2010.05.17/outbox.cif.g08.bks.cpg/sg72_10_cif.got.tgz:18629.got - 2010.06.03 17:03:01.
