data_PCOD9527899
_publ_section_title
;
Structure prediction by ZEFSAII (Michael W. Deem and Ramdas Pophale) SiO2 
 PCOD9527899
Probable space group: I B A M
;
_chemical_formula_sum "Si O2"
_cell_formula_units_Z 80
_cell_length_a 14.964703
_cell_length_b 31.214692
_cell_length_c 8.618743
_cell_angle_alpha 90.000000
_cell_angle_beta 90.000000
_cell_angle_gamma 90.000000
_cell_volume 4025.975121
_symmetry_space_group_name_H-M "I B A M"
_symmetry_group_IT_number 72
_symmetry_cell_setting 'orthorhombic'
loop_
_space_group_symop_operation_xyz
x,y,z
-x,-y,z
x,-y,1/2-z
-x,y,1/2-z
-x,-y,-z
x,y,-z
-x,y,1/2+z
x,-y,1/2+z
1/2+x,1/2+y,1/2+z
1/2-x,1/2-y,1/2+z
1/2+x,1/2-y,-z
1/2-x,1/2+y,-z
1/2-x,1/2-y,1/2-z
1/2+x,1/2+y,1/2-z
1/2-x,1/2+y,z
1/2+x,1/2-y,z
loop_
_atom_site_type_symbol
_atom_site_label
_atom_site_fract_x
_atom_site_fract_y
_atom_site_fract_z
Si Si1 0.601545 0.956224 0.314447
Si Si2 0.600171 0.362390 0.187097
Si Si3 0.100808 0.638423 0.686458
Si Si4 0.752865 0.702128 0.313694
Si Si5 0.398426 0.543536 0.814437
O O1 0.500000 0.955631 0.250000
O O2 0.599413 0.959029 0.500000
O O3 0.637308 0.909223 0.269725
O O4 0.643588 0.000000 0.250000
O O5 0.500000 0.357359 0.250000
O O6 0.666056 0.324967 0.238543
O O7 0.636921 0.409647 0.232423
O O8 0.595728 0.361929 0.000000
O O9 0.098914 0.640819 0.500000
O O10 0.162169 0.675539 0.754347
O O11 0.000000 0.641938 0.750000
O O12 0.753898 0.703130 0.500000
O O13 0.750000 0.750000 0.250000
O O14 0.355955 0.500000 0.750000
O O15 0.500000 0.544146 0.750000
O O16 0.400251 0.540715 0.000000
#
# Coordination Sequence:
#
# PCOD9527899 Si02
#       5
#    16  16  16  16  16
#     4   9  16  27  48  78 112 147 185 225 270 327
#     4   9  20  37  58  83 112 146 184 225 274 328
#     4  10  21  38  60  87 116 151 192 234 283 340
#     4  11  24  42  61  83 112 146 187 240 293 344
#     4   9  15  26  46  75 108 142 178 216 260 315
#
# _framework density 19.870961999999999
#
# number of rings (size 3 to 8) (size 9 to 14) (size 15 to 20)
#    0.000    2.400    0.000    3.600    0.000    5.600 
#    0.000    3.000    0.000    4.800    0.000    0.000 
#    0.000    0.000    0.000    0.000    0.000    0.000 
#
# Total GULP energy -223163.489122 kJ/mol
# GULP energy per Si atom -5579.087228 kJ/mol
# Density = 1.982573 g / cm^3
# Si number density = 19.870962 Si / 1000 Ang^3
#
#
#
# Elastic Constant Matrix: (Units=GPa)
#
#
# Indices 1 2 3 4 5 6 
#
# 1 96.4833 83.0720 22.6649 -0.0002 -0.0002 -0.0001
# 2 83.0720 248.5009 62.0107 0.0017 -0.0007 0.0000
# 3 22.6649 62.0107 54.6903 0.0106 -0.0049 -0.0008
# 4 -0.0002 0.0017 0.0106 35.4374 -0.0014 0.0000
# 5 -0.0002 -0.0007 -0.0049 -0.0014 16.6088 0.0002
# 6 -0.0001 0.0000 -0.0008 0.0000 0.0002 43.7072
#
#
#
# Elastic Compliance Matrix: (Units=1/GPa)
#
#
# Indices 1 2 3 4 5 6 
#
# 1 0.014574 -0.004692 -0.000719 0.000001 0.000000 0.000000
# 2 -0.004692 0.007123 -0.006132 0.000001 -0.000002 0.000000
# 3 -0.000719 -0.006132 0.025535 -0.000007 0.000007 0.000000
# 4 0.000001 0.000001 -0.000007 0.028219 0.000002 0.000000
# 5 0.000000 -0.000002 0.000007 0.000002 0.060209 0.000000
# 6 0.000000 0.000000 0.000000 0.000000 0.000000 0.022880
#
#
# Mechanical properties :
#
#
# Convention : Reuss Voigt Hill
#
# Bulk Modulus (GPa) = 41.41598 81.68549 61.55074
# Shear Modulus (GPa) = 26.36109 34.61248 30.48679
#
# Velocity S-wave (km/s) = 3.64622 4.17809 3.92118
# Velocity P-wave (km/s) = 6.21404 8.02947 7.17937
#
# Compressibility (1/GPa) = 0.02414527
#
# Stress axis : x y z
#
# Youngs Moduli (GPa) = 68.61743 140.39366 39.16169
#
# Poissons Ratio (x) = 0.65878 0.02816
# Poissons Ratio (y) = 0.32198 0.24012
# Poissons Ratio (z) = 0.04935 0.86084
#
# Static dielectric constant tensor:
#      x y z
#    x 1.707840 0.000000 0.000000 
#    y 0.000000 1.738180 0.000000 
#    z 0.000000 0.000000 1.669320 
# 
# From -- ./inp_files/5004.got.cif
#   From: 2010.05.17/outbox.cif.g08.bks.cpg/sg72_3_cif.got.tgz:5004.got - 2010.06.03 17:03:01.
