data_PCOD9527809
_publ_section_title
;
Structure prediction by ZEFSAII (Michael W. Deem and Ramdas Pophale) SiO2 
 PCOD9527809
Probable space group: I B A M
;
_chemical_formula_sum "Si O2"
_cell_formula_units_Z 116
_cell_length_a 22.384206
_cell_length_b 27.601822
_cell_length_c 9.242425
_cell_angle_alpha 90.000000
_cell_angle_beta 90.000000
_cell_angle_gamma 90.000000
_cell_volume 5710.384869
_symmetry_space_group_name_H-M "I B A M"
_symmetry_group_IT_number 72
_symmetry_cell_setting 'orthorhombic'
loop_
_space_group_symop_operation_xyz
x,y,z
-x,-y,z
x,-y,1/2-z
-x,y,1/2-z
-x,-y,-z
x,y,-z
-x,y,1/2+z
x,-y,1/2+z
1/2+x,1/2+y,1/2+z
1/2-x,1/2-y,1/2+z
1/2+x,1/2-y,-z
1/2-x,1/2+y,-z
1/2-x,1/2-y,1/2-z
1/2+x,1/2+y,1/2-z
1/2-x,1/2+y,z
1/2+x,1/2-y,z
loop_
_atom_site_type_symbol
_atom_site_label
_atom_site_fract_x
_atom_site_fract_y
_atom_site_fract_z
Si Si1 0.629930 0.180747 0.671138
Si Si2 0.935695 0.048335 0.827086
Si Si3 0.768225 0.847218 0.163466
Si Si4 0.229424 0.456395 0.666540
Si Si5 0.616317 0.346241 0.331044
Si Si6 0.559776 0.260648 0.171578
Si Si7 0.601782 0.924687 0.830921
Si Si8 0.500000 0.000000 0.250000
O O1 0.616770 0.189878 0.500000
O O2 0.700959 0.171729 0.683254
O O3 0.610682 0.224936 0.769949
O O4 0.596394 0.130880 0.720815
O O5 0.897165 0.096971 0.808200
O O6 0.000000 0.056435 0.750000
O O7 0.910974 0.000000 0.750000
O O8 0.942889 0.040482 0.000000
O O9 0.762201 0.905379 0.170728
O O10 0.816836 0.832956 0.280903
O O11 0.788073 0.833919 0.000000
O O12 0.259338 0.500000 0.750000
O O13 0.223193 0.471198 0.500000
O O14 0.162956 0.446776 0.732350
O O15 0.606722 0.335135 0.500000
O O16 0.573574 0.313994 0.231839
O O17 0.500000 0.242907 0.250000
O O18 0.554380 0.260094 0.000000
O O19 0.546637 0.961596 0.820311
O O20 0.615446 0.917946 0.000000
#
# Coordination Sequence:
#
# PCOD9527809 Si02
#       8
#    16  16  16  16  16  16  16   4
#     4   9  20  42  64  85 120 162 206 256 307 361
#     4  10  21  37  60  90 124 163 201 244 298 357
#     4   9  20  38  61  85 117 161 202 249 307 362
#     4   9  17  33  52  75 110 153 197 243 297 353
#     4  11  24  41  63  93 126 159 202 252 298 358
#     4  12  26  44  67  94 122 158 200 245 304 363
#     4   9  19  33  50  77 116 155 195 247 303 356
#     4  12  18  28  52  86 116 156 206 248 306 356
#
# _framework density 20.313866999999998
#
# number of rings (size 3 to 8) (size 9 to 14) (size 15 to 20)
#    0.000    2.069    0.690    4.759    0.966    5.517 
#    0.000    5.517    0.000    0.000    0.000    0.000 
#    0.000    0.000    0.000    0.000    0.000    0.000 
#
# Total GULP energy -323481.625672 kJ/mol
# GULP energy per Si atom -5577.269408 kJ/mol
# Density = 2.026763 g / cm^3
# Si number density = 20.313867 Si / 1000 Ang^3
#
#
#
# Elastic Constant Matrix: (Units=GPa)
#
#
# Indices 1 2 3 4 5 6 
#
# 1 56.4079 12.6059 35.8801 0.0000 0.0000 0.0000
# 2 12.6059 85.4408 52.2098 0.0000 0.0000 0.0000
# 3 35.8801 52.2098 119.5012 0.0000 0.0000 0.0000
# 4 0.0000 0.0000 0.0000 30.9569 0.0000 0.0000
# 5 0.0000 0.0000 0.0000 0.0000 17.8119 0.0000
# 6 0.0000 0.0000 0.0000 0.0000 0.0000 2.8870
#
#
#
# Elastic Compliance Matrix: (Units=1/GPa)
#
#
# Indices 1 2 3 4 5 6 
#
# 1 0.021986 0.001078 -0.007072 0.000000 0.000000 0.000000
# 2 0.001078 0.016020 -0.007322 0.000000 0.000000 0.000000
# 3 -0.007072 -0.007322 0.013691 0.000000 0.000000 0.000000
# 4 0.000000 0.000000 0.000000 0.032303 0.000000 0.000000
# 5 0.000000 0.000000 0.000000 0.000000 0.056142 0.000000
# 6 0.000000 0.000000 0.000000 0.000000 0.000000 0.346376
#
#
# Mechanical properties :
#
#
# Convention : Reuss Voigt Hill
#
# Bulk Modulus (GPa) = 39.90073 51.41572 45.65823
# Shear Modulus (GPa) = 9.58765 21.04144 15.31454
#
# Velocity S-wave (km/s) = 2.17486 3.22190 2.74870
# Velocity P-wave (km/s) = 5.09818 6.26151 5.70955
#
# Compressibility (1/GPa) = 0.02506220
#
# Stress axis : x y z
#
# Youngs Moduli (GPa) = 45.48442 62.42391 73.04260
#
# Poissons Ratio (x) = -0.06727 0.51656
# Poissons Ratio (y) = -0.04902 0.53485
# Poissons Ratio (z) = 0.32166 0.45710
#
# Static dielectric constant tensor:
#      x y z
#    x 1.749660 0.000000 0.000000 
#    y 0.000000 1.752070 0.000000 
#    z 0.000000 0.000000 1.687900 
# 
# From -- ./inp_files/7281.got.cif
#   From: 2010.05.17/outbox.cif.g08.bks.cpg/sg72_4_cif.got.tgz:7281.got - 2010.06.03 17:03:01.
