data_PCOD9527543
_publ_section_title
;
Structure prediction by ZEFSAII (Michael W. Deem and Ramdas Pophale) SiO2 
 PCOD9527543
Probable space group: I B A M
;
_chemical_formula_sum "Si O2"
_cell_formula_units_Z 112
_cell_length_a 14.054903
_cell_length_b 28.166016
_cell_length_c 13.829036
_cell_angle_alpha 90.000000
_cell_angle_beta 90.000000
_cell_angle_gamma 90.000000
_cell_volume 5474.509094
_symmetry_space_group_name_H-M "I B A M"
_symmetry_group_IT_number 72
_symmetry_cell_setting 'orthorhombic'
loop_
_space_group_symop_operation_xyz
x,y,z
-x,-y,z
x,-y,1/2-z
-x,y,1/2-z
-x,-y,-z
x,y,-z
-x,y,1/2+z
x,-y,1/2+z
1/2+x,1/2+y,1/2+z
1/2-x,1/2-y,1/2+z
1/2+x,1/2-y,-z
1/2-x,1/2+y,-z
1/2-x,1/2-y,1/2-z
1/2+x,1/2+y,1/2-z
1/2-x,1/2+y,z
1/2+x,1/2-y,z
loop_
_atom_site_type_symbol
_atom_site_label
_atom_site_fract_x
_atom_site_fract_y
_atom_site_fract_z
Si Si1 0.953255 0.352567 0.384936
Si Si2 0.628146 0.318424 0.390587
Si Si3 0.042189 0.242743 0.109645
Si Si4 0.018509 0.944234 0.886274
Si Si5 0.650250 0.401747 0.759985
Si Si6 0.245071 0.728454 0.855279
Si Si7 0.653840 0.128740 0.306603
O O1 0.929641 0.355217 0.500000
O O2 0.960971 0.296717 0.354554
O O3 0.876066 0.370359 0.307143
O O4 0.053762 0.378503 0.362687
O O5 0.618269 0.339675 0.500000
O O6 0.531374 0.294895 0.351406
O O7 0.657102 0.352825 0.302679
O O8 0.696079 0.273266 0.404426
O O9 0.147707 0.222466 0.110701
O O10 0.009146 0.248186 0.000000
O O11 0.934996 0.911600 0.837398
O O12 0.115781 0.935380 0.827493
O O13 0.023506 0.934544 0.000000
O O14 0.000000 0.000000 0.873773
O O15 0.753300 0.405044 0.810775
O O16 0.250000 0.750000 0.750000
O O17 0.188685 0.679474 0.850170
#
# Coordination Sequence:
#
# PCOD9527543 Si02
#       7
#    16  16  16  16  16  16  16
#     4  10  21  39  55  74 112 164 215 259 304 351
#     4  11  23  36  52  80 117 162 214 263 306 350
#     4  10  21  33  48  67 100 156 213 255 296 338
#     4  10  24  47  71  97 129 160 189 235 316 403
#     4  11  22  38  62  94 125 153 198 256 306 364
#     4  12  21  33  48  73 109 165 213 268 304 340
#     4  11  23  36  56  84 115 160 214 261 310 356
#
# _framework density 20.458455000000001
#
# number of rings (size 3 to 8) (size 9 to 14) (size 15 to 20)
#    0.000    1.286    4.286    1.714    4.000    4.000 
#    0.000    0.000    0.000    0.000    0.000    8.000 
#    0.000   13.714    0.000    0.000    0.000    0.000 
#
# Total GULP energy -311932.679381 kJ/mol
# GULP energy per Si atom -5570.226418 kJ/mol
# Density = 2.041189 g / cm^3
# Si number density = 20.458455 Si / 1000 Ang^3
#
#
#
# Elastic Constant Matrix: (Units=GPa)
#
#
# Indices 1 2 3 4 5 6 
#
# 1 65.2046 18.7571 -34.9617 0.0003 0.0000 0.0001
# 2 18.7571 37.8165 8.0644 0.0022 0.0000 -0.0001
# 3 -34.9617 8.0644 83.6570 0.0047 0.0000 0.0002
# 4 0.0003 0.0022 0.0047 302.4088 0.0005 -0.0005
# 5 0.0000 0.0000 0.0000 0.0005 26.2543 0.0001
# 6 0.0001 -0.0001 0.0002 -0.0005 0.0001 -14.3109
#
#
#
# Elastic Compliance Matrix: (Units=1/GPa)
#
#
# Indices 1 2 3 4 5 6 
#
# 1 0.026756 -0.015984 0.012723 0.000000 0.000000 0.000000
# 2 -0.015984 0.036548 -0.010203 0.000000 0.000000 -0.000001
# 3 0.012723 -0.010203 0.018254 0.000000 0.000000 0.000000
# 4 0.000000 0.000000 0.000000 0.003307 0.000000 0.000000
# 5 0.000000 0.000000 0.000000 0.000000 0.038089 0.000000
# 6 0.000000 -0.000001 0.000000 0.000000 0.000000 -0.069877
#
#
# Mechanical properties :
#
#
# Convention : Reuss Voigt Hill
#
# Bulk Modulus (GPa) = 18.30552 18.93310 18.61931
# Shear Modulus (GPa) = 50.90807 75.85833 63.38320
#
# Velocity S-wave (km/s) = 4.99376 6.09588 5.57213
# Velocity P-wave (km/s) = 6.49748 7.66947 7.10767
#
# Compressibility (1/GPa) = 0.05462833
#
# Stress axis : x y z
#
# Youngs Moduli (GPa) = 37.37450 27.36155 54.78191
#
# Poissons Ratio (x) = 0.43736 -0.69698
# Poissons Ratio (y) = 0.59741 0.55895
# Poissons Ratio (z) = -0.47551 0.27918
#
# Static dielectric constant tensor:
#      x y z
#    x 1.954170 0.000000 0.000000 
#    y 0.000000 1.751920 0.000000 
#    z 0.000000 0.000000 3.422120 
# 
# From -- ./inp_files/22279.got.cif
#   From: 2010.05.17/outbox.cif.g08.bks.cpg/sg72_12_cif.got.tgz:22279.got - 2010.06.03 17:03:01.
