data_PCOD9527244
_publ_section_title
;
Structure prediction by ZEFSAII (Michael W. Deem and Ramdas Pophale) SiO2 
 PCOD9527244
Probable space group: I B A M
;
_chemical_formula_sum "Si O2"
_cell_formula_units_Z 96
_cell_length_a 14.000800
_cell_length_b 22.210501
_cell_length_c 14.825141
_cell_angle_alpha 90.000000
_cell_angle_beta 90.000000
_cell_angle_gamma 90.000000
_cell_volume 4610.096745
_symmetry_space_group_name_H-M "I B A M"
_symmetry_group_IT_number 72
_symmetry_cell_setting 'orthorhombic'
loop_
_space_group_symop_operation_xyz
x,y,z
-x,-y,z
x,-y,1/2-z
-x,y,1/2-z
-x,-y,-z
x,y,-z
-x,y,1/2+z
x,-y,1/2+z
1/2+x,1/2+y,1/2+z
1/2-x,1/2-y,1/2+z
1/2+x,1/2-y,-z
1/2-x,1/2+y,-z
1/2-x,1/2-y,1/2-z
1/2+x,1/2+y,1/2-z
1/2-x,1/2+y,z
1/2+x,1/2-y,z
loop_
_atom_site_type_symbol
_atom_site_label
_atom_site_fract_x
_atom_site_fract_y
_atom_site_fract_z
Si Si1 0.336073 0.355190 0.900039
Si Si2 0.541766 0.670207 0.653152
Si Si3 0.851172 0.465548 0.109612
Si Si4 0.847503 0.287977 0.393244
Si Si5 0.162509 0.935649 0.277303
Si Si6 0.448989 0.091697 0.609610
O O1 0.445843 0.335138 0.904403
O O2 0.264059 0.300780 0.877262
O O3 0.323972 0.401262 0.817881
O O4 0.307937 0.378970 0.000000
O O5 0.500000 0.685847 0.750000
O O6 0.615275 0.722773 0.632119
O O7 0.593934 0.606295 0.662953
O O8 0.758712 0.447214 0.166061
O O9 0.883893 0.533826 0.132515
O O10 0.942167 0.423875 0.134841
O O11 0.836784 0.462018 0.000000
O O12 0.861542 0.291054 0.500000
O O13 0.906804 0.345307 0.355473
O O14 0.120575 0.000000 0.250000
O O15 0.449294 0.093149 0.500000
#
# Coordination Sequence:
#
# PCOD9527244 Si02
#       6
#    16  16  16  16  16  16
#     4  10  23  43  63  85 119 160 198 243 300 360
#     4  10  24  41  59  85 118 153 200 255 301 355
#     4   9  18  35  61  93 127 160 200 253 307 359
#     4  10  20  37  62  88 118 158 198 240 300 369
#     4  11  24  41  61  89 121 156 204 255 299 354
#     4   8  16  33  58  91 128 162 198 244 303 370
#
# _framework density 20.823858000000001
#
# number of rings (size 3 to 8) (size 9 to 14) (size 15 to 20)
#    0.000    2.333    0.000    2.500    0.000   11.667 
#    0.000    9.167    0.000    0.000    0.000    2.333 
#    0.000    0.000    0.000    0.000    0.000    0.000 
#
# Total GULP energy -267910.892161 kJ/mol
# GULP energy per Si atom -5581.476920 kJ/mol
# Density = 2.077646 g / cm^3
# Si number density = 20.823858 Si / 1000 Ang^3
#
#
#
# Elastic Constant Matrix: (Units=GPa)
#
#
# Indices 1 2 3 4 5 6 
#
# 1 150.4958 96.5236 37.4984 0.0000 0.0000 0.0000
# 2 96.5236 151.1643 25.1330 0.0003 -0.0002 -0.0001
# 3 37.4984 25.1330 63.1253 0.0004 -0.0003 -0.0002
# 4 0.0000 0.0003 0.0004 -17.2481 -0.0003 -0.0001
# 5 0.0000 -0.0002 -0.0003 -0.0003 16.3579 0.0002
# 6 0.0000 -0.0001 -0.0002 -0.0001 0.0002 24.3975
#
#
#
# Elastic Compliance Matrix: (Units=1/GPa)
#
#
# Indices 1 2 3 4 5 6 
#
# 1 0.012337 -0.007131 -0.004489 0.000000 0.000000 0.000000
# 2 -0.007131 0.011206 -0.000226 0.000000 0.000000 0.000000
# 3 -0.004489 -0.000226 0.018598 0.000000 0.000000 0.000000
# 4 0.000000 0.000000 0.000000 -0.057977 -0.000001 0.000000
# 5 0.000000 0.000000 0.000000 -0.000001 0.061133 0.000000
# 6 0.000000 0.000000 0.000000 0.000000 0.000000 0.040988
#
#
# Mechanical properties :
#
#
# Convention : Reuss Voigt Hill
#
# Bulk Modulus (GPa) = 54.20275 75.89950 65.05112
# Shear Modulus (GPa) = 43.05647 18.41015 30.73331
#
# Velocity S-wave (km/s) = 4.55208 2.97659 3.84587
# Velocity P-wave (km/s) = 7.32900 6.95276 7.14336
#
# Compressibility (1/GPa) = 0.01844925
#
# Stress axis : x y z
#
# Youngs Moduli (GPa) = 81.05665 89.23509 53.76887
#
# Poissons Ratio (x) = 0.63636 0.24139
# Poissons Ratio (y) = 0.57803 0.01213
# Poissons Ratio (z) = 0.36389 0.02013
#
# Static dielectric constant tensor:
#      x y z
#    x 1.777710 0.000000 0.000000 
#    y 0.000000 1.755550 0.000000 
#    z 0.000000 0.000000 1.795350 
# 
# From -- ./inp_files/21794.got.cif
#   From: 2010.05.17/outbox.cif.g08.bks.cpg/sg72_11_cif.got.tgz:21794.got - 2010.06.03 17:03:01.
