data_PCOD9527937
_publ_section_title
;
Structure prediction by ZEFSAII (Michael W. Deem and Ramdas Pophale) SiO2 
 PCOD9527937
Probable space group: I B A M
;
_chemical_formula_sum "Si O2"
_cell_formula_units_Z 112
_cell_length_a 12.945060
_cell_length_b 13.588143
_cell_length_c 28.682959
_cell_angle_alpha 90.000000
_cell_angle_beta 90.000000
_cell_angle_gamma 90.000000
_cell_volume 5045.313168
_symmetry_space_group_name_H-M "I B A M"
_symmetry_group_IT_number 72
_symmetry_cell_setting 'orthorhombic'
loop_
_space_group_symop_operation_xyz
x,y,z
-x,-y,z
x,-y,1/2-z
-x,y,1/2-z
-x,-y,-z
x,y,-z
-x,y,1/2+z
x,-y,1/2+z
1/2+x,1/2+y,1/2+z
1/2-x,1/2-y,1/2+z
1/2+x,1/2-y,-z
1/2-x,1/2+y,-z
1/2-x,1/2-y,1/2-z
1/2+x,1/2+y,1/2-z
1/2-x,1/2+y,z
1/2+x,1/2-y,z
loop_
_atom_site_type_symbol
_atom_site_label
_atom_site_fract_x
_atom_site_fract_y
_atom_site_fract_z
Si Si1 0.071184 0.307622 0.623125
Si Si2 0.074171 0.908377 0.865908
Si Si3 0.258482 0.292789 0.447490
Si Si4 0.391102 0.174345 0.770046
Si Si5 0.089884 0.392365 0.053748
Si Si6 0.295443 0.509193 0.446819
Si Si7 0.178141 0.896186 0.229081
O O1 0.021700 0.198842 0.631981
O O2 0.171516 0.288858 0.591494
O O3 0.105778 0.342363 0.674266
O O4 0.995307 0.376134 0.593147
O O5 0.130708 0.930237 0.914089
O O6 0.161803 0.903999 0.826173
O O7 0.000000 0.000000 0.855393
O O8 0.212419 0.294581 0.500000
O O9 0.337101 0.203472 0.444877
O O10 0.319592 0.394692 0.442059
O O11 0.500000 0.141237 0.750000
O O12 0.294603 0.120393 0.746453
O O13 0.377581 0.292057 0.759051
O O14 0.173490 0.477644 0.063562
O O15 0.050921 0.401184 0.000000
O O16 0.308884 0.541033 0.500000
O O17 0.138925 0.000000 0.250000
#
# Coordination Sequence:
#
# PCOD9527937 Si02
#       7
#    16  16  16  16  16  16  16
#     4  11  23  38  65  93 126 169 216 268 318 398
#     4  11  24  40  65 101 124 168 221 270 331 387
#     4  10  21  39  61  88 129 173 211 260 326 388
#     4  10  25  44  65  97 130 172 220 275 335 392
#     4  10  21  38  62  91 130 174 213 266 326 384
#     4  10  22  39  61  92 132 171 213 268 322 388
#     4  10  25  44  68  95 131 174 214 277 331 395
#
# _framework density 22.198822
#
# number of rings (size 3 to 8) (size 9 to 14) (size 15 to 20)
#    0.000    1.714    1.429    1.286    8.000    2.857 
#    0.000    3.571    0.000    0.000    0.000    0.000 
#    0.000    0.000    0.000    0.000    0.000    0.000 
#
# Total GULP energy -312998.432426 kJ/mol
# GULP energy per Si atom -5589.257722 kJ/mol
# Density = 2.214830 g / cm^3
# Si number density = 22.198822 Si / 1000 Ang^3
#
#
#
# Elastic Constant Matrix: (Units=GPa)
#
#
# Indices 1 2 3 4 5 6 
#
# 1 85.0751 2.6490 60.1242 0.0000 0.0000 0.0000
# 2 2.6490 71.0310 12.8472 0.0000 0.0000 0.0000
# 3 60.1242 12.8472 106.6813 0.0000 0.0000 0.0000
# 4 0.0000 0.0000 0.0000 15.4529 0.0000 0.0000
# 5 0.0000 0.0000 0.0000 0.0000 30.6611 0.0000
# 6 0.0000 0.0000 0.0000 0.0000 0.0000 24.4853
#
#
#
# Elastic Compliance Matrix: (Units=1/GPa)
#
#
# Indices 1 2 3 4 5 6 
#
# 1 0.019652 0.001299 -0.011232 0.000000 0.000000 0.000000
# 2 0.001299 0.014478 -0.002475 0.000000 0.000000 0.000000
# 3 -0.011232 -0.002475 0.016002 0.000000 0.000000 0.000000
# 4 0.000000 0.000000 0.000000 0.064713 0.000000 0.000000
# 5 0.000000 0.000000 0.000000 0.000000 0.032615 0.000000
# 6 0.000000 0.000000 0.000000 0.000000 0.000000 0.040841
#
#
# Mechanical properties :
#
#
# Convention : Reuss Voigt Hill
#
# Bulk Modulus (GPa) = 39.50374 46.00314 42.75344
# Shear Modulus (GPa) = 22.56783 26.59766 24.58274
#
# Velocity S-wave (km/s) = 3.19191 3.46519 3.33136
# Velocity P-wave (km/s) = 5.60522 6.06451 5.83938
#
# Compressibility (1/GPa) = 0.02531406
#
# Stress axis : x y z
#
# Youngs Moduli (GPa) = 50.88651 69.07202 62.49269
#
# Poissons Ratio (x) = -0.08970 0.70190
# Poissons Ratio (y) = -0.06608 0.15469
# Poissons Ratio (z) = 0.57154 0.17098
#
# Static dielectric constant tensor:
#      x y z
#    x 1.794050 0.000000 0.000000 
#    y 0.000000 1.874720 0.000000 
#    z 0.000000 0.000000 1.776630 
# 
# From -- ./inp_files/44358.got.cif
#   From: 2010.05.17/outbox.cif.g08.bks.cpg/sg72_23_cif.got.tgz:44358.got - 2010.06.03 17:03:01.
