data_PCOD9527056
_publ_section_title
;
Structure prediction by ZEFSAII (Michael W. Deem and Ramdas Pophale) SiO2 
 PCOD9527056
Probable space group: I B A M
;
_chemical_formula_sum "Si O2"
_cell_formula_units_Z 96
_cell_length_a 16.985555
_cell_length_b 18.340671
_cell_length_c 15.369649
_cell_angle_alpha 90.000000
_cell_angle_beta 90.000000
_cell_angle_gamma 90.000000
_cell_volume 4788.052590
_symmetry_space_group_name_H-M "I B A M"
_symmetry_group_IT_number 72
_symmetry_cell_setting 'orthorhombic'
loop_
_space_group_symop_operation_xyz
x,y,z
-x,-y,z
x,-y,1/2-z
-x,y,1/2-z
-x,-y,-z
x,y,-z
-x,y,1/2+z
x,-y,1/2+z
1/2+x,1/2+y,1/2+z
1/2-x,1/2-y,1/2+z
1/2+x,1/2-y,-z
1/2-x,1/2+y,-z
1/2-x,1/2-y,1/2-z
1/2+x,1/2+y,1/2-z
1/2-x,1/2+y,z
1/2+x,1/2-y,z
loop_
_atom_site_type_symbol
_atom_site_label
_atom_site_fract_x
_atom_site_fract_y
_atom_site_fract_z
Si Si1 0.671359 0.455408 0.603593
Si Si2 0.912250 0.303223 0.758926
Si Si3 0.369602 0.384089 0.603274
Si Si4 0.035011 0.145226 0.331274
Si Si5 0.702730 0.843640 0.397171
Si Si6 0.713021 0.805750 0.898551
O O1 0.681171 0.462294 0.500000
O O2 0.644021 0.534062 0.638206
O O3 0.600286 0.399974 0.620272
O O4 0.752880 0.417544 0.633047
O O5 0.928429 0.219045 0.790403
O O6 0.865156 0.318308 0.669459
O O7 0.857249 0.330895 0.837109
O O8 0.000000 0.334865 0.750000
O O9 0.360413 0.387957 0.500000
O O10 0.454208 0.346171 0.615696
O O11 0.295078 0.338823 0.635766
O O12 0.000000 0.100674 0.250000
O O13 0.678199 0.848333 0.500000
O O14 0.769479 0.780537 0.394787
O O15 0.699645 0.824645 0.000000
#
# Coordination Sequence:
#
# PCOD9527056 Si02
#       6
#    16  16  16  16  16  16
#     4  10  21  38  59  84 120 164 206 247 298 367
#     4  11  23  37  59  87 120 156 202 260 307 359
#     4  10  22  38  58  87 123 162 201 247 303 371
#     4  11  22  34  53  87 124 158 191 237 302 373
#     4  10  21  39  62  84 115 164 213 255 305 362
#     4  10  20  36  59  85 117 157 201 246 303 365
#
# _framework density 20.049904999999999
#
# number of rings (size 3 to 8) (size 9 to 14) (size 15 to 20)
#    0.000    1.667    1.667    3.500    2.333    4.000 
#    0.000    2.500    0.000    2.000    0.000    4.667 
#    0.000    0.000    0.000    0.000    0.000    0.000 
#
# Total GULP energy -267316.088343 kJ/mol
# GULP energy per Si atom -5569.085174 kJ/mol
# Density = 2.000427 g / cm^3
# Si number density = 20.049905 Si / 1000 Ang^3
#
#
#
# Elastic Constant Matrix: (Units=GPa)
#
#
# Indices 1 2 3 4 5 6 
#
# 1 150.0226 35.2074 63.8133 0.0000 0.0000 0.0000
# 2 35.2074 62.8955 11.5026 0.0000 0.0000 0.0000
# 3 63.8133 11.5026 75.0088 0.0000 0.0000 0.0000
# 4 0.0000 0.0000 0.0000 -168.3171 0.0000 0.0000
# 5 0.0000 0.0000 0.0000 0.0000 38.4308 0.0000
# 6 0.0000 0.0000 0.0000 0.0000 0.0000 19.1006
#
#
#
# Elastic Compliance Matrix: (Units=1/GPa)
#
#
# Indices 1 2 3 4 5 6 
#
# 1 0.011742 -0.004883 -0.009241 0.000000 0.000000 0.000000
# 2 -0.004883 0.018389 0.001334 0.000000 0.000000 0.000000
# 3 -0.009241 0.001334 0.020989 0.000000 0.000000 0.000000
# 4 0.000000 0.000000 0.000000 -0.005941 0.000000 0.000000
# 5 0.000000 0.000000 0.000000 0.000000 0.026021 0.000000
# 6 0.000000 0.000000 0.000000 0.000000 0.000000 0.052354
#
#
# Mechanical properties :
#
#
# Convention : Reuss Voigt Hill
#
# Bulk Modulus (GPa) = 39.15330 56.55261 47.85295
# Shear Modulus (GPa) = 31.71650 -10.33023 10.69313
#
# Velocity S-wave (km/s) = 3.98160 -2.27232 2.31189
# Velocity P-wave (km/s) = 6.38027 4.62413 5.57182
#
# Compressibility (1/GPa) = 0.02554063
#
# Stress axis : x y z
#
# Youngs Moduli (GPa) = 85.16216 54.38093 47.64450
#
# Poissons Ratio (x) = 0.26555 0.44028
# Poissons Ratio (y) = 0.41585 -0.06357
# Poissons Ratio (z) = 0.78697 -0.07256
#
# Static dielectric constant tensor:
#      x y z
#    x 1.743840 0.000000 0.000000 
#    y 0.000000 1.776140 0.000000 
#    z 0.000000 0.000000 1.791610 
# 
# From -- ./inp_files/21768.got.cif
#   From: 2010.05.17/outbox.cif.g08.bks.cpg/sg72_11_cif.got.tgz:21768.got - 2010.06.03 17:03:01.
