data_PCOD9527237
_publ_section_title
;
Structure prediction by ZEFSAII (Michael W. Deem and Ramdas Pophale) SiO2 
 PCOD9527237
Probable space group: I B A M
;
_chemical_formula_sum "Si O2"
_cell_formula_units_Z 56
_cell_length_a 21.054696
_cell_length_b 7.952168
_cell_length_c 14.708878
_cell_angle_alpha 90.000000
_cell_angle_beta 90.000000
_cell_angle_gamma 90.000000
_cell_volume 2462.714501
_symmetry_space_group_name_H-M "I B A M"
_symmetry_group_IT_number 72
_symmetry_cell_setting 'orthorhombic'
loop_
_space_group_symop_operation_xyz
x,y,z
-x,-y,z
x,-y,1/2-z
-x,y,1/2-z
-x,-y,-z
x,y,-z
-x,y,1/2+z
x,-y,1/2+z
1/2+x,1/2+y,1/2+z
1/2-x,1/2-y,1/2+z
1/2+x,1/2-y,-z
1/2-x,1/2+y,-z
1/2-x,1/2-y,1/2-z
1/2+x,1/2+y,1/2-z
1/2-x,1/2+y,z
1/2+x,1/2-y,z
loop_
_atom_site_type_symbol
_atom_site_label
_atom_site_fract_x
_atom_site_fract_y
_atom_site_fract_z
Si Si1 0.694004 0.164955 0.693787
Si Si2 0.175249 0.449411 0.500000
Si Si3 0.107142 0.217566 0.000000
Si Si4 0.965298 0.270361 0.000000
Si Si5 0.411916 0.443773 0.847376
O O1 0.750000 0.250000 0.750000
O O2 0.710175 0.103000 0.592120
O O3 0.643171 0.311229 0.677245
O O4 0.670867 0.000000 0.750000
O O5 0.162251 0.646915 0.500000
O O6 0.103329 0.366069 0.500000
O O7 0.110120 0.097164 0.088183
O O8 0.039438 0.321603 0.000000
O O9 0.960774 0.158396 0.909484
O O10 0.435075 0.500000 0.750000
#
# Coordination Sequence:
#
# PCOD9527237 Si02
#       5
#    16   8   8   8  16
#     4  11  24  43  65  91 123 167 221 272 329 394
#     4  10  23  42  63  93 133 168 211 274 326 378
#     4  11  21  39  66  94 128 170 211 260 325 393
#     4   9  21  37  61  95 127 168 214 254 315 391
#     4  10  20  37  61  92 127 163 208 263 316 386
#
# _framework density 22.739134
#
# number of rings (size 3 to 8) (size 9 to 14) (size 15 to 20)
#    0.000    1.714    0.000    5.571    0.000    3.429 
#    0.000    8.571    0.000    5.143    0.000    0.000 
#    0.000    0.000    0.000    0.000    0.000    0.000 
#
# Total GULP energy -156405.551898 kJ/mol
# GULP energy per Si atom -5585.912568 kJ/mol
# Density = 2.268738 g / cm^3
# Si number density = 22.739134 Si / 1000 Ang^3
#
#
#
# Elastic Constant Matrix: (Units=GPa)
#
#
# Indices 1 2 3 4 5 6 
#
# 1 86.9263 43.1858 43.2444 0.0000 0.0000 0.0000
# 2 43.1858 80.4734 52.3116 0.0000 0.0000 0.0000
# 3 43.2444 52.3116 233.9240 0.0000 0.0000 0.0000
# 4 0.0000 0.0000 0.0000 36.6812 0.0000 0.0000
# 5 0.0000 0.0000 0.0000 0.0000 -20.5147 0.0000
# 6 0.0000 0.0000 0.0000 0.0000 0.0000 34.1073
#
#
#
# Elastic Compliance Matrix: (Units=1/GPa)
#
#
# Indices 1 2 3 4 5 6 
#
# 1 0.015975 -0.007785 -0.001212 0.000000 0.000000 0.000000
# 2 -0.007785 0.018334 -0.002661 0.000000 0.000000 0.000000
# 3 -0.001212 -0.002661 0.005094 0.000000 0.000000 0.000000
# 4 0.000000 0.000000 0.000000 0.027262 0.000000 0.000000
# 5 0.000000 0.000000 0.000000 0.000000 -0.048745 0.000000
# 6 0.000000 0.000000 0.000000 0.000000 0.000000 0.029319
#
#
# Mechanical properties :
#
#
# Convention : Reuss Voigt Hill
#
# Bulk Modulus (GPa) = 62.16258 75.42303 68.79280
# Shear Modulus (GPa) = 65.86256 27.56024 46.71140
#
# Velocity S-wave (km/s) = 5.38770 3.48518 4.53728
# Velocity P-wave (km/s) = 8.13017 7.03108 7.60052
#
# Compressibility (1/GPa) = 0.01608685
#
# Stress axis : x y z
#
# Youngs Moduli (GPa) = 62.59950 54.54432 196.30844
#
# Poissons Ratio (x) = 0.42461 0.23798
# Poissons Ratio (y) = 0.48732 0.52234
# Poissons Ratio (z) = 0.07589 0.14513
#
# Static dielectric constant tensor:
#      x y z
#    x 1.899230 0.000000 0.000000 
#    y 0.000000 1.861270 0.000000 
#    z 0.000000 0.000000 1.796560 
# 
# From -- ./inp_files/18595.got.cif
#   From: 2010.05.17/outbox.cif.g08.bks.cpg/sg72_10_cif.got.tgz:18595.got - 2010.06.03 17:03:01.
