data_PCOD9527228
_publ_section_title
;
Structure prediction by ZEFSAII (Michael W. Deem and Ramdas Pophale) SiO2 
 PCOD9527228
Probable space group: I B A M
;
_chemical_formula_sum "Si O2"
_cell_formula_units_Z 96
_cell_length_a 12.679003
_cell_length_b 22.493524
_cell_length_c 18.294236
_cell_angle_alpha 90.000000
_cell_angle_beta 90.000000
_cell_angle_gamma 90.000000
_cell_volume 5217.433020
_symmetry_space_group_name_H-M "I B A M"
_symmetry_group_IT_number 72
_symmetry_cell_setting 'orthorhombic'
loop_
_space_group_symop_operation_xyz
x,y,z
-x,-y,z
x,-y,1/2-z
-x,y,1/2-z
-x,-y,-z
x,y,-z
-x,y,1/2+z
x,-y,1/2+z
1/2+x,1/2+y,1/2+z
1/2-x,1/2-y,1/2+z
1/2+x,1/2-y,-z
1/2-x,1/2+y,-z
1/2-x,1/2-y,1/2-z
1/2+x,1/2+y,1/2-z
1/2-x,1/2+y,z
1/2+x,1/2-y,z
loop_
_atom_site_type_symbol
_atom_site_label
_atom_site_fract_x
_atom_site_fract_y
_atom_site_fract_z
Si Si1 0.645672 0.064515 0.784905
Si Si2 0.688600 0.353444 0.346138
Si Si3 0.455503 0.122206 0.850426
Si Si4 0.500000 0.324101 0.750000
Si Si5 0.147199 0.662528 0.000000
Si Si6 0.628647 0.291586 0.000000
Si Si7 0.110667 0.806755 0.000000
Si Si8 0.878868 0.270665 0.655375
O O1 0.744052 0.087583 0.831311
O O2 0.542972 0.070819 0.837034
O O3 0.624600 0.109232 0.715993
O O4 0.657154 0.000000 0.750000
O O5 0.579088 0.357765 0.303346
O O6 0.662611 0.335152 0.428663
O O7 0.769401 0.300918 0.320769
O O8 0.526919 0.181119 0.841348
O O9 0.399192 0.131092 0.927785
O O10 0.578578 0.283389 0.797398
O O11 0.119539 0.734003 0.000000
O O12 0.273807 0.663349 0.000000
O O13 0.513592 0.320236 0.000000
O O14 0.635459 0.251281 0.072365
#
# Coordination Sequence:
#
# PCOD9527228 Si02
#       8
#    16  16  16   8   8   8   8  16
#     4  10  23  43  64  86 117 157 215 286 323 353
#     4  11  23  36  59  84 120 169 212 249 317 372
#     4  10  20  37  61  89 122 158 206 255 324 375
#     4  12  22  32  53  86 123 158 208 246 302 390
#     4  12  22  34  58  92 130 168 203 240 307 399
#     4  12  22  34  54  77 140 168 194 231 293 360
#     4  12  22  38  53  89 131 173 203 245 295 389
#     4  11  20  33  52  87 122 166 197 243 297 391
#
# _framework density 18.399854000000001
#
# number of rings (size 3 to 8) (size 9 to 14) (size 15 to 20)
#    0.000    1.000    5.000    3.500    2.333    2.000 
#    0.000    2.917    0.000    0.000    0.000    2.333 
#    0.000    0.000    0.000    0.000    0.000    0.000 
#
# Total GULP energy -267752.270071 kJ/mol
# GULP energy per Si atom -5578.172293 kJ/mol
# Density = 1.835797 g / cm^3
# Si number density = 18.399854 Si / 1000 Ang^3
#
#
#
# Elastic Constant Matrix: (Units=GPa)
#
#
# Indices 1 2 3 4 5 6 
#
# 1 126.8345 37.1226 59.0987 0.0000 0.0000 0.0000
# 2 37.1226 67.5059 50.9574 0.0000 0.0000 0.0000
# 3 59.0987 50.9574 128.0909 0.0000 0.0000 0.0000
# 4 0.0000 0.0000 0.0000 17.7272 0.0000 0.0000
# 5 0.0000 0.0000 0.0000 0.0000 34.0170 0.0000
# 6 0.0000 0.0000 0.0000 0.0000 0.0000 16.0901
#
#
#
# Elastic Compliance Matrix: (Units=1/GPa)
#
#
# Indices 1 2 3 4 5 6 
#
# 1 0.010455 -0.003013 -0.003625 0.000000 0.000000 0.000000
# 2 -0.003013 0.022040 -0.007378 0.000000 0.000000 0.000000
# 3 -0.003625 -0.007378 0.012415 0.000000 0.000000 0.000000
# 4 0.000000 0.000000 0.000000 0.056410 0.000000 0.000000
# 5 0.000000 0.000000 0.000000 0.000000 0.029397 0.000000
# 6 0.000000 0.000000 0.000000 0.000000 0.000000 0.062150
#
#
# Mechanical properties :
#
#
# Convention : Reuss Voigt Hill
#
# Bulk Modulus (GPa) = 59.25019 68.53208 63.89113
# Shear Modulus (GPa) = 22.07264 25.25036 23.66150
#
# Velocity S-wave (km/s) = 3.46730 3.70849 3.58992
# Velocity P-wave (km/s) = 6.94988 7.46084 7.20989
#
# Compressibility (1/GPa) = 0.01687758
#
# Stress axis : x y z
#
# Youngs Moduli (GPa) = 95.64489 45.37307 80.55048
#
# Poissons Ratio (x) = 0.13671 0.29202
# Poissons Ratio (y) = 0.28818 0.59427
# Poissons Ratio (z) = 0.34674 0.33475
#
# Static dielectric constant tensor:
#      x y z
#    x 1.662520 0.000000 0.000000 
#    y 0.000000 1.632450 0.000000 
#    z 0.000000 0.000000 1.823900 
# 
# From -- ./inp_files/37187.got.cif
#   From: 2010.05.17/outbox.cif.g08.bks.cpg/sg72_19_cif.got.tgz:37187.got - 2010.06.03 17:03:01.
