data_PCOD9527759
_publ_section_title
;
Structure prediction by ZEFSAII (Michael W. Deem and Ramdas Pophale) SiO2 
 PCOD9527759
Probable space group: I B A M
;
_chemical_formula_sum "Si O2"
_cell_formula_units_Z 112
_cell_length_a 12.065870
_cell_length_b 32.302708
_cell_length_c 13.949084
_cell_angle_alpha 90.000000
_cell_angle_beta 90.000000
_cell_angle_gamma 90.000000
_cell_volume 5436.798821
_symmetry_space_group_name_H-M "I B A M"
_symmetry_group_IT_number 72
_symmetry_cell_setting 'orthorhombic'
loop_
_space_group_symop_operation_xyz
x,y,z
-x,-y,z
x,-y,1/2-z
-x,y,1/2-z
-x,-y,-z
x,y,-z
-x,y,1/2+z
x,-y,1/2+z
1/2+x,1/2+y,1/2+z
1/2-x,1/2-y,1/2+z
1/2+x,1/2-y,-z
1/2-x,1/2+y,-z
1/2-x,1/2-y,1/2-z
1/2+x,1/2+y,1/2-z
1/2-x,1/2+y,z
1/2+x,1/2-y,z
loop_
_atom_site_type_symbol
_atom_site_label
_atom_site_fract_x
_atom_site_fract_y
_atom_site_fract_z
Si Si1 0.869785 0.950438 0.754009
Si Si2 0.067555 0.813253 0.382551
Si Si3 0.297002 0.090415 0.608402
Si Si4 0.987163 0.635072 0.616424
Si Si5 0.390739 0.219361 0.617527
Si Si6 0.263474 0.384103 0.384790
Si Si7 0.822747 0.821113 0.390061
O O1 0.788237 0.936262 0.668920
O O2 0.815594 0.926147 0.843478
O O3 0.000000 0.937995 0.750000
O O4 0.867833 0.000000 0.750000
O O5 0.073993 0.814494 0.500000
O O6 0.079065 0.765524 0.353485
O O7 0.161361 0.845442 0.350786
O O8 0.944966 0.826465 0.350889
O O9 0.305871 0.074282 0.500000
O O10 0.420774 0.100956 0.645068
O O11 0.239610 0.135435 0.605382
O O12 0.988506 0.634923 0.500000
O O13 0.028700 0.681197 0.644300
O O14 0.862847 0.624284 0.646643
O O15 0.388501 0.218649 0.500000
O O16 0.267006 0.209482 0.654310
O O17 0.264981 0.385504 0.500000
O O18 0.839774 0.806209 0.500000
#
# Coordination Sequence:
#
# PCOD9527759 Si02
#       7
#    16  16  16  16  16  16  16
#     4  11  25  42  62  89 114 145 192 244 304 364
#     4   9  16  24  43  74 110 153 192 231 281 331
#     4   9  18  37  62  84 110 151 195 234 286 351
#     4   8  16  32  55  83 118 158 197 237 285 339
#     4   8  14  23  41  74 111 147 194 238 267 325
#     4  10  21  37  57  87 123 157 193 241 299 352
#     4   8  14  25  43  70 101 139 188 229 269 322
#
# _framework density 20.600356999999999
#
# number of rings (size 3 to 8) (size 9 to 14) (size 15 to 20)
#    0.000    3.000    0.000    2.571    2.000    2.857 
#    0.000    2.857    0.000    6.000    7.429    0.000 
#    0.000    0.000    0.000    0.000    0.000    0.000 
#
# Total GULP energy -312349.268587 kJ/mol
# GULP energy per Si atom -5577.665510 kJ/mol
# Density = 2.055347 g / cm^3
# Si number density = 20.600357 Si / 1000 Ang^3
#
#
#
# Elastic Constant Matrix: (Units=GPa)
#
#
# Indices 1 2 3 4 5 6 
#
# 1 216.2981 68.8948 37.2218 0.0001 0.0000 0.0000
# 2 68.8948 83.1137 20.0233 0.0002 0.0000 0.0000
# 3 37.2218 20.0233 72.2408 0.0005 0.0002 0.0002
# 4 0.0001 0.0002 0.0005 21.6329 -0.0002 0.0000
# 5 0.0000 0.0000 0.0002 -0.0002 14.6814 -0.0001
# 6 0.0000 0.0000 0.0002 0.0000 -0.0001 19.5929
#
#
#
# Elastic Compliance Matrix: (Units=1/GPa)
#
#
# Indices 1 2 3 4 5 6 
#
# 1 0.006541 -0.004940 -0.002001 0.000000 0.000000 0.000000
# 2 -0.004940 0.016623 -0.002062 0.000000 0.000000 0.000000
# 3 -0.002001 -0.002062 0.015445 0.000000 0.000000 0.000000
# 4 0.000000 0.000000 0.000000 0.046226 0.000001 0.000000
# 5 0.000000 0.000000 0.000000 0.000001 0.068113 0.000000
# 6 0.000000 0.000000 0.000000 0.000000 0.000000 0.051039
#
#
# Mechanical properties :
#
#
# Convention : Reuss Voigt Hill
#
# Bulk Modulus (GPa) = 48.53632 69.32582 58.93107
# Shear Modulus (GPa) = 21.84722 27.54896 24.69809
#
# Velocity S-wave (km/s) = 3.26011 3.66089 3.46629
# Velocity P-wave (km/s) = 6.14680 7.18298 6.68500
#
# Compressibility (1/GPa) = 0.02060313
#
# Stress axis : x y z
#
# Youngs Moduli (GPa) = 152.88054 60.15621 64.74495
#
# Poissons Ratio (x) = 0.29717 0.12956
# Poissons Ratio (y) = 0.75522 0.13352
# Poissons Ratio (z) = 0.30592 0.12406
#
# Static dielectric constant tensor:
#      x y z
#    x 1.751890 0.000000 0.000000 
#    y 0.000000 1.707810 0.000000 
#    z 0.000000 0.000000 1.854980 
# 
# From -- ./inp_files/20721.got.cif
#   From: 2010.05.17/outbox.cif.g08.bks.cpg/sg72_11_cif.got.tgz:20721.got - 2010.06.03 17:03:01.
