data_PCOD9527769
_publ_section_title
;
Structure prediction by ZEFSAII (Michael W. Deem and Ramdas Pophale) SiO2 
 PCOD9527769
Probable space group: I B A M
;
_chemical_formula_sum "Si O2"
_cell_formula_units_Z 80
_cell_length_a 25.411066
_cell_length_b 10.529723
_cell_length_c 14.001877
_cell_angle_alpha 90.000000
_cell_angle_beta 90.000000
_cell_angle_gamma 90.000000
_cell_volume 3746.503037
_symmetry_space_group_name_H-M "I B A M"
_symmetry_group_IT_number 72
_symmetry_cell_setting 'orthorhombic'
loop_
_space_group_symop_operation_xyz
x,y,z
-x,-y,z
x,-y,1/2-z
-x,y,1/2-z
-x,-y,-z
x,y,-z
-x,y,1/2+z
x,-y,1/2+z
1/2+x,1/2+y,1/2+z
1/2-x,1/2-y,1/2+z
1/2+x,1/2-y,-z
1/2-x,1/2+y,-z
1/2-x,1/2-y,1/2-z
1/2+x,1/2+y,1/2-z
1/2-x,1/2+y,z
1/2+x,1/2-y,z
loop_
_atom_site_type_symbol
_atom_site_label
_atom_site_fract_x
_atom_site_fract_y
_atom_site_fract_z
Si Si1 0.127610 0.859004 0.787356
Si Si2 0.981488 0.142381 0.114938
Si Si3 0.149884 0.676039 0.609178
Si Si4 0.759248 0.125875 0.814602
Si Si5 0.039778 0.606274 0.614309
O O1 0.075370 0.821053 0.843302
O O2 0.141592 0.778839 0.692526
O O3 0.180925 0.860735 0.851427
O O4 0.117993 0.000000 0.750000
O O5 0.022664 0.251961 0.144963
O O6 0.978132 0.142379 0.000000
O O7 0.000000 0.000000 0.142222
O O8 0.142374 0.724131 0.500000
O O9 0.208561 0.621041 0.617447
O O10 0.101445 0.580704 0.630635
O O11 0.750000 0.250000 0.750000
O O12 0.758543 0.000000 0.750000
O O13 0.033763 0.607764 0.500000
O O14 0.000000 0.500000 0.650186
#
# Coordination Sequence:
#
# PCOD9527769 Si02
#       5
#    16  16  16  16  16
#     4  10  21  37  59  87 120 154 196 248 299 356
#     4  10  21  37  58  85 118 156 198 245 299 359
#     4  10  21  38  60  86 120 160 200 247 305 366
#     4   9  20  39  58  82 116 152 194 247 297 352
#     4   9  19  35  54  81 115 148 188 237 287 345
#
# _framework density 21.353245000000001
#
# number of rings (size 3 to 8) (size 9 to 14) (size 15 to 20)
#    0.000    2.400    0.000    1.200    0.000    9.200 
#    0.000    9.000    0.000    0.600    0.000    0.000 
#    0.000    0.000    0.000    0.000    0.000    0.000 
#
# Total GULP energy -223011.041741 kJ/mol
# GULP energy per Si atom -5575.276044 kJ/mol
# Density = 2.130464 g / cm^3
# Si number density = 21.353245 Si / 1000 Ang^3
#
#
#
# Elastic Constant Matrix: (Units=GPa)
#
#
# Indices 1 2 3 4 5 6 
#
# 1 197.2115 20.8466 45.3011 0.0000 0.0000 0.0000
# 2 20.8466 72.6012 10.0792 0.0000 0.0000 0.0000
# 3 45.3011 10.0792 89.6887 0.0000 0.0000 0.0000
# 4 0.0000 0.0000 0.0000 -6.4369 0.0000 0.0000
# 5 0.0000 0.0000 0.0000 0.0000 20.3363 0.0000
# 6 0.0000 0.0000 0.0000 0.0000 0.0000 16.6419
#
#
#
# Elastic Compliance Matrix: (Units=1/GPa)
#
#
# Indices 1 2 3 4 5 6 
#
# 1 0.005853 -0.001290 -0.002811 0.000000 0.000000 0.000000
# 2 -0.001290 0.014277 -0.000953 0.000000 0.000000 0.000000
# 3 -0.002811 -0.000953 0.012677 0.000000 0.000000 0.000000
# 4 0.000000 0.000000 0.000000 -0.155355 0.000000 0.000000
# 5 0.000000 0.000000 0.000000 0.000000 0.049173 0.000000
# 6 0.000000 0.000000 0.000000 0.000000 0.000000 0.060089
#
#
# Mechanical properties :
#
#
# Convention : Reuss Voigt Hill
#
# Bulk Modulus (GPa) = 44.05728 56.88391 50.47060
# Shear Modulus (GPa) = 1139.41355 24.99324 582.20339
#
# Velocity S-wave (km/s) = 23.12489 3.42492 16.53013
# Velocity P-wave (km/s) = 27.08674 6.50672 19.69808
#
# Compressibility (1/GPa) = 0.02269772
#
# Stress axis : x y z
#
# Youngs Moduli (GPa) = 170.85682 70.04457 78.88508
#
# Poissons Ratio (x) = 0.09038 0.22176
# Poissons Ratio (y) = 0.22046 0.07515
# Poissons Ratio (z) = 0.48032 0.06673
#
# Static dielectric constant tensor:
#      x y z
#    x 1.835360 0.000000 0.000000 
#    y 0.000000 1.754640 0.000000 
#    z 0.000000 0.000000 1.781060 
# 
# From -- ./inp_files/24887.got.cif
#   From: 2010.05.17/outbox.cif.g08.bks.cpg/sg72_13_cif.got.tgz:24887.got - 2010.06.03 17:03:01.
