data_PCOD9527267
_publ_section_title
;
Structure prediction by ZEFSAII (Michael W. Deem and Ramdas Pophale) SiO2 
 PCOD9527267
Probable space group: I B A M
;
_chemical_formula_sum "Si O2"
_cell_formula_units_Z 116
_cell_length_a 9.564091
_cell_length_b 26.633425
_cell_length_c 22.306847
_cell_angle_alpha 90.000000
_cell_angle_beta 90.000000
_cell_angle_gamma 90.000000
_cell_volume 5682.100456
_symmetry_space_group_name_H-M "I B A M"
_symmetry_group_IT_number 72
_symmetry_cell_setting 'orthorhombic'
loop_
_space_group_symop_operation_xyz
x,y,z
-x,-y,z
x,-y,1/2-z
-x,y,1/2-z
-x,-y,-z
x,y,-z
-x,y,1/2+z
x,-y,1/2+z
1/2+x,1/2+y,1/2+z
1/2-x,1/2-y,1/2+z
1/2+x,1/2-y,-z
1/2-x,1/2+y,-z
1/2-x,1/2-y,1/2-z
1/2+x,1/2+y,1/2-z
1/2-x,1/2+y,z
1/2+x,1/2-y,z
loop_
_atom_site_type_symbol
_atom_site_label
_atom_site_fract_x
_atom_site_fract_y
_atom_site_fract_z
Si Si1 0.190253 0.305197 0.362673
Si Si2 0.828574 0.605807 0.070184
Si Si3 0.898908 0.916068 0.334346
Si Si4 0.500000 0.500000 0.750000
Si Si5 0.635992 0.907903 0.069583
Si Si6 0.862226 0.714660 0.872009
Si Si7 0.915424 0.051741 0.431762
Si Si8 0.844196 0.185682 0.236449
O O1 0.180176 0.358595 0.394784
O O2 0.294978 0.266325 0.396144
O O3 0.257951 0.315380 0.297751
O O4 0.029500 0.284215 0.360223
O O5 0.719836 0.582557 0.115771
O O6 0.838633 0.665341 0.086837
O O7 0.977115 0.580649 0.084430
O O8 0.794393 0.599568 0.000000
O O9 0.909579 0.964343 0.292527
O O10 0.878261 0.868388 0.292232
O O11 0.034486 0.913676 0.377081
O O12 0.749006 0.951776 0.075508
O O13 0.633305 0.893066 0.000000
O O14 0.763715 0.708311 0.812671
O O15 0.940750 0.070912 0.500000
O O16 0.000000 0.000000 0.426631
O O17 0.000000 0.208300 0.250000
#
# Coordination Sequence:
#
# PCOD9527267 Si02
#       8
#    16  16  16   4  16  16  16  16
#     4  11  21  36  56  82 120 159 201 246 303 360
#     4   9  20  41  64  88 122 162 203 248 311 374
#     4  11  22  38  61  89 119 157 200 254 310 366
#     4  12  24  40  62  94 128 156 202 266 316 372
#     4   9  20  38  61  87 118 156 198 249 307 369
#     4  10  22  36  56  86 118 157 203 254 296 360
#     4  10  20  37  63  91 118 150 198 255 313 374
#     4  11  21  35  56  81 114 159 203 247 299 361
#
# _framework density 20.414987
#
# number of rings (size 3 to 8) (size 9 to 14) (size 15 to 20)
#    0.000    1.793    1.379    2.897    0.000    1.655 
#    0.000    0.690    0.000    4.138    0.000    0.000 
#    0.000    0.000    0.000    0.000    0.000    0.000 
#
# Total GULP energy -323460.969104 kJ/mol
# GULP energy per Si atom -5576.913260 kJ/mol
# Density = 2.036852 g / cm^3
# Si number density = 20.414987 Si / 1000 Ang^3
#
#
#
# Elastic Constant Matrix: (Units=GPa)
#
#
# Indices 1 2 3 4 5 6 
#
# 1 154.5268 22.7171 48.7338 0.0000 0.0000 0.0000
# 2 22.7171 40.9484 18.2219 0.0000 0.0000 0.0000
# 3 48.7338 18.2219 60.6496 0.0000 0.0000 0.0000
# 4 0.0000 0.0000 0.0000 10.4827 0.0000 0.0000
# 5 0.0000 0.0000 0.0000 0.0000 26.4982 0.0000
# 6 0.0000 0.0000 0.0000 0.0000 0.0000 33.2975
#
#
#
# Elastic Compliance Matrix: (Units=1/GPa)
#
#
# Indices 1 2 3 4 5 6 
#
# 1 0.008808 -0.002005 -0.006475 0.000000 0.000000 0.000000
# 2 -0.002005 0.028646 -0.006996 0.000000 0.000000 0.000000
# 3 -0.006475 -0.006996 0.023793 0.000000 0.000000 0.000000
# 4 0.000000 0.000000 0.000000 0.095395 0.000000 0.000000
# 5 0.000000 0.000000 0.000000 0.000000 0.037738 0.000000
# 6 0.000000 0.000000 0.000000 0.000000 0.000000 0.030032
#
#
# Mechanical properties :
#
#
# Convention : Reuss Voigt Hill
#
# Bulk Modulus (GPa) = 33.00784 48.38560 40.69672
# Shear Modulus (GPa) = 18.83495 25.15248 21.99371
#
# Velocity S-wave (km/s) = 3.04074 3.51388 3.28583
# Velocity P-wave (km/s) = 5.34150 6.34158 5.86290
#
# Compressibility (1/GPa) = 0.03029584
#
# Stress axis : x y z
#
# Youngs Moduli (GPa) = 113.52950 34.90842 42.02915
#
# Poissons Ratio (x) = 0.07000 0.27215
# Poissons Ratio (y) = 0.22764 0.29402
# Poissons Ratio (z) = 0.73514 0.24420
#
# Static dielectric constant tensor:
#      x y z
#    x 1.838750 0.000000 0.000000 
#    y 0.000000 1.773040 0.000000 
#    z 0.000000 0.000000 1.717820 
# 
# From -- ./inp_files/42716.got.cif
#   From: 2010.05.17/outbox.cif.g08.bks.cpg/sg72_22_cif.got.tgz:42716.got - 2010.06.03 17:03:01.
