data_PCOD9527706
_publ_section_title
;
Structure prediction by ZEFSAII (Michael W. Deem and Ramdas Pophale) SiO2 
 PCOD9527706
Probable space group: I B A M
;
_chemical_formula_sum "Si O2"
_cell_formula_units_Z 116
_cell_length_a 22.196431
_cell_length_b 13.733509
_cell_length_c 18.417095
_cell_angle_alpha 90.000000
_cell_angle_beta 90.000000
_cell_angle_gamma 90.000000
_cell_volume 5614.173035
_symmetry_space_group_name_H-M "I B A M"
_symmetry_group_IT_number 72
_symmetry_cell_setting 'orthorhombic'
loop_
_space_group_symop_operation_xyz
x,y,z
-x,-y,z
x,-y,1/2-z
-x,y,1/2-z
-x,-y,-z
x,y,-z
-x,y,1/2+z
x,-y,1/2+z
1/2+x,1/2+y,1/2+z
1/2-x,1/2-y,1/2+z
1/2+x,1/2-y,-z
1/2-x,1/2+y,-z
1/2-x,1/2-y,1/2-z
1/2+x,1/2+y,1/2-z
1/2-x,1/2+y,z
1/2+x,1/2-y,z
loop_
_atom_site_type_symbol
_atom_site_label
_atom_site_fract_x
_atom_site_fract_y
_atom_site_fract_z
Si Si1 0.889035 0.620601 0.313591
Si Si2 0.303329 0.039775 0.915280
Si Si3 0.701114 0.687151 0.417881
Si Si4 0.105976 0.988449 0.583195
Si Si5 0.000000 0.500000 0.250000
Si Si6 0.287704 0.861053 0.813328
Si Si7 0.445897 0.397540 0.291384
Si Si8 0.352861 0.665768 0.688756
O O1 0.868943 0.558981 0.383407
O O2 0.952106 0.574668 0.288031
O O3 0.836036 0.615189 0.250396
O O4 0.883609 0.733603 0.335725
O O5 0.266236 0.139446 0.903518
O O6 0.278620 0.954809 0.864551
O O7 0.300084 0.015617 0.000000
O O8 0.700299 0.726887 0.500000
O O9 0.658372 0.592808 0.417263
O O10 0.687782 0.774098 0.363533
O O11 0.092593 0.015315 0.500000
O O12 0.128183 0.080274 0.631901
O O13 0.053107 0.928350 0.625197
O O14 0.218493 0.832598 0.795313
O O15 0.443334 0.500000 0.250000
O O16 0.500000 0.343315 0.250000
O O17 0.383882 0.351735 0.266598
#
# Coordination Sequence:
#
# PCOD9527706 Si02
#       8
#    16  16  16  16   4  16  16  16
#     4  12  26  45  69  97 131 180 232 290 334 401
#     4  11  23  40  64  98 140 178 218 280 351 415
#     4  10  21  36  61  98 141 180 215 276 352 414
#     4  10  21  38  62  93 130 169 214 269 335 407
#     4  12  28  52  70  96 134 180 240 288 328 400
#     4  12  22  40  66 101 134 176 235 278 345 406
#     4   9  20  38  56  86 124 172 215 259 327 395
#     4  11  23  36  65  98 132 171 223 286 340 402
#
# _framework density 20.661992999999999
#
# number of rings (size 3 to 8) (size 9 to 14) (size 15 to 20)
#    0.000    1.241    4.138    1.655    2.897    2.207 
#    0.000    5.862    0.000    0.000    0.000    0.000 
#    0.000    0.000    0.000    0.000    0.000    0.000 
#
# Total GULP energy -323095.226928 kJ/mol
# GULP energy per Si atom -5570.607361 kJ/mol
# Density = 2.061497 g / cm^3
# Si number density = 20.661993 Si / 1000 Ang^3
#
#
#
# Elastic Constant Matrix: (Units=GPa)
#
#
# Indices 1 2 3 4 5 6 
#
# 1 97.5253 15.8928 28.4475 0.0000 0.0000 0.0000
# 2 15.8928 67.6444 17.5004 0.0000 0.0000 0.0000
# 3 28.4475 17.5004 109.5503 0.0000 0.0000 0.0000
# 4 0.0000 0.0000 0.0000 28.4244 0.0000 0.0000
# 5 0.0000 0.0000 0.0000 0.0000 18.9499 0.0000
# 6 0.0000 0.0000 0.0000 0.0000 0.0000 23.2971
#
#
#
# Elastic Compliance Matrix: (Units=1/GPa)
#
#
# Indices 1 2 3 4 5 6 
#
# 1 0.011344 -0.001985 -0.002629 0.000000 0.000000 0.000000
# 2 -0.001985 0.015768 -0.002003 0.000000 0.000000 0.000000
# 3 -0.002629 -0.002003 0.010131 0.000000 0.000000 0.000000
# 4 0.000000 0.000000 0.000000 0.035181 0.000000 0.000000
# 5 0.000000 0.000000 0.000000 0.000000 0.052771 0.000000
# 6 0.000000 0.000000 0.000000 0.000000 0.000000 0.042924
#
#
# Mechanical properties :
#
#
# Convention : Reuss Voigt Hill
#
# Bulk Modulus (GPa) = 41.65212 44.26682 42.95947
# Shear Modulus (GPa) = 26.40538 28.32625 27.36582
#
# Velocity S-wave (km/s) = 3.57875 3.70663 3.64325
# Velocity P-wave (km/s) = 6.10567 6.30790 6.20761
#
# Compressibility (1/GPa) = 0.02400838
#
# Stress axis : x y z
#
# Youngs Moduli (GPa) = 88.15229 63.42004 98.70840
#
# Poissons Ratio (x) = 0.12590 0.25947
# Poissons Ratio (y) = 0.17500 0.19775
# Poissons Ratio (z) = 0.23172 0.12705
#
# Static dielectric constant tensor:
#      x y z
#    x 1.992370 0.000000 0.000000 
#    y 0.000000 1.806630 0.000000 
#    z 0.000000 0.000000 1.791160 
# 
# From -- ./inp_files/33438.got.cif
#   From: 2010.05.17/outbox.cif.g08.bks.cpg/sg72_17_cif.got.tgz:33438.got - 2010.06.03 17:03:01.
