data_PCOD9527647
_publ_section_title
;
Structure prediction by ZEFSAII (Michael W. Deem and Ramdas Pophale) SiO2 
 PCOD9527647
Probable space group: I B A M
;
_chemical_formula_sum "Si O2"
_cell_formula_units_Z 88
_cell_length_a 20.099966
_cell_length_b 24.018721
_cell_length_c 9.463386
_cell_angle_alpha 90.000000
_cell_angle_beta 90.000000
_cell_angle_gamma 90.000000
_cell_volume 4568.690676
_symmetry_space_group_name_H-M "I B A M"
_symmetry_group_IT_number 72
_symmetry_cell_setting 'orthorhombic'
loop_
_space_group_symop_operation_xyz
x,y,z
-x,-y,z
x,-y,1/2-z
-x,y,1/2-z
-x,-y,-z
x,y,-z
-x,y,1/2+z
x,-y,1/2+z
1/2+x,1/2+y,1/2+z
1/2-x,1/2-y,1/2+z
1/2+x,1/2-y,-z
1/2-x,1/2+y,-z
1/2-x,1/2-y,1/2-z
1/2+x,1/2+y,1/2-z
1/2-x,1/2+y,z
1/2+x,1/2-y,z
loop_
_atom_site_type_symbol
_atom_site_label
_atom_site_fract_x
_atom_site_fract_y
_atom_site_fract_z
Si Si1 0.208596 0.649875 0.833886
Si Si2 0.366488 0.652405 0.165919
Si Si3 0.111886 0.276754 0.158535
Si Si4 0.887545 0.555746 0.662308
Si Si5 0.000000 0.359262 0.250000
Si Si6 0.928767 0.053343 0.170916
O O1 0.286959 0.656627 0.816851
O O2 0.167422 0.698127 0.759570
O O3 0.176488 0.591081 0.784261
O O4 0.193726 0.651921 0.000000
O O5 0.400539 0.712208 0.191558
O O6 0.390944 0.608019 0.279012
O O7 0.379574 0.636351 0.000000
O O8 0.048049 0.317042 0.166039
O O9 0.139020 0.277506 0.000000
O O10 0.899940 0.500000 0.750000
O O11 0.877243 0.539763 0.500000
O O12 0.949131 0.599114 0.671533
O O13 0.000000 0.057941 0.250000
O O14 0.896556 0.000000 0.250000
O O15 0.933708 0.047318 0.000000
#
# Coordination Sequence:
#
# PCOD9527647 Si02
#       6
#    16  16  16  16   8  16
#     4   9  20  38  57  81 118 155 189 239 294 345
#     4  10  21  38  60  88 119 152 192 237 290 350
#     4  10  21  36  58  85 115 152 196 241 286 347
#     4  10  21  36  55  79 110 149 192 237 287 341
#     4  10  21  36  54  82 115 152 190 238 298 340
#     4  11  23  41  63  87 116 151 189 237 292 349
#
# _framework density 19.261537000000001
#
# number of rings (size 3 to 8) (size 9 to 14) (size 15 to 20)
#    0.000    2.000    0.000    3.545    1.273    7.273 
#    0.000    1.818    0.000    0.000    0.000    0.000 
#    0.000    0.000    0.000    0.000    0.000    0.000 
#
# Total GULP energy -245308.973278 kJ/mol
# GULP energy per Si atom -5575.203938 kJ/mol
# Density = 1.921770 g / cm^3
# Si number density = 19.261537 Si / 1000 Ang^3
#
#
#
# Elastic Constant Matrix: (Units=GPa)
#
#
# Indices 1 2 3 4 5 6 
#
# 1 27.7944 28.1423 20.6883 0.0000 0.0000 0.0000
# 2 28.1423 133.0927 65.1230 0.0000 0.0000 0.0000
# 3 20.6883 65.1230 95.4751 0.0000 0.0000 0.0000
# 4 0.0000 0.0000 0.0000 30.8304 0.0000 0.0000
# 5 0.0000 0.0000 0.0000 0.0000 20.1370 0.0000
# 6 0.0000 0.0000 0.0000 0.0000 0.0000 18.5968
#
#
#
# Elastic Compliance Matrix: (Units=1/GPa)
#
#
# Indices 1 2 3 4 5 6 
#
# 1 0.047413 -0.007502 -0.005157 0.000000 0.000000 0.000000
# 2 -0.007502 0.012465 -0.006876 0.000000 0.000000 0.000000
# 3 -0.005157 -0.006876 0.016282 0.000000 0.000000 0.000000
# 4 0.000000 0.000000 0.000000 0.032436 0.000000 0.000000
# 5 0.000000 0.000000 0.000000 0.000000 0.049660 0.000000
# 6 0.000000 0.000000 0.000000 0.000000 0.000000 0.053773
#
#
# Mechanical properties :
#
#
# Convention : Reuss Voigt Hill
#
# Bulk Modulus (GPa) = 26.96238 53.80773 40.38506
# Shear Modulus (GPa) = 18.97820 23.40675 21.19247
#
# Velocity S-wave (km/s) = 3.14234 3.48976 3.32060
# Velocity P-wave (km/s) = 5.21480 6.65086 5.97612
#
# Compressibility (1/GPa) = 0.03708872
#
# Stress axis : x y z
#
# Youngs Moduli (GPa) = 21.09130 80.22762 61.41901
#
# Poissons Ratio (x) = 0.60189 0.31671
# Poissons Ratio (y) = 0.15823 0.42234
# Poissons Ratio (z) = 0.10876 0.55167
#
# Static dielectric constant tensor:
#      x y z
#    x 1.686580 0.000000 0.000000 
#    y 0.000000 1.716150 0.000000 
#    z 0.000000 0.000000 1.660080 
# 
# From -- ./inp_files/5773.got.cif
#   From: 2010.05.17/outbox.cif.g08.bks.cpg/sg72_3_cif.got.tgz:5773.got - 2010.06.03 17:03:01.
