data_PCOD9527164
_publ_section_title
;
Structure prediction by ZEFSAII (Michael W. Deem and Ramdas Pophale) SiO2 
 PCOD9527164
Probable space group: I B A M
;
_chemical_formula_sum "Si O2"
_cell_formula_units_Z 72
_cell_length_a 25.868737
_cell_length_b 8.674281
_cell_length_c 18.088559
_cell_angle_alpha 90.000000
_cell_angle_beta 90.000000
_cell_angle_gamma 90.000000
_cell_volume 4058.940482
_symmetry_space_group_name_H-M "I B A M"
_symmetry_group_IT_number 72
_symmetry_cell_setting 'orthorhombic'
loop_
_space_group_symop_operation_xyz
x,y,z
-x,-y,z
x,-y,1/2-z
-x,y,1/2-z
-x,-y,-z
x,y,-z
-x,y,1/2+z
x,-y,1/2+z
1/2+x,1/2+y,1/2+z
1/2-x,1/2-y,1/2+z
1/2+x,1/2-y,-z
1/2-x,1/2+y,-z
1/2-x,1/2-y,1/2-z
1/2+x,1/2+y,1/2-z
1/2-x,1/2+y,z
1/2+x,1/2-y,z
loop_
_atom_site_type_symbol
_atom_site_label
_atom_site_fract_x
_atom_site_fract_y
_atom_site_fract_z
Si Si1 0.749296 0.000000 0.750000
Si Si2 0.400807 0.845294 0.584766
Si Si3 0.511755 0.318380 0.086178
Si Si4 0.913957 0.625411 0.810895
Si Si5 0.826259 0.259985 0.799182
O O1 0.787195 0.121868 0.786878
O O2 0.710709 0.090801 0.695823
O O3 0.386985 0.854195 0.500000
O O4 0.458506 0.777687 0.591061
O O5 0.361883 0.738762 0.630130
O O6 0.397606 0.011395 0.623299
O O7 0.500000 0.500000 0.096998
O O8 0.548401 0.248225 0.150039
O O9 0.530727 0.300174 0.000000
O O10 0.935428 0.500000 0.750000
O O11 0.866314 0.707650 0.768535
#
# Coordination Sequence:
#
# PCOD9527164 Si02
#       5
#     8  16  16  16  16
#     4  10  20  40  60  78 110 140 188 240 300 314
#     4  10  20  37  57  83 118 153 184 225 282 345
#     4  10  22  37  57  85 122 154 184 231 288 340
#     4  10  20  37  56  88 111 155 193 228 275 343
#     4  10  21  37  61  83 108 146 187 241 278 342
#
# _framework density 17.738620000000001
#
# number of rings (size 3 to 8) (size 9 to 14) (size 15 to 20)
#    0.000    2.000    3.333    1.333    3.111    8.000 
#    0.000    5.556    0.000    0.000    0.000    0.000 
#    0.000    0.000    0.000    0.000    0.000    0.000 
#
# Total GULP energy -200538.482065 kJ/mol
# GULP energy per Si atom -5570.513391 kJ/mol
# Density = 1.769825 g / cm^3
# Si number density = 17.738620 Si / 1000 Ang^3
#
#
#
# Elastic Constant Matrix: (Units=GPa)
#
#
# Indices 1 2 3 4 5 6 
#
# 1 97.4914 36.2540 70.3031 0.0000 0.0000 0.0000
# 2 36.2540 69.9551 42.9801 0.0000 0.0000 0.0000
# 3 70.3031 42.9801 116.2839 0.0000 0.0000 0.0000
# 4 0.0000 0.0000 0.0000 17.6845 0.0000 0.0000
# 5 0.0000 0.0000 0.0000 0.0000 8.8450 0.0000
# 6 0.0000 0.0000 0.0000 0.0000 0.0000 21.6729
#
#
#
# Elastic Compliance Matrix: (Units=1/GPa)
#
#
# Indices 1 2 3 4 5 6 
#
# 1 0.018855 -0.003581 -0.010076 0.000000 0.000000 0.000000
# 2 -0.003581 0.019175 -0.004922 0.000000 0.000000 0.000000
# 3 -0.010076 -0.004922 0.016511 0.000000 0.000000 0.000000
# 4 0.000000 0.000000 0.000000 0.056547 0.000000 0.000000
# 5 0.000000 0.000000 0.000000 0.000000 0.113059 0.000000
# 6 0.000000 0.000000 0.000000 0.000000 0.000000 0.046140
#
#
# Mechanical properties :
#
#
# Convention : Reuss Voigt Hill
#
# Bulk Modulus (GPa) = 57.52963 64.75607 61.14285
# Shear Modulus (GPa) = 15.96230 18.58670 17.27450
#
# Velocity S-wave (km/s) = 3.00302 3.24050 3.12402
# Velocity P-wave (km/s) = 6.67281 7.11239 6.89611
#
# Compressibility (1/GPa) = 0.01738235
#
# Stress axis : x y z
#
# Youngs Moduli (GPa) = 53.03713 52.15134 60.56732
#
# Poissons Ratio (x) = 0.18675 0.61025
# Poissons Ratio (y) = 0.18992 0.29813
# Poissons Ratio (z) = 0.53438 0.25671
#
# Static dielectric constant tensor:
#      x y z
#    x 1.607270 0.000000 0.000000 
#    y 0.000000 1.636150 0.000000 
#    z 0.000000 0.000000 1.619180 
# 
# From -- ./inp_files/33103.got.cif
#   From: 2010.05.17/outbox.cif.g08.bks.cpg/sg72_17_cif.got.tgz:33103.got - 2010.06.03 17:03:01.
