data_PCOD9527264
_publ_section_title
;
Structure prediction by ZEFSAII (Michael W. Deem and Ramdas Pophale) SiO2 
 PCOD9527264
Probable space group: I B A M
;
_chemical_formula_sum "Si O2"
_cell_formula_units_Z 68
_cell_length_a 8.289121
_cell_length_b 13.876868
_cell_length_c 26.824282
_cell_angle_alpha 90.000000
_cell_angle_beta 90.000000
_cell_angle_gamma 90.000000
_cell_volume 3085.517704
_symmetry_space_group_name_H-M "I B A M"
_symmetry_group_IT_number 72
_symmetry_cell_setting 'orthorhombic'
loop_
_space_group_symop_operation_xyz
x,y,z
-x,-y,z
x,-y,1/2-z
-x,y,1/2-z
-x,-y,-z
x,y,-z
-x,y,1/2+z
x,-y,1/2+z
1/2+x,1/2+y,1/2+z
1/2-x,1/2-y,1/2+z
1/2+x,1/2-y,-z
1/2-x,1/2+y,-z
1/2-x,1/2-y,1/2-z
1/2+x,1/2+y,1/2-z
1/2-x,1/2+y,z
1/2+x,1/2-y,z
loop_
_atom_site_type_symbol
_atom_site_label
_atom_site_fract_x
_atom_site_fract_y
_atom_site_fract_z
Si Si1 0.828939 0.040958 0.893770
Si Si2 0.431673 0.741813 0.000000
Si Si3 0.500000 0.000000 0.750000
Si Si4 0.844628 0.265763 0.613889
Si Si5 0.723727 0.592225 0.000000
Si Si6 0.139926 0.385599 0.660276
O O1 0.797923 0.154148 0.886626
O O2 0.687574 0.981608 0.868873
O O3 0.811005 0.028689 0.952561
O O4 0.000000 0.000000 0.876811
O O5 0.365302 0.723195 0.057266
O O6 0.401288 0.858396 0.000000
O O7 0.600247 0.684187 0.000000
O O8 0.401254 0.073203 0.785468
O O9 0.793294 0.184258 0.652821
O O10 0.997396 0.326279 0.633346
#
# Coordination Sequence:
#
# PCOD9527264 Si02
#       6
#    16   8   4  16   8  16
#     4  11  22  40  65 103 142 183 232 291 348 436
#     4  10  20  37  63 108 142 183 227 269 346 452
#     4  12  28  52  74  94 142 180 258 320 344 406
#     4  11  23  42  72 102 143 189 226 294 364 431
#     4  10  21  35  61  97 144 191 223 274 353 425
#     4  12  25  48  71 102 139 183 246 300 358 414
#
# _framework density 22.038442
#
# number of rings (size 3 to 8) (size 9 to 14) (size 15 to 20)
#    0.000    0.941    2.353    6.000    0.000    2.824 
#    0.000    4.118    0.000    0.000    0.000    0.000 
#    0.000    0.000    0.000    0.000    0.000    0.000 
#
# Total GULP energy -189594.617389 kJ/mol
# GULP energy per Si atom -5576.312276 kJ/mol
# Density = 2.198828 g / cm^3
# Si number density = 22.038442 Si / 1000 Ang^3
#
#
#
# Elastic Constant Matrix: (Units=GPa)
#
#
# Indices 1 2 3 4 5 6 
#
# 1 82.9280 38.4182 61.3749 0.0000 0.0000 0.0000
# 2 38.4182 109.0209 72.5926 0.0000 0.0000 0.0000
# 3 61.3749 72.5926 141.6630 0.0000 0.0000 0.0000
# 4 0.0000 0.0000 0.0000 29.9433 0.0000 0.0000
# 5 0.0000 0.0000 0.0000 0.0000 33.8201 0.0000
# 6 0.0000 0.0000 0.0000 0.0000 0.0000 51.1142
#
#
#
# Elastic Compliance Matrix: (Units=1/GPa)
#
#
# Indices 1 2 3 4 5 6 
#
# 1 0.017966 -0.001743 -0.006890 0.000000 0.000000 0.000000
# 2 -0.001743 0.014092 -0.006466 0.000000 0.000000 0.000000
# 3 -0.006890 -0.006466 0.013358 0.000000 0.000000 0.000000
# 4 0.000000 0.000000 0.000000 0.033396 0.000000 0.000000
# 5 0.000000 0.000000 0.000000 0.000000 0.029568 0.000000
# 6 0.000000 0.000000 0.000000 0.000000 0.000000 0.019564
#
#
# Mechanical properties :
#
#
# Convention : Reuss Voigt Hill
#
# Bulk Modulus (GPa) = 65.71768 75.37592 70.54680
# Shear Modulus (GPa) = 30.63426 33.72394 32.17910
#
# Velocity S-wave (km/s) = 3.73237 3.91606 3.82532
# Velocity P-wave (km/s) = 6.96120 7.39754 7.18269
#
# Compressibility (1/GPa) = 0.01521661
#
# Stress axis : x y z
#
# Youngs Moduli (GPa) = 55.66158 70.96041 74.86280
#
# Poissons Ratio (x) = 0.12368 0.51584
# Poissons Ratio (y) = 0.09701 0.48408
# Poissons Ratio (z) = 0.38353 0.45885
#
# Static dielectric constant tensor:
#      x y z
#    x 1.913420 0.000000 0.000000 
#    y 0.000000 1.816030 0.000000 
#    z 0.000000 0.000000 1.792760 
# 
# From -- ./inp_files/46986.got.cif
#   From: 2010.05.17/outbox.cif.g08.bks.cpg/sg72_24_cif.got.tgz:46986.got - 2010.06.03 17:03:01.
