data_PCOD9527501
_publ_section_title
;
Structure prediction by ZEFSAII (Michael W. Deem and Ramdas Pophale) SiO2 
 PCOD9527501
Probable space group: I B A M
;
_chemical_formula_sum "Si O2"
_cell_formula_units_Z 72
_cell_length_a 14.357812
_cell_length_b 24.907775
_cell_length_c 9.951608
_cell_angle_alpha 90.000000
_cell_angle_beta 90.000000
_cell_angle_gamma 90.000000
_cell_volume 3558.905505
_symmetry_space_group_name_H-M "I B A M"
_symmetry_group_IT_number 72
_symmetry_cell_setting 'orthorhombic'
loop_
_space_group_symop_operation_xyz
x,y,z
-x,-y,z
x,-y,1/2-z
-x,y,1/2-z
-x,-y,-z
x,y,-z
-x,y,1/2+z
x,-y,1/2+z
1/2+x,1/2+y,1/2+z
1/2-x,1/2-y,1/2+z
1/2+x,1/2-y,-z
1/2-x,1/2+y,-z
1/2-x,1/2-y,1/2-z
1/2+x,1/2+y,1/2-z
1/2-x,1/2+y,z
1/2+x,1/2-y,z
loop_
_atom_site_type_symbol
_atom_site_label
_atom_site_fract_x
_atom_site_fract_y
_atom_site_fract_z
Si Si1 0.651366 0.049156 0.850038
Si Si2 0.447875 0.672285 0.500000
Si Si3 0.306668 0.212304 0.500000
Si Si4 0.000000 0.633667 0.250000
Si Si5 0.469798 0.797075 0.500000
Si Si6 0.170883 0.835503 0.500000
Si Si7 0.702241 0.364591 0.699716
O O1 0.575487 0.094831 0.817676
O O2 0.750175 0.079523 0.840363
O O3 0.643601 0.000000 0.750000
O O4 0.636079 0.029152 0.000000
O O5 0.430400 0.736790 0.500000
O O6 0.558298 0.665735 0.500000
O O7 0.397505 0.646133 0.629539
O O8 0.417685 0.207110 0.500000
O O9 0.288610 0.275279 0.500000
O O10 0.264306 0.181920 0.371194
O O11 0.049572 0.670157 0.136331
O O12 0.200622 0.861301 0.359653
#
# Coordination Sequence:
#
# PCOD9527501 Si02
#       7
#    16   8   8   8   8   8  16
#     4  12  27  47  69  94 131 179 228 285 341 392
#     4  10  24  42  66  93 144 181 217 271 334 398
#     4  10  20  42  58  88 145 172 209 265 325 405
#     4  12  23  44  66 100 142 170 223 268 336 422
#     4  11  24  38  64  98 137 184 211 254 339 398
#     4  11  24  34  67 104 121 179 224 257 343 403
#     4  11  22  44  63  93 136 174 223 283 320 402
#
# _framework density 20.23094
#
# number of rings (size 3 to 8) (size 9 to 14) (size 15 to 20)
#    0.000    0.889    5.556    1.667    9.333    4.444 
#    0.000    0.000    0.000    4.000    0.000    0.000 
#    0.000    0.000    0.000    0.000    0.000    0.000 
#
# Total GULP energy -201308.843116 kJ/mol
# GULP energy per Si atom -5591.912309 kJ/mol
# Density = 2.018489 g / cm^3
# Si number density = 20.230940 Si / 1000 Ang^3
#
#
#
# Elastic Constant Matrix: (Units=GPa)
#
#
# Indices 1 2 3 4 5 6 
#
# 1 60.6679 -2.7321 10.9920 0.0000 0.0000 0.0000
# 2 -2.7321 61.3913 37.5620 0.0007 0.0000 0.0000
# 3 10.9920 37.5620 189.0403 0.0145 -0.0001 -0.0001
# 4 0.0000 0.0007 0.0145 133.1303 0.0004 -0.0003
# 5 0.0000 0.0000 -0.0001 0.0004 28.2317 0.0000
# 6 0.0000 0.0000 -0.0001 -0.0003 0.0000 15.6395
#
#
#
# Elastic Compliance Matrix: (Units=1/GPa)
#
#
# Indices 1 2 3 4 5 6 
#
# 1 0.016784 0.001530 -0.001280 0.000000 0.000000 0.000000
# 2 0.001530 0.018683 -0.003801 0.000000 0.000000 0.000000
# 3 -0.001280 -0.003801 0.006120 -0.000001 0.000000 0.000000
# 4 0.000000 0.000000 -0.000001 0.007511 0.000000 0.000000
# 5 0.000000 0.000000 0.000000 0.000000 0.035421 0.000000
# 6 0.000000 0.000000 0.000000 0.000000 0.000000 0.063941
#
#
# Mechanical properties :
#
#
# Convention : Reuss Voigt Hill
#
# Bulk Modulus (GPa) = 28.99880 44.74926 36.87403
# Shear Modulus (GPa) = 29.92993 53.08546 41.50769
#
# Velocity S-wave (km/s) = 3.85049 5.12803 4.53448
# Velocity P-wave (km/s) = 5.84238 7.56502 6.75880
#
# Compressibility (1/GPa) = 0.03448418
#
# Stress axis : x y z
#
# Youngs Moduli (GPa) = 59.58060 53.52518 163.40947
#
# Poissons Ratio (x) = -0.08190 0.20916
# Poissons Ratio (y) = -0.09116 0.62115
# Poissons Ratio (z) = 0.07626 0.20346
#
# Static dielectric constant tensor:
#      x y z
#    x 1.757510 0.000000 0.000000 
#    y 0.000000 1.674130 0.000000 
#    z 0.000000 0.000000 1.723890 
# 
# From -- ./inp_files/3734.got.cif
#   From: 2010.05.17/outbox.cif.g08.bks.cpg/sg72_2_cif.got.tgz:3734.got - 2010.06.03 17:03:01.
