data_PCOD9527457
_publ_section_title
;
Structure prediction by ZEFSAII (Michael W. Deem and Ramdas Pophale) SiO2 
 PCOD9527457
Probable space group: I B A M
;
_chemical_formula_sum "Si O2"
_cell_formula_units_Z 92
_cell_length_a 9.067702
_cell_length_b 25.073880
_cell_length_c 19.585722
_cell_angle_alpha 90.000000
_cell_angle_beta 90.000000
_cell_angle_gamma 90.000000
_cell_volume 4453.058166
_symmetry_space_group_name_H-M "I B A M"
_symmetry_group_IT_number 72
_symmetry_cell_setting 'orthorhombic'
loop_
_space_group_symop_operation_xyz
x,y,z
-x,-y,z
x,-y,1/2-z
-x,y,1/2-z
-x,-y,-z
x,y,-z
-x,y,1/2+z
x,-y,1/2+z
1/2+x,1/2+y,1/2+z
1/2-x,1/2-y,1/2+z
1/2+x,1/2-y,-z
1/2-x,1/2+y,-z
1/2-x,1/2-y,1/2-z
1/2+x,1/2+y,1/2-z
1/2-x,1/2+y,z
1/2+x,1/2-y,z
loop_
_atom_site_type_symbol
_atom_site_label
_atom_site_fract_x
_atom_site_fract_y
_atom_site_fract_z
Si Si1 0.059332 0.181312 0.866938
Si Si2 0.425211 0.736679 0.500000
Si Si3 0.160364 0.642292 0.821484
Si Si4 0.867183 0.909714 0.293255
Si Si5 0.636813 0.174508 0.000000
Si Si6 0.885991 0.414629 0.389107
Si Si7 0.500000 0.237965 0.250000
Si Si8 0.500000 0.000000 0.000000
O O1 0.218846 0.154858 0.879644
O O2 0.949957 0.136824 0.835708
O O3 0.075922 0.224583 0.806202
O O4 0.991791 0.208929 0.932706
O O5 0.476995 0.797829 0.500000
O O6 0.253018 0.722763 0.500000
O O7 0.256471 0.615070 0.762306
O O8 0.101723 0.698063 0.792621
O O9 0.022482 0.606337 0.843325
O O10 0.754214 0.936342 0.346350
O O11 0.000000 0.936822 0.250000
O O12 0.658530 0.137419 0.066074
O O13 0.942672 0.458487 0.440853
#
# Coordination Sequence:
#
# PCOD9527457 Si02
#       8
#    16   8  16  16   8  16   8   4
#     4  11  24  35  57  92 141 188 233 262 333 402
#     4  12  26  37  55  92 139 199 227 285 326 415
#     4  11  22  36  64  94 129 175 221 293 324 402
#     4  10  20  40  64  99 133 177 213 285 344 407
#     4  11  26  39  57  86 139 183 228 272 338 409
#     4  11  22  47  68  98 127 172 233 292 353 420
#     4  12  20  34  62  93 140 185 236 268 312 400
#     4  10  28  46  82  94 128 176 224 300 378 434
#
# _framework density 20.659958
#
# number of rings (size 3 to 8) (size 9 to 14) (size 15 to 20)
#    0.000    1.043    6.087    1.565    4.870    0.696 
#    0.000    1.739    0.000   11.478    0.000    0.000 
#    0.000    0.000    0.000    0.000    0.000    0.000 
#
# Total GULP energy -256311.914154 kJ/mol
# GULP energy per Si atom -5571.998134 kJ/mol
# Density = 2.061293 g / cm^3
# Si number density = 20.659958 Si / 1000 Ang^3
#
#
#
# Elastic Constant Matrix: (Units=GPa)
#
#
# Indices 1 2 3 4 5 6 
#
# 1 135.2884 36.8045 47.3825 0.0000 0.0000 0.0000
# 2 36.8045 61.1166 30.7492 0.0000 0.0000 0.0000
# 3 47.3825 30.7492 90.4091 0.0000 0.0000 0.0000
# 4 0.0000 0.0000 0.0000 2.7243 0.0000 0.0000
# 5 0.0000 0.0000 0.0000 0.0000 13.3313 0.0000
# 6 0.0000 0.0000 0.0000 0.0000 0.0000 0.8320
#
#
#
# Elastic Compliance Matrix: (Units=1/GPa)
#
#
# Indices 1 2 3 4 5 6 
#
# 1 0.009803 -0.004004 -0.003776 0.000000 0.000000 0.000000
# 2 -0.004004 0.021375 -0.005172 0.000000 0.000000 0.000000
# 3 -0.003776 -0.005172 0.014799 0.000000 0.000000 0.000000
# 4 0.000000 0.000000 0.000000 0.367064 0.000000 -0.000001
# 5 0.000000 0.000000 0.000000 0.000000 0.075011 0.000000
# 6 0.000000 0.000000 0.000000 -0.000001 0.000000 1.201956
#
#
# Mechanical properties :
#
#
# Convention : Reuss Voigt Hill
#
# Bulk Modulus (GPa) = 49.81479 57.40959 53.61219
# Shear Modulus (GPa) = 2.90258 14.83605 8.86932
#
# Velocity S-wave (km/s) = 1.18658 2.68266 2.07420
# Velocity P-wave (km/s) = 5.10308 6.11913 5.63405
#
# Compressibility (1/GPa) = 0.02007436
#
# Stress axis : x y z
#
# Youngs Moduli (GPa) = 102.00615 46.78321 67.57303
#
# Poissons Ratio (x) = 0.18731 0.25516
# Poissons Ratio (y) = 0.40840 0.34946
# Poissons Ratio (z) = 0.38519 0.24195
#
# Static dielectric constant tensor:
#      x y z
#    x 1.781590 0.000000 0.000000 
#    y 0.000000 1.694550 0.000000 
#    z 0.000000 0.000000 1.745100 
# 
# From -- ./inp_files/35926.got.cif
#   From: 2010.05.17/outbox.cif.g08.bks.cpg/sg72_18_cif.got.tgz:35926.got - 2010.06.03 17:03:01.
