data_PCOD9527247
_publ_section_title
;
Structure prediction by ZEFSAII (Michael W. Deem and Ramdas Pophale) SiO2 
 PCOD9527247
Probable space group: I B A M
;
_chemical_formula_sum "Si O2"
_cell_formula_units_Z 128
_cell_length_a 19.691968
_cell_length_b 11.087515
_cell_length_c 29.722816
_cell_angle_alpha 90.000000
_cell_angle_beta 90.000000
_cell_angle_gamma 90.000000
_cell_volume 6489.530751
_symmetry_space_group_name_H-M "I B A M"
_symmetry_group_IT_number 72
_symmetry_cell_setting 'orthorhombic'
loop_
_space_group_symop_operation_xyz
x,y,z
-x,-y,z
x,-y,1/2-z
-x,y,1/2-z
-x,-y,-z
x,y,-z
-x,y,1/2+z
x,-y,1/2+z
1/2+x,1/2+y,1/2+z
1/2-x,1/2-y,1/2+z
1/2+x,1/2-y,-z
1/2-x,1/2+y,-z
1/2-x,1/2-y,1/2-z
1/2+x,1/2+y,1/2-z
1/2-x,1/2+y,z
1/2+x,1/2-y,z
loop_
_atom_site_type_symbol
_atom_site_label
_atom_site_fract_x
_atom_site_fract_y
_atom_site_fract_z
Si Si1 0.804674 0.437390 0.387162
Si Si2 0.077302 0.743213 0.203369
Si Si3 0.873639 0.740889 0.948078
Si Si4 0.862397 0.508673 0.201831
Si Si5 0.721408 0.850074 0.949140
Si Si6 0.575389 0.556431 0.386386
Si Si7 0.918269 0.779158 0.197304
Si Si8 0.165330 0.826633 0.119507
O O1 0.866319 0.367894 0.411988
O O2 0.823326 0.517762 0.344146
O O3 0.774051 0.521090 0.425806
O O4 0.744470 0.351377 0.370089
O O5 0.082871 0.597874 0.208246
O O6 0.097681 0.806359 0.250438
O O7 0.125188 0.783291 0.163190
O O8 0.999659 0.773237 0.193839
O O9 0.796090 0.790783 0.949090
O O10 0.920273 0.844217 0.925977
O O11 0.891709 0.710729 0.000000
O O12 0.824097 0.500000 0.250000
O O13 0.888957 0.643769 0.192229
O O14 0.669413 0.770000 0.920367
O O15 0.698159 0.861596 0.000000
O O16 0.500000 0.500000 0.380866
O O17 0.601149 0.625840 0.341098
O O18 0.626923 0.447591 0.395619
#
# Coordination Sequence:
#
# PCOD9527247 Si02
#       8
#    16  16  16  16  16  16  16  16
#     4  11  20  38  63  86 120 153 195 248 302 356
#     4  10  20  39  61  88 117 155 201 248 286 348
#     4  10  22  39  60  87 115 153 202 246 298 360
#     4  10  20  37  62  90 116 151 196 247 299 349
#     4  10  21  39  64  87 112 151 200 255 300 349
#     4  12  23  39  60  85 125 163 198 242 297 357
#     4  10  21  38  62  87 115 156 205 242 293 352
#     4  11  23  37  57  90 120 157 198 242 298 355
#
# _framework density 19.724076
#
# number of rings (size 3 to 8) (size 9 to 14) (size 15 to 20)
#    0.000    1.500    5.000    0.750    0.000    3.250 
#    2.250    1.250    0.000    0.000    0.000    3.500 
#    0.000    0.000    0.000    0.000    0.000    0.000 
#
# Total GULP energy -356709.334743 kJ/mol
# GULP energy per Si atom -5573.583355 kJ/mol
# Density = 1.967918 g / cm^3
# Si number density = 19.724076 Si / 1000 Ang^3
#
#
#
# Elastic Constant Matrix: (Units=GPa)
#
#
# Indices 1 2 3 4 5 6 
#
# 1 30.2039 10.0690 31.6952 0.0000 0.0000 0.0000
# 2 10.0690 47.8420 25.3739 0.0000 0.0000 0.0000
# 3 31.6952 25.3739 150.4217 0.0000 0.0000 0.0000
# 4 0.0000 0.0000 0.0000 25.5073 0.0000 0.0000
# 5 0.0000 0.0000 0.0000 0.0000 22.9937 0.0000
# 6 0.0000 0.0000 0.0000 0.0000 0.0000 29.3426
#
#
#
# Elastic Compliance Matrix: (Units=1/GPa)
#
#
# Indices 1 2 3 4 5 6 
#
# 1 0.043453 -0.004711 -0.008361 0.000000 0.000000 0.000000
# 2 -0.004711 0.023467 -0.002966 0.000000 0.000000 0.000000
# 3 -0.008361 -0.002966 0.008910 0.000000 0.000000 0.000000
# 4 0.000000 0.000000 0.000000 0.039204 0.000000 0.000000
# 5 0.000000 0.000000 0.000000 0.000000 0.043490 0.000000
# 6 0.000000 0.000000 0.000000 0.000000 0.000000 0.034080
#
#
# Mechanical properties :
#
#
# Convention : Reuss Voigt Hill
#
# Bulk Modulus (GPa) = 22.85518 40.30488 31.58003
# Shear Modulus (GPa) = 20.89737 26.32402 23.61069
#
# Velocity S-wave (km/s) = 3.25850 3.65720 3.46359
# Velocity P-wave (km/s) = 5.07639 6.18968 5.66047
#
# Compressibility (1/GPa) = 0.04375375
#
# Stress axis : x y z
#
# Youngs Moduli (GPa) = 23.01345 42.61382 112.23256
#
# Poissons Ratio (x) = 0.20074 0.93841
# Poissons Ratio (y) = 0.10841 0.33287
# Poissons Ratio (z) = 0.19242 0.12639
#
# Static dielectric constant tensor:
#      x y z
#    x 1.674260 0.000000 0.000000 
#    y 0.000000 1.740290 0.000000 
#    z 0.000000 0.000000 1.742660 
# 
# From -- ./inp_files/49794.got.cif
#   From: 2010.05.17/outbox.cif.g08.bks.cpg/sg72_25_cif.got.tgz:49794.got - 2010.06.03 17:03:01.
