data_PCOD9527444
_publ_section_title
;
Structure prediction by ZEFSAII (Michael W. Deem and Ramdas Pophale) SiO2 
 PCOD9527444
Probable space group: I B A M
;
_chemical_formula_sum "Si O2"
_cell_formula_units_Z 88
_cell_length_a 25.257107
_cell_length_b 8.658292
_cell_length_c 20.440538
_cell_angle_alpha 90.000000
_cell_angle_beta 90.000000
_cell_angle_gamma 90.000000
_cell_volume 4470.006501
_symmetry_space_group_name_H-M "I B A M"
_symmetry_group_IT_number 72
_symmetry_cell_setting 'orthorhombic'
loop_
_space_group_symop_operation_xyz
x,y,z
-x,-y,z
x,-y,1/2-z
-x,y,1/2-z
-x,-y,-z
x,y,-z
-x,y,1/2+z
x,-y,1/2+z
1/2+x,1/2+y,1/2+z
1/2-x,1/2-y,1/2+z
1/2+x,1/2-y,-z
1/2-x,1/2+y,-z
1/2-x,1/2-y,1/2-z
1/2+x,1/2+y,1/2-z
1/2-x,1/2+y,z
1/2+x,1/2-y,z
loop_
_atom_site_type_symbol
_atom_site_label
_atom_site_fract_x
_atom_site_fract_y
_atom_site_fract_z
Si Si1 0.637802 0.750516 0.859474
Si Si2 0.437072 0.984801 0.422640
Si Si3 0.804448 0.010192 0.072160
Si Si4 0.625532 0.736587 0.645090
Si Si5 0.110828 0.000000 0.250000
Si Si6 0.714155 0.972631 0.320436
O O1 0.661082 0.664807 0.922459
O O2 0.634636 0.619982 0.803360
O O3 0.584774 0.839370 0.880992
O O4 0.677975 0.880502 0.835784
O O5 0.423588 0.970571 0.500000
O O6 0.409345 0.136587 0.392047
O O7 0.500000 0.000000 0.417137
O O8 0.757410 0.035939 0.123403
O O9 0.843303 0.873196 0.094658
O O10 0.783574 0.981657 0.000000
O O11 0.592242 0.631114 0.696486
O O12 0.673776 0.828580 0.680517
O O13 0.740208 0.000000 0.250000
#
# Coordination Sequence:
#
# PCOD9527444 Si02
#       6
#    16  16  16  16   8  16
#     4  10  22  39  62  87 125 157 202 251 306 355
#     4  10  22  43  69  91 113 154 206 254 312 374
#     4  11  24  37  56  90 128 164 204 251 306 356
#     4  10  22  39  62  87 125 157 202 251 306 355
#     4  10  20  40  61  88 122 160 198 248 305 370
#     4  11  22  36  61  88 121 166 211 245 289 355
#
# _framework density 19.686771
#
# number of rings (size 3 to 8) (size 9 to 14) (size 15 to 20)
#    0.000    1.636    1.818    2.182    5.091    7.273 
#    0.000    6.364    0.000    9.818    0.000    0.000 
#    0.000    0.000    0.000    0.000    0.000    0.000 
#
# Total GULP energy -245103.694216 kJ/mol
# GULP energy per Si atom -5570.538505 kJ/mol
# Density = 1.964196 g / cm^3
# Si number density = 19.686771 Si / 1000 Ang^3
#
#
#
# Elastic Constant Matrix: (Units=GPa)
#
#
# Indices 1 2 3 4 5 6 
#
# 1 73.9182 30.0879 38.7149 0.0000 0.0000 0.0000
# 2 30.0879 99.9633 37.9882 0.0000 0.0000 0.0000
# 3 38.7149 37.9882 125.8076 0.0000 0.0000 0.0000
# 4 0.0000 0.0000 0.0000 19.7087 0.0000 0.0000
# 5 0.0000 0.0000 0.0000 0.0000 6.6198 0.0000
# 6 0.0000 0.0000 0.0000 0.0000 0.0000 13.2258
#
#
#
# Elastic Compliance Matrix: (Units=1/GPa)
#
#
# Indices 1 2 3 4 5 6 
#
# 1 0.017188 -0.003573 -0.004210 0.000000 0.000000 0.000000
# 2 -0.003573 0.012043 -0.002537 0.000000 0.000000 0.000000
# 3 -0.004210 -0.002537 0.010010 0.000000 0.000000 0.000000
# 4 0.000000 0.000000 0.000000 0.050739 0.000000 0.000000
# 5 0.000000 0.000000 0.000000 0.000000 0.151062 0.000000
# 6 0.000000 0.000000 0.000000 0.000000 0.000000 0.075610
#
#
# Mechanical properties :
#
#
# Convention : Reuss Voigt Hill
#
# Bulk Modulus (GPa) = 53.76194 57.03012 55.39603
# Shear Modulus (GPa) = 14.55629 20.77073 17.66351
#
# Velocity S-wave (km/s) = 2.72213 3.25169 2.99863
# Velocity P-wave (km/s) = 6.10311 6.56732 6.33946
#
# Compressibility (1/GPa) = 0.01860052
#
# Stress axis : x y z
#
# Youngs Moduli (GPa) = 58.17949 83.03366 99.89700
#
# Poissons Ratio (x) = 0.29672 0.42060
# Poissons Ratio (y) = 0.20790 0.25343
# Poissons Ratio (z) = 0.24495 0.21065
#
# Static dielectric constant tensor:
#      x y z
#    x 1.662660 0.000000 0.000000 
#    y 0.000000 1.719210 0.000000 
#    z 0.000000 0.000000 1.721380 
# 
# From -- ./inp_files/35848.got.cif
#   From: 2010.05.17/outbox.cif.g08.bks.cpg/sg72_18_cif.got.tgz:35848.got - 2010.06.03 17:03:01.
