data_PCOD9527611
_publ_section_title
;
Structure prediction by ZEFSAII (Michael W. Deem and Ramdas Pophale) SiO2 
 PCOD9527611
Probable space group: I B A M
;
_chemical_formula_sum "Si O2"
_cell_formula_units_Z 96
_cell_length_a 8.730725
_cell_length_b 22.918043
_cell_length_c 23.927523
_cell_angle_alpha 90.000000
_cell_angle_beta 90.000000
_cell_angle_gamma 90.000000
_cell_volume 4787.685138
_symmetry_space_group_name_H-M "I B A M"
_symmetry_group_IT_number 72
_symmetry_cell_setting 'orthorhombic'
loop_
_space_group_symop_operation_xyz
x,y,z
-x,-y,z
x,-y,1/2-z
-x,y,1/2-z
-x,-y,-z
x,y,-z
-x,y,1/2+z
x,-y,1/2+z
1/2+x,1/2+y,1/2+z
1/2-x,1/2-y,1/2+z
1/2+x,1/2-y,-z
1/2-x,1/2+y,-z
1/2-x,1/2-y,1/2-z
1/2+x,1/2+y,1/2-z
1/2-x,1/2+y,z
1/2+x,1/2-y,z
loop_
_atom_site_type_symbol
_atom_site_label
_atom_site_fract_x
_atom_site_fract_y
_atom_site_fract_z
Si Si1 0.198970 0.143471 0.663400
Si Si2 0.621011 0.207247 0.063852
Si Si3 0.126456 0.174672 0.874143
Si Si4 0.148154 0.676676 0.223787
Si Si5 0.131251 0.392740 0.437483
Si Si6 0.522842 0.935624 0.668078
O O1 0.268823 0.177592 0.609818
O O2 0.241792 0.170523 0.723328
O O3 0.300015 0.084146 0.665454
O O4 0.018152 0.145540 0.655800
O O5 0.581222 0.270552 0.087802
O O6 0.471347 0.166349 0.062434
O O7 0.681469 0.210504 0.000000
O O8 0.252280 0.196894 0.828758
O O9 0.207140 0.126776 0.912869
O O10 0.072561 0.615749 0.200067
O O11 0.000000 0.709463 0.250000
O O12 0.139919 0.415530 0.500000
O O13 0.047496 0.434177 0.393924
O O14 0.500000 0.000000 0.690781
#
# Coordination Sequence:
#
# PCOD9527611 Si02
#       6
#    16  16  16  16  16  16
#     4  10  21  35  55  84 110 137 185 235 275 325
#     4  10  21  37  56  79 110 151 189 220 270 337
#     4  11  20  33  55  81 113 146 182 232 273 318
#     4   9  20  37  54  76 108 143 181 223 279 336
#     4   9  19  35  54  80 114 148 183 223 272 331
#     4   9  19  38  62  81 104 142 184 227 277 337
#
# _framework density 20.051445000000001
#
# number of rings (size 3 to 8) (size 9 to 14) (size 15 to 20)
#    0.000    2.333    0.000    3.000    0.000    6.667 
#    0.000    8.333    0.000    9.000    0.000    0.000 
#    0.000    0.000    0.000    0.000    0.000    0.000 
#
# Total GULP energy -267698.065655 kJ/mol
# GULP energy per Si atom -5577.043034 kJ/mol
# Density = 2.000581 g / cm^3
# Si number density = 20.051445 Si / 1000 Ang^3
#
#
#
# Elastic Constant Matrix: (Units=GPa)
#
#
# Indices 1 2 3 4 5 6 
#
# 1 82.8118 16.3370 32.6080 0.0000 0.0000 0.0000
# 2 16.3370 69.5153 12.3698 0.0000 0.0000 0.0000
# 3 32.6080 12.3698 162.6517 0.0000 0.0000 0.0000
# 4 0.0000 0.0000 0.0000 -5.4544 0.0000 0.0000
# 5 0.0000 0.0000 0.0000 0.0000 28.7313 0.0000
# 6 0.0000 0.0000 0.0000 0.0000 0.0000 1.8281
#
#
#
# Elastic Compliance Matrix: (Units=1/GPa)
#
#
# Indices 1 2 3 4 5 6 
#
# 1 0.013610 -0.002750 -0.002519 0.000000 0.000000 0.000000
# 2 -0.002750 0.015138 -0.000600 0.000000 0.000000 0.000000
# 3 -0.002519 -0.000600 0.006699 0.000000 0.000000 0.000000
# 4 0.000000 0.000000 0.000000 -0.183337 0.000000 0.000000
# 5 0.000000 0.000000 0.000000 0.000000 0.034805 0.000000
# 6 0.000000 0.000000 0.000000 0.000000 0.000000 0.547004
#
#
# Mechanical properties :
#
#
# Convention : Reuss Voigt Hill
#
# Bulk Modulus (GPa) = 42.17935 48.62316 45.40126
# Shear Modulus (GPa) = 11.02386 21.93193 16.47789
#
# Velocity S-wave (km/s) = 2.34728 3.31083 2.86978
# Velocity P-wave (km/s) = 5.33175 6.23837 5.80279
#
# Compressibility (1/GPa) = 0.02370828
#
# Stress axis : x y z
#
# Youngs Moduli (GPa) = 73.47446 66.05708 149.28022
#
# Poissons Ratio (x) = 0.18167 0.37609
# Poissons Ratio (y) = 0.20207 0.08956
# Poissons Ratio (z) = 0.18511 0.03963
#
# Static dielectric constant tensor:
#      x y z
#    x 1.729230 0.000000 0.000000 
#    y 0.000000 1.716980 0.000000 
#    z 0.000000 0.000000 1.739160 
# 
# From -- ./inp_files/42416.got.cif
#   From: 2010.05.17/outbox.cif.g08.bks.cpg/sg72_22_cif.got.tgz:42416.got - 2010.06.03 17:03:01.
