data_PCOD9527782
_publ_section_title
;
Structure prediction by ZEFSAII (Michael W. Deem and Ramdas Pophale) SiO2 
 PCOD9527782
Probable space group: I B A M
;
_chemical_formula_sum "Si O2"
_cell_formula_units_Z 116
_cell_length_a 24.053491
_cell_length_b 16.579541
_cell_length_c 15.700352
_cell_angle_alpha 90.000000
_cell_angle_beta 90.000000
_cell_angle_gamma 90.000000
_cell_volume 6261.235068
_symmetry_space_group_name_H-M "I B A M"
_symmetry_group_IT_number 72
_symmetry_cell_setting 'orthorhombic'
loop_
_space_group_symop_operation_xyz
x,y,z
-x,-y,z
x,-y,1/2-z
-x,y,1/2-z
-x,-y,-z
x,y,-z
-x,y,1/2+z
x,-y,1/2+z
1/2+x,1/2+y,1/2+z
1/2-x,1/2-y,1/2+z
1/2+x,1/2-y,-z
1/2-x,1/2+y,-z
1/2-x,1/2-y,1/2-z
1/2+x,1/2+y,1/2-z
1/2-x,1/2+y,z
1/2+x,1/2-y,z
loop_
_atom_site_type_symbol
_atom_site_label
_atom_site_fract_x
_atom_site_fract_y
_atom_site_fract_z
Si Si1 0.779325 0.410625 0.760939
Si Si2 0.343293 0.542023 0.830497
Si Si3 0.189909 0.691851 0.598242
Si Si4 0.634943 0.372761 0.598848
Si Si5 0.000000 0.000000 0.500000
Si Si6 0.909705 0.802897 0.101930
Si Si7 0.202712 0.288774 0.596575
Si Si8 0.986173 0.124134 0.842623
O O1 0.802867 0.500000 0.750000
O O2 0.715456 0.424346 0.794334
O O3 0.786643 0.367556 0.670004
O O4 0.807758 0.355400 0.832548
O O5 0.372894 0.500000 0.750000
O O6 0.338463 0.462050 0.889189
O O7 0.378806 0.613830 0.870097
O O8 0.189697 0.660537 0.500000
O O9 0.130234 0.727929 0.623301
O O10 0.231862 0.767899 0.596993
O O11 0.619050 0.368492 0.500000
O O12 0.674688 0.297393 0.616629
O O13 0.579220 0.359421 0.652271
O O14 0.998465 0.931732 0.576063
O O15 0.970236 0.802811 0.144215
O O16 0.913893 0.803685 0.000000
O O17 0.187140 0.312491 0.500000
O O18 0.000000 0.090119 0.750000
#
# Coordination Sequence:
#
# PCOD9527782 Si02
#       8
#    16  16  16  16   4  16  16  16
#     4  11  23  37  59  86 119 154 198 254 309 367
#     4  11  22  33  53  85 115 160 200 238 290 352
#     4  10  22  39  61  85 117 160 205 257 310 366
#     4  11  23  40  58  86 126 165 207 254 297 366
#     4  12  22  44  52  82 132 160 212 256 280 352
#     4  11  22  39  59  85 121 160 210 254 297 352
#     4  10  21  37  59  84 116 156 197 246 308 365
#     4  12  25  39  60  84 119 170 212 252 304 353
#
# _framework density 18.526696000000001
#
# number of rings (size 3 to 8) (size 9 to 14) (size 15 to 20)
#    0.000    1.103    2.759    4.345    3.862    1.103 
#    0.000    2.069    0.000    0.000    0.000    1.931 
#    0.000    4.414    0.000    0.000    0.000    0.000 
#
# Total GULP energy -322951.132133 kJ/mol
# GULP energy per Si atom -5568.122968 kJ/mol
# Density = 1.848453 g / cm^3
# Si number density = 18.526696 Si / 1000 Ang^3
#
#
#
# Elastic Constant Matrix: (Units=GPa)
#
#
# Indices 1 2 3 4 5 6 
#
# 1 82.6115 23.6129 26.2529 0.0000 0.0000 0.0000
# 2 23.6129 82.4116 56.3022 0.0000 0.0000 0.0000
# 3 26.2529 56.3022 120.9783 0.0000 0.0000 0.0000
# 4 0.0000 0.0000 0.0000 27.9655 0.0000 0.0000
# 5 0.0000 0.0000 0.0000 0.0000 21.9030 0.0000
# 6 0.0000 0.0000 0.0000 0.0000 0.0000 -34.1572
#
#
#
# Elastic Compliance Matrix: (Units=1/GPa)
#
#
# Indices 1 2 3 4 5 6 
#
# 1 0.013404 -0.002717 -0.001644 0.000000 0.000000 0.000000
# 2 -0.002717 0.018342 -0.007946 0.000000 0.000000 0.000000
# 3 -0.001644 -0.007946 0.012321 0.000000 0.000000 0.000000
# 4 0.000000 0.000000 0.000000 0.035758 0.000000 0.000000
# 5 0.000000 0.000000 0.000000 0.000000 0.045656 0.000000
# 6 0.000000 0.000000 0.000000 0.000000 0.000000 -0.029276
#
#
# Mechanical properties :
#
#
# Convention : Reuss Voigt Hill
#
# Bulk Modulus (GPa) = 51.41147 55.37084 53.39116
# Shear Modulus (GPa) = 39.27618 15.13114 27.20366
#
# Velocity S-wave (km/s) = 4.60932 2.86093 3.83606
# Velocity P-wave (km/s) = 7.49252 6.39259 6.96431
#
# Compressibility (1/GPa) = 0.01945091
#
# Stress axis : x y z
#
# Youngs Moduli (GPa) = 74.60444 54.52084 81.16306
#
# Poissons Ratio (x) = 0.14815 0.13344
# Poissons Ratio (y) = 0.20273 0.64495
# Poissons Ratio (z) = 0.12266 0.43324
#
# Static dielectric constant tensor:
#      x y z
#    x 1.714800 0.000000 0.000000 
#    y 0.000000 1.641340 0.000000 
#    z 0.000000 0.000000 1.690390 
# 
# From -- ./inp_files/25372.got.cif
#   From: 2010.05.17/outbox.cif.g08.bks.cpg/sg72_13_cif.got.tgz:25372.got - 2010.06.03 17:03:01.
