data_PCOD9527622
_publ_section_title
;
Structure prediction by ZEFSAII (Michael W. Deem and Ramdas Pophale) SiO2 
 PCOD9527622
Probable space group: I B A M
;
_chemical_formula_sum "Si O2"
_cell_formula_units_Z 80
_cell_length_a 7.550876
_cell_length_b 29.217517
_cell_length_c 17.404790
_cell_angle_alpha 90.000000
_cell_angle_beta 90.000000
_cell_angle_gamma 90.000000
_cell_volume 3839.807313
_symmetry_space_group_name_H-M "I B A M"
_symmetry_group_IT_number 72
_symmetry_cell_setting 'orthorhombic'
loop_
_space_group_symop_operation_xyz
x,y,z
-x,-y,z
x,-y,1/2-z
-x,y,1/2-z
-x,-y,-z
x,y,-z
-x,y,1/2+z
x,-y,1/2+z
1/2+x,1/2+y,1/2+z
1/2-x,1/2-y,1/2+z
1/2+x,1/2-y,-z
1/2-x,1/2+y,-z
1/2-x,1/2-y,1/2-z
1/2+x,1/2+y,1/2-z
1/2-x,1/2+y,z
1/2+x,1/2-y,z
loop_
_atom_site_type_symbol
_atom_site_label
_atom_site_fract_x
_atom_site_fract_y
_atom_site_fract_z
Si Si1 0.583567 0.404241 0.668955
Si Si2 0.552000 0.949407 0.659687
Si Si3 0.781254 0.778626 0.910240
Si Si4 0.114822 0.800888 0.172708
Si Si5 0.716917 0.122558 0.590990
O O1 0.500000 0.418779 0.750000
O O2 0.740918 0.438216 0.646975
O O3 0.671749 0.353648 0.678333
O O4 0.409643 0.395816 0.617513
O O5 0.500000 0.947255 0.750000
O O6 0.432734 0.911304 0.619764
O O7 0.500000 0.000000 0.632219
O O8 0.755915 0.737024 0.851060
O O9 0.680680 0.824803 0.883305
O O10 0.982239 0.794909 0.899416
O O11 0.745629 0.768235 0.000000
O O12 0.000000 0.792630 0.250000
O O13 0.717405 0.124816 0.500000
#
# Coordination Sequence:
#
# PCOD9527622 Si02
#       5
#    16  16  16  16  16
#     4  10  21  42  65  91 130 170 210 261 323 379
#     4  11  24  42  68  98 121 162 216 266 317 384
#     4  10  21  37  56  86 125 163 207 254 309 371
#     4  10  21  35  57  89 119 166 211 255 304 368
#     4  10  23  42  63  93 132 168 209 265 319 377
#
# _framework density 20.834378000000001
#
# number of rings (size 3 to 8) (size 9 to 14) (size 15 to 20)
#    0.000    1.800    2.000    1.200    2.800    3.600 
#    0.000    1.000    0.000    0.000    0.000    0.000 
#    0.000    0.000    0.000    0.000    0.000    0.000 
#
# Total GULP energy -223058.670039 kJ/mol
# GULP energy per Si atom -5576.466751 kJ/mol
# Density = 2.078696 g / cm^3
# Si number density = 20.834378 Si / 1000 Ang^3
#
#
#
# Elastic Constant Matrix: (Units=GPa)
#
#
# Indices 1 2 3 4 5 6 
#
# 1 80.3370 42.8930 3.3374 0.0000 0.0000 0.0000
# 2 42.8930 71.4486 10.8589 0.0000 0.0000 0.0000
# 3 3.3374 10.8589 39.9951 0.0000 0.0000 0.0000
# 4 0.0000 0.0000 0.0000 19.9685 0.0000 0.0000
# 5 0.0000 0.0000 0.0000 0.0000 23.2060 0.0000
# 6 0.0000 0.0000 0.0000 0.0000 0.0000 43.1358
#
#
#
# Elastic Compliance Matrix: (Units=1/GPa)
#
#
# Indices 1 2 3 4 5 6 
#
# 1 0.018408 -0.011283 0.001527 0.000000 0.000000 0.000000
# 2 -0.011283 0.021515 -0.004900 0.000000 0.000000 0.000000
# 3 0.001527 -0.004900 0.026206 0.000000 0.000000 0.000000
# 4 0.000000 0.000000 0.000000 0.050079 0.000000 0.000000
# 5 0.000000 0.000000 0.000000 0.000000 0.043092 0.000000
# 6 0.000000 0.000000 0.000000 0.000000 0.000000 0.023183
#
#
# Mechanical properties :
#
#
# Convention : Reuss Voigt Hill
#
# Bulk Modulus (GPa) = 27.16104 33.99547 30.57825
# Shear Modulus (GPa) = 22.31479 26.24149 24.27814
#
# Velocity S-wave (km/s) = 3.27625 3.55283 3.41734
# Velocity P-wave (km/s) = 5.23227 5.76043 5.50269
#
# Compressibility (1/GPa) = 0.03681745
#
# Stress axis : x y z
#
# Youngs Moduli (GPa) = 54.32282 46.48017 38.15936
#
# Poissons Ratio (x) = 0.52445 -0.05829
# Poissons Ratio (y) = 0.61294 0.18697
# Poissons Ratio (z) = -0.08297 0.22774
#
# Static dielectric constant tensor:
#      x y z
#    x 1.775370 0.000000 0.000000 
#    y 0.000000 1.832150 0.000000 
#    z 0.000000 0.000000 1.734790 
# 
# From -- ./inp_files/28169.got.cif
#   From: 2010.05.17/outbox.cif.g08.bks.cpg/sg72_15_cif.got.tgz:28169.got - 2010.06.03 17:03:01.
