data_PCOD9527372
_publ_section_title
;
Structure prediction by ZEFSAII (Michael W. Deem and Ramdas Pophale) SiO2 
 PCOD9527372
Probable space group: I B A M
;
_chemical_formula_sum "Si O2"
_cell_formula_units_Z 96
_cell_length_a 12.420270
_cell_length_b 24.893504
_cell_length_c 14.630764
_cell_angle_alpha 90.000000
_cell_angle_beta 90.000000
_cell_angle_gamma 90.000000
_cell_volume 4523.598735
_symmetry_space_group_name_H-M "I B A M"
_symmetry_group_IT_number 72
_symmetry_cell_setting 'orthorhombic'
loop_
_space_group_symop_operation_xyz
x,y,z
-x,-y,z
x,-y,1/2-z
-x,y,1/2-z
-x,-y,-z
x,y,-z
-x,y,1/2+z
x,-y,1/2+z
1/2+x,1/2+y,1/2+z
1/2-x,1/2-y,1/2+z
1/2+x,1/2-y,-z
1/2-x,1/2+y,-z
1/2-x,1/2-y,1/2-z
1/2+x,1/2+y,1/2-z
1/2-x,1/2+y,z
1/2+x,1/2-y,z
loop_
_atom_site_type_symbol
_atom_site_label
_atom_site_fract_x
_atom_site_fract_y
_atom_site_fract_z
Si Si1 0.831401 0.980867 0.603354
Si Si2 0.625868 0.253493 0.292921
Si Si3 0.605169 0.974968 0.851244
Si Si4 0.616494 0.634730 0.108859
Si Si5 0.842712 0.358320 0.889739
Si Si6 0.883336 0.093074 0.610191
O O1 0.875471 0.973251 0.500000
O O2 0.829325 0.920998 0.643529
O O3 0.712114 0.005291 0.599436
O O4 0.890515 0.032161 0.647454
O O5 0.500000 0.256702 0.250000
O O6 0.750000 0.250000 0.250000
O O7 0.641030 0.308771 0.347412
O O8 0.620555 0.198236 0.350539
O O9 0.595553 0.910848 0.852983
O O10 0.500000 0.000000 0.894322
O O11 0.614655 0.000000 0.750000
O O12 0.491409 0.624094 0.128137
O O13 0.636273 0.638897 0.000000
O O14 0.719795 0.372693 0.861347
O O15 0.849186 0.357918 0.000000
O O16 0.873869 0.087177 0.500000
#
# Coordination Sequence:
#
# PCOD9527372 Si02
#       6
#    16  16  16  16  16  16
#     4   9  18  33  59  92 122 156 199 254 317 383
#     4  12  28  45  66  91 132 173 218 274 327 376
#     4  10  22  36  59  88 125 161 202 261 324 382
#     4  10  20  38  65  93 124 162 212 259 312 390
#     4  10  22  42  67  91 125 173 220 258 318 393
#     4   8  15  33  62  94 123 156 199 258 316 374
#
# _framework density 21.222041999999998
#
# number of rings (size 3 to 8) (size 9 to 14) (size 15 to 20)
#    0.000    2.167    0.000    3.500    4.667    3.333 
#    0.000    4.167    0.000    0.000    0.000    0.000 
#    0.000    0.000    0.000    0.000    0.000    0.000 
#
# Total GULP energy -267287.433582 kJ/mol
# GULP energy per Si atom -5568.488200 kJ/mol
# Density = 2.117374 g / cm^3
# Si number density = 21.222042 Si / 1000 Ang^3
#
#
#
# Elastic Constant Matrix: (Units=GPa)
#
#
# Indices 1 2 3 4 5 6 
#
# 1 81.1134 41.1993 15.3942 0.0000 0.0000 0.0000
# 2 41.1993 245.1800 61.5093 0.0000 0.0000 0.0000
# 3 15.3942 61.5093 77.9436 0.0000 0.0000 0.0000
# 4 0.0000 0.0000 0.0000 34.0545 0.0000 0.0000
# 5 0.0000 0.0000 0.0000 0.0000 16.5704 0.0000
# 6 0.0000 0.0000 0.0000 0.0000 0.0000 32.4944
#
#
#
# Elastic Compliance Matrix: (Units=1/GPa)
#
#
# Indices 1 2 3 4 5 6 
#
# 1 0.013554 -0.002002 -0.001097 0.000000 0.000000 0.000000
# 2 -0.002002 0.005381 -0.003851 0.000000 0.000000 0.000000
# 3 -0.001097 -0.003851 0.016086 0.000000 0.000000 0.000000
# 4 0.000000 0.000000 0.000000 0.029365 0.000000 0.000000
# 5 0.000000 0.000000 0.000000 0.000000 0.060349 0.000000
# 6 0.000000 0.000000 0.000000 0.000000 0.000000 0.030775
#
#
# Mechanical properties :
#
#
# Convention : Reuss Voigt Hill
#
# Bulk Modulus (GPa) = 47.34868 71.16030 59.25449
# Shear Modulus (GPa) = 28.33684 35.69946 32.01815
#
# Velocity S-wave (km/s) = 3.65808 4.10590 3.88844
# Velocity P-wave (km/s) = 6.34047 7.48879 6.93843
#
# Compressibility (1/GPa) = 0.02111991
#
# Stress axis : x y z
#
# Youngs Moduli (GPa) = 73.78104 185.83007 62.16762
#
# Poissons Ratio (x) = 0.37210 0.06818
# Poissons Ratio (y) = 0.14774 0.23942
# Poissons Ratio (z) = 0.08092 0.71566
#
# Static dielectric constant tensor:
#      x y z
#    x 1.856240 0.000000 0.000000 
#    y 0.000000 1.762690 0.000000 
#    z 0.000000 0.000000 1.867880 
# 
# From -- ./inp_files/29461.got.cif
#   From: 2010.05.17/outbox.cif.g08.bks.cpg/sg72_15_cif.got.tgz:29461.got - 2010.06.03 17:03:01.
