data_PCOD9527413
_publ_section_title
;
Structure prediction by ZEFSAII (Michael W. Deem and Ramdas Pophale) SiO2 
 PCOD9527413
Probable space group: I B A M
;
_chemical_formula_sum "Si O2"
_cell_formula_units_Z 96
_cell_length_a 9.903110
_cell_length_b 22.693022
_cell_length_c 21.752551
_cell_angle_alpha 90.000000
_cell_angle_beta 90.000000
_cell_angle_gamma 90.000000
_cell_volume 4888.483265
_symmetry_space_group_name_H-M "I B A M"
_symmetry_group_IT_number 72
_symmetry_cell_setting 'orthorhombic'
loop_
_space_group_symop_operation_xyz
x,y,z
-x,-y,z
x,-y,1/2-z
-x,y,1/2-z
-x,-y,-z
x,y,-z
-x,y,1/2+z
x,-y,1/2+z
1/2+x,1/2+y,1/2+z
1/2-x,1/2-y,1/2+z
1/2+x,1/2-y,-z
1/2-x,1/2+y,-z
1/2-x,1/2-y,1/2-z
1/2+x,1/2+y,1/2-z
1/2-x,1/2+y,z
1/2+x,1/2-y,z
loop_
_atom_site_type_symbol
_atom_site_label
_atom_site_fract_x
_atom_site_fract_y
_atom_site_fract_z
Si Si1 0.206577 0.373362 0.871419
Si Si2 0.081604 0.669875 0.886301
Si Si3 0.560449 0.700196 0.926220
Si Si4 0.171787 0.115265 0.931099
Si Si5 0.659220 0.808239 0.754435
Si Si6 0.839296 0.011603 0.927045
O O1 0.293386 0.324376 0.907894
O O2 0.201213 0.352325 0.800298
O O3 0.277699 0.434976 0.888013
O O4 0.050128 0.370329 0.891355
O O5 0.036063 0.737240 0.894644
O O6 0.197807 0.655818 0.934057
O O7 0.160737 0.663106 0.821729
O O8 0.451097 0.652167 0.903092
O O9 0.548095 0.706285 0.000000
O O10 0.217058 0.051960 0.906157
O O11 0.122548 0.100799 0.000000
O O12 0.500000 0.792300 0.750000
O O13 0.750000 0.750000 0.750000
O O14 0.812470 0.023824 0.000000
O O15 0.000000 0.000000 0.919880
#
# Coordination Sequence:
#
# PCOD9527413 Si02
#       6
#    16  16  16  16  16  16
#     4  11  22  38  61  87 119 163 210 254 313 371
#     4  11  23  37  57  91 126 160 203 255 316 378
#     4  11  21  35  59  89 124 163 202 255 316 384
#     4  10  22  38  59  90 125 161 202 258 316 373
#     4  10  22  39  60  87 119 160 203 250 310 365
#     4  10  20  39  64  87 119 163 210 256 313 381
#
# _framework density 19.637993000000002
#
# number of rings (size 3 to 8) (size 9 to 14) (size 15 to 20)
#    0.000    1.500    3.333    2.000    2.333    4.667 
#    0.000    2.500    0.000    4.000    0.000    0.000 
#    0.000    0.000    0.000    0.000    0.000    0.000 
#
# Total GULP energy -267601.072993 kJ/mol
# GULP energy per Si atom -5575.022354 kJ/mol
# Density = 1.959330 g / cm^3
# Si number density = 19.637993 Si / 1000 Ang^3
#
#
#
# Elastic Constant Matrix: (Units=GPa)
#
#
# Indices 1 2 3 4 5 6 
#
# 1 90.0896 39.6747 32.2286 0.0000 0.0000 0.0000
# 2 39.6747 117.9128 31.5341 0.0000 0.0000 0.0000
# 3 32.2286 31.5341 83.9788 0.0000 0.0000 0.0000
# 4 0.0000 0.0000 0.0000 26.3812 0.0000 0.0000
# 5 0.0000 0.0000 0.0000 0.0000 14.7764 0.0000
# 6 0.0000 0.0000 0.0000 0.0000 0.0000 32.2231
#
#
#
# Elastic Compliance Matrix: (Units=1/GPa)
#
#
# Indices 1 2 3 4 5 6 
#
# 1 0.014174 -0.003684 -0.004056 0.000000 0.000000 0.000000
# 2 -0.003684 0.010385 -0.002486 0.000000 0.000000 0.000000
# 3 -0.004056 -0.002486 0.014398 0.000000 0.000000 0.000000
# 4 0.000000 0.000000 0.000000 0.037906 0.000000 0.000000
# 5 0.000000 0.000000 0.000000 0.000000 0.067676 0.000000
# 6 0.000000 0.000000 0.000000 0.000000 0.000000 0.031034
#
#
# Mechanical properties :
#
#
# Convention : Reuss Voigt Hill
#
# Bulk Modulus (GPa) = 54.04077 55.42847 54.73462
# Shear Modulus (GPa) = 24.72898 27.24572 25.98735
#
# Velocity S-wave (km/s) = 3.55243 3.72882 3.64169
# Velocity P-wave (km/s) = 6.66367 6.84289 6.75388
#
# Compressibility (1/GPa) = 0.01850455
#
# Stress axis : x y z
#
# Youngs Moduli (GPa) = 70.55378 96.28983 69.45550
#
# Poissons Ratio (x) = 0.35477 0.28171
# Poissons Ratio (y) = 0.25995 0.17265
# Poissons Ratio (z) = 0.28616 0.23935
#
# Static dielectric constant tensor:
#      x y z
#    x 1.695190 0.000000 0.000000 
#    y 0.000000 1.738950 0.000000 
#    z 0.000000 0.000000 1.779200 
# 
# From -- ./inp_files/42399.got.cif
#   From: 2010.05.17/outbox.cif.g08.bks.cpg/sg72_22_cif.got.tgz:42399.got - 2010.06.03 17:03:01.
