data_PCOD9527007
_publ_section_title
;
Structure prediction by ZEFSAII (Michael W. Deem and Ramdas Pophale) SiO2 
 PCOD9527007
Probable space group: I B A M
;
_chemical_formula_sum "Si O2"
_cell_formula_units_Z 104
_cell_length_a 19.897408
_cell_length_b 25.188667
_cell_length_c 9.444607
_cell_angle_alpha 90.000000
_cell_angle_beta 90.000000
_cell_angle_gamma 90.000000
_cell_volume 4733.534878
_symmetry_space_group_name_H-M "I B A M"
_symmetry_group_IT_number 72
_symmetry_cell_setting 'orthorhombic'
loop_
_space_group_symop_operation_xyz
x,y,z
-x,-y,z
x,-y,1/2-z
-x,y,1/2-z
-x,-y,-z
x,y,-z
-x,y,1/2+z
x,-y,1/2+z
1/2+x,1/2+y,1/2+z
1/2-x,1/2-y,1/2+z
1/2+x,1/2-y,-z
1/2-x,1/2+y,-z
1/2-x,1/2-y,1/2-z
1/2+x,1/2+y,1/2-z
1/2-x,1/2+y,z
1/2+x,1/2-y,z
loop_
_atom_site_type_symbol
_atom_site_label
_atom_site_fract_x
_atom_site_fract_y
_atom_site_fract_z
Si Si1 0.992986 0.074312 0.500000
Si Si2 0.267932 0.360947 0.838031
Si Si3 0.437314 0.882315 0.661273
Si Si4 0.567240 0.723340 0.336001
Si Si5 0.089421 0.102345 0.762729
Si Si6 0.326537 0.211019 0.836604
Si Si7 0.344199 0.048043 0.338888
O O1 0.047489 0.091653 0.622413
O O2 0.936230 0.060451 0.623065
O O3 0.332466 0.389243 0.770207
O O4 0.237470 0.312124 0.747726
O O5 0.208608 0.404095 0.843802
O O6 0.283817 0.345285 0.000000
O O7 0.500000 0.861456 0.750000
O O8 0.455595 0.895617 0.500000
O O9 0.379670 0.837806 0.656733
O O10 0.407653 0.931394 0.749447
O O11 0.500000 0.738145 0.250000
O O12 0.565596 0.741472 0.500000
O O13 0.569745 0.659314 0.334013
O O14 0.631343 0.745451 0.251199
O O15 0.311207 0.225230 0.000000
O O16 0.361006 0.033175 0.500000
O O17 0.313878 0.000000 0.250000
#
# Coordination Sequence:
#
# PCOD9527007 Si02
#       7
#     8  16  16  16  16  16  16
#     4  10  20  36  58  84 113 138 186 232 273 328
#     4  10  22  39  59  82 113 145 180 223 276 332
#     4  10  20  36  55  81 111 147 189 232 274 318
#     4  12  22  35  54  77 110 149 194 237 279 321
#     4  11  20  37  57  85 111 144 184 230 276 322
#     4  10  23  36  53  78 111 152 194 234 276 323
#     4  10  21  39  60  85 112 142 178 222 270 330
#
# _framework density 21.970894999999999
#
# number of rings (size 3 to 8) (size 9 to 14) (size 15 to 20)
#    0.000    1.538    3.077    2.308    2.154    4.615 
#    0.000    1.538    0.000    0.000    0.000    3.231 
#    0.000    0.000    0.000    0.000    0.000    0.000 
#
# Total GULP energy -289514.094851 kJ/mol
# GULP energy per Si atom -5567.578747 kJ/mol
# Density = 2.192089 g / cm^3
# Si number density = 21.970895 Si / 1000 Ang^3
#
#
#
# Elastic Constant Matrix: (Units=GPa)
#
#
# Indices 1 2 3 4 5 6 
#
# 1 91.6404 -20.7482 40.3558 0.0000 0.0000 0.0000
# 2 -20.7482 31.5001 3.6491 0.0000 0.0000 0.0000
# 3 40.3558 3.6491 206.9901 0.0000 0.0000 0.0000
# 4 0.0000 0.0000 0.0000 17.0528 0.0000 0.0000
# 5 0.0000 0.0000 0.0000 0.0000 28.7793 0.0000
# 6 0.0000 0.0000 0.0000 0.0000 0.0000 0.1014
#
#
#
# Elastic Compliance Matrix: (Units=1/GPa)
#
#
# Indices 1 2 3 4 5 6 
#
# 1 0.014467 0.009876 -0.002995 0.000000 0.000000 0.000000
# 2 0.009876 0.038553 -0.002605 0.000000 0.000000 0.000000
# 3 -0.002995 -0.002605 0.005461 0.000000 0.000000 0.000000
# 4 0.000000 0.000000 0.000000 0.058641 0.000000 0.000000
# 5 0.000000 0.000000 0.000000 0.000000 0.034747 0.000000
# 6 0.000000 0.000000 0.000000 0.000000 0.000000 9.865597
#
#
# Mechanical properties :
#
#
# Convention : Reuss Voigt Hill
#
# Bulk Modulus (GPa) = 14.91808 41.84934 28.38371
# Shear Modulus (GPa) = 0.49844 29.64495 15.07170
#
# Velocity S-wave (km/s) = 0.47682 3.67724 2.62197
# Velocity P-wave (km/s) = 2.66605 6.09249 4.70246
#
# Compressibility (1/GPa) = 0.06703275
#
# Stress axis : x y z
#
# Youngs Moduli (GPa) = 69.12308 25.93855 183.11912
#
# Poissons Ratio (x) = -0.25617 0.54838
# Poissons Ratio (y) = -0.68265 0.47704
# Poissons Ratio (z) = 0.20700 0.06757
#
# Static dielectric constant tensor:
#      x y z
#    x 1.816220 0.000000 0.000000 
#    y 0.000000 1.908260 0.000000 
#    z 0.000000 0.000000 1.712490 
# 
# From -- ./inp_files/6186.got.cif
#   From: 2010.05.17/outbox.cif.g08.bks.cpg/sg72_4_cif.got.tgz:6186.got - 2010.06.03 17:03:01.
