data_PCOD9527473
_publ_section_title
;
Structure prediction by ZEFSAII (Michael W. Deem and Ramdas Pophale) SiO2 
 PCOD9527473
Probable space group: I B A M
;
_chemical_formula_sum "Si O2"
_cell_formula_units_Z 60
_cell_length_a 11.772132
_cell_length_b 12.915578
_cell_length_c 16.465961
_cell_angle_alpha 90.000000
_cell_angle_beta 90.000000
_cell_angle_gamma 90.000000
_cell_volume 2503.548748
_symmetry_space_group_name_H-M "I B A M"
_symmetry_group_IT_number 72
_symmetry_cell_setting 'orthorhombic'
loop_
_space_group_symop_operation_xyz
x,y,z
-x,-y,z
x,-y,1/2-z
-x,y,1/2-z
-x,-y,-z
x,y,-z
-x,y,1/2+z
x,-y,1/2+z
1/2+x,1/2+y,1/2+z
1/2-x,1/2-y,1/2+z
1/2+x,1/2-y,-z
1/2-x,1/2+y,-z
1/2-x,1/2-y,1/2-z
1/2+x,1/2+y,1/2-z
1/2-x,1/2+y,z
1/2+x,1/2-y,z
loop_
_atom_site_type_symbol
_atom_site_label
_atom_site_fract_x
_atom_site_fract_y
_atom_site_fract_z
Si Si1 0.493641 0.623000 0.000000
Si Si2 0.309481 0.093848 0.359412
Si Si3 0.061501 0.887974 0.824580
Si Si4 0.500000 0.000000 0.750000
Si Si5 0.268840 0.260614 0.500000
Si Si6 0.128750 0.449670 0.500000
O O1 0.500000 0.500000 0.000000
O O2 0.547379 0.657977 0.914547
O O3 0.364011 0.652402 0.000000
O O4 0.194386 0.098820 0.307992
O O5 0.419190 0.073676 0.304394
O O6 0.299016 0.190519 0.421271
O O7 0.311657 0.996190 0.420353
O O8 0.000000 0.831467 0.750000
O O9 0.000000 0.000000 0.829694
O O10 0.152187 0.327274 0.500000
O O11 0.000000 0.500000 0.500000
#
# Coordination Sequence:
#
# PCOD9527473 Si02
#       6
#     8  16  16   4   8   8
#     4  10  20  42  73 104 148 193 255 331 391 459
#     4  11  25  45  76 111 152 208 256 328 396 482
#     4  10  20  40  70 104 137 191 256 314 381 454
#     4  12  24  50  70 108 178 210 244 322 424 462
#     4  11  26  46  78 115 143 201 279 318 393 483
#     4  11  22  47  76 104 152 205 257 327 395 468
#
# _framework density 23.965980999999999
#
# number of rings (size 3 to 8) (size 9 to 14) (size 15 to 20)
#    0.000    1.333    1.333    6.400    0.000    4.267 
#    2.400    2.667    2.933    0.000    0.000    0.000 
#    0.000    0.000    0.000    0.000    0.000    0.000 
#
# Total GULP energy -167547.543446 kJ/mol
# GULP energy per Si atom -5584.918115 kJ/mol
# Density = 2.391143 g / cm^3
# Si number density = 23.965981 Si / 1000 Ang^3
#
#
#
# Elastic Constant Matrix: (Units=GPa)
#
#
# Indices 1 2 3 4 5 6 
#
# 1 191.9872 57.7832 73.8732 0.0000 0.0000 0.0000
# 2 57.7832 135.2761 48.5032 0.0000 0.0000 0.0000
# 3 73.8732 48.5032 185.6161 0.0000 0.0000 0.0000
# 4 0.0000 0.0000 0.0000 -13.0451 0.0000 0.0000
# 5 0.0000 0.0000 0.0000 0.0000 11.1491 0.0000
# 6 0.0000 0.0000 0.0000 0.0000 0.0000 29.7371
#
#
#
# Elastic Compliance Matrix: (Units=1/GPa)
#
#
# Indices 1 2 3 4 5 6 
#
# 1 0.006644 -0.002085 -0.002099 0.000000 0.000000 0.000000
# 2 -0.002085 0.008811 -0.001472 0.000000 0.000000 0.000000
# 3 -0.002099 -0.001472 0.006608 0.000000 0.000000 0.000000
# 4 0.000000 0.000000 0.000000 -0.076657 0.000000 0.000000
# 5 0.000000 0.000000 0.000000 0.000000 0.089693 0.000000
# 6 0.000000 0.000000 0.000000 0.000000 0.000000 0.033628
#
#
# Mechanical properties :
#
#
# Convention : Reuss Voigt Hill
#
# Bulk Modulus (GPa) = 93.03567 97.02209 95.02888
# Shear Modulus (GPa) = 59.79128 27.74954 43.77041
#
# Velocity S-wave (km/s) = 5.00026 3.40644 4.27822
# Velocity P-wave (km/s) = 8.49946 7.48618 8.00887
#
# Compressibility (1/GPa) = 0.01074857
#
# Stress axis : x y z
#
# Youngs Moduli (GPa) = 150.50940 113.49481 151.33723
#
# Poissons Ratio (x) = 0.23667 0.31771
# Poissons Ratio (y) = 0.31386 0.22284
# Poissons Ratio (z) = 0.31598 0.16712
#
# Static dielectric constant tensor:
#      x y z
#    x 1.929680 0.000000 0.000000 
#    y 0.000000 1.879080 0.000000 
#    z 0.000000 0.000000 1.960480 
# 
# From -- ./inp_files/28739.got.cif
#   From: 2010.05.17/outbox.cif.g08.bks.cpg/sg72_15_cif.got.tgz:28739.got - 2010.06.03 17:03:01.
