data_PCOD9527284
_publ_section_title
;
Structure prediction by ZEFSAII (Michael W. Deem and Ramdas Pophale) SiO2 
 PCOD9527284
Probable space group: I B A M
;
_chemical_formula_sum "Si O2"
_cell_formula_units_Z 108
_cell_length_a 11.079410
_cell_length_b 28.731127
_cell_length_c 15.424491
_cell_angle_alpha 90.000000
_cell_angle_beta 90.000000
_cell_angle_gamma 90.000000
_cell_volume 4909.984683
_symmetry_space_group_name_H-M "I B A M"
_symmetry_group_IT_number 72
_symmetry_cell_setting 'orthorhombic'
loop_
_space_group_symop_operation_xyz
x,y,z
-x,-y,z
x,-y,1/2-z
-x,y,1/2-z
-x,-y,-z
x,y,-z
-x,y,1/2+z
x,-y,1/2+z
1/2+x,1/2+y,1/2+z
1/2-x,1/2-y,1/2+z
1/2+x,1/2-y,-z
1/2-x,1/2+y,-z
1/2-x,1/2-y,1/2-z
1/2+x,1/2+y,1/2-z
1/2-x,1/2+y,z
1/2+x,1/2-y,z
loop_
_atom_site_type_symbol
_atom_site_label
_atom_site_fract_x
_atom_site_fract_y
_atom_site_fract_z
Si Si1 0.277858 0.561381 0.221356
Si Si2 0.171184 0.097803 0.592083
Si Si3 0.764197 0.152046 0.600023
Si Si4 0.565441 0.772391 0.897069
Si Si5 0.000000 0.000000 0.250000
Si Si6 0.420628 0.146300 0.400770
Si Si7 0.509653 0.324772 0.651019
Si Si8 0.000000 0.424205 0.250000
O O1 0.311626 0.568532 0.322064
O O2 0.277806 0.608137 0.163727
O O3 0.398238 0.530603 0.195712
O O4 0.130272 0.550457 0.227081
O O5 0.174949 0.072301 0.500000
O O6 0.281202 0.134080 0.595303
O O7 0.057694 0.131077 0.599590
O O8 0.751379 0.137212 0.500000
O O9 0.655949 0.185929 0.625772
O O10 0.880432 0.184551 0.610308
O O11 0.441466 0.799877 0.877340
O O12 0.582038 0.723262 0.852195
O O13 0.574831 0.763459 0.000000
O O14 0.468151 0.139497 0.500000
O O15 0.474027 0.109387 0.332470
O O16 0.500000 0.339596 0.750000
#
# Coordination Sequence:
#
# PCOD9527284 Si02
#       8
#    16  16  16  16   4  16  16   8
#     4  11  23  45  68 101 127 171 217 274 339 413
#     4  10  21  40  64  86 123 170 215 264 322 392
#     4  11  23  42  65  89 128 177 224 274 329 394
#     4  10  22  36  53  84 124 167 219 269 317 367
#     4  12  28  46  74  98 140 164 210 276 342 426
#     4   9  19  35  58  88 118 161 210 260 312 373
#     4  12  24  35  54  86 127 175 225 276 325 375
#     4  10  20  37  70  95 126 160 215 262 326 391
#
# _framework density 21.995994
#
# number of rings (size 3 to 8) (size 9 to 14) (size 15 to 20)
#    0.000    1.481    2.963    2.222    3.111    0.889 
#    0.000    1.481    0.000    0.000    0.000    5.185 
#    0.000    0.000    0.000    0.000    0.000    0.000 
#
# Total GULP energy -300612.658977 kJ/mol
# GULP energy per Si atom -5566.901092 kJ/mol
# Density = 2.194593 g / cm^3
# Si number density = 21.995994 Si / 1000 Ang^3
#
#
#
# Elastic Constant Matrix: (Units=GPa)
#
#
# Indices 1 2 3 4 5 6 
#
# 1 97.0750 22.1719 9.4129 0.0000 0.0000 0.0000
# 2 22.1719 53.4535 11.2809 0.0000 0.0000 0.0000
# 3 9.4129 11.2809 83.2125 0.0000 0.0000 0.0000
# 4 0.0000 0.0000 0.0000 8.2104 0.0000 0.0000
# 5 0.0000 0.0000 0.0000 0.0000 21.5632 0.0000
# 6 0.0000 0.0000 0.0000 0.0000 0.0000 26.8046
#
#
#
# Elastic Compliance Matrix: (Units=1/GPa)
#
#
# Indices 1 2 3 4 5 6 
#
# 1 0.011415 -0.004594 -0.000669 0.000000 0.000000 0.000000
# 2 -0.004594 0.021108 -0.002342 0.000000 0.000000 0.000000
# 3 -0.000669 -0.002342 0.012411 0.000000 0.000000 0.000000
# 4 0.000000 0.000000 0.000000 0.121797 0.000000 0.000000
# 5 0.000000 0.000000 0.000000 0.000000 0.046375 0.000000
# 6 0.000000 0.000000 0.000000 0.000000 0.000000 0.037307
#
#
# Mechanical properties :
#
#
# Convention : Reuss Voigt Hill
#
# Bulk Modulus (GPa) = 33.64173 35.49693 34.56933
# Shear Modulus (GPa) = 18.14687 24.04067 21.09377
#
# Velocity S-wave (km/s) = 2.87541 3.30958 3.10010
# Velocity P-wave (km/s) = 5.13339 5.54773 5.34458
#
# Compressibility (1/GPa) = 0.02972499
#
# Stress axis : x y z
#
# Youngs Moduli (GPa) = 87.60113 47.37639 80.57680
#
# Poissons Ratio (x) = 0.21764 0.05387
# Poissons Ratio (y) = 0.40243 0.18870
# Poissons Ratio (z) = 0.05856 0.11095
#
# Static dielectric constant tensor:
#      x y z
#    x 1.938980 0.000000 0.000000 
#    y 0.000000 1.812260 0.000000 
#    z 0.000000 0.000000 1.846000 
# 
# From -- ./inp_files/20782.got.cif
#   From: 2010.05.17/outbox.cif.g08.bks.cpg/sg72_11_cif.got.tgz:20782.got - 2010.06.03 17:03:01.
