data_PCOD9527669
_publ_section_title
;
Structure prediction by ZEFSAII (Michael W. Deem and Ramdas Pophale) SiO2 
 PCOD9527669
Probable space group: I B A M
;
_chemical_formula_sum "Si O2"
_cell_formula_units_Z 112
_cell_length_a 14.700299
_cell_length_b 23.666784
_cell_length_c 14.344705
_cell_angle_alpha 90.000000
_cell_angle_beta 90.000000
_cell_angle_gamma 90.000000
_cell_volume 4990.649120
_symmetry_space_group_name_H-M "I B A M"
_symmetry_group_IT_number 72
_symmetry_cell_setting 'orthorhombic'
loop_
_space_group_symop_operation_xyz
x,y,z
-x,-y,z
x,-y,1/2-z
-x,y,1/2-z
-x,-y,-z
x,y,-z
-x,y,1/2+z
x,-y,1/2+z
1/2+x,1/2+y,1/2+z
1/2-x,1/2-y,1/2+z
1/2+x,1/2-y,-z
1/2-x,1/2+y,-z
1/2-x,1/2-y,1/2-z
1/2+x,1/2+y,1/2-z
1/2-x,1/2+y,z
1/2+x,1/2-y,z
loop_
_atom_site_type_symbol
_atom_site_label
_atom_site_fract_x
_atom_site_fract_y
_atom_site_fract_z
Si Si1 0.725249 0.052274 0.391004
Si Si2 0.603616 0.318207 0.398326
Si Si3 0.724541 0.734598 0.393273
Si Si4 0.533204 0.099213 0.605163
Si Si5 0.165487 0.423684 0.889476
Si Si6 0.027937 0.723445 0.357525
Si Si7 0.200142 0.130268 0.754010
O O1 0.740709 0.065734 0.500000
O O2 0.631334 0.082557 0.357216
O O3 0.801548 0.077709 0.324308
O O4 0.708065 0.985871 0.382748
O O5 0.614927 0.345921 0.500000
O O6 0.685494 0.272642 0.386128
O O7 0.513964 0.280574 0.397785
O O8 0.611803 0.357306 0.308312
O O9 0.721419 0.712911 0.500000
O O10 0.634914 0.772297 0.375416
O O11 0.723609 0.684319 0.318323
O O12 0.536765 0.075998 0.500000
O O13 0.439190 0.075311 0.645247
O O14 0.516818 0.166397 0.603407
O O15 0.224780 0.383302 0.825015
O O16 0.164722 0.407103 0.000000
O O17 0.000000 0.722651 0.250000
#
# Coordination Sequence:
#
# PCOD9527669 Si02
#       7
#    16  16  16  16  16  16  16
#     4  10  22  39  59  87 123 164 211 261 314 374
#     4  11  24  41  61  88 125 167 211 258 310 372
#     4  11  24  41  61  88 125 167 211 258 310 372
#     4  10  21  36  57  85 124 170 210 249 305 376
#     4  10  22  39  59  87 123 164 211 261 314 374
#     4  12  24  39  61  94 130 169 210 255 307 374
#     4  12  22  36  57  84 114 156 204 255 302 357
#
# _framework density 22.441970000000001
#
# number of rings (size 3 to 8) (size 9 to 14) (size 15 to 20)
#    0.000    1.143    1.429    5.143    6.000    6.286 
#    0.000    1.429    0.000    0.000    0.000    8.000 
#    0.000   18.286    0.000    0.000    0.000    0.000 
#
# Total GULP energy -313285.059236 kJ/mol
# GULP energy per Si atom -5594.376058 kJ/mol
# Density = 2.239089 g / cm^3
# Si number density = 22.441970 Si / 1000 Ang^3
#
#
#
# Elastic Constant Matrix: (Units=GPa)
#
#
# Indices 1 2 3 4 5 6 
#
# 1 43.1790 14.5657 4.0489 0.0000 0.0000 0.0000
# 2 14.5657 78.6893 41.8862 -0.0001 0.0000 0.0000
# 3 4.0489 41.8862 148.5918 -0.0001 0.0000 0.0000
# 4 0.0000 -0.0001 -0.0001 28.0135 0.0000 0.0000
# 5 0.0000 0.0000 0.0000 0.0000 7.4468 0.0000
# 6 0.0000 0.0000 0.0000 0.0000 0.0000 31.4089
#
#
#
# Elastic Compliance Matrix: (Units=1/GPa)
#
#
# Indices 1 2 3 4 5 6 
#
# 1 0.024768 -0.004971 0.000726 0.000000 0.000000 0.000000
# 2 -0.004971 0.015950 -0.004361 0.000000 0.000000 0.000000
# 3 0.000726 -0.004361 0.007939 0.000000 0.000000 0.000000
# 4 0.000000 0.000000 0.000000 0.035697 0.000000 0.000000
# 5 0.000000 0.000000 0.000000 0.000000 0.134286 0.000000
# 6 0.000000 0.000000 0.000000 0.000000 0.000000 0.031838
#
#
# Mechanical properties :
#
#
# Convention : Reuss Voigt Hill
#
# Bulk Modulus (GPa) = 31.80038 43.49575 37.64807
# Shear Modulus (GPa) = 17.97455 27.37112 22.67283
#
# Velocity S-wave (km/s) = 2.83315 3.49612 3.18195
# Velocity P-wave (km/s) = 4.99030 5.97668 5.50562
#
# Compressibility (1/GPa) = 0.03144617
#
# Stress axis : x y z
#
# Youngs Moduli (GPa) = 40.37413 62.69774 125.95684
#
# Poissons Ratio (x) = 0.31170 -0.09151
# Poissons Ratio (y) = 0.20072 0.54924
# Poissons Ratio (z) = -0.02933 0.27339
#
# Static dielectric constant tensor:
#      x y z
#    x 1.832640 0.000000 0.000000 
#    y 0.000000 1.834600 0.000000 
#    z 0.000000 0.000000 1.919870 
# 
# From -- ./inp_files/22120.got.cif
#   From: 2010.05.17/outbox.cif.g08.bks.cpg/sg72_12_cif.got.tgz:22120.got - 2010.06.03 17:03:01.
