data_PCOD9527326
_publ_section_title
;
Structure prediction by ZEFSAII (Michael W. Deem and Ramdas Pophale) SiO2 
 PCOD9527326
Probable space group: I B A M
;
_chemical_formula_sum "Si O2"
_cell_formula_units_Z 116
_cell_length_a 17.207571
_cell_length_b 23.591507
_cell_length_c 14.491875
_cell_angle_alpha 90.000000
_cell_angle_beta 90.000000
_cell_angle_gamma 90.000000
_cell_volume 5883.013345
_symmetry_space_group_name_H-M "I B A M"
_symmetry_group_IT_number 72
_symmetry_cell_setting 'orthorhombic'
loop_
_space_group_symop_operation_xyz
x,y,z
-x,-y,z
x,-y,1/2-z
-x,y,1/2-z
-x,-y,-z
x,y,-z
-x,y,1/2+z
x,-y,1/2+z
1/2+x,1/2+y,1/2+z
1/2-x,1/2-y,1/2+z
1/2+x,1/2-y,-z
1/2-x,1/2+y,-z
1/2-x,1/2-y,1/2-z
1/2+x,1/2+y,1/2-z
1/2-x,1/2+y,z
1/2+x,1/2-y,z
loop_
_atom_site_type_symbol
_atom_site_label
_atom_site_fract_x
_atom_site_fract_y
_atom_site_fract_z
Si Si1 0.543289 0.319274 0.112860
Si Si2 0.811183 0.706713 0.392852
Si Si3 0.119902 0.873771 0.107200
Si Si4 0.196030 0.110082 0.889140
Si Si5 0.419917 0.204889 0.723996
Si Si6 0.386876 0.505377 0.147094
Si Si7 0.000000 0.000000 0.500000
Si Si8 0.221572 0.678549 0.392151
O O1 0.461309 0.348132 0.141800
O O2 0.617807 0.357027 0.140325
O O3 0.555349 0.259260 0.162928
O O4 0.544166 0.313292 0.000000
O O5 0.837797 0.705374 0.500000
O O6 0.770669 0.647662 0.365736
O O7 0.876979 0.721450 0.319370
O O8 0.744879 0.754964 0.388103
O O9 0.201479 0.852270 0.147334
O O10 0.121442 0.941950 0.108238
O O11 0.122431 0.855275 0.000000
O O12 0.187717 0.046004 0.853872
O O13 0.195872 0.107851 0.000000
O O14 0.500000 0.174247 0.750000
O O15 0.356403 0.170815 0.665089
O O16 0.414102 0.500000 0.250000
O O17 0.450002 0.532591 0.079848
O O18 0.210675 0.663367 0.500000
#
# Coordination Sequence:
#
# PCOD9527326 Si02
#       8
#    16  16  16  16  16  16   4  16
#     4  10  21  36  59  87 120 165 205 243 294 362
#     4  10  22  39  60  85 118 162 207 255 310 367
#     4  10  21  39  62  88 126 164 206 255 301 368
#     4  10  20  38  62  84 121 162 205 254 301 353
#     4  12  24  36  58  87 118 154 200 255 310 367
#     4  12  25  37  61  87 119 171 213 252 302 353
#     4  12  22  44  52  82 136 160 212 256 284 348
#     4  10  21  39  60  82 116 155 197 250 308 365
#
# _framework density 19.717786
#
# number of rings (size 3 to 8) (size 9 to 14) (size 15 to 20)
#    0.000    1.379    2.759    2.690    3.862    3.310 
#    0.000    0.000    0.000    0.000    0.000    1.931 
#    0.000    4.414    0.000    0.000    0.000    0.000 
#
# Total GULP energy -323518.610306 kJ/mol
# GULP energy per Si atom -5577.907074 kJ/mol
# Density = 1.967291 g / cm^3
# Si number density = 19.717786 Si / 1000 Ang^3
#
#
#
# Elastic Constant Matrix: (Units=GPa)
#
#
# Indices 1 2 3 4 5 6 
#
# 1 122.2642 33.3807 44.0561 0.0000 0.0000 0.0000
# 2 33.3807 70.2107 1.3973 0.0000 0.0000 0.0000
# 3 44.0561 1.3973 102.7232 0.0000 0.0000 0.0000
# 4 0.0000 0.0000 0.0000 17.9063 0.0000 0.0000
# 5 0.0000 0.0000 0.0000 0.0000 28.9287 0.0000
# 6 0.0000 0.0000 0.0000 0.0000 0.0000 25.5707
#
#
#
# Elastic Compliance Matrix: (Units=1/GPa)
#
#
# Indices 1 2 3 4 5 6 
#
# 1 0.011356 -0.005304 -0.004798 0.000000 0.000000 0.000000
# 2 -0.005304 0.016724 0.002047 0.000000 0.000000 0.000000
# 3 -0.004798 0.002047 0.011765 0.000000 0.000000 0.000000
# 4 0.000000 0.000000 0.000000 0.055846 0.000000 0.000000
# 5 0.000000 0.000000 0.000000 0.000000 0.034568 0.000000
# 6 0.000000 0.000000 0.000000 0.000000 0.000000 0.039107
#
#
# Mechanical properties :
#
#
# Convention : Reuss Voigt Hill
#
# Bulk Modulus (GPa) = 42.13157 50.31848 46.22503
# Shear Modulus (GPa) = 25.85494 28.90541 27.38017
#
# Velocity S-wave (km/s) = 3.62505 3.83293 3.73044
# Velocity P-wave (km/s) = 6.23979 6.72036 6.48453
#
# Compressibility (1/GPa) = 0.02373517
#
# Stress axis : x y z
#
# Youngs Moduli (GPa) = 88.05956 59.79574 84.99845
#
# Poissons Ratio (x) = 0.31713 0.40784
# Poissons Ratio (y) = 0.46703 -0.17400
# Poissons Ratio (z) = 0.42253 -0.12241
#
# Static dielectric constant tensor:
#      x y z
#    x 1.751240 0.000000 0.000000 
#    y 0.000000 1.744470 0.000000 
#    z 0.000000 0.000000 1.762160 
# 
# From -- ./inp_files/23558.got.cif
#   From: 2010.05.17/outbox.cif.g08.bks.cpg/sg72_12_cif.got.tgz:23558.got - 2010.06.03 17:03:01.
