data_PCOD9527649
_publ_section_title
;
Structure prediction by ZEFSAII (Michael W. Deem and Ramdas Pophale) SiO2 
 PCOD9527649
Probable space group: I B A M
;
_chemical_formula_sum "Si O2"
_cell_formula_units_Z 76
_cell_length_a 9.519958
_cell_length_b 20.923537
_cell_length_c 15.034003
_cell_angle_alpha 90.000000
_cell_angle_beta 90.000000
_cell_angle_gamma 90.000000
_cell_volume 2994.641000
_symmetry_space_group_name_H-M "I B A M"
_symmetry_group_IT_number 72
_symmetry_cell_setting 'orthorhombic'
loop_
_space_group_symop_operation_xyz
x,y,z
-x,-y,z
x,-y,1/2-z
-x,y,1/2-z
-x,-y,-z
x,y,-z
-x,y,1/2+z
x,-y,1/2+z
1/2+x,1/2+y,1/2+z
1/2-x,1/2-y,1/2+z
1/2+x,1/2-y,-z
1/2-x,1/2+y,-z
1/2-x,1/2-y,1/2-z
1/2+x,1/2+y,1/2-z
1/2-x,1/2+y,z
1/2+x,1/2-y,z
loop_
_atom_site_type_symbol
_atom_site_label
_atom_site_fract_x
_atom_site_fract_y
_atom_site_fract_z
Si Si1 0.000000 0.000000 0.750000
Si Si2 0.271009 0.477807 0.102851
Si Si3 0.682029 0.866467 0.711968
Si Si4 0.000000 0.169504 0.750000
Si Si5 0.659069 0.876601 0.904463
Si Si6 0.621665 0.259181 0.900682
O O1 0.895600 0.027185 0.825970
O O2 0.163011 0.428124 0.148107
O O3 0.225963 0.552035 0.100678
O O4 0.303720 0.459628 0.000000
O O5 0.847569 0.863971 0.747372
O O6 0.599529 0.867210 0.806012
O O7 0.669921 0.802814 0.653173
O O8 0.001303 0.210895 0.839485
O O9 0.763687 0.815685 0.909570
O O10 0.581540 0.877568 0.000000
O O11 0.575255 0.243699 0.000000
#
# Coordination Sequence:
#
# PCOD9527649 Si02
#       6
#     4  16  16   8  16  16
#     4  12  20  36  44  78 116 144 182 214 270 334
#     4  11  22  32  50  76 108 147 180 217 271 331
#     4  11  20  37  55  81 113 147 187 229 273 329
#     4  10  21  36  55  78 109 151 186 228 281 328
#     4   9  18  33  50  74 107 144 178 217 270 327
#     4  10  22  37  55  80 111 145 187 232 278 332
#
# _framework density 25.378665999999999
#
# number of rings (size 3 to 8) (size 9 to 14) (size 15 to 20)
#    0.000    1.684    2.105    4.105    2.947    1.684 
#    0.000    1.053    0.000    0.000    0.000   11.789 
#    0.000   30.316    0.000    0.000    0.000    0.000 
#
# Total GULP energy -211747.962219 kJ/mol
# GULP energy per Si atom -5572.314795 kJ/mol
# Density = 2.532090 g / cm^3
# Si number density = 25.378666 Si / 1000 Ang^3
#
#
#
# Elastic Constant Matrix: (Units=GPa)
#
#
# Indices 1 2 3 4 5 6 
#
# 1 33.2682 21.0132 42.3687 0.0000 0.0000 0.0000
# 2 21.0132 163.8031 67.0676 0.0000 0.0000 0.0000
# 3 42.3687 67.0676 329.2472 0.0000 0.0000 0.0000
# 4 0.0000 0.0000 0.0000 37.6804 0.0000 0.0000
# 5 0.0000 0.0000 0.0000 0.0000 83.2497 0.0000
# 6 0.0000 0.0000 0.0000 0.0000 0.0000 79.4681
#
#
#
# Elastic Compliance Matrix: (Units=1/GPa)
#
#
# Indices 1 2 3 4 5 6 
#
# 1 0.037321 -0.003078 -0.004176 0.000000 0.000000 0.000000
# 2 -0.003078 0.006914 -0.001012 0.000000 0.000000 0.000000
# 3 -0.004176 -0.001012 0.003781 0.000000 0.000000 0.000000
# 4 0.000000 0.000000 0.000000 0.026539 0.000000 0.000000
# 5 0.000000 0.000000 0.000000 0.000000 0.012012 0.000000
# 6 0.000000 0.000000 0.000000 0.000000 0.000000 0.012584
#
#
# Mechanical properties :
#
#
# Convention : Reuss Voigt Hill
#
# Bulk Modulus (GPa) = 31.76228 87.46860 59.61544
# Shear Modulus (GPa) = 39.62696 66.47091 53.04894
#
# Velocity S-wave (km/s) = 3.95578 5.12333 4.57694
# Velocity P-wave (km/s) = 5.77986 8.33896 7.17443
#
# Compressibility (1/GPa) = 0.03148388
#
# Stress axis : x y z
#
# Youngs Moduli (GPa) = 26.79485 144.62916 264.49621
#
# Poissons Ratio (x) = 0.44516 1.10442
# Poissons Ratio (y) = 0.08247 0.26776
# Poissons Ratio (z) = 0.11188 0.14641
#
# Static dielectric constant tensor:
#      x y z
#    x 2.140130 0.000000 0.000000 
#    y 0.000000 1.939840 0.000000 
#    z 0.000000 0.000000 1.944150 
# 
# From -- ./inp_files/21618.got.cif
#   From: 2010.05.17/outbox.cif.g08.bks.cpg/sg72_11_cif.got.tgz:21618.got - 2010.06.03 17:03:01.
