data_PCOD9527691
_publ_section_title
;
Structure prediction by ZEFSAII (Michael W. Deem and Ramdas Pophale) SiO2 
 PCOD9527691
Probable space group: I B A M
;
_chemical_formula_sum "Si O2"
_cell_formula_units_Z 116
_cell_length_a 23.287830
_cell_length_b 25.776729
_cell_length_c 9.594947
_cell_angle_alpha 90.000000
_cell_angle_beta 90.000000
_cell_angle_gamma 90.000000
_cell_volume 5759.693960
_symmetry_space_group_name_H-M "I B A M"
_symmetry_group_IT_number 72
_symmetry_cell_setting 'orthorhombic'
loop_
_space_group_symop_operation_xyz
x,y,z
-x,-y,z
x,-y,1/2-z
-x,y,1/2-z
-x,-y,-z
x,y,-z
-x,y,1/2+z
x,-y,1/2+z
1/2+x,1/2+y,1/2+z
1/2-x,1/2-y,1/2+z
1/2+x,1/2-y,-z
1/2-x,1/2+y,-z
1/2-x,1/2-y,1/2-z
1/2+x,1/2+y,1/2-z
1/2-x,1/2+y,z
1/2+x,1/2-y,z
loop_
_atom_site_type_symbol
_atom_site_label
_atom_site_fract_x
_atom_site_fract_y
_atom_site_fract_z
Si Si1 0.557953 0.867169 0.668713
Si Si2 0.389708 0.437583 0.650556
Si Si3 0.662268 0.947918 0.665294
Si Si4 0.547405 0.334429 0.842494
Si Si5 0.288516 0.713965 0.656238
Si Si6 0.789179 0.907086 0.333436
Si Si7 0.414175 0.762680 0.661199
Si Si8 0.500000 0.500000 0.750000
O O1 0.500000 0.884825 0.750000
O O2 0.549083 0.860439 0.500000
O O3 0.611011 0.906731 0.687207
O O4 0.575281 0.814044 0.748279
O O5 0.366935 0.454095 0.500000
O O6 0.402423 0.376023 0.648327
O O7 0.340214 0.440839 0.765646
O O8 0.451913 0.465274 0.669623
O O9 0.664373 0.958828 0.500000
O O10 0.725231 0.925923 0.705553
O O11 0.650866 0.000000 0.750000
O O12 0.500000 0.362674 0.750000
O O13 0.559926 0.283976 0.752083
O O14 0.529102 0.322385 0.000000
O O15 0.263900 0.711173 0.500000
O O16 0.250000 0.750000 0.750000
O O17 0.293884 0.654260 0.703835
O O18 0.348798 0.743748 0.650926
O O19 0.795379 0.910040 0.500000
O O20 0.435109 0.768269 0.500000
#
# Coordination Sequence:
#
# PCOD9527691 Si02
#       8
#    16  16  16  16  16  16  16   4
#     4  11  24  44  69  99 136 175 218 269 329 402
#     4  11  25  42  64  92 123 169 224 278 334 388
#     4  10  24  45  70  98 132 173 217 273 336 398
#     4  11  22  38  59  86 121 163 210 261 321 387
#     4  10  21  36  59  90 127 171 214 263 321 384
#     4  10  22  43  66  93 132 173 216 271 333 394
#     4  11  22  38  61  93 129 171 215 263 323 389
#     4  12  26  48  64  94 134 172 234 294 344 384
#
# _framework density 20.139959999999999
#
# number of rings (size 3 to 8) (size 9 to 14) (size 15 to 20)
#    0.000    1.379    2.069    2.690    0.966    6.345 
#    0.000    1.379    0.000    0.000    0.000    0.000 
#    0.000    0.000    0.000    0.000    0.000    0.000 
#
# Total GULP energy -323331.042991 kJ/mol
# GULP energy per Si atom -5574.673155 kJ/mol
# Density = 2.009412 g / cm^3
# Si number density = 20.139960 Si / 1000 Ang^3
#
#
#
# Elastic Constant Matrix: (Units=GPa)
#
#
# Indices 1 2 3 4 5 6 
#
# 1 111.0269 54.4734 57.8900 0.0000 0.0000 0.0000
# 2 54.4734 96.1992 62.6522 0.0000 0.0000 0.0000
# 3 57.8900 62.6522 133.8181 0.0000 0.0000 0.0000
# 4 0.0000 0.0000 0.0000 -596.9996 0.0000 0.0000
# 5 0.0000 0.0000 0.0000 0.0000 33.5461 0.0000
# 6 0.0000 0.0000 0.0000 0.0000 0.0000 46.0380
#
#
#
# Elastic Compliance Matrix: (Units=1/GPa)
#
#
# Indices 1 2 3 4 5 6 
#
# 1 0.013372 -0.005474 -0.003222 0.000000 0.000000 0.000000
# 2 -0.005474 0.017196 -0.005683 0.000000 0.000000 0.000000
# 3 -0.003222 -0.005683 0.011527 0.000000 0.000000 0.000000
# 4 0.000000 0.000000 0.000000 -0.001675 0.000000 0.000000
# 5 0.000000 0.000000 0.000000 0.000000 0.029810 0.000000
# 6 0.000000 0.000000 0.000000 0.000000 0.000000 0.021721
#
#
# Mechanical properties :
#
#
# Convention : Reuss Voigt Hill
#
# Bulk Modulus (GPa) = 74.97388 76.78614 75.88001
# Shear Modulus (GPa) = 39.95037 -92.41451 -26.23207
#
# Velocity S-wave (km/s) = 4.45864 -6.78128 -3.61292
# Velocity P-wave (km/s) = 7.98831 4.80680 4.51153
#
# Compressibility (1/GPa) = 0.01333798
#
# Stress axis : x y z
#
# Youngs Moduli (GPa) = 74.78040 58.15390 86.74933
#
# Poissons Ratio (x) = 0.31832 0.27953
# Poissons Ratio (y) = 0.40932 0.49299
# Poissons Ratio (z) = 0.24096 0.33048
#
# Static dielectric constant tensor:
#      x y z
#    x 1.826200 0.000000 0.000000 
#    y 0.000000 1.718580 0.000000 
#    z 0.000000 0.000000 1.710750 
# 
# From -- ./inp_files/7335.got.cif
#   From: 2010.05.17/outbox.cif.g08.bks.cpg/sg72_4_cif.got.tgz:7335.got - 2010.06.03 17:03:01.
