data_PCOD9527540
_publ_section_title
;
Structure prediction by ZEFSAII (Michael W. Deem and Ramdas Pophale) SiO2 
 PCOD9527540
Probable space group: I B A M
;
_chemical_formula_sum "Si O2"
_cell_formula_units_Z 112
_cell_length_a 14.113786
_cell_length_b 28.041702
_cell_length_c 11.377145
_cell_angle_alpha 90.000000
_cell_angle_beta 90.000000
_cell_angle_gamma 90.000000
_cell_volume 4502.784797
_symmetry_space_group_name_H-M "I B A M"
_symmetry_group_IT_number 72
_symmetry_cell_setting 'orthorhombic'
loop_
_space_group_symop_operation_xyz
x,y,z
-x,-y,z
x,-y,1/2-z
-x,y,1/2-z
-x,-y,-z
x,y,-z
-x,y,1/2+z
x,-y,1/2+z
1/2+x,1/2+y,1/2+z
1/2-x,1/2-y,1/2+z
1/2+x,1/2-y,-z
1/2-x,1/2+y,-z
1/2-x,1/2-y,1/2-z
1/2+x,1/2+y,1/2-z
1/2-x,1/2+y,z
1/2+x,1/2-y,z
loop_
_atom_site_type_symbol
_atom_site_label
_atom_site_fract_x
_atom_site_fract_y
_atom_site_fract_z
Si Si1 0.626426 0.723735 0.369147
Si Si2 0.140226 0.519001 0.374027
Si Si3 0.844681 0.249894 0.873118
Si Si4 0.362779 0.488929 0.376417
Si Si5 0.555003 0.874485 0.627839
Si Si6 0.670085 0.620991 0.627586
Si Si7 0.243709 0.146054 0.625878
O O1 0.599641 0.740435 0.500000
O O2 0.742772 0.723915 0.365282
O O3 0.600940 0.751659 0.250188
O O4 0.601712 0.667199 0.363375
O O5 0.103952 0.500000 0.250000
O O6 0.107080 0.497770 0.500000
O O7 0.252756 0.507270 0.373411
O O8 0.107085 0.573745 0.373626
O O9 0.817370 0.193940 0.877434
O O10 0.887516 0.262934 0.000000
O O11 0.402874 0.500000 0.250000
O O12 0.400384 0.508891 0.500000
O O13 0.370252 0.431738 0.380665
O O14 0.500000 0.869661 0.750000
O O15 0.504476 0.870073 0.500000
O O16 0.646002 0.840167 0.626315
O O17 0.721316 0.627453 0.500000
O O18 0.725644 0.620615 0.750746
O O19 0.225152 0.120617 0.500000
#
# Coordination Sequence:
#
# PCOD9527540 Si02
#       7
#    16  16  16  16  16  16  16
#     4   8  13  21  32  49  71  87  98 114 140 177
#     4   9  17  28  39  48  58  73  95 126 162 197
#     4   8  13  21  34  50  67  85 100 115 139 176
#     4   9  16  25  36  48  61  78 101 128 156 185
#     4  10  21  33  41  49  61  77 101 135 172 206
#     4   9  16  24  36  53  69  84 101 123 153 189
#     4   9  16  26  39  52  64  80 102 125 152 190
#
# _framework density 24.873494000000001
#
# number of rings (size 3 to 8) (size 9 to 14) (size 15 to 20)
#    0.000    3.143    0.000    1.714    0.000    3.143 
#    0.000    1.429    0.000    0.000    0.000    0.000 
#    0.000    0.000    0.000    0.000    0.000    0.000 
#
# Total GULP energy -311749.019974 kJ/mol
# GULP energy per Si atom -5566.946785 kJ/mol
# Density = 2.481688 g / cm^3
# Si number density = 24.873494 Si / 1000 Ang^3
#
#
#
# Elastic Constant Matrix: (Units=GPa)
#
#
# Indices 1 2 3 4 5 6 
#
# 1 61.9510 1.2131 20.3135 0.0000 0.0001 0.0000
# 2 1.2131 68.5382 35.6597 -0.0003 0.0001 0.0000
# 3 20.3135 35.6597 341.9710 -0.0015 -0.0001 0.0000
# 4 0.0000 -0.0003 -0.0015 56.0344 0.0001 0.0001
# 5 0.0001 0.0001 -0.0001 0.0001 -28.8034 0.0000
# 6 0.0000 0.0000 0.0000 0.0001 0.0000 -16.2762
#
#
#
# Elastic Compliance Matrix: (Units=1/GPa)
#
#
# Indices 1 2 3 4 5 6 
#
# 1 0.016466 0.000230 -0.001002 0.000000 0.000000 0.000000
# 2 0.000230 0.015431 -0.001623 0.000000 0.000000 0.000000
# 3 -0.001002 -0.001623 0.003153 0.000000 0.000000 0.000000
# 4 0.000000 0.000000 0.000000 0.017846 0.000000 0.000000
# 5 0.000000 0.000000 0.000000 0.000000 -0.034718 0.000000
# 6 0.000000 0.000000 0.000000 0.000000 0.000000 -0.061440
#
#
# Mechanical properties :
#
#
# Convention : Reuss Voigt Hill
#
# Bulk Modulus (GPa) = 33.04720 65.20363 49.12542
# Shear Modulus (GPa) = -176.14466 29.87590 -73.13438
#
# Velocity S-wave (km/s) = -8.42437 3.46947 -5.42829
# Velocity P-wave (km/s) = 9.01730 6.50543 4.41537
#
# Compressibility (1/GPa) = 0.03025975
#
# Stress axis : x y z
#
# Youngs Moduli (GPa) = 60.73169 64.80624 317.16227
#
# Poissons Ratio (x) = -0.01490 0.31782
# Poissons Ratio (y) = -0.01396 0.51466
# Poissons Ratio (z) = 0.06086 0.10516
#
# Static dielectric constant tensor:
#      x y z
#    x 1.962840 0.000000 0.000000 
#    y 0.000000 2.012020 0.000000 
#    z 0.000000 0.000000 2.093730 
# 
# From -- ./inp_files/15778.got.cif
#   From: 2010.05.17/outbox.cif.g08.bks.cpg/sg72_8_cif.got.tgz:15778.got - 2010.06.03 17:03:01.
