data_PCOD9527026
_publ_section_title
;
Structure prediction by ZEFSAII (Michael W. Deem and Ramdas Pophale) SiO2 
 PCOD9527026
Probable space group: I B A M
;
_chemical_formula_sum "Si O2"
_cell_formula_units_Z 92
_cell_length_a 21.182955
_cell_length_b 24.841767
_cell_length_c 9.482118
_cell_angle_alpha 90.000000
_cell_angle_beta 90.000000
_cell_angle_gamma 90.000000
_cell_volume 4989.699406
_symmetry_space_group_name_H-M "I B A M"
_symmetry_group_IT_number 72
_symmetry_cell_setting 'orthorhombic'
loop_
_space_group_symop_operation_xyz
x,y,z
-x,-y,z
x,-y,1/2-z
-x,y,1/2-z
-x,-y,-z
x,y,-z
-x,y,1/2+z
x,-y,1/2+z
1/2+x,1/2+y,1/2+z
1/2-x,1/2-y,1/2+z
1/2+x,1/2-y,-z
1/2-x,1/2+y,-z
1/2-x,1/2-y,1/2-z
1/2+x,1/2+y,1/2-z
1/2-x,1/2+y,z
1/2+x,1/2-y,z
loop_
_atom_site_type_symbol
_atom_site_label
_atom_site_fract_x
_atom_site_fract_y
_atom_site_fract_z
Si Si1 0.345190 0.553428 0.666532
Si Si2 0.299548 0.788323 0.170851
Si Si3 0.102490 0.500000 0.750000
Si Si4 0.438045 0.623607 0.164201
Si Si5 0.701007 0.913717 0.334154
Si Si6 0.000000 0.500000 0.500000
Si Si7 0.560378 0.246605 0.161596
O O1 0.365217 0.500000 0.750000
O O2 0.361403 0.552237 0.500000
O O3 0.378933 0.602003 0.748016
O O4 0.269929 0.559911 0.678230
O O5 0.250000 0.750000 0.250000
O O6 0.291691 0.851210 0.206739
O O7 0.371246 0.772892 0.210847
O O8 0.292915 0.781955 0.000000
O O9 0.148867 0.448066 0.752470
O O10 0.055873 0.500628 0.619536
O O11 0.500000 0.605201 0.250000
O O12 0.438335 0.688443 0.164272
O O13 0.437882 0.606143 0.000000
O O14 0.683169 0.914368 0.500000
O O15 0.500000 0.228095 0.250000
O O16 0.552550 0.228852 0.000000
#
# Coordination Sequence:
#
# PCOD9527026 Si02
#       7
#    16  16   8  16  16   4  16
#     4  11  22  36  56  84 111 149 191 236 286 341
#     4  10  21  39  59  88 122 158 199 248 301 358
#     4  11  20  44  60  94 119 162 204 254 317 366
#     4  10  20  36  57  82 113 151 189 234 284 339
#     4  10  21  39  63  86 121 160 200 250 302 363
#     4  10  24  38  68  86 124 158 206 258 312 380
#     4   9  19  36  57  82 113 148 189 234 284 341
#
# _framework density 18.437984
#
# number of rings (size 3 to 8) (size 9 to 14) (size 15 to 20)
#    0.000    1.913    1.739    2.087    0.000    1.739 
#    6.261    1.739    0.000    0.000    0.000    0.000 
#    0.000    0.000    0.000    0.000    0.000    0.000 
#
# Total GULP energy -256084.276253 kJ/mol
# GULP energy per Si atom -5567.049484 kJ/mol
# Density = 1.839602 g / cm^3
# Si number density = 18.437984 Si / 1000 Ang^3
#
#
#
# Elastic Constant Matrix: (Units=GPa)
#
#
# Indices 1 2 3 4 5 6 
#
# 1 82.2763 24.7169 44.2761 0.0000 0.0000 0.0000
# 2 24.7169 60.2142 25.7075 0.0000 0.0000 0.0000
# 3 44.2761 25.7075 110.6043 0.0000 0.0000 0.0000
# 4 0.0000 0.0000 0.0000 54.1156 0.0000 0.0000
# 5 0.0000 0.0000 0.0000 0.0000 96.7173 0.0000
# 6 0.0000 0.0000 0.0000 0.0000 0.0000 15.0848
#
#
#
# Elastic Compliance Matrix: (Units=1/GPa)
#
#
# Indices 1 2 3 4 5 6 
#
# 1 0.016470 -0.004381 -0.005575 0.000000 0.000000 0.000000
# 2 -0.004381 0.019602 -0.002802 0.000000 0.000000 0.000000
# 3 -0.005575 -0.002802 0.011924 0.000000 0.000000 0.000000
# 4 0.000000 0.000000 0.000000 0.018479 0.000000 0.000000
# 5 0.000000 0.000000 0.000000 0.000000 0.010339 0.000000
# 6 0.000000 0.000000 0.000000 0.000000 0.000000 0.066292
#
#
# Mechanical properties :
#
#
# Convention : Reuss Voigt Hill
#
# Bulk Modulus (GPa) = 44.48307 49.16619 46.82463
# Shear Modulus (GPa) = 28.39025 43.74316 36.06670
#
# Velocity S-wave (km/s) = 3.92825 4.87606 4.42759
# Velocity P-wave (km/s) = 6.68977 7.64362 7.18254
#
# Compressibility (1/GPa) = 0.02248046
#
# Stress axis : x y z
#
# Youngs Moduli (GPa) = 60.71527 51.01520 83.86190
#
# Poissons Ratio (x) = 0.22348 0.46754
# Poissons Ratio (y) = 0.26597 0.23502
# Poissons Ratio (z) = 0.33849 0.14297
#
# Static dielectric constant tensor:
#      x y z
#    x 1.621500 0.000000 0.000000 
#    y 0.000000 1.644680 0.000000 
#    z 0.000000 0.000000 1.624100 
# 
# From -- ./inp_files/6080.got.cif
#   From: 2010.05.17/outbox.cif.g08.bks.cpg/sg72_4_cif.got.tgz:6080.got - 2010.06.03 17:03:01.
