data_PCOD9527824
_publ_section_title
;
Structure prediction by ZEFSAII (Michael W. Deem and Ramdas Pophale) SiO2 
 PCOD9527824
Probable space group: I B A M
;
_chemical_formula_sum "Si O2"
_cell_formula_units_Z 56
_cell_length_a 13.867160
_cell_length_b 5.250915
_cell_length_c 32.086902
_cell_angle_alpha 90.000000
_cell_angle_beta 90.000000
_cell_angle_gamma 90.000000
_cell_volume 2336.416704
_symmetry_space_group_name_H-M "I B A M"
_symmetry_group_IT_number 72
_symmetry_cell_setting 'orthorhombic'
loop_
_space_group_symop_operation_xyz
x,y,z
-x,-y,z
x,-y,1/2-z
-x,y,1/2-z
-x,-y,-z
x,y,-z
-x,y,1/2+z
x,-y,1/2+z
1/2+x,1/2+y,1/2+z
1/2-x,1/2-y,1/2+z
1/2+x,1/2-y,-z
1/2-x,1/2+y,-z
1/2-x,1/2-y,1/2-z
1/2+x,1/2+y,1/2-z
1/2-x,1/2+y,z
1/2+x,1/2-y,z
loop_
_atom_site_type_symbol
_atom_site_label
_atom_site_fract_x
_atom_site_fract_y
_atom_site_fract_z
Si Si1 0.889968 0.196317 0.587542
Si Si2 0.685353 0.547810 0.500000
Si Si3 0.605972 0.806477 0.120557
Si Si4 0.815150 0.496606 0.703448
O O1 0.877917 0.092277 0.541295
O O2 0.846672 0.479753 0.590973
O O3 0.998926 0.251448 0.603028
O O4 0.850008 0.975739 0.617813
O O5 0.733712 0.270330 0.500000
O O6 0.613454 0.929182 0.166129
O O7 0.858616 0.500000 0.750000
O O8 0.765552 0.220078 0.700402
#
# Coordination Sequence:
#
# PCOD9527824 Si02
#       4
#    16   8  16  16
#     4  10  23  40  61  90 122 166 209 256 317 376
#     4  12  26  42  62  92 126 160 208 268 326 382
#     4  10  21  39  63  88 123 165 208 255 308 376
#     4  10  21  37  61  93 127 162 202 254 312 368
#
# _framework density 23.968326999999999
#
# number of rings (size 3 to 8) (size 9 to 14) (size 15 to 20)
#    0.000    1.714    0.000    3.429    0.000   11.429 
#    0.000    2.857    0.000    6.857    0.000    0.000 
#    0.000    0.000    0.000    0.000    0.000    0.000 
#
# Total GULP energy -156329.372681 kJ/mol
# GULP energy per Si atom -5583.191881 kJ/mol
# Density = 2.391377 g / cm^3
# Si number density = 23.968327 Si / 1000 Ang^3
#
#
#
# Elastic Constant Matrix: (Units=GPa)
#
#
# Indices 1 2 3 4 5 6 
#
# 1 94.7721 -11.6523 30.1253 0.0000 0.0000 0.0000
# 2 -11.6523 187.8113 21.0718 0.0000 0.0000 0.0000
# 3 30.1253 21.0718 197.0614 0.0000 0.0000 0.0000
# 4 0.0000 0.0000 0.0000 42.1022 0.0000 0.0000
# 5 0.0000 0.0000 0.0000 0.0000 45.0534 0.0000
# 6 0.0000 0.0000 0.0000 0.0000 0.0000 20.0689
#
#
#
# Elastic Compliance Matrix: (Units=1/GPa)
#
#
# Indices 1 2 3 4 5 6 
#
# 1 0.011239 0.000901 -0.001814 0.000000 0.000000 0.000000
# 2 0.000901 0.005461 -0.000722 0.000000 0.000000 0.000000
# 3 -0.001814 -0.000722 0.005429 0.000000 0.000000 0.000000
# 4 0.000000 0.000000 0.000000 0.023752 0.000000 0.000000
# 5 0.000000 0.000000 0.000000 0.000000 0.022196 0.000000
# 6 0.000000 0.000000 0.000000 0.000000 0.000000 0.049828
#
#
# Mechanical properties :
#
#
# Convention : Reuss Voigt Hill
#
# Bulk Modulus (GPa) = 53.02499 62.08157 57.55328
# Shear Modulus (GPa) = 39.22718 50.78489 45.00603
#
# Velocity S-wave (km/s) = 4.04991 4.60807 4.33798
# Velocity P-wave (km/s) = 6.63627 7.36683 7.01107
#
# Compressibility (1/GPa) = 0.01885903
#
# Stress axis : x y z
#
# Youngs Moduli (GPa) = 88.97457 183.10455 184.19198
#
# Poissons Ratio (x) = -0.16496 0.33421
# Poissons Ratio (y) = -0.08016 0.13293
# Poissons Ratio (z) = 0.16144 0.13215
#
# Static dielectric constant tensor:
#      x y z
#    x 2.322510 0.000000 0.000000 
#    y 0.000000 2.076050 0.000000 
#    z 0.000000 0.000000 1.912760 
# 
# From -- ./inp_files/51940.got.cif
#   From: 2010.05.17/outbox.cif.g08.bks.cpg/sg72_26_cif.got.tgz:51940.got - 2010.06.03 17:03:01.
