data_PCOD9527651
_publ_section_title
;
Structure prediction by ZEFSAII (Michael W. Deem and Ramdas Pophale) SiO2 
 PCOD9527651
Probable space group: I B A M
;
_chemical_formula_sum "Si O2"
_cell_formula_units_Z 112
_cell_length_a 16.350018
_cell_length_b 25.115885
_cell_length_c 15.210912
_cell_angle_alpha 90.000000
_cell_angle_beta 90.000000
_cell_angle_gamma 90.000000
_cell_volume 6246.287572
_symmetry_space_group_name_H-M "I B A M"
_symmetry_group_IT_number 72
_symmetry_cell_setting 'orthorhombic'
loop_
_space_group_symop_operation_xyz
x,y,z
-x,-y,z
x,-y,1/2-z
-x,y,1/2-z
-x,-y,-z
x,y,-z
-x,y,1/2+z
x,-y,1/2+z
1/2+x,1/2+y,1/2+z
1/2-x,1/2-y,1/2+z
1/2+x,1/2-y,-z
1/2-x,1/2+y,-z
1/2-x,1/2-y,1/2-z
1/2+x,1/2+y,1/2-z
1/2-x,1/2+y,z
1/2+x,1/2-y,z
loop_
_atom_site_type_symbol
_atom_site_label
_atom_site_fract_x
_atom_site_fract_y
_atom_site_fract_z
Si Si1 0.852231 0.358218 0.642416
Si Si2 0.522060 0.769754 0.596799
Si Si3 0.915318 0.181514 0.732885
Si Si4 0.481982 0.940002 0.105205
Si Si5 0.111284 0.351458 0.345461
Si Si6 0.302210 0.705403 0.602393
Si Si7 0.778300 0.179098 0.599206
O O1 0.911338 0.316727 0.593760
O O2 0.892513 0.415925 0.626771
O O3 0.863297 0.345054 0.744846
O O4 0.761374 0.343592 0.613259
O O5 0.516534 0.744953 0.500000
O O6 0.551801 0.730622 0.672929
O O7 0.438774 0.800458 0.620284
O O8 0.872147 0.197020 0.824675
O O9 0.843733 0.159418 0.670183
O O10 0.000000 0.150015 0.750000
O O11 0.549445 0.900470 0.145619
O O12 0.500000 0.000000 0.134295
O O13 0.491550 0.937621 0.000000
O O14 0.195692 0.355328 0.397398
O O15 0.328246 0.708400 0.500000
O O16 0.252008 0.760359 0.621594
O O17 0.811120 0.180374 0.500000
#
# Coordination Sequence:
#
# PCOD9527651 Si02
#       7
#    16  16  16  16  16  16  16
#     4  11  19  33  52  74 103 144 182 223 268 317
#     4  11  20  31  48  73 103 139 180 219 263 321
#     4  12  23  34  48  69 100 135 180 229 273 319
#     4  10  21  36  55  82 115 146 181 223 269 328
#     4  11  21  34  54  77 107 146 187 226 268 325
#     4  11  22  36  52  72 102 140 187 232 270 319
#     4  11  21  34  51  72 102 140 184 229 268 318
#
# _framework density 17.930651000000001
#
# number of rings (size 3 to 8) (size 9 to 14) (size 15 to 20)
#    0.000    1.000    2.857    8.571    0.000    3.429 
#    0.000    0.000    0.000    0.000    0.000    0.000 
#    0.000    2.286    0.000    6.000    0.000    0.000 
#
# Total GULP energy -312684.752327 kJ/mol
# GULP energy per Si atom -5583.656292 kJ/mol
# Density = 1.788984 g / cm^3
# Si number density = 17.930651 Si / 1000 Ang^3
#
#
#
# Elastic Constant Matrix: (Units=GPa)
#
#
# Indices 1 2 3 4 5 6 
#
# 1 116.4607 20.9277 35.7699 0.0000 0.0000 0.0000
# 2 20.9277 49.8814 0.7468 0.0001 0.0000 0.0000
# 3 35.7699 0.7468 131.3273 0.0002 0.0000 0.0000
# 4 0.0000 0.0001 0.0002 15.0756 0.0000 0.0000
# 5 0.0000 0.0000 0.0000 0.0000 0.8607 0.0000
# 6 0.0000 0.0000 0.0000 0.0000 0.0000 15.3937
#
#
#
# Elastic Compliance Matrix: (Units=1/GPa)
#
#
# Indices 1 2 3 4 5 6 
#
# 1 0.010193 -0.004235 -0.002752 0.000000 0.000000 0.000000
# 2 -0.004235 0.021809 0.001030 0.000000 -0.000001 0.000000
# 3 -0.002752 0.001030 0.008358 0.000000 0.000000 0.000000
# 4 0.000000 0.000000 0.000000 0.066332 -0.000003 0.000000
# 5 0.000000 -0.000001 0.000000 -0.000003 1.161868 0.000000
# 6 0.000000 0.000000 0.000000 0.000000 0.000000 0.064962
#
#
# Mechanical properties :
#
#
# Convention : Reuss Voigt Hill
#
# Bulk Modulus (GPa) = 35.15613 45.83978 40.49795
# Shear Modulus (GPa) = 3.69026 22.28101 12.98563
#
# Velocity S-wave (km/s) = 1.43615 3.52891 2.69404
# Velocity P-wave (km/s) = 4.73279 6.49806 5.68437
#
# Compressibility (1/GPa) = 0.02844455
#
# Stress axis : x y z
#
# Youngs Moduli (GPa) = 98.10689 45.85255 119.64109
#
# Poissons Ratio (x) = 0.19420 0.32928
# Poissons Ratio (y) = 0.41551 -0.12318
# Poissons Ratio (z) = 0.27001 -0.04721
#
# Static dielectric constant tensor:
#      x y z
#    x 1.680290 0.000000 0.000000 
#    y 0.000000 1.596210 0.000000 
#    z 0.000000 0.000000 1.716450 
# 
# From -- ./inp_files/22262.got.cif
#   From: 2010.05.17/outbox.cif.g08.bks.cpg/sg72_12_cif.got.tgz:22262.got - 2010.06.03 17:03:01.
