data_PCOD9527683
_publ_section_title
;
Structure prediction by ZEFSAII (Michael W. Deem and Ramdas Pophale) SiO2 
 PCOD9527683
Probable space group: I B A M
;
_chemical_formula_sum "Si O2"
_cell_formula_units_Z 116
_cell_length_a 27.756310
_cell_length_b 21.944431
_cell_length_c 9.365828
_cell_angle_alpha 90.000000
_cell_angle_beta 90.000000
_cell_angle_gamma 90.000000
_cell_volume 5704.692395
_symmetry_space_group_name_H-M "I B A M"
_symmetry_group_IT_number 72
_symmetry_cell_setting 'orthorhombic'
loop_
_space_group_symop_operation_xyz
x,y,z
-x,-y,z
x,-y,1/2-z
-x,y,1/2-z
-x,-y,-z
x,y,-z
-x,y,1/2+z
x,-y,1/2+z
1/2+x,1/2+y,1/2+z
1/2-x,1/2-y,1/2+z
1/2+x,1/2-y,-z
1/2-x,1/2+y,-z
1/2-x,1/2-y,1/2-z
1/2+x,1/2+y,1/2-z
1/2-x,1/2+y,z
1/2+x,1/2-y,z
loop_
_atom_site_type_symbol
_atom_site_label
_atom_site_fract_x
_atom_site_fract_y
_atom_site_fract_z
Si Si1 0.679584 0.404492 0.659146
Si Si2 0.699643 0.739840 0.162628
Si Si3 0.500000 0.500000 0.750000
Si Si4 0.625571 0.065648 0.671108
Si Si5 0.048902 0.352808 0.167338
Si Si6 0.913477 0.090587 0.665145
Si Si7 0.394932 0.267785 0.664365
Si Si8 0.228968 0.439007 0.665800
O O1 0.686567 0.430361 0.500000
O O2 0.686316 0.331841 0.648122
O O3 0.629003 0.426395 0.724421
O O4 0.721668 0.417783 0.769106
O O5 0.750000 0.750000 0.250000
O O6 0.650723 0.757472 0.245958
O O7 0.704599 0.764504 0.000000
O O8 0.538641 0.451303 0.818455
O O9 0.617608 0.058568 0.500000
O O10 0.588506 0.108495 0.750089
O O11 0.678912 0.095982 0.687750
O O12 0.622333 0.000000 0.750000
O O13 0.063450 0.281922 0.176465
O O14 0.000000 0.363698 0.250000
O O15 0.046459 0.369246 0.000000
O O16 0.897771 0.084282 0.500000
O O17 0.915999 0.164186 0.695073
O O18 0.377971 0.270531 0.500000
O O19 0.219126 0.500000 0.750000
O O20 0.234289 0.449738 0.500000
#
# Coordination Sequence:
#
# PCOD9527683 Si02
#       8
#    16  16   4  16  16  16  16  16
#     4  10  22  39  60  88 123 163 209 260 316 378
#     4  10  21  36  58  90 125 164 207 256 313 379
#     4  12  26  40  72 102 126 164 222 282 336 396
#     4  10  22  41  64  94 130 167 212 260 314 375
#     4  11  24  41  65  94 125 165 214 264 320 382
#     4  10  23  44  65  90 125 165 212 266 329 389
#     4   9  21  42  64  89 125 168 212 264 320 385
#     4  10  21  37  60  89 122 162 202 248 308 372
#
# _framework density 20.334137999999999
#
# number of rings (size 3 to 8) (size 9 to 14) (size 15 to 20)
#    0.000    1.931    0.000    2.276    3.862    5.793 
#    0.000    1.379    0.000    0.000    0.000    0.000 
#    0.000    0.000    0.000    0.000    0.000    0.000 
#
# Total GULP energy -322940.065185 kJ/mol
# GULP energy per Si atom -5567.932158 kJ/mol
# Density = 2.028786 g / cm^3
# Si number density = 20.334138 Si / 1000 Ang^3
#
#
#
# Elastic Constant Matrix: (Units=GPa)
#
#
# Indices 1 2 3 4 5 6 
#
# 1 130.8434 26.8417 81.5511 0.0000 0.0000 0.0000
# 2 26.8417 63.7905 27.9413 0.0000 0.0000 0.0000
# 3 81.5511 27.9413 142.3026 0.0000 0.0000 0.0000
# 4 0.0000 0.0000 0.0000 25.7878 0.0000 0.0000
# 5 0.0000 0.0000 0.0000 0.0000 33.3145 0.0000
# 6 0.0000 0.0000 0.0000 0.0000 0.0000 31.6767
#
#
#
# Elastic Compliance Matrix: (Units=1/GPa)
#
#
# Indices 1 2 3 4 5 6 
#
# 1 0.012181 -0.002262 -0.006536 0.000000 0.000000 0.000000
# 2 -0.002262 0.017572 -0.002154 0.000000 0.000000 0.000000
# 3 -0.006536 -0.002154 0.011196 0.000000 0.000000 0.000000
# 4 0.000000 0.000000 0.000000 0.038778 0.000000 0.000000
# 5 0.000000 0.000000 0.000000 0.000000 0.030017 0.000000
# 6 0.000000 0.000000 0.000000 0.000000 0.000000 0.031569
#
#
# Mechanical properties :
#
#
# Convention : Reuss Voigt Hill
#
# Bulk Modulus (GPa) = 52.51111 67.73385 60.12248
# Shear Modulus (GPa) = 29.48720 31.52929 30.50824
#
# Velocity S-wave (km/s) = 3.81219 3.94199 3.87763
# Velocity P-wave (km/s) = 6.72735 7.35539 7.04837
#
# Compressibility (1/GPa) = 0.01904359
#
# Stress axis : x y z
#
# Youngs Moduli (GPa) = 82.09659 56.90991 89.31731
#
# Poissons Ratio (x) = 0.12875 0.58381
# Poissons Ratio (y) = 0.18573 0.19236
# Poissons Ratio (z) = 0.53661 0.12257
#
# Static dielectric constant tensor:
#      x y z
#    x 1.819320 0.000000 0.000000 
#    y 0.000000 1.773290 0.000000 
#    z 0.000000 0.000000 1.720420 
# 
# From -- ./inp_files/8445.got.cif
#   From: 2010.05.17/outbox.cif.g08.bks.cpg/sg72_5_cif.got.tgz:8445.got - 2010.06.03 17:03:01.
