data_PCOD9527861
_publ_section_title
;
Structure prediction by ZEFSAII (Michael W. Deem and Ramdas Pophale) SiO2 
 PCOD9527861
Probable space group: I B A M
;
_chemical_formula_sum "Si O2"
_cell_formula_units_Z 80
_cell_length_a 27.768895
_cell_length_b 18.252681
_cell_length_c 8.843729
_cell_angle_alpha 90.000000
_cell_angle_beta 90.000000
_cell_angle_gamma 90.000000
_cell_volume 4482.504023
_symmetry_space_group_name_H-M "I B A M"
_symmetry_group_IT_number 72
_symmetry_cell_setting 'orthorhombic'
loop_
_space_group_symop_operation_xyz
x,y,z
-x,-y,z
x,-y,1/2-z
-x,y,1/2-z
-x,-y,-z
x,y,-z
-x,y,1/2+z
x,-y,1/2+z
1/2+x,1/2+y,1/2+z
1/2-x,1/2-y,1/2+z
1/2+x,1/2-y,-z
1/2-x,1/2+y,-z
1/2-x,1/2-y,1/2-z
1/2+x,1/2+y,1/2-z
1/2-x,1/2+y,z
1/2+x,1/2-y,z
loop_
_atom_site_type_symbol
_atom_site_label
_atom_site_fract_x
_atom_site_fract_y
_atom_site_fract_z
Si Si1 0.347200 0.711539 0.819998
Si Si2 0.317186 0.875998 0.181488
Si Si3 0.416512 0.076229 0.179975
Si Si4 0.290542 0.422686 0.180206
Si Si5 0.950855 0.727748 0.818866
O O1 0.320682 0.788864 0.788101
O O2 0.323057 0.644269 0.736027
O O3 0.403121 0.725806 0.780577
O O4 0.344139 0.699142 0.000000
O O5 0.360615 0.913628 0.270964
O O6 0.265012 0.906087 0.223762
O O7 0.325126 0.885912 0.000000
O O8 0.442504 0.146848 0.250539
O O9 0.434117 0.000000 0.250000
O O10 0.421184 0.075903 0.000000
O O11 0.305521 0.500000 0.250000
O O12 0.292214 0.426866 0.000000
O O13 0.000000 0.758168 0.750000
O O14 0.953684 0.722340 0.000000
#
# Coordination Sequence:
#
# PCOD9527861 Si02
#       5
#    16  16  16  16  16
#     4   9  19  36  56  78 107 137 171 216 261 308
#     4   9  19  35  53  77 108 143 180 217 256 305
#     4  11  21  33  51  76 108 145 181 218 259 306
#     4  11  22  34  52  78 109 143 179 216 260 310
#     4  10  21  38  58  80 104 133 172 218 266 317
#
# _framework density 17.847168
#
# number of rings (size 3 to 8) (size 9 to 14) (size 15 to 20)
#    0.000    2.000    0.000    5.400    0.000    7.600 
#    0.000    2.000    0.000    0.600    0.000    4.200 
#    0.000    0.000    0.000    0.000    0.000    0.000 
#
# Total GULP energy -223488.846079 kJ/mol
# GULP energy per Si atom -5587.221152 kJ/mol
# Density = 1.780655 g / cm^3
# Si number density = 17.847168 Si / 1000 Ang^3
#
#
#
# Elastic Constant Matrix: (Units=GPa)
#
#
# Indices 1 2 3 4 5 6 
#
# 1 68.4063 21.3308 27.5992 0.0000 0.0000 0.0000
# 2 21.3308 59.1227 21.7948 0.0000 0.0000 0.0000
# 3 27.5992 21.7948 53.3471 0.0000 0.0000 0.0000
# 4 0.0000 0.0000 0.0000 28.6538 0.0000 0.0000
# 5 0.0000 0.0000 0.0000 0.0000 28.8921 0.0000
# 6 0.0000 0.0000 0.0000 0.0000 0.0000 1.2539
#
#
#
# Elastic Compliance Matrix: (Units=1/GPa)
#
#
# Indices 1 2 3 4 5 6 
#
# 1 0.019189 -0.003842 -0.008358 0.000000 0.000000 0.000000
# 2 -0.003842 0.020682 -0.006462 0.000000 0.000000 0.000000
# 3 -0.008358 -0.006462 0.025709 0.000000 0.000000 0.000000
# 4 0.000000 0.000000 0.000000 0.034899 0.000000 0.000000
# 5 0.000000 0.000000 0.000000 0.000000 0.034612 0.000000
# 6 0.000000 0.000000 0.000000 0.000000 0.000000 0.797525
#
#
# Mechanical properties :
#
#
# Convention : Reuss Voigt Hill
#
# Bulk Modulus (GPa) = 35.39000 35.81396 35.60198
# Shear Modulus (GPa) = 5.10539 19.10338 12.10438
#
# Velocity S-wave (km/s) = 1.69317 3.27523 2.60710
# Velocity P-wave (km/s) = 4.86775 5.86629 5.39019
#
# Compressibility (1/GPa) = 0.02825657
#
# Stress axis : x y z
#
# Youngs Moduli (GPa) = 52.11441 48.35057 38.89693
#
# Poissons Ratio (x) = 0.18577 0.32508
# Poissons Ratio (y) = 0.20023 0.25135
# Poissons Ratio (z) = 0.43555 0.31244
#
# Static dielectric constant tensor:
#      x y z
#    x 1.622530 0.000000 0.000000 
#    y 0.000000 1.587720 0.000000 
#    z 0.000000 0.000000 1.591710 
# 
# From -- ./inp_files/4748.got.cif
#   From: 2010.05.17/outbox.cif.g08.bks.cpg/sg72_3_cif.got.tgz:4748.got - 2010.06.03 17:03:01.
