data_PCOD9527155
_publ_section_title
;
Structure prediction by ZEFSAII (Michael W. Deem and Ramdas Pophale) SiO2 
 PCOD9527155
Probable space group: I B A M
;
_chemical_formula_sum "Si O2"
_cell_formula_units_Z 100
_cell_length_a 20.334254
_cell_length_b 9.218723
_cell_length_c 26.700827
_cell_angle_alpha 90.000000
_cell_angle_beta 90.000000
_cell_angle_gamma 90.000000
_cell_volume 5005.226355
_symmetry_space_group_name_H-M "I B A M"
_symmetry_group_IT_number 72
_symmetry_cell_setting 'orthorhombic'
loop_
_space_group_symop_operation_xyz
x,y,z
-x,-y,z
x,-y,1/2-z
-x,y,1/2-z
-x,-y,-z
x,y,-z
-x,y,1/2+z
x,-y,1/2+z
1/2+x,1/2+y,1/2+z
1/2-x,1/2-y,1/2+z
1/2+x,1/2-y,-z
1/2-x,1/2+y,-z
1/2-x,1/2-y,1/2-z
1/2+x,1/2+y,1/2-z
1/2-x,1/2+y,z
1/2+x,1/2-y,z
loop_
_atom_site_type_symbol
_atom_site_label
_atom_site_fract_x
_atom_site_fract_y
_atom_site_fract_z
Si Si1 0.000000 0.500000 0.750000
Si Si2 0.401702 0.834485 0.325236
Si Si3 0.573602 0.563732 0.500000
Si Si4 0.294000 0.357453 0.781192
Si Si5 0.106269 0.174998 0.425807
Si Si6 0.756151 0.784920 0.941561
Si Si7 0.292189 0.040902 0.624653
Si Si8 0.992184 0.671594 0.500000
O O1 0.956219 0.405647 0.789361
O O2 0.357352 0.737366 0.289927
O O3 0.413960 0.715922 0.369373
O O4 0.355506 0.959742 0.351430
O O5 0.500000 0.500000 0.500000
O O6 0.602348 0.486440 0.549898
O O7 0.560078 0.735311 0.500000
O O8 0.307580 0.500000 0.750000
O O9 0.250000 0.250000 0.750000
O O10 0.254555 0.398877 0.831500
O O11 0.180951 0.224002 0.437504
O O12 0.053600 0.274814 0.454722
O O13 0.804434 0.671647 0.914227
O O14 0.749834 0.926693 0.907669
O O15 0.771957 0.810092 0.000000
O O16 0.000000 0.500000 0.500000
#
# Coordination Sequence:
#
# PCOD9527155 Si02
#       8
#     4  16   8  16  16  16  16   8
#     4  12  28  48  70  98 128 180 234 306 352 394
#     4  11  24  43  68  92 136 173 222 284 345 403
#     4   8  16  36  62  86 123 180 221 262 321 387
#     4  12  21  39  69 100 131 170 226 279 336 418
#     4   9  18  37  63  85 131 173 213 269 336 395
#     4  11  20  37  62  95 142 172 211 268 336 415
#     4  11  21  38  65  96 131 177 216 271 351 403
#     4  10  20  36  66  92 123 180 241 272 315 396
#
# _framework density 19.979116999999999
#
# number of rings (size 3 to 8) (size 9 to 14) (size 15 to 20)
#    0.000    1.600    6.400    1.440    1.120    0.000 
#    0.000    8.400    3.520    0.000    0.000    0.000 
#    0.000    0.000    0.000    0.000    0.000    0.000 
#
# Total GULP energy -278592.906987 kJ/mol
# GULP energy per Si atom -5571.858140 kJ/mol
# Density = 1.993364 g / cm^3
# Si number density = 19.979117 Si / 1000 Ang^3
#
#
#
# Elastic Constant Matrix: (Units=GPa)
#
#
# Indices 1 2 3 4 5 6 
#
# 1 70.6808 41.6635 54.9984 0.0000 0.0000 0.0000
# 2 41.6635 140.3462 75.7477 0.0000 0.0000 0.0000
# 3 54.9984 75.7477 140.6261 0.0000 0.0000 0.0000
# 4 0.0000 0.0000 0.0000 44.3283 0.0000 0.0000
# 5 0.0000 0.0000 0.0000 0.0000 34.8231 0.0000
# 6 0.0000 0.0000 0.0000 0.0000 0.0000 36.6390
#
#
#
# Elastic Compliance Matrix: (Units=1/GPa)
#
#
# Indices 1 2 3 4 5 6 
#
# 1 0.020958 -0.002535 -0.006831 0.000000 0.000000 0.000000
# 2 -0.002535 0.010352 -0.004585 0.000000 0.000000 0.000000
# 3 -0.006831 -0.004585 0.012252 0.000000 0.000000 0.000000
# 4 0.000000 0.000000 0.000000 0.022559 0.000000 0.000000
# 5 0.000000 0.000000 0.000000 0.000000 0.028717 0.000000
# 6 0.000000 0.000000 0.000000 0.000000 0.000000 0.027293
#
#
# Mechanical properties :
#
#
# Convention : Reuss Voigt Hill
#
# Bulk Modulus (GPa) = 63.85365 77.38581 70.61973
# Shear Modulus (GPa) = 32.20553 35.10766 33.65660
#
# Velocity S-wave (km/s) = 4.01928 4.19647 4.10883
# Velocity P-wave (km/s) = 7.31909 7.89290 7.61140
#
# Compressibility (1/GPa) = 0.01566081
#
# Stress axis : x y z
#
# Youngs Moduli (GPa) = 47.71520 96.59751 81.61683
#
# Poissons Ratio (x) = 0.24483 0.55754
# Poissons Ratio (y) = 0.12094 0.37421
# Poissons Ratio (z) = 0.32595 0.44289
#
# Static dielectric constant tensor:
#      x y z
#    x 1.715640 0.000000 0.000000 
#    y 0.000000 1.738680 0.000000 
#    z 0.000000 0.000000 1.746960 
# 
# From -- ./inp_files/49462.got.cif
#   From: 2010.05.17/outbox.cif.g08.bks.cpg/sg72_25_cif.got.tgz:49462.got - 2010.06.03 17:03:01.
