data_PCOD9527522
_publ_section_title
;
Structure prediction by ZEFSAII (Michael W. Deem and Ramdas Pophale) SiO2 
 PCOD9527522
Probable space group: I B A M
;
_chemical_formula_sum "Si O2"
_cell_formula_units_Z 56
_cell_length_a 5.342419
_cell_length_b 26.875090
_cell_length_c 17.250718
_cell_angle_alpha 90.000000
_cell_angle_beta 90.000000
_cell_angle_gamma 90.000000
_cell_volume 2476.823441
_symmetry_space_group_name_H-M "I B A M"
_symmetry_group_IT_number 72
_symmetry_cell_setting 'orthorhombic'
loop_
_space_group_symop_operation_xyz
x,y,z
-x,-y,z
x,-y,1/2-z
-x,y,1/2-z
-x,-y,-z
x,y,-z
-x,y,1/2+z
x,-y,1/2+z
1/2+x,1/2+y,1/2+z
1/2-x,1/2-y,1/2+z
1/2+x,1/2-y,-z
1/2-x,1/2+y,-z
1/2-x,1/2-y,1/2-z
1/2+x,1/2+y,1/2-z
1/2-x,1/2+y,z
1/2+x,1/2-y,z
loop_
_atom_site_type_symbol
_atom_site_label
_atom_site_fract_x
_atom_site_fract_y
_atom_site_fract_z
Si Si1 0.753459 0.877126 0.908530
Si Si2 0.000000 0.500000 0.250000
Si Si3 0.249818 0.060155 0.622854
Si Si4 0.500000 0.000000 0.500000
Si Si5 0.747861 0.271357 0.838844
O O1 0.484465 0.903981 0.900753
O O2 0.758541 0.830151 0.850714
O O3 0.988680 0.912011 0.887243
O O4 0.780577 0.863282 0.000000
O O5 0.184213 0.462623 0.205158
O O6 0.293363 0.013949 0.566315
O O7 0.750000 0.250000 0.750000
O O8 0.500414 0.248822 0.876046
#
# Coordination Sequence:
#
# PCOD9527522 Si02
#       5
#    16   4  16   4  16
#     4  12  24  43  70 102 132 181 240 287 347 411
#     4  10  28  44  64 104 136 184 224 276 356 432
#     4  11  25  43  70  99 139 179 228 294 343 419
#     4  10  20  44  68  96 132 176 220 280 364 388
#     4  10  23  42  65  95 133 182 220 284 346 406
#
# _framework density 22.609604999999998
#
# number of rings (size 3 to 8) (size 9 to 14) (size 15 to 20)
#    0.000    1.143    2.857    1.714    0.000   16.000 
#    0.000    0.000    0.000    0.000    0.000    0.000 
#    0.000    0.000    0.000    0.000    0.000    0.000 
#
# Total GULP energy -155867.922030 kJ/mol
# GULP energy per Si atom -5566.711501 kJ/mol
# Density = 2.255814 g / cm^3
# Si number density = 22.609605 Si / 1000 Ang^3
#
#
#
# Elastic Constant Matrix: (Units=GPa)
#
#
# Indices 1 2 3 4 5 6 
#
# 1 190.8131 56.1656 3.9946 0.0000 0.0000 0.0000
# 2 56.1656 95.2653 32.8153 0.0000 0.0000 0.0000
# 3 3.9946 32.8153 81.5133 0.0000 0.0000 0.0000
# 4 0.0000 0.0000 0.0000 35.9946 0.0000 0.0000
# 5 0.0000 0.0000 0.0000 0.0000 1.6448 0.0000
# 6 0.0000 0.0000 0.0000 0.0000 0.0000 42.5214
#
#
#
# Elastic Compliance Matrix: (Units=1/GPa)
#
#
# Indices 1 2 3 4 5 6 
#
# 1 0.006479 -0.004308 0.001417 0.000000 0.000000 0.000000
# 2 -0.004308 0.015051 -0.005848 0.000000 0.000000 0.000000
# 3 0.001417 -0.005848 0.014553 0.000000 0.000000 0.000000
# 4 0.000000 0.000000 0.000000 0.027782 0.000000 0.000000
# 5 0.000000 0.000000 0.000000 0.000000 0.607962 0.000000
# 6 0.000000 0.000000 0.000000 0.000000 0.000000 0.023518
#
#
# Mechanical properties :
#
#
# Convention : Reuss Voigt Hill
#
# Bulk Modulus (GPa) = 53.75023 61.50473 57.62748
# Shear Modulus (GPa) = 6.95386 34.33993 20.64689
#
# Velocity S-wave (km/s) = 1.75565 3.90143 3.02518
# Velocity P-wave (km/s) = 5.28531 6.89615 6.14375
#
# Compressibility (1/GPa) = 0.01860457
#
# Stress axis : x y z
#
# Youngs Moduli (GPa) = 154.34244 66.43947 68.71510
#
# Poissons Ratio (x) = 0.28621 -0.09735
# Poissons Ratio (y) = 0.66489 0.40186
# Poissons Ratio (z) = -0.21866 0.38855
#
# Static dielectric constant tensor:
#      x y z
#    x 1.848550 0.000000 0.000000 
#    y 0.000000 1.940410 0.000000 
#    z 0.000000 0.000000 1.865490 
# 
# From -- ./inp_files/26930.got.cif
#   From: 2010.05.17/outbox.cif.g08.bks.cpg/sg72_14_cif.got.tgz:26930.got - 2010.06.03 17:03:01.
