data_PCOD9527952
_publ_section_title
;
Structure prediction by ZEFSAII (Michael W. Deem and Ramdas Pophale) SiO2 
 PCOD9527952
Probable space group: I B A M
;
_chemical_formula_sum "Si O2"
_cell_formula_units_Z 112
_cell_length_a 12.839811
_cell_length_b 28.511627
_cell_length_c 15.189594
_cell_angle_alpha 90.000000
_cell_angle_beta 90.000000
_cell_angle_gamma 90.000000
_cell_volume 5560.665841
_symmetry_space_group_name_H-M "I B A M"
_symmetry_group_IT_number 72
_symmetry_cell_setting 'orthorhombic'
loop_
_space_group_symop_operation_xyz
x,y,z
-x,-y,z
x,-y,1/2-z
-x,y,1/2-z
-x,-y,-z
x,y,-z
-x,y,1/2+z
x,-y,1/2+z
1/2+x,1/2+y,1/2+z
1/2-x,1/2-y,1/2+z
1/2+x,1/2-y,-z
1/2-x,1/2+y,-z
1/2-x,1/2-y,1/2-z
1/2+x,1/2+y,1/2-z
1/2-x,1/2+y,z
1/2+x,1/2-y,z
loop_
_atom_site_type_symbol
_atom_site_label
_atom_site_fract_x
_atom_site_fract_y
_atom_site_fract_z
Si Si1 0.460564 0.549462 0.649357
Si Si2 0.841575 0.632669 0.396168
Si Si3 0.988081 0.446239 0.355885
Si Si4 0.603890 0.365703 0.900529
Si Si5 0.258283 0.090258 0.396425
Si Si6 0.296811 0.817488 0.783037
Si Si7 0.099882 0.770427 0.302807
O O1 0.500000 0.500000 0.610975
O O2 0.500000 0.549626 0.750000
O O3 0.520399 0.593782 0.609940
O O4 0.337545 0.558284 0.638235
O O5 0.846717 0.649904 0.500000
O O6 0.721236 0.617053 0.377560
O O7 0.853217 0.667754 0.310708
O O8 0.925067 0.590684 0.389478
O O9 0.872066 0.432001 0.383737
O O10 0.000000 0.500000 0.385189
O O11 0.000000 0.444942 0.250000
O O12 0.573137 0.317234 0.855473
O O13 0.612397 0.352057 0.000000
O O14 0.240087 0.099301 0.500000
O O15 0.266252 0.137171 0.338409
O O16 0.191640 0.790686 0.757697
O O17 0.359741 0.779085 0.840282
O O18 0.000000 0.756559 0.250000
#
# Coordination Sequence:
#
# PCOD9527952 Si02
#       7
#    16  16  16  16  16  16  16
#     4  11  25  42  69  98 134 176 223 276 348 412
#     4  10  21  40  66  92 127 173 222 275 337 408
#     4  11  25  42  67  94 136 181 228 275 339 404
#     4  10  21  39  64  93 127 167 220 279 338 408
#     4  12  26  43  67  99 137 176 221 279 339 401
#     4  10  22  41  63  94 127 168 221 275 337 401
#     4  10  21  38  64  87 123 172 213 270 337 399
#
# _framework density 20.141472
#
# number of rings (size 3 to 8) (size 9 to 14) (size 15 to 20)
#    0.000    1.429    1.429    3.857    4.000    4.000 
#    0.000    2.857    0.000    0.000    0.000    0.000 
#    0.000    0.000    0.000    0.000    0.000    0.000 
#
# Total GULP energy -311912.479778 kJ/mol
# GULP energy per Si atom -5569.865710 kJ/mol
# Density = 2.009563 g / cm^3
# Si number density = 20.141472 Si / 1000 Ang^3
#
#
#
# Elastic Constant Matrix: (Units=GPa)
#
#
# Indices 1 2 3 4 5 6 
#
# 1 63.3098 12.5960 -0.2323 0.0001 0.0000 0.0000
# 2 12.5960 55.2642 0.2932 0.0002 0.0001 -0.0001
# 3 -0.2323 0.2932 74.2040 0.0013 0.0001 -0.0002
# 4 0.0001 0.0002 0.0013 190.6204 0.0000 0.0001
# 5 0.0000 0.0001 0.0001 0.0000 21.1941 0.0000
# 6 0.0000 -0.0001 -0.0002 0.0001 0.0000 71.1032
#
#
#
# Elastic Compliance Matrix: (Units=1/GPa)
#
#
# Indices 1 2 3 4 5 6 
#
# 1 0.016546 -0.003772 0.000067 0.000000 0.000000 0.000000
# 2 -0.003772 0.018955 -0.000087 0.000000 0.000000 0.000000
# 3 0.000067 -0.000087 0.013477 0.000000 0.000000 0.000000
# 4 0.000000 0.000000 0.000000 0.005246 0.000000 0.000000
# 5 0.000000 0.000000 0.000000 0.000000 0.047183 0.000000
# 6 0.000000 0.000000 0.000000 0.000000 0.000000 0.014064
#
#
# Mechanical properties :
#
#
# Convention : Reuss Voigt Hill
#
# Bulk Modulus (GPa) = 24.15765 24.23241 24.19503
# Shear Modulus (GPa) = 36.53575 68.59161 52.56368
#
# Velocity S-wave (km/s) = 4.26368 5.84199 5.11409
# Velocity P-wave (km/s) = 6.02151 7.58699 6.84912
#
# Compressibility (1/GPa) = 0.04139475
#
# Stress axis : x y z
#
# Youngs Moduli (GPa) = 60.43766 52.75653 74.20096
#
# Poissons Ratio (x) = 0.19898 -0.00495
# Poissons Ratio (y) = 0.22795 0.00643
# Poissons Ratio (z) = -0.00403 0.00457
#
# Static dielectric constant tensor:
#      x y z
#    x 1.746550 0.000000 0.000000 
#    y 0.000000 1.795540 0.000000 
#    z 0.000000 0.000000 1.747210 
# 
# From -- ./inp_files/20699.got.cif
#   From: 2010.05.17/outbox.cif.g08.bks.cpg/sg72_11_cif.got.tgz:20699.got - 2010.06.03 17:03:01.
