data_PCOD9527407
_publ_section_title
;
Structure prediction by ZEFSAII (Michael W. Deem and Ramdas Pophale) SiO2 
 PCOD9527407
Probable space group: I B A M
;
_chemical_formula_sum "Si O2"
_cell_formula_units_Z 112
_cell_length_a 12.043477
_cell_length_b 20.016619
_cell_length_c 22.604968
_cell_angle_alpha 90.000000
_cell_angle_beta 90.000000
_cell_angle_gamma 90.000000
_cell_volume 5449.372641
_symmetry_space_group_name_H-M "I B A M"
_symmetry_group_IT_number 72
_symmetry_cell_setting 'orthorhombic'
loop_
_space_group_symop_operation_xyz
x,y,z
-x,-y,z
x,-y,1/2-z
-x,y,1/2-z
-x,-y,-z
x,y,-z
-x,y,1/2+z
x,-y,1/2+z
1/2+x,1/2+y,1/2+z
1/2-x,1/2-y,1/2+z
1/2+x,1/2-y,-z
1/2-x,1/2+y,-z
1/2-x,1/2-y,1/2-z
1/2+x,1/2+y,1/2-z
1/2-x,1/2+y,z
1/2+x,1/2-y,z
loop_
_atom_site_type_symbol
_atom_site_label
_atom_site_fract_x
_atom_site_fract_y
_atom_site_fract_z
Si Si1 0.951579 0.175043 0.138864
Si Si2 0.131384 0.006798 0.067788
Si Si3 0.105517 0.687116 0.192388
Si Si4 0.256513 0.639473 0.566523
Si Si5 0.182801 0.870424 0.355944
Si Si6 0.838246 0.926649 0.728161
Si Si7 0.874499 0.633199 0.184393
O O1 0.942014 0.240828 0.177976
O O2 0.865614 0.180408 0.085149
O O3 0.909761 0.111239 0.178169
O O4 0.076185 0.165609 0.117421
O O5 0.189359 0.058926 0.111196
O O6 0.197454 0.937041 0.068522
O O7 0.132286 0.031547 0.000000
O O8 0.000000 0.000000 0.083931
O O9 0.204284 0.670081 0.147862
O O10 0.144426 0.684629 0.260879
O O11 0.008002 0.631531 0.184208
O O12 0.217814 0.653186 0.500000
O O13 0.168907 0.651346 0.619279
O O14 0.154582 0.883303 0.287311
O O15 0.709823 0.925606 0.705039
O O16 0.870884 0.000000 0.750000
#
# Coordination Sequence:
#
# PCOD9527407 Si02
#       7
#    16  16  16  16  16  16  16
#     4  11  23  36  61  91 127 163 208 266 321 390
#     4  10  20  39  63  90 125 159 204 260 326 386
#     4  10  24  41  62  92 126 174 215 258 321 381
#     4  10  21  39  65  93 123 167 210 260 324 387
#     4  11  22  35  60  92 119 160 206 260 317 381
#     4  10  22  35  57  92 122 157 204 264 321 371
#     4   9  21  42  64  85 127 172 214 255 310 392
#
# _framework density 20.552824999999999
#
# number of rings (size 3 to 8) (size 9 to 14) (size 15 to 20)
#    0.000    1.857    1.429    2.143    8.000    3.429 
#    0.000   12.857    0.000    1.714    0.000    0.000 
#    0.000    0.000    0.000    0.000    0.000    0.000 
#
# Total GULP energy -312264.712605 kJ/mol
# GULP energy per Si atom -5576.155582 kJ/mol
# Density = 2.050605 g / cm^3
# Si number density = 20.552825 Si / 1000 Ang^3
#
#
#
# Elastic Constant Matrix: (Units=GPa)
#
#
# Indices 1 2 3 4 5 6 
#
# 1 98.2193 32.0077 30.2343 0.0000 0.0000 0.0000
# 2 32.0077 46.3917 5.7196 0.0000 0.0000 0.0000
# 3 30.2343 5.7196 111.1113 0.0000 0.0000 0.0000
# 4 0.0000 0.0000 0.0000 16.2415 0.0000 0.0000
# 5 0.0000 0.0000 0.0000 0.0000 17.1133 0.0000
# 6 0.0000 0.0000 0.0000 0.0000 0.0000 7.3758
#
#
#
# Elastic Compliance Matrix: (Units=1/GPa)
#
#
# Indices 1 2 3 4 5 6 
#
# 1 0.014311 -0.009454 -0.003407 0.000000 0.000000 0.000000
# 2 -0.009454 0.027938 0.001134 0.000000 0.000000 0.000000
# 3 -0.003407 0.001134 0.009869 0.000000 0.000000 0.000000
# 4 0.000000 0.000000 0.000000 0.061571 0.000000 0.000000
# 5 0.000000 0.000000 0.000000 0.000000 0.058434 0.000000
# 6 0.000000 0.000000 0.000000 0.000000 0.000000 0.135579
#
#
# Mechanical properties :
#
#
# Convention : Reuss Voigt Hill
#
# Bulk Modulus (GPa) = 34.88669 43.51617 39.20143
# Shear Modulus (GPa) = 14.67522 20.66349 17.66936
#
# Velocity S-wave (km/s) = 2.67502 3.17422 2.93525
# Velocity P-wave (km/s) = 5.15286 5.88668 5.53195
#
# Compressibility (1/GPa) = 0.02866423
#
# Stress axis : x y z
#
# Youngs Moduli (GPa) = 69.87644 35.79316 101.32944
#
# Poissons Ratio (x) = 0.33838 0.34528
# Poissons Ratio (y) = 0.66059 -0.11493
# Poissons Ratio (z) = 0.23810 -0.04060
#
# Static dielectric constant tensor:
#      x y z
#    x 1.793130 0.000000 0.000000 
#    y 0.000000 1.760950 0.000000 
#    z 0.000000 0.000000 1.745650 
# 
# From -- ./inp_files/43548.got.cif
#   From: 2010.05.17/outbox.cif.g08.bks.cpg/sg72_22_cif.got.tgz:43548.got - 2010.06.03 17:03:01.
