data_PCOD9527770
_publ_section_title
;
Structure prediction by ZEFSAII (Michael W. Deem and Ramdas Pophale) SiO2 
 PCOD9527770
Probable space group: I B A M
;
_chemical_formula_sum "Si O2"
_cell_formula_units_Z 80
_cell_length_a 9.310006
_cell_length_b 24.580501
_cell_length_c 14.603815
_cell_angle_alpha 90.000000
_cell_angle_beta 90.000000
_cell_angle_gamma 90.000000
_cell_volume 3342.004374
_symmetry_space_group_name_H-M "I B A M"
_symmetry_group_IT_number 72
_symmetry_cell_setting 'orthorhombic'
loop_
_space_group_symop_operation_xyz
x,y,z
-x,-y,z
x,-y,1/2-z
-x,y,1/2-z
-x,-y,-z
x,y,-z
-x,y,1/2+z
x,-y,1/2+z
1/2+x,1/2+y,1/2+z
1/2-x,1/2-y,1/2+z
1/2+x,1/2-y,-z
1/2-x,1/2+y,-z
1/2-x,1/2-y,1/2-z
1/2+x,1/2+y,1/2-z
1/2-x,1/2+y,z
1/2+x,1/2-y,z
loop_
_atom_site_type_symbol
_atom_site_label
_atom_site_fract_x
_atom_site_fract_y
_atom_site_fract_z
Si Si1 0.310517 0.968796 0.611090
Si Si2 0.656489 0.328220 0.606423
Si Si3 0.856834 0.870914 0.110883
Si Si4 0.140395 0.283397 0.688215
Si Si5 0.389105 0.086038 0.611412
O O1 0.322727 0.971152 0.500000
O O2 0.175451 0.932779 0.635113
O O3 0.451102 0.933694 0.641661
O O4 0.303632 0.031418 0.639314
O O5 0.660952 0.342032 0.500000
O O6 0.511452 0.353237 0.646373
O O7 0.623871 0.263626 0.611951
O O8 0.800708 0.359873 0.642122
O O9 0.727134 0.833617 0.147451
O O10 0.854939 0.865598 0.000000
O O11 0.250000 0.250000 0.750000
O O12 0.000000 0.293221 0.750000
O O13 0.401222 0.090330 0.500000
#
# Coordination Sequence:
#
# PCOD9527770 Si02
#       5
#    16  16  16  16  16
#     4   8  15  29  52  84 116 145 182 229 282 337
#     4  10  21  37  58  86 116 148 192 242 293 347
#     4  10  21  37  58  86 116 148 192 242 291 349
#     4  12  25  42  57  80 114 157 197 240 293 350
#     4   8  15  29  52  84 116 145 182 231 283 336
#
# _framework density 23.937729999999998
#
# number of rings (size 3 to 8) (size 9 to 14) (size 15 to 20)
#    0.000    2.400    2.000    1.800    2.800    0.800 
#    0.000    4.000    0.000    1.200    0.000    0.000 
#    0.000    0.000    0.000    0.000    0.000    0.000 
#
# Total GULP energy -222913.316410 kJ/mol
# GULP energy per Si atom -5572.832910 kJ/mol
# Density = 2.388325 g / cm^3
# Si number density = 23.937730 Si / 1000 Ang^3
#
#
#
# Elastic Constant Matrix: (Units=GPa)
#
#
# Indices 1 2 3 4 5 6 
#
# 1 68.9194 18.2875 18.0750 0.0000 0.0000 0.0000
# 2 18.2875 87.8174 3.8459 0.0001 0.0000 -0.0001
# 3 18.0750 3.8459 62.7198 0.0001 -0.0001 -0.0001
# 4 0.0000 0.0001 0.0001 -2.7845 0.0000 -0.0001
# 5 0.0000 0.0000 -0.0001 0.0000 23.7540 0.0000
# 6 0.0000 -0.0001 -0.0001 -0.0001 0.0000 -45.3991
#
#
#
# Elastic Compliance Matrix: (Units=1/GPa)
#
#
# Indices 1 2 3 4 5 6 
#
# 1 0.016573 -0.003251 -0.004577 0.000000 0.000000 0.000000
# 2 -0.003251 0.012056 0.000198 0.000000 0.000000 0.000000
# 3 -0.004577 0.000198 0.017251 0.000001 0.000000 0.000000
# 4 0.000000 0.000000 0.000001 -0.359127 -0.000001 0.000001
# 5 0.000000 0.000000 0.000000 -0.000001 0.042098 0.000000
# 6 0.000000 0.000000 0.000000 0.000001 0.000000 -0.022027
#
#
# Mechanical properties :
#
#
# Convention : Reuss Voigt Hill
#
# Bulk Modulus (GPa) = 32.65917 33.31926 32.98921
# Shear Modulus (GPa) = -18.67686 7.06396 -5.80645
#
# Velocity S-wave (km/s) = -2.79628 1.71970 -1.55914
# Velocity P-wave (km/s) = 1.80205 4.22996 3.25115
#
# Compressibility (1/GPa) = 0.03061928
#
# Stress axis : x y z
#
# Youngs Moduli (GPa) = 60.34070 82.94928 57.96854
#
# Poissons Ratio (x) = 0.26964 0.26530
# Poissons Ratio (y) = 0.19615 -0.01145
# Poissons Ratio (z) = 0.27616 -0.01639
#
# Static dielectric constant tensor:
#      x y z
#    x 1.916200 0.000000 0.000000 
#    y 0.000000 0.031630 0.000000 
#    z 0.000000 0.000000 1.892680 
# 
# From -- ./inp_files/28092.got.cif
#   From: 2010.05.17/outbox.cif.g08.bks.cpg/sg72_15_cif.got.tgz:28092.got - 2010.06.03 17:03:01.
