data_PCOD9527035
_publ_section_title
;
Structure prediction by ZEFSAII (Michael W. Deem and Ramdas Pophale) SiO2 
 PCOD9527035
Probable space group: I B A M
;
_chemical_formula_sum "Si O2"
_cell_formula_units_Z 80
_cell_length_a 13.837077
_cell_length_b 18.367969
_cell_length_c 16.899751
_cell_angle_alpha 90.000000
_cell_angle_beta 90.000000
_cell_angle_gamma 90.000000
_cell_volume 4295.223838
_symmetry_space_group_name_H-M "I B A M"
_symmetry_group_IT_number 72
_symmetry_cell_setting 'orthorhombic'
loop_
_space_group_symop_operation_xyz
x,y,z
-x,-y,z
x,-y,1/2-z
-x,y,1/2-z
-x,-y,-z
x,y,-z
-x,y,1/2+z
x,-y,1/2+z
1/2+x,1/2+y,1/2+z
1/2-x,1/2-y,1/2+z
1/2+x,1/2-y,-z
1/2-x,1/2+y,-z
1/2-x,1/2-y,1/2-z
1/2+x,1/2+y,1/2-z
1/2-x,1/2+y,z
1/2+x,1/2-y,z
loop_
_atom_site_type_symbol
_atom_site_label
_atom_site_fract_x
_atom_site_fract_y
_atom_site_fract_z
Si Si1 0.602011 0.220151 0.592877
Si Si2 0.616873 0.797252 0.591392
Si Si3 0.699880 0.645774 0.180133
Si Si4 0.612844 0.509755 0.908393
Si Si5 0.794938 0.144008 0.630825
O O1 0.601088 0.241425 0.500000
O O2 0.494887 0.193571 0.613418
O O3 0.633994 0.289227 0.644882
O O4 0.685073 0.160270 0.605190
O O5 0.631335 0.819743 0.500000
O O6 0.692985 0.838143 0.646803
O O7 0.642793 0.711590 0.597794
O O8 0.660567 0.570012 0.147012
O O9 0.699225 0.647247 0.274353
O O10 0.500000 0.500000 0.888470
O O11 0.665085 0.432422 0.898726
O O12 0.619179 0.533757 0.000000
#
# Coordination Sequence:
#
# PCOD9527035 Si02
#       5
#    16  16  16  16  16
#     4  10  20  36  58  81 108 145 185 222 263 317
#     4  10  20  36  58  81 108 145 185 222 263 317
#     4  11  22  35  55  83 113 142 177 225 273 319
#     4  11  23  39  58  79 108 145 181 220 268 323
#     4  11  22  35  55  83 113 142 177 225 273 319
#
# _framework density 18.625337999999999
#
# number of rings (size 3 to 8) (size 9 to 14) (size 15 to 20)
#    0.000    1.400    0.000    9.000    0.000    9.600 
#    0.000    1.000    0.000    6.000    0.000    0.000 
#    0.000    0.000    0.000    0.000    0.000    0.000 
#
# Total GULP energy -223659.335147 kJ/mol
# GULP energy per Si atom -5591.483379 kJ/mol
# Density = 1.858295 g / cm^3
# Si number density = 18.625338 Si / 1000 Ang^3
#
#
#
# Elastic Constant Matrix: (Units=GPa)
#
#
# Indices 1 2 3 4 5 6 
#
# 1 110.8550 25.2232 26.7003 0.0000 0.0000 0.0000
# 2 25.2232 57.0068 -2.6826 0.0000 0.0000 0.0000
# 3 26.7003 -2.6826 75.7722 0.0000 0.0000 0.0000
# 4 0.0000 0.0000 0.0000 35.6263 0.0000 0.0000
# 5 0.0000 0.0000 0.0000 0.0000 51.0911 0.0000
# 6 0.0000 0.0000 0.0000 0.0000 0.0000 6.3217
#
#
#
# Elastic Compliance Matrix: (Units=1/GPa)
#
#
# Indices 1 2 3 4 5 6 
#
# 1 0.011184 -0.005142 -0.004123 0.000000 0.000000 0.000000
# 2 -0.005142 0.019936 0.002518 0.000000 0.000000 0.000000
# 3 -0.004123 0.002518 0.014739 0.000000 0.000000 0.000000
# 4 0.000000 0.000000 0.000000 0.028069 0.000000 0.000000
# 5 0.000000 0.000000 0.000000 0.000000 0.019573 0.000000
# 6 0.000000 0.000000 0.000000 0.000000 0.000000 0.158186
#
#
# Mechanical properties :
#
#
# Convention : Reuss Voigt Hill
#
# Bulk Modulus (GPa) = 30.89877 38.01289 34.45583
# Shear Modulus (GPa) = 18.11787 31.56733 24.84260
#
# Velocity S-wave (km/s) = 3.12228 4.12133 3.65609
# Velocity P-wave (km/s) = 5.44278 6.56511 6.03012
#
# Compressibility (1/GPa) = 0.03236375
#
# Stress axis : x y z
#
# Youngs Moduli (GPa) = 89.41401 50.16154 67.84519
#
# Poissons Ratio (x) = 0.25795 0.27973
# Poissons Ratio (y) = 0.45981 -0.17082
# Poissons Ratio (z) = 0.36865 -0.12630
#
# Static dielectric constant tensor:
#      x y z
#    x 1.636690 0.000000 0.000000 
#    y 0.000000 1.606920 0.000000 
#    z 0.000000 0.000000 1.641050 
# 
# From -- ./inp_files/30468.got.cif
#   From: 2010.05.17/outbox.cif.g08.bks.cpg/sg72_16_cif.got.tgz:30468.got - 2010.06.03 17:03:01.
