data_PCOD9527423
_publ_section_title
;
Structure prediction by ZEFSAII (Michael W. Deem and Ramdas Pophale) SiO2 
 PCOD9527423
Probable space group: I B A M
;
_chemical_formula_sum "Si O2"
_cell_formula_units_Z 88
_cell_length_a 12.301038
_cell_length_b 25.561243
_cell_length_c 11.589486
_cell_angle_alpha 90.000000
_cell_angle_beta 90.000000
_cell_angle_gamma 90.000000
_cell_volume 3644.080014
_symmetry_space_group_name_H-M "I B A M"
_symmetry_group_IT_number 72
_symmetry_cell_setting 'orthorhombic'
loop_
_space_group_symop_operation_xyz
x,y,z
-x,-y,z
x,-y,1/2-z
-x,y,1/2-z
-x,-y,-z
x,y,-z
-x,y,1/2+z
x,-y,1/2+z
1/2+x,1/2+y,1/2+z
1/2-x,1/2-y,1/2+z
1/2+x,1/2-y,-z
1/2-x,1/2+y,-z
1/2-x,1/2-y,1/2-z
1/2+x,1/2+y,1/2-z
1/2-x,1/2+y,z
1/2+x,1/2-y,z
loop_
_atom_site_type_symbol
_atom_site_label
_atom_site_fract_x
_atom_site_fract_y
_atom_site_fract_z
Si Si1 0.879143 0.226329 0.624962
Si Si2 0.274870 0.494888 0.625331
Si Si3 0.500000 0.363205 0.750000
Si Si4 0.786779 0.110785 0.872310
Si Si5 0.843823 0.684190 0.298650
Si Si6 0.062105 0.578529 0.869893
O O1 0.909316 0.248023 0.500000
O O2 0.947978 0.174956 0.654428
O O3 0.891048 0.267295 0.728247
O O4 0.753450 0.207989 0.625927
O O5 0.333284 0.500000 0.750000
O O6 0.331595 0.485291 0.500000
O O7 0.231962 0.554283 0.617844
O O8 0.177588 0.452758 0.632830
O O9 0.597560 0.394005 0.691106
O O10 0.714779 0.149575 0.799363
O O11 0.804319 0.132029 0.000000
O O12 0.917682 0.641383 0.361850
O O13 0.000000 0.564588 0.750000
O O14 0.016742 0.567378 0.000000
#
# Coordination Sequence:
#
# PCOD9527423 Si02
#       6
#    16  16   8  16  16  16
#     4  10  21  38  61  90 127 168 213 266 319 376
#     4  10  21  41  66  92 125 167 213 261 321 390
#     4  10  22  38  61  96 130 163 214 268 326 380
#     4  10  20  39  66  92 124 169 217 264 324 391
#     4  10  21  39  63  90 124 171 216 260 319 391
#     4  11  25  43  66  96 130 170 216 272 332 393
#
# _framework density 24.148755000000001
#
# number of rings (size 3 to 8) (size 9 to 14) (size 15 to 20)
#    0.000    1.818    1.818    1.636    1.273    2.545 
#    0.000    5.000    0.000    2.182    0.000    0.000 
#    0.000    0.000    0.000    0.000    0.000    0.000 
#
# Total GULP energy -245526.839307 kJ/mol
# GULP energy per Si atom -5580.155439 kJ/mol
# Density = 2.409379 g / cm^3
# Si number density = 24.148755 Si / 1000 Ang^3
#
#
#
# Elastic Constant Matrix: (Units=GPa)
#
#
# Indices 1 2 3 4 5 6 
#
# 1 46.2460 16.5669 21.2688 -0.0024 0.0000 0.0000
# 2 16.5669 101.5798 13.8801 -0.0005 0.0000 0.0000
# 3 21.2688 13.8801 177.3233 -0.0240 0.0001 0.0001
# 4 -0.0024 -0.0005 -0.0240 1397.5176 0.0016 0.0007
# 5 0.0000 0.0000 0.0001 0.0016 5.7366 0.0000
# 6 0.0000 0.0000 0.0001 0.0007 0.0000 17.9521
#
#
#
# Elastic Compliance Matrix: (Units=1/GPa)
#
#
# Indices 1 2 3 4 5 6 
#
# 1 0.024105 -0.003575 -0.002611 0.000000 0.000000 0.000000
# 2 -0.003575 0.010481 -0.000392 0.000000 0.000000 0.000000
# 3 -0.002611 -0.000392 0.005983 0.000000 0.000000 0.000000
# 4 0.000000 0.000000 0.000000 0.000716 0.000000 0.000000
# 5 0.000000 0.000000 0.000000 0.000000 0.174318 0.000000
# 6 0.000000 0.000000 0.000000 0.000000 0.000000 0.055704
#
#
# Mechanical properties :
#
#
# Convention : Reuss Voigt Hill
#
# Bulk Modulus (GPa) = 36.47763 47.62006 42.04885
# Shear Modulus (GPa) = 17.02998 302.47016 159.75007
#
# Velocity S-wave (km/s) = 2.65846 11.20379 8.14224
# Velocity P-wave (km/s) = 4.95595 13.67950 10.28810
#
# Compressibility (1/GPa) = 0.02741406
#
# Stress axis : x y z
#
# Youngs Moduli (GPa) = 41.48509 95.41095 167.13185
#
# Poissons Ratio (x) = 0.34105 0.43646
# Poissons Ratio (y) = 0.14829 0.06546
# Poissons Ratio (z) = 0.10834 0.03737
#
# Static dielectric constant tensor:
#      x y z
#    x 1.934530 0.000000 0.000000 
#    y 0.000000 1.897580 0.000000 
#    z 0.000000 0.000000 2.008060 
# 
# From -- ./inp_files/12872.got.cif
#   From: 2010.05.17/outbox.cif.g08.bks.cpg/sg72_7_cif.got.tgz:12872.got - 2010.06.03 17:03:01.
