data_PCOD9527086
_publ_section_title
;
Structure prediction by ZEFSAII (Michael W. Deem and Ramdas Pophale) SiO2 
 PCOD9527086
Probable space group: I B A M
;
_chemical_formula_sum "Si O2"
_cell_formula_units_Z 96
_cell_length_a 19.526440
_cell_length_b 30.586573
_cell_length_c 8.719025
_cell_angle_alpha 90.000000
_cell_angle_beta 90.000000
_cell_angle_gamma 90.000000
_cell_volume 5207.410500
_symmetry_space_group_name_H-M "I B A M"
_symmetry_group_IT_number 72
_symmetry_cell_setting 'orthorhombic'
loop_
_space_group_symop_operation_xyz
x,y,z
-x,-y,z
x,-y,1/2-z
-x,y,1/2-z
-x,-y,-z
x,y,-z
-x,y,1/2+z
x,-y,1/2+z
1/2+x,1/2+y,1/2+z
1/2-x,1/2-y,1/2+z
1/2+x,1/2-y,-z
1/2-x,1/2+y,-z
1/2-x,1/2-y,1/2-z
1/2+x,1/2+y,1/2-z
1/2-x,1/2+y,z
1/2+x,1/2-y,z
loop_
_atom_site_type_symbol
_atom_site_label
_atom_site_fract_x
_atom_site_fract_y
_atom_site_fract_z
Si Si1 0.179165 0.951836 0.184594
Si Si2 0.171778 0.800556 0.683077
Si Si3 0.680184 0.800497 0.315877
Si Si4 0.575901 0.374505 0.316693
Si Si5 0.576007 0.122859 0.184233
Si Si6 0.827606 0.451573 0.183707
O O1 0.121353 0.916812 0.226594
O O2 0.252645 0.938213 0.253373
O O3 0.163826 0.000000 0.250000
O O4 0.184972 0.954007 0.000000
O O5 0.167544 0.803919 0.500000
O O6 0.248088 0.812990 0.738062
O O7 0.162825 0.749513 0.727060
O O8 0.116116 0.832022 0.757377
O O9 0.690267 0.801694 0.500000
O O10 0.620403 0.834130 0.276405
O O11 0.500000 0.376899 0.250000
O O12 0.572351 0.373036 0.500000
O O13 0.500000 0.125807 0.250000
O O14 0.616028 0.081828 0.255187
O O15 0.574066 0.118781 0.000000
O O16 0.840411 0.500000 0.250000
O O17 0.826527 0.547157 0.500000
#
# Coordination Sequence:
#
# PCOD9527086 Si02
#       6
#    16  16  16  16  16  16
#     4  10  21  38  60  85 112 145 186 232 280 329
#     4  10  20  36  60  87 113 146 189 233 278 330
#     4   9  20  38  59  84 114 148 187 232 279 329
#     4  11  24  39  56  81 115 152 188 230 281 335
#     4  11  23  39  57  81 115 150 186 229 279 332
#     4  11  22  38  61  87 113 145 186 229 276 329
#
# _framework density 18.435267
#
# number of rings (size 3 to 8) (size 9 to 14) (size 15 to 20)
#    0.000    1.667    0.000    5.500    0.000   10.000 
#    0.000    5.000    0.000    0.000    0.000    0.000 
#    0.000    0.000    0.000    0.000    0.000    0.000 
#
# Total GULP energy -268322.271301 kJ/mol
# GULP energy per Si atom -5590.047319 kJ/mol
# Density = 1.839331 g / cm^3
# Si number density = 18.435267 Si / 1000 Ang^3
#
#
#
# Elastic Constant Matrix: (Units=GPa)
#
#
# Indices 1 2 3 4 5 6 
#
# 1 186.3366 112.2209 69.9643 0.0000 0.0000 0.0000
# 2 112.2209 106.2902 54.4670 0.0000 0.0000 0.0000
# 3 69.9643 54.4670 77.7558 0.0008 0.0005 0.0000
# 4 0.0000 0.0000 0.0008 22.6607 0.0001 0.0000
# 5 0.0000 0.0000 0.0005 0.0001 36.6345 -0.0001
# 6 0.0000 0.0000 0.0000 0.0000 -0.0001 -18.3280
#
#
#
# Elastic Compliance Matrix: (Units=1/GPa)
#
#
# Indices 1 2 3 4 5 6 
#
# 1 0.015446 -0.014330 -0.003861 0.000000 0.000000 0.000000
# 2 -0.014330 0.027970 -0.006699 0.000000 0.000000 0.000000
# 3 -0.003861 -0.006699 0.021027 -0.000001 0.000000 0.000000
# 4 0.000000 0.000000 -0.000001 0.044129 0.000000 0.000000
# 5 0.000000 0.000000 0.000000 0.000000 0.027297 0.000000
# 6 0.000000 0.000000 0.000000 0.000000 0.000000 -0.054561
#
#
# Mechanical properties :
#
#
# Convention : Reuss Voigt Hill
#
# Bulk Modulus (GPa) = 68.19014 93.74300 80.96657
# Shear Modulus (GPa) = 36.77122 17.10880 26.94001
#
# Velocity S-wave (km/s) = 4.47095 3.04969 3.82688
# Velocity P-wave (km/s) = 7.98260 7.95996 7.97129
#
# Compressibility (1/GPa) = 0.01466488
#
# Stress axis : x y z
#
# Youngs Moduli (GPa) = 64.74040 35.75205 47.55752
#
# Poissons Ratio (x) = 0.51232 0.18360
# Poissons Ratio (y) = 0.92772 0.31859
# Poissons Ratio (z) = 0.24994 0.23950
#
# Static dielectric constant tensor:
#      x y z
#    x 1.595000 0.000000 0.000000 
#    y 0.000000 1.631380 0.000000 
#    z 0.000000 0.000000 1.617710 
# 
# From -- ./inp_files/5999.got.cif
#   From: 2010.05.17/outbox.cif.g08.bks.cpg/sg72_3_cif.got.tgz:5999.got - 2010.06.03 17:03:01.
