data_PCOD9527561
_publ_section_title
;
Structure prediction by ZEFSAII (Michael W. Deem and Ramdas Pophale) SiO2 
 PCOD9527561
Probable space group: I B A M
;
_chemical_formula_sum "Si O2"
_cell_formula_units_Z 80
_cell_length_a 12.306624
_cell_length_b 35.529882
_cell_length_c 10.552137
_cell_angle_alpha 90.000000
_cell_angle_beta 90.000000
_cell_angle_gamma 90.000000
_cell_volume 4613.952489
_symmetry_space_group_name_H-M "I B A M"
_symmetry_group_IT_number 72
_symmetry_cell_setting 'orthorhombic'
loop_
_space_group_symop_operation_xyz
x,y,z
-x,-y,z
x,-y,1/2-z
-x,y,1/2-z
-x,-y,-z
x,y,-z
-x,y,1/2+z
x,-y,1/2+z
1/2+x,1/2+y,1/2+z
1/2-x,1/2-y,1/2+z
1/2+x,1/2-y,-z
1/2-x,1/2+y,-z
1/2-x,1/2-y,1/2-z
1/2+x,1/2+y,1/2-z
1/2-x,1/2+y,z
1/2+x,1/2-y,z
loop_
_atom_site_type_symbol
_atom_site_label
_atom_site_fract_x
_atom_site_fract_y
_atom_site_fract_z
Si Si1 0.756754 0.831167 0.251659
Si Si2 0.368408 0.090102 0.750861
Si Si3 0.226644 0.717211 0.000000
Si Si4 0.000000 0.808979 0.250000
Si Si5 0.163159 0.291209 0.000000
Si Si6 0.995566 0.757313 0.500000
Si Si7 0.631513 0.043250 0.000000
Si Si8 0.131202 0.457437 0.500000
O O1 0.697193 0.871134 0.247458
O O2 0.727826 0.807670 0.125612
O O3 0.887962 0.832426 0.258389
O O4 0.711541 0.809353 0.374953
O O5 0.500000 0.096732 0.750000
O O6 0.339642 0.066357 0.625565
O O7 0.339925 0.065490 0.874129
O O8 0.134745 0.748539 0.000000
O O9 0.330478 0.745329 0.000000
O O10 0.007278 0.782198 0.372347
O O11 0.033187 0.287667 0.000000
O O12 0.500217 0.040675 0.000000
O O13 0.672546 0.000325 0.000000
#
# Coordination Sequence:
#
# PCOD9527561 Si02
#       8
#    16  16   8   8   8   8   8   8
#     4  12  24  38  55  79 110 143 181 227 274 316
#     4  10  21  34  51  82 113 136 169 215 266 319
#     4  12  23  39  55  77 102 142 189 232 277 313
#     4  12  22  40  56  74 101 146 190 228 261 318
#     4  12  23  39  55  77 102 142 189 232 277 313
#     4  12  24  36  58  76 100 134 190 238 276 322
#     4   9  17  33  56  80 109 141 169 202 255 326
#     4   9  17  33  56  80 109 141 169 202 255 326
#
# _framework density 17.338712000000001
#
# number of rings (size 3 to 8) (size 9 to 14) (size 15 to 20)
#    0.000    1.000    4.000    3.600    2.800    2.400 
#    0.000    0.000    0.000    0.000    0.000    4.200 
#    0.000    0.000    0.000    0.000    0.000    0.000 
#
# Total GULP energy -223081.177105 kJ/mol
# GULP energy per Si atom -5577.029428 kJ/mol
# Density = 1.729925 g / cm^3
# Si number density = 17.338712 Si / 1000 Ang^3
#
#
#
# Elastic Constant Matrix: (Units=GPa)
#
#
# Indices 1 2 3 4 5 6 
#
# 1 44.8798 42.3667 30.9515 -0.0006 -0.0062 -0.0035
# 2 42.3667 163.4415 96.9904 0.0002 -0.0005 -0.0001
# 3 30.9515 96.9904 186.4622 -0.0059 -0.0209 -0.0085
# 4 -0.0006 0.0002 -0.0059 23.3704 0.0028 0.0110
# 5 -0.0062 -0.0005 -0.0209 0.0028 -42.2533 0.0040
# 6 -0.0035 -0.0001 -0.0085 0.0110 0.0040 46.7609
#
#
#
# Elastic Compliance Matrix: (Units=1/GPa)
#
#
# Indices 1 2 3 4 5 6 
#
# 1 0.029730 -0.006911 -0.001340 0.000001 -0.000004 0.000002
# 2 -0.006911 0.010457 -0.004292 -0.000001 0.000003 -0.000001
# 3 -0.001340 -0.004292 0.007818 0.000002 -0.000004 0.000001
# 4 0.000001 -0.000001 0.000002 0.042789 0.000003 -0.000010
# 5 -0.000004 0.000003 -0.000004 0.000003 -0.023667 0.000002
# 6 0.000002 -0.000001 0.000001 -0.000010 0.000002 0.021385
#
#
# Mechanical properties :
#
#
# Convention : Reuss Voigt Hill
#
# Bulk Modulus (GPa) = 43.63313 81.71121 62.67217
# Shear Modulus (GPa) = 41.24074 20.54060 30.89067
#
# Velocity S-wave (km/s) = 4.88231 3.44563 4.22548
# Velocity P-wave (km/s) = 7.55000 7.94095 7.74794
#
# Compressibility (1/GPa) = 0.02291836
#
# Stress axis : x y z
#
# Youngs Moduli (GPa) = 33.63575 95.63008 127.90979
#
# Poissons Ratio (x) = 0.66094 0.17140
# Poissons Ratio (y) = 0.23247 0.54900
# Poissons Ratio (z) = 0.04507 0.41045
#
# Static dielectric constant tensor:
#      x y z
#    x 1.641860 0.000000 0.000000 
#    y 0.000000 1.573420 0.000000 
#    z 0.000000 0.000000 1.547070 
# 
# From -- ./inp_files/11724.got.cif
#   From: 2010.05.17/outbox.cif.g08.bks.cpg/sg72_6_cif.got.tgz:11724.got - 2010.06.03 17:03:01.
