data_PCOD9527568
_publ_section_title
;
Structure prediction by ZEFSAII (Michael W. Deem and Ramdas Pophale) SiO2 
 PCOD9527568
Probable space group: I B A M
;
_chemical_formula_sum "Si O2"
_cell_formula_units_Z 60
_cell_length_a 4.937773
_cell_length_b 19.238076
_cell_length_c 27.331248
_cell_angle_alpha 90.000000
_cell_angle_beta 90.000000
_cell_angle_gamma 90.000000
_cell_volume 2596.284135
_symmetry_space_group_name_H-M "I B A M"
_symmetry_group_IT_number 72
_symmetry_cell_setting 'orthorhombic'
loop_
_space_group_symop_operation_xyz
x,y,z
-x,-y,z
x,-y,1/2-z
-x,y,1/2-z
-x,-y,-z
x,y,-z
-x,y,1/2+z
x,-y,1/2+z
1/2+x,1/2+y,1/2+z
1/2-x,1/2-y,1/2+z
1/2+x,1/2-y,-z
1/2-x,1/2+y,-z
1/2-x,1/2-y,1/2-z
1/2+x,1/2+y,1/2-z
1/2-x,1/2+y,z
1/2+x,1/2-y,z
loop_
_atom_site_type_symbol
_atom_site_label
_atom_site_fract_x
_atom_site_fract_y
_atom_site_fract_z
Si Si1 0.853136 0.425242 0.391551
Si Si2 0.823243 0.792690 0.000000
Si Si3 0.202523 0.299065 0.607821
Si Si4 0.500000 0.500000 0.180523
Si Si5 0.500000 0.000000 0.750000
Si Si6 0.750709 0.948190 0.500000
O O1 0.049563 0.365587 0.371073
O O2 0.608190 0.438567 0.354275
O O3 0.751763 0.410814 0.447053
O O4 0.000000 0.500000 0.394019
O O5 0.729708 0.823413 0.050886
O O6 0.140151 0.777409 0.000000
O O7 0.996173 0.234345 0.616808
O O8 0.236522 0.525717 0.211732
O O9 0.500000 0.000000 0.500000
O O10 0.000000 0.000000 0.500000
#
# Coordination Sequence:
#
# PCOD9527568 Si02
#       6
#    16   8  16   8   4   8
#     4  11  23  39  63  94 133 170 211 256 308 370
#     4   8  15  32  48  69 108 167 219 248 271 330
#     4  10  22  35  54  82 122 169 214 251 295 354
#     4  11  22  41  66  94 124 151 206 261 330 374
#     4  10  24  42  64  96 120 150 200 274 326 380
#     4  10  21  34  53  90 132 171 204 247 305 362
#
# _framework density 23.109953000000001
#
# number of rings (size 3 to 8) (size 9 to 14) (size 15 to 20)
#    0.000    1.867    2.667    0.800    3.733    0.000 
#    0.000    5.333    0.000    0.000    0.000   18.667 
#    0.000    0.000    0.000    0.000    0.000    0.000 
#
# Total GULP energy -167006.495479 kJ/mol
# GULP energy per Si atom -5566.883183 kJ/mol
# Density = 2.305735 g / cm^3
# Si number density = 23.109953 Si / 1000 Ang^3
#
#
#
# Elastic Constant Matrix: (Units=GPa)
#
#
# Indices 1 2 3 4 5 6 
#
# 1 178.9810 34.3229 36.5797 0.0000 0.0000 0.0000
# 2 34.3229 84.1523 14.1339 0.0000 0.0000 0.0000
# 3 36.5797 14.1339 106.0057 0.0000 0.0000 0.0000
# 4 0.0000 0.0000 0.0000 -9.2340 0.0000 0.0000
# 5 0.0000 0.0000 0.0000 0.0000 34.8272 0.0000
# 6 0.0000 0.0000 0.0000 0.0000 0.0000 55.5873
#
#
#
# Elastic Compliance Matrix: (Units=1/GPa)
#
#
# Indices 1 2 3 4 5 6 
#
# 1 0.006418 -0.002297 -0.001908 0.000000 0.000000 0.000000
# 2 -0.002297 0.012978 -0.000938 0.000000 0.000000 0.000000
# 3 -0.001908 -0.000938 0.010217 0.000000 0.000000 0.000000
# 4 0.000000 0.000000 0.000000 -0.108295 0.000000 0.000000
# 5 0.000000 0.000000 0.000000 0.000000 0.028713 0.000000
# 6 0.000000 0.000000 0.000000 0.000000 0.000000 0.017990
#
#
# Mechanical properties :
#
#
# Convention : Reuss Voigt Hill
#
# Bulk Modulus (GPa) = 51.74318 59.91246 55.82782
# Shear Modulus (GPa) = -327.82462 35.17627 -146.32417
#
# Velocity S-wave (km/s) = -11.92318 3.90568 -7.96580
# Velocity P-wave (km/s) = 12.92714 6.80590 7.77145
#
# Compressibility (1/GPa) = 0.01932622
#
# Stress axis : x y z
#
# Youngs Moduli (GPa) = 155.81898 77.05591 97.87627
#
# Poissons Ratio (x) = 0.17700 0.18678
# Poissons Ratio (y) = 0.35792 0.09177
# Poissons Ratio (z) = 0.29735 0.07225
#
# Static dielectric constant tensor:
#      x y z
#    x 1.924210 0.000000 0.000000 
#    y 0.000000 1.920140 0.000000 
#    z 0.000000 0.000000 1.830450 
# 
# From -- ./inp_files/46486.got.cif
#   From: 2010.05.17/outbox.cif.g08.bks.cpg/sg72_24_cif.got.tgz:46486.got - 2010.06.03 17:03:01.
