data_PCOD9527510
_publ_section_title
;
Structure prediction by ZEFSAII (Michael W. Deem and Ramdas Pophale) SiO2 
 PCOD9527510
Probable space group: I B A M
;
_chemical_formula_sum "Si O2"
_cell_formula_units_Z 36
_cell_length_a 5.636314
_cell_length_b 13.173086
_cell_length_c 19.755039
_cell_angle_alpha 90.000000
_cell_angle_beta 90.000000
_cell_angle_gamma 90.000000
_cell_volume 1466.765203
_symmetry_space_group_name_H-M "I B A M"
_symmetry_group_IT_number 72
_symmetry_cell_setting 'orthorhombic'
loop_
_space_group_symop_operation_xyz
x,y,z
-x,-y,z
x,-y,1/2-z
-x,y,1/2-z
-x,-y,-z
x,y,-z
-x,y,1/2+z
x,-y,1/2+z
1/2+x,1/2+y,1/2+z
1/2-x,1/2-y,1/2+z
1/2+x,1/2-y,-z
1/2-x,1/2+y,-z
1/2-x,1/2-y,1/2-z
1/2+x,1/2+y,1/2-z
1/2-x,1/2+y,z
1/2+x,1/2-y,z
loop_
_atom_site_type_symbol
_atom_site_label
_atom_site_fract_x
_atom_site_fract_y
_atom_site_fract_z
Si Si1 0.145091 0.152100 0.421683
Si Si2 0.000000 0.500000 0.750000
Si Si3 0.647576 0.876625 0.128076
O O1 0.162433 0.183749 0.500000
O O2 0.388869 0.095901 0.403012
O O3 0.139920 0.253654 0.375808
O O4 0.891395 0.099746 0.410727
O O5 0.152343 0.426749 0.701731
#
# Coordination Sequence:
#
# PCOD9527510 Si02
#       3
#    16   4  16
#     4  10  20  42  68  91 110 155 212 253 294 341
#     4  12  28  42  54  94 132 164 196 228 316 366
#     4  10  22  38  63  88 125 158 195 250 291 362
#
# _framework density 24.543806
#
# number of rings (size 3 to 8) (size 9 to 14) (size 15 to 20)
#    0.000    1.778    0.000    6.667    0.000   12.444 
#    0.000   12.222    0.000    0.000    0.000    0.000 
#    0.000    0.000    0.000    0.000    0.000    0.000 
#
# Total GULP energy -100526.286552 kJ/mol
# GULP energy per Si atom -5584.793697 kJ/mol
# Density = 2.448794 g / cm^3
# Si number density = 24.543806 Si / 1000 Ang^3
#
#
#
# Elastic Constant Matrix: (Units=GPa)
#
#
# Indices 1 2 3 4 5 6 
#
# 1 270.9604 56.9432 36.8673 0.0000 0.0000 0.0000
# 2 56.9432 108.0263 60.5811 0.0000 0.0000 0.0000
# 3 36.8673 60.5811 141.6540 0.0000 0.0000 0.0000
# 4 0.0000 0.0000 0.0000 888.8764 0.0000 0.0000
# 5 0.0000 0.0000 0.0000 0.0000 138.2800 0.0000
# 6 0.0000 0.0000 0.0000 0.0000 0.0000 43.2352
#
#
#
# Elastic Compliance Matrix: (Units=1/GPa)
#
#
# Indices 1 2 3 4 5 6 
#
# 1 0.004154 -0.002083 -0.000190 0.000000 0.000000 0.000000
# 2 -0.002083 0.013222 -0.005113 0.000000 0.000000 0.000000
# 3 -0.000190 -0.005113 0.009295 0.000000 0.000000 0.000000
# 4 0.000000 0.000000 0.000000 0.001125 0.000000 0.000000
# 5 0.000000 0.000000 0.000000 0.000000 0.007232 0.000000
# 6 0.000000 0.000000 0.000000 0.000000 0.000000 0.023129
#
#
# Mechanical properties :
#
#
# Convention : Reuss Voigt Hill
#
# Bulk Modulus (GPa) = 84.03393 92.15821 88.09607
# Shear Modulus (GPa) = 65.02246 238.49493 151.75869
#
# Velocity S-wave (km/s) = 5.15266 9.86824 7.87185
# Velocity P-wave (km/s) = 8.34941 12.94113 10.89003
#
# Compressibility (1/GPa) = 0.01189995
#
# Stress axis : x y z
#
# Youngs Moduli (GPa) = 240.71821 75.63057 107.57913
#
# Poissons Ratio (x) = 0.15754 0.02048
# Poissons Ratio (y) = 0.50143 0.55001
# Poissons Ratio (z) = 0.04582 0.38667
#
# Static dielectric constant tensor:
#      x y z
#    x 1.987750 0.000000 0.000000 
#    y 0.000000 2.072690 0.000000 
#    z 0.000000 0.000000 1.869110 
# 
# From -- ./inp_files/26685.got.cif
#   From: 2010.05.17/outbox.cif.g08.bks.cpg/sg72_14_cif.got.tgz:26685.got - 2010.06.03 17:03:01.
