data_PCOD9527233
_publ_section_title
;
Structure prediction by ZEFSAII (Michael W. Deem and Ramdas Pophale) SiO2 
 PCOD9527233
Probable space group: I B A M
;
_chemical_formula_sum "Si O2"
_cell_formula_units_Z 88
_cell_length_a 12.649225
_cell_length_b 15.244194
_cell_length_c 19.214868
_cell_angle_alpha 90.000000
_cell_angle_beta 90.000000
_cell_angle_gamma 90.000000
_cell_volume 3705.149961
_symmetry_space_group_name_H-M "I B A M"
_symmetry_group_IT_number 72
_symmetry_cell_setting 'orthorhombic'
loop_
_space_group_symop_operation_xyz
x,y,z
-x,-y,z
x,-y,1/2-z
-x,y,1/2-z
-x,-y,-z
x,y,-z
-x,y,1/2+z
x,-y,1/2+z
1/2+x,1/2+y,1/2+z
1/2-x,1/2-y,1/2+z
1/2+x,1/2-y,-z
1/2-x,1/2+y,-z
1/2-x,1/2-y,1/2-z
1/2+x,1/2+y,1/2-z
1/2-x,1/2+y,z
1/2+x,1/2-y,z
loop_
_atom_site_type_symbol
_atom_site_label
_atom_site_fract_x
_atom_site_fract_y
_atom_site_fract_z
Si Si1 0.046201 0.593821 0.633384
Si Si2 0.887214 0.252718 0.000000
Si Si3 0.877577 0.315005 0.500000
Si Si4 0.320280 0.394322 0.347258
Si Si5 0.500000 0.352873 0.750000
Si Si6 0.638040 0.239089 0.651088
Si Si7 0.830959 0.500000 0.250000
Si Si8 0.721929 0.628868 0.500000
O O1 0.120042 0.629853 0.571369
O O2 0.102686 0.572726 0.707233
O O3 0.000000 0.500000 0.611455
O O4 0.949524 0.661255 0.644201
O O5 0.864492 0.212894 0.923805
O O6 0.013487 0.261290 0.000000
O O7 0.848444 0.356974 0.000000
O O8 0.796219 0.234949 0.500000
O O9 0.433745 0.398604 0.311075
O O10 0.254606 0.302133 0.339614
O O11 0.243659 0.460295 0.308433
O O12 0.321661 0.410078 0.429590
O O13 0.592317 0.298232 0.711873
#
# Coordination Sequence:
#
# PCOD9527233 Si02
#       8
#    16   8   8  16   8  16   8   8
#     4  11  21  37  61  94 134 166 209 269 331 398
#     4   8  18  33  56  84 119 156 199 255 312 372
#     4  10  21  37  61  93 127 170 222 265 323 384
#     4  11  24  41  65  90 128 167 212 263 319 390
#     4  12  24  37  61  90 126 166 216 274 320 376
#     4  10  20  37  61  91 123 164 212 264 330 377
#     4  12  25  39  62  96 134 173 212 259 338 392
#     4  10  22  44  63  91 123 166 213 263 316 380
#
# _framework density 23.750724999999999
#
# number of rings (size 3 to 8) (size 9 to 14) (size 15 to 20)
#    0.000    1.455    1.818    4.364    0.000    4.000 
#    0.000    0.000    0.000    3.273    0.000    0.000 
#    0.000    0.000    0.000    0.000    0.000    0.000 
#
# Total GULP energy -245724.825907 kJ/mol
# GULP energy per Si atom -5584.655134 kJ/mol
# Density = 2.369667 g / cm^3
# Si number density = 23.750725 Si / 1000 Ang^3
#
#
#
# Elastic Constant Matrix: (Units=GPa)
#
#
# Indices 1 2 3 4 5 6 
#
# 1 68.4264 -4.1507 51.3158 0.0000 0.0000 0.0000
# 2 -4.1507 28.8646 29.8414 0.0000 0.0000 0.0000
# 3 51.3158 29.8414 218.1129 0.0000 0.0000 0.0000
# 4 0.0000 0.0000 0.0000 23.6379 0.0000 0.0000
# 5 0.0000 0.0000 0.0000 0.0000 34.8984 0.0000
# 6 0.0000 0.0000 0.0000 0.0000 0.0000 22.7679
#
#
#
# Elastic Compliance Matrix: (Units=1/GPa)
#
#
# Indices 1 2 3 4 5 6 
#
# 1 0.019487 0.008784 -0.005787 0.000000 0.000000 0.000000
# 2 0.008784 0.044312 -0.008129 0.000000 0.000000 0.000000
# 3 -0.005787 -0.008129 0.007058 0.000000 0.000000 0.000000
# 4 0.000000 0.000000 0.000000 0.042305 0.000000 0.000000
# 5 0.000000 0.000000 0.000000 0.000000 0.028655 0.000000
# 6 0.000000 0.000000 0.000000 0.000000 0.000000 0.043922
#
#
# Mechanical properties :
#
#
# Convention : Reuss Voigt Hill
#
# Bulk Modulus (GPa) = 16.50320 52.15746 34.33033
# Shear Modulus (GPa) = 23.12682 32.15399 27.64040
#
# Velocity S-wave (km/s) = 3.12385 3.68341 3.41511
# Velocity P-wave (km/s) = 4.46932 6.33230 5.48055
#
# Compressibility (1/GPa) = 0.06059432
#
# Stress axis : x y z
#
# Youngs Moduli (GPa) = 51.31721 22.56720 141.67486
#
# Poissons Ratio (x) = -0.19824 0.81980
# Poissons Ratio (y) = -0.45079 1.15173
# Poissons Ratio (z) = 0.29695 0.18346
#
# Static dielectric constant tensor:
#      x y z
#    x 1.997440 0.000000 0.000000 
#    y 0.000000 1.973710 0.000000 
#    z 0.000000 0.000000 1.947980 
# 
# From -- ./inp_files/30596.got.cif
#   From: 2010.05.17/outbox.cif.g08.bks.cpg/sg72_16_cif.got.tgz:30596.got - 2010.06.03 17:03:01.
