data_PCOD9527254
_publ_section_title
;
Structure prediction by ZEFSAII (Michael W. Deem and Ramdas Pophale) SiO2 
 PCOD9527254
Probable space group: I B A M
;
_chemical_formula_sum "Si O2"
_cell_formula_units_Z 32
_cell_length_a 7.897900
_cell_length_b 13.180435
_cell_length_c 13.423796
_cell_angle_alpha 90.000000
_cell_angle_beta 90.000000
_cell_angle_gamma 90.000000
_cell_volume 1397.387062
_symmetry_space_group_name_H-M "I B A M"
_symmetry_group_IT_number 72
_symmetry_cell_setting 'orthorhombic'
loop_
_space_group_symop_operation_xyz
x,y,z
-x,-y,z
x,-y,1/2-z
-x,y,1/2-z
-x,-y,-z
x,y,-z
-x,y,1/2+z
x,-y,1/2+z
1/2+x,1/2+y,1/2+z
1/2-x,1/2-y,1/2+z
1/2+x,1/2-y,-z
1/2-x,1/2+y,-z
1/2-x,1/2-y,1/2-z
1/2+x,1/2+y,1/2-z
1/2-x,1/2+y,z
1/2+x,1/2-y,z
loop_
_atom_site_type_symbol
_atom_site_label
_atom_site_fract_x
_atom_site_fract_y
_atom_site_fract_z
Si Si1 0.947196 0.284251 0.382051
Si Si2 0.270254 0.383211 0.276133
O O1 0.944076 0.283220 0.500000
O O2 0.782942 0.333947 0.329736
O O3 0.921123 0.170518 0.337686
O O4 0.103491 0.352992 0.342837
O O5 0.291777 0.500000 0.250000
#
# Coordination Sequence:
#
# PCOD9527254 Si02
#       2
#    16  16
#     4  10  20  37  62  91 124 165 213 260 312 379
#     4  10  22  39  60  91 128 166 209 262 318 376
#
# _framework density 22.899882000000002
#
# number of rings (size 3 to 8) (size 9 to 14) (size 15 to 20)
#    0.000    2.000    0.000    4.500    0.000    6.000 
#    0.000   22.500    0.000   30.000    0.000    0.000 
#    0.000    0.000    0.000    0.000    0.000    0.000 
#
# Total GULP energy -89170.833143 kJ/mol
# GULP energy per Si atom -5573.177071 kJ/mol
# Density = 2.284776 g / cm^3
# Si number density = 22.899882 Si / 1000 Ang^3
#
#
#
# Elastic Constant Matrix: (Units=GPa)
#
#
# Indices 1 2 3 4 5 6 
#
# 1 155.0730 28.7996 57.8757 0.0000 0.0000 0.0000
# 2 28.7996 199.3742 86.8525 0.0000 0.0000 0.0000
# 3 57.8757 86.8525 261.2835 0.0000 0.0000 0.0000
# 4 0.0000 0.0000 0.0000 2.3182 0.0000 0.0000
# 5 0.0000 0.0000 0.0000 0.0000 9.7286 0.0000
# 6 0.0000 0.0000 0.0000 0.0000 0.0000 51.9057
#
#
#
# Elastic Compliance Matrix: (Units=1/GPa)
#
#
# Indices 1 2 3 4 5 6 
#
# 1 0.007056 -0.000396 -0.001431 0.000000 0.000000 0.000000
# 2 -0.000396 0.005887 -0.001869 0.000000 0.000000 0.000000
# 3 -0.001431 -0.001869 0.004766 0.000000 0.000000 0.000000
# 4 0.000000 0.000000 0.000000 0.431372 0.000000 0.000000
# 5 0.000000 0.000000 0.000000 0.000000 0.102790 0.000000
# 6 0.000000 0.000000 0.000000 0.000000 0.000000 0.019266
#
#
# Mechanical properties :
#
#
# Convention : Reuss Voigt Hill
#
# Bulk Modulus (GPa) = 96.93436 106.97625 101.95531
# Shear Modulus (GPa) = 8.59153 42.27069 25.43111
#
# Velocity S-wave (km/s) = 1.93905 4.30104 3.33608
# Velocity P-wave (km/s) = 6.88729 8.45467 7.71091
#
# Compressibility (1/GPa) = 0.01031626
#
# Stress axis : x y z
#
# Youngs Moduli (GPa) = 141.71703 169.86115 209.83257
#
# Poissons Ratio (x) = 0.06721 0.30037
# Poissons Ratio (y) = 0.05608 0.39224
# Poissons Ratio (z) = 0.20287 0.31752
#
# Static dielectric constant tensor:
#      x y z
#    x 2.085890 0.000000 0.000000 
#    y 0.000000 1.962560 0.000000 
#    z 0.000000 0.000000 1.801880 
# 
# From -- ./inp_files/9890.got.cif
#   From: 2010.05.17/outbox.cif.g08.bks.cpg/sg72_5_cif.got.tgz:9890.got - 2010.06.03 17:03:01.
