data_PCOD9527440
_publ_section_title
;
Structure prediction by ZEFSAII (Michael W. Deem and Ramdas Pophale) SiO2 
 PCOD9527440
Probable space group: I B A M
;
_chemical_formula_sum "Si O2"
_cell_formula_units_Z 68
_cell_length_a 5.271784
_cell_length_b 28.211312
_cell_length_c 20.727510
_cell_angle_alpha 90.000000
_cell_angle_beta 90.000000
_cell_angle_gamma 90.000000
_cell_volume 3082.677020
_symmetry_space_group_name_H-M "I B A M"
_symmetry_group_IT_number 72
_symmetry_cell_setting 'orthorhombic'
loop_
_space_group_symop_operation_xyz
x,y,z
-x,-y,z
x,-y,1/2-z
-x,y,1/2-z
-x,-y,-z
x,y,-z
-x,y,1/2+z
x,-y,1/2+z
1/2+x,1/2+y,1/2+z
1/2-x,1/2-y,1/2+z
1/2+x,1/2-y,-z
1/2-x,1/2+y,-z
1/2-x,1/2-y,1/2-z
1/2+x,1/2+y,1/2-z
1/2-x,1/2+y,z
1/2+x,1/2-y,z
loop_
_atom_site_type_symbol
_atom_site_label
_atom_site_fract_x
_atom_site_fract_y
_atom_site_fract_z
Si Si1 0.742055 0.378093 0.500000
Si Si2 0.753241 0.126721 0.859486
Si Si3 0.243911 0.442750 0.500000
Si Si4 0.000000 0.500000 0.750000
Si Si5 0.251812 0.062330 0.142856
Si Si6 0.758956 0.770894 0.321966
O O1 0.728142 0.352271 0.432151
O O2 0.503251 0.413403 0.500000
O O3 0.998530 0.409013 0.500000
O O4 0.485379 0.099802 0.855543
O O5 0.769110 0.172634 0.815509
O O6 0.985315 0.090029 0.850304
O O7 0.241773 0.464496 0.572520
O O8 0.182922 0.470994 0.702317
O O9 0.750000 0.750000 0.250000
O O10 0.504254 0.751908 0.354541
#
# Coordination Sequence:
#
# PCOD9527440 Si02
#       6
#     8  16   8   4  16  16
#     4   8  16  32  60  84 104 141 206 239 276 346
#     4  10  20  40  61  82 113 159 192 239 296 346
#     4   8  16  37  60  83 106 153 194 237 286 349
#     4  12  28  40  56  98 124 148 192 246 288 348
#     4  10  23  39  62  85 119 153 197 240 294 349
#     4  10  21  35  54  82 113 146 194 234 275 344
#
# _framework density 22.058747
#
# number of rings (size 3 to 8) (size 9 to 14) (size 15 to 20)
#    0.000    2.353    0.000    1.412    0.000    8.941 
#    0.000    1.176    0.000    8.471    0.000    0.000 
#    0.000    0.000    0.000    0.000    0.000    0.000 
#
# Total GULP energy -189659.473934 kJ/mol
# GULP energy per Si atom -5578.219822 kJ/mol
# Density = 2.200854 g / cm^3
# Si number density = 22.058747 Si / 1000 Ang^3
#
#
#
# Elastic Constant Matrix: (Units=GPa)
#
#
# Indices 1 2 3 4 5 6 
#
# 1 161.0084 13.5891 -12.1926 0.0000 0.0000 0.0000
# 2 13.5891 65.4043 49.9738 0.0000 0.0000 0.0000
# 3 -12.1926 49.9738 135.4948 0.0000 0.0000 0.0000
# 4 0.0000 0.0000 0.0000 -407.5321 0.0000 0.0000
# 5 0.0000 0.0000 0.0000 0.0000 8.0502 0.0000
# 6 0.0000 0.0000 0.0000 0.0000 0.0000 26.6116
#
#
#
# Elastic Compliance Matrix: (Units=1/GPa)
#
#
# Indices 1 2 3 4 5 6 
#
# 1 0.006538 -0.002517 0.001517 0.000000 0.000000 0.000000
# 2 -0.002517 0.022258 -0.008436 0.000000 0.000000 0.000000
# 3 0.001517 -0.008436 0.010628 0.000000 0.000000 0.000000
# 4 0.000000 0.000000 0.000000 -0.002454 0.000000 0.000000
# 5 0.000000 0.000000 0.000000 0.000000 0.124220 0.000000
# 6 0.000000 0.000000 0.000000 0.000000 0.000000 0.037578
#
#
# Mechanical properties :
#
#
# Convention : Reuss Voigt Hill
#
# Bulk Modulus (GPa) = 48.65792 51.62757 50.14275
# Shear Modulus (GPa) = 22.27247 -53.87158 -15.79956
#
# Velocity S-wave (km/s) = 3.18101 -4.94721 -2.67919
# Velocity P-wave (km/s) = 5.96640 3.02949 3.63457
#
# Compressibility (1/GPa) = 0.02055164
#
# Stress axis : x y z
#
# Youngs Moduli (GPa) = 152.94750 44.92717 94.08904
#
# Poissons Ratio (x) = 0.11310 -0.14272
# Poissons Ratio (y) = 0.38503 0.79373
# Poissons Ratio (z) = -0.23200 0.37900
#
# Static dielectric constant tensor:
#      x y z
#    x 1.746980 0.000000 0.000000 
#    y 0.000000 1.784420 0.000000 
#    z 0.000000 0.000000 1.874190 
# 
# From -- ./inp_files/34865.got.cif
#   From: 2010.05.17/outbox.cif.g08.bks.cpg/sg72_18_cif.got.tgz:34865.got - 2010.06.03 17:03:01.
