data_PCOD9527989
_publ_section_title
;
Structure prediction by ZEFSAII (Michael W. Deem and Ramdas Pophale) SiO2 
 PCOD9527989
Probable space group: I B A M
;
_chemical_formula_sum "Si O2"
_cell_formula_units_Z 64
_cell_length_a 10.790714
_cell_length_b 8.663130
_cell_length_c 34.588518
_cell_angle_alpha 90.000000
_cell_angle_beta 90.000000
_cell_angle_gamma 90.000000
_cell_volume 3233.381640
_symmetry_space_group_name_H-M "I B A M"
_symmetry_group_IT_number 72
_symmetry_cell_setting 'orthorhombic'
loop_
_space_group_symop_operation_xyz
x,y,z
-x,-y,z
x,-y,1/2-z
-x,y,1/2-z
-x,-y,-z
x,y,-z
-x,y,1/2+z
x,-y,1/2+z
1/2+x,1/2+y,1/2+z
1/2-x,1/2-y,1/2+z
1/2+x,1/2-y,-z
1/2-x,1/2+y,-z
1/2-x,1/2-y,1/2-z
1/2+x,1/2+y,1/2-z
1/2-x,1/2+y,z
1/2+x,1/2-y,z
loop_
_atom_site_type_symbol
_atom_site_label
_atom_site_fract_x
_atom_site_fract_y
_atom_site_fract_z
Si Si1 0.372232 0.090403 0.326569
Si Si2 0.370448 0.417319 0.546288
Si Si3 0.866382 0.416219 0.416580
Si Si4 0.316150 0.626351 0.221576
O O1 0.337624 0.111587 0.371307
O O2 0.388545 0.257618 0.306507
O O3 0.500000 0.000000 0.324591
O O4 0.275480 0.978747 0.304456
O O5 0.500000 0.500000 0.557241
O O6 0.358419 0.426195 0.500000
O O7 0.248442 0.490966 0.565390
O O8 0.377679 0.242750 0.560570
O O9 0.000000 0.500000 0.419061
O O10 0.374828 0.500000 0.250000
O O11 0.250000 0.750000 0.250000
#
# Coordination Sequence:
#
# PCOD9527989 Si02
#       4
#    16  16  16  16
#     4  10  21  39  60  85 119 156 198 249 301 359
#     4  11  24  41  63  92 125 162 206 256 310 368
#     4  11  23  40  64  91 124 166 208 254 309 368
#     4   9  19  36  58  85 115 149 193 242 295 357
#
# _framework density 19.793517999999999
#
# number of rings (size 3 to 8) (size 9 to 14) (size 15 to 20)
#    0.000    1.750    0.000    3.750    0.000   10.500 
#    0.000    8.750    0.000    0.000    0.000    0.000 
#    0.000    0.000    0.000    0.000    0.000    0.000 
#
# Total GULP energy -178586.789517 kJ/mol
# GULP energy per Si atom -5580.837172 kJ/mol
# Density = 1.974847 g / cm^3
# Si number density = 19.793518 Si / 1000 Ang^3
#
#
#
# Elastic Constant Matrix: (Units=GPa)
#
#
# Indices 1 2 3 4 5 6 
#
# 1 94.1833 36.6406 57.3994 0.0000 0.0000 0.0000
# 2 36.6406 127.8500 41.6997 0.0000 0.0000 0.0000
# 3 57.3994 41.6997 107.4020 0.0000 0.0000 0.0000
# 4 0.0000 0.0000 0.0000 44.0715 0.0000 0.0000
# 5 0.0000 0.0000 0.0000 0.0000 93.6753 0.0000
# 6 0.0000 0.0000 0.0000 0.0000 0.0000 29.7628
#
#
#
# Elastic Compliance Matrix: (Units=1/GPa)
#
#
# Indices 1 2 3 4 5 6 
#
# 1 0.016218 -0.002085 -0.007858 0.000000 0.000000 0.000000
# 2 -0.002085 0.009224 -0.002467 0.000000 0.000000 0.000000
# 3 -0.007858 -0.002467 0.014468 0.000000 0.000000 0.000000
# 4 0.000000 0.000000 0.000000 0.022690 0.000000 0.000000
# 5 0.000000 0.000000 0.000000 0.000000 0.010675 0.000000
# 6 0.000000 0.000000 0.000000 0.000000 0.000000 0.033599
#
#
# Mechanical properties :
#
#
# Convention : Reuss Voigt Hill
#
# Bulk Modulus (GPa) = 66.26817 66.76830 66.51823
# Shear Modulus (GPa) = 36.57019 46.41495 41.49257
#
# Velocity S-wave (km/s) = 4.30302 4.84773 4.58347
# Velocity P-wave (km/s) = 7.63154 8.07091 7.85430
#
# Compressibility (1/GPa) = 0.01509020
#
# Stress axis : x y z
#
# Youngs Moduli (GPa) = 61.66162 108.41505 69.11756
#
# Poissons Ratio (x) = 0.22603 0.54311
# Poissons Ratio (y) = 0.12856 0.17051
# Poissons Ratio (z) = 0.48452 0.26746
#
# Static dielectric constant tensor:
#      x y z
#    x 1.734450 0.000000 0.000000 
#    y 0.000000 1.713830 0.000000 
#    z 0.000000 0.000000 1.701830 
# 
# From -- ./inp_files/50572.got.cif
#   From: 2010.05.17/outbox.cif.g08.bks.cpg/sg72_26_cif.got.tgz:50572.got - 2010.06.03 17:03:01.
