data_PCOD9527545
_publ_section_title
;
Structure prediction by ZEFSAII (Michael W. Deem and Ramdas Pophale) SiO2 
 PCOD9527545
Probable space group: I B A M
;
_chemical_formula_sum "Si O2"
_cell_formula_units_Z 112
_cell_length_a 28.184846
_cell_length_b 14.787805
_cell_length_c 15.181068
_cell_angle_alpha 90.000000
_cell_angle_beta 90.000000
_cell_angle_gamma 90.000000
_cell_volume 6327.347794
_symmetry_space_group_name_H-M "I B A M"
_symmetry_group_IT_number 72
_symmetry_cell_setting 'orthorhombic'
loop_
_space_group_symop_operation_xyz
x,y,z
-x,-y,z
x,-y,1/2-z
-x,y,1/2-z
-x,-y,-z
x,y,-z
-x,y,1/2+z
x,-y,1/2+z
1/2+x,1/2+y,1/2+z
1/2-x,1/2-y,1/2+z
1/2+x,1/2-y,-z
1/2-x,1/2+y,-z
1/2-x,1/2-y,1/2-z
1/2+x,1/2+y,1/2-z
1/2-x,1/2+y,z
1/2+x,1/2-y,z
loop_
_atom_site_type_symbol
_atom_site_label
_atom_site_fract_x
_atom_site_fract_y
_atom_site_fract_z
Si Si1 0.878094 0.308861 0.894924
Si Si2 0.871970 0.654396 0.898913
Si Si3 0.319550 0.019038 0.145265
Si Si4 0.713524 0.461091 0.898583
Si Si5 0.224379 0.245103 0.156343
Si Si6 0.443684 0.108998 0.750371
Si Si7 0.684323 0.351585 0.397744
O O1 0.836343 0.380535 0.875529
O O2 0.921277 0.346177 0.837461
O O3 0.856619 0.213807 0.861988
O O4 0.887094 0.306272 0.000000
O O5 0.855669 0.550070 0.898439
O O6 0.825898 0.705311 0.858379
O O7 0.916557 0.654401 0.832669
O O8 0.880576 0.683778 0.000000
O O9 0.267864 0.006376 0.106237
O O10 0.318189 0.000000 0.250000
O O11 0.714308 0.360687 0.859931
O O12 0.687309 0.548112 0.856953
O O13 0.698802 0.450293 0.000000
O O14 0.250000 0.250000 0.250000
O O15 0.265352 0.297705 0.101875
O O16 0.500000 0.121157 0.750000
O O17 0.434182 0.000000 0.750000
O O18 0.672679 0.365240 0.500000
#
# Coordination Sequence:
#
# PCOD9527545 Si02
#       7
#    16  16  16  16  16  16  16
#     4  11  20  36  58  81 111 154 195 230 286 354
#     4  12  22  36  56  82 112 154 198 235 285 348
#     4  12  20  32  51  79 118 153 193 230 277 330
#     4  11  22  35  50  77 117 158 193 231 269 321
#     4  12  23  34  53  79 117 157 197 236 277 329
#     4  11  24  41  58  82 112 141 185 244 303 362
#     4  10  21  33  51  79 110 148 191 224 266 332
#
# _framework density 17.700939000000002
#
# number of rings (size 3 to 8) (size 9 to 14) (size 15 to 20)
#    0.000    0.714    5.714    4.286    0.000    0.571 
#    0.000    1.429    0.000    0.000    0.000    2.000 
#    0.000    4.571    0.000    0.000    0.000    0.000 
#
# Total GULP energy -312358.094122 kJ/mol
# GULP energy per Si atom -5577.823109 kJ/mol
# Density = 1.766065 g / cm^3
# Si number density = 17.700939 Si / 1000 Ang^3
#
#
#
# Elastic Constant Matrix: (Units=GPa)
#
#
# Indices 1 2 3 4 5 6 
#
# 1 98.9381 41.1489 41.7343 0.0000 0.0000 0.0000
# 2 41.1489 138.3749 39.0972 0.0000 0.0000 0.0000
# 3 41.7343 39.0972 110.3376 0.0000 0.0000 0.0000
# 4 0.0000 0.0000 0.0000 20.9125 0.0000 0.0000
# 5 0.0000 0.0000 0.0000 0.0000 9.3409 0.0000
# 6 0.0000 0.0000 0.0000 0.0000 0.0000 24.8813
#
#
#
# Elastic Compliance Matrix: (Units=1/GPa)
#
#
# Indices 1 2 3 4 5 6 
#
# 1 0.012891 -0.002729 -0.003909 0.000000 0.000000 0.000000
# 2 -0.002729 0.008608 -0.002018 0.000000 0.000000 0.000000
# 3 -0.003909 -0.002018 0.011257 0.000000 0.000000 0.000000
# 4 0.000000 0.000000 0.000000 0.047818 0.000000 0.000000
# 5 0.000000 0.000000 0.000000 0.000000 0.107056 0.000000
# 6 0.000000 0.000000 0.000000 0.000000 0.000000 0.040191
#
#
# Mechanical properties :
#
#
# Convention : Reuss Voigt Hill
#
# Bulk Modulus (GPa) = 64.74923 65.73458 65.24191
# Shear Modulus (GPa) = 19.97747 26.07161 23.02454
#
# Velocity S-wave (km/s) = 3.36312 3.84199 3.61051
# Velocity P-wave (km/s) = 7.19304 7.54308 7.37014
#
# Compressibility (1/GPa) = 0.01544420
#
# Stress axis : x y z
#
# Youngs Moduli (GPa) = 77.57193 116.16443 88.83563
#
# Poissons Ratio (x) = 0.31702 0.34726
# Poissons Ratio (y) = 0.21170 0.17928
# Poissons Ratio (z) = 0.30323 0.23443
#
# Static dielectric constant tensor:
#      x y z
#    x 1.592350 0.000000 0.000000 
#    y 0.000000 1.661760 0.000000 
#    z 0.000000 0.000000 1.684510 
# 
# From -- ./inp_files/25931.got.cif
#   From: 2010.05.17/outbox.cif.g08.bks.cpg/sg72_13_cif.got.tgz:25931.got - 2010.06.03 17:03:01.
