data_PCOD9527674
_publ_section_title
;
Structure prediction by ZEFSAII (Michael W. Deem and Ramdas Pophale) SiO2 
 PCOD9527674
Probable space group: I B A M
;
_chemical_formula_sum "Si O2"
_cell_formula_units_Z 64
_cell_length_a 19.523883
_cell_length_b 7.165336
_cell_length_c 19.691458
_cell_angle_alpha 90.000000
_cell_angle_beta 90.000000
_cell_angle_gamma 90.000000
_cell_volume 2754.740095
_symmetry_space_group_name_H-M "I B A M"
_symmetry_group_IT_number 72
_symmetry_cell_setting 'orthorhombic'
loop_
_space_group_symop_operation_xyz
x,y,z
-x,-y,z
x,-y,1/2-z
-x,y,1/2-z
-x,-y,-z
x,y,-z
-x,y,1/2+z
x,-y,1/2+z
1/2+x,1/2+y,1/2+z
1/2-x,1/2-y,1/2+z
1/2+x,1/2-y,-z
1/2-x,1/2+y,-z
1/2-x,1/2-y,1/2-z
1/2+x,1/2+y,1/2-z
1/2-x,1/2+y,z
1/2+x,1/2-y,z
loop_
_atom_site_type_symbol
_atom_site_label
_atom_site_fract_x
_atom_site_fract_y
_atom_site_fract_z
Si Si1 0.972854 0.787861 0.821231
Si Si2 0.810084 0.379669 0.817846
Si Si3 0.086090 0.700915 0.921887
Si Si4 0.838849 0.979376 0.850439
O O1 0.012422 0.707559 0.885867
O O2 0.000000 0.704201 0.750000
O O3 0.892842 0.823706 0.828658
O O4 0.000000 0.000000 0.819154
O O5 0.812480 0.500000 0.750000
O O6 0.867313 0.428283 0.873656
O O7 0.826354 0.161405 0.802073
O O8 0.736473 0.393092 0.854691
O O9 0.124614 0.904276 0.912061
O O10 0.083614 0.650677 0.000000
#
# Coordination Sequence:
#
# PCOD9527674 Si02
#       4
#    16  16  16  16
#     4   9  18  34  60  91 116 154 215 261 298 369
#     4  10  21  36  57  93 122 168 210 261 314 373
#     4   9  21  38  61  93 125 163 208 262 319 382
#     4   9  21  34  62  87 124 161 214 260 312 367
#
# _framework density 23.232683000000002
#
# number of rings (size 3 to 8) (size 9 to 14) (size 15 to 20)
#    1.500    1.250    0.000    0.750    7.000    5.500 
#    0.000    0.000    0.000   10.500    0.000    7.000 
#    0.000    0.000    0.000    0.000    0.000    0.000 
#
# Total GULP energy -178399.179510 kJ/mol
# GULP energy per Si atom -5574.974360 kJ/mol
# Density = 2.317980 g / cm^3
# Si number density = 23.232683 Si / 1000 Ang^3
#
#
#
# Elastic Constant Matrix: (Units=GPa)
#
#
# Indices 1 2 3 4 5 6 
#
# 1 145.7641 53.3993 43.6941 0.0000 0.0000 0.0000
# 2 53.3993 103.1928 38.8747 0.0000 0.0000 0.0000
# 3 43.6941 38.8747 135.6700 0.0000 0.0000 0.0000
# 4 0.0000 0.0000 0.0000 15.2063 0.0000 0.0000
# 5 0.0000 0.0000 0.0000 0.0000 16.7141 0.0000
# 6 0.0000 0.0000 0.0000 0.0000 0.0000 23.8471
#
#
#
# Elastic Compliance Matrix: (Units=1/GPa)
#
#
# Indices 1 2 3 4 5 6 
#
# 1 0.008808 -0.003911 -0.001716 0.000000 0.000000 0.000000
# 2 -0.003911 0.012600 -0.002351 0.000000 0.000000 0.000000
# 3 -0.001716 -0.002351 0.008597 0.000000 0.000000 0.000000
# 4 0.000000 0.000000 0.000000 0.065762 0.000000 0.000000
# 5 0.000000 0.000000 0.000000 0.000000 0.059830 0.000000
# 6 0.000000 0.000000 0.000000 0.000000 0.000000 0.041934
#
#
# Mechanical properties :
#
#
# Convention : Reuss Voigt Hill
#
# Bulk Modulus (GPa) = 71.17955 72.95145 72.06550
# Shear Modulus (GPa) = 22.91798 27.73076 25.32437
#
# Velocity S-wave (km/s) = 3.14419 3.45861 3.30515
# Velocity P-wave (km/s) = 6.62461 6.88606 6.75660
#
# Compressibility (1/GPa) = 0.01404898
#
# Stress axis : x y z
#
# Youngs Moduli (GPa) = 113.53826 79.36416 116.31936
#
# Poissons Ratio (x) = 0.31042 0.19959
# Poissons Ratio (y) = 0.44408 0.27344
# Poissons Ratio (z) = 0.19482 0.18657
#
# Static dielectric constant tensor:
#      x y z
#    x 1.948360 0.000000 0.000000 
#    y 0.000000 1.981170 0.000000 
#    z 0.000000 0.000000 1.856050 
# 
# From -- ./inp_files/32208.got.cif
#   From: 2010.05.17/outbox.cif.g08.bks.cpg/sg72_17_cif.got.tgz:32208.got - 2010.06.03 17:03:01.
