data_PCOD9527125
_publ_section_title
;
Structure prediction by ZEFSAII (Michael W. Deem and Ramdas Pophale) SiO2 
 PCOD9527125
Probable space group: I B A M
;
_chemical_formula_sum "Si O2"
_cell_formula_units_Z 48
_cell_length_a 9.734601
_cell_length_b 23.507645
_cell_length_c 9.244141
_cell_angle_alpha 90.000000
_cell_angle_beta 90.000000
_cell_angle_gamma 90.000000
_cell_volume 2115.406528
_symmetry_space_group_name_H-M "I B A M"
_symmetry_group_IT_number 72
_symmetry_cell_setting 'orthorhombic'
loop_
_space_group_symop_operation_xyz
x,y,z
-x,-y,z
x,-y,1/2-z
-x,y,1/2-z
-x,-y,-z
x,y,-z
-x,y,1/2+z
x,-y,1/2+z
1/2+x,1/2+y,1/2+z
1/2-x,1/2-y,1/2+z
1/2+x,1/2-y,-z
1/2-x,1/2+y,-z
1/2-x,1/2-y,1/2-z
1/2+x,1/2+y,1/2-z
1/2-x,1/2+y,z
1/2+x,1/2-y,z
loop_
_atom_site_type_symbol
_atom_site_label
_atom_site_fract_x
_atom_site_fract_y
_atom_site_fract_z
Si Si1 0.234909 0.875207 0.251961
Si Si2 0.781557 0.457118 0.000000
Si Si3 0.780860 0.786806 0.000000
Si Si4 0.599038 0.919927 0.500000
Si Si5 0.090764 0.820610 0.000000
O O1 0.214711 0.929157 0.357719
O O2 0.261799 0.822659 0.358884
O O3 0.361241 0.886924 0.144618
O O4 0.113645 0.859073 0.141276
O O5 0.800930 0.524563 0.000000
O O6 0.940588 0.436223 0.000000
O O7 0.946021 0.788932 0.000000
O O8 0.711434 0.725975 0.000000
#
# Coordination Sequence:
#
# PCOD9527125 Si02
#       5
#    16   8   8   8   8
#     4  10  22  37  59  89 124 160 198 254 314 364
#     4  10  20  36  61  93 126 162 208 258 304 359
#     4  11  24  42  64  90 123 162 208 258 309 370
#     4  10  20  36  61  93 126 162 208 258 304 359
#     4  11  24  42  64  90 123 162 208 258 309 370
#
# _framework density 22.690674999999999
#
# number of rings (size 3 to 8) (size 9 to 14) (size 15 to 20)
#    0.000    1.667    0.000    4.000    0.000   10.667 
#    0.000    0.000    0.000   70.000    0.000    0.000 
#    0.000    0.000    0.000    0.000    0.000    0.000 
#
# Total GULP energy -134239.261525 kJ/mol
# GULP energy per Si atom -5593.302564 kJ/mol
# Density = 2.263903 g / cm^3
# Si number density = 22.690675 Si / 1000 Ang^3
#
#
#
# Elastic Constant Matrix: (Units=GPa)
#
#
# Indices 1 2 3 4 5 6 
#
# 1 93.8455 55.8666 47.7488 0.0000 -0.0001 0.0000
# 2 55.8666 89.3176 54.6202 -0.0002 -0.0006 0.0000
# 3 47.7488 54.6202 194.7757 -0.0005 -0.0008 0.0000
# 4 0.0000 -0.0002 -0.0005 15.5980 0.0014 0.0000
# 5 -0.0001 -0.0006 -0.0008 0.0014 -248.9049 -0.0002
# 6 0.0000 0.0000 0.0000 0.0000 -0.0002 31.6273
#
#
#
# Elastic Compliance Matrix: (Units=1/GPa)
#
#
# Indices 1 2 3 4 5 6 
#
# 1 0.017314 -0.009938 -0.001457 0.000000 0.000000 0.000000
# 2 -0.009938 0.019218 -0.002953 0.000000 0.000000 0.000000
# 3 -0.001457 -0.002953 0.006319 0.000000 0.000000 0.000000
# 4 0.000000 0.000000 0.000000 0.064111 0.000000 0.000000
# 5 0.000000 0.000000 0.000000 0.000000 -0.004018 0.000000
# 6 0.000000 0.000000 0.000000 0.000000 0.000000 0.031618
#
#
# Mechanical properties :
#
#
# Convention : Reuss Voigt Hill
#
# Bulk Modulus (GPa) = 70.65122 77.15665 73.90394
# Shear Modulus (GPa) = 29.76598 -25.68903 2.03848
#
# Velocity S-wave (km/s) = 3.62583 -3.36838 0.94886
# Velocity P-wave (km/s) = 6.98091 4.35311 5.81733
#
# Compressibility (1/GPa) = 0.01415404
#
# Stress axis : x y z
#
# Youngs Moduli (GPa) = 57.75832 52.03498 158.24079
#
# Poissons Ratio (x) = 0.51712 0.23063
# Poissons Ratio (y) = 0.57400 0.46727
# Poissons Ratio (z) = 0.08418 0.15365
#
# Static dielectric constant tensor:
#      x y z
#    x 1.834180 0.000000 0.000000 
#    y 0.000000 1.817100 0.000000 
#    z 0.000000 0.000000 1.831910 
# 
# From -- ./inp_files/1755.got.cif
#   From: 2010.05.17/outbox.cif.g08.bks.cpg/sg72_1_cif.got.tgz:1755.got - 2010.06.03 17:03:01.
