data_PCOD9527795
_publ_section_title
;
Structure prediction by ZEFSAII (Michael W. Deem and Ramdas Pophale) SiO2 
 PCOD9527795
Probable space group: I B A M
;
_chemical_formula_sum "Si O2"
_cell_formula_units_Z 96
_cell_length_a 8.648055
_cell_length_b 22.498327
_cell_length_c 23.496998
_cell_angle_alpha 90.000000
_cell_angle_beta 90.000000
_cell_angle_gamma 90.000000
_cell_volume 4571.734989
_symmetry_space_group_name_H-M "I B A M"
_symmetry_group_IT_number 72
_symmetry_cell_setting 'orthorhombic'
loop_
_space_group_symop_operation_xyz
x,y,z
-x,-y,z
x,-y,1/2-z
-x,y,1/2-z
-x,-y,-z
x,y,-z
-x,y,1/2+z
x,-y,1/2+z
1/2+x,1/2+y,1/2+z
1/2-x,1/2-y,1/2+z
1/2+x,1/2-y,-z
1/2-x,1/2+y,-z
1/2-x,1/2-y,1/2-z
1/2+x,1/2+y,1/2-z
1/2-x,1/2+y,z
1/2+x,1/2-y,z
loop_
_atom_site_type_symbol
_atom_site_label
_atom_site_fract_x
_atom_site_fract_y
_atom_site_fract_z
Si Si1 0.685770 0.489570 0.933912
Si Si2 0.305498 0.264940 0.594457
Si Si3 0.902378 0.163896 0.058662
Si Si4 0.793090 0.594412 0.136524
Si Si5 0.893678 0.373515 0.067792
Si Si6 0.348039 0.202087 0.286579
O O1 0.500000 0.500000 0.930621
O O2 0.764259 0.525937 0.881383
O O3 0.758122 0.423358 0.928169
O O4 0.732002 0.506873 0.000000
O O5 0.237723 0.210329 0.559657
O O6 0.445643 0.298288 0.565645
O O7 0.170944 0.313932 0.596987
O O8 0.358999 0.237428 0.653895
O O9 0.863609 0.121764 0.109863
O O10 0.908546 0.129468 0.000000
O O11 0.802613 0.633997 0.194450
O O12 0.949485 0.608634 0.100494
O O13 0.921698 0.363760 0.000000
O O14 0.500000 0.195014 0.250000
O O15 0.250000 0.250000 0.250000
#
# Coordination Sequence:
#
# PCOD9527795 Si02
#       6
#    16  16  16  16  16  16
#     4  10  21  37  59  90 128 164 193 227 282 356
#     4  11  22  35  54  83 113 153 196 239 297 355
#     4  11  20  32  52  81 119 150 184 233 290 361
#     4  11  22  37  58  86 115 155 201 243 293 350
#     4  11  21  35  58  89 128 163 192 230 285 359
#     4  11  23  41  61  82 110 149 201 259 307 343
#
# _framework density 20.998593
#
# number of rings (size 3 to 8) (size 9 to 14) (size 15 to 20)
#    0.000    1.167    0.000    9.500    0.000    2.667 
#    0.000    0.000    0.000    7.000    0.000    5.833 
#    0.000    0.000    0.000    0.000    0.000    0.000 
#
# Total GULP energy -267316.292980 kJ/mol
# GULP energy per Si atom -5569.089437 kJ/mol
# Density = 2.095080 g / cm^3
# Si number density = 20.998593 Si / 1000 Ang^3
#
#
#
# Elastic Constant Matrix: (Units=GPa)
#
#
# Indices 1 2 3 4 5 6 
#
# 1 67.8182 2.3194 20.9122 0.0000 0.0000 0.0000
# 2 2.3194 98.4035 23.4940 0.0000 0.0000 0.0000
# 3 20.9122 23.4940 96.0213 0.0000 0.0000 0.0000
# 4 0.0000 0.0000 0.0000 56.4210 0.0000 0.0000
# 5 0.0000 0.0000 0.0000 0.0000 150.6839 0.0000
# 6 0.0000 0.0000 0.0000 0.0000 0.0000 36.4706
#
#
#
# Elastic Compliance Matrix: (Units=1/GPa)
#
#
# Indices 1 2 3 4 5 6 
#
# 1 0.015828 0.000478 -0.003564 0.000000 0.000000 0.000000
# 2 0.000478 0.010807 -0.002748 0.000000 0.000000 0.000000
# 3 -0.003564 -0.002748 0.011863 0.000000 0.000000 0.000000
# 4 0.000000 0.000000 0.000000 0.017724 0.000000 0.000000
# 5 0.000000 0.000000 0.000000 0.000000 0.006636 0.000000
# 6 0.000000 0.000000 0.000000 0.000000 0.000000 0.027419
#
#
# Mechanical properties :
#
#
# Convention : Reuss Voigt Hill
#
# Bulk Modulus (GPa) = 37.27295 39.52157 38.39726
# Shear Modulus (GPa) = 45.08981 63.08292 54.08637
#
# Velocity S-wave (km/s) = 4.63890 5.48696 5.08065
# Velocity P-wave (km/s) = 6.81772 7.68142 7.26242
#
# Compressibility (1/GPa) = 0.02682911
#
# Stress axis : x y z
#
# Youngs Moduli (GPa) = 63.17936 92.53142 84.29570
#
# Poissons Ratio (x) = -0.04422 0.30043
# Poissons Ratio (y) = -0.03019 0.23167
# Poissons Ratio (z) = 0.22517 0.25431
#
# Static dielectric constant tensor:
#      x y z
#    x 1.787960 0.000000 0.000000 
#    y 0.000000 1.842220 0.000000 
#    z 0.000000 0.000000 1.699400 
# 
# From -- ./inp_files/42402.got.cif
#   From: 2010.05.17/outbox.cif.g08.bks.cpg/sg72_22_cif.got.tgz:42402.got - 2010.06.03 17:03:01.
