data_PCOD9527179
_publ_section_title
;
Structure prediction by ZEFSAII (Michael W. Deem and Ramdas Pophale) SiO2 
 PCOD9527179
Probable space group: I B A M
;
_chemical_formula_sum "Si O2"
_cell_formula_units_Z 96
_cell_length_a 27.010213
_cell_length_b 8.891599
_cell_length_c 20.271804
_cell_angle_alpha 90.000000
_cell_angle_beta 90.000000
_cell_angle_gamma 90.000000
_cell_volume 4868.557189
_symmetry_space_group_name_H-M "I B A M"
_symmetry_group_IT_number 72
_symmetry_cell_setting 'orthorhombic'
loop_
_space_group_symop_operation_xyz
x,y,z
-x,-y,z
x,-y,1/2-z
-x,y,1/2-z
-x,-y,-z
x,y,-z
-x,y,1/2+z
x,-y,1/2+z
1/2+x,1/2+y,1/2+z
1/2-x,1/2-y,1/2+z
1/2+x,1/2-y,-z
1/2-x,1/2+y,-z
1/2-x,1/2-y,1/2-z
1/2+x,1/2+y,1/2-z
1/2-x,1/2+y,z
1/2+x,1/2-y,z
loop_
_atom_site_type_symbol
_atom_site_label
_atom_site_fract_x
_atom_site_fract_y
_atom_site_fract_z
Si Si1 0.491212 0.833186 0.170149
Si Si2 0.585347 0.350947 0.659280
Si Si3 0.605483 0.679862 0.686208
Si Si4 0.259533 0.991956 0.924983
Si Si5 0.292573 0.844508 0.210282
Si Si6 0.324914 0.714042 0.425782
O O1 0.500000 0.834765 0.250000
O O2 0.531625 0.715784 0.142036
O O3 0.434259 0.794841 0.157281
O O4 0.500000 0.000000 0.145195
O O5 0.596193 0.526064 0.646945
O O6 0.588845 0.340385 0.737984
O O7 0.631128 0.264629 0.625769
O O8 0.660793 0.737804 0.696218
O O9 0.278692 0.902011 0.862212
O O10 0.201335 0.949650 0.920603
O O11 0.281869 0.159432 0.918380
O O12 0.273607 0.942502 0.000000
O O13 0.250000 0.750000 0.250000
O O14 0.303594 0.000000 0.250000
O O15 0.344618 0.729316 0.500000
#
# Coordination Sequence:
#
# PCOD9527179 Si02
#       6
#    16  16  16  16  16  16
#     4   9  19  34  58  86 114 150 198 244 303 372
#     4  10  20  37  58  83 120 150 196 249 304 365
#     4  10  22  35  57  87 119 158 190 244 313 367
#     4  10  22  40  58  81 119 165 209 246 300 376
#     4  12  26  38  59  91 130 162 207 260 316 366
#     4  10  22  39  61  84 115 162 209 251 298 366
#
# _framework density 19.718368999999999
#
# number of rings (size 3 to 8) (size 9 to 14) (size 15 to 20)
#    0.000    1.833    0.000    3.500   14.000    2.000 
#    0.000    0.000    0.000    3.500    0.000    0.000 
#    0.000    0.000    0.000    0.000    0.000    0.000 
#
# Total GULP energy -267215.819760 kJ/mol
# GULP energy per Si atom -5566.996245 kJ/mol
# Density = 1.967349 g / cm^3
# Si number density = 19.718369 Si / 1000 Ang^3
#
#
#
# Elastic Constant Matrix: (Units=GPa)
#
#
# Indices 1 2 3 4 5 6 
#
# 1 124.6875 63.6105 21.8033 0.0000 0.0000 0.0000
# 2 63.6105 108.1393 25.6785 0.0000 0.0000 0.0000
# 3 21.8033 25.6785 51.1205 0.0000 0.0000 0.0000
# 4 0.0000 0.0000 0.0000 17.0374 0.0000 0.0000
# 5 0.0000 0.0000 0.0000 0.0000 8.1945 0.0000
# 6 0.0000 0.0000 0.0000 0.0000 0.0000 29.8403
#
#
#
# Elastic Compliance Matrix: (Units=1/GPa)
#
#
# Indices 1 2 3 4 5 6 
#
# 1 0.011591 -0.006409 -0.001725 0.000000 0.000000 0.000000
# 2 -0.006409 0.014043 -0.004321 0.000000 0.000000 0.000000
# 3 -0.001725 -0.004321 0.022467 0.000000 0.000000 0.000000
# 4 0.000000 0.000000 0.000000 0.058694 0.000000 0.000000
# 5 0.000000 0.000000 0.000000 0.000000 0.122033 0.000000
# 6 0.000000 0.000000 0.000000 0.000000 0.000000 0.033512
#
#
# Mechanical properties :
#
#
# Convention : Reuss Voigt Hill
#
# Bulk Modulus (GPa) = 43.11481 56.23687 49.67584
# Shear Modulus (GPa) = 16.95033 22.53810 19.74421
#
# Velocity S-wave (km/s) = 2.93511 3.38450 3.16778
# Velocity P-wave (km/s) = 5.77921 6.62231 6.21507
#
# Compressibility (1/GPa) = 0.02319389
#
# Stress axis : x y z
#
# Youngs Moduli (GPa) = 86.27344 71.20945 44.50878
#
# Poissons Ratio (x) = 0.45636 0.07676
# Poissons Ratio (y) = 0.55290 0.19231
# Poissons Ratio (z) = 0.14878 0.30767
#
# Static dielectric constant tensor:
#      x y z
#    x 1.740400 0.000000 0.000000 
#    y 0.000000 1.769590 0.000000 
#    z 0.000000 0.000000 1.692820 
# 
# From -- ./inp_files/40661.got.cif
#   From: 2010.05.17/outbox.cif.g08.bks.cpg/sg72_21_cif.got.tgz:40661.got - 2010.06.03 17:03:01.
