data_PCOD9527931
_publ_section_title
;
Structure prediction by ZEFSAII (Michael W. Deem and Ramdas Pophale) SiO2 
 PCOD9527931
Probable space group: I B A M
;
_chemical_formula_sum "Si O2"
_cell_formula_units_Z 64
_cell_length_a 17.731434
_cell_length_b 5.263866
_cell_length_c 26.257254
_cell_angle_alpha 90.000000
_cell_angle_beta 90.000000
_cell_angle_gamma 90.000000
_cell_volume 2450.744238
_symmetry_space_group_name_H-M "I B A M"
_symmetry_group_IT_number 72
_symmetry_cell_setting 'orthorhombic'
loop_
_space_group_symop_operation_xyz
x,y,z
-x,-y,z
x,-y,1/2-z
-x,y,1/2-z
-x,-y,-z
x,y,-z
-x,y,1/2+z
x,-y,1/2+z
1/2+x,1/2+y,1/2+z
1/2-x,1/2-y,1/2+z
1/2+x,1/2-y,-z
1/2-x,1/2+y,-z
1/2-x,1/2-y,1/2-z
1/2+x,1/2+y,1/2-z
1/2-x,1/2+y,z
1/2+x,1/2-y,z
loop_
_atom_site_type_symbol
_atom_site_label
_atom_site_fract_x
_atom_site_fract_y
_atom_site_fract_z
Si Si1 0.207786 0.432581 0.669037
Si Si2 0.911270 0.070074 0.806045
Si Si3 0.087185 0.078866 0.082895
Si Si4 0.831960 0.425384 0.945388
O O1 0.244275 0.690618 0.688251
O O2 0.213121 0.443348 0.607330
O O3 0.121324 0.354724 0.683288
O O4 0.886846 0.926484 0.857759
O O5 0.883976 0.000000 0.750000
O O6 0.000000 0.000000 0.804964
O O7 0.106114 0.351269 0.060121
O O8 0.130811 0.850478 0.056209
O O9 0.000000 0.000000 0.081042
O O10 0.793196 0.462800 0.000000
#
# Coordination Sequence:
#
# PCOD9527931 Si02
#       4
#    16  16  16  16
#     4  11  24  43  66  96 134 176 227 284 343 413
#     4   9  20  42  70  99 135 181 231 287 353 422
#     4  10  21  38  61  93 131 169 216 274 335 404
#     4  11  23  39  61  90 127 172 220 273 335 403
#
# _framework density 26.114515999999998
#
# number of rings (size 3 to 8) (size 9 to 14) (size 15 to 20)
#    0.000    1.750    0.000    4.500    0.000    5.000 
#    0.000   13.750    0.000   33.000    0.000    0.000 
#    0.000    0.000    0.000    0.000    0.000    0.000 
#
# Total GULP energy -178996.684528 kJ/mol
# GULP energy per Si atom -5593.646392 kJ/mol
# Density = 2.605508 g / cm^3
# Si number density = 26.114516 Si / 1000 Ang^3
#
#
#
# Elastic Constant Matrix: (Units=GPa)
#
#
# Indices 1 2 3 4 5 6 
#
# 1 136.2666 66.6294 24.8238 0.0000 0.0000 0.0000
# 2 66.6294 142.1043 48.1636 0.0000 0.0000 0.0000
# 3 24.8238 48.1636 203.1351 0.0000 0.0000 0.0000
# 4 0.0000 0.0000 0.0000 -35.1965 0.0000 0.0000
# 5 0.0000 0.0000 0.0000 0.0000 13.1099 0.0000
# 6 0.0000 0.0000 0.0000 0.0000 0.0000 51.0048
#
#
#
# Elastic Compliance Matrix: (Units=1/GPa)
#
#
# Indices 1 2 3 4 5 6 
#
# 1 0.009524 -0.004427 -0.000114 0.000000 0.000000 0.000000
# 2 -0.004427 0.009710 -0.001761 0.000000 0.000000 0.000000
# 3 -0.000114 -0.001761 0.005354 0.000000 0.000000 0.000000
# 4 0.000000 0.000000 0.000000 -0.028412 0.000000 0.000000
# 5 0.000000 0.000000 0.000000 0.000000 0.076278 0.000000
# 6 0.000000 0.000000 0.000000 0.000000 0.000000 0.019606
#
#
# Mechanical properties :
#
#
# Convention : Reuss Voigt Hill
#
# Bulk Modulus (GPa) = 83.44876 84.52663 83.98769
# Shear Modulus (GPa) = 46.01531 28.57623 37.29577
#
# Velocity S-wave (km/s) = 4.20224 3.31156 3.78320
# Velocity P-wave (km/s) = 7.45449 6.86002 7.16342
#
# Compressibility (1/GPa) = 0.01198340
#
# Stress axis : x y z
#
# Youngs Moduli (GPa) = 104.99872 102.99040 186.76313
#
# Poissons Ratio (x) = 0.45592 0.02134
# Poissons Ratio (y) = 0.46481 0.32893
# Poissons Ratio (z) = 0.01200 0.18139
#
# Static dielectric constant tensor:
#      x y z
#    x 2.109510 0.000000 0.000000 
#    y 0.000000 2.036010 0.000000 
#    z 0.000000 0.000000 2.043570 
# 
# From -- ./inp_files/46536.got.cif
#   From: 2010.05.17/outbox.cif.g08.bks.cpg/sg72_24_cif.got.tgz:46536.got - 2010.06.03 17:03:01.
