data_PCOD9527347
_publ_section_title
;
Structure prediction by ZEFSAII (Michael W. Deem and Ramdas Pophale) SiO2 
 PCOD9527347
Probable space group: I B A M
;
_chemical_formula_sum "Si O2"
_cell_formula_units_Z 116
_cell_length_a 31.506464
_cell_length_b 22.231780
_cell_length_c 8.947936
_cell_angle_alpha 90.000000
_cell_angle_beta 90.000000
_cell_angle_gamma 90.000000
_cell_volume 6267.535029
_symmetry_space_group_name_H-M "I B A M"
_symmetry_group_IT_number 72
_symmetry_cell_setting 'orthorhombic'
loop_
_space_group_symop_operation_xyz
x,y,z
-x,-y,z
x,-y,1/2-z
-x,y,1/2-z
-x,-y,-z
x,y,-z
-x,y,1/2+z
x,-y,1/2+z
1/2+x,1/2+y,1/2+z
1/2-x,1/2-y,1/2+z
1/2+x,1/2-y,-z
1/2-x,1/2+y,-z
1/2-x,1/2-y,1/2-z
1/2+x,1/2+y,1/2-z
1/2-x,1/2+y,z
1/2+x,1/2-y,z
loop_
_atom_site_type_symbol
_atom_site_label
_atom_site_fract_x
_atom_site_fract_y
_atom_site_fract_z
Si Si1 0.288787 0.831748 0.177346
Si Si2 0.500000 0.000000 0.250000
Si Si3 0.545610 0.230320 0.822300
Si Si4 0.398659 0.332231 0.821980
Si Si5 0.657065 0.062809 0.676160
Si Si6 0.428648 0.091984 0.333521
Si Si7 0.695587 0.704355 0.176991
Si Si8 0.545398 0.434654 0.179667
O O1 0.315261 0.882814 0.259278
O O2 0.303904 0.766054 0.230774
O O3 0.238367 0.832347 0.212312
O O4 0.294423 0.837690 0.000000
O O5 0.467758 0.045619 0.331242
O O6 0.500000 0.243695 0.750000
O O7 0.580451 0.271070 0.740700
O O8 0.555479 0.159536 0.802989
O O9 0.545070 0.243098 0.000000
O O10 0.348246 0.329853 0.797329
O O11 0.420479 0.386528 0.734141
O O12 0.406702 0.337177 0.000000
O O13 0.661589 0.059452 0.500000
O O14 0.607800 0.073850 0.718721
O O15 0.670101 0.000000 0.750000
O O16 0.409367 0.091022 0.500000
O O17 0.697730 0.719747 0.000000
O O18 0.554836 0.500000 0.250000
O O19 0.500000 0.416258 0.250000
O O20 0.542600 0.437940 0.000000
#
# Coordination Sequence:
#
# PCOD9527347 Si02
#       8
#    16   4  16  16  16  16  16  16
#     4  10  20  38  63  89 118 149 190 239 290 349
#     4  12  22  40  64  86 118 160 208 252 302 352
#     4  11  23  38  55  82 117 156 200 246 295 343
#     4  11  22  38  59  87 120 154 193 238 290 345
#     4  12  25  40  60  85 115 152 196 242 294 348
#     4  11  24  40  60  86 117 157 205 252 300 351
#     4   9  20  38  62  90 118 152 189 233 289 348
#     4  11  22  39  62  88 118 155 195 235 282 341
#
# _framework density 18.508074000000001
#
# number of rings (size 3 to 8) (size 9 to 14) (size 15 to 20)
#    0.000    1.241    1.379    5.586    0.000    5.517 
#    0.000    0.690    0.000    0.000    0.000    0.000 
#    0.000    0.000    0.000    0.000    0.000    0.000 
#
# Total GULP energy -324176.609845 kJ/mol
# GULP energy per Si atom -5589.251894 kJ/mol
# Density = 1.846595 g / cm^3
# Si number density = 18.508074 Si / 1000 Ang^3
#
#
#
# Elastic Constant Matrix: (Units=GPa)
#
#
# Indices 1 2 3 4 5 6 
#
# 1 110.5339 64.9065 68.8657 0.0000 0.0000 0.0000
# 2 64.9065 75.1647 59.2574 0.0000 0.0000 0.0000
# 3 68.8657 59.2574 133.6924 0.0000 0.0000 0.0000
# 4 0.0000 0.0000 0.0000 26.8669 0.0000 0.0000
# 5 0.0000 0.0000 0.0000 0.0000 1.0152 0.0000
# 6 0.0000 0.0000 0.0000 0.0000 0.0000 20.1180
#
#
#
# Elastic Compliance Matrix: (Units=1/GPa)
#
#
# Indices 1 2 3 4 5 6 
#
# 1 0.019652 -0.013818 -0.003998 0.000000 0.000000 0.000000
# 2 -0.013818 0.030166 -0.006253 0.000000 0.000000 0.000000
# 3 -0.003998 -0.006253 0.012311 0.000000 0.000000 0.000000
# 4 0.000000 0.000000 0.000000 0.037221 0.000000 0.000000
# 5 0.000000 0.000000 0.000000 0.000000 0.985040 0.000000
# 6 0.000000 0.000000 0.000000 0.000000 0.000000 0.049707
#
#
# Mechanical properties :
#
#
# Convention : Reuss Voigt Hill
#
# Bulk Modulus (GPa) = 71.47670 78.38336 74.93003
# Shear Modulus (GPa) = 4.21266 18.02411 11.11838
#
# Velocity S-wave (km/s) = 1.51032 3.12404 2.45364
# Velocity P-wave (km/s) = 6.46100 7.44686 6.97138
#
# Compressibility (1/GPa) = 0.01399057
#
# Stress axis : x y z
#
# Youngs Moduli (GPa) = 50.88537 33.15017 81.22883
#
# Poissons Ratio (x) = 0.45807 0.32477
# Poissons Ratio (y) = 0.70313 0.50792
# Poissons Ratio (z) = 0.20345 0.20728
#
# Static dielectric constant tensor:
#      x y z
#    x 1.628570 0.000000 0.000000 
#    y 0.000000 1.619140 0.000000 
#    z 0.000000 0.000000 1.629450 
# 
# From -- ./inp_files/8451.got.cif
#   From: 2010.05.17/outbox.cif.g08.bks.cpg/sg72_5_cif.got.tgz:8451.got - 2010.06.03 17:03:01.
