data_PCOD9527998
_publ_section_title
;
Structure prediction by ZEFSAII (Michael W. Deem and Ramdas Pophale) SiO2 
 PCOD9527998
Probable space group: I B A M
;
_chemical_formula_sum "Si O2"
_cell_formula_units_Z 116
_cell_length_a 15.807194
_cell_length_b 24.856506
_cell_length_c 14.969292
_cell_angle_alpha 90.000000
_cell_angle_beta 90.000000
_cell_angle_gamma 90.000000
_cell_volume 5881.608658
_symmetry_space_group_name_H-M "I B A M"
_symmetry_group_IT_number 72
_symmetry_cell_setting 'orthorhombic'
loop_
_space_group_symop_operation_xyz
x,y,z
-x,-y,z
x,-y,1/2-z
-x,y,1/2-z
-x,-y,-z
x,y,-z
-x,y,1/2+z
x,-y,1/2+z
1/2+x,1/2+y,1/2+z
1/2-x,1/2-y,1/2+z
1/2+x,1/2-y,-z
1/2-x,1/2+y,-z
1/2-x,1/2-y,1/2-z
1/2+x,1/2+y,1/2-z
1/2-x,1/2+y,z
1/2+x,1/2-y,z
loop_
_atom_site_type_symbol
_atom_site_label
_atom_site_fract_x
_atom_site_fract_y
_atom_site_fract_z
Si Si1 0.302350 0.625636 0.307779
Si Si2 0.764881 0.040289 0.332457
Si Si3 0.413982 0.471248 0.104266
Si Si4 0.448143 0.819364 0.600291
Si Si5 0.599734 0.267212 0.256679
Si Si6 0.594814 0.060550 0.404155
Si Si7 0.354309 0.186585 0.606229
Si Si8 0.500000 0.000000 0.750000
O O1 0.275705 0.597508 0.215103
O O2 0.367508 0.581563 0.352292
O O3 0.350368 0.680993 0.289005
O O4 0.217062 0.643732 0.361644
O O5 0.688361 0.037930 0.399891
O O6 0.747124 0.000000 0.250000
O O7 0.847094 0.018721 0.380815
O O8 0.500000 0.500000 0.139872
O O9 0.427583 0.458706 0.000000
O O10 0.445252 0.796322 0.500000
O O11 0.405613 0.779576 0.669563
O O12 0.401625 0.875658 0.602872
O O13 0.547609 0.832154 0.619017
O O14 0.500000 0.282210 0.250000
O O15 0.642570 0.240174 0.168761
O O16 0.553584 0.048749 0.500000
O O17 0.550970 0.037404 0.317259
O O18 0.342172 0.196880 0.500000
#
# Coordination Sequence:
#
# PCOD9527998 Si02
#       8
#    16  16  16  16  16  16  16   4
#     4  11  23  37  65  93 120 169 217 264 323 391
#     4  10  22  39  60  86 123 162 208 265 316 374
#     4  10  23  42  63  89 125 167 217 277 333 386
#     4   9  21  39  63  90 128 168 201 253 313 375
#     4  10  22  39  64  93 127 163 210 260 318 388
#     4  11  23  40  62  92 125 166 207 253 318 378
#     4  10  21  39  60  92 129 164 206 257 316 380
#     4  12  26  36  64  90 130 160 210 260 302 386
#
# _framework density 19.722496
#
# number of rings (size 3 to 8) (size 9 to 14) (size 15 to 20)
#    0.000    1.793    0.690    2.276    6.759    3.034 
#    0.000    5.517    0.000    0.000    0.000    0.000 
#    0.000    0.000    0.000    0.000    0.000    0.000 
#
# Total GULP energy -323194.399640 kJ/mol
# GULP energy per Si atom -5572.317235 kJ/mol
# Density = 1.967761 g / cm^3
# Si number density = 19.722496 Si / 1000 Ang^3
#
#
#
# Elastic Constant Matrix: (Units=GPa)
#
#
# Indices 1 2 3 4 5 6 
#
# 1 67.0338 44.7071 25.3431 0.0000 0.0000 0.0000
# 2 44.7071 68.7328 28.1171 -0.0001 0.0000 0.0000
# 3 25.3431 28.1171 79.7589 -0.0002 0.0000 0.0000
# 4 0.0000 -0.0001 -0.0002 -0.5113 0.0001 0.0000
# 5 0.0000 0.0000 0.0000 0.0001 21.1543 0.0000
# 6 0.0000 0.0000 0.0000 0.0000 0.0000 20.5945
#
#
#
# Elastic Compliance Matrix: (Units=1/GPa)
#
#
# Indices 1 2 3 4 5 6 
#
# 1 0.026864 -0.016338 -0.002776 0.000004 0.000000 0.000000
# 2 -0.016338 0.026937 -0.004305 -0.000002 0.000000 0.000000
# 3 -0.002776 -0.004305 0.014937 -0.000005 0.000000 0.000000
# 4 0.000004 -0.000002 -0.000005 -1.955654 0.000005 -0.000002
# 5 0.000000 0.000000 0.000000 0.000005 0.047272 0.000000
# 6 0.000000 0.000000 0.000000 -0.000002 0.000000 0.048557
#
#
# Mechanical properties :
#
#
# Convention : Reuss Voigt Hill
#
# Bulk Modulus (GPa) = 45.66103 45.76222 45.71162
# Shear Modulus (GPa) = -2.87861 16.07136 6.59638
#
# Velocity S-wave (km/s) = -1.20943 2.85770 1.83081
# Velocity P-wave (km/s) = 4.60996 5.84312 5.26278
#
# Compressibility (1/GPa) = 0.02190051
#
# Stress axis : x y z
#
# Youngs Moduli (GPa) = 37.22513 37.12389 66.94565
#
# Poissons Ratio (x) = 0.60652 0.18586
# Poissons Ratio (y) = 0.60817 0.28818
# Poissons Ratio (z) = 0.10335 0.15981
#
# Static dielectric constant tensor:
#      x y z
#    x 1.735100 0.000000 0.000000 
#    y 0.000000 1.667260 0.000000 
#    z 0.000000 0.000000 1.711730 
# 
# From -- ./inp_files/23528.got.cif
#   From: 2010.05.17/outbox.cif.g08.bks.cpg/sg72_12_cif.got.tgz:23528.got - 2010.06.03 17:03:01.
