data_PCOD9527554
_publ_section_title
;
Structure prediction by ZEFSAII (Michael W. Deem and Ramdas Pophale) SiO2 
 PCOD9527554
Probable space group: I B A M
;
_chemical_formula_sum "Si O2"
_cell_formula_units_Z 112
_cell_length_a 14.256037
_cell_length_b 25.288772
_cell_length_c 14.502547
_cell_angle_alpha 90.000000
_cell_angle_beta 90.000000
_cell_angle_gamma 90.000000
_cell_volume 5228.424444
_symmetry_space_group_name_H-M "I B A M"
_symmetry_group_IT_number 72
_symmetry_cell_setting 'orthorhombic'
loop_
_space_group_symop_operation_xyz
x,y,z
-x,-y,z
x,-y,1/2-z
-x,y,1/2-z
-x,-y,-z
x,y,-z
-x,y,1/2+z
x,-y,1/2+z
1/2+x,1/2+y,1/2+z
1/2-x,1/2-y,1/2+z
1/2+x,1/2-y,-z
1/2-x,1/2+y,-z
1/2-x,1/2-y,1/2-z
1/2+x,1/2+y,1/2-z
1/2-x,1/2+y,z
1/2+x,1/2-y,z
loop_
_atom_site_type_symbol
_atom_site_label
_atom_site_fract_x
_atom_site_fract_y
_atom_site_fract_z
Si Si1 0.293312 0.618123 0.391505
Si Si2 0.197924 0.672313 0.113125
Si Si3 0.400193 0.279618 0.886804
Si Si4 0.621445 0.050697 0.112699
Si Si5 0.409607 0.332826 0.606593
Si Si6 0.012853 0.940337 0.859486
Si Si7 0.907844 0.567156 0.612160
O O1 0.274673 0.625735 0.500000
O O2 0.327154 0.674984 0.356789
O O3 0.202432 0.589206 0.352379
O O4 0.383517 0.580323 0.382347
O O5 0.136321 0.722571 0.142413
O O6 0.305779 0.674859 0.145054
O O7 0.150060 0.617732 0.142480
O O8 0.198673 0.672350 0.000000
O O9 0.503421 0.298609 0.855575
O O10 0.402005 0.280345 0.000000
O O11 0.517035 0.068300 0.139669
O O12 0.633528 0.989551 0.140788
O O13 0.624005 0.050903 0.000000
O O14 0.402598 0.317006 0.500000
O O15 0.441569 0.394337 0.608733
O O16 0.000000 0.941872 0.750000
O O17 0.000000 0.000000 0.894664
O O18 0.907357 0.567305 0.500000
#
# Coordination Sequence:
#
# PCOD9527554 Si02
#       7
#    16  16  16  16  16  16  16
#     4   9  17  29  48  69  91 126 162 195 233 284
#     4   9  16  25  42  67  96 127 154 190 240 282
#     4   8  15  27  39  61  94 120 151 190 227 270
#     4   8  14  24  38  60  92 121 149 186 230 279
#     4   9  18  31  48  71  96 125 162 198 234 284
#     4  10  21  34  47  67  96 125 157 198 252 297
#     4   8  14  23  35  60  95 122 146 185 233 277
#
# _framework density 21.421367
#
# number of rings (size 3 to 8) (size 9 to 14) (size 15 to 20)
#    0.000    3.286    0.000    2.143    2.000    2.286 
#    0.000    5.714    0.000    3.429    0.000    1.000 
#    0.000    0.000    0.000    0.000    0.000    0.000 
#
# Total GULP energy -312471.265789 kJ/mol
# GULP energy per Si atom -5579.844032 kJ/mol
# Density = 2.137261 g / cm^3
# Si number density = 21.421367 Si / 1000 Ang^3
#
#
#
# Elastic Constant Matrix: (Units=GPa)
#
#
# Indices 1 2 3 4 5 6 
#
# 1 129.8584 139.8263 -11.2229 -0.0001 0.0000 0.0000
# 2 139.8263 102.4796 60.1397 0.0011 0.0000 0.0000
# 3 -11.2229 60.1397 33.1326 0.0003 0.0000 0.0000
# 4 -0.0001 0.0011 0.0003 56.3664 -0.0001 -0.0002
# 5 0.0000 0.0000 0.0000 -0.0001 -24.0421 0.0001
# 6 0.0000 0.0000 0.0000 -0.0002 0.0001 23.6316
#
#
#
# Elastic Compliance Matrix: (Units=1/GPa)
#
#
# Indices 1 2 3 4 5 6 
#
# 1 0.000252 0.006044 -0.010885 0.000000 0.000000 0.000000
# 2 0.006044 -0.004756 0.010680 0.000000 0.000000 0.000000
# 3 -0.010885 0.010680 0.007110 0.000000 0.000000 0.000000
# 4 0.000000 0.000000 0.000000 0.017741 0.000000 0.000000
# 5 0.000000 0.000000 0.000000 0.000000 -0.041594 0.000000
# 6 0.000000 0.000000 0.000000 0.000000 0.000000 0.042316
#
#
# Mechanical properties :
#
#
# Convention : Reuss Voigt Hill
#
# Bulk Modulus (GPa) = 70.01354 71.43966 70.72660
# Shear Modulus (GPa) = 353.28063 16.30635 184.79349
#
# Velocity S-wave (km/s) = 12.85604 2.76201 9.29802
# Velocity P-wave (km/s) = 15.90991 6.60256 12.18029
#
# Compressibility (1/GPa) = 0.01428295
#
# Stress axis : x y z
#
# Youngs Moduli (GPa) = 3967.16981 -210.26508 140.65573
#
# Poissons Ratio (x) = 1.27083 1.53105
# Poissons Ratio (y) = -23.97740 -1.50217
# Poissons Ratio (z) = 43.18312 2.24558
#
# Static dielectric constant tensor:
#      x y z
#    x 1.742460 0.000000 0.000000 
#    y 0.000000 1.746750 0.000000 
#    z 0.000000 0.000000 1.787490 
# 
# From -- ./inp_files/22111.got.cif
#   From: 2010.05.17/outbox.cif.g08.bks.cpg/sg72_12_cif.got.tgz:22111.got - 2010.06.03 17:03:01.
