data_PCOD9527113
_publ_section_title
;
Structure prediction by ZEFSAII (Michael W. Deem and Ramdas Pophale) SiO2 
 PCOD9527113
Probable space group: I B A M
;
_chemical_formula_sum "Si O2"
_cell_formula_units_Z 80
_cell_length_a 12.815081
_cell_length_b 24.531103
_cell_length_c 14.014397
_cell_angle_alpha 90.000000
_cell_angle_beta 90.000000
_cell_angle_gamma 90.000000
_cell_volume 4405.678965
_symmetry_space_group_name_H-M "I B A M"
_symmetry_group_IT_number 72
_symmetry_cell_setting 'orthorhombic'
loop_
_space_group_symop_operation_xyz
x,y,z
-x,-y,z
x,-y,1/2-z
-x,y,1/2-z
-x,-y,-z
x,y,-z
-x,y,1/2+z
x,-y,1/2+z
1/2+x,1/2+y,1/2+z
1/2-x,1/2-y,1/2+z
1/2+x,1/2-y,-z
1/2-x,1/2+y,-z
1/2-x,1/2-y,1/2-z
1/2+x,1/2+y,1/2-z
1/2-x,1/2+y,z
1/2+x,1/2-y,z
loop_
_atom_site_type_symbol
_atom_site_label
_atom_site_fract_x
_atom_site_fract_y
_atom_site_fract_z
Si Si1 0.998297 0.326075 0.890861
Si Si2 0.682446 0.196126 0.242115
Si Si3 0.735772 0.577243 0.259673
Si Si4 0.124006 0.996418 0.611869
Si Si5 0.568213 0.946306 0.889651
O O1 0.103662 0.302680 0.846983
O O2 0.896917 0.308921 0.831231
O O3 0.001513 0.391919 0.882123
O O4 0.985827 0.311204 0.000000
O O5 0.750000 0.250000 0.250000
O O6 0.750423 0.140762 0.237683
O O7 0.691111 0.541447 0.171377
O O8 0.657340 0.561851 0.345266
O O9 0.845239 0.558120 0.307280
O O10 0.145130 0.001679 0.500000
O O11 0.000000 0.000000 0.627737
O O12 0.500000 0.000000 0.878800
O O13 0.610904 0.946239 0.000000
#
# Coordination Sequence:
#
# PCOD9527113 Si02
#       5
#    16  16  16  16  16
#     4   9  20  39  58  85 119 148 185 234 283 333
#     4  10  22  40  59  84 115 151 194 239 278 332
#     4  10  20  36  61  84 111 152 192 227 286 335
#     4  10  22  40  57  83 119 148 187 239 285 337
#     4   9  18  32  57  90 121 148 177 220 280 348
#
# _framework density 18.158383000000001
#
# number of rings (size 3 to 8) (size 9 to 14) (size 15 to 20)
#    0.000    2.400    0.000    1.800    5.600    2.400 
#    7.200    0.000    0.000    0.600    0.000    0.000 
#    0.000    0.000    0.000    0.000    0.000    0.000 
#
# Total GULP energy -223102.670993 kJ/mol
# GULP energy per Si atom -5577.566775 kJ/mol
# Density = 1.811705 g / cm^3
# Si number density = 18.158383 Si / 1000 Ang^3
#
#
#
# Elastic Constant Matrix: (Units=GPa)
#
#
# Indices 1 2 3 4 5 6 
#
# 1 61.5733 39.2239 13.9331 0.0000 0.0000 0.0000
# 2 39.2239 102.5606 11.5962 0.0001 0.0000 0.0000
# 3 13.9331 11.5962 91.1303 0.0001 0.0000 0.0000
# 4 0.0000 0.0001 0.0001 14.4705 0.0000 0.0000
# 5 0.0000 0.0000 0.0000 0.0000 13.9356 0.0000
# 6 0.0000 0.0000 0.0000 0.0000 0.0000 34.1694
#
#
#
# Elastic Compliance Matrix: (Units=1/GPa)
#
#
# Indices 1 2 3 4 5 6 
#
# 1 0.021945 -0.008130 -0.002321 0.000000 0.000000 0.000000
# 2 -0.008130 0.012905 -0.000399 0.000000 0.000000 0.000000
# 3 -0.002321 -0.000399 0.011379 0.000000 0.000000 0.000000
# 4 0.000000 0.000000 0.000000 0.069106 0.000000 0.000000
# 5 0.000000 0.000000 0.000000 0.000000 0.071759 0.000000
# 6 0.000000 0.000000 0.000000 0.000000 0.000000 0.029266
#
#
# Mechanical properties :
#
#
# Convention : Reuss Voigt Hill
#
# Bulk Modulus (GPa) = 40.76859 42.75228 41.76043
# Shear Modulus (GPa) = 20.30568 25.21583 22.76075
#
# Velocity S-wave (km/s) = 3.34766 3.73052 3.54426
# Velocity P-wave (km/s) = 6.11905 6.49237 6.30847
#
# Compressibility (1/GPa) = 0.02452869
#
# Stress axis : x y z
#
# Youngs Moduli (GPa) = 45.56791 77.48982 87.88201
#
# Poissons Ratio (x) = 0.63003 0.20395
# Poissons Ratio (y) = 0.37049 0.03507
# Poissons Ratio (z) = 0.10575 0.03092
#
# Static dielectric constant tensor:
#      x y z
#    x 1.657750 0.000000 0.000000 
#    y 0.000000 1.612980 0.000000 
#    z 0.000000 0.000000 1.659040 
# 
# From -- ./inp_files/20189.got.cif
#   From: 2010.05.17/outbox.cif.g08.bks.cpg/sg72_11_cif.got.tgz:20189.got - 2010.06.03 17:03:01.
