data_PCOD9527818
_publ_section_title
;
Structure prediction by ZEFSAII (Michael W. Deem and Ramdas Pophale) SiO2 
 PCOD9527818
Probable space group: I B A M
;
_chemical_formula_sum "Si O2"
_cell_formula_units_Z 88
_cell_length_a 12.463801
_cell_length_b 19.427536
_cell_length_c 18.995567
_cell_angle_alpha 90.000000
_cell_angle_beta 90.000000
_cell_angle_gamma 90.000000
_cell_volume 4599.604499
_symmetry_space_group_name_H-M "I B A M"
_symmetry_group_IT_number 72
_symmetry_cell_setting 'orthorhombic'
loop_
_space_group_symop_operation_xyz
x,y,z
-x,-y,z
x,-y,1/2-z
-x,y,1/2-z
-x,-y,-z
x,y,-z
-x,y,1/2+z
x,-y,1/2+z
1/2+x,1/2+y,1/2+z
1/2-x,1/2-y,1/2+z
1/2+x,1/2-y,-z
1/2-x,1/2+y,-z
1/2-x,1/2-y,1/2-z
1/2+x,1/2+y,1/2-z
1/2-x,1/2+y,z
1/2+x,1/2-y,z
loop_
_atom_site_type_symbol
_atom_site_label
_atom_site_fract_x
_atom_site_fract_y
_atom_site_fract_z
Si Si1 0.758659 0.617319 0.922087
Si Si2 0.288555 0.127335 0.084573
Si Si3 0.808809 0.758952 0.675731
Si Si4 0.500000 0.191809 0.750000
Si Si5 0.385483 0.482057 0.581322
Si Si6 0.978938 0.420943 0.639998
O O1 0.717940 0.670047 0.862746
O O2 0.681311 0.551911 0.920121
O O3 0.878440 0.586826 0.912045
O O4 0.751879 0.649889 0.000000
O O5 0.272082 0.200177 0.121541
O O6 0.406807 0.101781 0.107781
O O7 0.194420 0.076021 0.110338
O O8 0.286074 0.130871 0.000000
O O9 0.750000 0.750000 0.750000
O O10 0.930137 0.739939 0.698880
O O11 0.555247 0.135192 0.800869
O O12 0.500000 0.500000 0.615233
O O13 0.407733 0.460270 0.500000
O O14 0.000000 0.500000 0.662977
#
# Coordination Sequence:
#
# PCOD9527818 Si02
#       6
#    16  16  16   8  16  16
#     4  11  22  38  64  94 124 158 204 261 317 375
#     4  10  21  37  61  90 121 157 203 257 313 371
#     4  11  23  41  60  85 123 165 206 250 308 370
#     4  10  23  40  60  88 127 172 208 254 308 377
#     4   9  19  37  59  87 120 156 197 248 309 370
#     4  11  20  36  64  96 124 159 206 263 321 374
#
# _framework density 19.132079000000001
#
# number of rings (size 3 to 8) (size 9 to 14) (size 15 to 20)
#    0.000    1.636    3.636    1.364    0.000    2.182 
#    0.000    0.909    0.000    1.091    0.000    0.000 
#    0.000    0.000    0.000    0.000    0.000    0.000 
#
# Total GULP energy -245006.869095 kJ/mol
# GULP energy per Si atom -5568.337934 kJ/mol
# Density = 1.908853 g / cm^3
# Si number density = 19.132079 Si / 1000 Ang^3
#
#
#
# Elastic Constant Matrix: (Units=GPa)
#
#
# Indices 1 2 3 4 5 6 
#
# 1 97.0486 24.8558 4.0476 0.0000 0.0000 0.0000
# 2 24.8558 61.5958 2.7246 0.0000 0.0000 0.0000
# 3 4.0476 2.7246 48.8926 0.0000 0.0000 0.0000
# 4 0.0000 0.0000 0.0000 17.6694 0.0000 0.0000
# 5 0.0000 0.0000 0.0000 0.0000 20.3135 0.0000
# 6 0.0000 0.0000 0.0000 0.0000 0.0000 24.9385
#
#
#
# Elastic Compliance Matrix: (Units=1/GPa)
#
#
# Indices 1 2 3 4 5 6 
#
# 1 0.011515 -0.004616 -0.000696 0.000000 0.000000 0.000000
# 2 -0.004616 0.018125 -0.000628 0.000000 0.000000 0.000000
# 3 -0.000696 -0.000628 0.020546 0.000000 0.000000 0.000000
# 4 0.000000 0.000000 0.000000 0.056595 0.000000 0.000000
# 5 0.000000 0.000000 0.000000 0.000000 0.049228 0.000000
# 6 0.000000 0.000000 0.000000 0.000000 0.000000 0.040099
#
#
# Mechanical properties :
#
#
# Convention : Reuss Voigt Hill
#
# Bulk Modulus (GPa) = 26.10535 30.08811 28.09673
# Shear Modulus (GPa) = 22.64929 24.31152 23.48041
#
# Velocity S-wave (km/s) = 3.44443 3.56858 3.50706
# Velocity P-wave (km/s) = 5.43076 5.72192 5.57824
#
# Compressibility (1/GPa) = 0.03830632
#
# Stress axis : x y z
#
# Youngs Moduli (GPa) = 86.84029 55.17135 48.67219
#
# Poissons Ratio (x) = 0.25467 0.03388
# Poissons Ratio (y) = 0.40086 0.03056
# Poissons Ratio (z) = 0.06045 0.03464
#
# Static dielectric constant tensor:
#      x y z
#    x 1.742970 0.000000 0.000000 
#    y 0.000000 1.652320 0.000000 
#    z 0.000000 0.000000 1.703490 
# 
# From -- ./inp_files/29295.got.cif
#   From: 2010.05.17/outbox.cif.g08.bks.cpg/sg72_15_cif.got.tgz:29295.got - 2010.06.03 17:03:01.
