data_PCOD9527999
_publ_section_title
;
Structure prediction by ZEFSAII (Michael W. Deem and Ramdas Pophale) SiO2 
 PCOD9527999
Probable space group: I B A M
;
_chemical_formula_sum "Si O2"
_cell_formula_units_Z 68
_cell_length_a 19.725342
_cell_length_b 18.222589
_cell_length_c 9.987285
_cell_angle_alpha 90.000000
_cell_angle_beta 90.000000
_cell_angle_gamma 90.000000
_cell_volume 3589.897635
_symmetry_space_group_name_H-M "I B A M"
_symmetry_group_IT_number 72
_symmetry_cell_setting 'orthorhombic'
loop_
_space_group_symop_operation_xyz
x,y,z
-x,-y,z
x,-y,1/2-z
-x,y,1/2-z
-x,-y,-z
x,y,-z
-x,y,1/2+z
x,-y,1/2+z
1/2+x,1/2+y,1/2+z
1/2-x,1/2-y,1/2+z
1/2+x,1/2-y,-z
1/2-x,1/2+y,-z
1/2-x,1/2-y,1/2-z
1/2+x,1/2+y,1/2-z
1/2-x,1/2+y,z
1/2+x,1/2-y,z
loop_
_atom_site_type_symbol
_atom_site_label
_atom_site_fract_x
_atom_site_fract_y
_atom_site_fract_z
Si Si1 0.446614 0.909394 0.000000
Si Si2 0.564061 0.333069 0.653851
Si Si3 0.500000 0.000000 0.250000
Si Si4 0.300869 0.412717 0.244366
Si Si5 0.921981 0.691651 0.500000
Si Si6 0.702414 0.083190 0.000000
Si Si7 0.710772 0.092124 0.500000
O O1 0.455776 0.954035 0.858740
O O2 0.508379 0.852908 0.000000
O O3 0.370659 0.879709 0.000000
O O4 0.500000 0.343223 0.750000
O O5 0.552599 0.361436 0.500000
O O6 0.629760 0.370689 0.716831
O O7 0.578243 0.246820 0.626562
O O8 0.315274 0.500000 0.250000
O O9 0.259039 0.392294 0.375134
O O10 0.248402 0.398465 0.125606
O O11 0.857934 0.638425 0.500000
O O12 0.691443 0.994517 0.000000
#
# Coordination Sequence:
#
# PCOD9527999 Si02
#       7
#     8  16   4  16   8   8   8
#     4  11  24  36  64  89 133 174 209 258 305 361
#     4  10  24  45  63  89 127 164 213 260 309 384
#     4  10  24  38  56  98 128 170 232 246 296 370
#     4  10  22  42  67  96 124 158 210 268 324 369
#     4  10  25  42  61  92 132 175 212 246 308 380
#     4  10  21  39  60  96 132 161 206 263 311 370
#     4  10  22  36  67  94 127 168 205 256 315 379
#
# _framework density 18.942043999999999
#
# number of rings (size 3 to 8) (size 9 to 14) (size 15 to 20)
#    0.706    1.176    1.176    1.412   11.529    1.412 
#    0.000    3.529    0.000    0.000    0.000    0.000 
#    0.000    0.000    0.000    0.000    0.000    0.000 
#
# Total GULP energy -189601.284932 kJ/mol
# GULP energy per Si atom -5576.508380 kJ/mol
# Density = 1.889893 g / cm^3
# Si number density = 18.942044 Si / 1000 Ang^3
#
#
#
# Elastic Constant Matrix: (Units=GPa)
#
#
# Indices 1 2 3 4 5 6 
#
# 1 224.8408 80.6639 87.5756 0.0000 0.0000 0.0000
# 2 80.6639 50.4087 36.5791 0.0000 0.0000 0.0000
# 3 87.5756 36.5791 150.7453 0.0000 0.0000 0.0000
# 4 0.0000 0.0000 0.0000 -18.5118 0.0000 0.0000
# 5 0.0000 0.0000 0.0000 0.0000 41.4198 0.0000
# 6 0.0000 0.0000 0.0000 0.0000 0.0000 46.7817
#
#
#
# Elastic Compliance Matrix: (Units=1/GPa)
#
#
# Indices 1 2 3 4 5 6 
#
# 1 0.011240 -0.016078 -0.002628 0.000000 0.000000 0.000000
# 2 -0.016078 0.047078 -0.002083 0.000000 0.000000 0.000000
# 3 -0.002628 -0.002083 0.008666 0.000000 0.000000 0.000000
# 4 0.000000 0.000000 0.000000 -0.054020 0.000000 0.000000
# 5 0.000000 0.000000 0.000000 0.000000 0.024143 0.000000
# 6 0.000000 0.000000 0.000000 0.000000 0.000000 0.021376
#
#
# Mechanical properties :
#
#
# Convention : Reuss Voigt Hill
#
# Bulk Modulus (GPa) = 39.36311 92.84800 66.10555
# Shear Modulus (GPa) = 46.07034 28.68301 37.37668
#
# Velocity S-wave (km/s) = 4.93706 3.89556 4.44690
# Velocity P-wave (km/s) = 7.30242 8.32809 7.83206
#
# Compressibility (1/GPa) = 0.02540450
#
# Stress axis : x y z
#
# Youngs Moduli (GPa) = 88.97192 21.24141 115.39420
#
# Poissons Ratio (x) = 0.34153 0.30327
# Poissons Ratio (y) = 1.43052 0.24036
# Poissons Ratio (z) = 0.23383 0.04425
#
# Static dielectric constant tensor:
#      x y z
#    x 1.597300 0.000000 0.000000 
#    y 0.000000 1.679410 0.000000 
#    z 0.000000 0.000000 1.646040 
# 
# From -- ./inp_files/4482.got.cif
#   From: 2010.05.17/outbox.cif.g08.bks.cpg/sg72_3_cif.got.tgz:4482.got - 2010.06.03 17:03:01.
