data_PCOD9527250
_publ_section_title
;
Structure prediction by ZEFSAII (Michael W. Deem and Ramdas Pophale) SiO2 
 PCOD9527250
Probable space group: I B A M
;
_chemical_formula_sum "Si O2"
_cell_formula_units_Z 80
_cell_length_a 28.862502
_cell_length_b 10.792393
_cell_length_c 13.101679
_cell_angle_alpha 90.000000
_cell_angle_beta 90.000000
_cell_angle_gamma 90.000000
_cell_volume 4081.113586
_symmetry_space_group_name_H-M "I B A M"
_symmetry_group_IT_number 72
_symmetry_cell_setting 'orthorhombic'
loop_
_space_group_symop_operation_xyz
x,y,z
-x,-y,z
x,-y,1/2-z
-x,y,1/2-z
-x,-y,-z
x,y,-z
-x,y,1/2+z
x,-y,1/2+z
1/2+x,1/2+y,1/2+z
1/2-x,1/2-y,1/2+z
1/2+x,1/2-y,-z
1/2-x,1/2+y,-z
1/2-x,1/2-y,1/2-z
1/2+x,1/2+y,1/2-z
1/2-x,1/2+y,z
1/2+x,1/2-y,z
loop_
_atom_site_type_symbol
_atom_site_label
_atom_site_fract_x
_atom_site_fract_y
_atom_site_fract_z
Si Si1 0.398005 0.873455 0.684192
Si Si2 0.295102 0.875556 0.311428
Si Si3 0.895935 0.877795 0.181486
Si Si4 0.529970 0.126190 0.500000
Si Si5 0.700559 0.296601 0.111813
Si Si6 0.969165 0.876073 0.000000
O O1 0.345790 0.875711 0.638493
O O2 0.400778 0.749525 0.753455
O O3 0.437090 0.871956 0.598849
O O4 0.402241 0.000000 0.750000
O O5 0.298556 0.780134 0.216828
O O6 0.251399 0.856740 0.383899
O O7 0.287054 0.000000 0.250000
O O8 0.845339 0.879031 0.127172
O O9 0.899736 0.000000 0.250000
O O10 0.936021 0.877283 0.098027
O O11 0.498904 0.249933 0.500000
O O12 0.500000 0.000000 0.500000
O O13 0.695622 0.233665 0.000000
O O14 0.000000 0.000000 0.000000
#
# Coordination Sequence:
#
# PCOD9527250 Si02
#       6
#    16  16  16   8  16   8
#     4  10  23  43  64  91 127 163 203 258 308 371
#     4   9  20  38  58  91 124 159 203 245 307 370
#     4  11  23  42  65  91 127 163 205 256 312 369
#     4  12  26  42  65  94 121 160 218 258 314 374
#     4  10  20  37  62  90 125 162 201 249 303 371
#     4  12  26  42  63  94 121 160 214 258 314 372
#
# _framework density 19.602492999999999
#
# number of rings (size 3 to 8) (size 9 to 14) (size 15 to 20)
#    0.000    1.600    1.000    3.000    1.400    5.600 
#    9.000    0.000    0.000    0.000    0.000    0.000 
#    0.000    0.000    0.000    0.000    0.000    0.000 
#
# Total GULP energy -223030.891310 kJ/mol
# GULP energy per Si atom -5575.772283 kJ/mol
# Density = 1.955788 g / cm^3
# Si number density = 19.602493 Si / 1000 Ang^3
#
#
#
# Elastic Constant Matrix: (Units=GPa)
#
#
# Indices 1 2 3 4 5 6 
#
# 1 185.0001 74.6989 90.4125 0.0000 0.0000 0.0000
# 2 74.6989 129.5210 48.4276 0.0000 0.0000 0.0000
# 3 90.4125 48.4276 107.2584 0.0000 0.0000 0.0000
# 4 0.0000 0.0000 0.0000 15.0570 0.0000 0.0000
# 5 0.0000 0.0000 0.0000 0.0000 70.7355 0.0000
# 6 0.0000 0.0000 0.0000 0.0000 0.0000 25.9892
#
#
#
# Elastic Compliance Matrix: (Units=1/GPa)
#
#
# Indices 1 2 3 4 5 6 
#
# 1 0.010191 -0.003207 -0.007142 0.000000 0.000000 0.000000
# 2 -0.003207 0.010298 -0.001946 0.000000 0.000000 0.000000
# 3 -0.007142 -0.001946 0.016223 0.000000 0.000000 0.000000
# 4 0.000000 0.000000 0.000000 0.066414 0.000000 0.000000
# 5 0.000000 0.000000 0.000000 0.000000 0.014137 0.000000
# 6 0.000000 0.000000 0.000000 0.000000 0.000000 0.038478
#
#
# Mechanical properties :
#
#
# Convention : Reuss Voigt Hill
#
# Bulk Modulus (GPa) = 82.50637 94.31750 88.41194
# Shear Modulus (GPa) = 27.11907 36.23903 31.67905
#
# Velocity S-wave (km/s) = 3.72351 4.30431 4.02440
# Velocity P-wave (km/s) = 7.78891 8.53945 8.17280
#
# Compressibility (1/GPa) = 0.01212028
#
# Stress axis : x y z
#
# Youngs Moduli (GPa) = 98.12709 97.10606 61.64206
#
# Poissons Ratio (x) = 0.31141 0.44027
# Poissons Ratio (y) = 0.31468 0.11998
# Poissons Ratio (z) = 0.70086 0.18901
#
# Static dielectric constant tensor:
#      x y z
#    x 1.712720 0.000000 0.000000 
#    y 0.000000 1.909400 0.000000 
#    z 0.000000 0.000000 1.626940 
# 
# From -- ./inp_files/16739.got.cif
#   From: 2010.05.17/outbox.cif.g08.bks.cpg/sg72_9_cif.got.tgz:16739.got - 2010.06.03 17:03:01.
