data_PCOD9527889
_publ_section_title
;
Structure prediction by ZEFSAII (Michael W. Deem and Ramdas Pophale) SiO2 
 PCOD9527889
Probable space group: I B A M
;
_chemical_formula_sum "Si O2"
_cell_formula_units_Z 116
_cell_length_a 22.098192
_cell_length_b 32.035272
_cell_length_c 8.943755
_cell_angle_alpha 90.000000
_cell_angle_beta 90.000000
_cell_angle_gamma 90.000000
_cell_volume 6331.477273
_symmetry_space_group_name_H-M "I B A M"
_symmetry_group_IT_number 72
_symmetry_cell_setting 'orthorhombic'
loop_
_space_group_symop_operation_xyz
x,y,z
-x,-y,z
x,-y,1/2-z
-x,y,1/2-z
-x,-y,-z
x,y,-z
-x,y,1/2+z
x,-y,1/2+z
1/2+x,1/2+y,1/2+z
1/2-x,1/2-y,1/2+z
1/2+x,1/2-y,-z
1/2-x,1/2+y,-z
1/2-x,1/2-y,1/2-z
1/2+x,1/2+y,1/2-z
1/2-x,1/2+y,z
1/2+x,1/2-y,z
loop_
_atom_site_type_symbol
_atom_site_label
_atom_site_fract_x
_atom_site_fract_y
_atom_site_fract_z
Si Si1 0.276230 0.042527 0.177711
Si Si2 0.500000 0.000000 0.750000
Si Si3 0.402123 0.932814 0.170218
Si Si4 0.694284 0.697073 0.320195
Si Si5 0.165122 0.896812 0.678997
Si Si6 0.062705 0.653836 0.820659
Si Si7 0.831680 0.282331 0.179720
Si Si8 0.565667 0.455301 0.320662
O O1 0.341126 0.051235 0.251334
O O2 0.229340 0.080080 0.203635
O O3 0.251477 0.000000 0.250000
O O4 0.283634 0.037142 0.000000
O O5 0.546329 0.031541 0.830898
O O6 0.424723 0.892471 0.259650
O O7 0.388796 0.920969 0.000000
O O8 0.691602 0.700068 0.500000
O O9 0.670002 0.651636 0.277901
O O10 0.765002 0.701321 0.275871
O O11 0.660702 0.736612 0.249588
O O12 0.152871 0.899554 0.500000
O O13 0.114035 0.921213 0.769151
O O14 0.117169 0.684640 0.777320
O O15 0.000000 0.668684 0.750000
O O16 0.058526 0.652395 0.000000
O O17 0.832374 0.278822 0.000000
O O18 0.583708 0.500000 0.250000
O O19 0.500000 0.445588 0.250000
O O20 0.561732 0.458476 0.500000
#
# Coordination Sequence:
#
# PCOD9527889 Si02
#       8
#    16   4  16  16  16  16  16  16
#     4  11  23  38  57  82 118 156 196 244 291 340
#     4  12  26  40  60  82 114 156 200 248 290 336
#     4  12  25  40  60  83 113 155 203 247 293 344
#     4   9  18  35  60  86 112 145 184 230 284 341
#     4  10  21  38  59  87 121 155 191 237 291 343
#     4  11  23  39  59  83 114 148 189 236 285 340
#     4   9  19  37  59  84 113 146 183 230 286 342
#     4  11  22  38  61  87 117 155 196 237 282 342
#
# _framework density 18.321158
#
# number of rings (size 3 to 8) (size 9 to 14) (size 15 to 20)
#    0.000    1.517    1.379    4.345    0.000    7.172 
#    0.000    3.448    0.000    1.655    0.000    0.000 
#    0.000    0.000    0.000    0.000    0.000    0.000 
#
# Total GULP energy -323997.373410 kJ/mol
# GULP energy per Si atom -5586.161611 kJ/mol
# Density = 1.827946 g / cm^3
# Si number density = 18.321158 Si / 1000 Ang^3
#
#
#
# Elastic Constant Matrix: (Units=GPa)
#
#
# Indices 1 2 3 4 5 6 
#
# 1 84.7837 69.8337 46.0766 0.0000 0.0000 0.0000
# 2 69.8337 143.7463 53.7432 0.0000 0.0000 0.0000
# 3 46.0766 53.7432 84.0191 0.0000 0.0000 0.0000
# 4 0.0000 0.0000 0.0000 7.4888 0.0000 0.0000
# 5 0.0000 0.0000 0.0000 0.0000 20.1359 0.0000
# 6 0.0000 0.0000 0.0000 0.0000 0.0000 24.6642
#
#
#
# Elastic Compliance Matrix: (Units=1/GPa)
#
#
# Indices 1 2 3 4 5 6 
#
# 1 0.022411 -0.008270 -0.007000 0.000000 0.000000 0.000000
# 2 -0.008270 0.012195 -0.003265 0.000000 0.000000 0.000000
# 3 -0.007000 -0.003265 0.017830 0.000000 0.000000 0.000000
# 4 0.000000 0.000000 0.000000 0.133533 0.000000 0.000000
# 5 0.000000 0.000000 0.000000 0.000000 0.049663 0.000000
# 6 0.000000 0.000000 0.000000 0.000000 0.000000 0.040545
#
#
# Mechanical properties :
#
#
# Convention : Reuss Voigt Hill
#
# Bulk Modulus (GPa) = 65.08558 72.42846 68.75702
# Shear Modulus (GPa) = 15.70504 19.98415 17.84460
#
# Velocity S-wave (km/s) = 2.93099 3.30626 3.12426
# Velocity P-wave (km/s) = 6.85975 7.36164 7.11512
#
# Compressibility (1/GPa) = 0.01536439
#
# Stress axis : x y z
#
# Youngs Moduli (GPa) = 44.62075 81.99840 56.08629
#
# Poissons Ratio (x) = 0.67816 0.39262
# Poissons Ratio (y) = 0.36903 0.18314
# Poissons Ratio (z) = 0.31235 0.26775
#
# Static dielectric constant tensor:
#      x y z
#    x 1.622560 0.000000 0.000000 
#    y 0.000000 1.615020 0.000000 
#    z 0.000000 0.000000 1.617400 
# 
# From -- ./inp_files/7329.got.cif
#   From: 2010.05.17/outbox.cif.g08.bks.cpg/sg72_4_cif.got.tgz:7329.got - 2010.06.03 17:03:01.
