data_PCOD9527379
_publ_section_title
;
Structure prediction by ZEFSAII (Michael W. Deem and Ramdas Pophale) SiO2 
 PCOD9527379
Probable space group: I B A M
;
_chemical_formula_sum "Si O2"
_cell_formula_units_Z 72
_cell_length_a 9.255529
_cell_length_b 27.160909
_cell_length_c 14.131209
_cell_angle_alpha 90.000000
_cell_angle_beta 90.000000
_cell_angle_gamma 90.000000
_cell_volume 3552.424577
_symmetry_space_group_name_H-M "I B A M"
_symmetry_group_IT_number 72
_symmetry_cell_setting 'orthorhombic'
loop_
_space_group_symop_operation_xyz
x,y,z
-x,-y,z
x,-y,1/2-z
-x,y,1/2-z
-x,-y,-z
x,y,-z
-x,y,1/2+z
x,-y,1/2+z
1/2+x,1/2+y,1/2+z
1/2-x,1/2-y,1/2+z
1/2+x,1/2-y,-z
1/2-x,1/2+y,-z
1/2-x,1/2-y,1/2-z
1/2+x,1/2+y,1/2-z
1/2-x,1/2+y,z
1/2+x,1/2-y,z
loop_
_atom_site_type_symbol
_atom_site_label
_atom_site_fract_x
_atom_site_fract_y
_atom_site_fract_z
Si Si1 0.500000 0.388600 0.750000
Si Si2 0.239289 0.191025 0.500000
Si Si3 0.235138 0.868228 0.392505
Si Si4 0.473006 0.944207 0.614465
Si Si5 0.418387 0.206285 0.000000
Si Si6 0.778755 0.904324 0.393679
O O1 0.610714 0.358972 0.817077
O O2 0.401700 0.419679 0.821906
O O3 0.409315 0.203700 0.500000
O O4 0.141830 0.238868 0.500000
O O5 0.208951 0.154365 0.412168
O O6 0.174647 0.877036 0.500000
O O7 0.327700 0.915560 0.359528
O O8 0.349015 0.824236 0.411904
O O9 0.467630 0.943527 0.500000
O O10 0.617740 0.915134 0.640793
O O11 0.500000 0.000000 0.644551
O O12 0.793717 0.926334 0.500000
#
# Coordination Sequence:
#
# PCOD9527379 Si02
#       6
#     8   8  16  16   8  16
#     4  12  22  34  61  84 120 166 176 240 293 348
#     4  10  20  38  66  84 115 154 190 243 295 339
#     4   9  20  39  57  86 118 150 199 235 291 343
#     4   9  16  37  67  85 109 155 202 246 285 341
#     4  10  20  38  66  84 115 154 190 243 295 339
#     4   9  20  39  57  86 118 150 199 235 291 343
#
# _framework density 20.267848000000001
#
# number of rings (size 3 to 8) (size 9 to 14) (size 15 to 20)
#    1.333    1.111    2.222    0.667    3.111    0.889 
#    0.000    5.556    0.000    5.333    0.000    0.000 
#    0.000    0.000    0.000    0.000    0.000    0.000 
#
# Total GULP energy -200415.054766 kJ/mol
# GULP energy per Si atom -5567.084855 kJ/mol
# Density = 2.022172 g / cm^3
# Si number density = 20.267848 Si / 1000 Ang^3
#
#
#
# Elastic Constant Matrix: (Units=GPa)
#
#
# Indices 1 2 3 4 5 6 
#
# 1 116.5419 22.7580 47.5386 0.0000 0.0000 0.0000
# 2 22.7580 90.3390 3.0203 0.0000 0.0000 0.0000
# 3 47.5386 3.0203 102.6503 -0.0001 -0.0002 0.0001
# 4 0.0000 0.0000 -0.0001 -12.6556 -0.0001 0.0000
# 5 0.0000 0.0000 -0.0002 -0.0001 6.4435 0.0000
# 6 0.0000 0.0000 0.0001 0.0000 0.0000 22.6388
#
#
#
# Elastic Compliance Matrix: (Units=1/GPa)
#
#
# Indices 1 2 3 4 5 6 
#
# 1 0.011177 -0.002645 -0.005098 0.000000 0.000000 0.000000
# 2 -0.002645 0.011706 0.000881 0.000000 0.000000 0.000000
# 3 -0.005098 0.000881 0.012077 0.000000 0.000000 0.000000
# 4 0.000000 0.000000 0.000000 -0.079016 -0.000001 0.000000
# 5 0.000000 0.000000 0.000000 -0.000001 0.155194 0.000000
# 6 0.000000 0.000000 0.000000 0.000000 0.000000 0.044172
#
#
# Mechanical properties :
#
#
# Convention : Reuss Voigt Hill
#
# Bulk Modulus (GPa) = 47.09351 50.68500 48.88925
# Shear Modulus (GPa) = 28.39071 19.03296 23.71184
#
# Velocity S-wave (km/s) = 3.74675 3.06775 3.42413
# Velocity P-wave (km/s) = 6.48102 6.13270 6.30926
#
# Compressibility (1/GPa) = 0.02123435
#
# Stress axis : x y z
#
# Youngs Moduli (GPa) = 89.47110 85.42379 82.80213
#
# Poissons Ratio (x) = 0.22596 0.42215
# Poissons Ratio (y) = 0.23667 -0.07291
# Poissons Ratio (z) = 0.45615 -0.07522
#
# Static dielectric constant tensor:
#      x y z
#    x 1.709580 0.000000 0.000000 
#    y 0.000000 1.703770 0.000000 
#    z 0.000000 0.000000 1.788240 
# 
# From -- ./inp_files/19023.got.cif
#   From: 2010.05.17/outbox.cif.g08.bks.cpg/sg72_10_cif.got.tgz:19023.got - 2010.06.03 17:03:01.
