data_PCOD9527602
_publ_section_title
;
Structure prediction by ZEFSAII (Michael W. Deem and Ramdas Pophale) SiO2 
 PCOD9527602
Probable space group: I B A M
;
_chemical_formula_sum "Si O2"
_cell_formula_units_Z 96
_cell_length_a 12.377128
_cell_length_b 23.323475
_cell_length_c 14.198978
_cell_angle_alpha 90.000000
_cell_angle_beta 90.000000
_cell_angle_gamma 90.000000
_cell_volume 4098.927395
_symmetry_space_group_name_H-M "I B A M"
_symmetry_group_IT_number 72
_symmetry_cell_setting 'orthorhombic'
loop_
_space_group_symop_operation_xyz
x,y,z
-x,-y,z
x,-y,1/2-z
-x,y,1/2-z
-x,-y,-z
x,y,-z
-x,y,1/2+z
x,-y,1/2+z
1/2+x,1/2+y,1/2+z
1/2-x,1/2-y,1/2+z
1/2+x,1/2-y,-z
1/2-x,1/2+y,-z
1/2-x,1/2-y,1/2-z
1/2+x,1/2+y,1/2-z
1/2-x,1/2+y,z
1/2+x,1/2-y,z
loop_
_atom_site_type_symbol
_atom_site_label
_atom_site_fract_x
_atom_site_fract_y
_atom_site_fract_z
Si Si1 0.786413 0.087290 0.614966
Si Si2 0.421562 0.849758 0.611234
Si Si3 0.167228 0.959200 0.114819
Si Si4 0.678960 0.271007 0.662229
Si Si5 0.495101 0.638822 0.614173
Si Si6 0.661014 0.132140 0.108540
O O1 0.784977 0.086170 0.500000
O O2 0.669235 0.106980 0.648876
O O3 0.879375 0.133120 0.639273
O O4 0.820881 0.024192 0.647270
O O5 0.429308 0.861161 0.500000
O O6 0.370758 0.786845 0.620408
O O7 0.542948 0.855771 0.650089
O O8 0.060134 0.922653 0.135819
O O9 0.266174 0.919256 0.148526
O O10 0.169539 0.961436 0.000000
O O11 0.750000 0.250000 0.750000
O O12 0.575096 0.312998 0.665197
O O13 0.766181 0.310732 0.608987
O O14 0.485857 0.648326 0.500000
O O15 0.645200 0.115754 0.000000
#
# Coordination Sequence:
#
# PCOD9527602 Si02
#       6
#    16  16  16  16  16  16
#     4   9  17  29  52  86 115 140 180 231 282 339
#     4  10  21  35  53  80 112 149 187 228 279 341
#     4   8  14  28  52  83 114 141 175 226 284 337
#     4  11  23  37  54  76 108 149 196 243 282 328
#     4   9  17  32  55  82 111 149 188 231 288 342
#     4   9  19  36  57  80 112 151 187 226 284 348
#
# _framework density 23.420760999999999
#
# number of rings (size 3 to 8) (size 9 to 14) (size 15 to 20)
#    0.000    2.667    0.000    3.000    2.333    3.333 
#    0.000    3.333    0.000    4.000    0.000    9.333 
#    0.000    0.000    0.000    0.000    0.000    5.333 
#
# Total GULP energy -268118.759134 kJ/mol
# GULP energy per Si atom -5585.807482 kJ/mol
# Density = 2.336745 g / cm^3
# Si number density = 23.420761 Si / 1000 Ang^3
#
#
#
# Elastic Constant Matrix: (Units=GPa)
#
#
# Indices 1 2 3 4 5 6 
#
# 1 169.8475 21.3398 13.5018 0.0001 0.0000 0.0000
# 2 21.3398 73.1318 0.6372 0.0004 -0.0001 -0.0001
# 3 13.5018 0.6372 58.7573 0.0003 -0.0001 0.0000
# 4 0.0001 0.0004 0.0003 3.1370 -0.0001 0.0000
# 5 0.0000 -0.0001 -0.0001 -0.0001 15.0370 0.0000
# 6 0.0000 -0.0001 0.0000 0.0000 0.0000 8.5726
#
#
#
# Elastic Compliance Matrix: (Units=1/GPa)
#
#
# Indices 1 2 3 4 5 6 
#
# 1 0.006227 -0.001805 -0.001411 0.000000 0.000000 0.000000
# 2 -0.001805 0.014198 0.000261 -0.000002 0.000000 0.000000
# 3 -0.001411 0.000261 0.017341 -0.000002 0.000000 0.000000
# 4 0.000000 -0.000002 -0.000002 0.318776 0.000002 0.000002
# 5 0.000000 0.000000 0.000000 0.000002 0.066503 0.000000
# 6 0.000000 0.000000 0.000000 0.000002 0.000000 0.116651
#
#
# Mechanical properties :
#
#
# Convention : Reuss Voigt Hill
#
# Bulk Modulus (GPa) = 31.39207 41.41046 36.40127
# Shear Modulus (GPa) = 8.98918 23.09983 16.04451
#
# Velocity S-wave (km/s) = 1.96124 3.14394 2.62019
# Velocity P-wave (km/s) = 4.30827 5.55866 4.97292
#
# Compressibility (1/GPa) = 0.03185518
#
# Stress axis : x y z
#
# Youngs Moduli (GPa) = 160.60260 70.43116 57.66804
#
# Poissons Ratio (x) = 0.12710 0.08138
# Poissons Ratio (y) = 0.28983 -0.01503
# Poissons Ratio (z) = 0.22665 -0.01836
#
# Static dielectric constant tensor:
#      x y z
#    x 1.887400 0.000000 0.000000 
#    y 0.000000 1.830790 0.000000 
#    z 0.000000 0.000000 1.971510 
# 
# From -- ./inp_files/29444.got.cif
#   From: 2010.05.17/outbox.cif.g08.bks.cpg/sg72_15_cif.got.tgz:29444.got - 2010.06.03 17:03:01.
