data_PCOD9528948
_publ_section_title
;
Structure prediction by ZEFSAII (Michael W. Deem and Ramdas Pophale) SiO2 
 PCOD9528948
Probable space group: I B A M
;
_chemical_formula_sum "Si O2"
_cell_formula_units_Z 48
_cell_length_a 21.365732
_cell_length_b 5.269840
_cell_length_c 17.932061
_cell_angle_alpha 90.000000
_cell_angle_beta 90.000000
_cell_angle_gamma 90.000000
_cell_volume 2019.042281
_symmetry_space_group_name_H-M "I B A M"
_symmetry_group_IT_number 72
_symmetry_cell_setting 'orthorhombic'
loop_
_space_group_symop_operation_xyz
x,y,z
-x,-y,z
x,-y,1/2-z
-x,y,1/2-z
-x,-y,-z
x,y,-z
-x,y,1/2+z
x,-y,1/2+z
1/2+x,1/2+y,1/2+z
1/2-x,1/2-y,1/2+z
1/2+x,1/2-y,-z
1/2-x,1/2+y,-z
1/2-x,1/2-y,1/2-z
1/2+x,1/2+y,1/2-z
1/2-x,1/2+y,z
1/2+x,1/2-y,z
loop_
_atom_site_type_symbol
_atom_site_label
_atom_site_fract_x
_atom_site_fract_y
_atom_site_fract_z
Si Si1 0.139948 0.735549 0.000000
Si Si2 0.291394 0.276969 0.841495
Si Si3 0.554411 0.729566 0.500000
Si Si4 0.000000 0.500000 0.629240
Si Si5 0.391489 0.000000 0.750000
O O1 0.179929 0.749747 0.924306
O O2 0.101548 0.472128 0.000000
O O3 0.096364 0.983081 0.000000
O O4 0.258682 0.548649 0.834410
O O5 0.345300 0.217943 0.780705
O O6 0.510676 0.769471 0.427886
O O7 0.939368 0.473905 0.681221
#
# Coordination Sequence:
#
# PCOD9528948 Si02
#       5
#     8  16   8   8   8
#     4  12  24  48  78 107 147 192 259 308 376 446
#     4  12  26  48  74 108 150 198 250 310 376 456
#     4  11  24  49  76 109 145 193 248 319 369 451
#     4  10  24  48  78 110 150 196 256 312 388 458
#     4  11  24  48  74 112 152 201 246 314 388 465
#
# _framework density 23.77365
#
# number of rings (size 3 to 8) (size 9 to 14) (size 15 to 20)
#    0.000    0.667    3.333    4.000    0.000    2.667 
#    0.000    0.000    0.000    0.000    0.000    0.000 
#    0.000    0.000    0.000    0.000    0.000    0.000 
#
# Total GULP energy -134251.347661 kJ/mol
# GULP energy per Si atom -5593.806153 kJ/mol
# Density = 2.371954 g / cm^3
# Si number density = 23.773650 Si / 1000 Ang^3
#
#
#
# Elastic Constant Matrix: (Units=GPa)
#
#
# Indices 1 2 3 4 5 6 
#
# 1 150.3864 73.4542 100.0764 0.0000 0.0000 0.0000
# 2 73.4542 153.1959 57.0279 0.0000 0.0000 0.0000
# 3 100.0764 57.0279 201.9023 0.0000 0.0000 0.0000
# 4 0.0000 0.0000 0.0000 10.6879 0.0000 0.0000
# 5 0.0000 0.0000 0.0000 0.0000 70.4583 0.0000
# 6 0.0000 0.0000 0.0000 0.0000 0.0000 16.7788
#
#
#
# Elastic Compliance Matrix: (Units=1/GPa)
#
#
# Indices 1 2 3 4 5 6 
#
# 1 0.011643 -0.003838 -0.004687 0.000000 0.000000 0.000000
# 2 -0.003838 0.008560 -0.000515 0.000000 0.000000 0.000000
# 3 -0.004687 -0.000515 0.007422 0.000000 0.000000 0.000000
# 4 0.000000 0.000000 0.000000 0.093563 0.000000 0.000000
# 5 0.000000 0.000000 0.000000 0.000000 0.014193 0.000000
# 6 0.000000 0.000000 0.000000 0.000000 0.000000 0.059599
#
#
# Mechanical properties :
#
#
# Convention : Reuss Voigt Hill
#
# Bulk Modulus (GPa) = 104.78039 107.40018 106.09028
# Shear Modulus (GPa) = 23.12227 37.91341 30.51784
#
# Velocity S-wave (km/s) = 3.12204 3.99778 3.58674
# Velocity P-wave (km/s) = 7.56082 8.15990 7.86606
#
# Compressibility (1/GPa) = 0.00954377
#
# Stress axis : x y z
#
# Youngs Moduli (GPa) = 85.88700 116.82770 134.73951
#
# Poissons Ratio (x) = 0.44837 0.63154
# Poissons Ratio (y) = 0.32962 0.06944
# Poissons Ratio (z) = 0.40256 0.06021
#
# Static dielectric constant tensor:
#      x y z
#    x 1.936220 0.000000 0.000000 
#    y 0.000000 1.878690 0.000000 
#    z 0.000000 0.000000 1.913230 
# 
# From -- ./inp_files/33049.got.cif
#   From: 2010.05.17/outbox.cif.g08.bks.cpg/sg72_17_cif.got.tgz:33049.got - 2010.06.03 17:03:01.
