data_PCOD9528218
_publ_section_title
;
Structure prediction by ZEFSAII (Michael W. Deem and Ramdas Pophale) SiO2 
 PCOD9528218
Probable space group: I B A M
;
_chemical_formula_sum "Si O2"
_cell_formula_units_Z 120
_cell_length_a 23.195456
_cell_length_b 28.895690
_cell_length_c 9.309447
_cell_angle_alpha 90.000000
_cell_angle_beta 90.000000
_cell_angle_gamma 90.000000
_cell_volume 6239.644805
_symmetry_space_group_name_H-M "I B A M"
_symmetry_group_IT_number 72
_symmetry_cell_setting 'orthorhombic'
loop_
_space_group_symop_operation_xyz
x,y,z
-x,-y,z
x,-y,1/2-z
-x,y,1/2-z
-x,-y,-z
x,y,-z
-x,y,1/2+z
x,-y,1/2+z
1/2+x,1/2+y,1/2+z
1/2-x,1/2-y,1/2+z
1/2+x,1/2-y,-z
1/2-x,1/2+y,-z
1/2-x,1/2-y,1/2-z
1/2+x,1/2+y,1/2-z
1/2-x,1/2+y,z
1/2+x,1/2-y,z
loop_
_atom_site_type_symbol
_atom_site_label
_atom_site_fract_x
_atom_site_fract_y
_atom_site_fract_z
Si Si1 0.697787 0.863319 0.164935
Si Si2 0.215621 0.452299 0.831210
Si Si3 0.441427 0.383711 0.672557
Si Si4 0.912248 0.793759 0.663258
Si Si5 0.725970 0.294407 0.666661
Si Si6 0.145900 0.048610 0.670681
Si Si7 0.920823 0.314172 0.786797
Si Si8 0.979017 0.663748 0.000000
O O1 0.684935 0.910454 0.249197
O O2 0.748647 0.838190 0.250671
O O3 0.642874 0.829390 0.167058
O O4 0.713902 0.872775 0.000000
O O5 0.202622 0.500000 0.750000
O O6 0.284984 0.444724 0.819674
O O7 0.201300 0.454275 0.000000
O O8 0.500000 0.400728 0.750000
O O9 0.442710 0.388633 0.500000
O O10 0.434756 0.330180 0.720853
O O11 0.388976 0.411805 0.745579
O O12 0.930367 0.807064 0.500000
O O13 0.842967 0.794728 0.668663
O O14 0.929961 0.740871 0.690592
O O15 0.744608 0.293981 0.500000
O O16 0.750000 0.250000 0.750000
O O17 0.131251 0.047728 0.500000
O O18 0.132715 0.000000 0.750000
O O19 0.930920 0.327625 0.624510
O O20 0.969315 0.338807 0.879709
#
# Coordination Sequence:
#
# PCOD9528218 Si02
#       8
#    16  16  16  16  16  16  16   8
#     4  12  23  39  61  91 128 163 206 250 302 368
#     4  10  22  40  66  98 128 160 196 245 308 367
#     4  12  27  41  59  86 116 159 209 257 306 356
#     4  11  23  40  58  82 121 160 205 255 307 355
#     4  11  23  37  57  86 124 162 202 250 305 370
#     4  10  21  42  67  91 121 154 195 246 303 364
#     4  11  23  40  61  87 116 164 206 256 305 353
#     4  10  24  40  60  84 119 154 213 254 302 354
#
# _framework density 19.231864000000002
#
# number of rings (size 3 to 8) (size 9 to 14) (size 15 to 20)
#    0.000    1.067    2.667    3.600    4.667    6.133 
#    0.000    1.333    0.000    0.000    0.000    2.800 
#    0.000    0.000    0.000    0.000    0.000    0.000 
#
# Total GULP energy -334239.437140 kJ/mol
# GULP energy per Si atom -5570.657286 kJ/mol
# Density = 1.918809 g / cm^3
# Si number density = 19.231864 Si / 1000 Ang^3
#
#
#
# Elastic Constant Matrix: (Units=GPa)
#
#
# Indices 1 2 3 4 5 6 
#
# 1 30.2967 -4.6525 14.7930 0.0000 0.0000 0.0000
# 2 -4.6525 79.2478 29.9091 0.0000 0.0000 0.0000
# 3 14.7930 29.9091 197.6561 0.0000 0.0000 0.0000
# 4 0.0000 0.0000 0.0000 50.6981 0.0000 0.0000
# 5 0.0000 0.0000 0.0000 0.0000 28.4356 0.0000
# 6 0.0000 0.0000 0.0000 0.0000 0.0000 17.8144
#
#
#
# Elastic Compliance Matrix: (Units=1/GPa)
#
#
# Indices 1 2 3 4 5 6 
#
# 1 0.035021 0.003230 -0.003110 0.000000 0.000000 0.000000
# 2 0.003230 0.013681 -0.002312 0.000000 0.000000 0.000000
# 3 -0.003110 -0.002312 0.005642 0.000000 0.000000 0.000000
# 4 0.000000 0.000000 0.000000 0.019725 0.000000 0.000000
# 5 0.000000 0.000000 0.000000 0.000000 0.035167 0.000000
# 6 0.000000 0.000000 0.000000 0.000000 0.000000 0.056134
#
#
# Mechanical properties :
#
#
# Convention : Reuss Voigt Hill
#
# Bulk Modulus (GPa) = 20.01602 43.03333 31.52467
# Shear Modulus (GPa) = 26.82300 37.19969 32.01135
#
# Velocity S-wave (km/s) = 3.73864 4.40281 4.08425
# Velocity P-wave (km/s) = 5.39137 6.94773 6.21843
#
# Compressibility (1/GPa) = 0.04995997
#
# Stress axis : x y z
#
# Youngs Moduli (GPa) = 28.55409 73.09519 177.24637
#
# Poissons Ratio (x) = -0.23607 0.55120
# Poissons Ratio (y) = -0.09222 0.40977
# Poissons Ratio (z) = 0.08880 0.16899
#
# Static dielectric constant tensor:
#      x y z
#    x 1.700780 0.000000 0.000000 
#    y 0.000000 1.707770 0.000000 
#    z 0.000000 0.000000 1.657740 
# 
# From -- ./inp_files/7342.got.cif
#   From: 2010.05.17/outbox.cif.g08.bks.cpg/sg72_4_cif.got.tgz:7342.got - 2010.06.03 17:03:01.
