data_PCOD9528812
_publ_section_title
;
Structure prediction by ZEFSAII (Michael W. Deem and Ramdas Pophale) SiO2 
 PCOD9528812
Probable space group: I B A M
;
_chemical_formula_sum "Si O2"
_cell_formula_units_Z 36
_cell_length_a 12.948451
_cell_length_b 7.827805
_cell_length_c 14.457645
_cell_angle_alpha 90.000000
_cell_angle_beta 90.000000
_cell_angle_gamma 90.000000
_cell_volume 1465.397252
_symmetry_space_group_name_H-M "I B A M"
_symmetry_group_IT_number 72
_symmetry_cell_setting 'orthorhombic'
loop_
_space_group_symop_operation_xyz
x,y,z
-x,-y,z
x,-y,1/2-z
-x,y,1/2-z
-x,-y,-z
x,y,-z
-x,y,1/2+z
x,-y,1/2+z
1/2+x,1/2+y,1/2+z
1/2-x,1/2-y,1/2+z
1/2+x,1/2-y,-z
1/2-x,1/2+y,-z
1/2-x,1/2-y,1/2-z
1/2+x,1/2+y,1/2-z
1/2-x,1/2+y,z
1/2+x,1/2-y,z
loop_
_atom_site_type_symbol
_atom_site_label
_atom_site_fract_x
_atom_site_fract_y
_atom_site_fract_z
Si Si1 0.611422 0.548363 0.358349
Si Si2 0.000000 0.500000 0.000000
Si Si3 0.664766 0.055213 0.142555
O O1 0.500000 0.500000 0.398078
O O2 0.607382 0.500000 0.250000
O O3 0.629193 0.749727 0.368568
O O4 0.717212 0.461242 0.390763
O O5 0.085385 0.549036 0.919250
O O6 0.660087 0.000000 0.250000
#
# Coordination Sequence:
#
# PCOD9528812 Si02
#       3
#    16   4  16
#     4  10  23  43  79 108 134 194 243 293 369 422
#     4  12  30  40  76 106 142 202 230 290 374 418
#     4  11  25  48  75 103 150 185 245 299 361 430
#
# _framework density 24.566718000000002
#
# number of rings (size 3 to 8) (size 9 to 14) (size 15 to 20)
#    0.000    1.333    0.000    6.000   18.667    1.778 
#    0.000    2.222    0.000    0.000    0.000    0.000 
#    0.000    0.000    0.000    0.000    0.000    0.000 
#
# Total GULP energy -100239.803344 kJ/mol
# GULP energy per Si atom -5568.877964 kJ/mol
# Density = 2.451080 g / cm^3
# Si number density = 24.566718 Si / 1000 Ang^3
#
#
#
# Elastic Constant Matrix: (Units=GPa)
#
#
# Indices 1 2 3 4 5 6 
#
# 1 305.3058 49.1591 68.1406 0.0000 0.0000 0.0000
# 2 49.1591 119.8284 -12.4638 0.0000 0.0000 0.0000
# 3 68.1406 -12.4638 152.7939 0.0000 0.0000 0.0000
# 4 0.0000 0.0000 0.0000 -33.1833 0.0000 0.0000
# 5 0.0000 0.0000 0.0000 0.0000 5427.2307 0.0000
# 6 0.0000 0.0000 0.0000 0.0000 0.0000 66.4123
#
#
#
# Elastic Compliance Matrix: (Units=1/GPa)
#
#
# Indices 1 2 3 4 5 6 
#
# 1 0.004005 -0.001844 -0.001936 0.000000 0.000000 0.000000
# 2 -0.001844 0.009266 0.001578 0.000000 0.000000 0.000000
# 3 -0.001936 0.001578 0.007537 0.000000 0.000000 0.000000
# 4 0.000000 0.000000 0.000000 -0.030136 0.000000 0.000000
# 5 0.000000 0.000000 0.000000 0.000000 0.000184 0.000000
# 6 0.000000 0.000000 0.000000 0.000000 0.000000 0.015057
#
#
# Mechanical properties :
#
#
# Convention : Reuss Voigt Hill
#
# Bulk Modulus (GPa) = 60.96401 87.51110 74.23756
# Shear Modulus (GPa) = 316.73932 1123.63141 720.18537
#
# Velocity S-wave (km/s) = 11.36706 21.40964 17.14034
# Velocity P-wave (km/s) = 14.04100 25.43349 20.54279
#
# Compressibility (1/GPa) = 0.01640312
#
# Stress axis : x y z
#
# Youngs Moduli (GPa) = 249.71790 107.92113 132.67810
#
# Poissons Ratio (x) = 0.19903 0.25691
# Poissons Ratio (y) = 0.46054 -0.20941
# Poissons Ratio (z) = 0.48353 -0.17033
#
# Static dielectric constant tensor:
#      x y z
#    x 1.975170 0.000000 0.000000 
#    y 0.000000 1.884650 0.000000 
#    z 0.000000 0.000000 1.952120 
# 
# From -- ./inp_files/17811.got.cif
#   From: 2010.05.17/outbox.cif.g08.bks.cpg/sg72_9_cif.got.tgz:17811.got - 2010.06.03 17:03:01.
