data_PCOD9528801
_publ_section_title
;
Structure prediction by ZEFSAII (Michael W. Deem and Ramdas Pophale) SiO2 
 PCOD9528801
Probable space group: I B A M
;
_chemical_formula_sum "Si O2"
_cell_formula_units_Z 116
_cell_length_a 11.175128
_cell_length_b 19.707484
_cell_length_c 24.170730
_cell_angle_alpha 90.000000
_cell_angle_beta 90.000000
_cell_angle_gamma 90.000000
_cell_volume 5323.208242
_symmetry_space_group_name_H-M "I B A M"
_symmetry_group_IT_number 72
_symmetry_cell_setting 'orthorhombic'
loop_
_space_group_symop_operation_xyz
x,y,z
-x,-y,z
x,-y,1/2-z
-x,y,1/2-z
-x,-y,-z
x,y,-z
-x,y,1/2+z
x,-y,1/2+z
1/2+x,1/2+y,1/2+z
1/2-x,1/2-y,1/2+z
1/2+x,1/2-y,-z
1/2-x,1/2+y,-z
1/2-x,1/2-y,1/2-z
1/2+x,1/2+y,1/2-z
1/2-x,1/2+y,z
1/2+x,1/2-y,z
loop_
_atom_site_type_symbol
_atom_site_label
_atom_site_fract_x
_atom_site_fract_y
_atom_site_fract_z
Si Si1 0.670383 0.603501 0.303560
Si Si2 0.390573 0.455190 0.065500
Si Si3 0.674943 0.296503 0.698573
Si Si4 0.898394 0.316708 0.387112
Si Si5 0.877012 0.537674 0.934730
Si Si6 0.976892 0.172962 0.607979
Si Si7 0.000000 0.000000 0.250000
Si Si8 0.410549 0.146630 0.798431
O O1 0.656849 0.652426 0.249558
O O2 0.633876 0.636829 0.361600
O O3 0.585117 0.542673 0.289388
O O4 0.810877 0.590055 0.305664
O O5 0.500000 0.500000 0.087787
O O6 0.258875 0.475061 0.088753
O O7 0.440573 0.378406 0.073305
O O8 0.381637 0.467335 0.000000
O O9 0.791337 0.307156 0.658722
O O10 0.562424 0.309430 0.659122
O O11 0.655294 0.218292 0.716446
O O12 0.879967 0.380613 0.426796
O O13 0.927574 0.244252 0.415268
O O14 0.014614 0.338649 0.352593
O O15 0.000000 0.500000 0.913483
O O16 0.873918 0.521011 0.000000
O O17 0.500000 0.129029 0.750000
#
# Coordination Sequence:
#
# PCOD9528801 Si02
#       8
#    16  16  16  16  16  16   4  16
#     4  12  23  40  57  90 126 169 217 254 312 375
#     4  10  23  43  68  96 127 166 216 272 332 390
#     4  11  19  38  62  91 123 162 210 255 310 381
#     4  11  22  39  65  98 125 167 215 262 324 390
#     4  10  23  47  71  93 128 173 217 267 332 400
#     4  11  22  37  65  92 127 164 211 268 321 382
#     4  12  28  40  58  80 122 176 218 254 304 372
#     4  11  22  36  62  92 127 167 205 262 318 371
#
# _framework density 21.791370000000001
#
# number of rings (size 3 to 8) (size 9 to 14) (size 15 to 20)
#    0.000    1.103    5.517    2.069    0.966    1.655 
#    2.483    0.345    0.000    0.000    0.000    0.000 
#    0.000    0.000    0.000    0.000    0.000    0.000 
#
# Total GULP energy -323357.358306 kJ/mol
# GULP energy per Si atom -5575.126867 kJ/mol
# Density = 2.174177 g / cm^3
# Si number density = 21.791370 Si / 1000 Ang^3
#
#
#
# Elastic Constant Matrix: (Units=GPa)
#
#
# Indices 1 2 3 4 5 6 
#
# 1 175.3082 52.0870 12.8208 0.0000 0.0000 0.0000
# 2 52.0870 73.8197 2.0824 0.0000 0.0000 0.0000
# 3 12.8208 2.0824 17.3725 0.0000 0.0000 0.0000
# 4 0.0000 0.0000 0.0000 18.3037 0.0000 0.0000
# 5 0.0000 0.0000 0.0000 0.0000 15.7415 0.0000
# 6 0.0000 0.0000 0.0000 0.0000 0.0000 37.7905
#
#
#
# Elastic Compliance Matrix: (Units=1/GPa)
#
#
# Indices 1 2 3 4 5 6 
#
# 1 0.007627 -0.005241 -0.005001 0.000000 0.000000 0.000000
# 2 -0.005241 0.017193 0.001807 0.000000 0.000000 0.000000
# 3 -0.005001 0.001807 0.061036 0.000000 0.000000 0.000000
# 4 0.000000 0.000000 0.000000 0.054634 0.000000 0.000000
# 5 0.000000 0.000000 0.000000 0.000000 0.063526 0.000000
# 6 0.000000 0.000000 0.000000 0.000000 0.000000 0.026462
#
#
# Mechanical properties :
#
#
# Convention : Reuss Voigt Hill
#
# Bulk Modulus (GPa) = 14.49539 44.49786 29.49663
# Shear Modulus (GPa) = 18.49501 27.66781 23.08141
#
# Velocity S-wave (km/s) = 2.91646 3.56711 3.25807
# Velocity P-wave (km/s) = 4.24350 6.11800 5.26485
#
# Compressibility (1/GPa) = 0.06898747
#
# Stress axis : x y z
#
# Youngs Moduli (GPa) = 131.11329 58.16230 16.38373
#
# Poissons Ratio (x) = 0.30480 0.08193
# Poissons Ratio (y) = 0.68710 -0.02960
# Poissons Ratio (z) = 0.65563 -0.10507
#
# Static dielectric constant tensor:
#      x y z
#    x 1.885270 0.000000 0.000000 
#    y 0.000000 1.871590 0.000000 
#    z 0.000000 0.000000 1.806950 
# 
# From -- ./inp_files/48205.got.cif
#   From: 2010.05.17/outbox.cif.g08.bks.cpg/sg72_25_cif.got.tgz:48205.got - 2010.06.03 17:03:01.
