data_PCOD9528584
_publ_section_title
;
Structure prediction by ZEFSAII (Michael W. Deem and Ramdas Pophale) SiO2 
 PCOD9528584
Probable space group: I B A M
;
_chemical_formula_sum "Si O2"
_cell_formula_units_Z 88
_cell_length_a 17.348290
_cell_length_b 9.534309
_cell_length_c 24.459824
_cell_angle_alpha 90.000000
_cell_angle_beta 90.000000
_cell_angle_gamma 90.000000
_cell_volume 4045.751689
_symmetry_space_group_name_H-M "I B A M"
_symmetry_group_IT_number 72
_symmetry_cell_setting 'orthorhombic'
loop_
_space_group_symop_operation_xyz
x,y,z
-x,-y,z
x,-y,1/2-z
-x,y,1/2-z
-x,-y,-z
x,y,-z
-x,y,1/2+z
x,-y,1/2+z
1/2+x,1/2+y,1/2+z
1/2-x,1/2-y,1/2+z
1/2+x,1/2-y,-z
1/2-x,1/2+y,-z
1/2-x,1/2-y,1/2-z
1/2+x,1/2+y,1/2-z
1/2-x,1/2+y,z
1/2+x,1/2-y,z
loop_
_atom_site_type_symbol
_atom_site_label
_atom_site_fract_x
_atom_site_fract_y
_atom_site_fract_z
Si Si1 0.704208 0.747493 0.500000
Si Si2 0.924176 0.432865 0.852610
Si Si3 0.307793 0.176401 0.622536
Si Si4 0.874196 0.865638 0.613255
Si Si5 0.349065 0.560385 0.500000
Si Si6 0.000000 0.716128 0.250000
Si Si7 0.128824 0.915460 0.301517
O O1 0.669691 0.795799 0.558675
O O2 0.701672 0.579894 0.500000
O O3 0.790768 0.807878 0.500000
O O4 0.859060 0.551493 0.852678
O O5 0.897683 0.294806 0.883705
O O6 0.952379 0.375884 0.793672
O O7 0.000000 0.500000 0.878953
O O8 0.218578 0.132020 0.621060
O O9 0.318942 0.315423 0.659849
O O10 0.895568 0.931672 0.555500
O O11 0.905921 0.961628 0.661229
O O12 0.062190 0.813933 0.279807
O O13 0.165692 0.000000 0.250000
#
# Coordination Sequence:
#
# PCOD9528584 Si02
#       7
#     8  16  16  16   8   8  16
#     4  10  22  42  74 105 145 186 229 288 365 430
#     4  12  26  45  72 100 142 191 237 288 358 429
#     4  11  25  45  72 107 144 183 236 297 354 421
#     4  11  25  45  72 107 140 184 238 296 355 421
#     4  10  22  42  72 105 145 185 228 287 364 428
#     4  12  26  46  68  92 138 200 236 282 366 438
#     4  12  24  42  69  97 136 189 237 285 347 425
#
# _framework density 21.751211999999999
#
# number of rings (size 3 to 8) (size 9 to 14) (size 15 to 20)
#    0.000    0.727    5.455    1.636    7.636    0.727 
#    3.273    1.818    0.000    2.182    0.000    0.000 
#    0.000    0.000    0.000    0.000    0.000    0.000 
#
# Total GULP energy -245910.372745 kJ/mol
# GULP energy per Si atom -5588.872108 kJ/mol
# Density = 2.170171 g / cm^3
# Si number density = 21.751212 Si / 1000 Ang^3
#
#
#
# Elastic Constant Matrix: (Units=GPa)
#
#
# Indices 1 2 3 4 5 6 
#
# 1 73.7137 26.0168 19.3408 0.0000 0.0000 0.0000
# 2 26.0168 128.3164 45.4958 0.0000 0.0000 0.0000
# 3 19.3408 45.4958 147.5337 0.0000 0.0000 0.0000
# 4 0.0000 0.0000 0.0000 26.8072 0.0000 0.0000
# 5 0.0000 0.0000 0.0000 0.0000 21.9224 0.0000
# 6 0.0000 0.0000 0.0000 0.0000 0.0000 44.4940
#
#
#
# Elastic Compliance Matrix: (Units=1/GPa)
#
#
# Indices 1 2 3 4 5 6 
#
# 1 0.014780 -0.002593 -0.001138 0.000000 0.000000 0.000000
# 2 -0.002593 0.009205 -0.002499 0.000000 0.000000 0.000000
# 3 -0.001138 -0.002499 0.007698 0.000000 0.000000 0.000000
# 4 0.000000 0.000000 0.000000 0.037303 0.000000 0.000000
# 5 0.000000 0.000000 0.000000 0.000000 0.045615 0.000000
# 6 0.000000 0.000000 0.000000 0.000000 0.000000 0.022475
#
#
# Mechanical properties :
#
#
# Convention : Reuss Voigt Hill
#
# Bulk Modulus (GPa) = 52.02073 59.03007 55.52540
# Shear Modulus (GPa) = 32.06290 35.89208 33.97749
#
# Velocity S-wave (km/s) = 3.84353 4.06657 3.95662
# Velocity P-wave (km/s) = 6.60796 7.01762 6.81587
#
# Compressibility (1/GPa) = 0.01922310
#
# Stress axis : x y z
#
# Youngs Moduli (GPa) = 67.65986 108.63727 129.90733
#
# Poissons Ratio (x) = 0.28172 0.14782
# Poissons Ratio (y) = 0.17546 0.32459
# Poissons Ratio (z) = 0.07699 0.27144
#
# Static dielectric constant tensor:
#      x y z
#    x 1.770840 0.000000 0.000000 
#    y 0.000000 1.787420 0.000000 
#    z 0.000000 0.000000 1.785640 
# 
# From -- ./inp_files/45298.got.cif
#   From: 2010.05.17/outbox.cif.g08.bks.cpg/sg72_23_cif.got.tgz:45298.got - 2010.06.03 17:03:01.
