data_PCOD9528842
_publ_section_title
;
Structure prediction by ZEFSAII (Michael W. Deem and Ramdas Pophale) SiO2 
 PCOD9528842
Probable space group: I B A M
;
_chemical_formula_sum "Si O2"
_cell_formula_units_Z 68
_cell_length_a 9.285709
_cell_length_b 24.878089
_cell_length_c 14.841340
_cell_angle_alpha 90.000000
_cell_angle_beta 90.000000
_cell_angle_gamma 90.000000
_cell_volume 3428.508267
_symmetry_space_group_name_H-M "I B A M"
_symmetry_group_IT_number 72
_symmetry_cell_setting 'orthorhombic'
loop_
_space_group_symop_operation_xyz
x,y,z
-x,-y,z
x,-y,1/2-z
-x,y,1/2-z
-x,-y,-z
x,y,-z
-x,y,1/2+z
x,-y,1/2+z
1/2+x,1/2+y,1/2+z
1/2-x,1/2-y,1/2+z
1/2+x,1/2-y,-z
1/2-x,1/2+y,-z
1/2-x,1/2-y,1/2-z
1/2+x,1/2+y,1/2-z
1/2-x,1/2+y,z
1/2+x,1/2-y,z
loop_
_atom_site_type_symbol
_atom_site_label
_atom_site_fract_x
_atom_site_fract_y
_atom_site_fract_z
Si Si1 0.238504 0.825216 0.689176
Si Si2 0.317077 0.412219 0.848775
Si Si3 0.500000 0.249073 0.750000
Si Si4 0.700129 0.880967 0.000000
Si Si5 0.000000 0.000000 0.750000
Si Si6 0.522937 0.565055 0.500000
Si Si7 0.913797 0.443082 0.500000
O O1 0.221067 0.866978 0.774157
O O2 0.379315 0.788477 0.705415
O O3 0.096093 0.788239 0.688138
O O4 0.262326 0.851794 0.592809
O O5 0.388241 0.462334 0.800164
O O6 0.449694 0.402388 0.917650
O O7 0.185702 0.431857 0.912187
O O8 0.536059 0.898028 0.000000
O O9 0.806374 0.931703 0.000000
O O10 0.500000 0.500000 0.500000
O O11 0.000000 0.500000 0.500000
#
# Coordination Sequence:
#
# PCOD9528842 Si02
#       7
#    16  16   8   8   4   8   8
#     4  11  24  43  68  97 128 178 219 288 334 407
#     4  11  24  42  67  96 135 177 230 271 335 390
#     4  10  23  46  68  92 130 166 233 278 354 390
#     4  12  24  42  65  98 138 171 227 270 347 399
#     4  12  22  38  70  96 128 186 236 258 316 418
#     4  11  21  39  65  95 132 176 232 274 310 409
#     4  11  27  42  61 100 147 181 213 274 337 406
#
# _framework density 19.833698999999999
#
# number of rings (size 3 to 8) (size 9 to 14) (size 15 to 20)
#    0.000    0.941    1.176    6.353    3.294    0.941 
#    0.000    9.412    0.000    0.000    0.000    0.000 
#    0.000    0.000    0.000    0.000    0.000    0.000 
#
# Total GULP energy -189457.957718 kJ/mol
# GULP energy per Si atom -5572.292874 kJ/mol
# Density = 1.978856 g / cm^3
# Si number density = 19.833699 Si / 1000 Ang^3
#
#
#
# Elastic Constant Matrix: (Units=GPa)
#
#
# Indices 1 2 3 4 5 6 
#
# 1 178.0112 69.5556 66.1496 0.0000 0.0000 0.0000
# 2 69.5556 115.2321 80.2794 0.0001 0.0000 0.0000
# 3 66.1496 80.2794 151.2050 0.0003 0.0000 0.0000
# 4 0.0000 0.0001 0.0003 51.7104 -0.0001 0.0000
# 5 0.0000 0.0000 0.0000 -0.0001 30.5192 0.0000
# 6 0.0000 0.0000 0.0000 0.0000 0.0000 48.3873
#
#
#
# Elastic Compliance Matrix: (Units=1/GPa)
#
#
# Indices 1 2 3 4 5 6 
#
# 1 0.007533 -0.003573 -0.001399 0.000000 0.000000 0.000000
# 2 -0.003573 0.015467 -0.006649 0.000000 0.000000 0.000000
# 3 -0.001399 -0.006649 0.010756 0.000000 0.000000 0.000000
# 4 0.000000 0.000000 0.000000 0.019338 0.000000 0.000000
# 5 0.000000 0.000000 0.000000 0.000000 0.032766 0.000000
# 6 0.000000 0.000000 0.000000 0.000000 0.000000 0.020667
#
#
# Mechanical properties :
#
#
# Convention : Reuss Voigt Hill
#
# Bulk Modulus (GPa) = 95.10226 97.37970 96.24098
# Shear Modulus (GPa) = 37.51706 41.35429 39.43568
#
# Velocity S-wave (km/s) = 4.35395 4.57119 4.46389
# Velocity P-wave (km/s) = 8.56328 8.77871 8.67166
#
# Compressibility (1/GPa) = 0.01051500
#
# Stress axis : x y z
#
# Youngs Moduli (GPa) = 132.74132 64.65514 92.97526
#
# Poissons Ratio (x) = 0.23099 0.13006
# Poissons Ratio (y) = 0.47425 0.61817
# Poissons Ratio (z) = 0.18569 0.42987
#
# Static dielectric constant tensor:
#      x y z
#    x 1.690960 0.000000 0.000000 
#    y 0.000000 1.788830 0.000000 
#    z 0.000000 0.000000 1.811140 
# 
# From -- ./inp_files/18852.got.cif
#   From: 2010.05.17/outbox.cif.g08.bks.cpg/sg72_10_cif.got.tgz:18852.got - 2010.06.03 17:03:01.
