data_PCOD9528334
_publ_section_title
;
Structure prediction by ZEFSAII (Michael W. Deem and Ramdas Pophale) SiO2 
 PCOD9528334
Probable space group: I B A M
;
_chemical_formula_sum "Si O2"
_cell_formula_units_Z 88
_cell_length_a 31.166048
_cell_length_b 8.519591
_cell_length_c 17.116616
_cell_angle_alpha 90.000000
_cell_angle_beta 90.000000
_cell_angle_gamma 90.000000
_cell_volume 4544.837806
_symmetry_space_group_name_H-M "I B A M"
_symmetry_group_IT_number 72
_symmetry_cell_setting 'orthorhombic'
loop_
_space_group_symop_operation_xyz
x,y,z
-x,-y,z
x,-y,1/2-z
-x,y,1/2-z
-x,-y,-z
x,y,-z
-x,y,1/2+z
x,-y,1/2+z
1/2+x,1/2+y,1/2+z
1/2-x,1/2-y,1/2+z
1/2+x,1/2-y,-z
1/2-x,1/2+y,-z
1/2-x,1/2-y,1/2-z
1/2+x,1/2+y,1/2-z
1/2-x,1/2+y,z
1/2+x,1/2-y,z
loop_
_atom_site_type_symbol
_atom_site_label
_atom_site_fract_x
_atom_site_fract_y
_atom_site_fract_z
Si Si1 0.739729 0.500000 0.250000
Si Si2 0.236586 0.096439 0.000000
Si Si3 0.681424 0.726795 0.000000
Si Si4 0.387381 0.901051 0.829651
Si Si5 0.097916 0.289866 0.414482
Si Si6 0.549276 0.314509 0.740264
Si Si7 0.704600 0.225900 0.847026
O O1 0.711670 0.356142 0.219832
O O2 0.769330 0.427861 0.318698
O O3 0.222100 0.194232 0.924503
O O4 0.212139 0.927428 0.000000
O O5 0.288489 0.117820 0.000000
O O6 0.647685 0.732161 0.073030
O O7 0.423381 0.778181 0.804703
O O8 0.344571 0.815405 0.854985
O O9 0.377976 0.000000 0.750000
O O10 0.400382 0.026136 0.894690
O O11 0.078349 0.260052 0.500000
O O12 0.071292 0.218922 0.343440
O O13 0.550837 0.500000 0.750000
O O14 0.500000 0.262220 0.750000
#
# Coordination Sequence:
#
# PCOD9528334 Si02
#       7
#     8   8   8  16  16  16  16
#     4  10  24  40  58  84 130 164 228 268 328 384
#     4  12  26  38  64  89 130 184 233 275 323 390
#     4  10  26  42  62  95 137 181 226 278 334 368
#     4  10  22  38  63  91 127 170 214 266 332 392
#     4   9  23  43  67  94 138 171 217 275 332 395
#     4  10  23  45  73 101 129 167 215 275 342 417
#     4  11  24  39  59  91 123 176 218 279 322 384
#
# _framework density 19.362628000000001
#
# number of rings (size 3 to 8) (size 9 to 14) (size 15 to 20)
#    0.545    1.273    0.909    1.091   10.182    6.182 
#    0.000    4.545    0.000    0.000    0.000    0.000 
#    0.000    0.000    0.000    0.000    0.000    0.000 
#
# Total GULP energy -245481.279889 kJ/mol
# GULP energy per Si atom -5579.119997 kJ/mol
# Density = 1.931856 g / cm^3
# Si number density = 19.362628 Si / 1000 Ang^3
#
#
#
# Elastic Constant Matrix: (Units=GPa)
#
#
# Indices 1 2 3 4 5 6 
#
# 1 110.6041 41.3829 33.0501 0.0000 0.0000 0.0000
# 2 41.3829 81.6238 14.3848 0.0000 0.0000 0.0000
# 3 33.0501 14.3848 57.9695 0.0000 0.0000 0.0000
# 4 0.0000 0.0000 0.0000 20.6593 0.0000 0.0000
# 5 0.0000 0.0000 0.0000 0.0000 19.0985 0.0000
# 6 0.0000 0.0000 0.0000 0.0000 0.0000 32.0708
#
#
#
# Elastic Compliance Matrix: (Units=1/GPa)
#
#
# Indices 1 2 3 4 5 6 
#
# 1 0.012877 -0.005474 -0.005983 0.000000 0.000000 0.000000
# 2 -0.005474 0.015139 -0.000636 0.000000 0.000000 0.000000
# 3 -0.005983 -0.000636 0.020819 0.000000 0.000000 0.000000
# 4 0.000000 0.000000 0.000000 0.048404 0.000000 0.000000
# 5 0.000000 0.000000 0.000000 0.000000 0.052360 0.000000
# 6 0.000000 0.000000 0.000000 0.000000 0.000000 0.031181
#
#
# Mechanical properties :
#
#
# Convention : Reuss Voigt Hill
#
# Bulk Modulus (GPa) = 40.56928 47.53701 44.05315
# Shear Modulus (GPa) = 23.45390 25.12434 24.28912
#
# Velocity S-wave (km/s) = 3.48415 3.60609 3.54564
# Velocity P-wave (km/s) = 6.09783 6.47632 6.28992
#
# Compressibility (1/GPa) = 0.02464919
#
# Stress axis : x y z
#
# Youngs Moduli (GPa) = 77.65534 66.05544 48.03202
#
# Poissons Ratio (x) = 0.36161 0.28739
# Poissons Ratio (y) = 0.42511 0.03053
# Poissons Ratio (z) = 0.46464 0.04198
#
# Static dielectric constant tensor:
#      x y z
#    x 1.675860 0.000000 0.000000 
#    y 0.000000 1.678540 0.000000 
#    z 0.000000 0.000000 1.709430 
# 
# From -- ./inp_files/34248.got.cif
#   From: 2010.05.17/outbox.cif.g08.bks.cpg/sg72_18_cif.got.tgz:34248.got - 2010.06.03 17:03:01.
