data_PCOD9528258
_publ_section_title
;
Structure prediction by ZEFSAII (Michael W. Deem and Ramdas Pophale) SiO2 
 PCOD9528258
Probable space group: I B A M
;
_chemical_formula_sum "Si O2"
_cell_formula_units_Z 64
_cell_length_a 5.206258
_cell_length_b 23.516251
_cell_length_c 25.443837
_cell_angle_alpha 90.000000
_cell_angle_beta 90.000000
_cell_angle_gamma 90.000000
_cell_volume 3115.131453
_symmetry_space_group_name_H-M "I B A M"
_symmetry_group_IT_number 72
_symmetry_cell_setting 'orthorhombic'
loop_
_space_group_symop_operation_xyz
x,y,z
-x,-y,z
x,-y,1/2-z
-x,y,1/2-z
-x,-y,-z
x,y,-z
-x,y,1/2+z
x,-y,1/2+z
1/2+x,1/2+y,1/2+z
1/2-x,1/2-y,1/2+z
1/2+x,1/2-y,-z
1/2-x,1/2+y,-z
1/2-x,1/2-y,1/2-z
1/2+x,1/2+y,1/2-z
1/2-x,1/2+y,z
1/2+x,1/2-y,z
loop_
_atom_site_type_symbol
_atom_site_label
_atom_site_fract_x
_atom_site_fract_y
_atom_site_fract_z
Si Si1 0.111070 0.397197 0.119289
Si Si2 0.516934 0.784993 0.813213
Si Si3 0.747161 0.436757 0.273426
Si Si4 0.090146 0.934437 0.561459
O O1 0.053918 0.339258 0.151013
O O2 0.226072 0.438200 0.164766
O O3 0.345169 0.396068 0.078133
O O4 0.846119 0.420359 0.094781
O O5 0.500000 0.793069 0.750000
O O6 0.802570 0.762949 0.825303
O O7 0.741822 0.500000 0.250000
O O8 0.500000 0.405952 0.250000
O O9 0.000000 0.410004 0.250000
O O10 0.150882 0.926355 0.500000
O O11 0.000000 0.000000 0.568140
#
# Coordination Sequence:
#
# PCOD9528258 Si02
#       4
#    16  16  16  16
#     4  12  23  40  70  91 126 177 213 264 331 374
#     4  10  22  41  65  95 131 167 213 259 314 395
#     4  10  22  34  52  88 128 159 196 251 306 379
#     4  11  26  44  64  93 129 172 223 268 321 390
#
# _framework density 20.544878000000001
#
# number of rings (size 3 to 8) (size 9 to 14) (size 15 to 20)
#    0.000    1.250    0.000    5.250   10.500    5.000 
#    0.000    0.000    0.000   15.000    0.000    0.000 
#    0.000    0.000    0.000    0.000    0.000    0.000 
#
# Total GULP energy -178699.722015 kJ/mol
# GULP energy per Si atom -5584.366313 kJ/mol
# Density = 2.049812 g / cm^3
# Si number density = 20.544878 Si / 1000 Ang^3
#
#
#
# Elastic Constant Matrix: (Units=GPa)
#
#
# Indices 1 2 3 4 5 6 
#
# 1 172.8342 12.2736 51.3255 0.0000 0.0000 0.0000
# 2 12.2736 74.9556 39.9299 0.0000 0.0000 0.0000
# 3 51.3255 39.9299 125.7411 0.0000 0.0000 0.0000
# 4 0.0000 0.0000 0.0000 26.8814 0.0000 0.0000
# 5 0.0000 0.0000 0.0000 0.0000 44.2800 0.0000
# 6 0.0000 0.0000 0.0000 0.0000 0.0000 10.0110
#
#
#
# Elastic Compliance Matrix: (Units=1/GPa)
#
#
# Indices 1 2 3 4 5 6 
#
# 1 0.006595 0.000426 -0.002827 0.000000 0.000000 0.000000
# 2 0.000426 0.016085 -0.005282 0.000000 0.000000 0.000000
# 3 -0.002827 -0.005282 0.010784 0.000000 0.000000 0.000000
# 4 0.000000 0.000000 0.000000 0.037200 0.000000 0.000000
# 5 0.000000 0.000000 0.000000 0.000000 0.022584 0.000000
# 6 0.000000 0.000000 0.000000 0.000000 0.000000 0.099890
#
#
# Mechanical properties :
#
#
# Convention : Reuss Voigt Hill
#
# Bulk Modulus (GPa) = 55.25322 64.50990 59.88156
# Shear Modulus (GPa) = 23.30596 34.23463 28.77029
#
# Velocity S-wave (km/s) = 3.37173 4.08650 3.74620
# Velocity P-wave (km/s) = 6.48925 7.33033 6.92257
#
# Compressibility (1/GPa) = 0.01809849
#
# Stress axis : x y z
#
# Youngs Moduli (GPa) = 151.62380 62.16899 92.72752
#
# Poissons Ratio (x) = -0.02650 0.26218
# Poissons Ratio (y) = -0.06463 0.48978
# Poissons Ratio (z) = 0.42871 0.32837
#
# Static dielectric constant tensor:
#      x y z
#    x 1.800220 0.000000 0.000000 
#    y 0.000000 1.638490 0.000000 
#    z 0.000000 0.000000 1.781680 
# 
# From -- ./inp_files/41334.got.cif
#   From: 2010.05.17/outbox.cif.g08.bks.cpg/sg72_21_cif.got.tgz:41334.got - 2010.06.03 17:03:01.
