data_PCOD9528849
_publ_section_title
;
Structure prediction by ZEFSAII (Michael W. Deem and Ramdas Pophale) SiO2 
 PCOD9528849
Probable space group: I B A M
;
_chemical_formula_sum "Si O2"
_cell_formula_units_Z 108
_cell_length_a 22.912751
_cell_length_b 15.731299
_cell_length_c 14.582184
_cell_angle_alpha 90.000000
_cell_angle_beta 90.000000
_cell_angle_gamma 90.000000
_cell_volume 5256.109389
_symmetry_space_group_name_H-M "I B A M"
_symmetry_group_IT_number 72
_symmetry_cell_setting 'orthorhombic'
loop_
_space_group_symop_operation_xyz
x,y,z
-x,-y,z
x,-y,1/2-z
-x,y,1/2-z
-x,-y,-z
x,y,-z
-x,y,1/2+z
x,-y,1/2+z
1/2+x,1/2+y,1/2+z
1/2-x,1/2-y,1/2+z
1/2+x,1/2-y,-z
1/2-x,1/2+y,-z
1/2-x,1/2-y,1/2-z
1/2+x,1/2+y,1/2-z
1/2-x,1/2+y,z
1/2+x,1/2-y,z
loop_
_atom_site_type_symbol
_atom_site_label
_atom_site_fract_x
_atom_site_fract_y
_atom_site_fract_z
Si Si1 0.284165 0.135082 0.890804
Si Si2 0.569448 0.398418 0.253193
Si Si3 0.483015 0.878163 0.352411
Si Si4 0.111639 0.763235 0.890835
Si Si5 0.886338 0.624062 0.102906
Si Si6 0.164683 0.500000 0.750000
Si Si7 0.500000 0.000000 0.000000
Si Si8 0.348775 0.687770 0.106461
O O1 0.326763 0.215959 0.872773
O O2 0.300612 0.059539 0.821475
O O3 0.216835 0.158014 0.874877
O O4 0.291622 0.113982 0.000000
O O5 0.576482 0.500000 0.250000
O O6 0.500000 0.379591 0.250000
O O7 0.599432 0.351738 0.339924
O O8 0.603210 0.357574 0.167942
O O9 0.500000 0.901847 0.250000
O O10 0.437445 0.802149 0.354256
O O11 0.544832 0.854594 0.398705
O O12 0.461594 0.952884 0.418715
O O13 0.105269 0.772260 0.000000
O O14 0.872547 0.561265 0.185012
O O15 0.852650 0.711260 0.120661
O O16 0.871696 0.592717 0.000000
O O17 0.361689 0.671509 0.000000
#
# Coordination Sequence:
#
# PCOD9528849 Si02
#       8
#    16  16  16  16  16   8   4  16
#     4  10  24  43  66  96 131 175 223 268 324 403
#     4  11  25  43  69 103 131 165 227 290 347 414
#     4  12  24  38  62  93 134 186 220 271 338 407
#     4  11  23  44  66  94 135 179 223 279 340 403
#     4  11  24  40  61  90 126 169 218 264 325 403
#     4  12  24  36  65  96 131 172 214 274 322 392
#     4  12  26  36  56  98 140 174 226 276 324 412
#     4  10  23  47  69  90 129 175 216 270 336 398
#
# _framework density 20.547516999999999
#
# number of rings (size 3 to 8) (size 9 to 14) (size 15 to 20)
#    0.000    1.037    1.481    4.667    5.185    4.741 
#    0.000    1.481    0.000    0.000    0.000    0.000 
#    0.000    0.000    0.000    0.000    0.000    0.000 
#
# Total GULP energy -301461.398515 kJ/mol
# GULP energy per Si atom -5582.618491 kJ/mol
# Density = 2.050075 g / cm^3
# Si number density = 20.547517 Si / 1000 Ang^3
#
#
#
# Elastic Constant Matrix: (Units=GPa)
#
#
# Indices 1 2 3 4 5 6 
#
# 1 124.8371 64.3046 76.7171 0.0000 0.0000 0.0000
# 2 64.3046 101.2247 74.5444 0.0000 0.0000 0.0000
# 3 76.7171 74.5444 168.2970 0.0000 0.0000 0.0000
# 4 0.0000 0.0000 0.0000 41.6381 0.0000 0.0000
# 5 0.0000 0.0000 0.0000 0.0000 12.3475 0.0000
# 6 0.0000 0.0000 0.0000 0.0000 0.0000 23.3944
#
#
#
# Elastic Compliance Matrix: (Units=1/GPa)
#
#
# Indices 1 2 3 4 5 6 
#
# 1 0.013092 -0.005820 -0.003390 0.000000 0.000000 0.000000
# 2 -0.005820 0.017249 -0.004987 0.000000 0.000000 0.000000
# 3 -0.003390 -0.004987 0.009696 0.000000 0.000000 0.000000
# 4 0.000000 0.000000 0.000000 0.024016 0.000000 0.000000
# 5 0.000000 0.000000 0.000000 0.000000 0.080988 0.000000
# 6 0.000000 0.000000 0.000000 0.000000 0.000000 0.042745
#
#
# Mechanical properties :
#
#
# Convention : Reuss Voigt Hill
#
# Bulk Modulus (GPa) = 85.89241 91.72121 88.80681
# Shear Modulus (GPa) = 22.72094 27.39552 25.05823
#
# Velocity S-wave (km/s) = 3.32893 3.65537 3.49596
# Velocity P-wave (km/s) = 7.52783 7.90893 7.72073
#
# Compressibility (1/GPa) = 0.01164247
#
# Stress axis : x y z
#
# Youngs Moduli (GPa) = 76.38426 57.97408 103.13590
#
# Poissons Ratio (x) = 0.33744 0.34960
# Poissons Ratio (y) = 0.44459 0.51434
# Poissons Ratio (z) = 0.25892 0.28912
#
# Static dielectric constant tensor:
#      x y z
#    x 1.746520 0.000000 0.000000 
#    y 0.000000 1.785020 0.000000 
#    z 0.000000 0.000000 1.727550 
# 
# From -- ./inp_files/25238.got.cif
#   From: 2010.05.17/outbox.cif.g08.bks.cpg/sg72_13_cif.got.tgz:25238.got - 2010.06.03 17:03:01.
