data_PCOD9528312
_publ_section_title
;
Structure prediction by ZEFSAII (Michael W. Deem and Ramdas Pophale) SiO2 
 PCOD9528312
Probable space group: I B A M
;
_chemical_formula_sum "Si O2"
_cell_formula_units_Z 96
_cell_length_a 20.743332
_cell_length_b 29.472284
_cell_length_c 8.720296
_cell_angle_alpha 90.000000
_cell_angle_beta 90.000000
_cell_angle_gamma 90.000000
_cell_volume 5331.182363
_symmetry_space_group_name_H-M "I B A M"
_symmetry_group_IT_number 72
_symmetry_cell_setting 'orthorhombic'
loop_
_space_group_symop_operation_xyz
x,y,z
-x,-y,z
x,-y,1/2-z
-x,y,1/2-z
-x,-y,-z
x,y,-z
-x,y,1/2+z
x,-y,1/2+z
1/2+x,1/2+y,1/2+z
1/2-x,1/2-y,1/2+z
1/2+x,1/2-y,-z
1/2-x,1/2+y,-z
1/2-x,1/2-y,1/2-z
1/2+x,1/2+y,1/2-z
1/2-x,1/2+y,z
1/2+x,1/2-y,z
loop_
_atom_site_type_symbol
_atom_site_label
_atom_site_fract_x
_atom_site_fract_y
_atom_site_fract_z
Si Si1 0.672853 0.949727 0.315231
Si Si2 0.306712 0.411950 0.679360
Si Si3 0.935981 0.949680 0.318853
Si Si4 0.209643 0.805413 0.319827
Si Si5 0.928285 0.629839 0.185766
Si Si6 0.347309 0.215767 0.682188
O O1 0.676168 0.951793 0.500000
O O2 0.741204 0.932180 0.249920
O O3 0.618598 0.912268 0.272410
O O4 0.659302 0.000000 0.250000
O O5 0.310140 0.425189 0.500000
O O6 0.369132 0.428363 0.768560
O O7 0.307913 0.357638 0.689984
O O8 0.942048 0.951634 0.500000
O O9 0.000000 0.926522 0.250000
O O10 0.934360 0.000000 0.250000
O O11 0.224207 0.795684 0.500000
O O12 0.274776 0.799243 0.223648
O O13 0.155424 0.768809 0.269287
O O14 0.896137 0.677394 0.242785
O O15 0.000000 0.624477 0.250000
O O16 0.930982 0.630778 0.000000
O O17 0.356846 0.215316 0.500000
#
# Coordination Sequence:
#
# PCOD9528312 Si02
#       6
#    16  16  16  16  16  16
#     4  11  23  39  57  82 111 147 190 242 292 340
#     4  11  21  35  56  86 117 149 185 230 279 334
#     4  11  22  38  58  80 109 147 187 229 276 333
#     4   9  18  31  55  84 111 141 177 223 272 324
#     4  10  22  38  58  80 111 150 190 236 288 342
#     4   9  17  34  55  80 110 141 179 225 273 327
#
# _framework density 18.007262000000001
#
# number of rings (size 3 to 8) (size 9 to 14) (size 15 to 20)
#    0.000    1.833    1.667    3.500    0.000    3.000 
#    0.000    2.500    0.000    2.000    0.000    0.000 
#    0.000    0.000    0.000    0.000    0.000    0.000 
#
# Total GULP energy -267627.617997 kJ/mol
# GULP energy per Si atom -5575.575375 kJ/mol
# Density = 1.796628 g / cm^3
# Si number density = 18.007262 Si / 1000 Ang^3
#
#
#
# Elastic Constant Matrix: (Units=GPa)
#
#
# Indices 1 2 3 4 5 6 
#
# 1 131.3934 48.0390 33.3171 0.0000 0.0000 0.0000
# 2 48.0390 82.2488 25.6091 0.0000 0.0000 0.0000
# 3 33.3171 25.6091 58.9982 0.0000 0.0000 0.0000
# 4 0.0000 0.0000 0.0000 16.1491 0.0000 0.0000
# 5 0.0000 0.0000 0.0000 0.0000 28.1034 0.0000
# 6 0.0000 0.0000 0.0000 0.0000 0.0000 -0.2683
#
#
#
# Elastic Compliance Matrix: (Units=1/GPa)
#
#
# Indices 1 2 3 4 5 6 
#
# 1 0.010338 -0.004880 -0.003720 0.000000 0.000000 0.000000
# 2 -0.004880 0.016362 -0.004346 0.000000 0.000000 0.000000
# 3 -0.003720 -0.004346 0.020937 0.000000 0.000000 0.000000
# 4 0.000000 0.000000 0.000000 0.061923 0.000000 0.000000
# 5 0.000000 0.000000 0.000000 0.000000 0.035583 0.000000
# 6 0.000000 0.000000 0.000000 0.000000 0.000000 -3.726641
#
#
# Mechanical properties :
#
#
# Convention : Reuss Voigt Hill
#
# Bulk Modulus (GPa) = 45.98852 54.06341 50.02597
# Shear Modulus (GPa) = -1.40910 19.84185 9.21637
#
# Velocity S-wave (km/s) = -0.88556 3.32306 2.26479
# Velocity P-wave (km/s) = 4.95466 6.69417 5.88900
#
# Compressibility (1/GPa) = 0.02174456
#
# Stress axis : x y z
#
# Youngs Moduli (GPa) = 96.72910 61.11820 47.76256
#
# Poissons Ratio (x) = 0.29826 0.17767
# Poissons Ratio (y) = 0.47204 0.20759
# Poissons Ratio (z) = 0.35982 0.26564
#
# Static dielectric constant tensor:
#      x y z
#    x 1.607640 0.000000 0.000000 
#    y 0.000000 1.638580 0.000000 
#    z 0.000000 0.000000 1.616830 
# 
# From -- ./inp_files/5969.got.cif
#   From: 2010.05.17/outbox.cif.g08.bks.cpg/sg72_3_cif.got.tgz:5969.got - 2010.06.03 17:03:01.
