data_PCOD9528675
_publ_section_title
;
Structure prediction by ZEFSAII (Michael W. Deem and Ramdas Pophale) SiO2 
 PCOD9528675
Probable space group: I B A M
;
_chemical_formula_sum "Si O2"
_cell_formula_units_Z 80
_cell_length_a 9.165188
_cell_length_b 16.023959
_cell_length_c 24.533234
_cell_angle_alpha 90.000000
_cell_angle_beta 90.000000
_cell_angle_gamma 90.000000
_cell_volume 3603.014452
_symmetry_space_group_name_H-M "I B A M"
_symmetry_group_IT_number 72
_symmetry_cell_setting 'orthorhombic'
loop_
_space_group_symop_operation_xyz
x,y,z
-x,-y,z
x,-y,1/2-z
-x,y,1/2-z
-x,-y,-z
x,y,-z
-x,y,1/2+z
x,-y,1/2+z
1/2+x,1/2+y,1/2+z
1/2-x,1/2-y,1/2+z
1/2+x,1/2-y,-z
1/2-x,1/2+y,-z
1/2-x,1/2-y,1/2-z
1/2+x,1/2+y,1/2-z
1/2-x,1/2+y,z
1/2+x,1/2-y,z
loop_
_atom_site_type_symbol
_atom_site_label
_atom_site_fract_x
_atom_site_fract_y
_atom_site_fract_z
Si Si1 0.655978 0.964402 0.832384
Si Si2 0.822509 0.716916 0.894613
Si Si3 0.877276 0.635386 0.437009
Si Si4 0.632517 0.615662 0.177971
Si Si5 0.339036 0.328334 0.294976
O O1 0.655666 0.941737 0.896735
O O2 0.687569 0.874469 0.806365
O O3 0.500000 0.000000 0.817803
O O4 0.770468 0.034320 0.814001
O O5 0.746746 0.793616 0.926168
O O6 0.692006 0.654309 0.878003
O O7 0.868302 0.752008 0.835023
O O8 0.963519 0.674342 0.921287
O O9 0.877243 0.611886 0.500000
O O10 0.649444 0.677963 0.230235
O O11 0.459644 0.605339 0.181838
#
# Coordination Sequence:
#
# PCOD9528675 Si02
#       5
#    16  16  16  16  16
#     4  11  23  40  60  93 127 165 210 262 302 380
#     4  11  21  42  64  94 125 161 215 269 314 382
#     4  11  24  43  66  90 123 168 218 273 323 366
#     4  11  21  40  61  93 127 174 199 252 322 384
#     4  10  23  38  64  89 133 166 208 246 320 390
#
# _framework density 22.203631000000001
#
# number of rings (size 3 to 8) (size 9 to 14) (size 15 to 20)
#    0.000    1.200    4.000    2.400    0.000    3.600 
#    0.000    0.000    0.000    2.400    0.000    0.000 
#    0.000    0.000    0.000    0.000    0.000    0.000 
#
# Total GULP energy -223233.609807 kJ/mol
# GULP energy per Si atom -5580.840245 kJ/mol
# Density = 2.215309 g / cm^3
# Si number density = 22.203631 Si / 1000 Ang^3
#
#
#
# Elastic Constant Matrix: (Units=GPa)
#
#
# Indices 1 2 3 4 5 6 
#
# 1 77.2433 2.3777 14.2543 0.0000 0.0000 0.0000
# 2 2.3777 23.7634 2.6255 0.0000 0.0000 0.0000
# 3 14.2543 2.6255 102.2859 0.0000 0.0000 0.0000
# 4 0.0000 0.0000 0.0000 21.6227 0.0000 0.0000
# 5 0.0000 0.0000 0.0000 0.0000 27.5224 0.0000
# 6 0.0000 0.0000 0.0000 0.0000 0.0000 35.6178
#
#
#
# Elastic Compliance Matrix: (Units=1/GPa)
#
#
# Indices 1 2 3 4 5 6 
#
# 1 0.013318 -0.001131 -0.001827 0.000000 0.000000 0.000000
# 2 -0.001131 0.042297 -0.000928 0.000000 0.000000 0.000000
# 3 -0.001827 -0.000928 0.010055 0.000000 0.000000 0.000000
# 4 0.000000 0.000000 0.000000 0.046248 0.000000 0.000000
# 5 0.000000 0.000000 0.000000 0.000000 0.036334 0.000000
# 6 0.000000 0.000000 0.000000 0.000000 0.000000 0.028076
#
#
# Mechanical properties :
#
#
# Convention : Reuss Voigt Hill
#
# Bulk Modulus (GPa) = 17.27154 26.86749 22.06951
# Shear Modulus (GPa) = 24.58224 29.22159 26.90191
#
# Velocity S-wave (km/s) = 3.33096 3.63171 3.48458
# Velocity P-wave (km/s) = 4.75282 5.45092 5.11380
#
# Compressibility (1/GPa) = 0.05789872
#
# Stress axis : x y z
#
# Youngs Moduli (GPa) = 75.08603 23.64219 99.45358
#
# Poissons Ratio (x) = 0.02673 0.18170
# Poissons Ratio (y) = 0.08490 0.09230
# Poissons Ratio (z) = 0.13718 0.02194
#
# Static dielectric constant tensor:
#      x y z
#    x 1.915890 0.000000 0.000000 
#    y 0.000000 1.882950 0.000000 
#    z 0.000000 0.000000 1.804390 
# 
# From -- ./inp_files/47156.got.cif
#   From: 2010.05.17/outbox.cif.g08.bks.cpg/sg72_24_cif.got.tgz:47156.got - 2010.06.03 17:03:01.
