data_PCOD9528964
_publ_section_title
;
Structure prediction by ZEFSAII (Michael W. Deem and Ramdas Pophale) SiO2 
 PCOD9528964
Probable space group: I B A M
;
_chemical_formula_sum "Si O2"
_cell_formula_units_Z 116
_cell_length_a 23.142143
_cell_length_b 9.144177
_cell_length_c 25.482804
_cell_angle_alpha 90.000000
_cell_angle_beta 90.000000
_cell_angle_gamma 90.000000
_cell_volume 5392.565273
_symmetry_space_group_name_H-M "I B A M"
_symmetry_group_IT_number 72
_symmetry_cell_setting 'orthorhombic'
loop_
_space_group_symop_operation_xyz
x,y,z
-x,-y,z
x,-y,1/2-z
-x,y,1/2-z
-x,-y,-z
x,y,-z
-x,y,1/2+z
x,-y,1/2+z
1/2+x,1/2+y,1/2+z
1/2-x,1/2-y,1/2+z
1/2+x,1/2-y,-z
1/2-x,1/2+y,-z
1/2-x,1/2-y,1/2-z
1/2+x,1/2+y,1/2-z
1/2-x,1/2+y,z
1/2+x,1/2-y,z
loop_
_atom_site_type_symbol
_atom_site_label
_atom_site_fract_x
_atom_site_fract_y
_atom_site_fract_z
Si Si1 0.659788 0.105219 0.295110
Si Si2 0.000000 0.500000 0.000000
Si Si3 0.711173 0.332739 0.058326
Si Si4 0.097733 0.990536 0.406135
Si Si5 0.971222 0.340399 0.201623
Si Si6 0.008785 0.766904 0.084759
Si Si7 0.785150 0.465571 0.617892
Si Si8 0.823369 0.064185 0.808369
O O1 0.594561 0.142889 0.281753
O O2 0.688135 0.262546 0.302342
O O3 0.683955 0.000000 0.250000
O O4 0.659995 0.019992 0.350153
O O5 0.997642 0.369828 0.046090
O O6 0.655422 0.436568 0.064612
O O7 0.767539 0.429191 0.070549
O O8 0.709053 0.198869 0.098779
O O9 0.712884 0.271807 0.000000
O O10 0.050240 0.862057 0.411515
O O11 0.063650 0.129672 0.429420
O O12 0.122362 0.028434 0.347244
O O13 0.978229 0.275016 0.144701
O O14 0.000000 0.500000 0.198206
O O15 0.000000 0.255378 0.250000
O O16 0.732709 0.490010 0.659400
O O17 0.830167 0.000000 0.750000
#
# Coordination Sequence:
#
# PCOD9528964 Si02
#       8
#    16   4  16  16  16  16  16  16
#     4  12  25  41  71 103 141 188 228 294 352 423
#     4  12  28  42  78 100 144 182 256 302 352 418
#     4  11  25  46  72 100 132 188 241 303 360 426
#     4  10  26  45  71 100 146 184 235 290 361 429
#     4  11  23  42  66 103 143 181 227 284 346 414
#     4  11  25  47  69 106 144 187 236 298 351 434
#     4  11  25  46  69  99 144 179 238 298 360 429
#     4  11  25  45  67 107 141 188 235 287 365 437
#
# _framework density 21.511096999999999
#
# number of rings (size 3 to 8) (size 9 to 14) (size 15 to 20)
#    0.000    0.966    4.828    0.828    9.655    1.655 
#    0.000    1.379    4.552    0.000    0.000    0.000 
#    0.000    0.000    0.000    0.000    0.000    0.000 
#
# Total GULP energy -323306.923021 kJ/mol
# GULP energy per Si atom -5574.257293 kJ/mol
# Density = 2.146214 g / cm^3
# Si number density = 21.511097 Si / 1000 Ang^3
#
#
#
# Elastic Constant Matrix: (Units=GPa)
#
#
# Indices 1 2 3 4 5 6 
#
# 1 51.0630 2.1396 24.7547 0.0000 0.0000 0.0000
# 2 2.1396 124.9553 55.8978 0.0000 0.0000 0.0000
# 3 24.7547 55.8978 136.1656 0.0000 0.0000 0.0000
# 4 0.0000 0.0000 0.0000 27.8096 0.0000 0.0000
# 5 0.0000 0.0000 0.0000 0.0000 15.4506 0.0000
# 6 0.0000 0.0000 0.0000 0.0000 0.0000 9.4051
#
#
#
# Elastic Compliance Matrix: (Units=1/GPa)
#
#
# Indices 1 2 3 4 5 6 
#
# 1 0.021771 0.001712 -0.004661 0.000000 0.000000 0.000000
# 2 0.001712 0.009938 -0.004391 0.000000 0.000000 0.000000
# 3 -0.004661 -0.004391 0.009994 0.000000 0.000000 0.000000
# 4 0.000000 0.000000 0.000000 0.035959 0.000000 0.000000
# 5 0.000000 0.000000 0.000000 0.000000 0.064722 0.000000
# 6 0.000000 0.000000 0.000000 0.000000 0.000000 0.106325
#
#
# Mechanical properties :
#
#
# Convention : Reuss Voigt Hill
#
# Bulk Modulus (GPa) = 37.00417 53.08536 45.04477
# Shear Modulus (GPa) = 18.35563 25.82586 22.09074
#
# Velocity S-wave (km/s) = 2.92432 3.46870 3.20808
# Velocity P-wave (km/s) = 5.35181 6.38547 5.89135
#
# Compressibility (1/GPa) = 0.02702398
#
# Stress axis : x y z
#
# Youngs Moduli (GPa) = 45.93169 100.62622 100.06147
#
# Poissons Ratio (x) = -0.17230 0.46638
# Poissons Ratio (y) = -0.07865 0.43936
# Poissons Ratio (z) = 0.21408 0.44184
#
# Static dielectric constant tensor:
#      x y z
#    x 1.799930 0.000000 0.000000 
#    y 0.000000 1.736340 0.000000 
#    z 0.000000 0.000000 1.815360 
# 
# From -- ./inp_files/49742.got.cif
#   From: 2010.05.17/outbox.cif.g08.bks.cpg/sg72_25_cif.got.tgz:49742.got - 2010.06.03 17:03:01.
