data_PCOD9528693
_publ_section_title
;
Structure prediction by ZEFSAII (Michael W. Deem and Ramdas Pophale) SiO2 
 PCOD9528693
Probable space group: I B A M
;
_chemical_formula_sum "Si O2"
_cell_formula_units_Z 116
_cell_length_a 10.138539
_cell_length_b 19.098218
_cell_length_c 27.188077
_cell_angle_alpha 90.000000
_cell_angle_beta 90.000000
_cell_angle_gamma 90.000000
_cell_volume 5264.373735
_symmetry_space_group_name_H-M "I B A M"
_symmetry_group_IT_number 72
_symmetry_cell_setting 'orthorhombic'
loop_
_space_group_symop_operation_xyz
x,y,z
-x,-y,z
x,-y,1/2-z
-x,y,1/2-z
-x,-y,-z
x,y,-z
-x,y,1/2+z
x,-y,1/2+z
1/2+x,1/2+y,1/2+z
1/2-x,1/2-y,1/2+z
1/2+x,1/2-y,-z
1/2-x,1/2+y,-z
1/2-x,1/2-y,1/2-z
1/2+x,1/2+y,1/2-z
1/2-x,1/2+y,z
1/2+x,1/2-y,z
loop_
_atom_site_type_symbol
_atom_site_label
_atom_site_fract_x
_atom_site_fract_y
_atom_site_fract_z
Si Si1 0.278830 0.410788 0.772995
Si Si2 0.847833 0.717262 0.442849
Si Si3 0.466013 0.582616 0.177683
Si Si4 0.679197 0.419500 0.919052
Si Si5 0.853567 0.470509 0.360101
Si Si6 0.000000 0.000000 0.500000
Si Si7 0.373388 0.218385 0.723180
Si Si8 0.127569 0.306790 0.110925
O O1 0.250000 0.250000 0.750000
O O2 0.393802 0.381912 0.809903
O O3 0.216499 0.472103 0.806460
O O4 0.152129 0.362983 0.765755
O O5 0.869359 0.734721 0.500000
O O6 0.769240 0.643395 0.439036
O O7 0.751718 0.774717 0.418118
O O8 0.989267 0.709012 0.416287
O O9 0.500000 0.500000 0.171864
O O10 0.401740 0.608941 0.127966
O O11 0.365784 0.585673 0.223714
O O12 0.771834 0.480796 0.897117
O O13 0.579459 0.454167 0.957378
O O14 0.857934 0.390477 0.379744
O O15 0.000000 0.500000 0.356054
O O16 0.500000 0.246105 0.750000
O O17 0.376690 0.227195 0.665189
#
# Coordination Sequence:
#
# PCOD9528693 Si02
#       8
#    16  16  16  16  16   4  16  16
#     4  10  23  39  64 102 141 186 242 285 359 440
#     4  12  27  52  77 107 141 195 254 320 384 447
#     4  11  22  40  66 100 141 190 232 294 364 430
#     4  12  25  44  77 103 149 187 245 313 381 450
#     4  11  23  47  75 108 150 195 242 304 382 455
#     4  12  24  48  66 118 136 184 258 304 390 448
#     4  11  26  44  68 105 144 197 245 297 367 454
#     4  11  27  50  76 107 150 197 247 312 380 449
#
# _framework density 22.03491
#
# number of rings (size 3 to 8) (size 9 to 14) (size 15 to 20)
#    0.000    0.828    4.138    2.069    5.793    3.310 
#    4.966    1.724    0.000    0.000    0.000    0.000 
#    0.000    0.000    0.000    0.000    0.000    0.000 
#
# Total GULP energy -323644.025243 kJ/mol
# GULP energy per Si atom -5580.069401 kJ/mol
# Density = 2.198476 g / cm^3
# Si number density = 22.034910 Si / 1000 Ang^3
#
#
#
# Elastic Constant Matrix: (Units=GPa)
#
#
# Indices 1 2 3 4 5 6 
#
# 1 130.6992 19.0650 49.6888 0.0000 0.0000 0.0000
# 2 19.0650 61.3935 7.7887 0.0000 0.0000 0.0000
# 3 49.6888 7.7887 134.5721 0.0000 0.0000 0.0000
# 4 0.0000 0.0000 0.0000 -0.0482 0.0000 0.0000
# 5 0.0000 0.0000 0.0000 0.0000 39.5344 0.0000
# 6 0.0000 0.0000 0.0000 0.0000 0.0000 42.2560
#
#
#
# Elastic Compliance Matrix: (Units=1/GPa)
#
#
# Indices 1 2 3 4 5 6 
#
# 1 0.009255 -0.002458 -0.003275 0.000000 0.000000 0.000000
# 2 -0.002458 0.017062 -0.000080 0.000000 0.000000 0.000000
# 3 -0.003275 -0.000080 0.008645 0.000000 0.000000 0.000000
# 4 0.000000 0.000000 0.000000-20.753328 0.000000 0.000000
# 5 0.000000 0.000000 0.000000 0.000000 0.025294 0.000000
# 6 0.000000 0.000000 0.000000 0.000000 0.000000 0.023665
#
#
# Mechanical properties :
#
#
# Convention : Reuss Voigt Hill
#
# Bulk Modulus (GPa) = 42.85363 53.30554 48.07959
# Shear Modulus (GPa) = -0.24213 33.02325 16.39056
#
# Velocity S-wave (km/s) = -0.33185 3.87548 2.73031
# Velocity P-wave (km/s) = 4.39812 6.65355 5.63973
#
# Compressibility (1/GPa) = 0.02333524
#
# Stress axis : x y z
#
# Youngs Moduli (GPa) = 108.05171 58.61000 115.67653
#
# Poissons Ratio (x) = 0.14409 0.37883
# Poissons Ratio (y) = 0.26564 0.00922
# Poissons Ratio (z) = 0.35386 0.00467
#
# Static dielectric constant tensor:
#      x y z
#    x 1.760200 0.000000 0.000000 
#    y 0.000000 2.055820 0.000000 
#    z 0.000000 0.000000 1.840060 
# 
# From -- ./inp_files/48211.got.cif
#   From: 2010.05.17/outbox.cif.g08.bks.cpg/sg72_25_cif.got.tgz:48211.got - 2010.06.03 17:03:01.
