data_PCOD9528862
_publ_section_title
;
Structure prediction by ZEFSAII (Michael W. Deem and Ramdas Pophale) SiO2 
 PCOD9528862
Probable space group: I B A M
;
_chemical_formula_sum "Si O2"
_cell_formula_units_Z 104
_cell_length_a 16.458552
_cell_length_b 18.694201
_cell_length_c 14.394646
_cell_angle_alpha 90.000000
_cell_angle_beta 90.000000
_cell_angle_gamma 90.000000
_cell_volume 4428.937185
_symmetry_space_group_name_H-M "I B A M"
_symmetry_group_IT_number 72
_symmetry_cell_setting 'orthorhombic'
loop_
_space_group_symop_operation_xyz
x,y,z
-x,-y,z
x,-y,1/2-z
-x,y,1/2-z
-x,-y,-z
x,y,-z
-x,y,1/2+z
x,-y,1/2+z
1/2+x,1/2+y,1/2+z
1/2-x,1/2-y,1/2+z
1/2+x,1/2-y,-z
1/2-x,1/2+y,-z
1/2-x,1/2-y,1/2-z
1/2+x,1/2+y,1/2-z
1/2-x,1/2+y,z
1/2+x,1/2-y,z
loop_
_atom_site_type_symbol
_atom_site_label
_atom_site_fract_x
_atom_site_fract_y
_atom_site_fract_z
Si Si1 0.000000 0.390199 0.250000
Si Si2 0.317844 0.650263 0.105844
Si Si3 0.773341 0.896020 0.396060
Si Si4 0.590759 0.512905 0.639595
Si Si5 0.935707 0.729477 0.889471
Si Si6 0.334930 0.117285 0.218190
Si Si7 0.885937 0.759437 0.609276
O O1 0.042495 0.340407 0.170721
O O2 0.080385 0.425653 0.293546
O O3 0.389553 0.593719 0.113482
O O4 0.356176 0.725389 0.140325
O O5 0.244904 0.608953 0.155599
O O6 0.294268 0.663233 0.000000
O O7 0.739451 0.889259 0.500000
O O8 0.703235 0.897325 0.319388
O O9 0.828615 0.826681 0.374994
O O10 0.837112 0.961344 0.394861
O O11 0.500000 0.500000 0.605262
O O12 0.590823 0.500000 0.750000
O O13 0.018713 0.775284 0.876141
O O14 0.928513 0.715137 0.000000
O O15 0.360487 0.195773 0.177788
O O16 0.878274 0.738263 0.500000
#
# Coordination Sequence:
#
# PCOD9528862 Si02
#       7
#     8  16  16  16  16  16  16
#     4  10  24  38  62  83 123 166 198 260 316 356
#     4  11  23  38  62  89 122 162 202 248 299 366
#     4  11  23  38  60  87 121 161 202 250 299 358
#     4  11  23  40  64  93 127 165 200 242 299 366
#     4   9  20  35  55  87 121 157 199 238 293 364
#     4  11  23  39  58  87 119 157 205 253 306 365
#     4   9  19  36  57  85 122 160 196 241 301 365
#
# _framework density 23.481930999999999
#
# number of rings (size 3 to 8) (size 9 to 14) (size 15 to 20)
#    0.000    1.692    1.538    2.308    6.462    4.923 
#    0.000    0.000    0.000    1.846    0.000    2.154 
#    0.000    0.000    0.000    0.000    0.000    0.000 
#
# Total GULP energy -290228.394187 kJ/mol
# GULP energy per Si atom -5581.315273 kJ/mol
# Density = 2.342848 g / cm^3
# Si number density = 23.481931 Si / 1000 Ang^3
#
#
#
# Elastic Constant Matrix: (Units=GPa)
#
#
# Indices 1 2 3 4 5 6 
#
# 1 152.5965 11.4432 26.0521 0.0000 0.0000 0.0000
# 2 11.4432 54.6684 0.8579 0.0000 0.0000 0.0000
# 3 26.0521 0.8579 84.5197 0.0000 0.0000 0.0000
# 4 0.0000 0.0000 0.0000 19.8494 0.0000 0.0000
# 5 0.0000 0.0000 0.0000 0.0000 -67.7674 0.0000
# 6 0.0000 0.0000 0.0000 0.0000 0.0000 21.8855
#
#
#
# Elastic Compliance Matrix: (Units=1/GPa)
#
#
# Indices 1 2 3 4 5 6 
#
# 1 0.007028 -0.001437 -0.002152 0.000000 0.000000 0.000000
# 2 -0.001437 0.018589 0.000254 0.000000 0.000000 0.000000
# 3 -0.002152 0.000254 0.012492 0.000000 0.000000 0.000000
# 4 0.000000 0.000000 0.000000 0.050379 0.000000 0.000000
# 5 0.000000 0.000000 0.000000 0.000000 -0.014756 0.000000
# 6 0.000000 0.000000 0.000000 0.000000 0.000000 0.045692
#
#
# Mechanical properties :
#
#
# Convention : Reuss Voigt Hill
#
# Bulk Modulus (GPa) = 31.80672 40.94345 36.37508
# Shear Modulus (GPa) = 36.60999 11.68892 24.14945
#
# Velocity S-wave (km/s) = 3.95279 2.23353 3.21039
# Velocity P-wave (km/s) = 5.86578 4.91177 5.40985
#
# Compressibility (1/GPa) = 0.03143990
#
# Stress axis : x y z
#
# Youngs Moduli (GPa) = 142.28011 53.79532 80.04968
#
# Poissons Ratio (x) = 0.07733 0.17225
# Poissons Ratio (y) = 0.20451 -0.02036
# Poissons Ratio (z) = 0.30616 -0.01368
#
# Static dielectric constant tensor:
#      x y z
#    x 1.978730 0.000000 0.000000 
#    y 0.000000 1.879710 0.000000 
#    z 0.000000 0.000000 1.918990 
# 
# From -- ./inp_files/23368.got.cif
#   From: 2010.05.17/outbox.cif.g08.bks.cpg/sg72_12_cif.got.tgz:23368.got - 2010.06.03 17:03:01.
