data_PCOD9528763
_publ_section_title
;
Structure prediction by ZEFSAII (Michael W. Deem and Ramdas Pophale) SiO2 
 PCOD9528763
Probable space group: I B A M
;
_chemical_formula_sum "Si O2"
_cell_formula_units_Z 48
_cell_length_a 21.801969
_cell_length_b 8.155143
_cell_length_c 11.232544
_cell_angle_alpha 90.000000
_cell_angle_beta 90.000000
_cell_angle_gamma 90.000000
_cell_volume 1997.125822
_symmetry_space_group_name_H-M "I B A M"
_symmetry_group_IT_number 72
_symmetry_cell_setting 'orthorhombic'
loop_
_space_group_symop_operation_xyz
x,y,z
-x,-y,z
x,-y,1/2-z
-x,y,1/2-z
-x,-y,-z
x,y,-z
-x,y,1/2+z
x,-y,1/2+z
1/2+x,1/2+y,1/2+z
1/2-x,1/2-y,1/2+z
1/2+x,1/2-y,-z
1/2-x,1/2+y,-z
1/2-x,1/2-y,1/2-z
1/2+x,1/2+y,1/2-z
1/2-x,1/2+y,z
1/2+x,1/2-y,z
loop_
_atom_site_type_symbol
_atom_site_label
_atom_site_fract_x
_atom_site_fract_y
_atom_site_fract_z
Si Si1 0.026936 0.686019 0.130296
Si Si2 0.647684 0.319035 0.721028
Si Si3 0.279747 0.102807 0.370232
O O1 0.099241 0.702762 0.155735
O O2 0.000000 0.500000 0.127718
O O3 0.000000 0.764846 0.250000
O O4 0.013051 0.757378 0.000000
O O5 0.622913 0.500000 0.750000
O O6 0.671835 0.247305 0.846811
O O7 0.709581 0.338546 0.643356
O O8 0.288366 0.028383 0.500000
O O9 0.289087 0.000000 0.250000
#
# Coordination Sequence:
#
# PCOD9528763 Si02
#       3
#    16  16  16
#     4  10  23  43  67  96 131 180 233 282 336 401
#     4  10  23  42  67 101 141 179 228 287 346 411
#     4  10  23  42  69 104 141 184 228 281 351 420
#
# _framework density 24.03454
#
# number of rings (size 3 to 8) (size 9 to 14) (size 15 to 20)
#    0.000    2.000    0.000    1.000    4.667   16.667 
#    0.000    1.667    0.000    0.000    0.000    0.000 
#    0.000    0.000    0.000    0.000    0.000    0.000 
#
# Total GULP energy -133889.170070 kJ/mol
# GULP energy per Si atom -5578.715420 kJ/mol
# Density = 2.397984 g / cm^3
# Si number density = 24.034540 Si / 1000 Ang^3
#
#
#
# Elastic Constant Matrix: (Units=GPa)
#
#
# Indices 1 2 3 4 5 6 
#
# 1 95.4741 51.3004 48.4933 0.0000 0.0000 0.0000
# 2 51.3004 87.6142 28.5159 0.0000 0.0000 0.0000
# 3 48.4933 28.5159 250.0324 0.0000 0.0000 0.0000
# 4 0.0000 0.0000 0.0000 15.8280 0.0000 0.0000
# 5 0.0000 0.0000 0.0000 0.0000 -1.2206 0.0000
# 6 0.0000 0.0000 0.0000 0.0000 0.0000 37.8898
#
#
#
# Elastic Compliance Matrix: (Units=1/GPa)
#
#
# Indices 1 2 3 4 5 6 
#
# 1 0.016330 -0.008860 -0.002157 0.000000 0.000000 0.000000
# 2 -0.008860 0.016660 -0.000182 0.000000 0.000000 0.000000
# 3 -0.002157 -0.000182 0.004439 0.000000 0.000000 0.000000
# 4 0.000000 0.000000 0.000000 0.063179 0.000000 0.000000
# 5 0.000000 0.000000 0.000000 0.000000 -0.819284 0.000000
# 6 0.000000 0.000000 0.000000 0.000000 0.000000 0.026392
#
#
# Mechanical properties :
#
#
# Convention : Reuss Voigt Hill
#
# Bulk Modulus (GPa) = 66.52244 76.63776 71.58010
# Shear Modulus (GPa) = -7.52020 30.82017 11.64998
#
# Velocity S-wave (km/s) = -1.77079 3.58485 2.20402
# Velocity P-wave (km/s) = 4.85355 7.00647 6.02692
#
# Compressibility (1/GPa) = 0.01503252
#
# Stress axis : x y z
#
# Youngs Moduli (GPa) = 61.23688 60.02240 225.30092
#
# Poissons Ratio (x) = 0.53178 0.48591
# Poissons Ratio (y) = 0.54254 0.04096
# Poissons Ratio (z) = 0.13207 0.01091
#
# Static dielectric constant tensor:
#      x y z
#    x 1.962080 0.000000 0.000000 
#    y 0.000000 2.086690 0.000000 
#    z 0.000000 0.000000 1.925780 
# 
# From -- ./inp_files/15162.got.cif
#   From: 2010.05.17/outbox.cif.g08.bks.cpg/sg72_8_cif.got.tgz:15162.got - 2010.06.03 17:03:01.
