data_PCOD9528619
_publ_section_title
;
Structure prediction by ZEFSAII (Michael W. Deem and Ramdas Pophale) SiO2 
 PCOD9528619
Probable space group: I B A M
;
_chemical_formula_sum "Si O2"
_cell_formula_units_Z 80
_cell_length_a 10.853302
_cell_length_b 14.885611
_cell_length_c 20.723455
_cell_angle_alpha 90.000000
_cell_angle_beta 90.000000
_cell_angle_gamma 90.000000
_cell_volume 3348.040599
_symmetry_space_group_name_H-M "I B A M"
_symmetry_group_IT_number 72
_symmetry_cell_setting 'orthorhombic'
loop_
_space_group_symop_operation_xyz
x,y,z
-x,-y,z
x,-y,1/2-z
-x,y,1/2-z
-x,-y,-z
x,y,-z
-x,y,1/2+z
x,-y,1/2+z
1/2+x,1/2+y,1/2+z
1/2-x,1/2-y,1/2+z
1/2+x,1/2-y,-z
1/2-x,1/2+y,-z
1/2-x,1/2-y,1/2-z
1/2+x,1/2+y,1/2-z
1/2-x,1/2+y,z
1/2+x,1/2-y,z
loop_
_atom_site_type_symbol
_atom_site_label
_atom_site_fract_x
_atom_site_fract_y
_atom_site_fract_z
Si Si1 0.293090 0.053628 0.308097
Si Si2 0.045216 0.389270 0.071184
Si Si3 0.102477 0.205301 0.305582
Si Si4 0.962413 0.824946 0.931386
Si Si5 0.713944 0.118305 0.375473
O O1 0.206408 0.134225 0.284685
O O2 0.360393 0.000000 0.250000
O O3 0.375835 0.093984 0.364752
O O4 0.226828 0.967239 0.339536
O O5 0.906017 0.419200 0.087312
O O6 0.033055 0.282317 0.066233
O O7 0.089112 0.418758 0.000000
O O8 0.163796 0.298285 0.331656
O O9 0.000000 0.222076 0.250000
O O10 0.039237 0.156032 0.367070
O O11 0.819733 0.847256 0.921920
O O12 0.009840 0.861542 0.000000
#
# Coordination Sequence:
#
# PCOD9528619 Si02
#       5
#    16  16  16  16  16
#     4  12  27  43  69 103 139 182 238 289 352 426
#     4  10  23  44  68 102 140 177 228 298 360 419
#     4  11  26  47  70 100 145 191 233 292 355 421
#     4  10  22  43  73 102 137 186 238 287 355 431
#     4  11  24  42  73 100 138 183 235 289 357 420
#
# _framework density 23.894572
#
# number of rings (size 3 to 8) (size 9 to 14) (size 15 to 20)
#    0.000    1.200    2.000    2.400    5.600    9.200 
#    0.000    1.000    0.000    0.000    0.000    0.000 
#    0.000    0.000    0.000    0.000    0.000    0.000 
#
# Total GULP energy -223268.305778 kJ/mol
# GULP energy per Si atom -5581.707644 kJ/mol
# Density = 2.384019 g / cm^3
# Si number density = 23.894572 Si / 1000 Ang^3
#
#
#
# Elastic Constant Matrix: (Units=GPa)
#
#
# Indices 1 2 3 4 5 6 
#
# 1 56.3384 6.8267 40.6655 0.0000 0.0000 0.0000
# 2 6.8267 54.3000 5.5254 0.0000 0.0000 0.0000
# 3 40.6655 5.5254 162.7072 0.0000 0.0000 0.0000
# 4 0.0000 0.0000 0.0000 -6.2464 0.0000 0.0000
# 5 0.0000 0.0000 0.0000 0.0000 -45.0198 0.0000
# 6 0.0000 0.0000 0.0000 0.0000 0.0000 58.3779
#
#
#
# Elastic Compliance Matrix: (Units=1/GPa)
#
#
# Indices 1 2 3 4 5 6 
#
# 1 0.021917 -0.002206 -0.005403 0.000000 0.000000 0.000000
# 2 -0.002206 0.018702 -0.000084 0.000000 0.000000 0.000000
# 3 -0.005403 -0.000084 0.007499 0.000000 0.000000 0.000000
# 4 0.000000 0.000000 0.000000 -0.160093 0.000000 0.000000
# 5 0.000000 0.000000 0.000000 0.000000 -0.022212 0.000000
# 6 0.000000 0.000000 0.000000 0.000000 0.000000 0.017130
#
#
# Mechanical properties :
#
#
# Convention : Reuss Voigt Hill
#
# Bulk Modulus (GPa) = 30.54973 42.15343 36.35158
# Shear Modulus (GPa) = -55.08920 16.11088 -19.48916
#
# Velocity S-wave (km/s) = -4.80678 2.59945 -2.85902
# Velocity P-wave (km/s) = 4.24192 5.16616 2.08510
#
# Compressibility (1/GPa) = 0.03273351
#
# Stress axis : x y z
#
# Youngs Moduli (GPa) = 45.62679 53.47009 133.34778
#
# Poissons Ratio (x) = 0.11794 0.72045
# Poissons Ratio (y) = 0.10064 0.01118
# Poissons Ratio (z) = 0.24651 0.00448
#
# Static dielectric constant tensor:
#      x y z
#    x 1.884230 0.000000 0.000000 
#    y 0.000000 2.017510 0.000000 
#    z 0.000000 0.000000 2.138930 
# 
# From -- ./inp_files/30441.got.cif
#   From: 2010.05.17/outbox.cif.g08.bks.cpg/sg72_16_cif.got.tgz:30441.got - 2010.06.03 17:03:01.
