data_PCOD9528552
_publ_section_title
;
Structure prediction by ZEFSAII (Michael W. Deem and Ramdas Pophale) SiO2 
 PCOD9528552
Probable space group: I B A M
;
_chemical_formula_sum "Si O2"
_cell_formula_units_Z 44
_cell_length_a 15.346584
_cell_length_b 14.943234
_cell_length_c 7.992742
_cell_angle_alpha 90.000000
_cell_angle_beta 90.000000
_cell_angle_gamma 90.000000
_cell_volume 1832.956307
_symmetry_space_group_name_H-M "I B A M"
_symmetry_group_IT_number 72
_symmetry_cell_setting 'orthorhombic'
loop_
_space_group_symop_operation_xyz
x,y,z
-x,-y,z
x,-y,1/2-z
-x,y,1/2-z
-x,-y,-z
x,y,-z
-x,y,1/2+z
x,-y,1/2+z
1/2+x,1/2+y,1/2+z
1/2-x,1/2-y,1/2+z
1/2+x,1/2-y,-z
1/2-x,1/2+y,-z
1/2-x,1/2-y,1/2-z
1/2+x,1/2+y,1/2-z
1/2-x,1/2+y,z
1/2+x,1/2-y,z
loop_
_atom_site_type_symbol
_atom_site_label
_atom_site_fract_x
_atom_site_fract_y
_atom_site_fract_z
Si Si1 0.500000 0.500000 0.250000
Si Si2 0.343593 0.903051 0.689660
Si Si3 0.270842 0.203530 0.500000
Si Si4 0.072964 0.268767 0.500000
Si Si5 0.414092 0.635527 0.000000
O O1 0.433495 0.567009 0.152878
O O2 0.304927 0.914983 0.500000
O O3 0.422262 0.835672 0.655510
O O4 0.369706 0.000000 0.750000
O O5 0.288553 0.854556 0.833380
O O6 0.168871 0.225084 0.500000
O O7 0.333752 0.292702 0.500000
O O8 0.997075 0.200416 0.500000
#
# Coordination Sequence:
#
# PCOD9528552 Si02
#       5
#     4  16   8   8   8
#     4  10  24  46  68 106 138 188 232 310 348 406
#     4  10  22  42  66 104 135 180 232 288 353 422
#     4  12  22  46  74  96 145 192 229 300 351 420
#     4  10  24  44  68 104 137 190 239 280 365 420
#     4  11  24  48  69 104 142 182 243 294 352 429
#
# _framework density 24.004937000000002
#
# number of rings (size 3 to 8) (size 9 to 14) (size 15 to 20)
#    1.091    0.364    1.818    3.273    0.000    0.000 
#   19.636    5.455    0.000    0.000    0.000    0.000 
#    0.000    0.000    0.000    0.000    0.000    0.000 
#
# Total GULP energy -122657.892542 kJ/mol
# GULP energy per Si atom -5575.358752 kJ/mol
# Density = 2.395030 g / cm^3
# Si number density = 24.004937 Si / 1000 Ang^3
#
#
#
# Elastic Constant Matrix: (Units=GPa)
#
#
# Indices 1 2 3 4 5 6 
#
# 1 131.0205 77.5410 42.5926 0.0000 0.0000 0.0000
# 2 77.5410 206.9683 67.8009 0.0000 0.0000 0.0000
# 3 42.5926 67.8009 158.7623 0.0000 0.0000 0.0000
# 4 0.0000 0.0000 0.0000 53.9214 0.0000 0.0000
# 5 0.0000 0.0000 0.0000 0.0000 6.9691 0.0000
# 6 0.0000 0.0000 0.0000 0.0000 0.0000 4.0210
#
#
#
# Elastic Compliance Matrix: (Units=1/GPa)
#
#
# Indices 1 2 3 4 5 6 
#
# 1 0.010019 -0.003341 -0.001261 0.000000 0.000000 0.000000
# 2 -0.003341 0.006731 -0.001978 0.000000 0.000000 0.000000
# 3 -0.001261 -0.001978 0.007482 0.000000 0.000000 0.000000
# 4 0.000000 0.000000 0.000000 0.018546 0.000000 0.000000
# 5 0.000000 0.000000 0.000000 0.000000 0.143492 0.000000
# 6 0.000000 0.000000 0.000000 0.000000 0.000000 0.248691
#
#
# Mechanical properties :
#
#
# Convention : Reuss Voigt Hill
#
# Bulk Modulus (GPa) = 90.31810 96.95778 93.63794
# Shear Modulus (GPa) = 11.06653 33.57007 22.31830
#
# Velocity S-wave (km/s) = 2.14944 3.74366 3.05247
# Velocity P-wave (km/s) = 6.62319 7.69189 7.17746
#
# Compressibility (1/GPa) = 0.01107198
#
# Stress axis : x y z
#
# Youngs Moduli (GPa) = 99.80541 148.55866 133.65321
#
# Poissons Ratio (x) = 0.49628 0.16859
# Poissons Ratio (y) = 0.33341 0.26443
# Poissons Ratio (z) = 0.12589 0.29392
#
# Static dielectric constant tensor:
#      x y z
#    x 1.893580 0.000000 0.000000 
#    y 0.000000 1.898690 0.000000 
#    z 0.000000 0.000000 2.075570 
# 
# From -- ./inp_files/4044.got.cif
#   From: 2010.05.17/outbox.cif.g08.bks.cpg/sg72_3_cif.got.tgz:4044.got - 2010.06.03 17:03:01.
