data_PCOD9528095
_publ_section_title
;
Structure prediction by ZEFSAII (Michael W. Deem and Ramdas Pophale) SiO2 
 PCOD9528095
Probable space group: I B A M
;
_chemical_formula_sum "Si O2"
_cell_formula_units_Z 60
_cell_length_a 4.922275
_cell_length_b 22.988312
_cell_length_c 21.102593
_cell_angle_alpha 90.000000
_cell_angle_beta 90.000000
_cell_angle_gamma 90.000000
_cell_volume 2387.859552
_symmetry_space_group_name_H-M "I B A M"
_symmetry_group_IT_number 72
_symmetry_cell_setting 'orthorhombic'
loop_
_space_group_symop_operation_xyz
x,y,z
-x,-y,z
x,-y,1/2-z
-x,y,1/2-z
-x,-y,-z
x,y,-z
-x,y,1/2+z
x,-y,1/2+z
1/2+x,1/2+y,1/2+z
1/2-x,1/2-y,1/2+z
1/2+x,1/2-y,-z
1/2-x,1/2+y,-z
1/2-x,1/2-y,1/2-z
1/2+x,1/2+y,1/2-z
1/2-x,1/2+y,z
1/2+x,1/2-y,z
loop_
_atom_site_type_symbol
_atom_site_label
_atom_site_fract_x
_atom_site_fract_y
_atom_site_fract_z
Si Si1 0.129681 0.064644 0.927339
Si Si2 0.334795 0.214017 0.000000
Si Si3 0.580480 0.790512 0.143445
Si Si4 0.146143 0.591364 0.652687
Si Si5 0.500000 0.000000 0.250000
O O1 0.424547 0.065608 0.896363
O O2 0.926528 0.101773 0.883853
O O3 0.138913 0.084707 0.000000
O O4 0.000000 0.000000 0.926763
O O5 0.420426 0.190461 0.068483
O O6 0.013543 0.225961 0.000000
O O7 0.869756 0.761724 0.155242
O O8 0.481052 0.848542 0.177202
O O9 0.176796 0.542990 0.706677
#
# Coordination Sequence:
#
# PCOD9528095 Si02
#       5
#    16   8  16  16   4
#     4  11  23  42  67 103 139 176 225 283 355 417
#     4   8  16  30  54  83 124 165 200 250 310 398
#     4  10  21  40  61  97 137 176 222 267 340 408
#     4  12  25  44  71  98 142 182 226 292 329 419
#     4  12  28  50  70 102 128 186 248 282 352 382
#
# _framework density 25.127105
#
# number of rings (size 3 to 8) (size 9 to 14) (size 15 to 20)
#    0.000    1.333    2.667    2.400    3.733    4.267 
#    4.800    1.333    0.000    0.000    0.000    0.000 
#    0.000    0.000    0.000    0.000    0.000    0.000 
#
# Total GULP energy -167966.082013 kJ/mol
# GULP energy per Si atom -5598.869400 kJ/mol
# Density = 2.506991 g / cm^3
# Si number density = 25.127105 Si / 1000 Ang^3
#
#
#
# Elastic Constant Matrix: (Units=GPa)
#
#
# Indices 1 2 3 4 5 6 
#
# 1 110.6530 -9.6286 20.5084 0.0000 0.0000 0.0000
# 2 -9.6286 115.3805 26.9631 0.0000 0.0000 0.0000
# 3 20.5084 26.9631 111.9105 0.0000 0.0000 0.0000
# 4 0.0000 0.0000 0.0000 23.0894 0.0000 0.0000
# 5 0.0000 0.0000 0.0000 0.0000 -6.4820 0.0000
# 6 0.0000 0.0000 0.0000 0.0000 0.0000 34.0630
#
#
#
# Elastic Compliance Matrix: (Units=1/GPa)
#
#
# Indices 1 2 3 4 5 6 
#
# 1 0.009529 0.001275 -0.002053 0.000000 0.000000 0.000000
# 2 0.001275 0.009355 -0.002488 0.000000 0.000000 0.000000
# 3 -0.002053 -0.002488 0.009911 0.000000 0.000000 0.000000
# 4 0.000000 0.000000 0.000000 0.043310 0.000000 0.000000
# 5 0.000000 0.000000 0.000000 0.000000 -0.154274 0.000000
# 6 0.000000 0.000000 0.000000 0.000000 0.000000 0.029357
#
#
# Mechanical properties :
#
#
# Convention : Reuss Voigt Hill
#
# Bulk Modulus (GPa) = 44.91757 45.95890 45.43824
# Shear Modulus (GPa) = -128.67136 30.14082 -49.26527
#
# Velocity S-wave (km/s) = -7.16375 3.46719 -4.43272
# Velocity P-wave (km/s) = 7.10710 5.86164 2.84184
#
# Compressibility (1/GPa) = 0.02226300
#
# Stress axis : x y z
#
# Youngs Moduli (GPa) = 104.94513 106.89829 100.89444
#
# Poissons Ratio (x) = -0.13630 0.20718
# Poissons Ratio (y) = -0.13381 0.25098
# Poissons Ratio (z) = 0.21550 0.26591
#
# Static dielectric constant tensor:
#      x y z
#    x 1.888150 0.000000 0.000000 
#    y 0.000000 2.033490 0.000000 
#    z 0.000000 0.000000 2.010460 
# 
# From -- ./inp_files/34712.got.cif
#   From: 2010.05.17/outbox.cif.g08.bks.cpg/sg72_18_cif.got.tgz:34712.got - 2010.06.03 17:03:01.
