data_PCOD9528175
_publ_section_title
;
Structure prediction by ZEFSAII (Michael W. Deem and Ramdas Pophale) SiO2 
 PCOD9528175
Probable space group: I B A M
;
_chemical_formula_sum "Si O2"
_cell_formula_units_Z 80
_cell_length_a 8.659473
_cell_length_b 16.050631
_cell_length_c 27.267033
_cell_angle_alpha 90.000000
_cell_angle_beta 90.000000
_cell_angle_gamma 90.000000
_cell_volume 3789.845074
_symmetry_space_group_name_H-M "I B A M"
_symmetry_group_IT_number 72
_symmetry_cell_setting 'orthorhombic'
loop_
_space_group_symop_operation_xyz
x,y,z
-x,-y,z
x,-y,1/2-z
-x,y,1/2-z
-x,-y,-z
x,y,-z
-x,y,1/2+z
x,-y,1/2+z
1/2+x,1/2+y,1/2+z
1/2-x,1/2-y,1/2+z
1/2+x,1/2-y,-z
1/2-x,1/2+y,-z
1/2-x,1/2-y,1/2-z
1/2+x,1/2+y,1/2-z
1/2-x,1/2+y,z
1/2+x,1/2-y,z
loop_
_atom_site_type_symbol
_atom_site_label
_atom_site_fract_x
_atom_site_fract_y
_atom_site_fract_z
Si Si1 0.737672 0.349220 0.838697
Si Si2 0.329996 0.030888 0.350831
Si Si3 0.317509 0.402032 0.238925
Si Si4 0.792571 0.637322 0.056195
Si Si5 0.022545 0.238821 0.397293
O O1 0.728217 0.447351 0.850787
O O2 0.763957 0.346544 0.780257
O O3 0.872825 0.305958 0.868994
O O4 0.582608 0.305783 0.856802
O O5 0.252952 0.101467 0.315641
O O6 0.339895 0.066668 0.405241
O O7 0.500000 0.000000 0.333712
O O8 0.286596 0.500000 0.250000
O O9 0.500000 0.390028 0.250000
O O10 0.628939 0.673787 0.074075
O O11 0.913064 0.712288 0.065135
O O12 0.790328 0.610933 0.000000
#
# Coordination Sequence:
#
# PCOD9528175 Si02
#       5
#    16  16  16  16  16
#     4  10  21  41  65  91 128 166 206 258 319 380
#     4  11  22  41  65  96 127 166 218 266 311 377
#     4   9  19  36  62  88 121 164 201 252 314 375
#     4  11  23  42  65  92 126 167 214 267 324 376
#     4  10  22  42  64  93 128 167 208 263 321 387
#
# _framework density 21.109041999999999
#
# number of rings (size 3 to 8) (size 9 to 14) (size 15 to 20)
#    0.000    1.800    2.000    1.800    0.000    6.400 
#    0.000   14.000    0.000    0.000    0.000    0.000 
#    0.000    0.000    0.000    0.000    0.000    0.000 
#
# Total GULP energy -223421.835754 kJ/mol
# GULP energy per Si atom -5585.545894 kJ/mol
# Density = 2.106100 g / cm^3
# Si number density = 21.109042 Si / 1000 Ang^3
#
#
#
# Elastic Constant Matrix: (Units=GPa)
#
#
# Indices 1 2 3 4 5 6 
#
# 1 76.7265 20.2945 49.5365 0.0000 0.0000 0.0000
# 2 20.2945 24.8460 20.9035 0.0000 0.0000 0.0000
# 3 49.5365 20.9035 161.3197 0.0000 0.0000 0.0000
# 4 0.0000 0.0000 0.0000 30.8684 0.0000 0.0000
# 5 0.0000 0.0000 0.0000 0.0000 12.6622 0.0000
# 6 0.0000 0.0000 0.0000 0.0000 0.0000 21.4241
#
#
#
# Elastic Compliance Matrix: (Units=1/GPa)
#
#
# Indices 1 2 3 4 5 6 
#
# 1 0.018933 -0.011867 -0.004276 0.000000 0.000000 0.000000
# 2 -0.011867 0.052611 -0.003173 0.000000 0.000000 0.000000
# 3 -0.004276 -0.003173 0.007923 0.000000 0.000000 0.000000
# 4 0.000000 0.000000 0.000000 0.032396 0.000000 0.000000
# 5 0.000000 0.000000 0.000000 0.000000 0.078975 0.000000
# 6 0.000000 0.000000 0.000000 0.000000 0.000000 0.046676
#
#
# Mechanical properties :
#
#
# Convention : Reuss Voigt Hill
#
# Bulk Modulus (GPa) = 24.48929 49.37347 36.93138
# Shear Modulus (GPa) = 17.25577 24.46810 20.86193
#
# Velocity S-wave (km/s) = 2.86222 3.40829 3.14712
# Velocity P-wave (km/s) = 4.74864 6.23932 5.54431
#
# Compressibility (1/GPa) = 0.04083417
#
# Stress axis : x y z
#
# Youngs Moduli (GPa) = 52.81806 19.00751 126.21347
#
# Poissons Ratio (x) = 0.22556 0.53969
# Poissons Ratio (y) = 0.62680 0.40050
# Poissons Ratio (z) = 0.22585 0.06031
#
# Static dielectric constant tensor:
#      x y z
#    x 1.791530 0.000000 0.000000 
#    y 0.000000 1.757870 0.000000 
#    z 0.000000 0.000000 1.787170 
# 
# From -- ./inp_files/47176.got.cif
#   From: 2010.05.17/outbox.cif.g08.bks.cpg/sg72_24_cif.got.tgz:47176.got - 2010.06.03 17:03:01.
