data_PCOD9528253
_publ_section_title
;
Structure prediction by ZEFSAII (Michael W. Deem and Ramdas Pophale) SiO2 
 PCOD9528253
Probable space group: I B A M
;
_chemical_formula_sum "Si O2"
_cell_formula_units_Z 48
_cell_length_a 7.760259
_cell_length_b 11.680816
_cell_length_c 18.738748
_cell_angle_alpha 90.000000
_cell_angle_beta 90.000000
_cell_angle_gamma 90.000000
_cell_volume 1698.595502
_symmetry_space_group_name_H-M "I B A M"
_symmetry_group_IT_number 72
_symmetry_cell_setting 'orthorhombic'
loop_
_space_group_symop_operation_xyz
x,y,z
-x,-y,z
x,-y,1/2-z
-x,y,1/2-z
-x,-y,-z
x,y,-z
-x,y,1/2+z
x,-y,1/2+z
1/2+x,1/2+y,1/2+z
1/2-x,1/2-y,1/2+z
1/2+x,1/2-y,-z
1/2-x,1/2+y,-z
1/2-x,1/2-y,1/2-z
1/2+x,1/2+y,1/2-z
1/2-x,1/2+y,z
1/2+x,1/2-y,z
loop_
_atom_site_type_symbol
_atom_site_label
_atom_site_fract_x
_atom_site_fract_y
_atom_site_fract_z
Si Si1 0.804770 0.121635 0.776530
Si Si2 0.637541 0.913653 0.916729
Si Si3 0.525449 0.343424 0.417284
O O1 0.750000 0.250000 0.750000
O O2 0.834963 0.114724 0.605039
O O3 0.538988 0.207404 0.586577
O O4 0.829005 0.117181 0.862132
O O5 0.500000 0.000000 0.883179
O O6 0.723726 0.000000 0.750000
O O7 0.656876 0.945359 0.000000
O O8 0.500000 0.382111 0.250000
O O9 0.556344 0.374471 0.500000
#
# Coordination Sequence:
#
# PCOD9528253 Si02
#       3
#    16  16  16
#     4  11  26  53  80 112 161 214 274 335 425 509
#     4   9  19  40  72 110 156 203 261 338 418 486
#     4  10  21  45  77 113 154 209 277 347 419 501
#
# _framework density 28.258642999999999
#
# number of rings (size 3 to 8) (size 9 to 14) (size 15 to 20)
#    0.000    2.000    0.000    2.000    0.000    0.667 
#   36.000    5.000    0.000    0.000    0.000    0.000 
#    0.000    0.000    0.000    0.000    0.000    0.000 
#
# Total GULP energy -134300.695753 kJ/mol
# GULP energy per Si atom -5595.862323 kJ/mol
# Density = 2.819432 g / cm^3
# Si number density = 28.258643 Si / 1000 Ang^3
#
#
#
# Elastic Constant Matrix: (Units=GPa)
#
#
# Indices 1 2 3 4 5 6 
#
# 1 190.3091 92.7261 86.3696 0.0000 0.0000 0.0000
# 2 92.7261 300.5863 73.7394 0.0000 0.0000 0.0000
# 3 86.3696 73.7394 179.1478 0.0000 0.0000 0.0000
# 4 0.0000 0.0000 0.0000 31.6363 0.0000 0.0000
# 5 0.0000 0.0000 0.0000 0.0000 47.5560 0.0000
# 6 0.0000 0.0000 0.0000 0.0000 0.0000 42.7273
#
#
#
# Elastic Compliance Matrix: (Units=1/GPa)
#
#
# Indices 1 2 3 4 5 6 
#
# 1 0.007322 -0.001549 -0.002892 0.000000 0.000000 0.000000
# 2 -0.001549 0.004028 -0.000911 0.000000 0.000000 0.000000
# 3 -0.002892 -0.000911 0.007352 0.000000 0.000000 0.000000
# 4 0.000000 0.000000 0.000000 0.031609 0.000000 0.000000
# 5 0.000000 0.000000 0.000000 0.000000 0.021028 0.000000
# 6 0.000000 0.000000 0.000000 0.000000 0.000000 0.023404
#
#
# Mechanical properties :
#
#
# Convention : Reuss Voigt Hill
#
# Bulk Modulus (GPa) = 125.05820 130.63483 127.84652
# Shear Modulus (GPa) = 46.24734 52.19779 49.22257
#
# Velocity S-wave (km/s) = 4.04985 4.30250 4.17809
# Velocity P-wave (km/s) = 8.13752 8.42678 8.28342
#
# Compressibility (1/GPa) = 0.00799628
#
# Stress axis : x y z
#
# Youngs Moduli (GPa) = 136.57214 248.24576 136.02622
#
# Poissons Ratio (x) = 0.38458 0.39345
# Poissons Ratio (y) = 0.21158 0.12395
# Poissons Ratio (z) = 0.39503 0.22620
#
# Static dielectric constant tensor:
#      x y z
#    x 2.162610 0.000000 0.000000 
#    y 0.000000 2.315160 0.000000 
#    z 0.000000 0.000000 2.545220 
# 
# From -- ./inp_files/10950.got.cif
#   From: 2010.05.17/outbox.cif.g08.bks.cpg/sg72_6_cif.got.tgz:10950.got - 2010.06.03 17:03:01.
