data_PCOD9528662
_publ_section_title
;
Structure prediction by ZEFSAII (Michael W. Deem and Ramdas Pophale) SiO2 
 PCOD9528662
Probable space group: I B A M
;
_chemical_formula_sum "Si O2"
_cell_formula_units_Z 96
_cell_length_a 19.162430
_cell_length_b 9.014456
_cell_length_c 25.650108
_cell_angle_alpha 90.000000
_cell_angle_beta 90.000000
_cell_angle_gamma 90.000000
_cell_volume 4430.770981
_symmetry_space_group_name_H-M "I B A M"
_symmetry_group_IT_number 72
_symmetry_cell_setting 'orthorhombic'
loop_
_space_group_symop_operation_xyz
x,y,z
-x,-y,z
x,-y,1/2-z
-x,y,1/2-z
-x,-y,-z
x,y,-z
-x,y,1/2+z
x,-y,1/2+z
1/2+x,1/2+y,1/2+z
1/2-x,1/2-y,1/2+z
1/2+x,1/2-y,-z
1/2-x,1/2+y,-z
1/2-x,1/2-y,1/2-z
1/2+x,1/2+y,1/2-z
1/2-x,1/2+y,z
1/2+x,1/2-y,z
loop_
_atom_site_type_symbol
_atom_site_label
_atom_site_fract_x
_atom_site_fract_y
_atom_site_fract_z
Si Si1 0.041666 0.636362 0.303370
Si Si2 0.163876 0.530759 0.842793
Si Si3 0.718463 0.325074 0.376780
Si Si4 0.476187 0.666013 0.900197
Si Si5 0.072451 0.411609 0.442259
Si Si6 0.674762 0.392196 0.060848
O O1 0.116817 0.560062 0.302110
O O2 0.039948 0.770073 0.342970
O O3 0.000000 0.500000 0.329553
O O4 0.000000 0.666059 0.250000
O O5 0.234671 0.438486 0.843964
O O6 0.175916 0.708437 0.840550
O O7 0.125105 0.522199 0.899589
O O8 0.678438 0.442180 0.413953
O O9 0.769766 0.216494 0.410181
O O10 0.500000 0.500000 0.896180
O O11 0.541092 0.754358 0.924751
O O12 0.403428 0.672046 0.931567
O O13 0.104533 0.407512 0.500000
O O14 0.000000 0.500000 0.445164
O O15 0.691553 0.400092 0.000000
#
# Coordination Sequence:
#
# PCOD9528662 Si02
#       6
#    16  16  16  16  16  16
#     4  11  23  44  72  94 113 158 219 279 342 406
#     4  11  20  42  62  96 126 170 216 263 325 381
#     4  10  23  36  62  91 132 183 220 260 306 384
#     4  12  23  38  61  96 133 166 212 278 342 383
#     4  11  21  36  61  91 132 179 221 263 312 384
#     4  11  22  37  57  93 139 185 226 257 303 385
#
# _framework density 21.666658999999999
#
# number of rings (size 3 to 8) (size 9 to 14) (size 15 to 20)
#    0.000    1.000    5.000    2.000    0.000    8.333 
#    0.000    0.000    0.000    4.000    0.000    0.000 
#    0.000    0.000    0.000    0.000    0.000    0.000 
#
# Total GULP energy -267821.680664 kJ/mol
# GULP energy per Si atom -5579.618347 kJ/mol
# Density = 2.161734 g / cm^3
# Si number density = 21.666659 Si / 1000 Ang^3
#
#
#
# Elastic Constant Matrix: (Units=GPa)
#
#
# Indices 1 2 3 4 5 6 
#
# 1 27.0245 -27.3325 -12.4445 0.0000 0.0000 0.0000
# 2 -27.3325 90.2783 -8.0053 0.0000 0.0000 0.0000
# 3 -12.4445 -8.0053 69.8524 0.0000 0.0000 0.0000
# 4 0.0000 0.0000 0.0000 4.3974 0.0000 0.0000
# 5 0.0000 0.0000 0.0000 0.0000 24.6470 0.0000
# 6 0.0000 0.0000 0.0000 0.0000 0.0000 44.8196
#
#
#
# Elastic Compliance Matrix: (Units=1/GPa)
#
#
# Indices 1 2 3 4 5 6 
#
# 1 0.064300 0.020693 0.013827 0.000000 0.000000 0.000000
# 2 0.020693 0.017850 0.005732 0.000000 0.000000 0.000000
# 3 0.013827 0.005732 0.017436 0.000000 0.000000 0.000000
# 4 0.000000 0.000000 0.000000 0.227408 0.000000 0.000000
# 5 0.000000 0.000000 0.000000 0.000000 0.040573 0.000000
# 6 0.000000 0.000000 0.000000 0.000000 0.000000 0.022312
#
#
# Mechanical properties :
#
#
# Convention : Reuss Voigt Hill
#
# Bulk Modulus (GPa) = 5.55273 10.17672 7.86473
# Shear Modulus (GPa) = 13.53529 30.43530 21.98529
#
# Velocity S-wave (km/s) = 2.50212 3.75201 3.18890
# Velocity P-wave (km/s) = 3.30392 4.84533 4.14687
#
# Compressibility (1/GPa) = 0.18009157
#
# Stress axis : x y z
#
# Youngs Moduli (GPa) = 15.55212 56.02154 57.35206
#
# Poissons Ratio (x) = -1.15928 -0.79300
# Poissons Ratio (y) = -0.32183 -0.32876
# Poissons Ratio (z) = -0.21504 -0.32113
#
# Static dielectric constant tensor:
#      x y z
#    x 1.908150 0.000000 0.000000 
#    y 0.000000 1.815870 0.000000 
#    z 0.000000 0.000000 1.800160 
# 
# From -- ./inp_files/49347.got.cif
#   From: 2010.05.17/outbox.cif.g08.bks.cpg/sg72_25_cif.got.tgz:49347.got - 2010.06.03 17:03:01.
