data_PCOD9528543
_publ_section_title
;
Structure prediction by ZEFSAII (Michael W. Deem and Ramdas Pophale) SiO2 
 PCOD9528543
Probable space group: I B A M
;
_chemical_formula_sum "Si O2"
_cell_formula_units_Z 112
_cell_length_a 21.757123
_cell_length_b 12.910175
_cell_length_c 20.931938
_cell_angle_alpha 90.000000
_cell_angle_beta 90.000000
_cell_angle_gamma 90.000000
_cell_volume 5879.535757
_symmetry_space_group_name_H-M "I B A M"
_symmetry_group_IT_number 72
_symmetry_cell_setting 'orthorhombic'
loop_
_space_group_symop_operation_xyz
x,y,z
-x,-y,z
x,-y,1/2-z
-x,y,1/2-z
-x,-y,-z
x,y,-z
-x,y,1/2+z
x,-y,1/2+z
1/2+x,1/2+y,1/2+z
1/2-x,1/2-y,1/2+z
1/2+x,1/2-y,-z
1/2-x,1/2+y,-z
1/2-x,1/2-y,1/2-z
1/2+x,1/2+y,1/2-z
1/2-x,1/2+y,z
1/2+x,1/2-y,z
loop_
_atom_site_type_symbol
_atom_site_label
_atom_site_fract_x
_atom_site_fract_y
_atom_site_fract_z
Si Si1 0.754476 0.909319 0.149398
Si Si2 0.069849 0.543249 0.075616
Si Si3 0.567374 0.453099 0.814151
Si Si4 0.642670 0.715215 0.273173
Si Si5 0.354719 0.949120 0.187927
Si Si6 0.351946 0.467103 0.927426
Si Si7 0.644249 0.238939 0.622585
O O1 0.802178 0.856011 0.198745
O O2 0.708371 0.823904 0.120497
O O3 0.709217 0.990298 0.182552
O O4 0.791023 0.973870 0.096252
O O5 0.109816 0.471156 0.122438
O O6 0.090204 0.659317 0.100157
O O7 0.000000 0.500000 0.082109
O O8 0.085097 0.538096 0.000000
O O9 0.500000 0.500000 0.814585
O O10 0.598631 0.500000 0.750000
O O11 0.579861 0.332351 0.802633
O O12 0.597926 0.489507 0.878677
O O13 0.654058 0.829411 0.299149
O O14 0.637459 0.725427 0.196742
O O15 0.387720 0.000000 0.250000
O O16 0.350645 0.343548 0.917765
O O17 0.365524 0.492469 0.000000
#
# Coordination Sequence:
#
# PCOD9528543 Si02
#       7
#    16  16  16  16  16  16  16
#     4  10  23  36  62  89 134 158 200 252 323 366
#     4  10  23  43  61  84 126 168 203 254 317 373
#     4  10  22  42  64  88 123 163 206 258 320 364
#     4  11  21  38  63  97 122 160 206 259 314 371
#     4  11  22  38  61  98 119 159 210 261 308 368
#     4  11  24  39  60  92 124 165 212 253 306 373
#     4  11  21  38  64  91 121 164 208 255 307 376
#
# _framework density 19.049123000000002
#
# number of rings (size 3 to 8) (size 9 to 14) (size 15 to 20)
#    0.000    1.429    4.286    1.714    2.000    4.571 
#    0.000    2.857    0.000    0.000    0.000    0.000 
#    0.000    0.000    0.000    0.000    0.000    0.000 
#
# Total GULP energy -312261.234690 kJ/mol
# GULP energy per Si atom -5576.093477 kJ/mol
# Density = 1.900577 g / cm^3
# Si number density = 19.049123 Si / 1000 Ang^3
#
#
#
# Elastic Constant Matrix: (Units=GPa)
#
#
# Indices 1 2 3 4 5 6 
#
# 1 86.2302 37.6013 55.7298 0.0000 0.0000 0.0000
# 2 37.6013 103.6650 49.2280 0.0000 0.0000 0.0000
# 3 55.7298 49.2280 170.6440 0.0000 0.0000 0.0000
# 4 0.0000 0.0000 0.0000 20.3306 0.0000 0.0000
# 5 0.0000 0.0000 0.0000 0.0000 39.5642 0.0000
# 6 0.0000 0.0000 0.0000 0.0000 0.0000 11.1732
#
#
#
# Elastic Compliance Matrix: (Units=1/GPa)
#
#
# Indices 1 2 3 4 5 6 
#
# 1 0.015911 -0.003828 -0.004092 0.000000 0.000000 0.000000
# 2 -0.003828 0.012099 -0.002240 0.000000 0.000000 0.000000
# 3 -0.004092 -0.002240 0.007843 0.000000 0.000000 0.000000
# 4 0.000000 0.000000 0.000000 0.049187 0.000000 0.000000
# 5 0.000000 0.000000 0.000000 0.000000 0.025275 0.000000
# 6 0.000000 0.000000 0.000000 0.000000 0.000000 0.089500
#
#
# Mechanical properties :
#
#
# Convention : Reuss Voigt Hill
#
# Bulk Modulus (GPa) = 64.38252 71.73970 68.06111
# Shear Modulus (GPa) = 22.19150 28.74562 25.46856
#
# Velocity S-wave (km/s) = 3.41686 3.88883 3.66046
# Velocity P-wave (km/s) = 7.03122 7.60961 7.32613
#
# Compressibility (1/GPa) = 0.01553217
#
# Stress axis : x y z
#
# Youngs Moduli (GPa) = 62.85114 82.65345 127.50652
#
# Poissons Ratio (x) = 0.31639 0.52174
# Poissons Ratio (y) = 0.24059 0.28563
# Poissons Ratio (z) = 0.25718 0.18515
#
# Static dielectric constant tensor:
#      x y z
#    x 1.558590 0.000000 0.000000 
#    y 0.000000 1.702620 0.000000 
#    z 0.000000 0.000000 1.655920 
# 
# From -- ./inp_files/40333.got.cif
#   From: 2010.05.17/outbox.cif.g08.bks.cpg/sg72_21_cif.got.tgz:40333.got - 2010.06.03 17:03:01.
