data_PCOD9528706
_publ_section_title
;
Structure prediction by ZEFSAII (Michael W. Deem and Ramdas Pophale) SiO2 
 PCOD9528706
Probable space group: I B A M
;
_chemical_formula_sum "Si O2"
_cell_formula_units_Z 104
_cell_length_a 8.644230
_cell_length_b 25.876156
_cell_length_c 22.383657
_cell_angle_alpha 90.000000
_cell_angle_beta 90.000000
_cell_angle_gamma 90.000000
_cell_volume 5006.763952
_symmetry_space_group_name_H-M "I B A M"
_symmetry_group_IT_number 72
_symmetry_cell_setting 'orthorhombic'
loop_
_space_group_symop_operation_xyz
x,y,z
-x,-y,z
x,-y,1/2-z
-x,y,1/2-z
-x,-y,-z
x,y,-z
-x,y,1/2+z
x,-y,1/2+z
1/2+x,1/2+y,1/2+z
1/2-x,1/2-y,1/2+z
1/2+x,1/2-y,-z
1/2-x,1/2+y,-z
1/2-x,1/2-y,1/2-z
1/2+x,1/2+y,1/2-z
1/2-x,1/2+y,z
1/2+x,1/2-y,z
loop_
_atom_site_type_symbol
_atom_site_label
_atom_site_fract_x
_atom_site_fract_y
_atom_site_fract_z
Si Si1 0.536385 0.121078 0.000000
Si Si2 0.604270 0.360600 0.803940
Si Si3 0.807388 0.848842 0.000000
Si Si4 0.234473 0.279232 0.616268
Si Si5 0.409384 0.550315 0.364303
Si Si6 0.346649 0.087820 0.718682
Si Si7 0.094313 0.678684 0.375252
Si Si8 0.882092 0.077397 0.000000
O O1 0.563063 0.150421 0.062229
O O2 0.695075 0.087535 0.000000
O O3 0.346148 0.112514 0.000000
O O4 0.500000 0.342452 0.750000
O O5 0.672112 0.311087 0.835035
O O6 0.502750 0.397866 0.846036
O O7 0.735850 0.395458 0.772983
O O8 0.782841 0.810104 0.943977
O O9 0.975503 0.878568 0.000000
O O10 0.267742 0.218707 0.615600
O O11 0.057111 0.287118 0.632619
O O12 0.500000 0.500000 0.343268
O O13 0.248092 0.552935 0.328263
O O14 0.400747 0.549994 0.435948
O O15 0.500000 0.066639 0.750000
O O16 0.385588 0.138610 0.678608
#
# Coordination Sequence:
#
# PCOD9528706 Si02
#       8
#     8  16   8  16  16  16  16   8
#     4  10  23  42  63  98 137 187 235 289 346 431
#     4  10  23  40  62  89 134 176 221 278 335 410
#     4  10  23  40  65  96 139 189 229 289 352 419
#     4  11  23  39  60  94 136 180 235 281 342 407
#     4  11  25  46  74 105 134 171 231 288 358 428
#     4  11  23  44  67  95 138 182 226 282 342 409
#     4  11  24  38  64  96 136 181 236 285 341 409
#     4  12  21  42  84  98 142 178 220 294 381 400
#
# _framework density 20.771899999999999
#
# number of rings (size 3 to 8) (size 9 to 14) (size 15 to 20)
#    0.000    1.231    4.615    0.692    6.462    4.000 
#    0.000    1.538    0.000    0.923    0.000    0.000 
#    0.000    0.000    0.000    0.000    0.000    0.000 
#
# Total GULP energy -289899.101264 kJ/mol
# GULP energy per Si atom -5574.982717 kJ/mol
# Density = 2.072462 g / cm^3
# Si number density = 20.771900 Si / 1000 Ang^3
#
#
#
# Elastic Constant Matrix: (Units=GPa)
#
#
# Indices 1 2 3 4 5 6 
#
# 1 92.4324 9.5367 38.1730 0.0000 0.0000 0.0000
# 2 9.5367 17.9571 6.7741 0.0000 0.0000 0.0000
# 3 38.1730 6.7741 100.8010 0.0000 0.0000 0.0000
# 4 0.0000 0.0000 0.0000 5.5300 0.0000 0.0000
# 5 0.0000 0.0000 0.0000 0.0000 23.7955 0.0000
# 6 0.0000 0.0000 0.0000 0.0000 0.0000 -14.8290
#
#
#
# Elastic Compliance Matrix: (Units=1/GPa)
#
#
# Indices 1 2 3 4 5 6 
#
# 1 0.013298 -0.005297 -0.004680 0.000000 0.000000 0.000000
# 2 -0.005297 0.059247 -0.001976 0.000000 0.000000 0.000000
# 3 -0.004680 -0.001976 0.011826 0.000000 0.000000 0.000000
# 4 0.000000 0.000000 0.000000 0.180831 0.000000 0.000000
# 5 0.000000 0.000000 0.000000 0.000000 0.042025 0.000000
# 6 0.000000 0.000000 0.000000 0.000000 0.000000 -0.067435
#
#
# Mechanical properties :
#
#
# Convention : Reuss Voigt Hill
#
# Bulk Modulus (GPa) = 16.53837 35.57311 26.05574
# Shear Modulus (GPa) = 17.61487 13.34640 15.48063
#
# Velocity S-wave (km/s) = 2.91523 2.53755 2.73292
# Velocity P-wave (km/s) = 4.39438 5.07428 4.74652
#
# Compressibility (1/GPa) = 0.06046543
#
# Stress axis : x y z
#
# Youngs Moduli (GPa) = 75.19956 16.87855 84.56243
#
# Poissons Ratio (x) = 0.08940 0.39575
# Poissons Ratio (y) = 0.39832 0.16707
# Poissons Ratio (z) = 0.35193 0.03335
#
# Static dielectric constant tensor:
#      x y z
#    x 1.917690 0.000000 0.000000 
#    y 0.000000 1.723280 0.000000 
#    z 0.000000 0.000000 1.139480 
# 
# From -- ./inp_files/36198.got.cif
#   From: 2010.05.17/outbox.cif.g08.bks.cpg/sg72_19_cif.got.tgz:36198.got - 2010.06.03 17:03:01.
