data_PCOD9528703
_publ_section_title
;
Structure prediction by ZEFSAII (Michael W. Deem and Ramdas Pophale) SiO2 
 PCOD9528703
Probable space group: I B A M
;
_chemical_formula_sum "Si O2"
_cell_formula_units_Z 96
_cell_length_a 19.617142
_cell_length_b 14.596974
_cell_length_c 13.858795
_cell_angle_alpha 90.000000
_cell_angle_beta 90.000000
_cell_angle_gamma 90.000000
_cell_volume 3968.478584
_symmetry_space_group_name_H-M "I B A M"
_symmetry_group_IT_number 72
_symmetry_cell_setting 'orthorhombic'
loop_
_space_group_symop_operation_xyz
x,y,z
-x,-y,z
x,-y,1/2-z
-x,y,1/2-z
-x,-y,-z
x,y,-z
-x,y,1/2+z
x,-y,1/2+z
1/2+x,1/2+y,1/2+z
1/2-x,1/2-y,1/2+z
1/2+x,1/2-y,-z
1/2-x,1/2+y,-z
1/2-x,1/2-y,1/2-z
1/2+x,1/2+y,1/2-z
1/2-x,1/2+y,z
1/2+x,1/2-y,z
loop_
_atom_site_type_symbol
_atom_site_label
_atom_site_fract_x
_atom_site_fract_y
_atom_site_fract_z
Si Si1 0.227857 0.221567 0.613162
Si Si2 0.326981 0.935883 0.157991
Si Si3 0.711391 0.575839 0.604082
Si Si4 0.501276 0.701647 0.115649
Si Si5 0.019357 0.402396 0.889459
Si Si6 0.113163 0.146253 0.252608
O O1 0.216824 0.194070 0.500000
O O2 0.284824 0.158055 0.662949
O O3 0.252806 0.325343 0.610118
O O4 0.162265 0.206393 0.679510
O O5 0.398663 0.905062 0.113563
O O6 0.343024 0.000000 0.250000
O O7 0.271262 0.001164 0.106760
O O8 0.675713 0.567485 0.500000
O O9 0.660511 0.574897 0.694458
O O10 0.515668 0.808272 0.144989
O O11 0.551878 0.631144 0.169941
O O12 0.426854 0.689238 0.161787
O O13 0.502846 0.692984 0.000000
O O14 0.000000 0.500000 0.846876
O O15 0.996258 0.404611 0.000000
#
# Coordination Sequence:
#
# PCOD9528703 Si02
#       6
#    16  16  16  16  16  16
#     4  11  24  42  65  95 136 183 235 293 350 409
#     4  12  25  41  67 101 144 184 232 288 351 415
#     4  11  24  41  67  99 138 186 238 296 349 408
#     4  10  23  41  65  96 136 179 227 289 348 417
#     4  10  23  40  60  91 138 189 229 273 340 420
#     4  11  22  39  65  95 127 173 229 277 345 412
#
# _framework density 24.190631
#
# number of rings (size 3 to 8) (size 9 to 14) (size 15 to 20)
#    0.000    1.167    1.667    4.000    4.667    4.333 
#    0.000    0.000    0.000    8.000    0.000   14.000 
#    0.000    0.000    0.000    0.000    0.000    0.000 
#
# Total GULP energy -267686.563665 kJ/mol
# GULP energy per Si atom -5576.803410 kJ/mol
# Density = 2.413557 g / cm^3
# Si number density = 24.190631 Si / 1000 Ang^3
#
#
#
# Elastic Constant Matrix: (Units=GPa)
#
#
# Indices 1 2 3 4 5 6 
#
# 1 98.8881 20.4857 26.0193 0.0000 0.0000 0.0000
# 2 20.4857 43.9726 8.0474 0.0000 0.0000 0.0000
# 3 26.0193 8.0474 194.1314 0.0000 0.0000 0.0000
# 4 0.0000 0.0000 0.0000 10.7341 0.0000 0.0000
# 5 0.0000 0.0000 0.0000 0.0000 35.6701 0.0000
# 6 0.0000 0.0000 0.0000 0.0000 0.0000 21.3532
#
#
#
# Elastic Compliance Matrix: (Units=1/GPa)
#
#
# Indices 1 2 3 4 5 6 
#
# 1 0.011525 -0.005125 -0.001332 0.000000 0.000000 0.000000
# 2 -0.005125 0.025195 -0.000357 0.000000 0.000000 0.000000
# 3 -0.001332 -0.000357 0.005345 0.000000 0.000000 0.000000
# 4 0.000000 0.000000 0.000000 0.093161 0.000000 0.000000
# 5 0.000000 0.000000 0.000000 0.000000 0.028035 0.000000
# 6 0.000000 0.000000 0.000000 0.000000 0.000000 0.046831
#
#
# Mechanical properties :
#
#
# Convention : Reuss Voigt Hill
#
# Bulk Modulus (GPa) = 35.16921 49.56634 42.36778
# Shear Modulus (GPa) = 21.44097 32.38080 26.91088
#
# Velocity S-wave (km/s) = 2.98037 3.66261 3.33896
# Velocity P-wave (km/s) = 5.13939 6.19844 5.69359
#
# Compressibility (1/GPa) = 0.02843396
#
# Stress axis : x y z
#
# Youngs Moduli (GPa) = 86.76998 39.69108 187.10751
#
# Poissons Ratio (x) = 0.20343 0.24926
# Poissons Ratio (y) = 0.44472 0.06688
# Poissons Ratio (z) = 0.11559 0.01419
#
# Static dielectric constant tensor:
#      x y z
#    x 1.934060 0.000000 0.000000 
#    y 0.000000 1.938800 0.000000 
#    z 0.000000 0.000000 1.968570 
# 
# From -- ./inp_files/24121.got.cif
#   From: 2010.05.17/outbox.cif.g08.bks.cpg/sg72_13_cif.got.tgz:24121.got - 2010.06.03 17:03:01.
