data_PCOD9528603
_publ_section_title
;
Structure prediction by ZEFSAII (Michael W. Deem and Ramdas Pophale) SiO2 
 PCOD9528603
Probable space group: I B A M
;
_chemical_formula_sum "Si O2"
_cell_formula_units_Z 64
_cell_length_a 8.819948
_cell_length_b 11.803099
_cell_length_c 30.173322
_cell_angle_alpha 90.000000
_cell_angle_beta 90.000000
_cell_angle_gamma 90.000000
_cell_volume 3141.124874
_symmetry_space_group_name_H-M "I B A M"
_symmetry_group_IT_number 72
_symmetry_cell_setting 'orthorhombic'
loop_
_space_group_symop_operation_xyz
x,y,z
-x,-y,z
x,-y,1/2-z
-x,y,1/2-z
-x,-y,-z
x,y,-z
-x,y,1/2+z
x,-y,1/2+z
1/2+x,1/2+y,1/2+z
1/2-x,1/2-y,1/2+z
1/2+x,1/2-y,-z
1/2-x,1/2+y,-z
1/2-x,1/2-y,1/2-z
1/2+x,1/2+y,1/2-z
1/2-x,1/2+y,z
1/2+x,1/2-y,z
loop_
_atom_site_type_symbol
_atom_site_label
_atom_site_fract_x
_atom_site_fract_y
_atom_site_fract_z
Si Si1 0.953412 0.869308 0.051204
Si Si2 0.000000 0.199231 0.750000
Si Si3 0.229510 0.350105 0.808655
Si Si4 0.000000 0.500000 0.147273
Si Si5 0.665348 0.792250 0.105496
O O1 0.807586 0.848413 0.081458
O O2 0.085869 0.793448 0.071796
O O3 0.924085 0.838635 0.000000
O O4 0.000000 0.000000 0.053014
O O5 0.104362 0.278489 0.781359
O O6 0.120968 0.131462 0.720666
O O7 0.281459 0.276433 0.851059
O O8 0.145057 0.463681 0.823843
O O9 0.047983 0.609511 0.119347
#
# Coordination Sequence:
#
# PCOD9528603 Si02
#       5
#    16   8  16   8  16
#     4  11  25  44  70 102 137 177 229 286 340 410
#     4  10  22  43  67  96 138 174 231 283 336 398
#     4  11  22  43  68  98 139 177 227 280 342 408
#     4  12  24  41  75  98 136 188 222 280 345 415
#     4  12  23  46  69 101 137 181 227 279 351 411
#
# _framework density 20.374866999999998
#
# number of rings (size 3 to 8) (size 9 to 14) (size 15 to 20)
#    0.000    0.750    5.000    2.250    0.000    0.500 
#    0.000    2.500    0.000    0.000    0.000    0.000 
#    0.000    0.000    0.000    0.000    0.000    0.000 
#
# Total GULP energy -179084.534721 kJ/mol
# GULP energy per Si atom -5596.391710 kJ/mol
# Density = 2.032849 g / cm^3
# Si number density = 20.374867 Si / 1000 Ang^3
#
#
#
# Elastic Constant Matrix: (Units=GPa)
#
#
# Indices 1 2 3 4 5 6 
#
# 1 109.8858 20.9803 45.4143 0.0000 0.0000 0.0000
# 2 20.9803 76.0407 32.8584 0.0000 0.0000 0.0000
# 3 45.4143 32.8584 116.1032 0.0000 0.0000 0.0000
# 4 0.0000 0.0000 0.0000 8.8986 0.0000 0.0000
# 5 0.0000 0.0000 0.0000 0.0000 3.8456 0.0000
# 6 0.0000 0.0000 0.0000 0.0000 0.0000 46.4181
#
#
#
# Elastic Compliance Matrix: (Units=1/GPa)
#
#
# Indices 1 2 3 4 5 6 
#
# 1 0.010973 -0.001336 -0.003914 0.000000 0.000000 0.000000
# 2 -0.001336 0.015146 -0.003764 0.000000 0.000000 0.000000
# 3 -0.003914 -0.003764 0.011209 0.000000 0.000000 0.000000
# 4 0.000000 0.000000 0.000000 0.112377 0.000000 0.000000
# 5 0.000000 0.000000 0.000000 0.000000 0.260038 0.000000
# 6 0.000000 0.000000 0.000000 0.000000 0.000000 0.021543
#
#
# Mechanical properties :
#
#
# Convention : Reuss Voigt Hill
#
# Bulk Modulus (GPa) = 51.81310 55.61507 53.71408
# Shear Modulus (GPa) = 10.97097 25.35091 18.16094
#
# Velocity S-wave (km/s) = 2.32298 3.53118 2.98877
# Velocity P-wave (km/s) = 5.71665 6.63181 6.19116
#
# Compressibility (1/GPa) = 0.01930014
#
# Stress axis : x y z
#
# Youngs Moduli (GPa) = 91.13198 66.02440 89.21251
#
# Poissons Ratio (x) = 0.08823 0.34918
# Poissons Ratio (y) = 0.12178 0.33577
# Poissons Ratio (z) = 0.35669 0.24850
#
# Static dielectric constant tensor:
#      x y z
#    x 1.733690 0.000000 0.000000 
#    y 0.000000 1.702750 0.000000 
#    z 0.000000 0.000000 1.709770 
# 
# From -- ./inp_files/50644.got.cif
#   From: 2010.05.17/outbox.cif.g08.bks.cpg/sg72_26_cif.got.tgz:50644.got - 2010.06.03 17:03:01.
