data_PCOD9528524
_publ_section_title
;
Structure prediction by ZEFSAII (Michael W. Deem and Ramdas Pophale) SiO2 
 PCOD9528524
Probable space group: I B A M
;
_chemical_formula_sum "Si O2"
_cell_formula_units_Z 52
_cell_length_a 11.270901
_cell_length_b 7.856162
_cell_length_c 25.274897
_cell_angle_alpha 90.000000
_cell_angle_beta 90.000000
_cell_angle_gamma 90.000000
_cell_volume 2237.991640
_symmetry_space_group_name_H-M "I B A M"
_symmetry_group_IT_number 72
_symmetry_cell_setting 'orthorhombic'
loop_
_space_group_symop_operation_xyz
x,y,z
-x,-y,z
x,-y,1/2-z
-x,y,1/2-z
-x,-y,-z
x,y,-z
-x,y,1/2+z
x,-y,1/2+z
1/2+x,1/2+y,1/2+z
1/2-x,1/2-y,1/2+z
1/2+x,1/2-y,-z
1/2-x,1/2+y,-z
1/2-x,1/2-y,1/2-z
1/2+x,1/2+y,1/2-z
1/2-x,1/2+y,z
1/2+x,1/2-y,z
loop_
_atom_site_type_symbol
_atom_site_label
_atom_site_fract_x
_atom_site_fract_y
_atom_site_fract_z
Si Si1 0.105893 0.630864 0.436680
Si Si2 0.170645 0.247955 0.696380
Si Si3 0.500000 0.000000 0.750000
Si Si4 0.169228 0.957320 0.618690
O O1 0.104744 0.641184 0.500000
O O2 0.234425 0.554554 0.418638
O O3 0.000000 0.500000 0.420481
O O4 0.088239 0.823264 0.413743
O O5 0.250000 0.250000 0.750000
O O6 0.123837 0.081622 0.665853
O O7 0.253307 0.329606 0.653147
O O8 0.069082 0.376247 0.711470
#
# Coordination Sequence:
#
# PCOD9528524 Si02
#       4
#    16  16   4  16
#     4  10  22  42  70 103 140 184 237 292 356 421
#     4  11  22  42  66 103 140 179 233 284 347 429
#     4  12  24  40  78  94 144 188 224 284 354 422
#     4  10  22  41  69 100 143 178 233 292 351 416
#
# _framework density 23.235116999999999
#
# number of rings (size 3 to 8) (size 9 to 14) (size 15 to 20)
#    0.000    1.538    3.077    0.923    2.154    0.000 
#    0.000   18.462    0.000   16.615    0.000    0.000 
#    0.000    0.000    0.000    0.000    0.000    0.000 
#
# Total GULP energy -144991.515237 kJ/mol
# GULP energy per Si atom -5576.596740 kJ/mol
# Density = 2.318223 g / cm^3
# Si number density = 23.235117 Si / 1000 Ang^3
#
#
#
# Elastic Constant Matrix: (Units=GPa)
#
#
# Indices 1 2 3 4 5 6 
#
# 1 73.9798 64.3522 39.1160 0.0000 0.0000 0.0000
# 2 64.3522 194.5401 79.6132 0.0000 0.0000 0.0000
# 3 39.1160 79.6132 146.0705 0.0000 0.0000 0.0000
# 4 0.0000 0.0000 0.0000 66.6914 0.0000 0.0000
# 5 0.0000 0.0000 0.0000 0.0000-3956.9628 0.0000
# 6 0.0000 0.0000 0.0000 0.0000 0.0000 54.2043
#
#
#
# Elastic Compliance Matrix: (Units=1/GPa)
#
#
# Indices 1 2 3 4 5 6 
#
# 1 0.019511 -0.005555 -0.002197 0.000000 0.000000 0.000000
# 2 -0.005555 0.008198 -0.002980 0.000000 0.000000 0.000000
# 3 -0.002197 -0.002980 0.009059 0.000000 0.000000 0.000000
# 4 0.000000 0.000000 0.000000 0.014994 0.000000 0.000000
# 5 0.000000 0.000000 0.000000 0.000000 -0.000253 0.000000
# 6 0.000000 0.000000 0.000000 0.000000 0.000000 0.018449
#
#
# Mechanical properties :
#
#
# Convention : Reuss Voigt Hill
#
# Bulk Modulus (GPa) = 65.34957 86.75035 76.04996
# Shear Modulus (GPa) = 51.80092 -751.77948 -349.98928
#
# Velocity S-wave (km/s) = 4.72680 -18.00710 -12.28643
# Velocity P-wave (km/s) = 7.61424 19.87269 12.97974
#
# Compressibility (1/GPa) = 0.01530232
#
# Stress axis : x y z
#
# Youngs Moduli (GPa) = 51.25331 121.98813 110.38985
#
# Poissons Ratio (x) = 0.67763 0.24255
# Poissons Ratio (y) = 0.28471 0.32900
# Poissons Ratio (z) = 0.11261 0.36357
#
# Static dielectric constant tensor:
#      x y z
#    x 1.830050 0.000000 0.000000 
#    y 0.000000 1.963330 0.000000 
#    z 0.000000 0.000000 1.923990 
# 
# From -- ./inp_files/47771.got.cif
#   From: 2010.05.17/outbox.cif.g08.bks.cpg/sg72_24_cif.got.tgz:47771.got - 2010.06.03 17:03:01.
