data_PCOD9528502
_publ_section_title
;
Structure prediction by ZEFSAII (Michael W. Deem and Ramdas Pophale) SiO2 
 PCOD9528502
Probable space group: I B A M
;
_chemical_formula_sum "Si O2"
_cell_formula_units_Z 112
_cell_length_a 15.176771
_cell_length_b 13.552825
_cell_length_c 27.988301
_cell_angle_alpha 90.000000
_cell_angle_beta 90.000000
_cell_angle_gamma 90.000000
_cell_volume 5756.861055
_symmetry_space_group_name_H-M "I B A M"
_symmetry_group_IT_number 72
_symmetry_cell_setting 'orthorhombic'
loop_
_space_group_symop_operation_xyz
x,y,z
-x,-y,z
x,-y,1/2-z
-x,y,1/2-z
-x,-y,-z
x,y,-z
-x,y,1/2+z
x,-y,1/2+z
1/2+x,1/2+y,1/2+z
1/2-x,1/2-y,1/2+z
1/2+x,1/2-y,-z
1/2-x,1/2+y,-z
1/2-x,1/2-y,1/2-z
1/2+x,1/2+y,1/2-z
1/2-x,1/2+y,z
1/2+x,1/2-y,z
loop_
_atom_site_type_symbol
_atom_site_label
_atom_site_fract_x
_atom_site_fract_y
_atom_site_fract_z
Si Si1 0.173625 0.089942 0.132634
Si Si2 0.781620 0.694662 0.554893
Si Si3 0.397264 0.994386 0.557071
Si Si4 0.736204 0.611072 0.895702
Si Si5 0.327292 0.308919 0.197396
Si Si6 0.782464 0.594023 0.725710
Si Si7 0.992521 0.881809 0.805440
O O1 0.204898 0.159857 0.090461
O O2 0.249354 0.073365 0.172613
O O3 0.092824 0.134541 0.162392
O O4 0.168688 0.980379 0.110666
O O5 0.755641 0.684560 0.500000
O O6 0.860724 0.617180 0.563649
O O7 0.799545 0.807506 0.567742
O O8 0.391766 0.017112 0.500000
O O9 0.500000 0.000000 0.571340
O O10 0.328406 0.064812 0.585298
O O11 0.742376 0.668502 0.844671
O O12 0.301228 0.384766 0.239480
O O13 0.327576 0.200501 0.220365
O O14 0.420424 0.332084 0.173881
O O15 0.828800 0.500000 0.750000
O O16 0.000000 0.848676 0.750000
O O17 0.000000 0.000000 0.804650
#
# Coordination Sequence:
#
# PCOD9528502 Si02
#       7
#    16  16  16  16  16  16  16
#     4  11  21  37  63  91 126 169 213 266 325 386
#     4  10  22  41  65  93 125 167 223 273 331 402
#     4   9  20  41  68  91 118 164 221 279 332 388
#     4  11  20  36  60  92 126 163 212 264 325 387
#     4  11  22  34  61  93 125 170 211 253 329 386
#     4  11  20  37  60  88 126 165 212 264 313 400
#     4  11  20  35  59  93 131 162 211 264 312 387
#
# _framework density 19.455047
#
# number of rings (size 3 to 8) (size 9 to 14) (size 15 to 20)
#    0.000    1.429    5.714    0.429    0.000    0.571 
#    2.571    0.000    0.000    1.714    0.000    0.000 
#    0.000    0.000    0.000    0.000    0.000    0.000 
#
# Total GULP energy -311966.599497 kJ/mol
# GULP energy per Si atom -5570.832134 kJ/mol
# Density = 1.941077 g / cm^3
# Si number density = 19.455047 Si / 1000 Ang^3
#
#
#
# Elastic Constant Matrix: (Units=GPa)
#
#
# Indices 1 2 3 4 5 6 
#
# 1 90.6144 30.9872 47.2825 0.0000 0.0000 0.0000
# 2 30.9872 114.5088 37.5012 0.0000 0.0000 0.0000
# 3 47.2825 37.5012 109.0640 0.0000 0.0000 0.0000
# 4 0.0000 0.0000 0.0000 35.7322 0.0000 0.0000
# 5 0.0000 0.0000 0.0000 0.0000 28.9154 0.0000
# 6 0.0000 0.0000 0.0000 0.0000 0.0000 9.9703
#
#
#
# Elastic Compliance Matrix: (Units=1/GPa)
#
#
# Indices 1 2 3 4 5 6 
#
# 1 0.014710 -0.002132 -0.005644 0.000000 0.000000 0.000000
# 2 -0.002132 0.010150 -0.002566 0.000000 0.000000 0.000000
# 3 -0.005644 -0.002566 0.012498 0.000000 0.000000 0.000000
# 4 0.000000 0.000000 0.000000 0.027986 0.000000 0.000000
# 5 0.000000 0.000000 0.000000 0.000000 0.034584 0.000000
# 6 0.000000 0.000000 0.000000 0.000000 0.000000 0.100298
#
#
# Mechanical properties :
#
#
# Convention : Reuss Voigt Hill
#
# Bulk Modulus (GPa) = 59.97298 60.63654 60.30476
# Shear Modulus (GPa) = 22.07816 28.15134 25.11475
#
# Velocity S-wave (km/s) = 3.37238 3.80806 3.59682
# Velocity P-wave (km/s) = 6.78655 7.11128 6.95081
#
# Compressibility (1/GPa) = 0.01667417
#
# Stress axis : x y z
#
# Youngs Moduli (GPa) = 67.98099 98.52002 80.01282
#
# Poissons Ratio (x) = 0.21007 0.45160
# Poissons Ratio (y) = 0.14495 0.20529
# Poissons Ratio (z) = 0.38369 0.25277
#
# Static dielectric constant tensor:
#      x y z
#    x 1.720770 0.000000 0.000000 
#    y 0.000000 1.746410 0.000000 
#    z 0.000000 0.000000 1.715060 
# 
# From -- ./inp_files/51846.got.cif
#   From: 2010.05.17/outbox.cif.g08.bks.cpg/sg72_26_cif.got.tgz:51846.got - 2010.06.03 17:03:01.
