data_PCOD9528926
_publ_section_title
;
Structure prediction by ZEFSAII (Michael W. Deem and Ramdas Pophale) SiO2 
 PCOD9528926
Probable space group: I B A M
;
_chemical_formula_sum "Si O2"
_cell_formula_units_Z 88
_cell_length_a 12.770409
_cell_length_b 12.637747
_cell_length_c 24.050164
_cell_angle_alpha 90.000000
_cell_angle_beta 90.000000
_cell_angle_gamma 90.000000
_cell_volume 3881.436680
_symmetry_space_group_name_H-M "I B A M"
_symmetry_group_IT_number 72
_symmetry_cell_setting 'orthorhombic'
loop_
_space_group_symop_operation_xyz
x,y,z
-x,-y,z
x,-y,1/2-z
-x,y,1/2-z
-x,-y,-z
x,y,-z
-x,y,1/2+z
x,-y,1/2+z
1/2+x,1/2+y,1/2+z
1/2-x,1/2-y,1/2+z
1/2+x,1/2-y,-z
1/2-x,1/2+y,-z
1/2-x,1/2-y,1/2-z
1/2+x,1/2+y,1/2-z
1/2-x,1/2+y,z
1/2+x,1/2-y,z
loop_
_atom_site_type_symbol
_atom_site_label
_atom_site_fract_x
_atom_site_fract_y
_atom_site_fract_z
Si Si1 0.315673 0.642529 0.939091
Si Si2 0.448987 0.168791 0.196992
Si Si3 0.000000 0.000000 0.112289
Si Si4 0.881750 0.471503 0.905343
Si Si5 0.668104 0.821102 0.354207
Si Si6 0.642011 0.398166 0.291935
O O1 0.416020 0.568839 0.923075
O O2 0.201735 0.588770 0.941952
O O3 0.296278 0.718813 0.886652
O O4 0.337956 0.690748 0.000000
O O5 0.500000 0.113144 0.250000
O O6 0.389770 0.089811 0.154833
O O7 0.549484 0.201731 0.161208
O O8 0.398422 0.278191 0.219789
O O9 0.924679 0.067413 0.153802
O O10 0.829396 0.584324 0.897315
O O11 0.000000 0.500000 0.923536
O O12 0.737882 0.868925 0.304846
O O13 0.633079 0.500000 0.250000
#
# Coordination Sequence:
#
# PCOD9528926 Si02
#       6
#    16  16   8  16  16  16
#     4  12  26  47  77 105 140 198 252 313 377 426
#     4  11  24  42  70 105 145 190 236 288 368 442
#     4  12  24  48  68 110 148 184 256 312 364 454
#     4  10  24  46  70 103 145 185 238 309 360 440
#     4  11  25  45  69 105 149 183 246 305 356 444
#     4  12  25  42  75 109 149 200 233 298 378 447
#
# _framework density 22.672015999999999
#
# number of rings (size 3 to 8) (size 9 to 14) (size 15 to 20)
#    0.000    0.727    5.455    1.636    2.545    4.364 
#    0.000    6.364    0.000    0.000    0.000    0.000 
#    0.000    0.000    0.000    0.000    0.000    0.000 
#
# Total GULP energy -244987.589702 kJ/mol
# GULP energy per Si atom -5567.899766 kJ/mol
# Density = 2.262041 g / cm^3
# Si number density = 22.672016 Si / 1000 Ang^3
#
#
#
# Elastic Constant Matrix: (Units=GPa)
#
#
# Indices 1 2 3 4 5 6 
#
# 1 75.1052 40.6709 10.0416 0.0000 0.0000 0.0000
# 2 40.6709 92.0337 15.6815 0.0000 0.0000 0.0000
# 3 10.0416 15.6815 65.5810 0.0000 0.0000 0.0000
# 4 0.0000 0.0000 0.0000 -50.7268 0.0000 0.0000
# 5 0.0000 0.0000 0.0000 0.0000-3753.0110 0.0000
# 6 0.0000 0.0000 0.0000 0.0000 0.0000 12.9890
#
#
#
# Elastic Compliance Matrix: (Units=1/GPa)
#
#
# Indices 1 2 3 4 5 6 
#
# 1 0.017551 -0.007608 -0.000868 0.000000 0.000000 0.000000
# 2 -0.007608 0.014625 -0.002332 0.000000 0.000000 0.000000
# 3 -0.000868 -0.002332 0.015939 0.000000 0.000000 0.000000
# 4 0.000000 0.000000 0.000000 -0.019713 0.000000 0.000000
# 5 0.000000 0.000000 0.000000 0.000000 -0.000266 0.000000
# 6 0.000000 0.000000 0.000000 0.000000 0.000000 0.076988
#
#
# Mechanical properties :
#
#
# Convention : Reuss Voigt Hill
#
# Bulk Modulus (GPa) = 37.73865 40.61200 39.17532
# Shear Modulus (GPa) = 36.88085 -747.06134 -355.09025
#
# Velocity S-wave (km/s) = 4.03763 -18.17205 -12.52839
# Velocity P-wave (km/s) = 6.19824 20.55106 13.85511
#
# Compressibility (1/GPa) = 0.02649804
#
# Stress axis : x y z
#
# Youngs Moduli (GPa) = 56.97827 68.37611 62.73961
#
# Poissons Ratio (x) = 0.52020 0.05447
# Poissons Ratio (y) = 0.43348 0.14632
# Poissons Ratio (z) = 0.04946 0.15946
#
# Static dielectric constant tensor:
#      x y z
#    x 1.914810 0.000000 0.000000 
#    y 0.000000 1.881130 0.000000 
#    z 0.000000 0.000000 1.962040 
# 
# From -- ./inp_files/44132.got.cif
#   From: 2010.05.17/outbox.cif.g08.bks.cpg/sg72_23_cif.got.tgz:44132.got - 2010.06.03 17:03:01.
