data_PCOD9528681
_publ_section_title
;
Structure prediction by ZEFSAII (Michael W. Deem and Ramdas Pophale) SiO2 
 PCOD9528681
Probable space group: I B A M
;
_chemical_formula_sum "Si O2"
_cell_formula_units_Z 88
_cell_length_a 24.579151
_cell_length_b 8.850577
_cell_length_c 13.664733
_cell_angle_alpha 90.000000
_cell_angle_beta 90.000000
_cell_angle_gamma 90.000000
_cell_volume 2972.621487
_symmetry_space_group_name_H-M "I B A M"
_symmetry_group_IT_number 72
_symmetry_cell_setting 'orthorhombic'
loop_
_space_group_symop_operation_xyz
x,y,z
-x,-y,z
x,-y,1/2-z
-x,y,1/2-z
-x,-y,-z
x,y,-z
-x,y,1/2+z
x,-y,1/2+z
1/2+x,1/2+y,1/2+z
1/2-x,1/2-y,1/2+z
1/2+x,1/2-y,-z
1/2-x,1/2+y,-z
1/2-x,1/2-y,1/2-z
1/2+x,1/2+y,1/2-z
1/2-x,1/2+y,z
1/2+x,1/2-y,z
loop_
_atom_site_type_symbol
_atom_site_label
_atom_site_fract_x
_atom_site_fract_y
_atom_site_fract_z
Si Si1 0.809070 0.020959 0.134259
Si Si2 0.463162 0.682737 0.111227
Si Si3 0.804494 0.515885 0.865633
Si Si4 0.582350 0.673446 0.817752
Si Si5 0.077229 0.503411 0.892438
Si Si6 0.253260 0.294323 0.500000
O O1 0.801307 0.860730 0.083676
O O2 0.865505 0.107697 0.126094
O O3 0.751109 0.101588 0.094121
O O4 0.803262 0.000000 0.250000
O O5 0.525354 0.634890 0.130724
O O6 0.425020 0.634132 0.202217
O O7 0.463812 0.866268 0.121935
O O8 0.446422 0.649713 0.000000
O O9 0.803204 0.500000 0.750000
O O10 0.863020 0.573305 0.894149
O O11 0.794029 0.356871 0.916218
O O12 0.584097 0.856334 0.820690
O O13 0.067647 0.570392 0.000000
#
# Coordination Sequence:
#
# PCOD9528681 Si02
#       6
#    16  16  16  16  16   8
#     4   9  20  38  60  87 117 156 197 250 291 343
#     4  10  23  39  55  86 125 153 191 246 296 349
#     4   9  17  33  55  82 120 158 195 233 293 347
#     4  11  22  38  62  88 116 156 204 237 292 364
#     4  11  20  35  61  89 122 161 193 236 297 358
#     4   8  16  34  60  80 121 156 197 241 293 344
#
# _framework density 29.603501000000001
#
# number of rings (size 3 to 8) (size 9 to 14) (size 15 to 20)
#    1.091    1.091    0.909    2.727    2.545    2.909 
#    1.636   10.000    0.000    5.455    0.000    0.000 
#    0.000    0.000    0.000    0.000    0.000    0.000 
#
# Total GULP energy -245092.353976 kJ/mol
# GULP energy per Si atom -5570.280772 kJ/mol
# Density = 2.953612 g / cm^3
# Si number density = 29.603501 Si / 1000 Ang^3
#
#
#
# Elastic Constant Matrix: (Units=GPa)
#
#
# Indices 1 2 3 4 5 6 
#
# 1 217.0715 71.0779 14.3416 0.0000 0.0000 0.0000
# 2 71.0779 120.3658 -7.7999 0.0000 0.0000 0.0000
# 3 14.3416 -7.7999 226.7132 0.0000 0.0000 0.0000
# 4 0.0000 0.0000 0.0000 10.9652 0.0000 0.0000
# 5 0.0000 0.0000 0.0000 0.0000 65.0313 0.0000
# 6 0.0000 0.0000 0.0000 0.0000 0.0000 74.5359
#
#
#
# Elastic Compliance Matrix: (Units=1/GPa)
#
#
# Indices 1 2 3 4 5 6 
#
# 1 0.005763 -0.003435 -0.000483 0.000000 0.000000 0.000000
# 2 -0.003435 0.010373 0.000574 0.000000 0.000000 0.000000
# 3 -0.000483 0.000574 0.004461 0.000000 0.000000 0.000000
# 4 0.000000 0.000000 0.000000 0.091197 0.000000 0.000000
# 5 0.000000 0.000000 0.000000 0.000000 0.015377 0.000000
# 6 0.000000 0.000000 0.000000 0.000000 0.000000 0.013416
#
#
# Mechanical properties :
#
#
# Convention : Reuss Voigt Hill
#
# Bulk Modulus (GPa) = 71.88311 79.93218 75.90764
# Shear Modulus (GPa) = 32.91373 62.54187 47.72780
#
# Velocity S-wave (km/s) = 3.33801 4.60135 4.01962
# Velocity P-wave (km/s) = 6.26028 7.43568 6.87315
#
# Compressibility (1/GPa) = 0.01391147
#
# Stress axis : x y z
#
# Youngs Moduli (GPa) = 173.51189 96.40048 224.15739
#
# Poissons Ratio (x) = 0.33110 0.10821
# Poissons Ratio (y) = 0.59594 -0.12870
# Poissons Ratio (z) = 0.08376 -0.05535
#
# Static dielectric constant tensor:
#      x y z
#    x 2.350280 0.000000 0.000000 
#    y 0.000000 2.764620 0.000000 
#    z 0.000000 0.000000 1.233280 
# 
# From -- ./inp_files/25820.got.cif
#   From: 2010.05.17/outbox.cif.g08.bks.cpg/sg72_13_cif.got.tgz:25820.got - 2010.06.03 17:03:01.
