data_PCOD9528839
_publ_section_title
;
Structure prediction by ZEFSAII (Michael W. Deem and Ramdas Pophale) SiO2 
 PCOD9528839
Probable space group: I B A M
;
_chemical_formula_sum "Si O2"
_cell_formula_units_Z 108
_cell_length_a 28.028724
_cell_length_b 12.262556
_cell_length_c 14.901643
_cell_angle_alpha 90.000000
_cell_angle_beta 90.000000
_cell_angle_gamma 90.000000
_cell_volume 5121.751290
_symmetry_space_group_name_H-M "I B A M"
_symmetry_group_IT_number 72
_symmetry_cell_setting 'orthorhombic'
loop_
_space_group_symop_operation_xyz
x,y,z
-x,-y,z
x,-y,1/2-z
-x,y,1/2-z
-x,-y,-z
x,y,-z
-x,y,1/2+z
x,-y,1/2+z
1/2+x,1/2+y,1/2+z
1/2-x,1/2-y,1/2+z
1/2+x,1/2-y,-z
1/2-x,1/2+y,-z
1/2-x,1/2-y,1/2-z
1/2+x,1/2+y,1/2-z
1/2-x,1/2+y,z
1/2+x,1/2-y,z
loop_
_atom_site_type_symbol
_atom_site_label
_atom_site_fract_x
_atom_site_fract_y
_atom_site_fract_z
Si Si1 0.212566 0.639715 0.500000
Si Si2 0.500000 0.500000 0.500000
Si Si3 0.469818 0.655319 0.161783
Si Si4 0.993500 0.623710 0.607000
Si Si5 0.612108 0.220890 0.604088
Si Si6 0.366724 0.622130 0.769644
Si Si7 0.230133 0.200810 0.842021
Si Si8 0.188751 0.534712 0.852938
O O1 0.237378 0.715777 0.578039
O O2 0.187460 0.564966 0.579022
O O3 0.492795 0.406097 0.421796
O O4 0.500000 0.629363 0.250000
O O5 0.471848 0.785982 0.148835
O O6 0.415827 0.617884 0.175713
O O7 0.002032 0.622269 0.500000
O O8 0.940071 0.669358 0.621378
O O9 0.000000 0.500000 0.639783
O O10 0.613480 0.258730 0.500000
O O11 0.622816 0.314434 0.676777
O O12 0.650950 0.126725 0.619302
O O13 0.350179 0.500000 0.750000
O O14 0.325725 0.680021 0.826715
O O15 0.250000 0.250000 0.750000
O O16 0.258951 0.089924 0.860452
O O17 0.180851 0.500000 0.750000
#
# Coordination Sequence:
#
# PCOD9528839 Si02
#       8
#     8   4  16  16  16  16  16  16
#     4  12  26  45  76 106 142 199 242 303 382 440
#     4  12  26  46  78  98 146 200 236 316 368 438
#     4  12  25  47  74 106 146 193 250 297 372 441
#     4  10  23  45  72 107 147 188 238 303 361 436
#     4  11  24  45  73 108 142 192 248 294 375 447
#     4  12  27  48  71 108 146 191 248 310 365 447
#     4  12  26  48  72 105 149 187 249 308 373 451
#     4  12  24  47  75 104 147 198 244 306 375 452
#
# _framework density 21.086537
#
# number of rings (size 3 to 8) (size 9 to 14) (size 15 to 20)
#    0.000    0.444    5.926    2.000    0.000    3.259 
#    4.000    0.000    0.000    0.000    0.000    0.000 
#    0.000    0.000    0.000    0.000    0.000    0.000 
#
# Total GULP energy -300683.157944 kJ/mol
# GULP energy per Si atom -5568.206629 kJ/mol
# Density = 2.103854 g / cm^3
# Si number density = 21.086537 Si / 1000 Ang^3
#
#
#
# Elastic Constant Matrix: (Units=GPa)
#
#
# Indices 1 2 3 4 5 6 
#
# 1 44.6519 -26.7494 0.0078 0.0000 0.0000 0.0000
# 2 -26.7494 76.0570 23.1984 0.0000 0.0000 0.0000
# 3 0.0078 23.1984 150.4600 0.0000 0.0000 0.0000
# 4 0.0000 0.0000 0.0000 35.0682 0.0000 0.0000
# 5 0.0000 0.0000 0.0000 0.0000 -10.5525 0.0000
# 6 0.0000 0.0000 0.0000 0.0000 0.0000 15.7969
#
#
#
# Elastic Compliance Matrix: (Units=1/GPa)
#
#
# Indices 1 2 3 4 5 6 
#
# 1 0.028753 0.010612 -0.001638 0.000000 0.000000 0.000000
# 2 0.010612 0.017713 -0.002732 0.000000 0.000000 0.000000
# 3 -0.001638 -0.002732 0.007068 0.000000 0.000000 0.000000
# 4 0.000000 0.000000 0.000000 0.028516 0.000000 0.000000
# 5 0.000000 0.000000 0.000000 0.000000 -0.094764 0.000000
# 6 0.000000 0.000000 0.000000 0.000000 0.000000 0.063303
#
#
# Mechanical properties :
#
#
# Convention : Reuss Voigt Hill
#
# Bulk Modulus (GPa) = 15.14708 29.34252 22.24480
# Shear Modulus (GPa) = 83.18069 26.37668 54.77869
#
# Velocity S-wave (km/s) = 6.28752 3.54061 5.10239
# Velocity P-wave (km/s) = 7.74012 5.53715 6.72940
#
# Compressibility (1/GPa) = 0.06601934
#
# Stress axis : x y z
#
# Youngs Moduli (GPa) = 34.77895 56.45418 141.49185
#
# Poissons Ratio (x) = -0.59909 0.23172
# Poissons Ratio (y) = -0.36907 0.38651
# Poissons Ratio (z) = 0.05696 0.15421
#
# Static dielectric constant tensor:
#      x y z
#    x 1.760520 0.000000 0.000000 
#    y 0.000000 1.787230 0.000000 
#    z 0.000000 0.000000 1.736020 
# 
# From -- ./inp_files/26463.got.cif
#   From: 2010.05.17/outbox.cif.g08.bks.cpg/sg72_14_cif.got.tgz:26463.got - 2010.06.03 17:03:01.
