data_PCOD9528177
_publ_section_title
;
Structure prediction by ZEFSAII (Michael W. Deem and Ramdas Pophale) SiO2 
 PCOD9528177
Probable space group: I B A M
;
_chemical_formula_sum "Si O2"
_cell_formula_units_Z 80
_cell_length_a 16.894655
_cell_length_b 15.733377
_cell_length_c 14.504925
_cell_angle_alpha 90.000000
_cell_angle_beta 90.000000
_cell_angle_gamma 90.000000
_cell_volume 3855.553772
_symmetry_space_group_name_H-M "I B A M"
_symmetry_group_IT_number 72
_symmetry_cell_setting 'orthorhombic'
loop_
_space_group_symop_operation_xyz
x,y,z
-x,-y,z
x,-y,1/2-z
-x,y,1/2-z
-x,-y,-z
x,y,-z
-x,y,1/2+z
x,-y,1/2+z
1/2+x,1/2+y,1/2+z
1/2-x,1/2-y,1/2+z
1/2+x,1/2-y,-z
1/2-x,1/2+y,-z
1/2-x,1/2-y,1/2-z
1/2+x,1/2+y,1/2-z
1/2-x,1/2+y,z
1/2+x,1/2-y,z
loop_
_atom_site_type_symbol
_atom_site_label
_atom_site_fract_x
_atom_site_fract_y
_atom_site_fract_z
Si Si1 0.320402 0.495829 0.500000
Si Si2 0.573658 0.234578 0.500000
Si Si3 0.060096 0.139667 0.000000
Si Si4 0.158071 0.233668 0.840478
Si Si5 0.258664 0.925619 0.681639
Si Si6 0.759453 0.186461 0.000000
Si Si7 0.426149 0.852855 0.306443
O O1 0.409979 0.458102 0.500000
O O2 0.276202 0.454277 0.414465
O O3 0.300885 0.595074 0.500000
O O4 0.529222 0.325773 0.500000
O O5 0.668512 0.246227 0.500000
O O6 0.551300 0.185003 0.406354
O O7 0.100228 0.182640 0.090091
O O8 0.218520 0.165057 0.797532
O O9 0.206288 0.296774 0.909058
O O10 0.108893 0.279523 0.760865
O O11 0.352754 0.915515 0.679444
O O12 0.235251 0.000000 0.750000
O O13 0.500000 0.889198 0.250000
#
# Coordination Sequence:
#
# PCOD9528177 Si02
#       7
#     8   8   8  16  16   8  16
#     4  10  23  41  60  96 131 162 205 280 319 380
#     4  12  23  39  65  96 122 171 217 260 321 383
#     4   9  20  40  60  92 133 157 207 268 325 370
#     4  10  21  41  65  95 120 167 221 264 306 393
#     4  11  23  40  64  93 130 162 211 268 327 373
#     4  11  22  40  73  93 126 170 217 258 325 382
#     4  12  24  40  66  93 129 172 221 262 315 391
#
# _framework density 20.749289000000001
#
# number of rings (size 3 to 8) (size 9 to 14) (size 15 to 20)
#    0.000    1.200    4.000    3.000    2.800    0.800 
#    0.000    0.000    0.000    4.200    0.000    0.000 
#    0.000    0.000    0.000    0.000    0.000    0.000 
#
# Total GULP energy -223466.699109 kJ/mol
# GULP energy per Si atom -5586.667478 kJ/mol
# Density = 2.070206 g / cm^3
# Si number density = 20.749289 Si / 1000 Ang^3
#
#
#
# Elastic Constant Matrix: (Units=GPa)
#
#
# Indices 1 2 3 4 5 6 
#
# 1 86.7471 2.3708 28.9636 0.0000 0.0000 0.0000
# 2 2.3708 71.0335 31.9528 0.0000 0.0000 0.0000
# 3 28.9636 31.9528 145.0166 0.0000 0.0000 0.0000
# 4 0.0000 0.0000 0.0000 -0.1972 0.0000 0.0000
# 5 0.0000 0.0000 0.0000 0.0000 21.4620 0.0000
# 6 0.0000 0.0000 0.0000 0.0000 0.0000 19.3079
#
#
#
# Elastic Compliance Matrix: (Units=1/GPa)
#
#
# Indices 1 2 3 4 5 6 
#
# 1 0.012390 0.000777 -0.002646 0.000000 0.000000 0.000000
# 2 0.000777 0.015675 -0.003609 0.000000 0.000000 0.000000
# 3 -0.002646 -0.003609 0.008219 0.000000 0.000000 0.000000
# 4 0.000000 0.000000 0.000000 -5.071571 0.000000 0.000000
# 5 0.000000 0.000000 0.000000 0.000000 0.046594 0.000000
# 6 0.000000 0.000000 0.000000 0.000000 0.000000 0.051792
#
#
# Mechanical properties :
#
#
# Convention : Reuss Voigt Hill
#
# Bulk Modulus (GPa) = 39.48131 47.70795 43.59463
# Shear Modulus (GPa) = -1.01678 24.08188 11.53255
#
# Velocity S-wave (km/s) = -0.70078 3.41047 2.36011
# Velocity P-wave (km/s) = 4.29119 6.20894 5.33691
#
# Compressibility (1/GPa) = 0.02532844
#
# Stress axis : x y z
#
# Youngs Moduli (GPa) = 80.71091 63.79430 121.66359
#
# Poissons Ratio (x) = -0.04954 0.32189
# Poissons Ratio (y) = -0.06268 0.43908
# Poissons Ratio (z) = 0.21354 0.23023
#
# Static dielectric constant tensor:
#      x y z
#    x 1.755220 0.000000 0.000000 
#    y 0.000000 1.770930 0.000000 
#    z 0.000000 0.000000 1.711410 
# 
# From -- ./inp_files/23179.got.cif
#   From: 2010.05.17/outbox.cif.g08.bks.cpg/sg72_12_cif.got.tgz:23179.got - 2010.06.03 17:03:01.
