data_PCOD9528235
_publ_section_title
;
Structure prediction by ZEFSAII (Michael W. Deem and Ramdas Pophale) SiO2 
 PCOD9528235
Probable space group: I B A M
;
_chemical_formula_sum "Si O2"
_cell_formula_units_Z 96
_cell_length_a 11.407594
_cell_length_b 21.973213
_cell_length_c 18.484857
_cell_angle_alpha 90.000000
_cell_angle_beta 90.000000
_cell_angle_gamma 90.000000
_cell_volume 4633.441849
_symmetry_space_group_name_H-M "I B A M"
_symmetry_group_IT_number 72
_symmetry_cell_setting 'orthorhombic'
loop_
_space_group_symop_operation_xyz
x,y,z
-x,-y,z
x,-y,1/2-z
-x,y,1/2-z
-x,-y,-z
x,y,-z
-x,y,1/2+z
x,-y,1/2+z
1/2+x,1/2+y,1/2+z
1/2-x,1/2-y,1/2+z
1/2+x,1/2-y,-z
1/2-x,1/2+y,-z
1/2-x,1/2-y,1/2-z
1/2+x,1/2+y,1/2-z
1/2-x,1/2+y,z
1/2+x,1/2-y,z
loop_
_atom_site_type_symbol
_atom_site_label
_atom_site_fract_x
_atom_site_fract_y
_atom_site_fract_z
Si Si1 0.309925 0.088531 0.303259
Si Si2 0.823115 0.732994 0.416901
Si Si3 0.919792 0.837792 0.682272
Si Si4 0.021229 0.628824 0.419491
Si Si5 0.665875 0.048585 0.355288
Si Si6 0.866753 0.132107 0.414427
O O1 0.178998 0.113946 0.294945
O O2 0.384422 0.131543 0.355944
O O3 0.359561 0.079512 0.222773
O O4 0.316098 0.022314 0.340744
O O5 0.814853 0.756443 0.500000
O O6 0.853733 0.783234 0.358262
O O7 0.929485 0.684294 0.416106
O O8 0.705727 0.694701 0.400322
O O9 0.000000 0.818298 0.750000
O O10 0.010582 0.866496 0.625629
O O11 0.073659 0.627430 0.500000
O O12 0.940865 0.569187 0.405829
O O13 0.783115 0.078442 0.386803
O O14 0.881397 0.127540 0.500000
#
# Coordination Sequence:
#
# PCOD9528235 Si02
#       6
#    16  16  16  16  16  16
#     4  11  24  39  64  94 129 165 212 263 317 381
#     4   9  22  42  64  88 126 169 205 262 324 377
#     4  12  25  41  61  95 128 169 217 260 312 380
#     4  10  22  41  66  97 129 165 210 265 325 378
#     4  10  21  43  64  91 126 170 206 260 324 379
#     4  10  22  43  65  88 125 168 214 260 321 379
#
# _framework density 20.718938000000001
#
# number of rings (size 3 to 8) (size 9 to 14) (size 15 to 20)
#    0.000    1.667    1.667    3.000    2.333    8.667 
#    0.000    0.833    0.000    0.000    0.000    0.000 
#    0.000    0.000    0.000    0.000    0.000    0.000 
#
# Total GULP energy -268355.661797 kJ/mol
# GULP energy per Si atom -5590.742954 kJ/mol
# Density = 2.067178 g / cm^3
# Si number density = 20.718938 Si / 1000 Ang^3
#
#
#
# Elastic Constant Matrix: (Units=GPa)
#
#
# Indices 1 2 3 4 5 6 
#
# 1 61.4424 1.1987 13.1671 0.0000 0.0000 0.0000
# 2 1.1987 37.2116 18.9238 0.0000 0.0000 0.0000
# 3 13.1671 18.9238 66.1692 0.0000 0.0000 0.0000
# 4 0.0000 0.0000 0.0000 8.6290 0.0000 0.0000
# 5 0.0000 0.0000 0.0000 0.0000 36.4818 0.0000
# 6 0.0000 0.0000 0.0000 0.0000 0.0000 -4.0547
#
#
#
# Elastic Compliance Matrix: (Units=1/GPa)
#
#
# Indices 1 2 3 4 5 6 
#
# 1 0.017060 0.001377 -0.003789 0.000000 0.000000 0.000000
# 2 0.001377 0.031558 -0.009299 0.000000 0.000000 0.000000
# 3 -0.003789 -0.009299 0.018526 0.000000 0.000000 0.000000
# 4 0.000000 0.000000 0.000000 0.115888 0.000000 0.000000
# 5 0.000000 0.000000 0.000000 0.000000 0.027411 0.000000
# 6 0.000000 0.000000 0.000000 0.000000 0.000000 -0.246629
#
#
# Mechanical properties :
#
#
# Convention : Reuss Voigt Hill
#
# Bulk Modulus (GPa) = 22.87126 25.71136 24.29131
# Shear Modulus (GPa) = 2760.93343 16.98015 1388.95679
#
# Velocity S-wave (km/s) = 36.54392 2.86588 25.91979
# Velocity P-wave (km/s) = 42.32816 4.83607 30.12525
#
# Compressibility (1/GPa) = 0.04372299
#
# Stress axis : x y z
#
# Youngs Moduli (GPa) = 58.61504 31.68753 53.97754
#
# Poissons Ratio (x) = -0.04364 0.20451
# Poissons Ratio (y) = -0.08072 0.50196
# Poissons Ratio (z) = 0.22208 0.29467
#
# Static dielectric constant tensor:
#      x y z
#    x 1.718010 0.000000 0.000000 
#    y 0.000000 1.742820 0.000000 
#    z 0.000000 0.000000 1.732370 
# 
# From -- ./inp_files/29489.got.cif
#   From: 2010.05.17/outbox.cif.g08.bks.cpg/sg72_15_cif.got.tgz:29489.got - 2010.06.03 17:03:01.
