data_PCOD9528072
_publ_section_title
;
Structure prediction by ZEFSAII (Michael W. Deem and Ramdas Pophale) SiO2 
 PCOD9528072
Probable space group: I B A M
;
_chemical_formula_sum "Si O2"
_cell_formula_units_Z 108
_cell_length_a 19.842314
_cell_length_b 14.569407
_cell_length_c 14.982873
_cell_angle_alpha 90.000000
_cell_angle_beta 90.000000
_cell_angle_gamma 90.000000
_cell_volume 4331.409970
_symmetry_space_group_name_H-M "I B A M"
_symmetry_group_IT_number 72
_symmetry_cell_setting 'orthorhombic'
loop_
_space_group_symop_operation_xyz
x,y,z
-x,-y,z
x,-y,1/2-z
-x,y,1/2-z
-x,-y,-z
x,y,-z
-x,y,1/2+z
x,-y,1/2+z
1/2+x,1/2+y,1/2+z
1/2-x,1/2-y,1/2+z
1/2+x,1/2-y,-z
1/2-x,1/2+y,-z
1/2-x,1/2-y,1/2-z
1/2+x,1/2+y,1/2-z
1/2-x,1/2+y,z
1/2+x,1/2-y,z
loop_
_atom_site_type_symbol
_atom_site_label
_atom_site_fract_x
_atom_site_fract_y
_atom_site_fract_z
Si Si1 0.802501 0.875279 0.154912
Si Si2 0.500000 0.500000 0.250000
Si Si3 0.553672 0.642077 0.397466
Si Si4 0.554915 0.827638 0.316244
Si Si5 0.347803 0.160692 0.838853
Si Si6 0.871728 0.780404 0.500000
Si Si7 0.650194 0.040719 0.899161
Si Si8 0.704777 0.589175 0.137133
O O1 0.866758 0.836760 0.104502
O O2 0.732088 0.822222 0.144530
O O3 0.811471 0.888063 0.260756
O O4 0.799406 0.980194 0.119922
O O5 0.539491 0.565167 0.321342
O O6 0.531187 0.621105 0.500000
O O7 0.524058 0.737162 0.361317
O O8 0.500000 0.869245 0.250000
O O9 0.618243 0.804128 0.251302
O O10 0.584023 0.899423 0.385577
O O11 0.384838 0.204177 0.921966
O O12 0.351162 0.049924 0.838518
O O13 0.845750 0.854378 0.576689
O O14 0.715667 0.103741 0.879357
O O15 0.657190 0.007917 0.000000
#
# Coordination Sequence:
#
# PCOD9528072 Si02
#       8
#    16   4  16  16  16   8  16  16
#     4  10  23  44  68 108 146 195 245 296 390 449
#     4  12  26  60  76 118 162 200 252 312 388 450
#     4  12  28  49  82 114 150 206 257 310 374 468
#     4  12  27  51  73 103 142 202 263 316 382 458
#     4  11  25  43  69 109 154 189 244 321 388 453
#     4  12  24  36  64 109 149 188 232 313 376 454
#     4  11  22  44  72 105 145 196 255 310 382 460
#     4  10  21  39  67 104 149 195 233 301 379 456
#
# _framework density 24.934142999999999
#
# number of rings (size 3 to 8) (size 9 to 14) (size 15 to 20)
#    0.000    0.889    3.704    2.889    4.148    2.370 
#    2.667    0.741    0.000    0.000    0.000    0.000 
#    0.000    0.000    0.000    0.000    0.000    0.000 
#
# Total GULP energy -301188.497643 kJ/mol
# GULP energy per Si atom -5577.564771 kJ/mol
# Density = 2.487739 g / cm^3
# Si number density = 24.934143 Si / 1000 Ang^3
#
#
#
# Elastic Constant Matrix: (Units=GPa)
#
#
# Indices 1 2 3 4 5 6 
#
# 1 66.0802 13.9057 13.1546 0.0000 0.0000 0.0000
# 2 13.9057 78.0705 31.2169 0.0000 0.0000 0.0000
# 3 13.1546 31.2169 152.7031 0.0000 0.0000 0.0000
# 4 0.0000 0.0000 0.0000 40.3557 0.0000 0.0000
# 5 0.0000 0.0000 0.0000 0.0000 -18.5369 0.0000
# 6 0.0000 0.0000 0.0000 0.0000 0.0000 9.5021
#
#
#
# Elastic Compliance Matrix: (Units=1/GPa)
#
#
# Indices 1 2 3 4 5 6 
#
# 1 0.015825 -0.002476 -0.000857 0.000000 0.000000 0.000000
# 2 -0.002476 0.014337 -0.002718 0.000000 0.000000 0.000000
# 3 -0.000857 -0.002718 0.007178 0.000000 0.000000 0.000000
# 4 0.000000 0.000000 0.000000 0.024780 0.000000 0.000000
# 5 0.000000 0.000000 0.000000 0.000000 -0.053946 0.000000
# 6 0.000000 0.000000 0.000000 0.000000 0.000000 0.105240
#
#
# Mechanical properties :
#
#
# Convention : Reuss Voigt Hill
#
# Bulk Modulus (GPa) = 39.62235 45.93425 42.77830
# Shear Modulus (GPa) = 37.33388 22.16928 29.75158
#
# Velocity S-wave (km/s) = 3.87369 2.98504 3.45803
# Velocity P-wave (km/s) = 5.99438 5.50843 5.75654
#
# Compressibility (1/GPa) = 0.02523828
#
# Stress axis : x y z
#
# Youngs Moduli (GPa) = 63.19202 69.75177 139.31408
#
# Poissons Ratio (x) = 0.17270 0.11940
# Poissons Ratio (y) = 0.15646 0.37859
# Poissons Ratio (z) = 0.05416 0.18955
#
# Static dielectric constant tensor:
#      x y z
#    x 2.076570 0.000000 0.000000 
#    y 0.000000 1.987760 0.000000 
#    z 0.000000 0.000000 1.898760 
# 
# From -- ./inp_files/25247.got.cif
#   From: 2010.05.17/outbox.cif.g08.bks.cpg/sg72_13_cif.got.tgz:25247.got - 2010.06.03 17:03:01.
