data_PCOD9528531
_publ_section_title
;
Structure prediction by ZEFSAII (Michael W. Deem and Ramdas Pophale) SiO2 
 PCOD9528531
Probable space group: I B A M
;
_chemical_formula_sum "Si O2"
_cell_formula_units_Z 48
_cell_length_a 5.820350
_cell_length_b 26.291740
_cell_length_c 14.946674
_cell_angle_alpha 90.000000
_cell_angle_beta 90.000000
_cell_angle_gamma 90.000000
_cell_volume 2287.246609
_symmetry_space_group_name_H-M "I B A M"
_symmetry_group_IT_number 72
_symmetry_cell_setting 'orthorhombic'
loop_
_space_group_symop_operation_xyz
x,y,z
-x,-y,z
x,-y,1/2-z
-x,y,1/2-z
-x,-y,-z
x,y,-z
-x,y,1/2+z
x,-y,1/2+z
1/2+x,1/2+y,1/2+z
1/2-x,1/2-y,1/2+z
1/2+x,1/2-y,-z
1/2-x,1/2+y,-z
1/2-x,1/2-y,1/2-z
1/2+x,1/2+y,1/2-z
1/2-x,1/2+y,z
1/2+x,1/2-y,z
loop_
_atom_site_type_symbol
_atom_site_label
_atom_site_fract_x
_atom_site_fract_y
_atom_site_fract_z
Si Si1 0.175838 0.046824 0.598484
Si Si2 0.000000 0.575145 0.750000
Si Si3 0.619802 0.357620 0.842085
Si Si4 0.684208 0.278749 0.000000
O O1 0.286595 0.046258 0.500000
O O2 0.344480 0.044251 0.681589
O O3 0.043701 0.100187 0.611953
O O4 0.000000 0.000000 0.602779
O O5 0.842133 0.611251 0.689093
O O6 0.500000 0.339254 0.750000
O O7 0.675854 0.313808 0.911612
O O8 0.435652 0.249059 0.000000
#
# Coordination Sequence:
#
# PCOD9528531 Si02
#       4
#    16   8  16   8
#     4  10  22  41  70 106 144 187 237 285 354 435
#     4  10  24  41  72  96 148 184 234 292 359 432
#     4  10  24  44  70 105 142 185 235 297 361 438
#     4  12  30  48  77 105 143 187 246 314 376 440
#
# _framework density 20.98593
#
# number of rings (size 3 to 8) (size 9 to 14) (size 15 to 20)
#    0.000    1.667    1.667    0.000   11.667   10.000 
#    0.000    3.333    0.000    1.000    0.000    0.000 
#    0.000    0.000    0.000    0.000    0.000    0.000 
#
# Total GULP energy -134180.027217 kJ/mol
# GULP energy per Si atom -5590.834467 kJ/mol
# Density = 2.093817 g / cm^3
# Si number density = 20.985930 Si / 1000 Ang^3
#
#
#
# Elastic Constant Matrix: (Units=GPa)
#
#
# Indices 1 2 3 4 5 6 
#
# 1 93.7022 41.1143 64.2079 0.0000 0.0000 0.0000
# 2 41.1143 79.3396 77.9088 0.0000 0.0000 0.0000
# 3 64.2079 77.9088 200.3725 -0.0001 0.0001 0.0000
# 4 0.0000 0.0000 -0.0001 25.1893 0.0001 0.0000
# 5 0.0000 0.0000 0.0001 0.0001 -80.3740 0.0000
# 6 0.0000 0.0000 0.0000 0.0000 0.0000 29.7526
#
#
#
# Elastic Compliance Matrix: (Units=1/GPa)
#
#
# Indices 1 2 3 4 5 6 
#
# 1 0.014747 -0.004856 -0.002838 0.000000 0.000000 0.000000
# 2 -0.004856 0.021987 -0.006993 0.000000 0.000000 0.000000
# 3 -0.002838 -0.006993 0.008619 0.000000 0.000000 0.000000
# 4 0.000000 0.000000 0.000000 0.039699 0.000000 0.000000
# 5 0.000000 0.000000 0.000000 0.000000 -0.012442 0.000000
# 6 0.000000 0.000000 0.000000 0.000000 0.000000 0.033611
#
#
# Mechanical properties :
#
#
# Convention : Reuss Voigt Hill
#
# Bulk Modulus (GPa) = 62.57552 82.20849 72.39200
# Shear Modulus (GPa) = 35.48085 7.59246 21.53666
#
# Velocity S-wave (km/s) = 4.11627 1.90414 3.20698
# Velocity P-wave (km/s) = 7.24390 6.64022 6.94862
#
# Compressibility (1/GPa) = 0.01598069
#
# Stress axis : x y z
#
# Youngs Moduli (GPa) = 67.81011 45.48090 116.02161
#
# Poissons Ratio (x) = 0.22083 0.32923
# Poissons Ratio (y) = 0.32926 0.81136
# Poissons Ratio (z) = 0.19242 0.31805
#
# Static dielectric constant tensor:
#      x y z
#    x 1.808650 0.000000 0.000000 
#    y 0.000000 1.729550 0.000000 
#    z 0.000000 0.000000 1.735200 
# 
# From -- ./inp_files/17414.got.cif
#   From: 2010.05.17/outbox.cif.g08.bks.cpg/sg72_9_cif.got.tgz:17414.got - 2010.06.03 17:03:01.
