data_PCOD9528637
_publ_section_title
;
Structure prediction by ZEFSAII (Michael W. Deem and Ramdas Pophale) SiO2 
 PCOD9528637
Probable space group: I B A M
;
_chemical_formula_sum "Si O2"
_cell_formula_units_Z 64
_cell_length_a 12.238821
_cell_length_b 14.407062
_cell_length_c 14.278562
_cell_angle_alpha 90.000000
_cell_angle_beta 90.000000
_cell_angle_gamma 90.000000
_cell_volume 2517.673912
_symmetry_space_group_name_H-M "I B A M"
_symmetry_group_IT_number 72
_symmetry_cell_setting 'orthorhombic'
loop_
_space_group_symop_operation_xyz
x,y,z
-x,-y,z
x,-y,1/2-z
-x,y,1/2-z
-x,-y,-z
x,y,-z
-x,y,1/2+z
x,-y,1/2+z
1/2+x,1/2+y,1/2+z
1/2-x,1/2-y,1/2+z
1/2+x,1/2-y,-z
1/2-x,1/2+y,-z
1/2-x,1/2-y,1/2-z
1/2+x,1/2+y,1/2-z
1/2-x,1/2+y,z
1/2+x,1/2-y,z
loop_
_atom_site_type_symbol
_atom_site_label
_atom_site_fract_x
_atom_site_fract_y
_atom_site_fract_z
Si Si1 0.939739 0.714556 0.104979
Si Si2 0.048736 0.898372 0.110927
Si Si3 0.391276 0.062435 0.894713
Si Si4 0.739697 0.860194 0.731545
O O1 0.057888 0.666281 0.102627
O O2 0.865123 0.646365 0.164132
O O3 0.960619 0.818955 0.138897
O O4 0.894436 0.719157 0.000000
O O5 0.155276 0.890154 0.173886
O O6 0.072353 0.881922 0.000000
O O7 0.000000 0.000000 0.120743
O O8 0.704443 0.075714 0.680654
O O9 0.500000 0.000000 0.875409
O O10 0.353414 0.037157 0.000000
O O11 0.750000 0.750000 0.750000
#
# Coordination Sequence:
#
# PCOD9528637 Si02
#       4
#    16  16  16  16
#     4  10  22  44  72 107 154 199 253 318 386 462
#     4  10  23  48  77 113 162 209 254 317 396 472
#     4  10  23  46  75 109 154 201 255 324 389 454
#     4  12  24  42  77 112 148 200 265 320 384 463
#
# _framework density 25.420289
#
# number of rings (size 3 to 8) (size 9 to 14) (size 15 to 20)
#    0.000    1.500    2.500    1.500    0.000    3.000 
#    9.000    1.250    0.000    3.000    0.000    0.000 
#    0.000    0.000    0.000    0.000    0.000    0.000 
#
# Total GULP energy -179166.528549 kJ/mol
# GULP energy per Si atom -5598.954017 kJ/mol
# Density = 2.536243 g / cm^3
# Si number density = 25.420289 Si / 1000 Ang^3
#
#
#
# Elastic Constant Matrix: (Units=GPa)
#
#
# Indices 1 2 3 4 5 6 
#
# 1 103.3984 37.7255 101.0039 0.0000 0.0000 0.0000
# 2 37.7255 129.3756 50.4023 0.0000 0.0000 0.0000
# 3 101.0039 50.4023 169.4297 0.0000 0.0000 0.0000
# 4 0.0000 0.0000 0.0000 38.4562 0.0000 0.0000
# 5 0.0000 0.0000 0.0000 0.0000 65.2855 0.0000
# 6 0.0000 0.0000 0.0000 0.0000 0.0000 42.4272
#
#
#
# Elastic Compliance Matrix: (Units=1/GPa)
#
#
# Indices 1 2 3 4 5 6 
#
# 1 0.023435 -0.001573 -0.013503 0.000000 0.000000 0.000000
# 2 -0.001573 0.008848 -0.001694 0.000000 0.000000 0.000000
# 3 -0.013503 -0.001694 0.014456 0.000000 0.000000 0.000000
# 4 0.000000 0.000000 0.000000 0.026004 0.000000 0.000000
# 5 0.000000 0.000000 0.000000 0.000000 0.015317 0.000000
# 6 0.000000 0.000000 0.000000 0.000000 0.000000 0.023570
#
#
# Mechanical properties :
#
#
# Convention : Reuss Voigt Hill
#
# Bulk Modulus (GPa) = 75.76506 86.71857 81.24182
# Shear Modulus (GPa) = 33.42905 43.43857 38.43381
#
# Velocity S-wave (km/s) = 3.63030 4.13827 3.89258
# Velocity P-wave (km/s) = 6.88780 7.55127 7.22715
#
# Compressibility (1/GPa) = 0.01319870
#
# Stress axis : x y z
#
# Youngs Moduli (GPa) = 42.67043 113.01651 69.17665
#
# Poissons Ratio (x) = 0.17781 0.93408
# Poissons Ratio (y) = 0.06713 0.11721
# Poissons Ratio (z) = 0.57617 0.19149
#
# Static dielectric constant tensor:
#      x y z
#    x 2.232510 0.000000 0.000000 
#    y 0.000000 2.112150 0.000000 
#    z 0.000000 0.000000 2.122650 
# 
# From -- ./inp_files/21217.got.cif
#   From: 2010.05.17/outbox.cif.g08.bks.cpg/sg72_11_cif.got.tgz:21217.got - 2010.06.03 17:03:01.
