data_PCOD9528809
_publ_section_title
;
Structure prediction by ZEFSAII (Michael W. Deem and Ramdas Pophale) SiO2 
 PCOD9528809
Probable space group: I B A M
;
_chemical_formula_sum "Si O2"
_cell_formula_units_Z 96
_cell_length_a 13.595908
_cell_length_b 16.310174
_cell_length_c 20.339368
_cell_angle_alpha 90.000000
_cell_angle_beta 90.000000
_cell_angle_gamma 90.000000
_cell_volume 4510.287909
_symmetry_space_group_name_H-M "I B A M"
_symmetry_group_IT_number 72
_symmetry_cell_setting 'orthorhombic'
loop_
_space_group_symop_operation_xyz
x,y,z
-x,-y,z
x,-y,1/2-z
-x,y,1/2-z
-x,-y,-z
x,y,-z
-x,y,1/2+z
x,-y,1/2+z
1/2+x,1/2+y,1/2+z
1/2-x,1/2-y,1/2+z
1/2+x,1/2-y,-z
1/2-x,1/2+y,-z
1/2-x,1/2-y,1/2-z
1/2+x,1/2+y,1/2-z
1/2-x,1/2+y,z
1/2+x,1/2-y,z
loop_
_atom_site_type_symbol
_atom_site_label
_atom_site_fract_x
_atom_site_fract_y
_atom_site_fract_z
Si Si1 0.628699 0.329256 0.500000
Si Si2 0.500000 0.789151 0.250000
Si Si3 0.394271 0.545581 0.385880
Si Si4 0.999841 0.676173 0.000000
Si Si5 0.267557 0.395418 0.619017
Si Si6 0.465693 0.908925 0.634710
Si Si7 0.613105 0.368563 0.253802
Si Si8 0.804002 0.228751 0.500000
O O1 0.594322 0.379978 0.436803
O O2 0.594922 0.234829 0.500000
O O3 0.745158 0.314750 0.500000
O O4 0.509679 0.845668 0.312961
O O5 0.407127 0.728592 0.261710
O O6 0.500000 0.500000 0.379108
O O7 0.316367 0.478102 0.409876
O O8 0.351559 0.584503 0.318415
O O9 0.998447 0.619934 0.063612
O O10 0.916186 0.744339 0.000000
O O11 0.152714 0.404375 0.634267
O O12 0.326499 0.381996 0.687559
O O13 0.283480 0.323916 0.565729
O O14 0.500000 0.000000 0.650135
O O15 0.500000 0.399586 0.250000
#
# Coordination Sequence:
#
# PCOD9528809 Si02
#       8
#     8   8  16   8  16  16  16   8
#     4  12  26  44  72 105 137 182 241 292 365 415
#     4  10  23  46  67 100 142 180 240 286 355 422
#     4  12  23  43  73 108 143 179 231 299 372 426
#     4  12  25  50  70  95 143 183 238 305 352 424
#     4  12  25  46  73 105 147 185 243 296 362 443
#     4  12  27  46  69  98 143 198 240 287 350 434
#     4  10  23  43  71 104 139 181 226 300 368 421
#     4  12  27  46  74 105 138 190 248 298 366 433
#
# _framework density 21.284673000000002
#
# number of rings (size 3 to 8) (size 9 to 14) (size 15 to 20)
#    0.500    0.000    3.333    4.750    2.333    3.333 
#    0.000    0.000    0.000    0.000    0.000    0.000 
#    0.000    0.000    0.000    0.000    0.000    0.000 
#
# Total GULP energy -268247.774547 kJ/mol
# GULP energy per Si atom -5588.495303 kJ/mol
# Density = 2.123623 g / cm^3
# Si number density = 21.284673 Si / 1000 Ang^3
#
#
#
# Elastic Constant Matrix: (Units=GPa)
#
#
# Indices 1 2 3 4 5 6 
#
# 1 65.0219 20.3787 34.0565 0.0000 0.0000 0.0000
# 2 20.3787 110.5134 26.4655 0.0000 0.0000 0.0000
# 3 34.0565 26.4655 106.0437 0.0000 0.0000 0.0000
# 4 0.0000 0.0000 0.0000 51.2815 0.0000 0.0000
# 5 0.0000 0.0000 0.0000 0.0000 -224.3735 0.0000
# 6 0.0000 0.0000 0.0000 0.0000 0.0000 39.3197
#
#
#
# Elastic Compliance Matrix: (Units=1/GPa)
#
#
# Indices 1 2 3 4 5 6 
#
# 1 0.018966 -0.002168 -0.005550 0.000000 0.000000 0.000000
# 2 -0.002168 0.009872 -0.001767 0.000000 0.000000 0.000000
# 3 -0.005550 -0.001767 0.011654 0.000000 0.000000 0.000000
# 4 0.000000 0.000000 0.000000 0.019500 0.000000 0.000000
# 5 0.000000 0.000000 0.000000 0.000000 -0.004457 0.000000
# 6 0.000000 0.000000 0.000000 0.000000 0.000000 0.025433
#
#
# Mechanical properties :
#
#
# Convention : Reuss Voigt Hill
#
# Bulk Modulus (GPa) = 46.46797 49.26449 47.86623
# Shear Modulus (GPa) = 46.68044 -13.37590 16.65227
#
# Velocity S-wave (km/s) = 4.68819 -2.50957 2.80010
# Velocity P-wave (km/s) = 7.15433 3.84689 5.74382
#
# Compressibility (1/GPa) = 0.02152020
#
# Stress axis : x y z
#
# Youngs Moduli (GPa) = 52.72644 101.29921 85.81102
#
# Poissons Ratio (x) = 0.21964 0.47624
# Poissons Ratio (y) = 0.11432 0.15166
# Poissons Ratio (z) = 0.29262 0.17903
#
# Static dielectric constant tensor:
#      x y z
#    x 1.752830 0.000000 0.000000 
#    y 0.000000 1.755930 0.000000 
#    z 0.000000 0.000000 1.708410 
# 
# From -- ./inp_files/38094.got.cif
#   From: 2010.05.17/outbox.cif.g08.bks.cpg/sg72_20_cif.got.tgz:38094.got - 2010.06.03 17:03:01.
