data_PCOD9528108
_publ_section_title
;
Structure prediction by ZEFSAII (Michael W. Deem and Ramdas Pophale) SiO2 
 PCOD9528108
Probable space group: I B A M
;
_chemical_formula_sum "Si O2"
_cell_formula_units_Z 80
_cell_length_a 8.665943
_cell_length_b 24.671105
_cell_length_c 16.349414
_cell_angle_alpha 90.000000
_cell_angle_beta 90.000000
_cell_angle_gamma 90.000000
_cell_volume 3495.478385
_symmetry_space_group_name_H-M "I B A M"
_symmetry_group_IT_number 72
_symmetry_cell_setting 'orthorhombic'
loop_
_space_group_symop_operation_xyz
x,y,z
-x,-y,z
x,-y,1/2-z
-x,y,1/2-z
-x,-y,-z
x,y,-z
-x,y,1/2+z
x,-y,1/2+z
1/2+x,1/2+y,1/2+z
1/2-x,1/2-y,1/2+z
1/2+x,1/2-y,-z
1/2-x,1/2+y,-z
1/2-x,1/2-y,1/2-z
1/2+x,1/2+y,1/2-z
1/2-x,1/2+y,z
1/2+x,1/2-y,z
loop_
_atom_site_type_symbol
_atom_site_label
_atom_site_fract_x
_atom_site_fract_y
_atom_site_fract_z
Si Si1 0.028547 0.222003 0.154848
Si Si2 0.145160 0.073987 0.597212
Si Si3 0.203646 0.320863 0.904276
Si Si4 0.315088 0.380427 0.401630
Si Si5 0.337860 0.980260 0.656530
O O1 0.082395 0.283186 0.141046
O O2 0.163564 0.181812 0.123420
O O3 0.000000 0.211828 0.250000
O O4 0.873379 0.206208 0.106475
O O5 0.138577 0.081200 0.500000
O O6 0.270157 0.118094 0.627833
O O7 0.977401 0.092135 0.626966
O O8 0.199836 0.013930 0.615263
O O9 0.162378 0.321972 0.000000
O O10 0.298999 0.384440 0.500000
O O11 0.186588 0.416845 0.358467
O O12 0.500000 0.000000 0.620245
O O13 0.334405 0.000000 0.750000
#
# Coordination Sequence:
#
# PCOD9528108 Si02
#       5
#    16  16  16  16  16
#     4  11  23  39  63  99 128 167 210 266 318 379
#     4   9  20  39  62  87 118 161 211 259 310 376
#     4  10  21  40  63  89 128 168 211 259 316 384
#     4  10  22  40  65  91 121 163 215 260 312 387
#     4  11  25  40  57  89 125 162 205 265 326 379
#
# _framework density 22.886710000000001
#
# number of rings (size 3 to 8) (size 9 to 14) (size 15 to 20)
#    0.000    1.800    0.000    4.800    5.600    5.600 
#    3.600    2.000    0.000    0.000    0.000    0.000 
#    0.000    0.000    0.000    0.000    0.000    0.000 
#
# Total GULP energy -223630.399230 kJ/mol
# GULP energy per Si atom -5590.759981 kJ/mol
# Density = 2.283462 g / cm^3
# Si number density = 22.886710 Si / 1000 Ang^3
#
#
#
# Elastic Constant Matrix: (Units=GPa)
#
#
# Indices 1 2 3 4 5 6 
#
# 1 30.1181 -5.8802 -3.0264 0.0000 0.0000 0.0000
# 2 -5.8802 63.3660 2.9504 0.0000 0.0000 0.0000
# 3 -3.0264 2.9504 63.1610 0.0000 0.0001 0.0001
# 4 0.0000 0.0000 0.0000 16.8955 0.0000 0.0000
# 5 0.0000 0.0000 0.0001 0.0000 1.3744 -0.0001
# 6 0.0000 0.0000 0.0001 0.0000 -0.0001 39.5427
#
#
#
# Elastic Compliance Matrix: (Units=1/GPa)
#
#
# Indices 1 2 3 4 5 6 
#
# 1 0.033953 0.003082 0.001483 0.000000 0.000000 0.000000
# 2 0.003082 0.016095 -0.000604 0.000000 0.000000 0.000000
# 3 0.001483 -0.000604 0.015932 0.000000 -0.000001 0.000000
# 4 0.000000 0.000000 0.000000 0.059187 0.000000 0.000000
# 5 0.000000 0.000000 -0.000001 0.000000 0.727614 0.000001
# 6 0.000000 0.000000 0.000000 0.000000 0.000001 0.025289
#
#
# Mechanical properties :
#
#
# Convention : Reuss Voigt Hill
#
# Bulk Modulus (GPa) = 13.53152 16.08141 14.80647
# Shear Modulus (GPa) = 5.58794 22.40260 13.99527
#
# Velocity S-wave (km/s) = 1.56425 3.13205 2.47554
# Velocity P-wave (km/s) = 3.03112 4.48569 3.82813
#
# Compressibility (1/GPa) = 0.07390153
#
# Stress axis : x y z
#
# Youngs Moduli (GPa) = 29.45220 62.12941 62.76745
#
# Poissons Ratio (x) = -0.19147 -0.09308
# Poissons Ratio (y) = -0.09076 0.03792
# Poissons Ratio (z) = -0.04368 0.03754
#
# Static dielectric constant tensor:
#      x y z
#    x 1.882920 0.000000 0.000000 
#    y 0.000000 1.839310 0.000000 
#    z 0.000000 0.000000 1.829610 
# 
# From -- ./inp_files/28194.got.cif
#   From: 2010.05.17/outbox.cif.g08.bks.cpg/sg72_15_cif.got.tgz:28194.got - 2010.06.03 17:03:01.
