data_PCOD9528799
_publ_section_title
;
Structure prediction by ZEFSAII (Michael W. Deem and Ramdas Pophale) SiO2 
 PCOD9528799
Probable space group: I B A M
;
_chemical_formula_sum "Si O2"
_cell_formula_units_Z 64
_cell_length_a 19.456961
_cell_length_b 9.049797
_cell_length_c 17.362008
_cell_angle_alpha 90.000000
_cell_angle_beta 90.000000
_cell_angle_gamma 90.000000
_cell_volume 3057.129233
_symmetry_space_group_name_H-M "I B A M"
_symmetry_group_IT_number 72
_symmetry_cell_setting 'orthorhombic'
loop_
_space_group_symop_operation_xyz
x,y,z
-x,-y,z
x,-y,1/2-z
-x,y,1/2-z
-x,-y,-z
x,y,-z
-x,y,1/2+z
x,-y,1/2+z
1/2+x,1/2+y,1/2+z
1/2-x,1/2-y,1/2+z
1/2+x,1/2-y,-z
1/2-x,1/2+y,-z
1/2-x,1/2-y,1/2-z
1/2+x,1/2+y,1/2-z
1/2-x,1/2+y,z
1/2+x,1/2-y,z
loop_
_atom_site_type_symbol
_atom_site_label
_atom_site_fract_x
_atom_site_fract_y
_atom_site_fract_z
Si Si1 0.545396 0.876541 0.328441
Si Si2 0.574218 0.426191 0.086664
Si Si3 0.195238 0.481003 0.666009
Si Si4 0.189073 0.160351 0.409012
O O1 0.500000 0.853535 0.250000
O O2 0.561424 0.719801 0.364951
O O3 0.620114 0.949741 0.323899
O O4 0.500000 0.000000 0.373284
O O5 0.500000 0.500000 0.081870
O O6 0.628807 0.546913 0.116030
O O7 0.597635 0.385362 0.000000
O O8 0.229891 0.500000 0.750000
O O9 0.189381 0.312291 0.638488
O O10 0.240021 0.574498 0.606063
O O11 0.179671 0.192060 0.500000
#
# Coordination Sequence:
#
# PCOD9528799 Si02
#       4
#    16  16  16  16
#     4  11  23  43  66  96 137 177 231 278 339 401
#     4  10  23  43  67  99 134 178 229 281 341 403
#     4  12  24  44  69  99 141 180 225 283 340 412
#     4  11  25  45  71 105 140 178 229 282 346 415
#
# _framework density 20.934673
#
# number of rings (size 3 to 8) (size 9 to 14) (size 15 to 20)
#    0.000    1.000    2.500    4.500    0.000    5.000 
#    0.000    0.000    0.000    0.000    0.000    0.000 
#    0.000    0.000    0.000    0.000    0.000    0.000 
#
# Total GULP energy -178625.976481 kJ/mol
# GULP energy per Si atom -5582.061765 kJ/mol
# Density = 2.088702 g / cm^3
# Si number density = 20.934673 Si / 1000 Ang^3
#
#
#
# Elastic Constant Matrix: (Units=GPa)
#
#
# Indices 1 2 3 4 5 6 
#
# 1 121.2207 64.0898 26.5777 0.0000 0.0000 0.0000
# 2 64.0898 227.1880 87.3878 0.0000 0.0000 0.0000
# 3 26.5777 87.3878 66.1038 0.0000 0.0000 0.0000
# 4 0.0000 0.0000 0.0000 1709.2937 0.0000 0.0000
# 5 0.0000 0.0000 0.0000 0.0000 12.3141 0.0000
# 6 0.0000 0.0000 0.0000 0.0000 0.0000 32.1655
#
#
#
# Elastic Compliance Matrix: (Units=1/GPa)
#
#
# Indices 1 2 3 4 5 6 
#
# 1 0.009706 -0.002517 -0.000575 0.000000 0.000000 0.000000
# 2 -0.002517 0.009608 -0.011690 0.000000 0.000000 0.000000
# 3 -0.000575 -0.011690 0.030813 0.000000 0.000000 0.000000
# 4 0.000000 0.000000 0.000000 0.000585 0.000000 0.000000
# 5 0.000000 0.000000 0.000000 0.000000 0.081208 0.000000
# 6 0.000000 0.000000 0.000000 0.000000 0.000000 0.031089
#
#
# Mechanical properties :
#
#
# Convention : Reuss Voigt Hill
#
# Bulk Modulus (GPa) = 48.63060 85.62480 67.12770
# Shear Modulus (GPa) = 25.07183 366.51849 195.79516
#
# Velocity S-wave (km/s) = 3.46442 13.24603 9.68141
# Velocity P-wave (km/s) = 6.26762 16.58110 12.53427
#
# Compressibility (1/GPa) = 0.02056318
#
# Stress axis : x y z
#
# Youngs Moduli (GPa) = 103.02680 104.07850 32.45416
#
# Poissons Ratio (x) = 0.26195 0.01867
# Poissons Ratio (y) = 0.25930 0.37938
# Poissons Ratio (z) = 0.05927 1.21666
#
# Static dielectric constant tensor:
#      x y z
#    x 1.760700 0.000000 0.000000 
#    y 0.000000 1.751430 0.000000 
#    z 0.000000 0.000000 1.843000 
# 
# From -- ./inp_files/32209.got.cif
#   From: 2010.05.17/outbox.cif.g08.bks.cpg/sg72_17_cif.got.tgz:32209.got - 2010.06.03 17:03:01.
