data_PCOD9528529
_publ_section_title
;
Structure prediction by ZEFSAII (Michael W. Deem and Ramdas Pophale) SiO2 
 PCOD9528529
Probable space group: I B A M
;
_chemical_formula_sum "Si O2"
_cell_formula_units_Z 80
_cell_length_a 9.805428
_cell_length_b 18.235085
_cell_length_c 17.938783
_cell_angle_alpha 90.000000
_cell_angle_beta 90.000000
_cell_angle_gamma 90.000000
_cell_volume 3207.504863
_symmetry_space_group_name_H-M "I B A M"
_symmetry_group_IT_number 72
_symmetry_cell_setting 'orthorhombic'
loop_
_space_group_symop_operation_xyz
x,y,z
-x,-y,z
x,-y,1/2-z
-x,y,1/2-z
-x,-y,-z
x,y,-z
-x,y,1/2+z
x,-y,1/2+z
1/2+x,1/2+y,1/2+z
1/2-x,1/2-y,1/2+z
1/2+x,1/2-y,-z
1/2-x,1/2+y,-z
1/2-x,1/2-y,1/2-z
1/2+x,1/2+y,1/2-z
1/2-x,1/2+y,z
1/2+x,1/2-y,z
loop_
_atom_site_type_symbol
_atom_site_label
_atom_site_fract_x
_atom_site_fract_y
_atom_site_fract_z
Si Si1 0.913496 0.266023 0.414640
Si Si2 0.215295 0.420660 0.915344
Si Si3 0.787461 0.445216 0.822052
Si Si4 0.003174 0.912156 0.166909
Si Si5 0.331776 0.783621 0.320627
O O1 0.950397 0.245034 0.500000
O O2 0.888599 0.353515 0.412773
O O3 0.770355 0.231968 0.389606
O O4 0.026783 0.249508 0.351771
O O5 0.159224 0.495327 0.879986
O O6 0.138697 0.369548 0.698157
O O7 0.253701 0.434923 0.000000
O O8 0.766093 0.500000 0.750000
O O9 0.643896 0.602985 0.874318
O O10 0.652130 0.407971 0.859877
O O11 0.000000 0.880633 0.250000
O O12 0.000000 0.000000 0.173080
O O13 0.250000 0.750000 0.250000
#
# Coordination Sequence:
#
# PCOD9528529 Si02
#       5
#    16  16  16  16  16
#     4  11  27  52  74 107 154 197 242 305 375 446
#     4  10  22  41  70 104 141 186 241 300 365 435
#     4  11  22  41  71 102 146 184 240 307 366 425
#     4   9  16  33  61  97 140 180 221 286 361 419
#     4  12  28  48  76 108 144 198 253 300 367 443
#
# _framework density 24.941504999999999
#
# number of rings (size 3 to 8) (size 9 to 14) (size 15 to 20)
#    0.000    1.400    4.000    2.400    2.800    6.000 
#    0.000    3.000    0.000    0.000    0.000    0.000 
#    0.000    0.000    0.000    0.000    0.000    0.000 
#
# Total GULP energy -223023.231338 kJ/mol
# GULP energy per Si atom -5575.580783 kJ/mol
# Density = 2.488474 g / cm^3
# Si number density = 24.941505 Si / 1000 Ang^3
#
#
#
# Elastic Constant Matrix: (Units=GPa)
#
#
# Indices 1 2 3 4 5 6 
#
# 1 100.4657 -10.5942 34.4003 0.0000 0.0000 0.0000
# 2 -10.5942 107.9356 21.8600 0.0000 0.0000 0.0000
# 3 34.4003 21.8600 139.8862 0.0000 0.0000 0.0000
# 4 0.0000 0.0000 0.0000 28.0303 0.0000 0.0000
# 5 0.0000 0.0000 0.0000 0.0000 33.7864 0.0000
# 6 0.0000 0.0000 0.0000 0.0000 0.0000 8.2238
#
#
#
# Elastic Compliance Matrix: (Units=1/GPa)
#
#
# Indices 1 2 3 4 5 6 
#
# 1 0.011165 0.001706 -0.003012 0.000000 0.000000 0.000000
# 2 0.001706 0.009828 -0.001955 0.000000 0.000000 0.000000
# 3 -0.003012 -0.001955 0.008195 0.000000 0.000000 0.000000
# 4 0.000000 0.000000 0.000000 0.035676 0.000000 0.000000
# 5 0.000000 0.000000 0.000000 0.000000 0.029598 0.000000
# 6 0.000000 0.000000 0.000000 0.000000 0.000000 0.121598
#
#
# Mechanical properties :
#
#
# Convention : Reuss Voigt Hill
#
# Bulk Modulus (GPa) = 44.12120 48.84665 46.48392
# Shear Modulus (GPa) = 21.72613 34.18287 27.95450
#
# Velocity S-wave (km/s) = 2.95461 3.70607 3.35147
# Velocity P-wave (km/s) = 5.41922 6.15957 5.80122
#
# Compressibility (1/GPa) = 0.02266484
#
# Stress axis : x y z
#
# Youngs Moduli (GPa) = 89.56600 101.74753 122.02572
#
# Poissons Ratio (x) = -0.17358 0.36757
# Poissons Ratio (y) = -0.15279 0.23861
# Poissons Ratio (z) = 0.26979 0.19896
#
# Static dielectric constant tensor:
#      x y z
#    x 2.138710 0.000000 0.000000 
#    y 0.000000 2.185290 0.000000 
#    z 0.000000 0.000000 1.963010 
# 
# From -- ./inp_files/38325.got.cif
#   From: 2010.05.17/outbox.cif.g08.bks.cpg/sg72_20_cif.got.tgz:38325.got - 2010.06.03 17:03:01.
