data_PCOD9528051
_publ_section_title
;
Structure prediction by ZEFSAII (Michael W. Deem and Ramdas Pophale) SiO2 
 PCOD9528051
Probable space group: I B A M
;
_chemical_formula_sum "Si O2"
_cell_formula_units_Z 56
_cell_length_a 12.794882
_cell_length_b 21.813180
_cell_length_c 7.638996
_cell_angle_alpha 90.000000
_cell_angle_beta 90.000000
_cell_angle_gamma 90.000000
_cell_volume 2132.021357
_symmetry_space_group_name_H-M "I B A M"
_symmetry_group_IT_number 72
_symmetry_cell_setting 'orthorhombic'
loop_
_space_group_symop_operation_xyz
x,y,z
-x,-y,z
x,-y,1/2-z
-x,y,1/2-z
-x,-y,-z
x,y,-z
-x,y,1/2+z
x,-y,1/2+z
1/2+x,1/2+y,1/2+z
1/2-x,1/2-y,1/2+z
1/2+x,1/2-y,-z
1/2-x,1/2+y,-z
1/2-x,1/2-y,1/2-z
1/2+x,1/2+y,1/2-z
1/2-x,1/2+y,z
1/2+x,1/2-y,z
loop_
_atom_site_type_symbol
_atom_site_label
_atom_site_fract_x
_atom_site_fract_y
_atom_site_fract_z
Si Si1 0.112397 0.891660 0.204709
Si Si2 0.620368 0.253029 0.805472
Si Si3 0.343735 0.068398 0.293873
Si Si4 0.355075 0.832579 0.500000
O O1 0.121991 0.826959 0.303061
O O2 0.217248 0.928770 0.240843
O O3 0.000000 0.920273 0.250000
O O4 0.110548 0.876751 0.000000
O O5 0.500000 0.239596 0.750000
O O6 0.679410 0.217998 0.652387
O O7 0.633309 0.228145 0.000000
O O8 0.360258 0.081445 0.500000
O O9 0.379154 0.000000 0.250000
O O10 0.384692 0.117932 0.156070
#
# Coordination Sequence:
#
# PCOD9528051 Si02
#       4
#    16  16  16   8
#     4  10  21  39  64  97 134 170 214 265 316 384
#     4  11  21  40  67  98 131 166 204 264 335 392
#     4  11  25  44  64  91 130 177 221 263 317 376
#     4  12  24  42  66  94 128 171 210 269 330 385
#
# _framework density 26.266152000000002
#
# number of rings (size 3 to 8) (size 9 to 14) (size 15 to 20)
#    0.000    1.143    4.286    3.429    4.000    1.714 
#    0.000    2.857    0.000    2.571    0.000    0.000 
#    0.000    0.000    0.000    0.000    0.000    0.000 
#
# Total GULP energy -155942.095135 kJ/mol
# GULP energy per Si atom -5569.360541 kJ/mol
# Density = 2.620637 g / cm^3
# Si number density = 26.266152 Si / 1000 Ang^3
#
#
#
# Elastic Constant Matrix: (Units=GPa)
#
#
# Indices 1 2 3 4 5 6 
#
# 1 103.1401 -12.7150 15.5658 0.0003 -0.0001 -0.0001
# 2 -12.7150 166.3915 79.7520 -0.0017 -0.0002 -0.0002
# 3 15.5658 79.7520 255.6841 -0.0097 -0.0016 -0.0001
# 4 0.0003 -0.0017 -0.0097 33.9872 -0.0003 -0.0014
# 5 -0.0001 -0.0002 -0.0016 -0.0003 15.1491 -0.0002
# 6 -0.0001 -0.0002 -0.0001 -0.0014 -0.0002 22.9063
#
#
#
# Elastic Compliance Matrix: (Units=1/GPa)
#
#
# Indices 1 2 3 4 5 6 
#
# 1 0.009999 0.001241 -0.000996 0.000000 0.000000 0.000000
# 2 0.001241 0.007220 -0.002328 0.000000 0.000000 0.000000
# 3 -0.000996 -0.002328 0.004698 0.000001 0.000000 0.000000
# 4 0.000000 0.000000 0.000001 0.029423 0.000001 0.000002
# 5 0.000000 0.000000 0.000000 0.000001 0.066011 0.000000
# 6 0.000000 0.000000 0.000000 0.000002 0.000000 0.043656
#
#
# Mechanical properties :
#
#
# Convention : Reuss Voigt Hill
#
# Bulk Modulus (GPa) = 56.32973 76.71348 66.52160
# Shear Modulus (GPa) = 29.22459 43.91604 36.57032
#
# Velocity S-wave (km/s) = 3.33923 4.09340 3.73540
# Velocity P-wave (km/s) = 6.02989 7.18407 6.63214
#
# Compressibility (1/GPa) = 0.01775262
#
# Stress axis : x y z
#
# Youngs Moduli (GPa) = 100.01104 138.49468 212.86666
#
# Poissons Ratio (x) = -0.17193 0.21200
# Poissons Ratio (y) = -0.12416 0.49550
# Poissons Ratio (z) = 0.09961 0.32238
#
# Static dielectric constant tensor:
#      x y z
#    x 2.463130 0.000000 0.000000 
#    y 0.000000 1.969940 0.000000 
#    z 0.000000 0.000000 1.982740 
# 
# From -- ./inp_files/3247.got.cif
#   From: 2010.05.17/outbox.cif.g08.bks.cpg/sg72_2_cif.got.tgz:3247.got - 2010.06.03 17:03:01.
