data_PCOD9528757
_publ_section_title
;
Structure prediction by ZEFSAII (Michael W. Deem and Ramdas Pophale) SiO2 
 PCOD9528757
Probable space group: I B A M
;
_chemical_formula_sum "Si O2"
_cell_formula_units_Z 40
_cell_length_a 5.398485
_cell_length_b 11.960665
_cell_length_c 25.642238
_cell_angle_alpha 90.000000
_cell_angle_beta 90.000000
_cell_angle_gamma 90.000000
_cell_volume 1655.705732
_symmetry_space_group_name_H-M "I B A M"
_symmetry_group_IT_number 72
_symmetry_cell_setting 'orthorhombic'
loop_
_space_group_symop_operation_xyz
x,y,z
-x,-y,z
x,-y,1/2-z
-x,y,1/2-z
-x,-y,-z
x,y,-z
-x,y,1/2+z
x,-y,1/2+z
1/2+x,1/2+y,1/2+z
1/2-x,1/2-y,1/2+z
1/2+x,1/2-y,-z
1/2-x,1/2+y,-z
1/2-x,1/2-y,1/2-z
1/2+x,1/2+y,1/2-z
1/2-x,1/2+y,z
1/2+x,1/2-y,z
loop_
_atom_site_type_symbol
_atom_site_label
_atom_site_fract_x
_atom_site_fract_y
_atom_site_fract_z
Si Si1 0.736193 0.297259 0.809027
Si Si2 0.500000 0.500000 0.857808
Si Si3 0.861677 0.176470 0.058726
O O1 0.750000 0.250000 0.750000
O O2 0.502106 0.230689 0.831643
O O3 0.669782 0.424958 0.819897
O O4 0.353987 0.418794 0.897214
O O5 0.630615 0.262350 0.062286
O O6 0.845469 0.127847 0.000000
#
# Coordination Sequence:
#
# PCOD9528757 Si02
#       3
#    16   8  16
#     4  10  24  44  63  93 129 166 221 281 329 389
#     4  12  23  41  72  98 130 184 225 271 348 410
#     4  10  23  42  64  99 141 175 221 279 332 405
#
# _framework density 24.158882999999999
#
# number of rings (size 3 to 8) (size 9 to 14) (size 15 to 20)
#    0.000    1.600    0.000    3.000    0.000    9.600 
#    0.000   14.000    0.000    0.000    0.000    0.000 
#    0.000    0.000    0.000    0.000    0.000    0.000 
#
# Total GULP energy -111730.451953 kJ/mol
# GULP energy per Si atom -5586.522598 kJ/mol
# Density = 2.410390 g / cm^3
# Si number density = 24.158883 Si / 1000 Ang^3
#
#
#
# Elastic Constant Matrix: (Units=GPa)
#
#
# Indices 1 2 3 4 5 6 
#
# 1 187.3935 50.9802 23.7497 0.0000 0.0000 0.0000
# 2 50.9802 136.1345 75.6566 0.0000 0.0000 0.0000
# 3 23.7497 75.6566 163.8726 0.0000 0.0000 0.0000
# 4 0.0000 0.0000 0.0000 61.4935 0.0000 0.0000
# 5 0.0000 0.0000 0.0000 0.0000 27.3665 0.0000
# 6 0.0000 0.0000 0.0000 0.0000 0.0000 33.8873
#
#
#
# Elastic Compliance Matrix: (Units=1/GPa)
#
#
# Indices 1 2 3 4 5 6 
#
# 1 0.005948 -0.002352 0.000224 0.000000 0.000000 0.000000
# 2 -0.002352 0.010811 -0.004650 0.000000 0.000000 0.000000
# 3 0.000224 -0.004650 0.008217 0.000000 0.000000 0.000000
# 4 0.000000 0.000000 0.000000 0.016262 0.000000 0.000000
# 5 0.000000 0.000000 0.000000 0.000000 0.036541 0.000000
# 6 0.000000 0.000000 0.000000 0.000000 0.000000 0.029510
#
#
# Mechanical properties :
#
#
# Convention : Reuss Voigt Hill
#
# Bulk Modulus (GPa) = 87.57435 87.57485 87.57460
# Shear Modulus (GPa) = 40.11217 47.01708 43.56463
#
# Velocity S-wave (km/s) = 4.07916 4.41632 4.25108
# Velocity P-wave (km/s) = 7.64945 7.89515 7.77327
#
# Compressibility (1/GPa) = 0.01141887
#
# Stress axis : x y z
#
# Youngs Moduli (GPa) = 168.12984 92.50077 121.70176
#
# Poissons Ratio (x) = 0.21753 -0.02723
# Poissons Ratio (y) = 0.39539 0.56595
# Poissons Ratio (z) = -0.03762 0.43015
#
# Static dielectric constant tensor:
#      x y z
#    x 1.936550 0.000000 0.000000 
#    y 0.000000 1.954380 0.000000 
#    z 0.000000 0.000000 1.622770 
# 
# From -- ./inp_files/46269.got.cif
#   From: 2010.05.17/outbox.cif.g08.bks.cpg/sg72_24_cif.got.tgz:46269.got - 2010.06.03 17:03:01.
