data_PCOD9528167
_publ_section_title
;
Structure prediction by ZEFSAII (Michael W. Deem and Ramdas Pophale) SiO2 
 PCOD9528167
Probable space group: I B A M
;
_chemical_formula_sum "Si O2"
_cell_formula_units_Z 112
_cell_length_a 14.232030
_cell_length_b 25.861885
_cell_length_c 15.879508
_cell_angle_alpha 90.000000
_cell_angle_beta 90.000000
_cell_angle_gamma 90.000000
_cell_volume 5844.724827
_symmetry_space_group_name_H-M "I B A M"
_symmetry_group_IT_number 72
_symmetry_cell_setting 'orthorhombic'
loop_
_space_group_symop_operation_xyz
x,y,z
-x,-y,z
x,-y,1/2-z
-x,y,1/2-z
-x,-y,-z
x,y,-z
-x,y,1/2+z
x,-y,1/2+z
1/2+x,1/2+y,1/2+z
1/2-x,1/2-y,1/2+z
1/2+x,1/2-y,-z
1/2-x,1/2+y,-z
1/2-x,1/2-y,1/2-z
1/2+x,1/2+y,1/2-z
1/2-x,1/2+y,z
1/2+x,1/2-y,z
loop_
_atom_site_type_symbol
_atom_site_label
_atom_site_fract_x
_atom_site_fract_y
_atom_site_fract_z
Si Si1 0.481162 0.120343 0.599612
Si Si2 0.651805 0.515569 0.101750
Si Si3 0.316313 0.138169 0.818621
Si Si4 0.839202 0.547036 0.805547
Si Si5 0.365177 0.678806 0.099529
Si Si6 0.905564 0.717807 0.197648
Si Si7 0.975184 0.080848 0.397568
O O1 0.481622 0.115629 0.500000
O O2 0.586402 0.123170 0.635808
O O3 0.420919 0.074567 0.641507
O O4 0.432670 0.173664 0.629888
O O5 0.753784 0.525139 0.139016
O O6 0.602325 0.461832 0.128401
O O7 0.577280 0.560045 0.128148
O O8 0.657062 0.515599 0.000000
O O9 0.296852 0.091221 0.755306
O O10 0.232973 0.150092 0.882278
O O11 0.335879 0.189301 0.762505
O O12 0.876734 0.500000 0.750000
O O13 0.369747 0.731402 0.151706
O O14 0.445363 0.638101 0.127889
O O15 0.375422 0.688937 0.000000
O O16 0.000000 0.729852 0.250000
O O17 0.974442 0.080184 0.500000
#
# Coordination Sequence:
#
# PCOD9528167 Si02
#       7
#    16  16  16  16  16  16  16
#     4  10  21  41  62  80 105 146 189 229 279 336
#     4   9  17  35  57  79 110 150 185 224 278 336
#     4  10  22  38  55  79 115 149 177 225 289 334
#     4  11  22  36  56  83 111 141 183 231 276 330
#     4  11  20  34  57  85 112 146 190 230 267 332
#     4   9  20  37  58  81 111 145 181 232 287 330
#     4   8  17  32  53  80 113 144 179 226 273 318
#
# _framework density 19.162579000000001
#
# number of rings (size 3 to 8) (size 9 to 14) (size 15 to 20)
#    0.000    2.286    0.000    4.714    0.000    2.286 
#    0.000    8.571    0.000    6.857    0.000    0.000 
#    0.000    0.000    0.000    0.000    0.000    0.000 
#
# Total GULP energy -312704.605022 kJ/mol
# GULP energy per Si atom -5584.010804 kJ/mol
# Density = 1.911896 g / cm^3
# Si number density = 19.162579 Si / 1000 Ang^3
#
#
#
# Elastic Constant Matrix: (Units=GPa)
#
#
# Indices 1 2 3 4 5 6 
#
# 1 49.8458 23.4408 32.7017 0.0000 0.0000 0.0000
# 2 23.4408 75.3334 44.0083 -0.0001 0.0000 0.0000
# 3 32.7017 44.0083 83.5559 -0.0001 0.0000 0.0000
# 4 0.0000 -0.0001 -0.0001 17.9802 0.0000 0.0000
# 5 0.0000 0.0000 0.0000 0.0000 23.4799 0.0000
# 6 0.0000 0.0000 0.0000 0.0000 0.0000 17.1548
#
#
#
# Elastic Compliance Matrix: (Units=1/GPa)
#
#
# Indices 1 2 3 4 5 6 
#
# 1 0.027544 -0.003283 -0.009051 0.000000 0.000000 0.000000
# 2 -0.003283 0.019565 -0.009020 0.000000 0.000000 0.000000
# 3 -0.009051 -0.009020 0.020261 0.000000 0.000000 0.000000
# 4 0.000000 0.000000 0.000000 0.055617 0.000000 0.000000
# 5 0.000000 0.000000 0.000000 0.000000 0.042590 0.000000
# 6 0.000000 0.000000 0.000000 0.000000 0.000000 0.058293
#
#
# Mechanical properties :
#
#
# Convention : Reuss Voigt Hill
#
# Bulk Modulus (GPa) = 40.54786 45.44853 42.99819
# Shear Modulus (GPa) = 18.19524 18.96193 18.57859
#
# Velocity S-wave (km/s) = 3.08477 3.14909 3.11710
# Velocity P-wave (km/s) = 5.82182 6.08204 5.95335
#
# Compressibility (1/GPa) = 0.02466222
#
# Stress axis : x y z
#
# Youngs Moduli (GPa) = 36.30601 51.11116 49.35610
#
# Poissons Ratio (x) = 0.16781 0.44670
# Poissons Ratio (y) = 0.11920 0.44518
# Poissons Ratio (z) = 0.32859 0.46102
#
# Static dielectric constant tensor:
#      x y z
#    x 1.658490 0.000000 0.000000 
#    y 0.000000 1.658510 0.000000 
#    z 0.000000 0.000000 1.658190 
# 
# From -- ./inp_files/22157.got.cif
#   From: 2010.05.17/outbox.cif.g08.bks.cpg/sg72_12_cif.got.tgz:22157.got - 2010.06.03 17:03:01.
