data_PCOD9528608
_publ_section_title
;
Structure prediction by ZEFSAII (Michael W. Deem and Ramdas Pophale) SiO2 
 PCOD9528608
Probable space group: I B A M
;
_chemical_formula_sum "Si O2"
_cell_formula_units_Z 60
_cell_length_a 21.285309
_cell_length_b 4.880179
_cell_length_c 21.122447
_cell_angle_alpha 90.000000
_cell_angle_beta 90.000000
_cell_angle_gamma 90.000000
_cell_volume 2194.117797
_symmetry_space_group_name_H-M "I B A M"
_symmetry_group_IT_number 72
_symmetry_cell_setting 'orthorhombic'
loop_
_space_group_symop_operation_xyz
x,y,z
-x,-y,z
x,-y,1/2-z
-x,y,1/2-z
-x,-y,-z
x,y,-z
-x,y,1/2+z
x,-y,1/2+z
1/2+x,1/2+y,1/2+z
1/2-x,1/2-y,1/2+z
1/2+x,1/2-y,-z
1/2-x,1/2+y,-z
1/2-x,1/2-y,1/2-z
1/2+x,1/2+y,1/2-z
1/2-x,1/2+y,z
1/2+x,1/2-y,z
loop_
_atom_site_type_symbol
_atom_site_label
_atom_site_fract_x
_atom_site_fract_y
_atom_site_fract_z
Si Si1 0.615767 0.211849 0.806219
Si Si2 0.500000 0.500000 0.250000
Si Si3 0.047741 0.252594 0.070755
Si Si4 0.706784 0.629238 0.139076
Si Si5 0.707294 0.488256 0.500000
O O1 0.546335 0.307194 0.787662
O O2 0.600722 0.139985 0.879701
O O3 0.658308 0.483102 0.814754
O O4 0.634539 0.000000 0.750000
O O5 0.000000 0.500000 0.065962
O O6 0.074513 0.195278 0.000000
O O7 0.000000 0.000000 0.087198
O O8 0.730754 0.937901 0.147197
O O9 0.680675 0.593326 0.068025
O O10 0.771983 0.303975 0.500000
#
# Coordination Sequence:
#
# PCOD9528608 Si02
#       5
#    16   4  16  16   8
#     4  12  27  44  73 100 149 192 236 300 357 440
#     4  12  26  48  66 102 140 188 242 284 374 420
#     4  10  22  43  69 101 138 182 243 303 356 422
#     4  10  24  44  70 104 140 184 238 290 359 422
#     4   8  16  38  66  97 137 177 227 292 346 418
#
# _framework density 27.345842000000001
#
# number of rings (size 3 to 8) (size 9 to 14) (size 15 to 20)
#    0.000    1.600    1.333    2.000    5.600    1.067 
#    0.000    0.000    0.000    0.000    0.000    0.000 
#    0.000    0.000    0.000    0.000    0.000    0.000 
#
# Total GULP energy -167660.477005 kJ/mol
# GULP energy per Si atom -5588.682567 kJ/mol
# Density = 2.728360 g / cm^3
# Si number density = 27.345842 Si / 1000 Ang^3
#
#
#
# Elastic Constant Matrix: (Units=GPa)
#
#
# Indices 1 2 3 4 5 6 
#
# 1 81.3466 8.4789 40.2252 0.0000 0.0000 0.0000
# 2 8.4789 136.4416 24.7876 0.0000 0.0000 0.0000
# 3 40.2252 24.7876 191.6339 0.0000 0.0000 0.0000
# 4 0.0000 0.0000 0.0000 36.3428 0.0000 0.0000
# 5 0.0000 0.0000 0.0000 0.0000 -212.9656 0.0000
# 6 0.0000 0.0000 0.0000 0.0000 0.0000 -18.9492
#
#
#
# Elastic Compliance Matrix: (Units=1/GPa)
#
#
# Indices 1 2 3 4 5 6 
#
# 1 0.013732 -0.000338 -0.002839 0.000000 0.000000 0.000000
# 2 -0.000338 0.007514 -0.000901 0.000000 0.000000 0.000000
# 3 -0.002839 -0.000901 0.005931 0.000000 0.000000 0.000000
# 4 0.000000 0.000000 0.000000 0.027516 0.000000 0.000000
# 5 0.000000 0.000000 0.000000 0.000000 -0.004696 0.000000
# 6 0.000000 0.000000 0.000000 0.000000 0.000000 -0.052773
#
#
# Mechanical properties :
#
#
# Convention : Reuss Voigt Hill
#
# Bulk Modulus (GPa) = 52.57157 61.82284 57.19721
# Shear Modulus (GPa) = 426.64261 -16.71904 204.96179
#
# Velocity S-wave (km/s) = 12.50424 -2.47532 8.66686
# Velocity P-wave (km/s) = 15.09110 3.80621 11.00519
#
# Compressibility (1/GPa) = 0.01902169
#
# Stress axis : x y z
#
# Youngs Moduli (GPa) = 72.82248 133.08818 168.61393
#
# Poissons Ratio (x) = 0.04493 0.47866
# Poissons Ratio (y) = 0.02459 0.15193
# Poissons Ratio (z) = 0.20673 0.11992
#
# Static dielectric constant tensor:
#      x y z
#    x 2.073260 0.000000 0.000000 
#    y 0.000000 2.077050 0.000000 
#    z 0.000000 0.000000 2.284550 
# 
# From -- ./inp_files/34719.got.cif
#   From: 2010.05.17/outbox.cif.g08.bks.cpg/sg72_18_cif.got.tgz:34719.got - 2010.06.03 17:03:01.
