data_PCOD9528538
_publ_section_title
;
Structure prediction by ZEFSAII (Michael W. Deem and Ramdas Pophale) SiO2 
 PCOD9528538
Probable space group: I B A M
;
_chemical_formula_sum "Si O2"
_cell_formula_units_Z 112
_cell_length_a 16.212858
_cell_length_b 22.018144
_cell_length_c 14.377771
_cell_angle_alpha 90.000000
_cell_angle_beta 90.000000
_cell_angle_gamma 90.000000
_cell_volume 5132.534164
_symmetry_space_group_name_H-M "I B A M"
_symmetry_group_IT_number 72
_symmetry_cell_setting 'orthorhombic'
loop_
_space_group_symop_operation_xyz
x,y,z
-x,-y,z
x,-y,1/2-z
-x,y,1/2-z
-x,-y,-z
x,y,-z
-x,y,1/2+z
x,-y,1/2+z
1/2+x,1/2+y,1/2+z
1/2-x,1/2-y,1/2+z
1/2+x,1/2-y,-z
1/2-x,1/2+y,-z
1/2-x,1/2-y,1/2-z
1/2+x,1/2+y,1/2-z
1/2-x,1/2+y,z
1/2+x,1/2-y,z
loop_
_atom_site_type_symbol
_atom_site_label
_atom_site_fract_x
_atom_site_fract_y
_atom_site_fract_z
Si Si1 0.075818 0.176700 0.107007
Si Si2 0.578598 0.756404 0.107340
Si Si3 0.333744 0.648569 0.296893
Si Si4 0.347316 0.857709 0.740426
Si Si5 0.548211 0.561680 0.891673
Si Si6 0.128155 0.542879 0.102861
Si Si7 0.439234 0.911345 0.102156
O O1 0.137264 0.168859 0.193240
O O2 0.015055 0.233865 0.125652
O O3 0.018149 0.116593 0.110811
O O4 0.107662 0.181329 0.000000
O O5 0.630686 0.695988 0.128625
O O6 0.619596 0.807600 0.169965
O O7 0.583022 0.774731 0.000000
O O8 0.236035 0.654267 0.295752
O O9 0.376501 0.584749 0.326761
O O10 0.328637 0.918907 0.681732
O O11 0.418603 0.868300 0.814616
O O12 0.500000 0.500000 0.865100
O O13 0.575446 0.554818 0.000000
O O14 0.117788 0.471063 0.115182
O O15 0.033412 0.566705 0.104904
O O16 0.162389 0.554640 0.000000
O O17 0.423649 0.885547 0.000000
#
# Coordination Sequence:
#
# PCOD9528538 Si02
#       7
#    16  16  16  16  16  16  16
#     4   9  20  39  61  84 115 162 212 257 311 374
#     4  10  22  42  63  81 113 164 214 258 310 378
#     4  11  23  38  59  91 131 162 200 265 334 378
#     4  12  23  36  59  96 127 155 199 262 330 385
#     4   9  18  37  63  87 115 163 220 260 295 359
#     4   9  19  39  62  84 118 165 207 249 301 374
#     4   9  20  39  62  85 118 164 208 248 301 374
#
# _framework density 21.821579
#
# number of rings (size 3 to 8) (size 9 to 14) (size 15 to 20)
#    0.000    2.143    0.000    5.571    0.000    6.857 
#    5.143    2.143    0.000    0.857    0.000    0.000 
#    0.000    0.000    0.000    0.000    0.000    0.000 
#
# Total GULP energy -312850.493919 kJ/mol
# GULP energy per Si atom -5586.615963 kJ/mol
# Density = 2.177191 g / cm^3
# Si number density = 21.821579 Si / 1000 Ang^3
#
#
#
# Elastic Constant Matrix: (Units=GPa)
#
#
# Indices 1 2 3 4 5 6 
#
# 1 32.3815 17.7345 23.6793 0.0000 0.0000 0.0000
# 2 17.7345 73.2396 42.4536 0.0000 0.0000 0.0000
# 3 23.6793 42.4536 80.3818 0.0000 0.0000 0.0000
# 4 0.0000 0.0000 0.0000 12.1474 0.0000 0.0000
# 5 0.0000 0.0000 0.0000 0.0000 7.0280 0.0000
# 6 0.0000 0.0000 0.0000 0.0000 0.0000 16.0321
#
#
#
# Elastic Compliance Matrix: (Units=1/GPa)
#
#
# Indices 1 2 3 4 5 6 
#
# 1 0.040212 -0.004137 -0.009661 0.000000 0.000000 0.000000
# 2 -0.004137 0.020104 -0.009399 0.000000 0.000000 0.000000
# 3 -0.009661 -0.009399 0.020251 0.000000 0.000000 0.000000
# 4 0.000000 0.000000 0.000000 0.082322 0.000000 0.000000
# 5 0.000000 0.000000 0.000000 0.000000 0.142289 0.000000
# 6 0.000000 0.000000 0.000000 0.000000 0.000000 0.062375
#
#
# Mechanical properties :
#
#
# Convention : Reuss Voigt Hill
#
# Bulk Modulus (GPa) = 29.26328 39.30421 34.28374
# Shear Modulus (GPa) = 11.75536 13.85052 12.80294
#
# Velocity S-wave (km/s) = 2.32352 2.52209 2.42484
# Velocity P-wave (km/s) = 4.54287 5.15092 4.85642
#
# Compressibility (1/GPa) = 0.03417252
#
# Stress axis : x y z
#
# Youngs Moduli (GPa) = 24.86800 49.74188 49.38101
#
# Poissons Ratio (x) = 0.20579 0.47707
# Poissons Ratio (y) = 0.10288 0.46413
# Poissons Ratio (z) = 0.24025 0.46753
#
# Static dielectric constant tensor:
#      x y z
#    x 1.776510 0.000000 0.000000 
#    y 0.000000 1.846540 0.000000 
#    z 0.000000 0.000000 1.801050 
# 
# From -- ./inp_files/22089.got.cif
#   From: 2010.05.17/outbox.cif.g08.bks.cpg/sg72_12_cif.got.tgz:22089.got - 2010.06.03 17:03:01.
