data_PCOD9528435
_publ_section_title
;
Structure prediction by ZEFSAII (Michael W. Deem and Ramdas Pophale) SiO2 
 PCOD9528435
Probable space group: I B A M
;
_chemical_formula_sum "Si O2"
_cell_formula_units_Z 52
_cell_length_a 9.978097
_cell_length_b 22.647517
_cell_length_c 10.740106
_cell_angle_alpha 90.000000
_cell_angle_beta 90.000000
_cell_angle_gamma 90.000000
_cell_volume 2427.039718
_symmetry_space_group_name_H-M "I B A M"
_symmetry_group_IT_number 72
_symmetry_cell_setting 'orthorhombic'
loop_
_space_group_symop_operation_xyz
x,y,z
-x,-y,z
x,-y,1/2-z
-x,y,1/2-z
-x,-y,-z
x,y,-z
-x,y,1/2+z
x,-y,1/2+z
1/2+x,1/2+y,1/2+z
1/2-x,1/2-y,1/2+z
1/2+x,1/2-y,-z
1/2-x,1/2+y,-z
1/2-x,1/2-y,1/2-z
1/2+x,1/2+y,1/2-z
1/2-x,1/2+y,z
1/2+x,1/2-y,z
loop_
_atom_site_type_symbol
_atom_site_label
_atom_site_fract_x
_atom_site_fract_y
_atom_site_fract_z
Si Si1 0.152697 0.662760 0.210689
Si Si2 0.760085 0.462106 0.134922
Si Si3 0.000000 0.000000 0.750000
Si Si4 0.109511 0.794818 0.860628
O O1 0.192147 0.604639 0.137451
O O2 0.156064 0.726184 0.143171
O O3 0.259075 0.668146 0.323594
O O4 0.000000 0.655645 0.250000
O O5 0.818460 0.500000 0.250000
O O6 0.600891 0.462806 0.164912
O O7 0.786125 0.489321 0.000000
O O8 0.000000 0.802185 0.750000
O O9 0.059891 0.808580 0.000000
#
# Coordination Sequence:
#
# PCOD9528435 Si02
#       4
#    16  16   4  16
#     4  10  23  41  63  93 131 170 212 262 321 382
#     4  10  22  40  64  90 122 163 209 261 312 373
#     4   8  22  40  64  88 122 156 208 260 304 376
#     4  10  23  42  66  95 128 171 219 266 319 383
#
# _framework density 21.425277000000001
#
# number of rings (size 3 to 8) (size 9 to 14) (size 15 to 20)
#    0.923    1.231    0.000    1.385    2.154   15.385 
#    0.000    1.538    0.000    0.000    0.000    0.000 
#    0.000    0.000    0.000    0.000    0.000    0.000 
#
# Total GULP energy -144961.362790 kJ/mol
# GULP energy per Si atom -5575.437030 kJ/mol
# Density = 2.137651 g / cm^3
# Si number density = 21.425277 Si / 1000 Ang^3
#
#
#
# Elastic Constant Matrix: (Units=GPa)
#
#
# Indices 1 2 3 4 5 6 
#
# 1 92.6692 35.3063 46.4335 0.0000 0.0000 -0.0002
# 2 35.3063 59.2840 40.1246 0.0001 -0.0002 -0.0001
# 3 46.4335 40.1246 202.7403 0.0005 0.0008 0.0009
# 4 0.0000 0.0001 0.0005 11.5755 -0.0001 0.0000
# 5 0.0000 -0.0002 0.0008 -0.0001 -46.0685 0.0009
# 6 -0.0002 -0.0001 0.0009 0.0000 0.0009 130.0617
#
#
#
# Elastic Compliance Matrix: (Units=1/GPa)
#
#
# Indices 1 2 3 4 5 6 
#
# 1 0.014545 -0.007399 -0.001867 0.000000 0.000000 0.000000
# 2 -0.007399 0.023240 -0.002905 0.000000 0.000000 0.000000
# 3 -0.001867 -0.002905 0.005935 0.000000 0.000000 0.000000
# 4 0.000000 0.000000 0.000000 0.086390 0.000000 0.000000
# 5 0.000000 0.000000 0.000000 0.000000 -0.021707 0.000000
# 6 0.000000 0.000000 0.000000 0.000000 0.000000 0.007689
#
#
# Mechanical properties :
#
#
# Convention : Reuss Voigt Hill
#
# Bulk Modulus (GPa) = 51.60181 66.49138 59.04659
# Shear Modulus (GPa) = 34.03820 34.63567 34.33693
#
# Velocity S-wave (km/s) = 3.99017 4.02503 4.00764
# Velocity P-wave (km/s) = 6.73538 7.25966 7.00243
#
# Compressibility (1/GPa) = 0.01937917
#
# Stress axis : x y z
#
# Youngs Moduli (GPa) = 68.74989 43.02837 168.49328
#
# Poissons Ratio (x) = 0.31836 0.31458
# Poissons Ratio (y) = 0.50867 0.48947
# Poissons Ratio (z) = 0.12836 0.12500
#
# Static dielectric constant tensor:
#      x y z
#    x 2.062430 0.000000 0.000000 
#    y 0.000000 1.755530 0.000000 
#    z 0.000000 0.000000 1.821570 
# 
# From -- ./inp_files/2279.got.cif
#   From: 2010.05.17/outbox.cif.g08.bks.cpg/sg72_2_cif.got.tgz:2279.got - 2010.06.03 17:03:01.
