data_PCOD9528724
_publ_section_title
;
Structure prediction by ZEFSAII (Michael W. Deem and Ramdas Pophale) SiO2 
 PCOD9528724
Probable space group: I B A M
;
_chemical_formula_sum "Si O2"
_cell_formula_units_Z 80
_cell_length_a 18.634892
_cell_length_b 26.108297
_cell_length_c 8.679668
_cell_angle_alpha 90.000000
_cell_angle_beta 90.000000
_cell_angle_gamma 90.000000
_cell_volume 4222.878033
_symmetry_space_group_name_H-M "I B A M"
_symmetry_group_IT_number 72
_symmetry_cell_setting 'orthorhombic'
loop_
_space_group_symop_operation_xyz
x,y,z
-x,-y,z
x,-y,1/2-z
-x,y,1/2-z
-x,-y,-z
x,y,-z
-x,y,1/2+z
x,-y,1/2+z
1/2+x,1/2+y,1/2+z
1/2-x,1/2-y,1/2+z
1/2+x,1/2-y,-z
1/2-x,1/2+y,-z
1/2-x,1/2-y,1/2-z
1/2+x,1/2+y,1/2-z
1/2-x,1/2+y,z
1/2+x,1/2-y,z
loop_
_atom_site_type_symbol
_atom_site_label
_atom_site_fract_x
_atom_site_fract_y
_atom_site_fract_z
Si Si1 0.919710 0.251990 0.814855
Si Si2 0.166745 0.850732 0.185068
Si Si3 0.079729 0.555610 0.815547
Si Si4 0.920574 0.944733 0.816573
Si Si5 0.334441 0.150825 0.315162
O O1 0.877576 0.200064 0.772385
O O2 0.877838 0.300600 0.747668
O O3 0.000000 0.250502 0.750000
O O4 0.921761 0.255767 0.000000
O O5 0.132477 0.900059 0.264760
O O6 0.250388 0.844456 0.223767
O O7 0.161100 0.857169 0.000000
O O8 0.100987 0.500000 0.750000
O O9 0.132406 0.599737 0.758089
O O10 0.000000 0.566469 0.750000
O O11 0.076767 0.553853 0.000000
O O12 0.000000 0.933727 0.750000
O O13 0.898375 0.000000 0.750000
O O14 0.924987 0.947799 0.000000
O O15 0.341536 0.148393 0.500000
#
# Coordination Sequence:
#
# PCOD9528724 Si02
#       5
#    16  16  16  16  16
#     4  11  23  40  62  88 117 153 196 242 291 347
#     4  10  23  41  61  87 120 155 195 242 294 348
#     4  11  22  39  62  88 118 154 197 243 291 346
#     4  11  22  38  62  88 119 156 198 244 291 345
#     4  11  23  40  61  87 120 156 194 241 293 348
#
# _framework density 18.944426
#
# number of rings (size 3 to 8) (size 9 to 14) (size 15 to 20)
#    0.000    1.200    0.000    7.800    0.000    5.600 
#    0.000    0.000    0.000    0.000    0.000    0.000 
#    0.000    0.000    0.000    0.000    0.000    0.000 
#
# Total GULP energy -223806.631726 kJ/mol
# GULP energy per Si atom -5595.165793 kJ/mol
# Density = 1.890131 g / cm^3
# Si number density = 18.944426 Si / 1000 Ang^3
#
#
#
# Elastic Constant Matrix: (Units=GPa)
#
#
# Indices 1 2 3 4 5 6 
#
# 1 166.3301 132.7896 89.4364 0.0000 0.0000 0.0000
# 2 132.7896 163.5299 85.4486 0.0000 0.0000 0.0000
# 3 89.4364 85.4486 119.0143 0.0000 0.0000 0.0000
# 4 0.0000 0.0000 0.0000 44.3014 0.0000 0.0000
# 5 0.0000 0.0000 0.0000 0.0000 -75.4961 0.0000
# 6 0.0000 0.0000 0.0000 0.0000 0.0000 136.7477
#
#
#
# Elastic Compliance Matrix: (Units=1/GPa)
#
#
# Indices 1 2 3 4 5 6 
#
# 1 0.018834 -0.012640 -0.005078 0.000000 0.000000 0.000000
# 2 -0.012640 0.018270 -0.003618 0.000000 0.000000 0.000000
# 3 -0.005078 -0.003618 0.014816 0.000000 0.000000 0.000000
# 4 0.000000 0.000000 0.000000 0.022573 0.000000 0.000000
# 5 0.000000 0.000000 0.000000 0.000000 -0.013246 0.000000
# 6 0.000000 0.000000 0.000000 0.000000 0.000000 0.007313
#
#
# Mechanical properties :
#
#
# Convention : Reuss Voigt Hill
#
# Bulk Modulus (GPa) = 108.14446 118.24708 113.19577
# Shear Modulus (GPa) = 43.73892 30.52390 37.13141
#
# Velocity S-wave (km/s) = 4.81021 4.01837 4.43201
# Velocity P-wave (km/s) = 9.38402 9.16969 9.27747
#
# Compressibility (1/GPa) = 0.00924689
#
# Stress axis : x y z
#
# Youngs Moduli (GPa) = 53.09623 54.73521 67.49331
#
# Poissons Ratio (x) = 0.69185 0.34273
# Poissons Ratio (y) = 0.67114 0.24422
# Poissons Ratio (z) = 0.26962 0.19806
#
# Static dielectric constant tensor:
#      x y z
#    x 1.626430 0.000000 0.000000 
#    y 0.000000 1.625940 0.000000 
#    z 0.000000 0.000000 1.636290 
# 
# From -- ./inp_files/4810.got.cif
#   From: 2010.05.17/outbox.cif.g08.bks.cpg/sg72_3_cif.got.tgz:4810.got - 2010.06.03 17:03:01.
