data_PCOD9528886
_publ_section_title
;
Structure prediction by ZEFSAII (Michael W. Deem and Ramdas Pophale) SiO2 
 PCOD9528886
Probable space group: I B A M
;
_chemical_formula_sum "Si O2"
_cell_formula_units_Z 88
_cell_length_a 5.292146
_cell_length_b 24.087155
_cell_length_c 30.216695
_cell_angle_alpha 90.000000
_cell_angle_beta 90.000000
_cell_angle_gamma 90.000000
_cell_volume 3851.804935
_symmetry_space_group_name_H-M "I B A M"
_symmetry_group_IT_number 72
_symmetry_cell_setting 'orthorhombic'
loop_
_space_group_symop_operation_xyz
x,y,z
-x,-y,z
x,-y,1/2-z
-x,y,1/2-z
-x,-y,-z
x,y,-z
-x,y,1/2+z
x,-y,1/2+z
1/2+x,1/2+y,1/2+z
1/2-x,1/2-y,1/2+z
1/2+x,1/2-y,-z
1/2-x,1/2+y,-z
1/2-x,1/2-y,1/2-z
1/2+x,1/2+y,1/2-z
1/2-x,1/2+y,z
1/2+x,1/2-y,z
loop_
_atom_site_type_symbol
_atom_site_label
_atom_site_fract_x
_atom_site_fract_y
_atom_site_fract_z
Si Si1 0.097298 0.715570 0.000000
Si Si2 0.677164 0.844856 0.423271
Si Si3 0.528103 0.715048 0.858505
Si Si4 0.245418 0.437279 0.269161
Si Si5 0.214990 0.607485 0.861719
Si Si6 0.056988 0.935043 0.548270
O O1 0.026568 0.680818 0.956137
O O2 0.383468 0.736076 0.000000
O O3 0.543913 0.863018 0.377155
O O4 0.892111 0.799862 0.409740
O O5 0.808990 0.897112 0.445971
O O6 0.791176 0.745335 0.845998
O O7 0.415076 0.654529 0.846297
O O8 0.245880 0.500000 0.250000
O O9 0.500000 0.411555 0.250000
O O10 0.214266 0.435649 0.321716
O O11 0.000000 0.407475 0.250000
O O12 0.290871 0.579008 0.907671
O O13 0.172038 0.922049 0.500000
O O14 0.000000 0.000000 0.548761
#
# Coordination Sequence:
#
# PCOD9528886 Si02
#       6
#     8  16  16  16  16  16
#     4  12  28  40  67 101 149 195 252 310 356 408
#     4  11  24  41  65 102 146 196 256 296 362 424
#     4  11  22  41  68 103 143 189 243 293 360 434
#     4  10  25  46  75 109 146 176 236 315 381 439
#     4  11  26  42  77 104 149 195 253 298 382 437
#     4  10  24  42  64  99 152 202 250 298 358 440
#
# _framework density 22.846435
#
# number of rings (size 3 to 8) (size 9 to 14) (size 15 to 20)
#    0.000    1.273    2.727    1.091   14.000    2.182 
#    0.000    1.818    0.000    3.273    0.000    0.000 
#    0.000    0.000    0.000    0.000    0.000    0.000 
#
# Total GULP energy -245322.853657 kJ/mol
# GULP energy per Si atom -5575.519401 kJ/mol
# Density = 2.279444 g / cm^3
# Si number density = 22.846435 Si / 1000 Ang^3
#
#
#
# Elastic Constant Matrix: (Units=GPa)
#
#
# Indices 1 2 3 4 5 6 
#
# 1 115.5130 -7.0139 25.1878 0.0000 0.0000 0.0000
# 2 -7.0139 43.1154 25.1358 0.0000 0.0000 0.0000
# 3 25.1878 25.1358 142.7058 0.0000 0.0000 0.0000
# 4 0.0000 0.0000 0.0000 21.6389 0.0000 0.0000
# 5 0.0000 0.0000 0.0000 0.0000 110.8373 0.0000
# 6 0.0000 0.0000 0.0000 0.0000 0.0000 4.1627
#
#
#
# Elastic Compliance Matrix: (Units=1/GPa)
#
#
# Indices 1 2 3 4 5 6 
#
# 1 0.009287 0.002749 -0.002123 0.000000 0.000000 0.000000
# 2 0.002749 0.026661 -0.005181 0.000000 0.000000 0.000000
# 3 -0.002123 -0.005181 0.008295 0.000000 0.000000 0.000000
# 4 0.000000 0.000000 0.000000 0.046213 0.000000 0.000000
# 5 0.000000 0.000000 0.000000 0.000000 0.009022 0.000000
# 6 0.000000 0.000000 0.000000 0.000000 0.000000 0.240226
#
#
# Mechanical properties :
#
#
# Convention : Reuss Voigt Hill
#
# Bulk Modulus (GPa) = 28.46466 43.10596 35.78531
# Shear Modulus (GPa) = 13.86859 44.52943 29.19901
#
# Velocity S-wave (km/s) = 2.46648 4.41962 3.57887
# Velocity P-wave (km/s) = 4.53845 6.70468 5.72496
#
# Compressibility (1/GPa) = 0.03513128
#
# Stress axis : x y z
#
# Youngs Moduli (GPa) = 107.67833 37.50758 120.55767
#
# Poissons Ratio (x) = -0.10309 0.25598
# Poissons Ratio (y) = -0.29597 0.62463
# Poissons Ratio (z) = 0.22863 0.19433
#
# Static dielectric constant tensor:
#      x y z
#    x 1.974300 0.000000 0.000000 
#    y 0.000000 1.909590 0.000000 
#    z 0.000000 0.000000 1.877400 
# 
# From -- ./inp_files/50316.got.cif
#   From: 2010.05.17/outbox.cif.g08.bks.cpg/sg72_26_cif.got.tgz:50316.got - 2010.06.03 17:03:01.
