data_PCOD9528909
_publ_section_title
;
Structure prediction by ZEFSAII (Michael W. Deem and Ramdas Pophale) SiO2 
 PCOD9528909
Probable space group: I B A M
;
_chemical_formula_sum "Si O2"
_cell_formula_units_Z 104
_cell_length_a 23.407507
_cell_length_b 9.775585
_cell_length_c 20.268663
_cell_angle_alpha 90.000000
_cell_angle_beta 90.000000
_cell_angle_gamma 90.000000
_cell_volume 4637.917511
_symmetry_space_group_name_H-M "I B A M"
_symmetry_group_IT_number 72
_symmetry_cell_setting 'orthorhombic'
loop_
_space_group_symop_operation_xyz
x,y,z
-x,-y,z
x,-y,1/2-z
-x,y,1/2-z
-x,-y,-z
x,y,-z
-x,y,1/2+z
x,-y,1/2+z
1/2+x,1/2+y,1/2+z
1/2-x,1/2-y,1/2+z
1/2+x,1/2-y,-z
1/2-x,1/2+y,-z
1/2-x,1/2-y,1/2-z
1/2+x,1/2+y,1/2-z
1/2-x,1/2+y,z
1/2+x,1/2-y,z
loop_
_atom_site_type_symbol
_atom_site_label
_atom_site_fract_x
_atom_site_fract_y
_atom_site_fract_z
Si Si1 0.208768 0.246319 0.925085
Si Si2 0.396112 0.173804 0.642128
Si Si3 0.494529 0.659592 0.670864
Si Si4 0.360216 0.281209 0.000000
Si Si5 0.693125 0.556048 0.119638
Si Si6 0.392211 0.136714 0.867822
Si Si7 0.316894 0.739452 0.733772
O O1 0.145343 0.304592 0.919845
O O2 0.250344 0.354246 0.891730
O O3 0.207604 0.101009 0.889540
O O4 0.230207 0.228395 0.000000
O O5 0.451618 0.265453 0.639198
O O6 0.357531 0.225930 0.704327
O O7 0.413764 0.015822 0.645730
O O8 0.500000 0.500000 0.651956
O O9 0.500000 0.666772 0.750000
O O10 0.438721 0.747291 0.651469
O O11 0.347174 0.395547 0.940583
O O12 0.373448 0.167815 0.941800
O O13 0.671937 0.599067 0.192314
O O14 0.336700 0.151621 0.821303
O O15 0.250000 0.750000 0.750000
#
# Coordination Sequence:
#
# PCOD9528909 Si02
#       7
#    16  16  16   8  16  16  16
#     4  12  26  42  67 102 144 189 238 281 352 418
#     4  12  27  44  74 106 138 184 236 295 348 422
#     4  11  26  48  74 104 139 182 232 293 362 414
#     4  10  24  44  70 100 137 193 232 284 355 411
#     4  11  25  42  67  97 148 188 231 287 343 432
#     4  11  26  48  76 101 143 188 240 292 348 424
#     4  11  24  43  69 108 145 180 229 285 358 410
#
# _framework density 22.423859
#
# number of rings (size 3 to 8) (size 9 to 14) (size 15 to 20)
#    0.000    0.769    4.615    0.923    9.692    2.462 
#    1.385    1.154    0.000    0.000    0.000    0.000 
#    0.000    0.000    0.000    0.000    0.000    0.000 
#
# Total GULP energy -289780.010952 kJ/mol
# GULP energy per Si atom -5572.692518 kJ/mol
# Density = 2.237282 g / cm^3
# Si number density = 22.423859 Si / 1000 Ang^3
#
#
#
# Elastic Constant Matrix: (Units=GPa)
#
#
# Indices 1 2 3 4 5 6 
#
# 1 99.6805 58.0855 20.1311 0.0000 0.0000 0.0000
# 2 58.0855 183.3009 32.7611 0.0000 0.0000 0.0000
# 3 20.1311 32.7611 124.4702 0.0000 0.0000 0.0000
# 4 0.0000 0.0000 0.0000 25.9813 0.0000 0.0000
# 5 0.0000 0.0000 0.0000 0.0000 14.6544 0.0000
# 6 0.0000 0.0000 0.0000 0.0000 0.0000 38.8751
#
#
#
# Elastic Compliance Matrix: (Units=1/GPa)
#
#
# Indices 1 2 3 4 5 6 
#
# 1 0.012427 -0.003755 -0.001021 0.000000 0.000000 0.000000
# 2 -0.003755 0.006860 -0.001198 0.000000 0.000000 0.000000
# 3 -0.001021 -0.001198 0.008515 0.000000 0.000000 0.000000
# 4 0.000000 0.000000 0.000000 0.038489 0.000000 0.000000
# 5 0.000000 0.000000 0.000000 0.000000 0.068239 0.000000
# 6 0.000000 0.000000 0.000000 0.000000 0.000000 0.025723
#
#
# Mechanical properties :
#
#
# Convention : Reuss Voigt Hill
#
# Bulk Modulus (GPa) = 63.08657 69.93412 66.51035
# Shear Modulus (GPa) = 28.17129 35.66709 31.91919
#
# Velocity S-wave (km/s) = 3.54829 3.99254 3.77695
# Velocity P-wave (km/s) = 6.70686 7.24631 6.98179
#
# Compressibility (1/GPa) = 0.01585123
#
# Stress axis : x y z
#
# Youngs Moduli (GPa) = 80.47261 145.78025 117.44532
#
# Poissons Ratio (x) = 0.54744 0.11996
# Poissons Ratio (y) = 0.30220 0.14072
# Poissons Ratio (z) = 0.08220 0.17466
#
# Static dielectric constant tensor:
#      x y z
#    x 1.767950 0.000000 0.000000 
#    y 0.000000 1.852850 0.000000 
#    z 0.000000 0.000000 1.871780 
# 
# From -- ./inp_files/40799.got.cif
#   From: 2010.05.17/outbox.cif.g08.bks.cpg/sg72_21_cif.got.tgz:40799.got - 2010.06.03 17:03:01.
