data_PCOD9528600
_publ_section_title
;
Structure prediction by ZEFSAII (Michael W. Deem and Ramdas Pophale) SiO2 
 PCOD9528600
Probable space group: I B A M
;
_chemical_formula_sum "Si O2"
_cell_formula_units_Z 116
_cell_length_a 17.017786
_cell_length_b 18.341569
_cell_length_c 18.704943
_cell_angle_alpha 90.000000
_cell_angle_beta 90.000000
_cell_angle_gamma 90.000000
_cell_volume 5838.428031
_symmetry_space_group_name_H-M "I B A M"
_symmetry_group_IT_number 72
_symmetry_cell_setting 'orthorhombic'
loop_
_space_group_symop_operation_xyz
x,y,z
-x,-y,z
x,-y,1/2-z
-x,y,1/2-z
-x,-y,-z
x,y,-z
-x,y,1/2+z
x,-y,1/2+z
1/2+x,1/2+y,1/2+z
1/2-x,1/2-y,1/2+z
1/2+x,1/2-y,-z
1/2-x,1/2+y,-z
1/2-x,1/2-y,1/2-z
1/2+x,1/2+y,1/2-z
1/2-x,1/2+y,z
1/2+x,1/2-y,z
loop_
_atom_site_type_symbol
_atom_site_label
_atom_site_fract_x
_atom_site_fract_y
_atom_site_fract_z
Si Si1 0.699459 0.355818 0.418278
Si Si2 0.539194 0.841263 0.321752
Si Si3 0.705212 0.095354 0.649336
Si Si4 0.842808 0.976095 0.921967
Si Si5 0.301656 0.812713 0.214363
Si Si6 0.909564 0.473179 0.583018
Si Si7 0.000000 0.000000 0.000000
Si Si8 0.898936 0.716238 0.417774
O O1 0.728256 0.348408 0.500000
O O2 0.674306 0.438985 0.407104
O O3 0.761893 0.332972 0.359902
O O4 0.626621 0.300060 0.411925
O O5 0.500000 0.873725 0.250000
O O6 0.608568 0.788112 0.296348
O O7 0.582844 0.900699 0.370222
O O8 0.471219 0.804645 0.367810
O O9 0.794785 0.073260 0.632689
O O10 0.696117 0.118382 0.731693
O O11 0.674465 0.166130 0.606047
O O12 0.648046 0.030511 0.621982
O O13 0.935531 0.972555 0.938431
O O14 0.805074 0.959056 0.000000
O O15 0.250000 0.750000 0.250000
O O16 0.885155 0.462850 0.500000
O O17 0.000000 0.500000 0.581592
O O18 0.918488 0.699301 0.500000
#
# Coordination Sequence:
#
# PCOD9528600 Si02
#       8
#    16  16  16  16  16  16   4  16
#     4  10  22  43  67  91 132 174 221 281 339 401
#     4  12  23  40  61  91 139 179 223 273 341 403
#     4  12  22  40  68  93 134 182 212 280 343 408
#     4   9  20  40  67  98 128 170 225 285 342 390
#     4  12  25  44  62  96 134 176 231 274 336 412
#     4  11  22  36  60  97 136 172 219 270 325 414
#     4   8  20  44  68  94 134 156 234 290 340 384
#     4  11  22  41  67  96 132 180 230 274 344 419
#
# _framework density 19.868362000000001
#
# number of rings (size 3 to 8) (size 9 to 14) (size 15 to 20)
#    0.414    0.690    4.138    2.483    0.000    5.793 
#    2.483    0.000    0.000    0.828    0.000    0.000 
#    0.000    0.000    0.000    0.000    0.000    0.000 
#
# Total GULP energy -323148.590815 kJ/mol
# GULP energy per Si atom -5571.527428 kJ/mol
# Density = 1.982314 g / cm^3
# Si number density = 19.868362 Si / 1000 Ang^3
#
#
#
# Elastic Constant Matrix: (Units=GPa)
#
#
# Indices 1 2 3 4 5 6 
#
# 1 119.0156 26.2870 53.4167 0.0000 0.0000 0.0000
# 2 26.2870 48.7955 36.7078 0.0000 0.0000 0.0000
# 3 53.4167 36.7078 126.3420 0.0000 0.0000 0.0000
# 4 0.0000 0.0000 0.0000 20.1368 0.0000 0.0000
# 5 0.0000 0.0000 0.0000 0.0000 38.6701 0.0000
# 6 0.0000 0.0000 0.0000 0.0000 0.0000 26.2099
#
#
#
# Elastic Compliance Matrix: (Units=1/GPa)
#
#
# Indices 1 2 3 4 5 6 
#
# 1 0.010708 -0.003024 -0.003649 0.000000 0.000000 0.000000
# 2 -0.003024 0.027080 -0.006589 0.000000 0.000000 0.000000
# 3 -0.003649 -0.006589 0.011372 0.000000 0.000000 0.000000
# 4 0.000000 0.000000 0.000000 0.049660 0.000000 0.000000
# 5 0.000000 0.000000 0.000000 0.000000 0.025860 0.000000
# 6 0.000000 0.000000 0.000000 0.000000 0.000000 0.038154
#
#
# Mechanical properties :
#
#
# Convention : Reuss Voigt Hill
#
# Bulk Modulus (GPa) = 44.17724 58.55288 51.36506
# Shear Modulus (GPa) = 25.39335 28.85280 27.12307
#
# Velocity S-wave (km/s) = 3.57890 3.81491 3.69879
# Velocity P-wave (km/s) = 6.27386 6.99565 6.64456
#
# Compressibility (1/GPa) = 0.02263609
#
# Stress axis : x y z
#
# Youngs Moduli (GPa) = 93.39093 36.92811 87.93394
#
# Poissons Ratio (x) = 0.11166 0.32084
# Poissons Ratio (y) = 0.28238 0.57944
# Poissons Ratio (z) = 0.34075 0.24334
#
# Static dielectric constant tensor:
#      x y z
#    x 1.731630 0.000000 0.000000 
#    y 0.000000 1.710510 0.000000 
#    z 0.000000 0.000000 1.718980 
# 
# From -- ./inp_files/31760.got.cif
#   From: 2010.05.17/outbox.cif.g08.bks.cpg/sg72_16_cif.got.tgz:31760.got - 2010.06.03 17:03:01.
