data_PCOD9528704
_publ_section_title
;
Structure prediction by ZEFSAII (Michael W. Deem and Ramdas Pophale) SiO2 
 PCOD9528704
Probable space group: I B A M
;
_chemical_formula_sum "Si O2"
_cell_formula_units_Z 92
_cell_length_a 25.588485
_cell_length_b 19.785387
_cell_length_c 9.734994
_cell_angle_alpha 90.000000
_cell_angle_beta 90.000000
_cell_angle_gamma 90.000000
_cell_volume 4928.614056
_symmetry_space_group_name_H-M "I B A M"
_symmetry_group_IT_number 72
_symmetry_cell_setting 'orthorhombic'
loop_
_space_group_symop_operation_xyz
x,y,z
-x,-y,z
x,-y,1/2-z
-x,y,1/2-z
-x,-y,-z
x,y,-z
-x,y,1/2+z
x,-y,1/2+z
1/2+x,1/2+y,1/2+z
1/2-x,1/2-y,1/2+z
1/2+x,1/2-y,-z
1/2-x,1/2+y,-z
1/2-x,1/2-y,1/2-z
1/2+x,1/2+y,1/2-z
1/2-x,1/2+y,z
1/2+x,1/2-y,z
loop_
_atom_site_type_symbol
_atom_site_label
_atom_site_fract_x
_atom_site_fract_y
_atom_site_fract_z
Si Si1 0.113541 0.859684 0.661464
Si Si2 0.953313 0.596833 0.000000
Si Si3 0.074342 0.438656 0.500000
Si Si4 0.500000 0.500000 0.500000
Si Si5 0.454532 0.731113 0.654712
Si Si6 0.801362 0.259391 0.660539
Si Si7 0.610612 0.853108 0.239014
Si Si8 0.083868 0.000000 0.750000
O O1 0.098371 0.859171 0.500000
O O2 0.067751 0.830994 0.758334
O O3 0.161048 0.806644 0.675863
O O4 0.119935 0.935642 0.712909
O O5 0.937141 0.518043 0.000000
O O6 0.927202 0.631149 0.867464
O O7 0.016632 0.597506 0.000000
O O8 0.105847 0.415267 0.634583
O O9 0.545459 0.490114 0.379699
O O10 0.500000 0.759053 0.750000
O O11 0.470451 0.713935 0.500000
O O12 0.411402 0.789214 0.654848
O O13 0.788532 0.265160 0.500000
O O14 0.750000 0.250000 0.750000
O O15 0.834297 0.325726 0.705665
#
# Coordination Sequence:
#
# PCOD9528704 Si02
#       8
#    16   8   8   4  16  16  16   8
#     4  10  23  40  61  88 120 158 204 256 309 370
#     4  11  22  38  60  90 135 173 210 246 300 370
#     4  11  22  36  62  94 127 179 210 240 302 378
#     4  10  24  34  60  86 124 186 204 234 290 370
#     4  11  23  33  53  83 118 161 204 251 301 362
#     4  10  23  44  70  92 116 158 209 270 328 374
#     4  11  22  39  59  89 126 161 212 262 305 366
#     4  11  22  40  58  88 132 170 208 248 297 360
#
# _framework density 18.666505000000001
#
# number of rings (size 3 to 8) (size 9 to 14) (size 15 to 20)
#    0.000    1.391    2.609    2.609    7.304    2.087 
#    0.000    0.000    3.826    0.000    0.000    0.000 
#    0.000    0.000    0.000    0.000    0.000    0.000 
#
# Total GULP energy -256124.145447 kJ/mol
# GULP energy per Si atom -5567.916205 kJ/mol
# Density = 1.862402 g / cm^3
# Si number density = 18.666505 Si / 1000 Ang^3
#
#
#
# Elastic Constant Matrix: (Units=GPa)
#
#
# Indices 1 2 3 4 5 6 
#
# 1 85.7240 24.7390 62.0421 0.0000 0.0000 0.0000
# 2 24.7390 81.2766 38.4160 0.0000 0.0000 0.0000
# 3 62.0421 38.4160 187.7551 0.0000 0.0000 0.0000
# 4 0.0000 0.0000 0.0000 20.2511 0.0000 0.0000
# 5 0.0000 0.0000 0.0000 0.0000 21.4952 0.0000
# 6 0.0000 0.0000 0.0000 0.0000 0.0000 14.1106
#
#
#
# Elastic Compliance Matrix: (Units=1/GPa)
#
#
# Indices 1 2 3 4 5 6 
#
# 1 0.015811 -0.002594 -0.004694 0.000000 0.000000 0.000000
# 2 -0.002594 0.014046 -0.002017 0.000000 0.000000 0.000000
# 3 -0.004694 -0.002017 0.007290 0.000000 0.000000 0.000000
# 4 0.000000 0.000000 0.000000 0.049380 0.000000 0.000000
# 5 0.000000 0.000000 0.000000 0.000000 0.046522 0.000000
# 6 0.000000 0.000000 0.000000 0.000000 0.000000 0.070869
#
#
# Mechanical properties :
#
#
# Convention : Reuss Voigt Hill
#
# Bulk Modulus (GPa) = 53.94343 67.23889 60.59116
# Shear Modulus (GPa) = 21.86205 26.47531 24.16868
#
# Velocity S-wave (km/s) = 3.42598 3.77016 3.60218
# Velocity P-wave (km/s) = 6.67915 7.41967 7.05913
#
# Compressibility (1/GPa) = 0.01853794
#
# Stress axis : x y z
#
# Youngs Moduli (GPa) = 63.24668 71.19213 137.17789
#
# Poissons Ratio (x) = 0.18467 0.64390
# Poissons Ratio (y) = 0.16406 0.27667
# Poissons Ratio (z) = 0.29687 0.14358
#
# Static dielectric constant tensor:
#      x y z
#    x 1.646680 0.000000 0.000000 
#    y 0.000000 1.692720 0.000000 
#    z 0.000000 0.000000 1.646760 
# 
# From -- ./inp_files/8135.got.cif
#   From: 2010.05.17/outbox.cif.g08.bks.cpg/sg72_5_cif.got.tgz:8135.got - 2010.06.03 17:03:01.
