data_PCOD9528111
_publ_section_title
;
Structure prediction by ZEFSAII (Michael W. Deem and Ramdas Pophale) SiO2 
 PCOD9528111
Probable space group: I B A M
;
_chemical_formula_sum "Si O2"
_cell_formula_units_Z 80
_cell_length_a 20.428147
_cell_length_b 9.575368
_cell_length_c 21.086939
_cell_angle_alpha 90.000000
_cell_angle_beta 90.000000
_cell_angle_gamma 90.000000
_cell_volume 4124.753406
_symmetry_space_group_name_H-M "I B A M"
_symmetry_group_IT_number 72
_symmetry_cell_setting 'orthorhombic'
loop_
_space_group_symop_operation_xyz
x,y,z
-x,-y,z
x,-y,1/2-z
-x,y,1/2-z
-x,-y,-z
x,y,-z
-x,y,1/2+z
x,-y,1/2+z
1/2+x,1/2+y,1/2+z
1/2-x,1/2-y,1/2+z
1/2+x,1/2-y,-z
1/2-x,1/2+y,-z
1/2-x,1/2-y,1/2-z
1/2+x,1/2+y,1/2-z
1/2-x,1/2+y,z
1/2+x,1/2-y,z
loop_
_atom_site_type_symbol
_atom_site_label
_atom_site_fract_x
_atom_site_fract_y
_atom_site_fract_z
Si Si1 0.941382 0.783127 0.792753
Si Si2 0.228281 0.560035 0.350644
Si Si3 0.455776 0.361444 0.570427
Si Si4 0.377615 0.000000 0.750000
Si Si5 0.302892 0.664088 0.071786
Si Si6 0.165359 0.000000 0.250000
O O1 0.964488 0.772110 0.865695
O O2 0.919838 0.636434 0.763249
O O3 0.000000 0.839135 0.750000
O O4 0.880679 0.889254 0.785411
O O5 0.169909 0.489276 0.310911
O O6 0.255557 0.456823 0.403831
O O7 0.204824 0.704132 0.381470
O O8 0.287458 0.577501 0.300140
O O9 0.500000 0.500000 0.576935
O O10 0.470462 0.300820 0.500000
O O11 0.377789 0.389979 0.570828
O O12 0.286610 0.707074 0.000000
#
# Coordination Sequence:
#
# PCOD9528111 Si02
#       6
#    16  16  16   8  16   8
#     4  12  23  39  64  92 119 162 215 267 309 376
#     4  11  21  39  60  89 130 163 203 255 316 376
#     4  10  21  40  63  90 124 165 212 267 316 365
#     4  11  23  40  58  88 129 163 198 258 332 367
#     4  11  22  38  63  92 127 166 210 253 310 383
#     4  11  21  36  62  92 121 159 210 258 310 365
#
# _framework density 19.395098999999998
#
# number of rings (size 3 to 8) (size 9 to 14) (size 15 to 20)
#    0.000    1.000    4.000    3.600    0.000    3.200 
#    0.000    0.000    0.000    3.600    0.000    0.000 
#    0.000    0.000    0.000    0.000    0.000    0.000 
#
# Total GULP energy -223316.612428 kJ/mol
# GULP energy per Si atom -5582.915311 kJ/mol
# Density = 1.935095 g / cm^3
# Si number density = 19.395099 Si / 1000 Ang^3
#
#
#
# Elastic Constant Matrix: (Units=GPa)
#
#
# Indices 1 2 3 4 5 6 
#
# 1 93.1142 43.8374 55.7414 0.0000 0.0000 0.0000
# 2 43.8374 96.2783 43.1565 0.0000 0.0000 0.0000
# 3 55.7414 43.1565 140.8532 0.0000 0.0000 0.0000
# 4 0.0000 0.0000 0.0000 33.0583 0.0000 0.0000
# 5 0.0000 0.0000 0.0000 0.0000 24.9853 0.0000
# 6 0.0000 0.0000 0.0000 0.0000 0.0000 20.1232
#
#
#
# Elastic Compliance Matrix: (Units=1/GPa)
#
#
# Indices 1 2 3 4 5 6 
#
# 1 0.016017 -0.005160 -0.004757 0.000000 0.000000 0.000000
# 2 -0.005160 0.013703 -0.002156 0.000000 0.000000 0.000000
# 3 -0.004757 -0.002156 0.009643 0.000000 0.000000 0.000000
# 4 0.000000 0.000000 0.000000 0.030250 0.000000 0.000000
# 5 0.000000 0.000000 0.000000 0.000000 0.040024 0.000000
# 6 0.000000 0.000000 0.000000 0.000000 0.000000 0.049694
#
#
# Mechanical properties :
#
#
# Convention : Reuss Voigt Hill
#
# Bulk Modulus (GPa) = 65.72674 68.41293 67.06983
# Shear Modulus (GPa) = 26.51828 28.13405 27.32616
#
# Velocity S-wave (km/s) = 3.70167 3.81277 3.75763
# Velocity P-wave (km/s) = 7.22715 7.39817 7.31316
#
# Compressibility (1/GPa) = 0.01521451
#
# Stress axis : x y z
#
# Youngs Moduli (GPa) = 62.43397 72.97837 103.70237
#
# Poissons Ratio (x) = 0.37659 0.49336
# Poissons Ratio (y) = 0.32218 0.22361
# Poissons Ratio (z) = 0.29703 0.15736
#
# Static dielectric constant tensor:
#      x y z
#    x 1.689310 0.000000 0.000000 
#    y 0.000000 1.650180 0.000000 
#    z 0.000000 0.000000 1.724860 
# 
# From -- ./inp_files/35787.got.cif
#   From: 2010.05.17/outbox.cif.g08.bks.cpg/sg72_18_cif.got.tgz:35787.got - 2010.06.03 17:03:01.
