data_PCOD9528780
_publ_section_title
;
Structure prediction by ZEFSAII (Michael W. Deem and Ramdas Pophale) SiO2 
 PCOD9528780
Probable space group: I B A M
;
_chemical_formula_sum "Si O2"
_cell_formula_units_Z 68
_cell_length_a 16.767394
_cell_length_b 10.027270
_cell_length_c 17.235322
_cell_angle_alpha 90.000000
_cell_angle_beta 90.000000
_cell_angle_gamma 90.000000
_cell_volume 2897.795143
_symmetry_space_group_name_H-M "I B A M"
_symmetry_group_IT_number 72
_symmetry_cell_setting 'orthorhombic'
loop_
_space_group_symop_operation_xyz
x,y,z
-x,-y,z
x,-y,1/2-z
-x,y,1/2-z
-x,-y,-z
x,y,-z
-x,y,1/2+z
x,-y,1/2+z
1/2+x,1/2+y,1/2+z
1/2-x,1/2-y,1/2+z
1/2+x,1/2-y,-z
1/2-x,1/2+y,-z
1/2-x,1/2-y,1/2-z
1/2+x,1/2+y,1/2-z
1/2-x,1/2+y,z
1/2+x,1/2-y,z
loop_
_atom_site_type_symbol
_atom_site_label
_atom_site_fract_x
_atom_site_fract_y
_atom_site_fract_z
Si Si1 0.042428 0.720952 0.500000
Si Si2 0.369833 0.785123 0.500000
Si Si3 0.000000 0.000000 0.250000
Si Si4 0.402059 0.256240 0.673508
Si Si5 0.747940 0.112437 0.627868
Si Si6 0.633327 0.000000 0.250000
Si Si7 0.633161 0.488216 0.000000
O O1 0.078235 0.696892 0.412760
O O2 0.064933 0.879074 0.500000
O O3 0.956415 0.648205 0.500000
O O4 0.313688 0.810491 0.572895
O O5 0.398379 0.634616 0.500000
O O6 0.050894 0.893275 0.302545
O O7 0.308412 0.294737 0.675003
O O8 0.413469 0.136579 0.734477
O O9 0.808755 0.033122 0.572869
O O10 0.692606 0.020287 0.678507
#
# Coordination Sequence:
#
# PCOD9528780 Si02
#       7
#     8   8   4  16  16   8   8
#     4  10  25  43  70 104 139 195 240 289 349 431
#     4  11  22  40  70 101 138 185 241 294 352 417
#     4  12  30  48  76 106 144 184 242 300 374 436
#     4  11  27  48  75 107 148 191 241 296 361 434
#     4  10  23  42  70 104 139 186 238 293 353 429
#     4  12  25  45  72 102 150 188 238 302 365 419
#     4   9  20  39  68 100 138 179 240 286 347 425
#
# _framework density 23.466118000000002
#
# number of rings (size 3 to 8) (size 9 to 14) (size 15 to 20)
#    0.000    1.412    0.000    3.882    9.882    2.353 
#    0.000    1.176    0.000    0.000    0.000    0.000 
#    0.000    0.000    0.000    0.000    0.000    0.000 
#
# Total GULP energy -189621.434984 kJ/mol
# GULP energy per Si atom -5577.101029 kJ/mol
# Density = 2.341271 g / cm^3
# Si number density = 23.466118 Si / 1000 Ang^3
#
#
#
# Elastic Constant Matrix: (Units=GPa)
#
#
# Indices 1 2 3 4 5 6 
#
# 1 160.5933 40.6452 40.6390 0.0000 0.0000 0.0000
# 2 40.6452 110.0429 37.4388 0.0000 0.0000 0.0000
# 3 40.6390 37.4388 74.7890 0.0000 0.0000 0.0000
# 4 0.0000 0.0000 0.0000 -98.7661 0.0000 0.0000
# 5 0.0000 0.0000 0.0000 0.0000 8.9488 0.0000
# 6 0.0000 0.0000 0.0000 0.0000 0.0000 31.0017
#
#
#
# Elastic Compliance Matrix: (Units=1/GPa)
#
#
# Indices 1 2 3 4 5 6 
#
# 1 0.007463 -0.001659 -0.003224 0.000000 0.000000 0.000000
# 2 -0.001659 0.011322 -0.004766 0.000000 0.000000 0.000000
# 3 -0.003224 -0.004766 0.017509 0.000000 0.000000 0.000000
# 4 0.000000 0.000000 0.000000 -0.010125 0.000000 0.000000
# 5 0.000000 0.000000 0.000000 0.000000 0.111746 0.000000
# 6 0.000000 0.000000 0.000000 0.000000 0.000000 0.032256
#
#
# Mechanical properties :
#
#
# Convention : Reuss Voigt Hill
#
# Bulk Modulus (GPa) = 58.84478 64.76347 61.80413
# Shear Modulus (GPa) = 25.62323 3.35036 14.48679
#
# Velocity S-wave (km/s) = 3.30801 1.19618 2.48735
# Velocity P-wave (km/s) = 6.30250 5.43750 5.88591
#
# Compressibility (1/GPa) = 0.01699386
#
# Stress axis : x y z
#
# Youngs Moduli (GPa) = 133.99658 88.32570 57.11397
#
# Poissons Ratio (x) = 0.14657 0.18416
# Poissons Ratio (y) = 0.22236 0.27220
# Poissons Ratio (z) = 0.43207 0.42095
#
# Static dielectric constant tensor:
#      x y z
#    x 1.859050 0.000000 0.000000 
#    y 0.000000 1.911700 0.000000 
#    z 0.000000 0.000000 1.903660 
# 
# From -- ./inp_files/29103.got.cif
#   From: 2010.05.17/outbox.cif.g08.bks.cpg/sg72_15_cif.got.tgz:29103.got - 2010.06.03 17:03:01.
