data_PCOD9528815
_publ_section_title
;
Structure prediction by ZEFSAII (Michael W. Deem and Ramdas Pophale) SiO2 
 PCOD9528815
Probable space group: I B A M
;
_chemical_formula_sum "Si O2"
_cell_formula_units_Z 112
_cell_length_a 28.746099
_cell_length_b 12.043929
_cell_length_c 17.165465
_cell_angle_alpha 90.000000
_cell_angle_beta 90.000000
_cell_angle_gamma 90.000000
_cell_volume 5942.958208
_symmetry_space_group_name_H-M "I B A M"
_symmetry_group_IT_number 72
_symmetry_cell_setting 'orthorhombic'
loop_
_space_group_symop_operation_xyz
x,y,z
-x,-y,z
x,-y,1/2-z
-x,y,1/2-z
-x,-y,-z
x,y,-z
-x,y,1/2+z
x,-y,1/2+z
1/2+x,1/2+y,1/2+z
1/2-x,1/2-y,1/2+z
1/2+x,1/2-y,-z
1/2-x,1/2+y,-z
1/2-x,1/2-y,1/2-z
1/2+x,1/2+y,1/2-z
1/2-x,1/2+y,z
1/2+x,1/2-y,z
loop_
_atom_site_type_symbol
_atom_site_label
_atom_site_fract_x
_atom_site_fract_y
_atom_site_fract_z
Si Si1 0.394066 0.191395 0.591458
Si Si2 0.831439 0.126380 0.656478
Si Si3 0.655377 0.982209 0.842284
Si Si4 0.837597 0.134239 0.157476
Si Si5 0.493613 0.129395 0.657323
Si Si6 0.912055 0.705014 0.592727
Si Si7 0.231137 0.317994 0.406773
O O1 0.401725 0.181262 0.500000
O O2 0.372740 0.309374 0.613910
O O3 0.357018 0.098542 0.618440
O O4 0.442351 0.167851 0.634603
O O5 0.836482 0.145592 0.749024
O O6 0.782531 0.174987 0.627508
O O7 0.832418 0.995297 0.639634
O O8 0.658515 0.000000 0.750000
O O9 0.613564 0.897817 0.864207
O O10 0.701228 0.922381 0.874936
O O11 0.884881 0.186891 0.123263
O O12 0.796257 0.208716 0.121902
O O13 0.500000 0.137618 0.750000
O O14 0.534052 0.198653 0.615102
O O15 0.500000 0.000000 0.634782
O O16 0.905506 0.693642 0.500000
O O17 0.231993 0.320489 0.500000
#
# Coordination Sequence:
#
# PCOD9528815 Si02
#       7
#    16  16  16  16  16  16  16
#     4  12  24  38  60  96 133 160 201 265 320 366
#     4  11  25  42  65  90 123 167 212 262 316 373
#     4  11  22  37  61  89 127 164 209 254 309 375
#     4  10  23  44  66  86 122 166 217 257 308 380
#     4  11  22  38  65  95 130 168 207 255 314 378
#     4  11  22  40  65  93 126 169 211 258 317 380
#     4  11  24  40  63  91 123 165 212 261 315 376
#
# _framework density 18.845832999999999
#
# number of rings (size 3 to 8) (size 9 to 14) (size 15 to 20)
#    0.000    1.000    1.429    7.286    4.000    2.857 
#    0.000    0.714    0.000    4.286    0.000    0.000 
#    0.000    0.000    0.000    0.000    0.000    0.000 
#
# Total GULP energy -313292.390192 kJ/mol
# GULP energy per Si atom -5594.506968 kJ/mol
# Density = 1.880294 g / cm^3
# Si number density = 18.845833 Si / 1000 Ang^3
#
#
#
# Elastic Constant Matrix: (Units=GPa)
#
#
# Indices 1 2 3 4 5 6 
#
# 1 124.0364 57.8213 47.0092 0.0000 0.0000 0.0000
# 2 57.8213 96.8530 53.8187 0.0000 0.0000 0.0000
# 3 47.0092 53.8187 112.6702 0.0000 0.0000 0.0000
# 4 0.0000 0.0000 0.0000 28.9693 0.0000 0.0000
# 5 0.0000 0.0000 0.0000 0.0000 26.0449 0.0000
# 6 0.0000 0.0000 0.0000 0.0000 0.0000 20.4927
#
#
#
# Elastic Compliance Matrix: (Units=1/GPa)
#
#
# Indices 1 2 3 4 5 6 
#
# 1 0.011515 -0.005724 -0.002070 0.000000 0.000000 0.000000
# 2 -0.005724 0.016901 -0.005685 0.000000 0.000000 0.000000
# 3 -0.002070 -0.005685 0.012455 0.000000 0.000000 0.000000
# 4 0.000000 0.000000 0.000000 0.034519 0.000000 0.000000
# 5 0.000000 0.000000 0.000000 0.000000 0.038395 0.000000
# 6 0.000000 0.000000 0.000000 0.000000 0.000000 0.048798
#
#
# Mechanical properties :
#
#
# Convention : Reuss Voigt Hill
#
# Bulk Modulus (GPa) = 71.87750 72.31756 72.09753
# Shear Modulus (GPa) = 25.74938 26.76206 26.25572
#
# Velocity S-wave (km/s) = 3.70038 3.77245 3.73659
# Velocity P-wave (km/s) = 7.51529 7.57837 7.54690
#
# Compressibility (1/GPa) = 0.01391256
#
# Stress axis : x y z
#
# Youngs Moduli (GPa) = 86.84210 59.16752 80.29127
#
# Poissons Ratio (x) = 0.33869 0.16622
# Poissons Ratio (y) = 0.49710 0.45644
# Poissons Ratio (z) = 0.17978 0.33636
#
# Static dielectric constant tensor:
#      x y z
#    x 1.635690 0.000000 0.000000 
#    y 0.000000 1.644670 0.000000 
#    z 0.000000 0.000000 1.628530 
# 
# From -- ./inp_files/26366.got.cif
#   From: 2010.05.17/outbox.cif.g08.bks.cpg/sg72_14_cif.got.tgz:26366.got - 2010.06.03 17:03:01.
