data_PCOD9528737
_publ_section_title
;
Structure prediction by ZEFSAII (Michael W. Deem and Ramdas Pophale) SiO2 
 PCOD9528737
Probable space group: I B A M
;
_chemical_formula_sum "Si O2"
_cell_formula_units_Z 80
_cell_length_a 6.453510
_cell_length_b 21.926982
_cell_length_c 24.893459
_cell_angle_alpha 90.000000
_cell_angle_beta 90.000000
_cell_angle_gamma 90.000000
_cell_volume 3522.573750
_symmetry_space_group_name_H-M "I B A M"
_symmetry_group_IT_number 72
_symmetry_cell_setting 'orthorhombic'
loop_
_space_group_symop_operation_xyz
x,y,z
-x,-y,z
x,-y,1/2-z
-x,y,1/2-z
-x,-y,-z
x,y,-z
-x,y,1/2+z
x,-y,1/2+z
1/2+x,1/2+y,1/2+z
1/2-x,1/2-y,1/2+z
1/2+x,1/2-y,-z
1/2-x,1/2+y,-z
1/2-x,1/2-y,1/2-z
1/2+x,1/2+y,1/2-z
1/2-x,1/2+y,z
1/2+x,1/2-y,z
loop_
_atom_site_type_symbol
_atom_site_label
_atom_site_fract_x
_atom_site_fract_y
_atom_site_fract_z
Si Si1 0.980301 0.802724 0.892257
Si Si2 0.500000 0.500000 0.119641
Si Si3 0.633435 0.062099 0.438326
Si Si4 0.414905 0.165764 0.628061
Si Si5 0.591643 0.390352 0.308338
Si Si6 0.295379 0.725142 0.000000
O O1 0.005017 0.733684 0.870583
O O2 0.934811 0.846843 0.842278
O O3 0.209764 0.824714 0.909756
O O4 0.831545 0.806779 0.942942
O O5 0.642931 0.458816 0.082156
O O6 0.616582 0.546814 0.159126
O O7 0.633260 0.083404 0.500000
O O8 0.537630 0.111019 0.398010
O O9 0.500000 0.000000 0.436320
O O10 0.540961 0.241344 0.500000
O O11 0.309038 0.145289 0.684136
O O12 0.500000 0.399734 0.250000
#
# Coordination Sequence:
#
# PCOD9528737 Si02
#       6
#    16   8  16  16  16   8
#     4  10  23  41  66 103 147 196 252 310 391 468
#     4  12  24  46  74 106 136 197 259 314 382 462
#     4  11  24  45  71 105 152 190 241 307 378 465
#     4  10  23  42  66 107 146 196 248 312 380 472
#     4  10  24  46  71 100 143 193 254 327 386 460
#     4  12  22  40  68 103 154 202 251 314 384 478
#
# _framework density 22.710667000000001
#
# number of rings (size 3 to 8) (size 9 to 14) (size 15 to 20)
#    1.200    0.200    4.000    0.600    5.600    0.800 
#    3.600    1.000    0.000    0.000    0.000    0.000 
#    0.000    0.000    0.000    0.000    0.000    0.000 
#
# Total GULP energy -222875.146999 kJ/mol
# GULP energy per Si atom -5571.878675 kJ/mol
# Density = 2.265898 g / cm^3
# Si number density = 22.710667 Si / 1000 Ang^3
#
#
#
# Elastic Constant Matrix: (Units=GPa)
#
#
# Indices 1 2 3 4 5 6 
#
# 1 94.1263 15.9938 19.6730 0.0000 0.0000 0.0000
# 2 15.9938 78.8840 -1.2994 0.0000 0.0000 0.0000
# 3 19.6730 -1.2994 65.9473 0.0000 0.0000 0.0000
# 4 0.0000 0.0000 0.0000 15.0620 0.0000 0.0000
# 5 0.0000 0.0000 0.0000 0.0000 31.6532 0.0000
# 6 0.0000 0.0000 0.0000 0.0000 0.0000 58.3088
#
#
#
# Elastic Compliance Matrix: (Units=1/GPa)
#
#
# Indices 1 2 3 4 5 6 
#
# 1 0.011785 -0.002448 -0.003564 0.000000 0.000000 0.000000
# 2 -0.002448 0.013189 0.000990 0.000000 0.000000 0.000000
# 3 -0.003564 0.000990 0.016246 0.000000 0.000000 0.000000
# 4 0.000000 0.000000 0.000000 0.066392 0.000000 0.000000
# 5 0.000000 0.000000 0.000000 0.000000 0.031592 0.000000
# 6 0.000000 0.000000 0.000000 0.000000 0.000000 0.017150
#
#
# Mechanical properties :
#
#
# Convention : Reuss Voigt Hill
#
# Bulk Modulus (GPa) = 32.07476 34.18804 33.13140
# Shear Modulus (GPa) = 28.28192 34.64414 31.46303
#
# Velocity S-wave (km/s) = 3.53273 3.90995 3.72611
# Velocity P-wave (km/s) = 5.54924 5.95567 5.75604
#
# Compressibility (1/GPa) = 0.03117717
#
# Stress axis : x y z
#
# Youngs Moduli (GPa) = 84.85462 75.81789 61.55258
#
# Poissons Ratio (x) = 0.18561 0.21936
# Poissons Ratio (y) = 0.20773 -0.06095
# Poissons Ratio (z) = 0.30241 -0.07507
#
# Static dielectric constant tensor:
#      x y z
#    x 2.019990 0.000000 0.000000 
#    y 0.000000 1.911470 0.000000 
#    z 0.000000 0.000000 1.816170 
# 
# From -- ./inp_files/35780.got.cif
#   From: 2010.05.17/outbox.cif.g08.bks.cpg/sg72_18_cif.got.tgz:35780.got - 2010.06.03 17:03:01.
