data_PCOD9528805
_publ_section_title
;
Structure prediction by ZEFSAII (Michael W. Deem and Ramdas Pophale) SiO2 
 PCOD9528805
Probable space group: I B A M
;
_chemical_formula_sum "Si O2"
_cell_formula_units_Z 32
_cell_length_a 22.416855
_cell_length_b 5.201978
_cell_length_c 11.328639
_cell_angle_alpha 90.000000
_cell_angle_beta 90.000000
_cell_angle_gamma 90.000000
_cell_volume 1321.055099
_symmetry_space_group_name_H-M "I B A M"
_symmetry_group_IT_number 72
_symmetry_cell_setting 'orthorhombic'
loop_
_space_group_symop_operation_xyz
x,y,z
-x,-y,z
x,-y,1/2-z
-x,y,1/2-z
-x,-y,-z
x,y,-z
-x,y,1/2+z
x,-y,1/2+z
1/2+x,1/2+y,1/2+z
1/2-x,1/2-y,1/2+z
1/2+x,1/2-y,-z
1/2-x,1/2+y,-z
1/2-x,1/2-y,1/2-z
1/2+x,1/2+y,1/2-z
1/2-x,1/2+y,z
1/2+x,1/2-y,z
loop_
_atom_site_type_symbol
_atom_site_label
_atom_site_fract_x
_atom_site_fract_y
_atom_site_fract_z
Si Si1 0.210502 0.480204 0.000000
Si Si2 0.457548 0.746062 0.371444
Si Si3 0.642364 0.000000 0.750000
O O1 0.176972 0.447909 0.872640
O O2 0.261713 0.264175 0.000000
O O3 0.500000 0.500000 0.365301
O O4 0.428203 0.741285 0.500000
O O5 0.500000 0.000000 0.369246
O O6 0.404289 0.773352 0.279899
#
# Coordination Sequence:
#
# PCOD9528805 Si02
#       3
#     8  16   8
#     4  12  30  52  77 110 149 202 274 332 378 442
#     4  10  23  43  70 110 153 194 240 292 371 474
#     4  12  25  52  78 114 152 210 249 322 394 444
#
# _framework density 24.223063
#
# number of rings (size 3 to 8) (size 9 to 14) (size 15 to 20)
#    0.000    1.000    2.500    2.250    0.000   12.000 
#    0.000    1.250    0.000    0.000    0.000    0.000 
#    0.000    0.000    0.000    0.000    0.000    0.000 
#
# Total GULP energy -89357.563952 kJ/mol
# GULP energy per Si atom -5584.847747 kJ/mol
# Density = 2.416793 g / cm^3
# Si number density = 24.223063 Si / 1000 Ang^3
#
#
#
# Elastic Constant Matrix: (Units=GPa)
#
#
# Indices 1 2 3 4 5 6 
#
# 1 91.6781 18.5281 81.0892 0.0000 0.0000 0.0000
# 2 18.5281 132.7063 6.0286 0.0000 0.0000 0.0000
# 3 81.0892 6.0286 238.9029 0.0000 0.0000 0.0000
# 4 0.0000 0.0000 0.0000 24.8331 0.0000 0.0000
# 5 0.0000 0.0000 0.0000 0.0000 86.1818 0.0000
# 6 0.0000 0.0000 0.0000 0.0000 0.0000 44.5991
#
#
#
# Elastic Compliance Matrix: (Units=1/GPa)
#
#
# Indices 1 2 3 4 5 6 
#
# 1 0.016102 -0.002002 -0.005415 0.000000 0.000000 0.000000
# 2 -0.002002 0.007793 0.000483 0.000000 0.000000 0.000000
# 3 -0.005415 0.000483 0.006012 0.000000 0.000000 0.000000
# 4 0.000000 0.000000 0.000000 0.040269 0.000000 0.000000
# 5 0.000000 0.000000 0.000000 0.000000 0.011603 0.000000
# 6 0.000000 0.000000 0.000000 0.000000 0.000000 0.022422
#
#
# Mechanical properties :
#
#
# Convention : Reuss Voigt Hill
#
# Bulk Modulus (GPa) = 62.35062 74.95321 68.65191
# Shear Modulus (GPa) = 40.51386 54.96556 47.73971
#
# Velocity S-wave (km/s) = 4.09410 4.76872 4.44423
# Velocity P-wave (km/s) = 6.93865 7.83141 7.39851
#
# Compressibility (1/GPa) = 0.01603833
#
# Stress axis : x y z
#
# Youngs Moduli (GPa) = 62.10518 128.31982 166.34737
#
# Poissons Ratio (x) = 0.25691 0.90073
# Poissons Ratio (y) = 0.12434 -0.08033
# Poissons Ratio (z) = 0.33629 -0.06197
#
# Static dielectric constant tensor:
#      x y z
#    x 1.915790 0.000000 0.000000 
#    y 0.000000 1.948360 0.000000 
#    z 0.000000 0.000000 2.120320 
# 
# From -- ./inp_files/14228.got.cif
#   From: 2010.05.17/outbox.cif.g08.bks.cpg/sg72_8_cif.got.tgz:14228.got - 2010.06.03 17:03:01.
