data_PCOD9528701
_publ_section_title
;
Structure prediction by ZEFSAII (Michael W. Deem and Ramdas Pophale) SiO2 
 PCOD9528701
Probable space group: I B A M
;
_chemical_formula_sum "Si O2"
_cell_formula_units_Z 80
_cell_length_a 25.621525
_cell_length_b 11.580997
_cell_length_c 13.550700
_cell_angle_alpha 90.000000
_cell_angle_beta 90.000000
_cell_angle_gamma 90.000000
_cell_volume 4020.801702
_symmetry_space_group_name_H-M "I B A M"
_symmetry_group_IT_number 72
_symmetry_cell_setting 'orthorhombic'
loop_
_space_group_symop_operation_xyz
x,y,z
-x,-y,z
x,-y,1/2-z
-x,y,1/2-z
-x,-y,-z
x,y,-z
-x,y,1/2+z
x,-y,1/2+z
1/2+x,1/2+y,1/2+z
1/2-x,1/2-y,1/2+z
1/2+x,1/2-y,-z
1/2-x,1/2+y,-z
1/2-x,1/2-y,1/2-z
1/2+x,1/2+y,1/2-z
1/2-x,1/2+y,z
1/2+x,1/2-y,z
loop_
_atom_site_type_symbol
_atom_site_label
_atom_site_fract_x
_atom_site_fract_y
_atom_site_fract_z
Si Si1 0.089673 0.279590 0.379562
Si Si2 0.324656 0.635045 0.271585
Si Si3 0.374494 0.039192 0.381273
Si Si4 0.219263 0.690905 0.382726
Si Si5 0.980431 0.367540 0.383195
O O1 0.092233 0.263509 0.500000
O O2 0.123155 0.186186 0.320977
O O3 0.114303 0.406356 0.358279
O O4 0.028538 0.288934 0.349222
O O5 0.328679 0.500000 0.250000
O O6 0.277239 0.666048 0.345673
O O7 0.307095 0.700987 0.172049
O O8 0.377056 0.044916 0.500000
O O9 0.318009 0.084062 0.352937
O O10 0.421237 0.123738 0.345598
O O11 0.218549 0.705832 0.500000
O O12 0.977194 0.344577 0.500000
O O13 0.000000 0.500000 0.371523
#
# Coordination Sequence:
#
# PCOD9528701 Si02
#       5
#    16  16  16  16  16
#     4   9  17  32  58  88 120 151 188 240 301 356
#     4  11  25  39  55  82 116 156 204 245 286 360
#     4   8  15  30  57  88 115 145 186 239 300 355
#     4  10  23  40  59  80 109 152 196 248 303 350
#     4   7  11  24  50  86 117 141 174 226 289 349
#
# _framework density 19.896529000000001
#
# number of rings (size 3 to 8) (size 9 to 14) (size 15 to 20)
#    0.000    3.000    0.000    3.000    5.600    1.600 
#    0.000    1.000    0.000    6.000    0.000    5.600 
#    0.000    0.000    0.000    0.000    0.000    0.000 
#
# Total GULP energy -223174.133101 kJ/mol
# GULP energy per Si atom -5579.353328 kJ/mol
# Density = 1.985124 g / cm^3
# Si number density = 19.896529 Si / 1000 Ang^3
#
#
#
# Elastic Constant Matrix: (Units=GPa)
#
#
# Indices 1 2 3 4 5 6 
#
# 1 69.7772 25.5728 38.8622 0.0000 0.0000 0.0000
# 2 25.5728 95.0227 37.5967 0.0000 0.0000 0.0000
# 3 38.8622 37.5967 121.8758 0.0000 0.0000 0.0000
# 4 0.0000 0.0000 0.0000 -7.4882 0.0000 0.0000
# 5 0.0000 0.0000 0.0000 0.0000 14.2624 0.0000
# 6 0.0000 0.0000 0.0000 0.0000 0.0000 28.3941
#
#
#
# Elastic Compliance Matrix: (Units=1/GPa)
#
#
# Indices 1 2 3 4 5 6 
#
# 1 0.018125 -0.002951 -0.004869 0.000000 0.000000 0.000000
# 2 -0.002951 0.012467 -0.002905 0.000000 0.000000 0.000000
# 3 -0.004869 -0.002905 0.010654 0.000000 0.000000 0.000000
# 4 0.000000 0.000000 0.000000 -0.133543 0.000000 0.000000
# 5 0.000000 0.000000 0.000000 0.000000 0.070114 0.000000
# 6 0.000000 0.000000 0.000000 0.000000 0.000000 0.035219
#
#
# Mechanical properties :
#
#
# Convention : Reuss Voigt Hill
#
# Bulk Modulus (GPa) = 50.51650 54.52656 52.52153
# Shear Modulus (GPa) = 121.70083 19.34326 70.52205
#
# Velocity S-wave (km/s) = 7.82941 3.12138 5.95998
# Velocity P-wave (km/s) = 10.35266 6.36045 8.59165
#
# Compressibility (1/GPa) = 0.01979551
#
# Stress axis : x y z
#
# Youngs Moduli (GPa) = 55.17328 80.20894 93.86370
#
# Poissons Ratio (x) = 0.23672 0.45702
# Poissons Ratio (y) = 0.16283 0.27267
# Poissons Ratio (z) = 0.26864 0.23300
#
# Static dielectric constant tensor:
#      x y z
#    x 1.726210 0.000000 0.000000 
#    y 0.000000 1.655890 0.000000 
#    z 0.000000 0.000000 1.764550 
# 
# From -- ./inp_files/20435.got.cif
#   From: 2010.05.17/outbox.cif.g08.bks.cpg/sg72_11_cif.got.tgz:20435.got - 2010.06.03 17:03:01.
