data_PCOD9528390
_publ_section_title
;
Structure prediction by ZEFSAII (Michael W. Deem and Ramdas Pophale) SiO2 
 PCOD9528390
Probable space group: I B A M
;
_chemical_formula_sum "Si O2"
_cell_formula_units_Z 100
_cell_length_a 14.063856
_cell_length_b 11.726918
_cell_length_c 27.204976
_cell_angle_alpha 90.000000
_cell_angle_beta 90.000000
_cell_angle_gamma 90.000000
_cell_volume 4486.799331
_symmetry_space_group_name_H-M "I B A M"
_symmetry_group_IT_number 72
_symmetry_cell_setting 'orthorhombic'
loop_
_space_group_symop_operation_xyz
x,y,z
-x,-y,z
x,-y,1/2-z
-x,y,1/2-z
-x,-y,-z
x,y,-z
-x,y,1/2+z
x,-y,1/2+z
1/2+x,1/2+y,1/2+z
1/2-x,1/2-y,1/2+z
1/2+x,1/2-y,-z
1/2-x,1/2+y,-z
1/2-x,1/2-y,1/2-z
1/2+x,1/2+y,1/2-z
1/2-x,1/2+y,z
1/2+x,1/2-y,z
loop_
_atom_site_type_symbol
_atom_site_label
_atom_site_fract_x
_atom_site_fract_y
_atom_site_fract_z
Si Si1 0.819873 0.909757 0.000000
Si Si2 0.647643 0.414399 0.676348
Si Si3 0.171493 0.627356 0.500000
Si Si4 0.445028 0.141869 0.398671
Si Si5 0.000000 0.000000 0.250000
Si Si6 0.849118 0.319727 0.876593
Si Si7 0.356706 0.985365 0.804525
Si Si8 0.638979 0.382707 0.102117
O O1 0.882661 0.927846 0.951596
O O2 0.743912 0.017185 0.000000
O O3 0.797796 0.766551 0.000000
O O4 0.568573 0.418872 0.718102
O O5 0.644087 0.310878 0.638368
O O6 0.754063 0.423737 0.698062
O O7 0.629967 0.526913 0.644514
O O8 0.111614 0.614857 0.551016
O O9 0.558346 0.136395 0.405314
O O10 0.412887 0.076540 0.348992
O O11 0.420670 0.272070 0.386686
O O12 0.843915 0.388014 0.825519
O O13 0.750519 0.348591 0.902352
O O14 0.396233 0.000000 0.750000
#
# Coordination Sequence:
#
# PCOD9528390 Si02
#       8
#     8  16   8  16   4  16  16  16
#     4  10  22  39  72 103 135 191 233 288 356 420
#     4  11  23  42  63  96 132 173 227 281 338 411
#     4  10  22  43  70 105 143 183 245 292 351 429
#     4  11  23  44  66 100 138 177 228 285 347 418
#     4  12  24  40  68  98 124 184 236 272 348 420
#     4  11  24  40  69  96 133 183 221 281 356 409
#     4  11  24  43  66  96 137 175 226 286 347 414
#     4  10  23  43  67  97 136 177 227 286 341 412
#
# _framework density 22.287600999999999
#
# number of rings (size 3 to 8) (size 9 to 14) (size 15 to 20)
#    0.000    1.280    2.400    3.360    2.240    5.120 
#    0.000    3.200    0.000    3.360    0.000    0.000 
#    0.000    0.000    0.000    0.000    0.000    0.000 
#
# Total GULP energy -279048.590965 kJ/mol
# GULP energy per Si atom -5580.971819 kJ/mol
# Density = 2.223687 g / cm^3
# Si number density = 22.287601 Si / 1000 Ang^3
#
#
#
# Elastic Constant Matrix: (Units=GPa)
#
#
# Indices 1 2 3 4 5 6 
#
# 1 96.4940 21.1224 24.3374 0.0000 0.0000 0.0000
# 2 21.1224 70.7118 21.4635 0.0000 0.0000 0.0000
# 3 24.3374 21.4635 128.8512 0.0000 0.0000 0.0000
# 4 0.0000 0.0000 0.0000 11.2125 0.0000 0.0000
# 5 0.0000 0.0000 0.0000 0.0000 11.3763 0.0000
# 6 0.0000 0.0000 0.0000 0.0000 0.0000 24.1146
#
#
#
# Elastic Compliance Matrix: (Units=1/GPa)
#
#
# Indices 1 2 3 4 5 6 
#
# 1 0.011421 -0.002904 -0.001674 0.000000 0.000000 0.000000
# 2 -0.002904 0.015633 -0.002056 0.000000 0.000000 0.000000
# 3 -0.001674 -0.002056 0.008419 0.000000 0.000000 0.000000
# 4 0.000000 0.000000 0.000000 0.089186 0.000000 0.000000
# 5 0.000000 0.000000 0.000000 0.000000 0.087902 0.000000
# 6 0.000000 0.000000 0.000000 0.000000 0.000000 0.041469
#
#
# Mechanical properties :
#
#
# Convention : Reuss Voigt Hill
#
# Bulk Modulus (GPa) = 45.02878 47.76705 46.39792
# Shear Modulus (GPa) = 18.20175 24.61626 21.40901
#
# Velocity S-wave (km/s) = 2.86085 3.32698 3.10268
# Velocity P-wave (km/s) = 5.58212 6.01972 5.80504
#
# Compressibility (1/GPa) = 0.02220802
#
# Stress axis : x y z
#
# Youngs Moduli (GPa) = 87.55780 63.96628 118.77308
#
# Poissons Ratio (x) = 0.18573 0.19877
# Poissons Ratio (y) = 0.25423 0.24416
# Poissons Ratio (z) = 0.14653 0.13149
#
# Static dielectric constant tensor:
#      x y z
#    x 1.855240 0.000000 0.000000 
#    y 0.000000 1.815370 0.000000 
#    z 0.000000 0.000000 1.841640 
# 
# From -- ./inp_files/51737.got.cif
#   From: 2010.05.17/outbox.cif.g08.bks.cpg/sg72_26_cif.got.tgz:51737.got - 2010.06.03 17:03:01.
