data_PCOD9528319
_publ_section_title
;
Structure prediction by ZEFSAII (Michael W. Deem and Ramdas Pophale) SiO2 
 PCOD9528319
Probable space group: I B A M
;
_chemical_formula_sum "Si O2"
_cell_formula_units_Z 72
_cell_length_a 5.474491
_cell_length_b 19.509043
_cell_length_c 29.398639
_cell_angle_alpha 90.000000
_cell_angle_beta 90.000000
_cell_angle_gamma 90.000000
_cell_volume 3139.835804
_symmetry_space_group_name_H-M "I B A M"
_symmetry_group_IT_number 72
_symmetry_cell_setting 'orthorhombic'
loop_
_space_group_symop_operation_xyz
x,y,z
-x,-y,z
x,-y,1/2-z
-x,y,1/2-z
-x,-y,-z
x,y,-z
-x,y,1/2+z
x,-y,1/2+z
1/2+x,1/2+y,1/2+z
1/2-x,1/2-y,1/2+z
1/2+x,1/2-y,-z
1/2-x,1/2+y,-z
1/2-x,1/2-y,1/2-z
1/2+x,1/2+y,1/2-z
1/2-x,1/2+y,z
1/2+x,1/2-y,z
loop_
_atom_site_type_symbol
_atom_site_label
_atom_site_fract_x
_atom_site_fract_y
_atom_site_fract_z
Si Si1 0.552815 0.776232 0.447303
Si Si2 0.651509 0.589283 0.050366
Si Si3 0.000000 0.500000 0.401323
Si Si4 0.992568 0.788975 0.804813
Si Si5 0.880850 0.923756 0.140737
O O1 0.527477 0.750803 0.500000
O O2 0.289844 0.761057 0.426731
O O3 0.632390 0.854686 0.449210
O O4 0.781517 0.519565 0.065270
O O5 0.479179 0.604338 0.092470
O O6 0.544036 0.588172 0.000000
O O7 0.903952 0.559858 0.368365
O O8 0.255895 0.757025 0.818714
O O9 0.000000 0.791183 0.750000
O O10 0.946842 0.865580 0.823565
O O11 0.000000 0.000000 0.150048
#
# Coordination Sequence:
#
# PCOD9528319 Si02
#       5
#    16  16   8  16  16
#     4   9  19  34  52  77 109 147 201 266 329 386
#     4  10  22  38  59  86 125 178 234 287 335 393
#     4  10  23  40  58  91 126 182 232 285 337 404
#     4  10  24  47  78 110 141 177 225 283 354 429
#     4  10  24  42  66  97 140 182 233 285 350 413
#
# _framework density 22.931134
#
# number of rings (size 3 to 8) (size 9 to 14) (size 15 to 20)
#    0.000    2.222    0.000    0.333    9.333    7.111 
#    0.000    0.000    0.000    0.000    0.000    0.000 
#    0.000    0.000    0.000    0.000    0.000    0.000 
#
# Total GULP energy -200936.324230 kJ/mol
# GULP energy per Si atom -5581.564562 kJ/mol
# Density = 2.287894 g / cm^3
# Si number density = 22.931134 Si / 1000 Ang^3
#
#
#
# Elastic Constant Matrix: (Units=GPa)
#
#
# Indices 1 2 3 4 5 6 
#
# 1 111.3934 38.7272 33.2235 0.0000 0.0000 0.0000
# 2 38.7272 122.3597 34.5377 0.0000 0.0000 0.0000
# 3 33.2235 34.5377 79.8851 0.0000 0.0000 0.0000
# 4 0.0000 0.0000 0.0000 35.2521 0.0000 0.0000
# 5 0.0000 0.0000 0.0000 0.0000 15.0905 0.0000
# 6 0.0000 0.0000 0.0000 0.0000 0.0000 51.1361
#
#
#
# Elastic Compliance Matrix: (Units=1/GPa)
#
#
# Indices 1 2 3 4 5 6 
#
# 1 0.010864 -0.002464 -0.003453 0.000000 0.000000 0.000000
# 2 -0.002464 0.009867 -0.003241 0.000000 0.000000 0.000000
# 3 -0.003453 -0.003241 0.015355 0.000000 0.000000 0.000000
# 4 0.000000 0.000000 0.000000 0.028367 0.000000 0.000000
# 5 0.000000 0.000000 0.000000 0.000000 0.066267 0.000000
# 6 0.000000 0.000000 0.000000 0.000000 0.000000 0.019556
#
#
# Mechanical properties :
#
#
# Convention : Reuss Voigt Hill
#
# Bulk Modulus (GPa) = 56.27386 58.51278 57.39332
# Shear Modulus (GPa) = 28.65072 34.10571 31.37822
#
# Velocity S-wave (km/s) = 3.53855 3.86075 3.70316
# Velocity P-wave (km/s) = 6.42564 6.74136 6.58539
#
# Compressibility (1/GPa) = 0.01777024
#
# Stress axis : x y z
#
# Youngs Moduli (GPa) = 92.05073 101.34440 65.12362
#
# Poissons Ratio (x) = 0.24969 0.22486
# Poissons Ratio (y) = 0.22679 0.21109
# Poissons Ratio (z) = 0.31784 0.32850
#
# Static dielectric constant tensor:
#      x y z
#    x 1.946470 0.000000 0.000000 
#    y 0.000000 1.927800 0.000000 
#    z 0.000000 0.000000 1.821400 
# 
# From -- ./inp_files/50250.got.cif
#   From: 2010.05.17/outbox.cif.g08.bks.cpg/sg72_26_cif.got.tgz:50250.got - 2010.06.03 17:03:01.
