data_PCOD9528507
_publ_section_title
;
Structure prediction by ZEFSAII (Michael W. Deem and Ramdas Pophale) SiO2 
 PCOD9528507
Probable space group: I B A M
;
_chemical_formula_sum "Si O2"
_cell_formula_units_Z 96
_cell_length_a 20.711992
_cell_length_b 13.834030
_cell_length_c 14.776988
_cell_angle_alpha 90.000000
_cell_angle_beta 90.000000
_cell_angle_gamma 90.000000
_cell_volume 4234.055081
_symmetry_space_group_name_H-M "I B A M"
_symmetry_group_IT_number 72
_symmetry_cell_setting 'orthorhombic'
loop_
_space_group_symop_operation_xyz
x,y,z
-x,-y,z
x,-y,1/2-z
-x,y,1/2-z
-x,-y,-z
x,y,-z
-x,y,1/2+z
x,-y,1/2+z
1/2+x,1/2+y,1/2+z
1/2-x,1/2-y,1/2+z
1/2+x,1/2-y,-z
1/2-x,1/2+y,-z
1/2-x,1/2-y,1/2-z
1/2+x,1/2+y,1/2-z
1/2-x,1/2+y,z
1/2+x,1/2-y,z
loop_
_atom_site_type_symbol
_atom_site_label
_atom_site_fract_x
_atom_site_fract_y
_atom_site_fract_z
Si Si1 0.847983 0.741397 0.392804
Si Si2 0.534863 0.380186 0.348246
Si Si3 0.128083 0.397601 0.235111
Si Si4 0.087223 0.766638 0.398845
Si Si5 0.635650 0.529683 0.645166
Si Si6 0.744851 0.901829 0.399663
O O1 0.860291 0.727315 0.500000
O O2 0.902029 0.811936 0.349667
O O3 0.851957 0.647236 0.331389
O O4 0.780610 0.798987 0.385069
O O5 0.500000 0.392733 0.250000
O O6 0.482331 0.317830 0.400567
O O7 0.567940 0.478898 0.385046
O O8 0.093746 0.500000 0.250000
O O9 0.090619 0.318316 0.174569
O O10 0.192521 0.417407 0.176869
O O11 0.103017 0.733608 0.500000
O O12 0.133267 0.856431 0.371016
O O13 0.638268 0.500000 0.750000
O O14 0.697644 0.480038 0.602442
O O15 0.716307 0.904450 0.500000
#
# Coordination Sequence:
#
# PCOD9528507 Si02
#       6
#    16  16  16  16  16  16
#     4  10  22  42  69  97 130 173 219 274 341 408
#     4  11  20  40  68 103 142 171 207 259 332 422
#     4  12  26  45  65  88 128 180 237 291 333 381
#     4  12  25  41  67 102 138 178 224 274 336 406
#     4  11  21  37  66 102 144 179 208 258 337 411
#     4  10  22  41  65  97 135 172 220 273 336 409
#
# _framework density 22.673299
#
# number of rings (size 3 to 8) (size 9 to 14) (size 15 to 20)
#    0.000    1.000    3.333    4.000    0.000    5.333 
#    0.000    3.333    0.000    2.000    0.000    0.000 
#    0.000    0.000    0.000    0.000    0.000    0.000 
#
# Total GULP energy -268344.323046 kJ/mol
# GULP energy per Si atom -5590.506730 kJ/mol
# Density = 2.262169 g / cm^3
# Si number density = 22.673299 Si / 1000 Ang^3
#
#
#
# Elastic Constant Matrix: (Units=GPa)
#
#
# Indices 1 2 3 4 5 6 
#
# 1 65.6510 13.9572 15.6602 0.0000 0.0000 0.0000
# 2 13.9572 148.0364 49.1156 0.0000 0.0000 0.0000
# 3 15.6602 49.1156 135.0832 0.0000 0.0000 0.0000
# 4 0.0000 0.0000 0.0000 5.5767 0.0000 0.0000
# 5 0.0000 0.0000 0.0000 0.0000 -128.3208 0.0000
# 6 0.0000 0.0000 0.0000 0.0000 0.0000 35.1843
#
#
#
# Elastic Compliance Matrix: (Units=1/GPa)
#
#
# Indices 1 2 3 4 5 6 
#
# 1 0.015795 -0.001003 -0.001467 0.000000 0.000000 0.000000
# 2 -0.001003 0.007745 -0.002700 0.000000 0.000000 0.000000
# 3 -0.001467 -0.002700 0.008555 0.000000 0.000000 0.000000
# 4 0.000000 0.000000 0.000000 0.179316 0.000000 0.000000
# 5 0.000000 0.000000 0.000000 0.000000 -0.007793 0.000000
# 6 0.000000 0.000000 0.000000 0.000000 0.000000 0.028422
#
#
# Mechanical properties :
#
#
# Convention : Reuss Voigt Hill
#
# Bulk Modulus (GPa) = 45.96280 56.24850 51.10565
# Shear Modulus (GPa) = 20.02962 0.49058 10.26010
#
# Velocity S-wave (km/s) = 2.97543 0.46566 2.12956
# Velocity P-wave (km/s) = 5.66745 5.01510 5.35123
#
# Compressibility (1/GPa) = 0.02175673
#
# Stress axis : x y z
#
# Youngs Moduli (GPa) = 63.31101 129.10858 116.89682
#
# Poissons Ratio (x) = 0.12945 0.17144
# Poissons Ratio (y) = 0.06348 0.31562
# Poissons Ratio (z) = 0.09285 0.34859
#
# Static dielectric constant tensor:
#      x y z
#    x 1.858040 0.000000 0.000000 
#    y 0.000000 1.902990 0.000000 
#    z 0.000000 0.000000 1.861330 
# 
# From -- ./inp_files/24108.got.cif
#   From: 2010.05.17/outbox.cif.g08.bks.cpg/sg72_13_cif.got.tgz:24108.got - 2010.06.03 17:03:01.
