data_PCOD9528214
_publ_section_title
;
Structure prediction by ZEFSAII (Michael W. Deem and Ramdas Pophale) SiO2 
 PCOD9528214
Probable space group: I B A M
;
_chemical_formula_sum "Si O2"
_cell_formula_units_Z 64
_cell_length_a 18.158177
_cell_length_b 9.055675
_cell_length_c 18.489049
_cell_angle_alpha 90.000000
_cell_angle_beta 90.000000
_cell_angle_gamma 90.000000
_cell_volume 3040.238443
_symmetry_space_group_name_H-M "I B A M"
_symmetry_group_IT_number 72
_symmetry_cell_setting 'orthorhombic'
loop_
_space_group_symop_operation_xyz
x,y,z
-x,-y,z
x,-y,1/2-z
-x,y,1/2-z
-x,-y,-z
x,y,-z
-x,y,1/2+z
x,-y,1/2+z
1/2+x,1/2+y,1/2+z
1/2-x,1/2-y,1/2+z
1/2+x,1/2-y,-z
1/2-x,1/2+y,-z
1/2-x,1/2-y,1/2-z
1/2+x,1/2+y,1/2-z
1/2-x,1/2+y,z
1/2+x,1/2-y,z
loop_
_atom_site_type_symbol
_atom_site_label
_atom_site_fract_x
_atom_site_fract_y
_atom_site_fract_z
Si Si1 0.480685 0.831883 0.418900
Si Si2 0.078917 0.919299 0.583949
Si Si3 0.157642 0.594010 0.177424
Si Si4 0.291545 0.423984 0.828521
O O1 0.460841 0.771671 0.500000
O O2 0.552958 0.743967 0.392110
O O3 0.413367 0.843687 0.364078
O O4 0.500000 0.000000 0.428418
O O5 0.100991 0.912965 0.500000
O O6 0.140734 0.005505 0.627554
O O7 0.000000 0.000000 0.590839
O O8 0.137203 0.500000 0.250000
O O9 0.213908 0.480239 0.138101
O O10 0.202304 0.748936 0.183058
O O11 0.293589 0.500000 0.750000
#
# Coordination Sequence:
#
# PCOD9528214 Si02
#       4
#    16  16  16  16
#     4  10  23  42  65  93 128 165 208 263 319 379
#     4  10  21  42  66  92 126 163 207 262 319 381
#     4  11  24  42  63  91 127 167 210 264 316 377
#     4  11  24  41  64  90 128 167 211 261 316 378
#
# _framework density 21.050981
#
# number of rings (size 3 to 8) (size 9 to 14) (size 15 to 20)
#    0.000    1.500    2.500    3.000    7.000    2.000 
#    0.000    0.000    0.000    0.000    0.000    0.000 
#    0.000    0.000    0.000    0.000    0.000    0.000 
#
# Total GULP energy -178182.232936 kJ/mol
# GULP energy per Si atom -5568.194779 kJ/mol
# Density = 2.100307 g / cm^3
# Si number density = 21.050981 Si / 1000 Ang^3
#
#
#
# Elastic Constant Matrix: (Units=GPa)
#
#
# Indices 1 2 3 4 5 6 
#
# 1 91.3275 20.4215 45.4841 0.0000 0.0000 0.0000
# 2 20.4215 141.1471 22.3303 0.0000 0.0000 0.0000
# 3 45.4841 22.3303 51.6396 0.0000 0.0000 0.0000
# 4 0.0000 0.0000 0.0000 30.4680 0.0000 0.0000
# 5 0.0000 0.0000 0.0000 0.0000 49.8344 0.0000
# 6 0.0000 0.0000 0.0000 0.0000 0.0000 46.2978
#
#
#
# Elastic Compliance Matrix: (Units=1/GPa)
#
#
# Indices 1 2 3 4 5 6 
#
# 1 0.019508 -0.000112 -0.017134 0.000000 0.000000 0.000000
# 2 -0.000112 0.007606 -0.003190 0.000000 0.000000 0.000000
# 3 -0.017134 -0.003190 0.035837 0.000000 0.000000 0.000000
# 4 0.000000 0.000000 0.000000 0.032821 0.000000 0.000000
# 5 0.000000 0.000000 0.000000 0.000000 0.020066 0.000000
# 6 0.000000 0.000000 0.000000 0.000000 0.000000 0.021599
#
#
# Mechanical properties :
#
#
# Convention : Reuss Voigt Hill
#
# Bulk Modulus (GPa) = 45.29566 51.17622 48.23594
# Shear Modulus (GPa) = 26.92958 38.37861 32.65410
#
# Velocity S-wave (km/s) = 3.58055 4.27444 3.94279
# Velocity P-wave (km/s) = 6.21752 6.98029 6.60992
#
# Compressibility (1/GPa) = 0.02207717
#
# Stress axis : x y z
#
# Youngs Moduli (GPa) = 51.26096 131.47989 27.90451
#
# Poissons Ratio (x) = 0.01469 0.47812
# Poissons Ratio (y) = 0.00573 0.08903
# Poissons Ratio (z) = 0.87832 0.41949
#
# Static dielectric constant tensor:
#      x y z
#    x 1.879250 0.000000 0.000000 
#    y 0.000000 1.088350 0.000000 
#    z 0.000000 0.000000 1.843510 
# 
# From -- ./inp_files/27670.got.cif
#   From: 2010.05.17/outbox.cif.g08.bks.cpg/sg72_14_cif.got.tgz:27670.got - 2010.06.03 17:03:01.
