data_PCOD9528301
_publ_section_title
;
Structure prediction by ZEFSAII (Michael W. Deem and Ramdas Pophale) SiO2 
 PCOD9528301
Probable space group: I B A M
;
_chemical_formula_sum "Si O2"
_cell_formula_units_Z 64
_cell_length_a 17.755736
_cell_length_b 5.308949
_cell_length_c 30.171275
_cell_angle_alpha 90.000000
_cell_angle_beta 90.000000
_cell_angle_gamma 90.000000
_cell_volume 2844.074024
_symmetry_space_group_name_H-M "I B A M"
_symmetry_group_IT_number 72
_symmetry_cell_setting 'orthorhombic'
loop_
_space_group_symop_operation_xyz
x,y,z
-x,-y,z
x,-y,1/2-z
-x,y,1/2-z
-x,-y,-z
x,y,-z
-x,y,1/2+z
x,-y,1/2+z
1/2+x,1/2+y,1/2+z
1/2-x,1/2-y,1/2+z
1/2+x,1/2-y,-z
1/2-x,1/2+y,-z
1/2-x,1/2-y,1/2-z
1/2+x,1/2+y,1/2-z
1/2-x,1/2+y,z
1/2+x,1/2-y,z
loop_
_atom_site_type_symbol
_atom_site_label
_atom_site_fract_x
_atom_site_fract_y
_atom_site_fract_z
Si Si1 0.589051 0.946636 0.951529
Si Si2 0.698327 0.273428 0.906121
Si Si3 0.584910 0.591394 0.132417
Si Si4 0.086600 0.252234 0.269015
O O1 0.603439 0.763070 0.910103
O O2 0.500000 0.000000 0.950854
O O3 0.637372 0.201326 0.944077
O O4 0.608810 0.840112 0.000000
O O5 0.751087 0.520970 0.906991
O O6 0.641328 0.352528 0.866510
O O7 0.500000 0.500000 0.127003
O O8 0.587462 0.742014 0.178188
O O9 0.123643 0.500000 0.250000
O O10 0.000000 0.251519 0.250000
O O11 0.122168 0.000000 0.250000
#
# Coordination Sequence:
#
# PCOD9528301 Si02
#       4
#    16  16  16  16
#     4  11  26  45  73 111 148 193 257 323 383 450
#     4  12  27  48  71 108 151 203 246 303 389 469
#     4  12  24  44  80 110 150 199 257 331 381 451
#     4  10  22  37  66 113 142 182 252 319 377 443
#
# _framework density 22.502931
#
# number of rings (size 3 to 8) (size 9 to 14) (size 15 to 20)
#    0.000    0.750    7.500    0.000    7.000    2.500 
#    0.000    0.000    0.000    4.500    0.000    0.000 
#    0.000    0.000    0.000    0.000    0.000    0.000 
#
# Total GULP energy -178418.599895 kJ/mol
# GULP energy per Si atom -5575.581247 kJ/mol
# Density = 2.245171 g / cm^3
# Si number density = 22.502931 Si / 1000 Ang^3
#
#
#
# Elastic Constant Matrix: (Units=GPa)
#
#
# Indices 1 2 3 4 5 6 
#
# 1 128.5278 54.3178 24.0307 0.0000 0.0000 0.0000
# 2 54.3178 187.4169 79.5044 0.0000 0.0000 0.0000
# 3 24.0307 79.5044 190.1051 0.0000 0.0000 0.0000
# 4 0.0000 0.0000 0.0000 42.3617 0.0000 0.0000
# 5 0.0000 0.0000 0.0000 0.0000 -15.6416 0.0000
# 6 0.0000 0.0000 0.0000 0.0000 0.0000 18.0938
#
#
#
# Elastic Compliance Matrix: (Units=1/GPa)
#
#
# Indices 1 2 3 4 5 6 
#
# 1 0.008867 -0.002546 -0.000056 0.000000 0.000000 0.000000
# 2 -0.002546 0.007218 -0.002697 0.000000 0.000000 0.000000
# 3 -0.000056 -0.002697 0.006395 0.000000 0.000000 0.000000
# 4 0.000000 0.000000 0.000000 0.023606 0.000000 0.000000
# 5 0.000000 0.000000 0.000000 0.000000 -0.063932 0.000000
# 6 0.000000 0.000000 0.000000 0.000000 0.000000 0.055268
#
#
# Mechanical properties :
#
#
# Convention : Reuss Voigt Hill
#
# Bulk Modulus (GPa) = 84.16039 91.30617 87.73328
# Shear Modulus (GPa) = 96.19147 32.17589 64.18368
#
# Velocity S-wave (km/s) = 6.54515 3.78544 5.34643
# Velocity P-wave (km/s) = 9.72623 7.73107 8.78547
#
# Compressibility (1/GPa) = 0.01188207
#
# Stress axis : x y z
#
# Youngs Moduli (GPa) = 112.77898 138.55119 156.36975
#
# Poissons Ratio (x) = 0.35276 0.00876
# Poissons Ratio (y) = 0.28714 0.42167
# Poissons Ratio (z) = 0.00632 0.37362
#
# Static dielectric constant tensor:
#      x y z
#    x 1.858350 0.000000 0.000000 
#    y 0.000000 1.860560 0.000000 
#    z 0.000000 0.000000 1.893760 
# 
# From -- ./inp_files/51958.got.cif
#   From: 2010.05.17/outbox.cif.g08.bks.cpg/sg72_26_cif.got.tgz:51958.got - 2010.06.03 17:03:01.
