data_PCOD9528147
_publ_section_title
;
Structure prediction by ZEFSAII (Michael W. Deem and Ramdas Pophale) SiO2 
 PCOD9528147
Probable space group: I B A M
;
_chemical_formula_sum "Si O2"
_cell_formula_units_Z 68
_cell_length_a 19.555767
_cell_length_b 12.463155
_cell_length_c 14.108544
_cell_angle_alpha 90.000000
_cell_angle_beta 90.000000
_cell_angle_gamma 90.000000
_cell_volume 3438.626829
_symmetry_space_group_name_H-M "I B A M"
_symmetry_group_IT_number 72
_symmetry_cell_setting 'orthorhombic'
loop_
_space_group_symop_operation_xyz
x,y,z
-x,-y,z
x,-y,1/2-z
-x,y,1/2-z
-x,-y,-z
x,y,-z
-x,y,1/2+z
x,-y,1/2+z
1/2+x,1/2+y,1/2+z
1/2-x,1/2-y,1/2+z
1/2+x,1/2-y,-z
1/2-x,1/2+y,-z
1/2-x,1/2-y,1/2-z
1/2+x,1/2+y,1/2-z
1/2-x,1/2+y,z
1/2+x,1/2-y,z
loop_
_atom_site_type_symbol
_atom_site_label
_atom_site_fract_x
_atom_site_fract_y
_atom_site_fract_z
Si Si1 0.058055 0.167394 0.395025
Si Si2 0.470351 0.880733 0.112910
Si Si3 0.211721 0.231777 0.604996
Si Si4 0.672424 0.121760 0.217509
Si Si5 0.000000 0.000000 0.250000
O O1 0.031028 0.138773 0.500000
O O2 0.139416 0.172499 0.400310
O O3 0.025503 0.285031 0.373262
O O4 0.040679 0.079767 0.317787
O O5 0.403243 0.856950 0.175410
O O6 0.500000 0.000000 0.134710
O O7 0.453238 0.881955 0.000000
O O8 0.225251 0.278505 0.500000
O O9 0.273404 0.155612 0.637002
O O10 0.196772 0.314941 0.689027
O O11 0.674605 0.000000 0.250000
#
# Coordination Sequence:
#
# PCOD9528147 Si02
#       5
#    16  16  16  16   4
#     4  10  22  39  61  89 122 163 208 250 307 368
#     4  10  21  40  68 100 129 158 201 263 326 379
#     4  10  23  42  59  85 125 164 204 256 309 370
#     4  11  23  38  64  94 123 158 209 252 316 375
#     4  12  22  36  62  82 124 164 212 258 292 346
#
# _framework density 19.775335999999999
#
# number of rings (size 3 to 8) (size 9 to 14) (size 15 to 20)
#    0.000    1.647    0.000    3.882    1.647    6.118 
#    0.000    0.000    0.000    0.706    0.000    0.000 
#    0.000    0.000    0.000    0.000    0.000    0.000 
#
# Total GULP energy -189735.342420 kJ/mol
# GULP energy per Si atom -5580.451248 kJ/mol
# Density = 1.973033 g / cm^3
# Si number density = 19.775336 Si / 1000 Ang^3
#
#
#
# Elastic Constant Matrix: (Units=GPa)
#
#
# Indices 1 2 3 4 5 6 
#
# 1 113.3587 23.4193 52.6455 0.0000 0.0000 0.0000
# 2 23.4193 60.6082 44.6656 0.0000 0.0000 0.0000
# 3 52.6455 44.6656 143.6738 0.0000 0.0000 0.0000
# 4 0.0000 0.0000 0.0000 1.6921 0.0000 0.0000
# 5 0.0000 0.0000 0.0000 0.0000 36.7141 0.0000
# 6 0.0000 0.0000 0.0000 0.0000 0.0000 24.9138
#
#
#
# Elastic Compliance Matrix: (Units=1/GPa)
#
#
# Indices 1 2 3 4 5 6 
#
# 1 0.010752 -0.001623 -0.003435 0.000000 0.000000 0.000000
# 2 -0.001623 0.021648 -0.006135 0.000000 0.000000 0.000000
# 3 -0.003435 -0.006135 0.010126 0.000000 0.000000 0.000000
# 4 0.000000 0.000000 0.000000 0.590971 0.000000 0.000000
# 5 0.000000 0.000000 0.000000 0.000000 0.027238 0.000000
# 6 0.000000 0.000000 0.000000 0.000000 0.000000 0.040138
#
#
# Mechanical properties :
#
#
# Convention : Reuss Voigt Hill
#
# Bulk Modulus (GPa) = 49.65397 62.12240 55.88818
# Shear Modulus (GPa) = 6.84956 25.79134 16.32045
#
# Velocity S-wave (km/s) = 1.86312 3.61531 2.87591
# Velocity P-wave (km/s) = 5.45819 6.99354 6.27301
#
# Compressibility (1/GPa) = 0.02013938
#
# Stress axis : x y z
#
# Youngs Moduli (GPa) = 93.00349 46.19364 98.75241
#
# Poissons Ratio (x) = 0.07497 0.33925
# Poissons Ratio (y) = 0.15095 0.60587
# Poissons Ratio (z) = 0.31950 0.28341
#
# Static dielectric constant tensor:
#      x y z
#    x 1.672540 0.000000 0.000000 
#    y 0.000000 1.669960 0.000000 
#    z 0.000000 0.000000 1.782410 
# 
# From -- ./inp_files/23909.got.cif
#   From: 2010.05.17/outbox.cif.g08.bks.cpg/sg72_12_cif.got.tgz:23909.got - 2010.06.03 17:03:01.
