data_PCOD9528919
_publ_section_title
;
Structure prediction by ZEFSAII (Michael W. Deem and Ramdas Pophale) SiO2 
 PCOD9528919
Probable space group: I B A M
;
_chemical_formula_sum "Si O2"
_cell_formula_units_Z 52
_cell_length_a 8.649132
_cell_length_b 11.159526
_cell_length_c 24.552332
_cell_angle_alpha 90.000000
_cell_angle_beta 90.000000
_cell_angle_gamma 90.000000
_cell_volume 2369.796325
_symmetry_space_group_name_H-M "I B A M"
_symmetry_group_IT_number 72
_symmetry_cell_setting 'orthorhombic'
loop_
_space_group_symop_operation_xyz
x,y,z
-x,-y,z
x,-y,1/2-z
-x,y,1/2-z
-x,-y,-z
x,y,-z
-x,y,1/2+z
x,-y,1/2+z
1/2+x,1/2+y,1/2+z
1/2-x,1/2-y,1/2+z
1/2+x,1/2-y,-z
1/2-x,1/2+y,-z
1/2-x,1/2-y,1/2-z
1/2+x,1/2+y,1/2-z
1/2-x,1/2+y,z
1/2+x,1/2-y,z
loop_
_atom_site_type_symbol
_atom_site_label
_atom_site_fract_x
_atom_site_fract_y
_atom_site_fract_z
Si Si1 0.033948 0.711381 0.657940
Si Si2 0.000000 0.000000 0.000000
Si Si3 0.259467 0.590968 0.200320
Si Si4 0.815643 0.089832 0.105316
O O1 0.917798 0.625124 0.689738
O O2 0.925894 0.803488 0.625613
O O3 0.141031 0.786823 0.699717
O O4 0.143716 0.643495 0.614842
O O5 0.876666 0.044272 0.952122
O O6 0.281431 0.500000 0.250000
O O7 0.318321 0.519705 0.147432
#
# Coordination Sequence:
#
# PCOD9528919 Si02
#       4
#    16   4  16  16
#     4  10  24  45  71 108 139 196 235 289 368 439
#     4  12  24  48  72 100 140 194 236 322 342 416
#     4  11  24  45  73 107 152 188 238 298 365 443
#     4  11  24  45  71 102 145 182 248 293 360 422
#
# _framework density 21.942813999999998
#
# number of rings (size 3 to 8) (size 9 to 14) (size 15 to 20)
#    0.000    1.231    3.077    0.923    0.000   13.538 
#    0.000    7.692    0.000    0.000    0.000    0.000 
#    0.000    0.000    0.000    0.000    0.000    0.000 
#
# Total GULP energy -144986.737443 kJ/mol
# GULP energy per Si atom -5576.412979 kJ/mol
# Density = 2.189287 g / cm^3
# Si number density = 21.942814 Si / 1000 Ang^3
#
#
#
# Elastic Constant Matrix: (Units=GPa)
#
#
# Indices 1 2 3 4 5 6 
#
# 1 127.0728 32.3623 65.8959 0.0000 0.0000 0.0000
# 2 32.3623 65.9178 58.1575 0.0000 0.0000 0.0000
# 3 65.8959 58.1575 209.9553 0.0000 0.0000 0.0000
# 4 0.0000 0.0000 0.0000 8.8387 0.0000 0.0000
# 5 0.0000 0.0000 0.0000 0.0000 37.8219 0.0000
# 6 0.0000 0.0000 0.0000 0.0000 0.0000 66.5233
#
#
#
# Elastic Compliance Matrix: (Units=1/GPa)
#
#
# Indices 1 2 3 4 5 6 
#
# 1 0.009766 -0.002766 -0.002299 0.000000 0.000000 0.000000
# 2 -0.002766 0.020861 -0.004910 0.000000 0.000000 0.000000
# 3 -0.002299 -0.004910 0.006845 0.000000 0.000000 0.000000
# 4 0.000000 0.000000 0.000000 0.113139 0.000000 0.000000
# 5 0.000000 0.000000 0.000000 0.000000 0.026440 0.000000
# 6 0.000000 0.000000 0.000000 0.000000 0.000000 0.015032
#
#
# Mechanical properties :
#
#
# Convention : Reuss Voigt Hill
#
# Bulk Modulus (GPa) = 57.07610 79.53084 68.30347
# Shear Modulus (GPa) = 22.94906 39.07212 31.01059
#
# Velocity S-wave (km/s) = 3.23748 4.22433 3.76339
# Velocity P-wave (km/s) = 6.32794 7.75349 7.07670
#
# Compressibility (1/GPa) = 0.01752047
#
# Stress axis : x y z
#
# Youngs Moduli (GPa) = 102.39424 47.93706 146.10192
#
# Poissons Ratio (x) = 0.13262 0.33587
# Poissons Ratio (y) = 0.28327 0.71738
# Poissons Ratio (z) = 0.23539 0.23538
#
# Static dielectric constant tensor:
#      x y z
#    x 1.871810 0.000000 0.000000 
#    y 0.000000 1.885840 0.000000 
#    z 0.000000 0.000000 1.742220 
# 
# From -- ./inp_files/35163.got.cif
#   From: 2010.05.17/outbox.cif.g08.bks.cpg/sg72_18_cif.got.tgz:35163.got - 2010.06.03 17:03:01.
