data_PCOD9528572
_publ_section_title
;
Structure prediction by ZEFSAII (Michael W. Deem and Ramdas Pophale) SiO2 
 PCOD9528572
Probable space group: I B A M
;
_chemical_formula_sum "Si O2"
_cell_formula_units_Z 72
_cell_length_a 10.018682
_cell_length_b 16.752610
_cell_length_c 20.850604
_cell_angle_alpha 90.000000
_cell_angle_beta 90.000000
_cell_angle_gamma 90.000000
_cell_volume 3499.546031
_symmetry_space_group_name_H-M "I B A M"
_symmetry_group_IT_number 72
_symmetry_cell_setting 'orthorhombic'
loop_
_space_group_symop_operation_xyz
x,y,z
-x,-y,z
x,-y,1/2-z
-x,y,1/2-z
-x,-y,-z
x,y,-z
-x,y,1/2+z
x,-y,1/2+z
1/2+x,1/2+y,1/2+z
1/2-x,1/2-y,1/2+z
1/2+x,1/2-y,-z
1/2-x,1/2+y,-z
1/2-x,1/2-y,1/2-z
1/2+x,1/2+y,1/2-z
1/2-x,1/2+y,z
1/2+x,1/2-y,z
loop_
_atom_site_type_symbol
_atom_site_label
_atom_site_fract_x
_atom_site_fract_y
_atom_site_fract_z
Si Si1 0.380919 0.274797 0.155340
Si Si2 0.235578 0.067031 0.300079
Si Si3 0.659212 0.514679 0.428285
Si Si4 0.500000 0.855857 0.750000
Si Si5 0.355489 0.297672 0.425429
O O1 0.352561 0.352673 0.198440
O O2 0.427330 0.201569 0.199078
O O3 0.497691 0.291229 0.104547
O O4 0.246387 0.252803 0.117437
O O5 0.385055 0.091690 0.281845
O O6 0.187612 0.000000 0.250000
O O7 0.229306 0.031508 0.371265
O O8 0.500000 0.500000 0.422200
O O9 0.698188 0.488279 0.500000
O O10 0.684307 0.609065 0.422400
O O11 0.354097 0.273328 0.500000
#
# Coordination Sequence:
#
# PCOD9528572 Si02
#       5
#    16  16  16   8  16
#     4  12  25  45  70 103 138 185 238 290 351 418
#     4  12  26  43  71 103 142 183 233 287 356 412
#     4  10  22  42  68 102 138 177 231 292 349 415
#     4  12  27  48  65 100 144 188 234 294 345 426
#     4  11  24  45  72 103 139 182 235 291 353 423
#
# _framework density 20.574096000000001
#
# number of rings (size 3 to 8) (size 9 to 14) (size 15 to 20)
#    0.000    0.667    4.444    3.000    3.111    1.333 
#    0.000    0.000    0.000    5.333    0.000    0.000 
#    0.000    0.000    0.000    0.000    0.000    0.000 
#
# Total GULP energy -201545.282194 kJ/mol
# GULP energy per Si atom -5598.480061 kJ/mol
# Density = 2.052727 g / cm^3
# Si number density = 20.574096 Si / 1000 Ang^3
#
#
#
# Elastic Constant Matrix: (Units=GPa)
#
#
# Indices 1 2 3 4 5 6 
#
# 1 81.7137 27.3465 37.6570 0.0000 0.0000 0.0000
# 2 27.3465 87.6163 50.9234 0.0000 0.0000 0.0000
# 3 37.6570 50.9234 120.6218 0.0000 0.0000 0.0000
# 4 0.0000 0.0000 0.0000 32.0725 0.0000 0.0000
# 5 0.0000 0.0000 0.0000 0.0000 -583.9934 0.0000
# 6 0.0000 0.0000 0.0000 0.0000 0.0000 -35.1930
#
#
#
# Elastic Compliance Matrix: (Units=1/GPa)
#
#
# Indices 1 2 3 4 5 6 
#
# 1 0.014711 -0.002547 -0.003517 0.000000 0.000000 0.000000
# 2 -0.002547 0.015566 -0.005776 0.000000 0.000000 0.000000
# 3 -0.003517 -0.005776 0.011827 0.000000 0.000000 0.000000
# 4 0.000000 0.000000 0.000000 0.031179 0.000000 0.000000
# 5 0.000000 0.000000 0.000000 0.000000 -0.001712 0.000000
# 6 0.000000 0.000000 0.000000 0.000000 0.000000 -0.028415
#
#
# Mechanical properties :
#
#
# Convention : Reuss Voigt Hill
#
# Bulk Modulus (GPa) = 54.28204 57.97839 56.13021
# Shear Modulus (GPa) = 68.51334 -105.82111 -18.65389
#
# Velocity S-wave (km/s) = 5.77694 -7.17954 -3.01436
# Velocity P-wave (km/s) = 8.42249 6.36288 3.90206
#
# Compressibility (1/GPa) = 0.01842230
#
# Stress axis : x y z
#
# Youngs Moduli (GPa) = 67.97511 64.24416 84.55242
#
# Poissons Ratio (x) = 0.16365 0.29740
# Poissons Ratio (y) = 0.17316 0.48839
# Poissons Ratio (z) = 0.23909 0.37108
#
# Static dielectric constant tensor:
#      x y z
#    x 1.696660 0.000000 0.000000 
#    y 0.000000 1.742810 0.000000 
#    z 0.000000 0.000000 1.716410 
# 
# From -- ./inp_files/42082.got.cif
#   From: 2010.05.17/outbox.cif.g08.bks.cpg/sg72_22_cif.got.tgz:42082.got - 2010.06.03 17:03:01.
