data_PCOD9528386
_publ_section_title
;
Structure prediction by ZEFSAII (Michael W. Deem and Ramdas Pophale) SiO2 
 PCOD9528386
Probable space group: I B A M
;
_chemical_formula_sum "Si O2"
_cell_formula_units_Z 112
_cell_length_a 12.050864
_cell_length_b 14.775595
_cell_length_c 29.383882
_cell_angle_alpha 90.000000
_cell_angle_beta 90.000000
_cell_angle_gamma 90.000000
_cell_volume 5232.055415
_symmetry_space_group_name_H-M "I B A M"
_symmetry_group_IT_number 72
_symmetry_cell_setting 'orthorhombic'
loop_
_space_group_symop_operation_xyz
x,y,z
-x,-y,z
x,-y,1/2-z
-x,y,1/2-z
-x,-y,-z
x,y,-z
-x,y,1/2+z
x,-y,1/2+z
1/2+x,1/2+y,1/2+z
1/2-x,1/2-y,1/2+z
1/2+x,1/2-y,-z
1/2-x,1/2+y,-z
1/2-x,1/2-y,1/2-z
1/2+x,1/2+y,1/2-z
1/2-x,1/2+y,z
1/2+x,1/2-y,z
loop_
_atom_site_type_symbol
_atom_site_label
_atom_site_fract_x
_atom_site_fract_y
_atom_site_fract_z
Si Si1 0.630871 0.024299 0.396837
Si Si2 0.765526 0.295255 0.701066
Si Si3 0.374653 0.965517 0.202434
Si Si4 0.042320 0.104353 0.702515
Si Si5 0.240362 0.195254 0.105035
Si Si6 0.718146 0.624477 0.945934
Si Si7 0.011234 0.107220 0.894993
O O1 0.655517 0.130007 0.405116
O O2 0.500000 0.000000 0.401430
O O3 0.670403 0.005786 0.344735
O O4 0.708921 0.959222 0.426991
O O5 0.750000 0.250000 0.750000
O O6 0.874796 0.356800 0.699597
O O7 0.672290 0.374968 0.698907
O O8 0.756003 0.229076 0.657898
O O9 0.500000 0.000000 0.203196
O O10 0.322648 0.000000 0.250000
O O11 0.000000 0.144788 0.750000
O O12 0.999435 0.147370 0.655929
O O13 0.000000 0.000000 0.703100
O O14 0.231397 0.284712 0.075100
O O15 0.133347 0.136083 0.091644
O O16 0.592110 0.629584 0.926889
O O17 0.717892 0.622480 0.000000
O O18 0.000000 0.000000 0.890470
#
# Coordination Sequence:
#
# PCOD9528386 Si02
#       7
#    16  16  16  16  16  16  16
#     4  11  25  49  76 104 149 193 240 306 373 443
#     4  12  24  42  68 106 147 189 247 299 362 438
#     4  10  22  41  67  98 143 193 236 283 361 437
#     4  10  22  39  68 100 139 190 236 286 358 434
#     4  12  26  46  75 108 145 187 243 306 365 435
#     4  12  28  50  75 108 146 192 248 309 371 439
#     4  11  23  47  75 102 146 188 242 299 362 439
#
# _framework density 21.406500999999999
#
# number of rings (size 3 to 8) (size 9 to 14) (size 15 to 20)
#    0.000    0.857    4.286    1.714    6.000    1.714 
#   12.857    0.000    0.000    0.000    0.000    0.000 
#    0.000    0.000    0.000    0.000    0.000    0.000 
#
# Total GULP energy -312526.680721 kJ/mol
# GULP energy per Si atom -5580.833584 kJ/mol
# Density = 2.135778 g / cm^3
# Si number density = 21.406501 Si / 1000 Ang^3
#
#
#
# Elastic Constant Matrix: (Units=GPa)
#
#
# Indices 1 2 3 4 5 6 
#
# 1 99.2739 40.2190 25.3769 0.0000 0.0000 0.0000
# 2 40.2190 114.1452 30.0316 0.0000 0.0000 0.0000
# 3 25.3769 30.0316 146.2212 0.0000 0.0000 0.0000
# 4 0.0000 0.0000 0.0000 12.5487 0.0000 0.0000
# 5 0.0000 0.0000 0.0000 0.0000 27.3258 0.0000
# 6 0.0000 0.0000 0.0000 0.0000 0.0000 41.9541
#
#
#
# Elastic Compliance Matrix: (Units=1/GPa)
#
#
# Indices 1 2 3 4 5 6 
#
# 1 0.011973 -0.003882 -0.001281 0.000000 0.000000 0.000000
# 2 -0.003882 0.010520 -0.001487 0.000000 0.000000 0.000000
# 3 -0.001281 -0.001487 0.007367 0.000000 0.000000 0.000000
# 4 0.000000 0.000000 0.000000 0.079690 0.000000 0.000000
# 5 0.000000 0.000000 0.000000 0.000000 0.036595 0.000000
# 6 0.000000 0.000000 0.000000 0.000000 0.000000 0.023836
#
#
# Mechanical properties :
#
#
# Convention : Reuss Voigt Hill
#
# Bulk Modulus (GPa) = 60.38387 61.21060 60.79723
# Shear Modulus (GPa) = 26.48315 33.96656 30.22485
#
# Velocity S-wave (km/s) = 3.52114 3.98771 3.76167
# Velocity P-wave (km/s) = 6.69333 7.06109 6.87966
#
# Compressibility (1/GPa) = 0.01656071
#
# Stress axis : x y z
#
# Youngs Moduli (GPa) = 83.52018 95.05958 135.74770
#
# Poissons Ratio (x) = 0.36900 0.17385
# Poissons Ratio (y) = 0.32421 0.20184
# Poissons Ratio (z) = 0.10696 0.14134
#
# Static dielectric constant tensor:
#      x y z
#    x 1.811390 0.000000 0.000000 
#    y 0.000000 0.890470 0.000000 
#    z 0.000000 0.000000 1.788390 
# 
# From -- ./inp_files/51477.got.cif
#   From: 2010.05.17/outbox.cif.g08.bks.cpg/sg72_26_cif.got.tgz:51477.got - 2010.06.03 17:03:01.
