data_PCOD9528242
_publ_section_title
;
Structure prediction by ZEFSAII (Michael W. Deem and Ramdas Pophale) SiO2 
 PCOD9528242
Probable space group: I B A M
;
_chemical_formula_sum "Si O2"
_cell_formula_units_Z 80
_cell_length_a 9.901849
_cell_length_b 16.507060
_cell_length_c 25.789190
_cell_angle_alpha 90.000000
_cell_angle_beta 90.000000
_cell_angle_gamma 90.000000
_cell_volume 4215.253822
_symmetry_space_group_name_H-M "I B A M"
_symmetry_group_IT_number 72
_symmetry_cell_setting 'orthorhombic'
loop_
_space_group_symop_operation_xyz
x,y,z
-x,-y,z
x,-y,1/2-z
-x,y,1/2-z
-x,-y,-z
x,y,-z
-x,y,1/2+z
x,-y,1/2+z
1/2+x,1/2+y,1/2+z
1/2-x,1/2-y,1/2+z
1/2+x,1/2-y,-z
1/2-x,1/2+y,-z
1/2-x,1/2-y,1/2-z
1/2+x,1/2+y,1/2-z
1/2-x,1/2+y,z
1/2+x,1/2-y,z
loop_
_atom_site_type_symbol
_atom_site_label
_atom_site_fract_x
_atom_site_fract_y
_atom_site_fract_z
Si Si1 0.473365 0.689285 0.652573
Si Si2 0.155576 0.493135 0.124400
Si Si3 0.278839 0.164401 0.826142
Si Si4 0.218292 0.916070 0.778343
Si Si5 0.897253 0.075244 0.060423
O O1 0.392473 0.771988 0.659062
O O2 0.630912 0.699763 0.662680
O O3 0.408436 0.626530 0.694164
O O4 0.446202 0.648062 0.597015
O O5 0.206490 0.582019 0.141084
O O6 0.176797 0.438782 0.176170
O O7 0.252483 0.455075 0.081258
O O8 0.000000 0.500000 0.109682
O O9 0.282106 0.140463 0.765591
O O10 0.179668 0.000000 0.750000
O O11 0.893615 0.096505 0.000000
O O12 0.000000 0.000000 0.067650
#
# Coordination Sequence:
#
# PCOD9528242 Si02
#       5
#    16  16  16  16  16
#     4  11  23  39  59  90 123 162 200 255 309 369
#     4  10  22  40  64  89 124 159 207 255 299 359
#     4  11  23  38  59  89 127 163 200 244 309 366
#     4   9  21  37  60  86 122 166 212 247 291 360
#     4  10  21  43  70  89 112 156 210 260 308 359
#
# _framework density 18.978691000000001
#
# number of rings (size 3 to 8) (size 9 to 14) (size 15 to 20)
#    0.000    1.800    2.000    1.200    5.600    6.400 
#    0.000    2.000    0.000    0.000    0.000    0.000 
#    0.000    0.000    0.000    0.000    0.000    0.000 
#
# Total GULP energy -223665.199188 kJ/mol
# GULP energy per Si atom -5591.629980 kJ/mol
# Density = 1.893549 g / cm^3
# Si number density = 18.978691 Si / 1000 Ang^3
#
#
#
# Elastic Constant Matrix: (Units=GPa)
#
#
# Indices 1 2 3 4 5 6 
#
# 1 93.0722 28.6425 15.9360 0.0000 0.0000 0.0000
# 2 28.6425 81.9748 49.2576 0.0000 0.0000 0.0000
# 3 15.9360 49.2576 112.7463 0.0000 0.0000 0.0000
# 4 0.0000 0.0000 0.0000 20.7496 0.0000 0.0000
# 5 0.0000 0.0000 0.0000 0.0000 13.5054 0.0000
# 6 0.0000 0.0000 0.0000 0.0000 0.0000 31.0388
#
#
#
# Elastic Compliance Matrix: (Units=1/GPa)
#
#
# Indices 1 2 3 4 5 6 
#
# 1 0.012042 -0.004318 0.000185 0.000000 0.000000 0.000000
# 2 -0.004318 0.018090 -0.007293 0.000000 0.000000 0.000000
# 3 0.000185 -0.007293 0.012030 0.000000 0.000000 0.000000
# 4 0.000000 0.000000 0.000000 0.048194 0.000000 0.000000
# 5 0.000000 0.000000 0.000000 0.000000 0.074044 0.000000
# 6 0.000000 0.000000 0.000000 0.000000 0.000000 0.032218
#
#
# Mechanical properties :
#
#
# Convention : Reuss Voigt Hill
#
# Bulk Modulus (GPa) = 51.79232 52.82949 52.31091
# Shear Modulus (GPa) = 22.13307 25.98925 24.06116
#
# Velocity S-wave (km/s) = 3.41868 3.70454 3.56448
# Velocity P-wave (km/s) = 6.55226 6.79668 6.67559
#
# Compressibility (1/GPa) = 0.01930788
#
# Stress axis : x y z
#
# Youngs Moduli (GPa) = 83.04485 55.27929 83.12848
#
# Poissons Ratio (x) = 0.23872 -0.01535
# Poissons Ratio (y) = 0.35862 0.60625
# Poissons Ratio (z) = -0.01533 0.40315
#
# Static dielectric constant tensor:
#      x y z
#    x 1.642950 0.000000 0.000000 
#    y 0.000000 1.661480 0.000000 
#    z 0.000000 0.000000 1.638120 
# 
# From -- ./inp_files/47206.got.cif
#   From: 2010.05.17/outbox.cif.g08.bks.cpg/sg72_24_cif.got.tgz:47206.got - 2010.06.03 17:03:01.
