data_PCOD9528769
_publ_section_title
;
Structure prediction by ZEFSAII (Michael W. Deem and Ramdas Pophale) SiO2 
 PCOD9528769
Probable space group: I B A M
;
_chemical_formula_sum "Si O2"
_cell_formula_units_Z 64
_cell_length_a 20.244789
_cell_length_b 8.199459
_cell_length_c 19.090034
_cell_angle_alpha 90.000000
_cell_angle_beta 90.000000
_cell_angle_gamma 90.000000
_cell_volume 3168.875342
_symmetry_space_group_name_H-M "I B A M"
_symmetry_group_IT_number 72
_symmetry_cell_setting 'orthorhombic'
loop_
_space_group_symop_operation_xyz
x,y,z
-x,-y,z
x,-y,1/2-z
-x,y,1/2-z
-x,-y,-z
x,y,-z
-x,y,1/2+z
x,-y,1/2+z
1/2+x,1/2+y,1/2+z
1/2-x,1/2-y,1/2+z
1/2+x,1/2-y,-z
1/2-x,1/2+y,-z
1/2-x,1/2-y,1/2-z
1/2+x,1/2+y,1/2-z
1/2-x,1/2+y,z
1/2+x,1/2-y,z
loop_
_atom_site_type_symbol
_atom_site_label
_atom_site_fract_x
_atom_site_fract_y
_atom_site_fract_z
Si Si1 0.923689 0.150972 0.303284
Si Si2 0.828440 0.394983 0.919792
Si Si3 0.683616 0.714358 0.581758
Si Si4 0.454677 0.161701 0.828317
O O1 0.868410 0.144866 0.362504
O O2 0.923339 0.305172 0.248854
O O3 0.994412 0.188194 0.339125
O O4 0.919252 0.000000 0.250000
O O5 0.757911 0.328236 0.894630
O O6 0.825407 0.590966 0.917603
O O7 0.892938 0.340053 0.879092
O O8 0.834297 0.340940 0.000000
O O9 0.675514 0.659074 0.500000
O O10 0.500000 0.000000 0.837306
#
# Coordination Sequence:
#
# PCOD9528769 Si02
#       4
#    16  16  16  16
#     4  11  24  42  63  96 132 168 212 267 320 381
#     4  10  23  42  67  97 129 170 217 265 319 382
#     4  10  23  44  67  94 130 168 214 267 321 383
#     4  11  22  41  66  92 130 169 213 264 319 380
#
# _framework density 20.196441
#
# number of rings (size 3 to 8) (size 9 to 14) (size 15 to 20)
#    0.000    1.500    2.500    3.000    3.500    2.500 
#    0.000    0.000    0.000    9.000    0.000    0.000 
#    0.000    0.000    0.000    0.000    0.000    0.000 
#
# Total GULP energy -178436.106793 kJ/mol
# GULP energy per Si atom -5576.128337 kJ/mol
# Density = 2.015047 g / cm^3
# Si number density = 20.196441 Si / 1000 Ang^3
#
#
#
# Elastic Constant Matrix: (Units=GPa)
#
#
# Indices 1 2 3 4 5 6 
#
# 1 216.0899 54.4079 124.0545 0.0000 0.0000 0.0000
# 2 54.4079 65.6450 36.4086 0.0000 0.0000 0.0000
# 3 124.0545 36.4086 90.2452 0.0000 0.0000 0.0000
# 4 0.0000 0.0000 0.0000 27.9528 0.0000 0.0000
# 5 0.0000 0.0000 0.0000 0.0000 49.8006 0.0000
# 6 0.0000 0.0000 0.0000 0.0000 0.0000 31.7332
#
#
#
# Elastic Compliance Matrix: (Units=1/GPa)
#
#
# Indices 1 2 3 4 5 6 
#
# 1 0.022130 -0.001893 -0.029657 0.000000 0.000000 0.000000
# 2 -0.001893 0.019787 -0.005380 0.000000 0.000000 0.000000
# 3 -0.029657 -0.005380 0.054020 0.000000 0.000000 0.000000
# 4 0.000000 0.000000 0.000000 0.035775 0.000000 0.000000
# 5 0.000000 0.000000 0.000000 0.000000 0.020080 0.000000
# 6 0.000000 0.000000 0.000000 0.000000 0.000000 0.031513
#
#
# Mechanical properties :
#
#
# Convention : Reuss Voigt Hill
#
# Bulk Modulus (GPa) = 45.30017 89.08024 67.19020
# Shear Modulus (GPa) = 18.90187 32.37126 25.63657
#
# Velocity S-wave (km/s) = 3.06257 4.00787 3.56667
# Velocity P-wave (km/s) = 5.91475 8.10062 7.09240
#
# Compressibility (1/GPa) = 0.02207497
#
# Stress axis : x y z
#
# Youngs Moduli (GPa) = 45.18687 50.53916 18.51177
#
# Poissons Ratio (x) = 0.09568 0.54901
# Poissons Ratio (y) = 0.08555 0.09960
# Poissons Ratio (z) = 1.34012 0.27191
#
# Static dielectric constant tensor:
#      x y z
#    x 1.715940 0.000000 0.000000 
#    y 0.000000 1.811580 0.000000 
#    z 0.000000 0.000000 1.725970 
# 
# From -- ./inp_files/44646.got.cif
#   From: 2010.05.17/outbox.cif.g08.bks.cpg/sg72_23_cif.got.tgz:44646.got - 2010.06.03 17:03:01.
