data_PCOD9528183
_publ_section_title
;
Structure prediction by ZEFSAII (Michael W. Deem and Ramdas Pophale) SiO2 
 PCOD9528183
Probable space group: I B A M
;
_chemical_formula_sum "Si O2"
_cell_formula_units_Z 116
_cell_length_a 16.969377
_cell_length_b 19.360830
_cell_length_c 18.374084
_cell_angle_alpha 90.000000
_cell_angle_beta 90.000000
_cell_angle_gamma 90.000000
_cell_volume 6036.644034
_symmetry_space_group_name_H-M "I B A M"
_symmetry_group_IT_number 72
_symmetry_cell_setting 'orthorhombic'
loop_
_space_group_symop_operation_xyz
x,y,z
-x,-y,z
x,-y,1/2-z
-x,y,1/2-z
-x,-y,-z
x,y,-z
-x,y,1/2+z
x,-y,1/2+z
1/2+x,1/2+y,1/2+z
1/2-x,1/2-y,1/2+z
1/2+x,1/2-y,-z
1/2-x,1/2+y,-z
1/2-x,1/2-y,1/2-z
1/2+x,1/2+y,1/2-z
1/2-x,1/2+y,z
1/2+x,1/2-y,z
loop_
_atom_site_type_symbol
_atom_site_label
_atom_site_fract_x
_atom_site_fract_y
_atom_site_fract_z
Si Si1 0.045735 0.338410 0.363868
Si Si2 0.880953 0.342955 0.705393
Si Si3 0.999418 0.807106 0.418162
Si Si4 0.796147 0.400670 0.085398
Si Si5 0.385527 0.612749 0.313244
Si Si6 0.239649 0.463710 0.823933
Si Si7 0.163415 0.190710 0.835938
Si Si8 0.000000 0.000000 0.250000
O O1 0.087885 0.323224 0.285865
O O2 0.023478 0.273048 0.412606
O O3 0.111587 0.383259 0.403707
O O4 0.958915 0.363441 0.340417
O O5 0.827321 0.410656 0.702285
O O6 0.835829 0.273922 0.677127
O O7 0.993109 0.832867 0.500000
O O8 0.937238 0.839502 0.363599
O O9 0.087125 0.819478 0.387422
O O10 0.782913 0.475606 0.121426
O O11 0.740221 0.344974 0.128112
O O12 0.776315 0.399469 0.000000
O O13 0.309731 0.583042 0.353777
O O14 0.356638 0.652408 0.240324
O O15 0.443018 0.549725 0.294506
O O16 0.269787 0.500000 0.750000
#
# Coordination Sequence:
#
# PCOD9528183 Si02
#       8
#    16  16  16  16  16  16  16   4
#     4  10  21  41  66  97 127 159 215 273 320 382
#     4  10  22  40  70 100 120 162 227 276 313 371
#     4  11  23  39  62  96 132 167 210 269 332 385
#     4  12  26  44  65  95 136 175 208 260 336 398
#     4  12  22  38  66  92 129 170 220 269 314 382
#     4  12  24  42  63  97 130 170 219 268 317 386
#     4  11  21  42  68  94 126 171 222 268 318 387
#     4  12  20  36  58  96 120 174 220 256 316 368
#
# _framework density 19.215975
#
# number of rings (size 3 to 8) (size 9 to 14) (size 15 to 20)
#    0.000    0.828    6.207    0.828    1.931    2.207 
#    0.000    5.172    0.000    0.000    0.000    0.000 
#    0.000    0.000    0.000    0.000    0.000    0.000 
#
# Total GULP energy -323620.057575 kJ/mol
# GULP energy per Si atom -5579.656165 kJ/mol
# Density = 1.917224 g / cm^3
# Si number density = 19.215975 Si / 1000 Ang^3
#
#
#
# Elastic Constant Matrix: (Units=GPa)
#
#
# Indices 1 2 3 4 5 6 
#
# 1 72.6747 32.4956 10.4925 0.0000 0.0000 0.0000
# 2 32.4956 48.6701 10.5978 0.0000 0.0000 0.0000
# 3 10.4925 10.5978 76.8186 0.0000 0.0000 0.0000
# 4 0.0000 0.0000 0.0000 14.2366 0.0000 0.0000
# 5 0.0000 0.0000 0.0000 0.0000 11.2607 0.0000
# 6 0.0000 0.0000 0.0000 0.0000 0.0000 17.0715
#
#
#
# Elastic Compliance Matrix: (Units=1/GPa)
#
#
# Indices 1 2 3 4 5 6 
#
# 1 0.019677 -0.012941 -0.000902 0.000000 0.000000 0.000000
# 2 -0.012941 0.029694 -0.002329 0.000000 0.000000 0.000000
# 3 -0.000902 -0.002329 0.013462 0.000000 0.000000 0.000000
# 4 0.000000 0.000000 0.000000 0.070242 0.000000 0.000000
# 5 0.000000 0.000000 0.000000 0.000000 0.088804 0.000000
# 6 0.000000 0.000000 0.000000 0.000000 0.000000 0.058577
#
#
# Mechanical properties :
#
#
# Convention : Reuss Voigt Hill
#
# Bulk Modulus (GPa) = 32.79947 33.92613 33.36280
# Shear Modulus (GPa) = 15.48165 18.15226 16.81695
#
# Velocity S-wave (km/s) = 2.84150 3.07684 2.96151
# Velocity P-wave (km/s) = 5.27934 5.50601 5.39386
#
# Compressibility (1/GPa) = 0.03048830
#
# Stress axis : x y z
#
# Youngs Moduli (GPa) = 50.82161 33.67688 74.28194
#
# Poissons Ratio (x) = 0.43581 0.06702
# Poissons Ratio (y) = 0.65769 0.17300
# Poissons Ratio (z) = 0.04585 0.07843
#
# Static dielectric constant tensor:
#      x y z
#    x 1.840440 0.000000 0.000000 
#    y 0.000000 1.591740 0.000000 
#    z 0.000000 0.000000 1.660420 
# 
# From -- ./inp_files/31744.got.cif
#   From: 2010.05.17/outbox.cif.g08.bks.cpg/sg72_16_cif.got.tgz:31744.got - 2010.06.03 17:03:01.
