data_PCOD9528009
_publ_section_title
;
Structure prediction by ZEFSAII (Michael W. Deem and Ramdas Pophale) SiO2 
 PCOD9528009
Probable space group: I B A M
;
_chemical_formula_sum "Si O2"
_cell_formula_units_Z 96
_cell_length_a 14.106474
_cell_length_b 21.926357
_cell_length_c 14.307633
_cell_angle_alpha 90.000000
_cell_angle_beta 90.000000
_cell_angle_gamma 90.000000
_cell_volume 4425.402179
_symmetry_space_group_name_H-M "I B A M"
_symmetry_group_IT_number 72
_symmetry_cell_setting 'orthorhombic'
loop_
_space_group_symop_operation_xyz
x,y,z
-x,-y,z
x,-y,1/2-z
-x,y,1/2-z
-x,-y,-z
x,y,-z
-x,y,1/2+z
x,-y,1/2+z
1/2+x,1/2+y,1/2+z
1/2-x,1/2-y,1/2+z
1/2+x,1/2-y,-z
1/2-x,1/2+y,-z
1/2-x,1/2-y,1/2-z
1/2+x,1/2+y,1/2-z
1/2-x,1/2+y,z
1/2+x,1/2-y,z
loop_
_atom_site_type_symbol
_atom_site_label
_atom_site_fract_x
_atom_site_fract_y
_atom_site_fract_z
Si Si1 0.477815 0.308141 0.108407
Si Si2 0.041358 0.432392 0.613136
Si Si3 0.723541 0.350900 0.611855
Si Si4 0.233921 0.563725 0.214267
Si Si5 0.427959 0.186820 0.611365
Si Si6 0.447710 0.440246 0.649859
O O1 0.372641 0.319420 0.144329
O O2 0.527092 0.248715 0.149467
O O3 0.531956 0.372748 0.111451
O O4 0.464100 0.294240 0.000000
O O5 0.047159 0.433119 0.500000
O O6 0.145829 0.414130 0.651868
O O7 0.000000 0.500000 0.638349
O O8 0.970013 0.378045 0.644371
O O9 0.716812 0.369425 0.500000
O O10 0.741002 0.402090 0.689472
O O11 0.815493 0.309416 0.621667
O O12 0.196728 0.500000 0.250000
O O13 0.334379 0.553429 0.160752
O O14 0.444359 0.184389 0.500000
O O15 0.500000 0.500000 0.605512
O O16 0.500000 0.437361 0.750000
#
# Coordination Sequence:
#
# PCOD9528009 Si02
#       6
#    16  16  16  16  16  16
#     4  10  21  39  64  89 120 163 207 256 315 376
#     4  10  23  43  65  93 130 166 205 258 315 374
#     4  10  21  39  62  89 122 165 209 253 314 376
#     4  12  23  38  65  92 122 165 209 257 314 373
#     4   9  20  40  62  88 126 160 198 259 311 363
#     4  11  21  41  60  85 127 162 197 263 319 357
#
# _framework density 21.692944000000001
#
# number of rings (size 3 to 8) (size 9 to 14) (size 15 to 20)
#    0.000    1.667    3.333    1.000    0.000    6.667 
#    3.000    5.000    0.000    1.000    0.000    0.000 
#    0.000    0.000    0.000    0.000    0.000    0.000 
#
# Total GULP energy -267442.312664 kJ/mol
# GULP energy per Si atom -5571.714847 kJ/mol
# Density = 2.164357 g / cm^3
# Si number density = 21.692944 Si / 1000 Ang^3
#
#
#
# Elastic Constant Matrix: (Units=GPa)
#
#
# Indices 1 2 3 4 5 6 
#
# 1 126.6792 39.1157 19.9896 -0.0001 0.0000 0.0000
# 2 39.1157 133.6677 11.4587 0.0002 0.0000 0.0000
# 3 19.9896 11.4587 63.5589 0.0005 0.0000 0.0000
# 4 -0.0001 0.0002 0.0005 59.5647 0.0000 0.0000
# 5 0.0000 0.0000 0.0000 0.0000 11.3017 0.0000
# 6 0.0000 0.0000 0.0000 0.0000 0.0000 31.0211
#
#
#
# Elastic Compliance Matrix: (Units=1/GPa)
#
#
# Indices 1 2 3 4 5 6 
#
# 1 0.009024 -0.002435 -0.002399 0.000000 0.000000 0.000000
# 2 -0.002435 0.008256 -0.000723 0.000000 0.000000 0.000000
# 3 -0.002399 -0.000723 0.016618 0.000000 0.000000 0.000000
# 4 0.000000 0.000000 0.000000 0.016788 0.000000 0.000000
# 5 0.000000 0.000000 0.000000 0.000000 0.088482 0.000000
# 6 0.000000 0.000000 0.000000 0.000000 0.000000 0.032236
#
#
# Mechanical properties :
#
#
# Convention : Reuss Voigt Hill
#
# Bulk Modulus (GPa) = 43.88914 51.67043 47.77979
# Shear Modulus (GPa) = 26.29998 37.26695 31.78346
#
# Velocity S-wave (km/s) = 3.48569 4.14929 3.83188
# Velocity P-wave (km/s) = 6.03954 6.84296 6.45376
#
# Compressibility (1/GPa) = 0.02278468
#
# Stress axis : x y z
#
# Youngs Moduli (GPa) = 110.80972 121.12701 60.17480
#
# Poissons Ratio (x) = 0.29497 0.14437
# Poissons Ratio (y) = 0.26984 0.04348
# Poissons Ratio (z) = 0.26586 0.08752
#
# Static dielectric constant tensor:
#      x y z
#    x 1.754900 0.000000 0.000000 
#    y 0.000000 1.758560 0.000000 
#    z 0.000000 0.000000 1.856770 
# 
# From -- ./inp_files/21765.got.cif
#   From: 2010.05.17/outbox.cif.g08.bks.cpg/sg72_11_cif.got.tgz:21765.got - 2010.06.03 17:03:01.
