data_PCOD9528559
_publ_section_title
;
Structure prediction by ZEFSAII (Michael W. Deem and Ramdas Pophale) SiO2 
 PCOD9528559
Probable space group: I B A M
;
_chemical_formula_sum "Si O2"
_cell_formula_units_Z 52
_cell_length_a 5.174633
_cell_length_b 29.977149
_cell_length_c 15.342104
_cell_angle_alpha 90.000000
_cell_angle_beta 90.000000
_cell_angle_gamma 90.000000
_cell_volume 2379.878594
_symmetry_space_group_name_H-M "I B A M"
_symmetry_group_IT_number 72
_symmetry_cell_setting 'orthorhombic'
loop_
_space_group_symop_operation_xyz
x,y,z
-x,-y,z
x,-y,1/2-z
-x,y,1/2-z
-x,-y,-z
x,y,-z
-x,y,1/2+z
x,-y,1/2+z
1/2+x,1/2+y,1/2+z
1/2-x,1/2-y,1/2+z
1/2+x,1/2-y,-z
1/2-x,1/2+y,-z
1/2-x,1/2-y,1/2-z
1/2+x,1/2+y,1/2-z
1/2-x,1/2+y,z
1/2+x,1/2-y,z
loop_
_atom_site_type_symbol
_atom_site_label
_atom_site_fract_x
_atom_site_fract_y
_atom_site_fract_z
Si Si1 0.000000 0.000000 0.750000
Si Si2 0.197816 0.542032 0.404250
Si Si3 0.406464 0.276697 0.894736
Si Si4 0.748542 0.869545 0.690276
O O1 0.842945 0.029403 0.816579
O O2 0.327485 0.542506 0.500000
O O3 0.143914 0.593487 0.380020
O O4 0.000000 0.500000 0.409378
O O5 0.685618 0.258444 0.867367
O O6 0.338565 0.324815 0.857541
O O7 0.403138 0.279106 0.000000
O O8 0.500000 0.861052 0.750000
O O9 0.000000 0.882653 0.750000
#
# Coordination Sequence:
#
# PCOD9528559 Si02
#       4
#     4  16  16  16
#     4  12  20  44  68  96 132 168 232 288 338 422
#     4  11  25  44  68  98 137 185 230 289 356 419
#     4  10  22  42  66  96 136 180 229 288 350 419
#     4  12  25  43  68 100 138 180 234 293 348 421
#
# _framework density 21.849855000000002
#
# number of rings (size 3 to 8) (size 9 to 14) (size 15 to 20)
#    0.000    0.923    1.538    5.538    0.000    3.692 
#    0.000    3.077    0.000    0.000    0.000    0.000 
#    0.000    0.000    0.000    0.000    0.000    0.000 
#
# Total GULP energy -144870.918231 kJ/mol
# GULP energy per Si atom -5571.958394 kJ/mol
# Density = 2.180012 g / cm^3
# Si number density = 21.849855 Si / 1000 Ang^3
#
#
#
# Elastic Constant Matrix: (Units=GPa)
#
#
# Indices 1 2 3 4 5 6 
#
# 1 65.7340 -10.9829 24.0016 0.0000 0.0000 0.0000
# 2 -10.9829 109.1719 30.5990 0.0000 0.0000 0.0000
# 3 24.0016 30.5990 129.2538 0.0000 0.0000 0.0000
# 4 0.0000 0.0000 0.0000 41.8678 0.0000 0.0000
# 5 0.0000 0.0000 0.0000 0.0000 31.3908 0.0000
# 6 0.0000 0.0000 0.0000 0.0000 0.0000 -15.0200
#
#
#
# Elastic Compliance Matrix: (Units=1/GPa)
#
#
# Indices 1 2 3 4 5 6 
#
# 1 0.017079 0.002792 -0.003832 0.000000 0.000000 0.000000
# 2 0.002792 0.010267 -0.002949 0.000000 0.000000 0.000000
# 3 -0.003832 -0.002949 0.009147 0.000000 0.000000 0.000000
# 4 0.000000 0.000000 0.000000 0.023885 0.000000 0.000000
# 5 0.000000 0.000000 0.000000 0.000000 0.031857 0.000000
# 6 0.000000 0.000000 0.000000 0.000000 0.000000 -0.066578
#
#
# Mechanical properties :
#
#
# Convention : Reuss Voigt Hill
#
# Bulk Modulus (GPa) = 35.07042 43.48833 39.27938
# Shear Modulus (GPa) = 115.90360 29.01718 72.46039
#
# Velocity S-wave (km/s) = 7.29113 3.64816 5.76497
# Velocity P-wave (km/s) = 9.32557 6.13938 7.89488
#
# Compressibility (1/GPa) = 0.02851405
#
# Stress axis : x y z
#
# Youngs Moduli (GPa) = 58.55240 97.39584 109.33086
#
# Poissons Ratio (x) = -0.27196 0.41900
# Poissons Ratio (y) = -0.16350 0.32244
# Poissons Ratio (z) = 0.22440 0.28724
#
# Static dielectric constant tensor:
#      x y z
#    x 1.823250 0.000000 0.000000 
#    y 0.000000 1.693270 0.000000 
#    z 0.000000 0.000000 1.976210 
# 
# From -- ./inp_files/17554.got.cif
#   From: 2010.05.17/outbox.cif.g08.bks.cpg/sg72_9_cif.got.tgz:17554.got - 2010.06.03 17:03:01.
