data_PCOD9528541
_publ_section_title
;
Structure prediction by ZEFSAII (Michael W. Deem and Ramdas Pophale) SiO2 
 PCOD9528541
Probable space group: I B A M
;
_chemical_formula_sum "Si O2"
_cell_formula_units_Z 60
_cell_length_a 13.508134
_cell_length_b 9.050578
_cell_length_c 22.291693
_cell_angle_alpha 90.000000
_cell_angle_beta 90.000000
_cell_angle_gamma 90.000000
_cell_volume 2725.302591
_symmetry_space_group_name_H-M "I B A M"
_symmetry_group_IT_number 72
_symmetry_cell_setting 'orthorhombic'
loop_
_space_group_symop_operation_xyz
x,y,z
-x,-y,z
x,-y,1/2-z
-x,y,1/2-z
-x,-y,-z
x,y,-z
-x,y,1/2+z
x,-y,1/2+z
1/2+x,1/2+y,1/2+z
1/2-x,1/2-y,1/2+z
1/2+x,1/2-y,-z
1/2-x,1/2+y,-z
1/2-x,1/2-y,1/2-z
1/2+x,1/2+y,1/2-z
1/2-x,1/2+y,z
1/2+x,1/2-y,z
loop_
_atom_site_type_symbol
_atom_site_label
_atom_site_fract_x
_atom_site_fract_y
_atom_site_fract_z
Si Si1 0.293011 0.441133 0.376142
Si Si2 0.684177 0.165833 0.199573
Si Si3 0.000000 0.000000 0.905641
Si Si4 0.172085 0.475190 0.500000
Si Si5 0.482602 0.240627 0.500000
Si Si6 0.000000 0.500000 0.750000
O O1 0.311805 0.273025 0.357928
O O2 0.229634 0.513896 0.323855
O O3 0.398029 0.523811 0.372098
O O4 0.240246 0.459778 0.440631
O O5 0.750000 0.250000 0.250000
O O6 0.573907 0.114459 0.216686
O O7 0.019015 0.145920 0.944894
O O8 0.085426 0.350961 0.500000
O O9 0.109708 0.628256 0.500000
#
# Coordination Sequence:
#
# PCOD9528541 Si02
#       6
#    16  16   8   8   8   4
#     4  12  26  45  75 108 153 193 254 319 386 464
#     4  12  27  52  75 109 146 200 259 323 380 455
#     4  11  24  38  65 106 144 196 243 305 376 452
#     4  11  24  45  72 105 149 198 242 309 385 465
#     4  10  22  42  64 100 151 197 248 288 374 464
#     4  12  28  52  86 108 152 200 274 324 402 458
#
# _framework density 22.015903000000002
#
# number of rings (size 3 to 8) (size 9 to 14) (size 15 to 20)
#    0.000    0.533    2.667    4.800    3.733    7.467 
#    0.000    0.000    0.000    0.800    0.000    0.000 
#    0.000    0.000    0.000    0.000    0.000    0.000 
#
# Total GULP energy -167582.425599 kJ/mol
# GULP energy per Si atom -5586.080853 kJ/mol
# Density = 2.196579 g / cm^3
# Si number density = 22.015903 Si / 1000 Ang^3
#
#
#
# Elastic Constant Matrix: (Units=GPa)
#
#
# Indices 1 2 3 4 5 6 
#
# 1 181.5882 44.9506 57.9569 0.0000 0.0000 0.0000
# 2 44.9506 134.7743 38.5527 0.0000 0.0000 0.0000
# 3 57.9569 38.5527 89.8431 0.0000 0.0000 0.0000
# 4 0.0000 0.0000 0.0000 222.4165 0.0000 0.0000
# 5 0.0000 0.0000 0.0000 0.0000 100.6960 0.0000
# 6 0.0000 0.0000 0.0000 0.0000 0.0000 41.3562
#
#
#
# Elastic Compliance Matrix: (Units=1/GPa)
#
#
# Indices 1 2 3 4 5 6 
#
# 1 0.007103 -0.001206 -0.004064 0.000000 0.000000 0.000000
# 2 -0.001206 0.008663 -0.002939 0.000000 0.000000 0.000000
# 3 -0.004064 -0.002939 0.015014 0.000000 0.000000 0.000000
# 4 0.000000 0.000000 0.000000 0.004496 0.000000 0.000000
# 5 0.000000 0.000000 0.000000 0.000000 0.009931 0.000000
# 6 0.000000 0.000000 0.000000 0.000000 0.000000 0.024180
#
#
# Mechanical properties :
#
#
# Convention : Reuss Voigt Hill
#
# Bulk Modulus (GPa) = 69.63934 76.56957 73.10445
# Shear Modulus (GPa) = 55.19222 90.54343 72.86783
#
# Velocity S-wave (km/s) = 5.01235 6.41994 5.75931
# Velocity P-wave (km/s) = 8.07455 9.47676 8.80361
#
# Compressibility (1/GPa) = 0.01435970
#
# Stress axis : x y z
#
# Youngs Moduli (GPa) = 140.79023 115.43452 66.60647
#
# Poissons Ratio (x) = 0.13925 0.27071
# Poissons Ratio (y) = 0.16984 0.19577
# Poissons Ratio (z) = 0.57221 0.33928
#
# Static dielectric constant tensor:
#      x y z
#    x 2.336600 0.000000 0.000000 
#    y 0.000000 1.855260 0.000000 
#    z 0.000000 0.000000 1.831120 
# 
# From -- ./inp_files/46922.got.cif
#   From: 2010.05.17/outbox.cif.g08.bks.cpg/sg72_24_cif.got.tgz:46922.got - 2010.06.03 17:03:01.
