data_PCOD9528325
_publ_section_title
;
Structure prediction by ZEFSAII (Michael W. Deem and Ramdas Pophale) SiO2 
 PCOD9528325
Probable space group: I B A M
;
_chemical_formula_sum "Si O2"
_cell_formula_units_Z 80
_cell_length_a 8.991651
_cell_length_b 24.613390
_cell_length_c 18.225610
_cell_angle_alpha 90.000000
_cell_angle_beta 90.000000
_cell_angle_gamma 90.000000
_cell_volume 4033.601111
_symmetry_space_group_name_H-M "I B A M"
_symmetry_group_IT_number 72
_symmetry_cell_setting 'orthorhombic'
loop_
_space_group_symop_operation_xyz
x,y,z
-x,-y,z
x,-y,1/2-z
-x,y,1/2-z
-x,-y,-z
x,y,-z
-x,y,1/2+z
x,-y,1/2+z
1/2+x,1/2+y,1/2+z
1/2-x,1/2-y,1/2+z
1/2+x,1/2-y,-z
1/2-x,1/2+y,-z
1/2-x,1/2-y,1/2-z
1/2+x,1/2+y,1/2-z
1/2-x,1/2+y,z
1/2+x,1/2-y,z
loop_
_atom_site_type_symbol
_atom_site_label
_atom_site_fract_x
_atom_site_fract_y
_atom_site_fract_z
Si Si1 0.438965 0.940695 0.586977
Si Si2 0.865103 0.402043 0.696191
Si Si3 0.150628 0.872987 0.412912
Si Si4 0.325137 0.306577 0.728238
Si Si5 0.935584 0.056548 0.831395
O O1 0.447066 0.941374 0.500000
O O2 0.548562 0.895197 0.620100
O O3 0.272725 0.920199 0.605355
O O4 0.500000 0.000000 0.611863
O O5 0.771565 0.352167 0.728783
O O6 0.739182 0.446149 0.680385
O O7 0.000000 0.417429 0.750000
O O8 0.155297 0.861874 0.500000
O O9 0.184056 0.823282 0.357776
O O10 0.992827 0.897332 0.386350
O O11 0.500000 0.306603 0.750000
O O12 0.250000 0.250000 0.750000
O O13 0.000000 0.067017 0.750000
O O14 0.000000 0.000000 0.858387
#
# Coordination Sequence:
#
# PCOD9528325 Si02
#       5
#    16  16  16  16  16
#     4  10  22  38  59  96 141 178 216 260 316 388
#     4  12  21  39  65  95 127 172 223 263 329 381
#     4  11  22  43  65  94 135 172 216 273 329 388
#     4  12  25  47  70  93 122 165 222 284 337 401
#     4  11  21  37  61  94 135 175 220 258 311 391
#
# _framework density 19.833394999999999
#
# number of rings (size 3 to 8) (size 9 to 14) (size 15 to 20)
#    0.000    0.800    6.000    1.800    0.000    3.200 
#    0.000    2.000    0.000    0.000    0.000    0.000 
#    0.000    0.000    0.000    0.000    0.000    0.000 
#
# Total GULP energy -223045.378658 kJ/mol
# GULP energy per Si atom -5576.134466 kJ/mol
# Density = 1.978825 g / cm^3
# Si number density = 19.833395 Si / 1000 Ang^3
#
#
#
# Elastic Constant Matrix: (Units=GPa)
#
#
# Indices 1 2 3 4 5 6 
#
# 1 160.4185 37.8549 42.8576 0.0000 0.0000 0.0000
# 2 37.8549 85.7548 56.4895 0.0000 0.0000 0.0000
# 3 42.8576 56.4895 77.5618 0.0000 0.0000 0.0000
# 4 0.0000 0.0000 0.0000 17.8213 0.0000 0.0000
# 5 0.0000 0.0000 0.0000 0.0000 31.9860 0.0000
# 6 0.0000 0.0000 0.0000 0.0000 0.0000 23.0563
#
#
#
# Elastic Compliance Matrix: (Units=1/GPa)
#
#
# Indices 1 2 3 4 5 6 
#
# 1 0.007367 -0.001097 -0.003272 0.000000 0.000000 0.000000
# 2 -0.001097 0.022578 -0.015838 0.000000 0.000000 0.000000
# 3 -0.003272 -0.015838 0.026236 0.000000 0.000000 0.000000
# 4 0.000000 0.000000 0.000000 0.056113 0.000000 0.000000
# 5 0.000000 0.000000 0.000000 0.000000 0.031264 0.000000
# 6 0.000000 0.000000 0.000000 0.000000 0.000000 0.043372
#
#
# Mechanical properties :
#
#
# Convention : Reuss Voigt Hill
#
# Bulk Modulus (GPa) = 63.42077 66.45990 64.94034
# Shear Modulus (GPa) = 21.49623 27.00825 24.25224
#
# Velocity S-wave (km/s) = 3.29574 3.69420 3.50065
# Velocity P-wave (km/s) = 6.82120 7.19569 7.01095
#
# Compressibility (1/GPa) = 0.01576770
#
# Stress axis : x y z
#
# Youngs Moduli (GPa) = 135.74844 44.29008 38.11541
#
# Poissons Ratio (x) = 0.04857 0.12471
# Poissons Ratio (y) = 0.14886 0.60368
# Poissons Ratio (z) = 0.44414 0.70148
#
# Static dielectric constant tensor:
#      x y z
#    x 1.768700 0.000000 0.000000 
#    y 0.000000 1.743980 0.000000 
#    z 0.000000 0.000000 1.715360 
# 
# From -- ./inp_files/28094.got.cif
#   From: 2010.05.17/outbox.cif.g08.bks.cpg/sg72_15_cif.got.tgz:28094.got - 2010.06.03 17:03:01.
