data_PCOD9528453
_publ_section_title
;
Structure prediction by ZEFSAII (Michael W. Deem and Ramdas Pophale) SiO2 
 PCOD9528453
Probable space group: I B A M
;
_chemical_formula_sum "Si O2"
_cell_formula_units_Z 68
_cell_length_a 9.075742
_cell_length_b 29.415850
_cell_length_c 13.898760
_cell_angle_alpha 90.000000
_cell_angle_beta 90.000000
_cell_angle_gamma 90.000000
_cell_volume 3710.561204
_symmetry_space_group_name_H-M "I B A M"
_symmetry_group_IT_number 72
_symmetry_cell_setting 'orthorhombic'
loop_
_space_group_symop_operation_xyz
x,y,z
-x,-y,z
x,-y,1/2-z
-x,y,1/2-z
-x,-y,-z
x,y,-z
-x,y,1/2+z
x,-y,1/2+z
1/2+x,1/2+y,1/2+z
1/2-x,1/2-y,1/2+z
1/2+x,1/2-y,-z
1/2-x,1/2+y,-z
1/2-x,1/2-y,1/2-z
1/2+x,1/2+y,1/2-z
1/2-x,1/2+y,z
1/2+x,1/2-y,z
loop_
_atom_site_type_symbol
_atom_site_label
_atom_site_fract_x
_atom_site_fract_y
_atom_site_fract_z
Si Si1 0.883561 0.334544 0.678466
Si Si2 0.272555 0.777051 0.000000
Si Si3 0.054189 0.811326 0.500000
Si Si4 0.368964 0.629499 0.183977
Si Si5 0.412435 0.920525 0.387992
Si Si6 0.000000 0.500000 0.250000
O O1 0.842533 0.302619 0.591030
O O2 0.737715 0.344955 0.740036
O O3 0.000000 0.311460 0.750000
O O4 0.968476 0.381202 0.644031
O O5 0.098654 0.784510 0.000000
O O6 0.312926 0.724401 0.000000
O O7 0.064234 0.840249 0.598122
O O8 0.500000 0.609446 0.250000
O O9 0.252102 0.597635 0.129906
O O10 0.437951 0.929900 0.500000
O O11 0.421880 0.964950 0.322090
#
# Coordination Sequence:
#
# PCOD9528453 Si02
#       6
#    16   8   8  16  16   4
#     4  10  22  40  66  87 125 176 208 262 328 382
#     4  12  26  42  60  96 127 169 230 275 311 391
#     4  12  28  38  64  92 131 169 227 276 316 389
#     4  11  22  43  63  91 127 176 214 259 336 378
#     4  11  22  40  71  96 131 169 213 264 322 393
#     4  12  22  40  66 114 124 164 216 264 316 398
#
# _framework density 18.326070000000001
#
# number of rings (size 3 to 8) (size 9 to 14) (size 15 to 20)
#    0.000    0.941    8.235    0.353    6.588    1.882 
#    0.000    0.588    0.000    1.412    0.000    0.000 
#    0.000    0.000    0.000    0.000    0.000    0.000 
#
# Total GULP energy -189573.484834 kJ/mol
# GULP energy per Si atom -5575.690730 kJ/mol
# Density = 1.828436 g / cm^3
# Si number density = 18.326070 Si / 1000 Ang^3
#
#
#
# Elastic Constant Matrix: (Units=GPa)
#
#
# Indices 1 2 3 4 5 6 
#
# 1 73.5475 -2.3324 19.6237 0.0299 -0.0001 0.0000
# 2 -2.3324 43.3438 15.6682 0.0680 -0.0001 0.0000
# 3 19.6237 15.6682 134.0170 0.1469 -0.0002 0.0000
# 4 0.0299 0.0680 0.1469********** -0.1996 0.0300
# 5 -0.0001 -0.0001 -0.0002 -0.1996 12.6873 0.0001
# 6 0.0000 0.0000 0.0000 0.0300 0.0001 -9.8804
#
#
#
# Elastic Compliance Matrix: (Units=1/GPa)
#
#
# Indices 1 2 3 4 5 6 
#
# 1 0.014253 0.001589 -0.002273 0.000000 0.000000 0.000000
# 2 0.001589 0.024266 -0.003070 0.000000 0.000000 0.000000
# 3 -0.002273 -0.003070 0.008153 0.000000 0.000000 0.000000
# 4 0.000000 0.000000 0.000000 -0.000077 -0.000001 0.000000
# 5 0.000000 0.000000 0.000000 -0.000001 0.078819 0.000000
# 6 0.000000 0.000000 0.000000 0.000000 0.000000 -0.101211
#
#
# Mechanical properties :
#
#
# Convention : Reuss Voigt Hill
#
# Bulk Modulus (GPa) = 25.53262 35.20304 30.36783
# Shear Modulus (GPa) = 111.68889 -2577.13469 -1232.72290
#
# Velocity S-wave (km/s) = 7.81522 -37.54091 -25.96384
# Velocity P-wave (km/s) = 9.76727 43.12589 29.70221
#
# Compressibility (1/GPa) = 0.03916559
#
# Stress axis : x y z
#
# Youngs Moduli (GPa) = 70.15843 41.20915 122.64787
#
# Poissons Ratio (x) = -0.06546 0.27876
# Poissons Ratio (y) = -0.11145 0.37649
# Poissons Ratio (z) = 0.15946 0.12650
#
# Static dielectric constant tensor:
#      x y z
#    x 1.635800 0.000000 0.000000 
#    y 0.000000 1.622570 0.000000 
#    z 0.000000 0.000000 1.633870 
# 
# From -- ./inp_files/18829.got.cif
#   From: 2010.05.17/outbox.cif.g08.bks.cpg/sg72_10_cif.got.tgz:18829.got - 2010.06.03 17:03:01.
