data_PCOD9528927
_publ_section_title
;
Structure prediction by ZEFSAII (Michael W. Deem and Ramdas Pophale) SiO2 
 PCOD9528927
Probable space group: I B A M
;
_chemical_formula_sum "Si O2"
_cell_formula_units_Z 60
_cell_length_a 30.833565
_cell_length_b 5.003637
_cell_length_c 16.919031
_cell_angle_alpha 90.000000
_cell_angle_beta 90.000000
_cell_angle_gamma 90.000000
_cell_volume 2610.267539
_symmetry_space_group_name_H-M "I B A M"
_symmetry_group_IT_number 72
_symmetry_cell_setting 'orthorhombic'
loop_
_space_group_symop_operation_xyz
x,y,z
-x,-y,z
x,-y,1/2-z
-x,y,1/2-z
-x,-y,-z
x,y,-z
-x,y,1/2+z
x,-y,1/2+z
1/2+x,1/2+y,1/2+z
1/2-x,1/2-y,1/2+z
1/2+x,1/2-y,-z
1/2-x,1/2+y,-z
1/2-x,1/2-y,1/2-z
1/2+x,1/2+y,1/2-z
1/2-x,1/2+y,z
1/2+x,1/2-y,z
loop_
_atom_site_type_symbol
_atom_site_label
_atom_site_fract_x
_atom_site_fract_y
_atom_site_fract_z
Si Si1 0.219981 0.752691 0.153332
Si Si2 0.112289 0.474941 0.000000
Si Si3 0.917942 0.329837 0.672026
Si Si4 0.169556 0.039511 0.500000
Si Si5 0.500000 0.000000 0.750000
Si Si6 0.352437 0.500000 0.250000
O O1 0.239951 0.459657 0.159254
O O2 0.197490 0.858680 0.073777
O O3 0.181682 0.788855 0.216117
O O4 0.087785 0.429671 0.083073
O O5 0.126872 0.780181 0.000000
O O6 0.153965 0.269291 0.000000
O O7 0.902462 0.500000 0.750000
O O8 0.885610 0.081376 0.680629
O O9 0.968559 0.318722 0.695536
#
# Coordination Sequence:
#
# PCOD9528927 Si02
#       6
#    16   8  16   8   4   8
#     4  12  26  42  65  99 140 187 243 299 350 408
#     4  12  24  44  78 100 143 190 243 280 366 436
#     4  10  24  46  71 107 140 187 230 299 354 437
#     4  12  24  45  66 103 135 192 243 297 348 421
#     4   8  24  44  74 108 144 172 238 296 360 430
#     4  12  24  41  71  94 142 186 243 287 362 426
#
# _framework density 22.986152000000001
#
# number of rings (size 3 to 8) (size 9 to 14) (size 15 to 20)
#    0.800    0.000    2.667    4.800    3.733    1.067 
#    0.000    0.000    0.000    3.200    0.000    0.000 
#    0.000    0.000    0.000    0.000    0.000    0.000 
#
# Total GULP energy -167297.156983 kJ/mol
# GULP energy per Si atom -5576.571899 kJ/mol
# Density = 2.293383 g / cm^3
# Si number density = 22.986152 Si / 1000 Ang^3
#
#
#
# Elastic Constant Matrix: (Units=GPa)
#
#
# Indices 1 2 3 4 5 6 
#
# 1 133.3575 11.9989 55.9001 0.0000 0.0000 0.0000
# 2 11.9989 61.3853 9.5302 0.0000 0.0000 0.0000
# 3 55.9001 9.5302 155.9244 0.0000 0.0000 0.0000
# 4 0.0000 0.0000 0.0000 30.5400 0.0000 0.0000
# 5 0.0000 0.0000 0.0000 0.0000 87.0313 0.0000
# 6 0.0000 0.0000 0.0000 0.0000 0.0000 21.9457
#
#
#
# Elastic Compliance Matrix: (Units=1/GPa)
#
#
# Indices 1 2 3 4 5 6 
#
# 1 0.008920 -0.001259 -0.003121 0.000000 0.000000 0.000000
# 2 -0.001259 0.016624 -0.000565 0.000000 0.000000 0.000000
# 3 -0.003121 -0.000565 0.007567 0.000000 0.000000 0.000000
# 4 0.000000 0.000000 0.000000 0.032744 0.000000 0.000000
# 5 0.000000 0.000000 0.000000 0.000000 0.011490 0.000000
# 6 0.000000 0.000000 0.000000 0.000000 0.000000 0.045567
#
#
# Mechanical properties :
#
#
# Convention : Reuss Voigt Hill
#
# Bulk Modulus (GPa) = 43.06309 56.16951 49.61630
# Shear Modulus (GPa) = 35.57644 46.11927 40.84785
#
# Velocity S-wave (km/s) = 3.93839 4.48414 4.22010
# Velocity P-wave (km/s) = 6.28142 7.16235 6.73630
#
# Compressibility (1/GPa) = 0.02322174
#
# Stress axis : x y z
#
# Youngs Moduli (GPa) = 112.10544 60.15278 132.15655
#
# Poissons Ratio (x) = 0.07574 0.41246
# Poissons Ratio (y) = 0.14115 0.07463
# Poissons Ratio (z) = 0.34988 0.03397
#
# Static dielectric constant tensor:
#      x y z
#    x 1.834280 0.000000 0.000000 
#    y 0.000000 1.964000 0.000000 
#    z 0.000000 0.000000 2.012110 
# 
# From -- ./inp_files/34099.got.cif
#   From: 2010.05.17/outbox.cif.g08.bks.cpg/sg72_18_cif.got.tgz:34099.got - 2010.06.03 17:03:01.
