data_PCOD9528833
_publ_section_title
;
Structure prediction by ZEFSAII (Michael W. Deem and Ramdas Pophale) SiO2 
 PCOD9528833
Probable space group: I B A M
;
_chemical_formula_sum "Si O2"
_cell_formula_units_Z 64
_cell_length_a 7.507457
_cell_length_b 14.076151
_cell_length_c 24.988222
_cell_angle_alpha 90.000000
_cell_angle_beta 90.000000
_cell_angle_gamma 90.000000
_cell_volume 2640.657806
_symmetry_space_group_name_H-M "I B A M"
_symmetry_group_IT_number 72
_symmetry_cell_setting 'orthorhombic'
loop_
_space_group_symop_operation_xyz
x,y,z
-x,-y,z
x,-y,1/2-z
-x,y,1/2-z
-x,-y,-z
x,y,-z
-x,y,1/2+z
x,-y,1/2+z
1/2+x,1/2+y,1/2+z
1/2-x,1/2-y,1/2+z
1/2+x,1/2-y,-z
1/2-x,1/2+y,-z
1/2-x,1/2-y,1/2-z
1/2+x,1/2+y,1/2-z
1/2-x,1/2+y,z
1/2+x,1/2-y,z
loop_
_atom_site_type_symbol
_atom_site_label
_atom_site_fract_x
_atom_site_fract_y
_atom_site_fract_z
Si Si1 0.966852 0.103223 0.312764
Si Si2 0.220328 0.882195 0.500000
Si Si3 0.813801 0.113275 0.000000
Si Si4 0.520400 0.113324 0.916674
Si Si5 0.578593 0.805424 0.189464
O O1 0.765997 0.141308 0.315875
O O2 0.000000 0.091174 0.250000
O O3 0.085510 0.194562 0.326614
O O4 0.000000 0.000000 0.339317
O O5 0.515415 0.650191 0.500000
O O6 0.341747 0.854603 0.551184
O O7 0.196487 0.997480 0.500000
O O8 0.694929 0.142273 0.050593
O O9 0.535489 0.145559 0.856176
O O10 0.500000 0.000000 0.917725
O O11 0.500000 0.812401 0.250000
#
# Coordination Sequence:
#
# PCOD9528833 Si02
#       5
#    16   8   8  16  16
#     4  10  23  45  68  99 140 195 247 286 347 425
#     4   8  15  35  58  95 132 182 248 302 348 421
#     4   8  15  35  62  91 138 182 243 305 352 418
#     4   9  19  34  61 101 140 187 239 292 364 426
#     4  11  23  43  67 103 150 184 231 295 356 438
#
# _framework density 24.236384999999999
#
# number of rings (size 3 to 8) (size 9 to 14) (size 15 to 20)
#    0.000    2.500    0.000    4.500    0.000    6.500 
#   18.000    1.250    0.000    6.000    0.000   10.500 
#    0.000    0.250    0.000    0.000    0.000    0.000 
#
# Total GULP energy -178833.314205 kJ/mol
# GULP energy per Si atom -5588.541069 kJ/mol
# Density = 2.418122 g / cm^3
# Si number density = 24.236385 Si / 1000 Ang^3
#
#
#
# Elastic Constant Matrix: (Units=GPa)
#
#
# Indices 1 2 3 4 5 6 
#
# 1 216.0972 70.1214 78.5656 0.0000 0.0000 0.0000
# 2 70.1214 156.0990 22.2456 0.0000 0.0000 0.0000
# 3 78.5656 22.2456 138.3000 0.0000 0.0000 0.0000
# 4 0.0000 0.0000 0.0000 94.0047 0.0000 0.0000
# 5 0.0000 0.0000 0.0000 0.0000 2.3790 0.0000
# 6 0.0000 0.0000 0.0000 0.0000 0.0000 38.8465
#
#
#
# Elastic Compliance Matrix: (Units=1/GPa)
#
#
# Indices 1 2 3 4 5 6 
#
# 1 0.006676 -0.002516 -0.003388 0.000000 0.000000 0.000000
# 2 -0.002516 0.007505 0.000222 0.000000 0.000000 0.000000
# 3 -0.003388 0.000222 0.009119 0.000000 0.000000 0.000000
# 4 0.000000 0.000000 0.000000 0.010638 0.000000 0.000000
# 5 0.000000 0.000000 0.000000 0.000000 0.420346 0.000000
# 6 0.000000 0.000000 0.000000 0.000000 0.000000 0.025742
#
#
# Mechanical properties :
#
#
# Convention : Reuss Voigt Hill
#
# Bulk Modulus (GPa) = 83.77432 94.70684 89.24058
# Shear Modulus (GPa) = 10.09351 49.68359 29.88855
#
# Velocity S-wave (km/s) = 2.04295 4.53256 3.51552
# Velocity P-wave (km/s) = 6.34077 8.15802 7.30612
#
# Compressibility (1/GPa) = 0.01193683
#
# Stress axis : x y z
#
# Youngs Moduli (GPa) = 149.80014 133.24920 109.65701
#
# Poissons Ratio (x) = 0.33525 0.37147
# Poissons Ratio (y) = 0.37689 -0.02436
# Poissons Ratio (z) = 0.50746 -0.02960
#
# Static dielectric constant tensor:
#      x y z
#    x 2.010930 0.000000 0.000000 
#    y 0.000000 2.239790 0.000000 
#    z 0.000000 0.000000 1.874960 
# 
# From -- ./inp_files/50612.got.cif
#   From: 2010.05.17/outbox.cif.g08.bks.cpg/sg72_26_cif.got.tgz:50612.got - 2010.06.03 17:03:01.
