data_PCOD9528885
_publ_section_title
;
Structure prediction by ZEFSAII (Michael W. Deem and Ramdas Pophale) SiO2 
 PCOD9528885
Probable space group: I B A M
;
_chemical_formula_sum "Si O2"
_cell_formula_units_Z 60
_cell_length_a 25.264130
_cell_length_b 10.458629
_cell_length_c 9.743213
_cell_angle_alpha 90.000000
_cell_angle_beta 90.000000
_cell_angle_gamma 90.000000
_cell_volume 2574.431270
_symmetry_space_group_name_H-M "I B A M"
_symmetry_group_IT_number 72
_symmetry_cell_setting 'orthorhombic'
loop_
_space_group_symop_operation_xyz
x,y,z
-x,-y,z
x,-y,1/2-z
-x,y,1/2-z
-x,-y,-z
x,y,-z
-x,y,1/2+z
x,-y,1/2+z
1/2+x,1/2+y,1/2+z
1/2-x,1/2-y,1/2+z
1/2+x,1/2-y,-z
1/2-x,1/2+y,-z
1/2-x,1/2-y,1/2-z
1/2+x,1/2+y,1/2-z
1/2-x,1/2+y,z
1/2+x,1/2-y,z
loop_
_atom_site_type_symbol
_atom_site_label
_atom_site_fract_x
_atom_site_fract_y
_atom_site_fract_z
Si Si1 0.039112 0.833802 0.500000
Si Si2 0.380359 0.726153 0.774252
Si Si3 0.000000 0.500000 0.000000
Si Si4 0.914071 0.500000 0.750000
Si Si5 0.576286 0.625227 0.000000
Si Si6 0.730734 0.628258 0.340253
O O1 0.066793 0.783771 0.364554
O O2 0.978161 0.792947 0.500000
O O3 0.053146 0.983254 0.500000
O O4 0.390446 0.654375 0.632904
O O5 0.332143 0.657213 0.847649
O O6 0.375852 0.876381 0.749596
O O7 0.952915 0.496469 0.880476
O O8 0.739793 0.500000 0.250000
O O9 0.750341 0.621851 0.500000
O O10 0.750000 0.750000 0.250000
#
# Coordination Sequence:
#
# PCOD9528885 Si02
#       6
#     8  16   4   8   8  16
#     4  11  23  44  66 102 147 194 250 300 371 447
#     4  12  26  43  74 104 151 193 253 312 380 454
#     4  10  24  42  64  98 154 202 256 298 370 430
#     4  11  26  42  68 106 146 200 250 308 365 448
#     4  11  25  40  68 104 145 200 244 304 367 453
#     4  12  29  55  87 117 156 199 257 328 402 479
#
# _framework density 23.306118999999999
#
# number of rings (size 3 to 8) (size 9 to 14) (size 15 to 20)
#    0.000    0.533    1.333    5.600   16.800    2.133 
#    0.000    0.000    0.000    0.000    0.000    0.000 
#    0.000    0.000    0.000    0.000    0.000    0.000 
#
# Total GULP energy -167374.472969 kJ/mol
# GULP energy per Si atom -5579.149099 kJ/mol
# Density = 2.325307 g / cm^3
# Si number density = 23.306119 Si / 1000 Ang^3
#
#
#
# Elastic Constant Matrix: (Units=GPa)
#
#
# Indices 1 2 3 4 5 6 
#
# 1 36.6918 8.2363 19.2871 0.0000 0.0000 0.0000
# 2 8.2363 169.8369 55.2059 0.0000 0.0000 0.0000
# 3 19.2871 55.2059 223.7212 0.0000 0.0000 0.0000
# 4 0.0000 0.0000 0.0000 28.6614 0.0000 0.0000
# 5 0.0000 0.0000 0.0000 0.0000 34.4536 0.0000
# 6 0.0000 0.0000 0.0000 0.0000 0.0000 26.1608
#
#
#
# Elastic Compliance Matrix: (Units=1/GPa)
#
#
# Indices 1 2 3 4 5 6 
#
# 1 0.028611 -0.000637 -0.002309 0.000000 0.000000 0.000000
# 2 -0.000637 0.006416 -0.001528 0.000000 0.000000 0.000000
# 3 -0.002309 -0.001528 0.005046 0.000000 0.000000 0.000000
# 4 0.000000 0.000000 0.000000 0.034890 0.000000 0.000000
# 5 0.000000 0.000000 0.000000 0.000000 0.029025 0.000000
# 6 0.000000 0.000000 0.000000 0.000000 0.000000 0.038225
#
#
# Mechanical properties :
#
#
# Convention : Reuss Voigt Hill
#
# Bulk Modulus (GPa) = 32.12984 66.18981 49.15983
# Shear Modulus (GPa) = 30.95285 41.02320 35.98802
#
# Velocity S-wave (km/s) = 3.64826 4.20001 3.93382
# Velocity P-wave (km/s) = 5.61804 7.20985 6.46314
#
# Compressibility (1/GPa) = 0.03112371
#
# Stress axis : x y z
#
# Youngs Moduli (GPa) = 34.95164 155.86902 198.17466
#
# Poissons Ratio (x) = 0.09926 0.45767
# Poissons Ratio (y) = 0.02226 0.30286
# Poissons Ratio (z) = 0.08072 0.23820
#
# Static dielectric constant tensor:
#      x y z
#    x 1.931330 0.000000 0.000000 
#    y 0.000000 2.052200 0.000000 
#    z 0.000000 0.000000 1.810440 
# 
# From -- ./inp_files/7725.got.cif
#   From: 2010.05.17/outbox.cif.g08.bks.cpg/sg72_4_cif.got.tgz:7725.got - 2010.06.03 17:03:01.
