data_PCOD9528359
_publ_section_title
;
Structure prediction by ZEFSAII (Michael W. Deem and Ramdas Pophale) SiO2 
 PCOD9528359
Probable space group: I B A M
;
_chemical_formula_sum "Si O2"
_cell_formula_units_Z 72
_cell_length_a 27.645090
_cell_length_b 9.639803
_cell_length_c 14.213901
_cell_angle_alpha 90.000000
_cell_angle_beta 90.000000
_cell_angle_gamma 90.000000
_cell_volume 3787.908268
_symmetry_space_group_name_H-M "I B A M"
_symmetry_group_IT_number 72
_symmetry_cell_setting 'orthorhombic'
loop_
_space_group_symop_operation_xyz
x,y,z
-x,-y,z
x,-y,1/2-z
-x,y,1/2-z
-x,-y,-z
x,y,-z
-x,y,1/2+z
x,-y,1/2+z
1/2+x,1/2+y,1/2+z
1/2-x,1/2-y,1/2+z
1/2+x,1/2-y,-z
1/2-x,1/2+y,-z
1/2-x,1/2-y,1/2-z
1/2+x,1/2+y,1/2-z
1/2-x,1/2+y,z
1/2+x,1/2-y,z
loop_
_atom_site_type_symbol
_atom_site_label
_atom_site_fract_x
_atom_site_fract_y
_atom_site_fract_z
Si Si1 0.451998 0.411973 0.887015
Si Si2 0.454963 0.907510 0.613976
Si Si3 0.807014 0.724205 0.250177
Si Si4 0.653245 0.992513 0.888080
Si Si5 0.630127 0.500000 0.250000
O O1 0.500000 0.500000 0.864967
O O2 0.456546 0.252178 0.853468
O O3 0.405724 0.479489 0.838049
O O4 0.446323 0.411585 0.000000
O O5 0.457421 0.900911 0.500000
O O6 0.403660 0.977813 0.636168
O O7 0.500000 0.000000 0.645366
O O8 0.750000 0.750000 0.250000
O O9 0.822065 0.645089 0.345887
O O10 0.823225 0.620984 0.166588
O O11 0.836422 0.865778 0.241069
O O12 0.658383 0.002838 0.000000
#
# Coordination Sequence:
#
# PCOD9528359 Si02
#       5
#    16  16  16  16   8
#     4  10  22  39  60  92 131 165 203 253 308 374
#     4   9  18  36  63  91 122 161 205 253 301 364
#     4  11  25  44  64  92 127 161 209 272 315 363
#     4  10  22  44  68  92 123 165 212 253 311 378
#     4  12  23  40  64  92 128 166 205 254 326 376
#
# _framework density 19.007852
#
# number of rings (size 3 to 8) (size 9 to 14) (size 15 to 20)
#    0.000    1.778    2.222    1.667    3.111    1.778 
#    0.000    4.444    0.000    0.000    0.000    0.000 
#    0.000    0.000    0.000    0.000    0.000    0.000 
#
# Total GULP energy -201185.269501 kJ/mol
# GULP energy per Si atom -5588.479708 kJ/mol
# Density = 1.896459 g / cm^3
# Si number density = 19.007852 Si / 1000 Ang^3
#
#
#
# Elastic Constant Matrix: (Units=GPa)
#
#
# Indices 1 2 3 4 5 6 
#
# 1 211.2308 105.2236 55.3440 0.0000 0.0000 0.0000
# 2 105.2236 169.3698 53.0447 0.0000 0.0000 0.0000
# 3 55.3440 53.0447 99.7921 0.0000 0.0000 0.0000
# 4 0.0000 0.0000 0.0000 23.6427 0.0000 0.0000
# 5 0.0000 0.0000 0.0000 0.0000 24.1031 0.0000
# 6 0.0000 0.0000 0.0000 0.0000 0.0000 -22.0013
#
#
#
# Elastic Compliance Matrix: (Units=1/GPa)
#
#
# Indices 1 2 3 4 5 6 
#
# 1 0.007151 -0.003840 -0.001925 0.000000 0.000000 0.000000
# 2 -0.003840 0.009145 -0.002732 0.000000 0.000000 0.000000
# 3 -0.001925 -0.002732 0.012540 0.000000 0.000000 0.000000
# 4 0.000000 0.000000 0.000000 0.042296 0.000000 0.000000
# 5 0.000000 0.000000 0.000000 0.000000 0.041488 0.000000
# 6 0.000000 0.000000 0.000000 0.000000 0.000000 -0.045452
#
#
# Mechanical properties :
#
#
# Convention : Reuss Voigt Hill
#
# Bulk Modulus (GPa) = 84.43069 100.84637 92.63853
# Shear Modulus (GPa) = 56.74643 22.93427 39.84035
#
# Velocity S-wave (km/s) = 5.46983 3.47734 4.58317
# Velocity P-wave (km/s) = 9.18734 8.32423 8.76642
#
# Compressibility (1/GPa) = 0.01184403
#
# Stress axis : x y z
#
# Youngs Moduli (GPa) = 139.83263 109.34409 79.74238
#
# Poissons Ratio (x) = 0.41989 0.15350
# Poissons Ratio (y) = 0.53696 0.21783
# Poissons Ratio (z) = 0.26917 0.29869
#
# Static dielectric constant tensor:
#      x y z
#    x 1.633050 0.000000 0.000000 
#    y 0.000000 1.647180 0.000000 
#    z 0.000000 0.000000 1.674280 
# 
# From -- ./inp_files/18882.got.cif
#   From: 2010.05.17/outbox.cif.g08.bks.cpg/sg72_10_cif.got.tgz:18882.got - 2010.06.03 17:03:01.
