data_PCOD9528285
_publ_section_title
;
Structure prediction by ZEFSAII (Michael W. Deem and Ramdas Pophale) SiO2 
 PCOD9528285
Probable space group: I B A M
;
_chemical_formula_sum "Si O2"
_cell_formula_units_Z 72
_cell_length_a 5.643291
_cell_length_b 22.018715
_cell_length_c 26.316782
_cell_angle_alpha 90.000000
_cell_angle_beta 90.000000
_cell_angle_gamma 90.000000
_cell_volume 3270.071124
_symmetry_space_group_name_H-M "I B A M"
_symmetry_group_IT_number 72
_symmetry_cell_setting 'orthorhombic'
loop_
_space_group_symop_operation_xyz
x,y,z
-x,-y,z
x,-y,1/2-z
-x,y,1/2-z
-x,-y,-z
x,y,-z
-x,y,1/2+z
x,-y,1/2+z
1/2+x,1/2+y,1/2+z
1/2-x,1/2-y,1/2+z
1/2+x,1/2-y,-z
1/2-x,1/2+y,-z
1/2-x,1/2-y,1/2-z
1/2+x,1/2+y,1/2-z
1/2-x,1/2+y,z
1/2+x,1/2-y,z
loop_
_atom_site_type_symbol
_atom_site_label
_atom_site_fract_x
_atom_site_fract_y
_atom_site_fract_z
Si Si1 0.752109 0.114401 0.367364
Si Si2 0.547661 0.213772 0.559366
Si Si3 0.765229 0.226197 0.307716
Si Si4 0.882377 0.067180 0.944099
Si Si5 0.000000 0.500000 0.388775
O O1 0.589213 0.156940 0.403399
O O2 0.778605 0.154260 0.316768
O O3 0.988171 0.105745 0.401082
O O4 0.662492 0.046020 0.357279
O O5 0.555362 0.194435 0.500000
O O6 0.788017 0.255005 0.566291
O O7 0.750000 0.250000 0.250000
O O8 0.513547 0.249146 0.329733
O O9 0.627024 0.047179 0.925943
O O10 0.895642 0.095220 0.000000
O O11 0.000000 0.000000 0.946447
#
# Coordination Sequence:
#
# PCOD9528285 Si02
#       5
#    16  16  16  16   8
#     4  11  22  37  62  91 129 170 223 275 334 399
#     4  10  22  37  55  85 124 169 216 267 319 372
#     4  10  23  43  71 103 125 162 216 280 347 411
#     4   9  19  35  53  84 127 177 226 264 311 377
#     4  10  23  36  58  93 128 184 226 274 326 394
#
# _framework density 22.017869999999998
#
# number of rings (size 3 to 8) (size 9 to 14) (size 15 to 20)
#    0.000    2.000    0.000    2.333    6.222    2.667 
#    0.000    0.000    0.000    2.667    0.000    0.000 
#    0.000    0.000    0.000    0.000    0.000    0.000 
#
# Total GULP energy -200618.408543 kJ/mol
# GULP energy per Si atom -5572.733571 kJ/mol
# Density = 2.196776 g / cm^3
# Si number density = 22.017870 Si / 1000 Ang^3
#
#
#
# Elastic Constant Matrix: (Units=GPa)
#
#
# Indices 1 2 3 4 5 6 
#
# 1 118.6270 31.9595 16.8519 0.0000 0.0000 0.0000
# 2 31.9595 89.0694 51.2775 0.0000 0.0000 0.0000
# 3 16.8519 51.2775 90.4550 0.0000 0.0000 0.0000
# 4 0.0000 0.0000 0.0000 35.3536 0.0000 0.0000
# 5 0.0000 0.0000 0.0000 0.0000 8.9928 0.0000
# 6 0.0000 0.0000 0.0000 0.0000 0.0000 51.1321
#
#
#
# Elastic Compliance Matrix: (Units=1/GPa)
#
#
# Indices 1 2 3 4 5 6 
#
# 1 0.009335 -0.003486 0.000237 0.000000 0.000000 0.000000
# 2 -0.003486 0.017968 -0.009536 0.000000 0.000000 0.000000
# 3 0.000237 -0.009536 0.016417 0.000000 0.000000 0.000000
# 4 0.000000 0.000000 0.000000 0.028286 0.000000 0.000000
# 5 0.000000 0.000000 0.000000 0.000000 0.111200 0.000000
# 6 0.000000 0.000000 0.000000 0.000000 0.000000 0.019557
#
#
# Mechanical properties :
#
#
# Convention : Reuss Voigt Hill
#
# Bulk Modulus (GPa) = 55.09754 55.36991 55.23372
# Shear Modulus (GPa) = 21.33244 32.29985 26.81615
#
# Velocity S-wave (km/s) = 3.11604 3.83428 3.49367
# Velocity P-wave (km/s) = 6.16641 6.69362 6.43542
#
# Compressibility (1/GPa) = 0.01814963
#
# Stress axis : x y z
#
# Youngs Moduli (GPa) = 107.12013 55.65376 60.91202
#
# Poissons Ratio (x) = 0.19402 -0.01444
# Poissons Ratio (y) = 0.37343 0.58088
# Poissons Ratio (z) = -0.02539 0.53074
#
# Static dielectric constant tensor:
#      x y z
#    x 2.009680 0.000000 0.000000 
#    y 0.000000 1.876730 0.000000 
#    z 0.000000 0.000000 0.514650 
# 
# From -- ./inp_files/46648.got.cif
#   From: 2010.05.17/outbox.cif.g08.bks.cpg/sg72_24_cif.got.tgz:46648.got - 2010.06.03 17:03:01.
