data_PCOD9528243
_publ_section_title
;
Structure prediction by ZEFSAII (Michael W. Deem and Ramdas Pophale) SiO2 
 PCOD9528243
Probable space group: I B A M
;
_chemical_formula_sum "Si O2"
_cell_formula_units_Z 64
_cell_length_a 16.193241
_cell_length_b 7.451751
_cell_length_c 24.102258
_cell_angle_alpha 90.000000
_cell_angle_beta 90.000000
_cell_angle_gamma 90.000000
_cell_volume 2908.371264
_symmetry_space_group_name_H-M "I B A M"
_symmetry_group_IT_number 72
_symmetry_cell_setting 'orthorhombic'
loop_
_space_group_symop_operation_xyz
x,y,z
-x,-y,z
x,-y,1/2-z
-x,y,1/2-z
-x,-y,-z
x,y,-z
-x,y,1/2+z
x,-y,1/2+z
1/2+x,1/2+y,1/2+z
1/2-x,1/2-y,1/2+z
1/2+x,1/2-y,-z
1/2-x,1/2+y,-z
1/2-x,1/2-y,1/2-z
1/2+x,1/2+y,1/2-z
1/2-x,1/2+y,z
1/2+x,1/2-y,z
loop_
_atom_site_type_symbol
_atom_site_label
_atom_site_fract_x
_atom_site_fract_y
_atom_site_fract_z
Si Si1 0.175500 0.441162 0.691663
Si Si2 0.025965 0.290453 0.061997
Si Si3 0.566677 0.631521 0.831221
Si Si4 0.328226 0.304028 0.368410
O O1 0.217342 0.500000 0.750000
O O2 0.398018 0.800438 0.701911
O O3 0.231833 0.340065 0.645279
O O4 0.146842 0.629460 0.666889
O O5 0.122626 0.243263 0.074977
O O6 0.000000 0.500000 0.064007
O O7 0.974528 0.201511 0.111647
O O8 0.005570 0.226599 0.000000
O O9 0.500000 0.500000 0.805041
O O10 0.637540 0.491772 0.846759
#
# Coordination Sequence:
#
# PCOD9528243 Si02
#       4
#    16  16  16  16
#     4  12  24  42  68  95 140 182 219 275 337 392
#     4  10  21  43  70  93 130 176 218 283 351 396
#     4  10  23  41  65  98 133 174 223 276 330 401
#     4  11  23  40  66  98 129 175 227 271 329 411
#
# _framework density 22.005445000000002
#
# number of rings (size 3 to 8) (size 9 to 14) (size 15 to 20)
#    0.000    1.250    5.000    0.750    0.000    4.500 
#    0.000   16.250    0.000    0.000    0.000    0.000 
#    0.000    0.000    0.000    0.000    0.000    0.000 
#
# Total GULP energy -178194.059590 kJ/mol
# GULP energy per Si atom -5568.564362 kJ/mol
# Density = 2.195536 g / cm^3
# Si number density = 22.005445 Si / 1000 Ang^3
#
#
#
# Elastic Constant Matrix: (Units=GPa)
#
#
# Indices 1 2 3 4 5 6 
#
# 1 63.2720 28.0777 30.1476 0.0000 0.0000 0.0000
# 2 28.0777 159.3365 43.9367 0.0000 0.0000 0.0000
# 3 30.1476 43.9367 90.3337 0.0000 0.0000 0.0000
# 4 0.0000 0.0000 0.0000 -0.5094 0.0000 0.0000
# 5 0.0000 0.0000 0.0000 0.0000 28.5523 0.0000
# 6 0.0000 0.0000 0.0000 0.0000 0.0000 37.8186
#
#
#
# Elastic Compliance Matrix: (Units=1/GPa)
#
#
# Indices 1 2 3 4 5 6 
#
# 1 0.019265 -0.001873 -0.005519 0.000000 0.000000 0.000000
# 2 -0.001873 0.007430 -0.002989 0.000000 0.000000 0.000000
# 3 -0.005519 -0.002989 0.014365 0.000000 0.000000 0.000000
# 4 0.000000 0.000000 0.000000 -1.963213 0.000000 0.000000
# 5 0.000000 0.000000 0.000000 0.000000 0.035023 0.000000
# 6 0.000000 0.000000 0.000000 0.000000 0.000000 0.026442
#
#
# Mechanical properties :
#
#
# Convention : Reuss Voigt Hill
#
# Bulk Modulus (GPa) = 49.26044 57.47401 53.36723
# Shear Modulus (GPa) = -2.72753 27.22432 12.24839
#
# Velocity S-wave (km/s) = -1.11453 3.52115 2.36181
# Velocity P-wave (km/s) = 4.55828 6.53499 5.63401
#
# Compressibility (1/GPa) = 0.02030026
#
# Stress axis : x y z
#
# Youngs Moduli (GPa) = 51.90636 134.58474 69.61125
#
# Poissons Ratio (x) = 0.25210 0.38415
# Poissons Ratio (y) = 0.09723 0.20805
# Poissons Ratio (z) = 0.28645 0.40225
#
# Static dielectric constant tensor:
#      x y z
#    x 1.864690 0.000000 0.000000 
#    y 0.000000 1.761700 0.000000 
#    z 0.000000 0.000000 1.806280 
# 
# From -- ./inp_files/38630.got.cif
#   From: 2010.05.17/outbox.cif.g08.bks.cpg/sg72_20_cif.got.tgz:38630.got - 2010.06.03 17:03:01.
