data_PCOD9528080
_publ_section_title
;
Structure prediction by ZEFSAII (Michael W. Deem and Ramdas Pophale) SiO2 
 PCOD9528080
Probable space group: I B A M
;
_chemical_formula_sum "Si O2"
_cell_formula_units_Z 68
_cell_length_a 4.849226
_cell_length_b 31.500384
_cell_length_c 18.042444
_cell_angle_alpha 90.000000
_cell_angle_beta 90.000000
_cell_angle_gamma 90.000000
_cell_volume 2756.028086
_symmetry_space_group_name_H-M "I B A M"
_symmetry_group_IT_number 72
_symmetry_cell_setting 'orthorhombic'
loop_
_space_group_symop_operation_xyz
x,y,z
-x,-y,z
x,-y,1/2-z
-x,y,1/2-z
-x,-y,-z
x,y,-z
-x,y,1/2+z
x,-y,1/2+z
1/2+x,1/2+y,1/2+z
1/2-x,1/2-y,1/2+z
1/2+x,1/2-y,-z
1/2-x,1/2+y,-z
1/2-x,1/2-y,1/2-z
1/2+x,1/2+y,1/2-z
1/2-x,1/2+y,z
1/2+x,1/2-y,z
loop_
_atom_site_type_symbol
_atom_site_label
_atom_site_fract_x
_atom_site_fract_y
_atom_site_fract_z
Si Si1 0.253901 0.403754 0.698290
Si Si2 0.103026 0.643021 0.584190
Si Si3 0.443940 0.275417 0.089936
Si Si4 0.500000 0.000000 0.500000
Si Si5 0.052513 0.055724 0.422801
O O1 0.500000 0.387644 0.750000
O O2 0.138792 0.369440 0.639886
O O3 0.627860 0.442519 0.850055
O O4 0.000000 0.416044 0.750000
O O5 0.001396 0.652395 0.500000
O O6 0.292903 0.681480 0.611316
O O7 0.290354 0.600852 0.578966
O O8 0.250585 0.235954 0.113578
O O9 0.448721 0.276564 0.000000
O O10 0.710036 0.978232 0.436544
O O11 0.869350 0.054493 0.500000
#
# Coordination Sequence:
#
# PCOD9528080 Si02
#       5
#    16  16  16   4  16
#     4  12  24  41  67 102 147 193 241 288 355 439
#     4  10  21  39  69 101 137 187 246 297 358 430
#     4   9  19  33  55  94 136 173 226 302 365 413
#     4   8  20  44  78 114 150 168 244 314 368 422
#     4   9  20  42  71 113 140 187 239 304 359 437
#
# _framework density 24.673186999999999
#
# number of rings (size 3 to 8) (size 9 to 14) (size 15 to 20)
#    0.706    1.412    2.353    0.706    3.294    0.000 
#    0.000    2.353    0.000    8.471    0.000    0.000 
#    0.000    0.000    0.000    0.000    0.000    0.000 
#
# Total GULP energy -189791.612790 kJ/mol
# GULP energy per Si atom -5582.106259 kJ/mol
# Density = 2.461703 g / cm^3
# Si number density = 24.673187 Si / 1000 Ang^3
#
#
#
# Elastic Constant Matrix: (Units=GPa)
#
#
# Indices 1 2 3 4 5 6 
#
# 1 136.1018 24.2740 62.9963 0.0000 0.0000 0.0000
# 2 24.2740 104.6449 19.0761 0.0000 0.0000 0.0000
# 3 62.9963 19.0761 121.5981 0.0000 0.0000 0.0000
# 4 0.0000 0.0000 0.0000 6.8235 0.0000 0.0000
# 5 0.0000 0.0000 0.0000 0.0000 54.6161 0.0000
# 6 0.0000 0.0000 0.0000 0.0000 0.0000 43.3467
#
#
#
# Elastic Compliance Matrix: (Units=1/GPa)
#
#
# Indices 1 2 3 4 5 6 
#
# 1 0.009859 -0.001396 -0.004889 0.000000 0.000000 0.000000
# 2 -0.001396 0.010035 -0.000851 0.000000 0.000000 0.000000
# 3 -0.004889 -0.000851 0.010890 0.000000 0.000000 0.000000
# 4 0.000000 0.000000 0.000000 0.146552 0.000000 0.000000
# 5 0.000000 0.000000 0.000000 0.000000 0.018310 0.000000
# 6 0.000000 0.000000 0.000000 0.000000 0.000000 0.023070
#
#
# Mechanical properties :
#
#
# Convention : Reuss Voigt Hill
#
# Bulk Modulus (GPa) = 60.55891 63.89308 62.22599
# Shear Modulus (GPa) = 20.96510 38.02384 29.49447
#
# Velocity S-wave (km/s) = 2.91814 3.92994 3.46121
# Velocity P-wave (km/s) = 5.99598 6.82236 6.42247
#
# Compressibility (1/GPa) = 0.01651285
#
# Stress axis : x y z
#
# Youngs Moduli (GPa) = 101.42782 99.65061 91.82666
#
# Poissons Ratio (x) = 0.13909 0.44892
# Poissons Ratio (y) = 0.14157 0.07816
# Poissons Ratio (z) = 0.49586 0.08482
#
# Static dielectric constant tensor:
#      x y z
#    x 1.847460 0.000000 0.000000 
#    y 0.000000 1.983190 0.000000 
#    z 0.000000 0.000000 1.977070 
# 
# From -- ./inp_files/34932.got.cif
#   From: 2010.05.17/outbox.cif.g08.bks.cpg/sg72_18_cif.got.tgz:34932.got - 2010.06.03 17:03:01.
