data_PCOD9528103
_publ_section_title
;
Structure prediction by ZEFSAII (Michael W. Deem and Ramdas Pophale) SiO2 
 PCOD9528103
Probable space group: I B A M
;
_chemical_formula_sum "Si O2"
_cell_formula_units_Z 96
_cell_length_a 15.293300
_cell_length_b 14.442248
_cell_length_c 22.241515
_cell_angle_alpha 90.000000
_cell_angle_beta 90.000000
_cell_angle_gamma 90.000000
_cell_volume 4912.475218
_symmetry_space_group_name_H-M "I B A M"
_symmetry_group_IT_number 72
_symmetry_cell_setting 'orthorhombic'
loop_
_space_group_symop_operation_xyz
x,y,z
-x,-y,z
x,-y,1/2-z
-x,y,1/2-z
-x,-y,-z
x,y,-z
-x,y,1/2+z
x,-y,1/2+z
1/2+x,1/2+y,1/2+z
1/2-x,1/2-y,1/2+z
1/2+x,1/2-y,-z
1/2-x,1/2+y,-z
1/2-x,1/2-y,1/2-z
1/2+x,1/2+y,1/2-z
1/2-x,1/2+y,z
1/2+x,1/2-y,z
loop_
_atom_site_type_symbol
_atom_site_label
_atom_site_fract_x
_atom_site_fract_y
_atom_site_fract_z
Si Si1 0.833129 0.844370 0.359740
Si Si2 0.037265 0.722547 0.928442
Si Si3 0.858096 0.656013 0.130188
Si Si4 0.602287 0.719055 0.268270
Si Si5 0.102274 0.526491 0.932181
Si Si6 0.901641 0.027010 0.320438
O O1 0.915094 0.807966 0.397536
O O2 0.740100 0.813706 0.385865
O O3 0.845221 0.803324 0.292360
O O4 0.838891 0.955829 0.354207
O O5 0.098137 0.633209 0.913333
O O6 0.939697 0.701861 0.904797
O O7 0.034410 0.730542 0.000000
O O8 0.873390 0.685705 0.199194
O O9 0.861463 0.547396 0.114509
O O10 0.500000 0.717326 0.250000
O O11 0.615640 0.636336 0.317179
O O12 0.000000 0.500000 0.937459
O O13 0.139943 0.516501 0.000000
O O14 0.897662 0.000000 0.250000
O O15 0.000000 0.000000 0.339857
#
# Coordination Sequence:
#
# PCOD9528103 Si02
#       6
#    16  16  16  16  16  16
#     4  11  22  35  60  92 116 154 203 243 291 351
#     4  10  21  40  63  84 117 160 199 244 301 353
#     4  11  21  35  59  88 120 151 201 249 287 348
#     4  11  19  37  61  85 119 163 194 231 298 364
#     4   8  17  36  59  77 105 155 198 232 292 352
#     4   9  15  32  57  77 105 153 193 221 276 355
#
# _framework density 19.542083999999999
#
# number of rings (size 3 to 8) (size 9 to 14) (size 15 to 20)
#    0.000    2.000    5.000    2.000    0.000    2.667 
#    0.000    2.500    0.000    5.500    0.000    0.000 
#    0.000    0.000    0.000    0.000    0.000    0.000 
#
# Total GULP energy -267395.912810 kJ/mol
# GULP energy per Si atom -5570.748184 kJ/mol
# Density = 1.949761 g / cm^3
# Si number density = 19.542084 Si / 1000 Ang^3
#
#
#
# Elastic Constant Matrix: (Units=GPa)
#
#
# Indices 1 2 3 4 5 6 
#
# 1 112.6629 26.6138 31.5311 0.0000 0.0000 0.0000
# 2 26.6138 72.2547 33.4546 0.0000 0.0000 0.0000
# 3 31.5311 33.4546 50.2038 0.0000 0.0000 0.0000
# 4 0.0000 0.0000 0.0000 19.8324 0.0000 0.0000
# 5 0.0000 0.0000 0.0000 0.0000 -9.7808 0.0000
# 6 0.0000 0.0000 0.0000 0.0000 0.0000 15.9103
#
#
#
# Elastic Compliance Matrix: (Units=1/GPa)
#
#
# Indices 1 2 3 4 5 6 
#
# 1 0.010842 -0.001216 -0.005999 0.000000 0.000000 0.000000
# 2 -0.001216 0.020152 -0.012665 0.000000 0.000000 0.000000
# 3 -0.005999 -0.012665 0.032127 0.000000 0.000000 0.000000
# 4 0.000000 0.000000 0.000000 0.050423 0.000000 0.000000
# 5 0.000000 0.000000 0.000000 0.000000 -0.102241 0.000000
# 6 0.000000 0.000000 0.000000 0.000000 0.000000 0.062853
#
#
# Mechanical properties :
#
#
# Convention : Reuss Voigt Hill
#
# Bulk Modulus (GPa) = 42.80825 46.48006 44.64415
# Shear Modulus (GPa) = 41.08400 14.76049 27.92224
#
# Velocity S-wave (km/s) = 4.59010 2.75129 3.78408
# Velocity P-wave (km/s) = 7.07426 5.82486 6.47975
#
# Compressibility (1/GPa) = 0.02335998
#
# Stress axis : x y z
#
# Youngs Moduli (GPa) = 92.23120 49.62329 31.12681
#
# Poissons Ratio (x) = 0.06033 0.18675
# Poissons Ratio (y) = 0.11213 0.39423
# Poissons Ratio (z) = 0.55334 0.62849
#
# Static dielectric constant tensor:
#      x y z
#    x 1.697950 0.000000 0.000000 
#    y 0.000000 1.767900 0.000000 
#    z 0.000000 0.000000 1.670150 
# 
# From -- ./inp_files/38022.got.cif
#   From: 2010.05.17/outbox.cif.g08.bks.cpg/sg72_20_cif.got.tgz:38022.got - 2010.06.03 17:03:01.
