data_PCOD9528623
_publ_section_title
;
Structure prediction by ZEFSAII (Michael W. Deem and Ramdas Pophale) SiO2 
 PCOD9528623
Probable space group: I B A M
;
_chemical_formula_sum "Si O2"
_cell_formula_units_Z 56
_cell_length_a 29.373259
_cell_length_b 10.696744
_cell_length_c 8.167995
_cell_angle_alpha 90.000000
_cell_angle_beta 90.000000
_cell_angle_gamma 90.000000
_cell_volume 2566.369588
_symmetry_space_group_name_H-M "I B A M"
_symmetry_group_IT_number 72
_symmetry_cell_setting 'orthorhombic'
loop_
_space_group_symop_operation_xyz
x,y,z
-x,-y,z
x,-y,1/2-z
-x,y,1/2-z
-x,-y,-z
x,y,-z
-x,y,1/2+z
x,-y,1/2+z
1/2+x,1/2+y,1/2+z
1/2-x,1/2-y,1/2+z
1/2+x,1/2-y,-z
1/2-x,1/2+y,-z
1/2-x,1/2-y,1/2-z
1/2+x,1/2+y,1/2-z
1/2-x,1/2+y,z
1/2+x,1/2-y,z
loop_
_atom_site_type_symbol
_atom_site_label
_atom_site_fract_x
_atom_site_fract_y
_atom_site_fract_z
Si Si1 0.450220 0.644722 0.695405
Si Si2 0.752420 0.118009 0.500000
Si Si3 0.644272 0.742772 0.315992
Si Si4 0.815589 0.500000 0.750000
Si Si5 0.201562 0.855119 0.000000
O O1 0.447223 0.500000 0.750000
O O2 0.500000 0.690696 0.750000
O O3 0.446194 0.651821 0.500000
O O4 0.408033 0.713922 0.777746
O O5 0.748522 0.270743 0.500000
O O6 0.719529 0.081931 0.351932
O O7 0.787268 0.001342 0.500000
O O8 0.656007 0.696955 0.500000
O O9 0.652889 0.890985 0.319135
O O10 0.673326 0.679632 0.166441
#
# Coordination Sequence:
#
# PCOD9528623 Si02
#       5
#    16   8  16   8   8
#     4  11  22  41  66  99 138 174 216 272 337 403
#     4  10  22  44  66  89 131 179 223 290 344 398
#     4  11  22  43  68  95 131 176 223 275 339 404
#     4  10  22  44  63  88 130 174 217 278 344 388
#     4  10  24  46  64  98 135 178 232 290 341 410
#
# _framework density 21.820706000000001
#
# number of rings (size 3 to 8) (size 9 to 14) (size 15 to 20)
#    0.000    1.429    2.857    3.429    0.000    4.571 
#   10.286    0.714    0.000    3.429    0.000    0.000 
#    0.000    0.000    0.000    0.000    0.000    0.000 
#
# Total GULP energy -156193.252835 kJ/mol
# GULP energy per Si atom -5578.330458 kJ/mol
# Density = 2.177104 g / cm^3
# Si number density = 21.820706 Si / 1000 Ang^3
#
#
#
# Elastic Constant Matrix: (Units=GPa)
#
#
# Indices 1 2 3 4 5 6 
#
# 1 102.9830 87.9803 30.5180 0.0000 0.0000 0.0000
# 2 87.9803 146.8695 48.3294 0.0000 0.0000 0.0000
# 3 30.5180 48.3294 157.4895 -0.0001 0.0000 0.0000
# 4 0.0000 0.0000 -0.0001 24.1022 0.0000 0.0000
# 5 0.0000 0.0000 0.0000 0.0000 30.0301 0.0000
# 6 0.0000 0.0000 0.0000 0.0000 0.0000 39.3795
#
#
#
# Elastic Compliance Matrix: (Units=1/GPa)
#
#
# Indices 1 2 3 4 5 6 
#
# 1 0.019896 -0.011846 -0.000220 0.000000 0.000000 0.000000
# 2 -0.011846 0.014626 -0.002193 0.000000 0.000000 0.000000
# 3 -0.000220 -0.002193 0.007065 0.000000 0.000000 0.000000
# 4 0.000000 0.000000 0.000000 0.041490 0.000000 0.000000
# 5 0.000000 0.000000 0.000000 0.000000 0.033300 0.000000
# 6 0.000000 0.000000 0.000000 0.000000 0.000000 0.025394
#
#
# Mechanical properties :
#
#
# Convention : Reuss Voigt Hill
#
# Bulk Modulus (GPa) = 76.51443 82.33305 79.42374
# Shear Modulus (GPa) = 28.62936 34.73663 31.68300
#
# Velocity S-wave (km/s) = 3.62612 3.99420 3.81461
# Velocity P-wave (km/s) = 7.25761 7.68668 7.47522
#
# Compressibility (1/GPa) = 0.01306943
#
# Stress axis : x y z
#
# Youngs Moduli (GPa) = 50.26216 68.36911 141.53723
#
# Poissons Ratio (x) = 0.80989 0.03116
# Poissons Ratio (y) = 0.59540 0.31040
# Poissons Ratio (z) = 0.01107 0.14994
#
# Static dielectric constant tensor:
#      x y z
#    x 1.834350 0.000000 0.000000 
#    y 0.000000 1.799410 0.000000 
#    z 0.000000 0.000000 1.853410 
# 
# From -- ./inp_files/2566.got.cif
#   From: 2010.05.17/outbox.cif.g08.bks.cpg/sg72_2_cif.got.tgz:2566.got - 2010.06.03 17:03:01.
