data_PCOD9528864
_publ_section_title
;
Structure prediction by ZEFSAII (Michael W. Deem and Ramdas Pophale) SiO2 
 PCOD9528864
Probable space group: I B A M
;
_chemical_formula_sum "Si O2"
_cell_formula_units_Z 120
_cell_length_a 12.023061
_cell_length_b 19.979948
_cell_length_c 24.416028
_cell_angle_alpha 90.000000
_cell_angle_beta 90.000000
_cell_angle_gamma 90.000000
_cell_volume 5865.221508
_symmetry_space_group_name_H-M "I B A M"
_symmetry_group_IT_number 72
_symmetry_cell_setting 'orthorhombic'
loop_
_space_group_symop_operation_xyz
x,y,z
-x,-y,z
x,-y,1/2-z
-x,y,1/2-z
-x,-y,-z
x,y,-z
-x,y,1/2+z
x,-y,1/2+z
1/2+x,1/2+y,1/2+z
1/2-x,1/2-y,1/2+z
1/2+x,1/2-y,-z
1/2-x,1/2+y,-z
1/2-x,1/2-y,1/2-z
1/2+x,1/2+y,1/2-z
1/2-x,1/2+y,z
1/2+x,1/2-y,z
loop_
_atom_site_type_symbol
_atom_site_label
_atom_site_fract_x
_atom_site_fract_y
_atom_site_fract_z
Si Si1 0.222689 0.232092 0.000000
Si Si2 0.132927 0.658677 0.911934
Si Si3 0.981215 0.080361 0.563189
Si Si4 0.338568 0.344331 0.342961
Si Si5 0.630497 0.427392 0.737644
Si Si6 0.872235 0.505549 0.436918
Si Si7 0.392468 0.786348 0.894240
Si Si8 0.792015 0.899164 0.615426
O O1 0.314366 0.211407 0.953118
O O2 0.133059 0.250885 0.951768
O O3 0.210865 0.663412 0.859512
O O4 0.151695 0.584280 0.935620
O O5 0.005774 0.672813 0.899378
O O6 0.942478 0.093992 0.500000
O O7 0.104172 0.110184 0.574104
O O8 0.899608 0.108047 0.610857
O O9 0.000000 0.000000 0.568516
O O10 0.336072 0.374023 0.282848
O O11 0.397278 0.272620 0.349662
O O12 0.682368 0.500000 0.750000
O O13 0.500000 0.432884 0.750000
O O14 0.655871 0.409803 0.675239
O O15 0.868857 0.480856 0.500000
O O16 0.782326 0.462780 0.403560
O O17 0.000000 0.500000 0.417044
O O18 0.291277 0.837084 0.884163
#
# Coordination Sequence:
#
# PCOD9528864 Si02
#       8
#     8  16  16  16  16  16  16  16
#     4  10  24  38  65  93 134 190 228 266 340 430
#     4  11  22  44  65  95 144 182 232 290 350 435
#     4  11  24  41  67 105 141 174 230 296 358 418
#     4  11  26  42  70  98 133 187 233 290 358 420
#     4  11  23  45  74 100 130 178 243 305 359 420
#     4  11  22  38  67 103 143 188 229 287 364 432
#     4  11  27  42  64 103 142 187 233 283 360 446
#     4  12  25  43  71 102 141 181 240 302 355 436
#
# _framework density 20.459585000000001
#
# number of rings (size 3 to 8) (size 9 to 14) (size 15 to 20)
#    0.000    0.933    3.333    3.200    9.333    1.600 
#    0.000    0.667    0.000    0.000    0.000    0.000 
#    0.000    0.000    0.000    0.000    0.000    0.000 
#
# Total GULP energy -334260.243807 kJ/mol
# GULP energy per Si atom -5571.004063 kJ/mol
# Density = 2.041302 g / cm^3
# Si number density = 20.459585 Si / 1000 Ang^3
#
#
#
# Elastic Constant Matrix: (Units=GPa)
#
#
# Indices 1 2 3 4 5 6 
#
# 1 96.6795 12.2998 24.8980 0.0000 0.0000 0.0000
# 2 12.2998 79.6887 24.6998 0.0000 0.0000 0.0000
# 3 24.8980 24.6998 98.7549 0.0000 0.0000 0.0000
# 4 0.0000 0.0000 0.0000 23.0232 0.0000 0.0000
# 5 0.0000 0.0000 0.0000 0.0000 -31.9683 0.0000
# 6 0.0000 0.0000 0.0000 0.0000 0.0000 27.9932
#
#
#
# Elastic Compliance Matrix: (Units=1/GPa)
#
#
# Indices 1 2 3 4 5 6 
#
# 1 0.011123 -0.000919 -0.002575 0.000000 0.000000 0.000000
# 2 -0.000919 0.013679 -0.003190 0.000000 0.000000 0.000000
# 3 -0.002575 -0.003190 0.011573 0.000000 0.000000 0.000000
# 4 0.000000 0.000000 0.000000 0.043434 0.000000 0.000000
# 5 0.000000 0.000000 0.000000 0.000000 -0.031281 0.000000
# 6 0.000000 0.000000 0.000000 0.000000 0.000000 0.035723
#
#
# Mechanical properties :
#
#
# Convention : Reuss Voigt Hill
#
# Bulk Modulus (GPa) = 43.46062 44.32427 43.89245
# Shear Modulus (GPa) = 47.48871 18.02465 32.75668
#
# Velocity S-wave (km/s) = 4.82300 2.97136 4.00564
# Velocity P-wave (km/s) = 7.23211 5.78648 6.54931
#
# Compressibility (1/GPa) = 0.02300933
#
# Stress axis : x y z
#
# Youngs Moduli (GPa) = 89.90061 73.10309 86.40828
#
# Poissons Ratio (x) = 0.06717 0.22247
# Poissons Ratio (y) = 0.08261 0.27562
# Poissons Ratio (z) = 0.23146 0.23318
#
# Static dielectric constant tensor:
#      x y z
#    x 1.594650 0.000000 0.000000 
#    y 0.000000 1.791690 0.000000 
#    z 0.000000 0.000000 1.705560 
# 
# From -- ./inp_files/43589.got.cif
#   From: 2010.05.17/outbox.cif.g08.bks.cpg/sg72_22_cif.got.tgz:43589.got - 2010.06.03 17:03:01.
