data_PCOD9528344
_publ_section_title
;
Structure prediction by ZEFSAII (Michael W. Deem and Ramdas Pophale) SiO2 
 PCOD9528344
Probable space group: I B A M
;
_chemical_formula_sum "Si O2"
_cell_formula_units_Z 64
_cell_length_a 37.047504
_cell_length_b 5.070244
_cell_length_c 14.530363
_cell_angle_alpha 90.000000
_cell_angle_beta 90.000000
_cell_angle_gamma 90.000000
_cell_volume 2729.381713
_symmetry_space_group_name_H-M "I B A M"
_symmetry_group_IT_number 72
_symmetry_cell_setting 'orthorhombic'
loop_
_space_group_symop_operation_xyz
x,y,z
-x,-y,z
x,-y,1/2-z
-x,y,1/2-z
-x,-y,-z
x,y,-z
-x,y,1/2+z
x,-y,1/2+z
1/2+x,1/2+y,1/2+z
1/2-x,1/2-y,1/2+z
1/2+x,1/2-y,-z
1/2-x,1/2+y,-z
1/2-x,1/2-y,1/2-z
1/2+x,1/2+y,1/2-z
1/2-x,1/2+y,z
1/2+x,1/2-y,z
loop_
_atom_site_type_symbol
_atom_site_label
_atom_site_fract_x
_atom_site_fract_y
_atom_site_fract_z
Si Si1 0.914353 0.998343 0.137930
Si Si2 0.154087 0.746362 0.811108
Si Si3 0.228462 0.467119 0.610677
Si Si4 0.958492 0.490297 0.862181
O O1 0.874950 0.123219 0.118868
O O2 0.943069 0.212303 0.108143
O O3 0.913755 0.000000 0.250000
O O4 0.930226 0.717723 0.108822
O O5 0.138023 0.500000 0.750000
O O6 0.189492 0.620317 0.854951
O O7 0.164594 0.000000 0.750000
O O8 0.227446 0.465364 0.500000
O O9 0.241587 0.754195 0.640494
O O10 0.959048 0.500000 0.750000
O O11 0.000000 0.500000 0.891750
#
# Coordination Sequence:
#
# PCOD9528344 Si02
#       4
#    16  16  16  16
#     4   9  16  26  38  60  93 124 158 199 243 288
#     4  11  21  33  52  77 105 136 171 214 264 314
#     4  10  22  39  56  75 102 135 172 217 264 311
#     4   9  15  23  37  57  87 128 165 192 232 292
#
# _framework density 23.448536000000001
#
# number of rings (size 3 to 8) (size 9 to 14) (size 15 to 20)
#    0.000    2.250    0.000    6.000    0.000    6.000 
#    0.000    0.000    0.000    0.000    0.000    0.000 
#    0.000    6.000    0.000    0.000    0.000   72.000 
#
# Total GULP energy -178696.695971 kJ/mol
# GULP energy per Si atom -5584.271749 kJ/mol
# Density = 2.339517 g / cm^3
# Si number density = 23.448536 Si / 1000 Ang^3
#
#
#
# Elastic Constant Matrix: (Units=GPa)
#
#
# Indices 1 2 3 4 5 6 
#
# 1 110.5332 -9.6084 5.3618 0.0000 0.0000 0.0000
# 2 -9.6084 105.0748 4.9691 0.0000 0.0000 0.0000
# 3 5.3618 4.9691 74.5332 0.0000 0.0000 0.0000
# 4 0.0000 0.0000 0.0000 -7.4279 0.0000 0.0000
# 5 0.0000 0.0000 0.0000 0.0000 -63.6385 0.0000
# 6 0.0000 0.0000 0.0000 0.0000 0.0000 45.8154
#
#
#
# Elastic Compliance Matrix: (Units=1/GPa)
#
#
# Indices 1 2 3 4 5 6 
#
# 1 0.009158 0.000871 -0.000717 0.000000 0.000000 0.000000
# 2 0.000871 0.009630 -0.000705 0.000000 0.000000 0.000000
# 3 -0.000717 -0.000705 0.013515 0.000000 0.000000 0.000000
# 4 0.000000 0.000000 0.000000 -0.134627 0.000000 0.000000
# 5 0.000000 0.000000 0.000000 0.000000 -0.015714 0.000000
# 6 0.000000 0.000000 0.000000 0.000000 0.000000 0.021827
#
#
# Mechanical properties :
#
#
# Convention : Reuss Voigt Hill
#
# Bulk Modulus (GPa) = 32.04879 32.39848 32.22364
# Shear Modulus (GPa) = -59.02493 14.24436 -22.39028
#
# Velocity S-wave (km/s) = -5.02263 2.46737 -3.09345
# Velocity P-wave (km/s) = 4.46523 4.68658 1.00642
#
# Compressibility (1/GPa) = 0.03120242
#
# Stress axis : x y z
#
# Youngs Moduli (GPa) = 109.19928 103.84187 73.98972
#
# Poissons Ratio (x) = -0.09048 0.05304
# Poissons Ratio (y) = -0.09514 0.05214
# Poissons Ratio (z) = 0.07828 0.07318
#
# Static dielectric constant tensor:
#      x y z
#    x 1.899900 0.000000 0.000000 
#    y 0.000000 1.836890 0.000000 
#    z 0.000000 0.000000 1.985560 
# 
# From -- ./inp_files/27031.got.cif
#   From: 2010.05.17/outbox.cif.g08.bks.cpg/sg72_14_cif.got.tgz:27031.got - 2010.06.03 17:03:01.
