data_PCOD9528121
_publ_section_title
;
Structure prediction by ZEFSAII (Michael W. Deem and Ramdas Pophale) SiO2 
 PCOD9528121
Probable space group: I B A M
;
_chemical_formula_sum "Si O2"
_cell_formula_units_Z 96
_cell_length_a 12.396386
_cell_length_b 16.089415
_cell_length_c 22.616595
_cell_angle_alpha 90.000000
_cell_angle_beta 90.000000
_cell_angle_gamma 90.000000
_cell_volume 4510.893417
_symmetry_space_group_name_H-M "I B A M"
_symmetry_group_IT_number 72
_symmetry_cell_setting 'orthorhombic'
loop_
_space_group_symop_operation_xyz
x,y,z
-x,-y,z
x,-y,1/2-z
-x,y,1/2-z
-x,-y,-z
x,y,-z
-x,y,1/2+z
x,-y,1/2+z
1/2+x,1/2+y,1/2+z
1/2-x,1/2-y,1/2+z
1/2+x,1/2-y,-z
1/2-x,1/2+y,-z
1/2-x,1/2-y,1/2-z
1/2+x,1/2+y,1/2-z
1/2-x,1/2+y,z
1/2+x,1/2-y,z
loop_
_atom_site_type_symbol
_atom_site_label
_atom_site_fract_x
_atom_site_fract_y
_atom_site_fract_z
Si Si1 0.823945 0.839975 0.612381
Si Si2 0.598265 0.848823 0.434903
Si Si3 0.434974 0.650106 0.935108
Si Si4 0.871319 0.903154 0.740768
Si Si5 0.246482 0.842117 0.347457
Si Si6 0.975134 0.403922 0.184301
O O1 0.723880 0.871230 0.573683
O O2 0.831154 0.881373 0.676062
O O3 0.794951 0.742965 0.625554
O O4 0.941062 0.855655 0.584522
O O5 0.559380 0.880043 0.500000
O O6 0.586777 0.749123 0.437423
O O7 0.539738 0.871987 0.373437
O O8 0.342756 0.618152 0.890978
O O9 0.421008 0.613661 0.000000
O O10 0.818112 0.837975 0.786066
O O11 0.000000 0.896415 0.750000
O O12 0.842232 0.000000 0.750000
O O13 0.350458 0.895045 0.331825
O O14 0.000000 0.500000 0.189095
O O15 0.000000 0.365580 0.250000
#
# Coordination Sequence:
#
# PCOD9528121 Si02
#       6
#    16  16  16  16  16  16
#     4  11  21  40  65  96 126 164 216 268 322 389
#     4  10  22  40  63  92 127 170 212 261 324 389
#     4  10  21  40  64  93 125 163 214 273 321 376
#     4  11  24  40  64  92 130 169 212 270 333 391
#     4  11  23  40  65  95 126 169 216 265 322 394
#     4  11  25  42  64  95 133 172 212 267 331 391
#
# _framework density 21.281815999999999
#
# number of rings (size 3 to 8) (size 9 to 14) (size 15 to 20)
#    0.000    1.333    3.333    2.000    4.667    3.667 
#    0.000    0.000    0.000    1.000    0.000    0.000 
#    0.000    0.000    0.000    0.000    0.000    0.000 
#
# Total GULP energy -267775.482968 kJ/mol
# GULP energy per Si atom -5578.655895 kJ/mol
# Density = 2.123338 g / cm^3
# Si number density = 21.281816 Si / 1000 Ang^3
#
#
#
# Elastic Constant Matrix: (Units=GPa)
#
#
# Indices 1 2 3 4 5 6 
#
# 1 148.2257 1.9686 62.9068 0.0000 0.0000 0.0000
# 2 1.9686 -5.9378 -2.4122 0.0000 0.0000 -0.0001
# 3 62.9068 -2.4122 174.9135 0.0000 0.0000 0.0000
# 4 0.0000 0.0000 0.0000 -12.1462 0.0000 -0.0001
# 5 0.0000 0.0000 0.0000 0.0000 31.3932 0.0000
# 6 0.0000 -0.0001 0.0000 -0.0001 0.0000-1227.8943
#
#
#
# Elastic Compliance Matrix: (Units=1/GPa)
#
#
# Indices 1 2 3 4 5 6 
#
# 1 0.007877 0.003742 -0.002781 0.000000 0.000000 0.000000
# 2 0.003742 -0.165698 -0.003631 0.000000 0.000000 0.000000
# 3 -0.002781 -0.003631 0.006667 0.000000 0.000000 0.000000
# 4 0.000000 0.000000 0.000000 -0.082331 0.000000 0.000000
# 5 0.000000 0.000000 0.000000 0.000000 0.031854 0.000000
# 6 0.000000 0.000000 0.000000 0.000000 0.000000 -0.000814
#
#
# Mechanical properties :
#
#
# Convention : Reuss Voigt Hill
#
# Bulk Modulus (GPa) = -6.38998 49.12531 21.36766
# Shear Modulus (GPa) = -20.05871 -224.74689 -122.40280
#
# Velocity S-wave (km/s) = -3.07339 -10.28758 -7.59211
# Velocity P-wave (km/s) = 3.95011 10.86182 8.17259
#
# Compressibility (1/GPa) = -0.15649494
#
# Stress axis : x y z
#
# Youngs Moduli (GPa) = 126.94872 -6.03507 149.98452
#
# Poissons Ratio (x) = 0.02258 0.41717
# Poissons Ratio (y) = -0.47499 0.54456
# Poissons Ratio (z) = 0.35309 -0.02191
#
# Static dielectric constant tensor:
#      x y z
#    x 1.808970 0.000000 0.000000 
#    y 0.000000 1.758220 0.000000 
#    z 0.000000 0.000000 1.841330 
# 
# From -- ./inp_files/43354.got.cif
#   From: 2010.05.17/outbox.cif.g08.bks.cpg/sg72_22_cif.got.tgz:43354.got - 2010.06.03 17:03:01.
