data_PCOD9528685
_publ_section_title
;
Structure prediction by ZEFSAII (Michael W. Deem and Ramdas Pophale) SiO2 
 PCOD9528685
Probable space group: I B A M
;
_chemical_formula_sum "Si O2"
_cell_formula_units_Z 96
_cell_length_a 13.169663
_cell_length_b 12.727222
_cell_length_c 28.559126
_cell_angle_alpha 90.000000
_cell_angle_beta 90.000000
_cell_angle_gamma 90.000000
_cell_volume 4786.887203
_symmetry_space_group_name_H-M "I B A M"
_symmetry_group_IT_number 72
_symmetry_cell_setting 'orthorhombic'
loop_
_space_group_symop_operation_xyz
x,y,z
-x,-y,z
x,-y,1/2-z
-x,y,1/2-z
-x,-y,-z
x,y,-z
-x,y,1/2+z
x,-y,1/2+z
1/2+x,1/2+y,1/2+z
1/2-x,1/2-y,1/2+z
1/2+x,1/2-y,-z
1/2-x,1/2+y,-z
1/2-x,1/2-y,1/2-z
1/2+x,1/2+y,1/2-z
1/2-x,1/2+y,z
1/2+x,1/2-y,z
loop_
_atom_site_type_symbol
_atom_site_label
_atom_site_fract_x
_atom_site_fract_y
_atom_site_fract_z
Si Si1 0.113586 0.873506 0.000000
Si Si2 0.604112 0.459201 0.696117
Si Si3 0.235471 0.273073 0.073040
Si Si4 0.941630 0.605344 0.884035
Si Si5 0.116871 0.732211 0.844254
Si Si6 0.872852 0.874880 0.000000
Si Si7 0.825493 0.513153 0.305372
O O1 0.172587 0.823280 0.043756
O O2 0.993479 0.848897 0.000000
O O3 0.130667 0.999016 0.000000
O O4 0.500000 0.500000 0.673658
O O5 0.603246 0.500000 0.750000
O O6 0.605136 0.334538 0.687829
O O7 0.709884 0.502324 0.676556
O O8 0.147257 0.357953 0.081918
O O9 0.285612 0.243299 0.122332
O O10 0.184519 0.177450 0.044426
O O11 0.891699 0.569684 0.834616
O O12 0.000000 0.500000 0.900764
O O13 0.018427 0.701728 0.875197
O O14 0.133348 0.628331 0.814475
O O15 0.827358 0.500000 0.250000
#
# Coordination Sequence:
#
# PCOD9528685 Si02
#       7
#     8  16  16  16  16   8  16
#     4  10  24  46  69  97 129 165 202 266 328 395
#     4  10  23  39  59  94 128 173 226 269 321 371
#     4  11  23  44  67  99 130 166 213 261 330 388
#     4  10  23  41  64  99 128 173 221 263 319 382
#     4  11  24  40  67  94 132 175 218 273 322 378
#     4  10  24  44  71  99 129 163 206 262 329 408
#     4  10  23  42  63  91 132 176 223 266 318 375
#
# _framework density 20.054787000000001
#
# number of rings (size 3 to 8) (size 9 to 14) (size 15 to 20)
#    0.000    1.667    1.667    1.000    7.000    8.333 
#    3.000    0.833    0.000    0.000    0.000    0.000 
#    0.000    0.000    0.000    0.000    0.000    0.000 
#
# Total GULP energy -267888.777397 kJ/mol
# GULP energy per Si atom -5581.016196 kJ/mol
# Density = 2.000914 g / cm^3
# Si number density = 20.054787 Si / 1000 Ang^3
#
#
#
# Elastic Constant Matrix: (Units=GPa)
#
#
# Indices 1 2 3 4 5 6 
#
# 1 124.7314 40.0462 11.5589 0.0000 0.0000 0.0000
# 2 40.0462 88.1814 27.9614 0.0000 0.0000 0.0000
# 3 11.5589 27.9614 50.3420 0.0000 0.0000 0.0000
# 4 0.0000 0.0000 0.0000 11.3749 0.0000 0.0000
# 5 0.0000 0.0000 0.0000 0.0000 4.0210 0.0000
# 6 0.0000 0.0000 0.0000 0.0000 0.0000 28.0297
#
#
#
# Elastic Compliance Matrix: (Units=1/GPa)
#
#
# Indices 1 2 3 4 5 6 
#
# 1 0.009388 -0.004345 0.000258 0.000000 0.000000 0.000000
# 2 -0.004345 0.015776 -0.007765 0.000000 0.000000 0.000000
# 3 0.000258 -0.007765 0.024118 0.000000 0.000000 0.000000
# 4 0.000000 0.000000 0.000000 0.087913 0.000000 0.000000
# 5 0.000000 0.000000 0.000000 0.000000 0.248695 0.000000
# 6 0.000000 0.000000 0.000000 0.000000 0.000000 0.035676
#
#
# Mechanical properties :
#
#
# Convention : Reuss Voigt Hill
#
# Bulk Modulus (GPa) = 39.09660 46.93195 43.01428
# Shear Modulus (GPa) = 11.01816 20.93100 15.97458
#
# Velocity S-wave (km/s) = 2.34648 3.23413 2.82538
# Velocity P-wave (km/s) = 5.18445 6.11545 5.66909
#
# Compressibility (1/GPa) = 0.02557767
#
# Stress axis : x y z
#
# Youngs Moduli (GPa) = 106.51374 63.38858 41.46353
#
# Poissons Ratio (x) = 0.27545 -0.01069
# Poissons Ratio (y) = 0.46285 0.32195
# Poissons Ratio (z) = -0.02747 0.49218
#
# Static dielectric constant tensor:
#      x y z
#    x 1.759420 0.000000 0.000000 
#    y 0.000000 1.673820 0.000000 
#    z 0.000000 0.000000 1.735230 
# 
# From -- ./inp_files/51717.got.cif
#   From: 2010.05.17/outbox.cif.g08.bks.cpg/sg72_26_cif.got.tgz:51717.got - 2010.06.03 17:03:01.
