data_PCOD9528951
_publ_section_title
;
Structure prediction by ZEFSAII (Michael W. Deem and Ramdas Pophale) SiO2 
 PCOD9528951
Probable space group: I B A M
;
_chemical_formula_sum "Si O2"
_cell_formula_units_Z 36
_cell_length_a 28.134616
_cell_length_b 5.181868
_cell_length_c 10.283185
_cell_angle_alpha 90.000000
_cell_angle_beta 90.000000
_cell_angle_gamma 90.000000
_cell_volume 1499.184167
_symmetry_space_group_name_H-M "I B A M"
_symmetry_group_IT_number 72
_symmetry_cell_setting 'orthorhombic'
loop_
_space_group_symop_operation_xyz
x,y,z
-x,-y,z
x,-y,1/2-z
-x,y,1/2-z
-x,-y,-z
x,y,-z
-x,y,1/2+z
x,-y,1/2+z
1/2+x,1/2+y,1/2+z
1/2-x,1/2-y,1/2+z
1/2+x,1/2-y,-z
1/2-x,1/2+y,-z
1/2-x,1/2-y,1/2-z
1/2+x,1/2+y,1/2-z
1/2-x,1/2+y,z
1/2+x,1/2-y,z
loop_
_atom_site_type_symbol
_atom_site_label
_atom_site_fract_x
_atom_site_fract_y
_atom_site_fract_z
Si Si1 0.000000 0.000000 0.500000
Si Si2 0.838590 0.000000 0.250000
Si Si3 0.219398 0.192266 0.500000
Si Si4 0.424127 0.183989 0.639066
O O1 0.961092 0.092703 0.391185
O O2 0.808879 0.870627 0.366730
O O3 0.873629 0.795225 0.181565
O O4 0.237211 0.486377 0.500000
O O5 0.420523 0.036473 0.500000
O O6 0.442225 0.000000 0.750000
#
# Coordination Sequence:
#
# PCOD9528951 Si02
#       4
#     4   8   8  16
#     4   8  22  52  72 122 156 202 272 324 406 460
#     4  12  26  47  78 116 158 206 274 331 426 480
#     4  12  29  49  80 117 162 213 272 350 419 512
#     4  10  24  48  83 111 161 212 267 337 401 488
#
# _framework density 24.013059999999999
#
# number of rings (size 3 to 8) (size 9 to 14) (size 15 to 20)
#    1.333    0.000    2.222    1.333    9.333    0.889 
#    0.000    7.778    9.778    0.000    0.000    0.000 
#    0.000    0.000    0.000    0.000    0.000    0.000 
#
# Total GULP energy -100227.345998 kJ/mol
# GULP energy per Si atom -5568.185889 kJ/mol
# Density = 2.395841 g / cm^3
# Si number density = 24.013060 Si / 1000 Ang^3
#
#
#
# Elastic Constant Matrix: (Units=GPa)
#
#
# Indices 1 2 3 4 5 6 
#
# 1 96.1610 5.2596 51.0059 0.0000 0.0000 0.0000
# 2 5.2596 35.1989 16.7126 0.0000 0.0000 0.0000
# 3 51.0059 16.7126 218.1419 0.0000 0.0000 0.0000
# 4 0.0000 0.0000 0.0000 30.8674 0.0000 0.0000
# 5 0.0000 0.0000 0.0000 0.0000 74.7294 0.0000
# 6 0.0000 0.0000 0.0000 0.0000 0.0000 -23.3263
#
#
#
# Elastic Compliance Matrix: (Units=1/GPa)
#
#
# Indices 1 2 3 4 5 6 
#
# 1 0.011879 -0.000473 -0.002741 0.000000 0.000000 0.000000
# 2 -0.000473 0.029501 -0.002149 0.000000 0.000000 0.000000
# 3 -0.002741 -0.002149 0.005390 0.000000 0.000000 0.000000
# 4 0.000000 0.000000 0.000000 0.032397 0.000000 0.000000
# 5 0.000000 0.000000 0.000000 0.000000 0.013382 0.000000
# 6 0.000000 0.000000 0.000000 0.000000 0.000000 -0.042870
#
#
# Mechanical properties :
#
#
# Convention : Reuss Voigt Hill
#
# Bulk Modulus (GPa) = 27.74560 55.05089 41.39824
# Shear Modulus (GPa) = 69.04089 34.88903 51.96496
#
# Velocity S-wave (km/s) = 5.36785 3.81585 4.65696
# Velocity P-wave (km/s) = 7.07092 6.51072 6.79659
#
# Compressibility (1/GPa) = 0.03604175
#
# Stress axis : x y z
#
# Youngs Moduli (GPa) = 84.18094 33.89684 185.53480
#
# Poissons Ratio (x) = 0.01605 0.50861
# Poissons Ratio (y) = 0.03986 0.39880
# Poissons Ratio (z) = 0.23077 0.07286
#
# Static dielectric constant tensor:
#      x y z
#    x 1.870650 0.000000 0.000000 
#    y 0.000000 1.963190 0.000000 
#    z 0.000000 0.000000 2.004680 
# 
# From -- ./inp_files/15872.got.cif
#   From: 2010.05.17/outbox.cif.g08.bks.cpg/sg72_8_cif.got.tgz:15872.got - 2010.06.03 17:03:01.
