data_PCOD9528418
_publ_section_title
;
Structure prediction by ZEFSAII (Michael W. Deem and Ramdas Pophale) SiO2 
 PCOD9528418
Probable space group: I B A M
;
_chemical_formula_sum "Si O2"
_cell_formula_units_Z 68
_cell_length_a 13.825732
_cell_length_b 12.193429
_cell_length_c 18.806971
_cell_angle_alpha 90.000000
_cell_angle_beta 90.000000
_cell_angle_gamma 90.000000
_cell_volume 3170.537125
_symmetry_space_group_name_H-M "I B A M"
_symmetry_group_IT_number 72
_symmetry_cell_setting 'orthorhombic'
loop_
_space_group_symop_operation_xyz
x,y,z
-x,-y,z
x,-y,1/2-z
-x,y,1/2-z
-x,-y,-z
x,y,-z
-x,y,1/2+z
x,-y,1/2+z
1/2+x,1/2+y,1/2+z
1/2-x,1/2-y,1/2+z
1/2+x,1/2-y,-z
1/2-x,1/2+y,-z
1/2-x,1/2-y,1/2-z
1/2+x,1/2+y,1/2-z
1/2-x,1/2+y,z
1/2+x,1/2-y,z
loop_
_atom_site_type_symbol
_atom_site_label
_atom_site_fract_x
_atom_site_fract_y
_atom_site_fract_z
Si Si1 0.064374 0.303975 0.342929
Si Si2 0.180944 0.121641 0.255289
Si Si3 0.357999 0.892378 0.000000
Si Si4 0.833677 0.709912 0.853523
Si Si5 0.907404 0.638114 0.500000
Si Si6 0.000000 0.500000 0.750000
O O1 0.111620 0.207138 0.296745
O O2 0.107888 0.307421 0.422579
O O3 0.062559 0.421052 0.302009
O O4 0.949286 0.284784 0.348486
O O5 0.200206 0.173106 0.177554
O O6 0.279190 0.126421 0.300835
O O7 0.141955 0.000000 0.250000
O O8 0.314494 0.832646 0.931843
O O9 0.475339 0.879544 0.000000
O O10 0.349216 0.023571 0.000000
#
# Coordination Sequence:
#
# PCOD9528418 Si02
#       6
#    16  16   8  16   8   4
#     4  11  22  39  65  99 129 172 213 271 331 378
#     4  11  25  42  63  95 134 173 222 267 324 397
#     4   9  18  37  63  95 130 163 210 277 329 385
#     4  10  22  40  62  94 125 171 218 264 326 387
#     4   9  20  35  63  97 132 162 214 273 331 386
#     4  12  20  34  70  96 124 160 224 274 324 374
#
# _framework density 21.447469000000002
#
# number of rings (size 3 to 8) (size 9 to 14) (size 15 to 20)
#    0.000    1.647    2.353    2.824    1.647    6.588 
#    0.000    2.353    0.000    4.235    0.000    0.000 
#    0.000    0.000    0.000    0.000    0.000    0.000 
#
# Total GULP energy -189721.768147 kJ/mol
# GULP energy per Si atom -5580.052004 kJ/mol
# Density = 2.139865 g / cm^3
# Si number density = 21.447469 Si / 1000 Ang^3
#
#
#
# Elastic Constant Matrix: (Units=GPa)
#
#
# Indices 1 2 3 4 5 6 
#
# 1 76.4232 29.6961 41.2350 0.0000 0.0000 0.0000
# 2 29.6961 157.4601 86.8602 0.0000 0.0000 0.0000
# 3 41.2350 86.8602 195.6676 0.0000 0.0000 0.0000
# 4 0.0000 0.0000 0.0000 16.4549 0.0000 0.0000
# 5 0.0000 0.0000 0.0000 0.0000 25.8116 0.0000
# 6 0.0000 0.0000 0.0000 0.0000 0.0000 27.2152
#
#
#
# Elastic Compliance Matrix: (Units=1/GPa)
#
#
# Indices 1 2 3 4 5 6 
#
# 1 0.015006 -0.001438 -0.002524 0.000000 0.000000 0.000000
# 2 -0.001438 0.008548 -0.003492 0.000000 0.000000 0.000000
# 3 -0.002524 -0.003492 0.007193 0.000000 0.000000 0.000000
# 4 0.000000 0.000000 0.000000 0.060772 0.000000 0.000000
# 5 0.000000 0.000000 0.000000 0.000000 0.038742 0.000000
# 6 0.000000 0.000000 0.000000 0.000000 0.000000 0.036744
#
#
# Mechanical properties :
#
#
# Convention : Reuss Voigt Hill
#
# Bulk Modulus (GPa) = 63.13316 82.79261 72.96288
# Shear Modulus (GPa) = 26.71064 32.01366 29.36215
#
# Velocity S-wave (km/s) = 3.53285 3.86768 3.70405
# Velocity P-wave (km/s) = 6.79275 7.65713 7.23785
#
# Compressibility (1/GPa) = 0.01583954
#
# Stress axis : x y z
#
# Youngs Moduli (GPa) = 66.64202 116.98568 139.03084
#
# Poissons Ratio (x) = 0.16818 0.35093
# Poissons Ratio (y) = 0.09580 0.48545
# Poissons Ratio (z) = 0.16821 0.40848
#
# Static dielectric constant tensor:
#      x y z
#    x 1.854560 0.000000 0.000000 
#    y 0.000000 1.766300 0.000000 
#    z 0.000000 0.000000 1.815120 
# 
# From -- ./inp_files/36701.got.cif
#   From: 2010.05.17/outbox.cif.g08.bks.cpg/sg72_19_cif.got.tgz:36701.got - 2010.06.03 17:03:01.
