data_PCOD9528604
_publ_section_title
;
Structure prediction by ZEFSAII (Michael W. Deem and Ramdas Pophale) SiO2 
 PCOD9528604
Probable space group: I B A M
;
_chemical_formula_sum "Si O2"
_cell_formula_units_Z 48
_cell_length_a 17.581253
_cell_length_b 12.101165
_cell_length_c 10.522015
_cell_angle_alpha 90.000000
_cell_angle_beta 90.000000
_cell_angle_gamma 90.000000
_cell_volume 2238.597028
_symmetry_space_group_name_H-M "I B A M"
_symmetry_group_IT_number 72
_symmetry_cell_setting 'orthorhombic'
loop_
_space_group_symop_operation_xyz
x,y,z
-x,-y,z
x,-y,1/2-z
-x,y,1/2-z
-x,-y,-z
x,y,-z
-x,y,1/2+z
x,-y,1/2+z
1/2+x,1/2+y,1/2+z
1/2-x,1/2-y,1/2+z
1/2+x,1/2-y,-z
1/2-x,1/2+y,-z
1/2-x,1/2-y,1/2-z
1/2+x,1/2+y,1/2-z
1/2-x,1/2+y,z
1/2+x,1/2-y,z
loop_
_atom_site_type_symbol
_atom_site_label
_atom_site_fract_x
_atom_site_fract_y
_atom_site_fract_z
Si Si1 0.046692 0.614880 0.856231
Si Si2 0.093747 0.118426 0.500000
Si Si3 0.840296 0.247183 0.244444
Si Si4 0.590745 0.359911 0.000000
O O1 0.129418 0.629861 0.795900
O O2 0.000000 0.500000 0.865039
O O3 0.000000 0.682174 0.750000
O O4 0.048575 0.653206 0.000000
O O5 0.129266 0.171942 0.372231
O O6 0.001597 0.132083 0.500000
O O7 0.113995 0.988469 0.500000
O O8 0.750000 0.250000 0.250000
O O9 0.875305 0.202589 0.376518
#
# Coordination Sequence:
#
# PCOD9528604 Si02
#       4
#    16   8  16   8
#     4  10  22  43  68 100 136 190 238 281 350 442
#     4  11  23  48  73  99 132 186 251 287 350 439
#     4  12  25  44  69 107 149 184 231 307 369 421
#     4  11  25  44  77  97 132 190 245 291 348 437
#
# _framework density 21.442003
#
# number of rings (size 3 to 8) (size 9 to 14) (size 15 to 20)
#    0.000    1.000    1.667    5.000    2.333    2.667 
#   12.000    0.000    0.000    0.000    0.000    0.000 
#    0.000    0.000    0.000    0.000    0.000    0.000 
#
# Total GULP energy -133609.038130 kJ/mol
# GULP energy per Si atom -5567.043255 kJ/mol
# Density = 2.139320 g / cm^3
# Si number density = 21.442003 Si / 1000 Ang^3
#
#
#
# Elastic Constant Matrix: (Units=GPa)
#
#
# Indices 1 2 3 4 5 6 
#
# 1 178.2426 56.7991 95.4484 0.0000 0.0000 0.0000
# 2 56.7991 136.1868 61.4947 0.0000 0.0000 0.0000
# 3 95.4484 61.4947 257.4626 0.0000 0.0000 0.0000
# 4 0.0000 0.0000 0.0000 35.3352 0.0000 0.0000
# 5 0.0000 0.0000 0.0000 0.0000 -146.9730 0.0000
# 6 0.0000 0.0000 0.0000 0.0000 0.0000 26.3524
#
#
#
# Elastic Compliance Matrix: (Units=1/GPa)
#
#
# Indices 1 2 3 4 5 6 
#
# 1 0.007500 -0.002099 -0.002279 0.000000 0.000000 0.000000
# 2 -0.002099 0.008818 -0.001328 0.000000 0.000000 0.000000
# 3 -0.002279 -0.001328 0.005046 0.000000 0.000000 0.000000
# 4 0.000000 0.000000 0.000000 0.028300 0.000000 0.000000
# 5 0.000000 0.000000 0.000000 0.000000 -0.006804 0.000000
# 6 0.000000 0.000000 0.000000 0.000000 0.000000 0.037947
#
#
# Mechanical properties :
#
#
# Convention : Reuss Voigt Hill
#
# Bulk Modulus (GPa) = 100.48317 111.04182 105.76250
# Shear Modulus (GPa) = 52.33623 6.81956 29.57790
#
# Velocity S-wave (km/s) = 4.94583 1.78532 3.71811
# Velocity P-wave (km/s) = 8.92074 7.49328 8.23799
#
# Compressibility (1/GPa) = 0.00995192
#
# Stress axis : x y z
#
# Youngs Moduli (GPa) = 133.34210 113.40622 198.17063
#
# Poissons Ratio (x) = 0.23801 0.45163
# Poissons Ratio (y) = 0.27985 0.26319
# Poissons Ratio (z) = 0.30389 0.15061
#
# Static dielectric constant tensor:
#      x y z
#    x 1.823990 0.000000 0.000000 
#    y 0.000000 1.950960 0.000000 
#    z 0.000000 0.000000 1.798980 
# 
# From -- ./inp_files/12084.got.cif
#   From: 2010.05.17/outbox.cif.g08.bks.cpg/sg72_7_cif.got.tgz:12084.got - 2010.06.03 17:03:01.
