data_PCOD9528460
_publ_section_title
;
Structure prediction by ZEFSAII (Michael W. Deem and Ramdas Pophale) SiO2 
 PCOD9528460
Probable space group: I B A M
;
_chemical_formula_sum "Si O2"
_cell_formula_units_Z 104
_cell_length_a 8.852470
_cell_length_b 20.970030
_cell_length_c 25.481903
_cell_angle_alpha 90.000000
_cell_angle_beta 90.000000
_cell_angle_gamma 90.000000
_cell_volume 4730.372853
_symmetry_space_group_name_H-M "I B A M"
_symmetry_group_IT_number 72
_symmetry_cell_setting 'orthorhombic'
loop_
_space_group_symop_operation_xyz
x,y,z
-x,-y,z
x,-y,1/2-z
-x,y,1/2-z
-x,-y,-z
x,y,-z
-x,y,1/2+z
x,-y,1/2+z
1/2+x,1/2+y,1/2+z
1/2-x,1/2-y,1/2+z
1/2+x,1/2-y,-z
1/2-x,1/2+y,-z
1/2-x,1/2-y,1/2-z
1/2+x,1/2+y,1/2-z
1/2-x,1/2+y,z
1/2+x,1/2-y,z
loop_
_atom_site_type_symbol
_atom_site_label
_atom_site_fract_x
_atom_site_fract_y
_atom_site_fract_z
Si Si1 0.720219 0.897612 0.443375
Si Si2 0.312719 0.883186 0.644277
Si Si3 0.180636 0.927853 0.751641
Si Si4 0.565636 0.432268 0.939137
Si Si5 0.224479 0.831107 0.842030
Si Si6 0.500000 0.000000 0.898012
Si Si7 0.001471 0.262653 0.813537
O O1 0.663650 0.876522 0.500000
O O2 0.700719 0.849406 0.396439
O O3 0.902610 0.899306 0.444109
O O4 0.634439 0.964207 0.430444
O O5 0.232535 0.893187 0.699573
O O6 0.187981 0.895479 0.597120
O O7 0.424848 0.942992 0.634389
O O8 0.412332 0.819548 0.655465
O O9 0.234899 0.890898 0.803148
O O10 0.000000 0.929288 0.750000
O O11 0.237970 0.000000 0.750000
O O12 0.500000 0.500000 0.916421
O O13 0.620942 0.442400 0.000000
O O14 0.056833 0.803589 0.837545
O O15 0.322316 0.772588 0.822155
O O16 0.000000 0.264349 0.750000
#
# Coordination Sequence:
#
# PCOD9528460 Si02
#       7
#    16  16  16  16  16   8  16
#     4  11  24  44  71 101 141 186 235 302 368 433
#     4  12  25  42  67 100 138 186 235 294 354 429
#     4  11  25  41  68 102 137 179 227 295 361 427
#     4  10  22  40  66  99 137 184 234 288 357 435
#     4  12  26  48  68 101 138 188 241 294 356 439
#     4  12  23  42  71 104 150 180 236 304 372 440
#     4  12  27  46  70 100 138 192 240 289 361 437
#
# _framework density 21.985583999999999
#
# number of rings (size 3 to 8) (size 9 to 14) (size 15 to 20)
#    0.000    0.615    4.615    3.000    6.462    0.615 
#    0.000    1.538    0.000    0.000    0.000    0.000 
#    0.000    0.000    0.000    0.000    0.000    0.000 
#
# Total GULP energy -289925.770470 kJ/mol
# GULP energy per Si atom -5575.495586 kJ/mol
# Density = 2.193554 g / cm^3
# Si number density = 21.985584 Si / 1000 Ang^3
#
#
#
# Elastic Constant Matrix: (Units=GPa)
#
#
# Indices 1 2 3 4 5 6 
#
# 1 57.2175 24.9578 7.3657 0.0000 0.0000 0.0000
# 2 24.9578 90.6582 43.9226 0.0000 0.0000 0.0000
# 3 7.3657 43.9226 102.2670 0.0000 0.0000 0.0000
# 4 0.0000 0.0000 0.0000 9.7073 0.0000 0.0000
# 5 0.0000 0.0000 0.0000 0.0000 -135.3754 0.0000
# 6 0.0000 0.0000 0.0000 0.0000 0.0000 12.0613
#
#
#
# Elastic Compliance Matrix: (Units=1/GPa)
#
#
# Indices 1 2 3 4 5 6 
#
# 1 0.019972 -0.006063 0.001165 0.000000 0.000000 0.000000
# 2 -0.006063 0.015769 -0.006336 0.000000 0.000000 0.000000
# 3 0.001165 -0.006336 0.012416 0.000000 0.000000 0.000000
# 4 0.000000 0.000000 0.000000 0.103015 0.000000 0.000000
# 5 0.000000 0.000000 0.000000 0.000000 -0.007387 0.000000
# 6 0.000000 0.000000 0.000000 0.000000 0.000000 0.082910
#
#
# Mechanical properties :
#
#
# Convention : Reuss Voigt Hill
#
# Bulk Modulus (GPa) = 38.92594 44.73723 41.83159
# Shear Modulus (GPa) = 19.40058 -11.12824 4.13617
#
# Velocity S-wave (km/s) = 2.97378 -2.25224 1.37310
# Velocity P-wave (km/s) = 5.43460 3.69177 4.64564
#
# Compressibility (1/GPa) = 0.02568981
#
# Stress axis : x y z
#
# Youngs Moduli (GPa) = 50.07090 63.41467 80.54353
#
# Poissons Ratio (x) = 0.38447 -0.09387
# Poissons Ratio (y) = 0.30357 0.51033
# Poissons Ratio (z) = -0.05835 0.40180
#
# Static dielectric constant tensor:
#      x y z
#    x 1.601260 0.000000 0.000000 
#    y 0.000000 1.822600 0.000000 
#    z 0.000000 0.000000 2.051040 
# 
# From -- ./inp_files/47433.got.cif
#   From: 2010.05.17/outbox.cif.g08.bks.cpg/sg72_24_cif.got.tgz:47433.got - 2010.06.03 17:03:01.
