data_PCOD9528993
_publ_section_title
;
Structure prediction by ZEFSAII (Michael W. Deem and Ramdas Pophale) SiO2 
 PCOD9528993
Probable space group: I B A M
;
_chemical_formula_sum "Si O2"
_cell_formula_units_Z 112
_cell_length_a 12.158550
_cell_length_b 26.580072
_cell_length_c 20.067197
_cell_angle_alpha 90.000000
_cell_angle_beta 90.000000
_cell_angle_gamma 90.000000
_cell_volume 6485.219088
_symmetry_space_group_name_H-M "I B A M"
_symmetry_group_IT_number 72
_symmetry_cell_setting 'orthorhombic'
loop_
_space_group_symop_operation_xyz
x,y,z
-x,-y,z
x,-y,1/2-z
-x,y,1/2-z
-x,-y,-z
x,y,-z
-x,y,1/2+z
x,-y,1/2+z
1/2+x,1/2+y,1/2+z
1/2-x,1/2-y,1/2+z
1/2+x,1/2-y,-z
1/2-x,1/2+y,-z
1/2-x,1/2-y,1/2-z
1/2+x,1/2+y,1/2-z
1/2-x,1/2+y,z
1/2+x,1/2-y,z
loop_
_atom_site_type_symbol
_atom_site_label
_atom_site_fract_x
_atom_site_fract_y
_atom_site_fract_z
Si Si1 0.555043 0.444406 0.573267
Si Si2 0.678600 0.709459 0.834062
Si Si3 0.885813 0.269254 0.424028
Si Si4 0.465669 0.340477 0.611714
Si Si5 0.121635 0.944054 0.222760
Si Si6 0.054119 0.688169 0.819814
Si Si7 0.766491 0.144378 0.288559
O O1 0.500000 0.500000 0.575027
O O2 0.610029 0.440204 0.500000
O O3 0.473647 0.395629 0.577987
O O4 0.621503 0.442573 0.642646
O O5 0.767616 0.727334 0.887992
O O6 0.589115 0.670737 0.862952
O O7 0.607272 0.756683 0.810636
O O8 0.738027 0.683989 0.771914
O O9 0.879312 0.286709 0.500000
O O10 0.929667 0.211390 0.424405
O O11 0.968033 0.303129 0.379295
O O12 0.375677 0.344012 0.669721
O O13 0.213383 0.909067 0.254944
O O14 0.000000 0.927475 0.250000
O O15 0.134420 0.000000 0.250000
O O16 0.157215 0.651435 0.831965
O O17 0.000000 0.672774 0.750000
#
# Coordination Sequence:
#
# PCOD9528993 Si02
#       7
#    16  16  16  16  16  16  16
#     4  11  21  34  53  82 119 153 181 224 288 357
#     4  11  20  34  57  80 108 144 191 234 282 337
#     4  11  24  39  53  78 118 155 190 235 284 339
#     4  11  21  36  55  84 114 148 190 232 285 342
#     4  11  19  35  58  85 115 146 188 239 297 348
#     4  11  22  36  56  80 108 146 197 237 274 332
#     4  12  19  35  59  84 109 146 188 242 282 338
#
# _framework density 17.270042
#
# number of rings (size 3 to 8) (size 9 to 14) (size 15 to 20)
#    0.000    0.857    7.143    3.000    0.000    2.857 
#    0.000    0.000    0.000    0.429    0.000    0.000 
#    0.000    1.143    0.000    0.000    0.000    0.000 
#
# Total GULP energy -312125.612746 kJ/mol
# GULP energy per Si atom -5573.671656 kJ/mol
# Density = 1.723073 g / cm^3
# Si number density = 17.270042 Si / 1000 Ang^3
#
#
#
# Elastic Constant Matrix: (Units=GPa)
#
#
# Indices 1 2 3 4 5 6 
#
# 1 62.1360 15.1738 18.7032 0.0000 0.0000 0.0000
# 2 15.1738 55.4038 16.7693 0.0000 0.0000 0.0000
# 3 18.7032 16.7693 104.4610 0.0000 0.0000 0.0000
# 4 0.0000 0.0000 0.0000 10.2663 0.0000 0.0000
# 5 0.0000 0.0000 0.0000 0.0000 5.2194 0.0000
# 6 0.0000 0.0000 0.0000 0.0000 0.0000 17.6914
#
#
#
# Elastic Compliance Matrix: (Units=1/GPa)
#
#
# Indices 1 2 3 4 5 6 
#
# 1 0.017864 -0.004125 -0.002536 0.000000 0.000000 0.000000
# 2 -0.004125 0.019924 -0.002460 0.000000 0.000000 0.000000
# 3 -0.002536 -0.002460 0.010422 0.000000 0.000000 0.000000
# 4 0.000000 0.000000 0.000000 0.097406 0.000000 0.000000
# 5 0.000000 0.000000 0.000000 0.000000 0.191593 0.000000
# 6 0.000000 0.000000 0.000000 0.000000 0.000000 0.056525
#
#
# Mechanical properties :
#
#
# Convention : Reuss Voigt Hill
#
# Bulk Modulus (GPa) = 33.36923 35.92149 34.64536
# Shear Modulus (GPa) = 11.84931 18.05905 14.95418
#
# Velocity S-wave (km/s) = 2.62223 3.23722 2.94582
# Velocity P-wave (km/s) = 5.34154 5.90066 5.62805
#
# Compressibility (1/GPa) = 0.02996773
#
# Stress axis : x y z
#
# Youngs Moduli (GPa) = 55.97694 50.19184 95.95134
#
# Poissons Ratio (x) = 0.20704 0.24337
# Poissons Ratio (y) = 0.23090 0.23602
# Poissons Ratio (z) = 0.14198 0.12346
#
# Static dielectric constant tensor:
#      x y z
#    x 1.596540 0.000000 0.000000 
#    y 0.000000 1.608590 0.000000 
#    z 0.000000 0.000000 1.659770 
# 
# From -- ./inp_files/37430.got.cif
#   From: 2010.05.17/outbox.cif.g08.bks.cpg/sg72_19_cif.got.tgz:37430.got - 2010.06.03 17:03:01.
