data_PCOD9528505
_publ_section_title
;
Structure prediction by ZEFSAII (Michael W. Deem and Ramdas Pophale) SiO2 
 PCOD9528505
Probable space group: I B A M
;
_chemical_formula_sum "Si O2"
_cell_formula_units_Z 64
_cell_length_a 6.503156
_cell_length_b 22.865274
_cell_length_c 18.456995
_cell_angle_alpha 90.000000
_cell_angle_beta 90.000000
_cell_angle_gamma 90.000000
_cell_volume 2744.489520
_symmetry_space_group_name_H-M "I B A M"
_symmetry_group_IT_number 72
_symmetry_cell_setting 'orthorhombic'
loop_
_space_group_symop_operation_xyz
x,y,z
-x,-y,z
x,-y,1/2-z
-x,y,1/2-z
-x,-y,-z
x,y,-z
-x,y,1/2+z
x,-y,1/2+z
1/2+x,1/2+y,1/2+z
1/2-x,1/2-y,1/2+z
1/2+x,1/2-y,-z
1/2-x,1/2+y,-z
1/2-x,1/2-y,1/2-z
1/2+x,1/2+y,1/2-z
1/2-x,1/2+y,z
1/2+x,1/2-y,z
loop_
_atom_site_type_symbol
_atom_site_label
_atom_site_fract_x
_atom_site_fract_y
_atom_site_fract_z
Si Si1 0.384796 0.340444 0.417808
Si Si2 0.344744 0.701190 0.696127
Si Si3 0.164452 0.955570 0.918385
Si Si4 0.006665 0.607154 0.333354
O O1 0.326646 0.323585 0.500000
O O2 0.506983 0.289566 0.373561
O O3 0.546146 0.393795 0.422483
O O4 0.195567 0.367975 0.372708
O O5 0.500000 0.666529 0.750000
O O6 0.250000 0.750000 0.750000
O O7 0.155822 0.663041 0.671585
O O8 0.375303 0.942102 0.878480
O O9 0.206107 0.977236 0.000000
O O10 0.000000 0.000000 0.883561
O O11 0.000000 0.587189 0.250000
#
# Coordination Sequence:
#
# PCOD9528505 Si02
#       4
#    16  16  16  16
#     4  10  22  41  65  95 130 172 223 280 334 403
#     4  11  23  40  68  92 122 171 219 271 340 410
#     4   9  20  39  63  92 131 177 224 277 338 400
#     4  11  21  38  65  93 128 174 226 277 343 407
#
# _framework density 23.319455999999999
#
# number of rings (size 3 to 8) (size 9 to 14) (size 15 to 20)
#    0.000    1.750    2.500    1.500    0.000    2.000 
#    0.000    8.750    0.000    0.000    0.000    0.000 
#    0.000    0.000    0.000    0.000    0.000    0.000 
#
# Total GULP energy -178528.029080 kJ/mol
# GULP energy per Si atom -5579.000909 kJ/mol
# Density = 2.326638 g / cm^3
# Si number density = 23.319456 Si / 1000 Ang^3
#
#
#
# Elastic Constant Matrix: (Units=GPa)
#
#
# Indices 1 2 3 4 5 6 
#
# 1 136.2276 27.0441 87.5252 0.0000 0.0000 0.0000
# 2 27.0441 74.0495 24.9825 0.0000 0.0000 0.0000
# 3 87.5252 24.9825 168.5946 0.0000 0.0000 0.0000
# 4 0.0000 0.0000 0.0000 21.8861 0.0000 0.0000
# 5 0.0000 0.0000 0.0000 0.0000 35.0838 0.0000
# 6 0.0000 0.0000 0.0000 0.0000 0.0000 38.0343
#
#
#
# Elastic Compliance Matrix: (Units=1/GPa)
#
#
# Indices 1 2 3 4 5 6 
#
# 1 0.011367 -0.002274 -0.005564 0.000000 0.000000 0.000000
# 2 -0.002274 0.014670 -0.000993 0.000000 0.000000 0.000000
# 3 -0.005564 -0.000993 0.008967 0.000000 0.000000 0.000000
# 4 0.000000 0.000000 0.000000 0.045691 0.000000 0.000000
# 5 0.000000 0.000000 0.000000 0.000000 0.028503 0.000000
# 6 0.000000 0.000000 0.000000 0.000000 0.000000 0.026292
#
#
# Mechanical properties :
#
#
# Convention : Reuss Voigt Hill
#
# Bulk Modulus (GPa) = 57.66602 73.10836 65.38719
# Shear Modulus (GPa) = 31.45956 34.95551 33.20753
#
# Velocity S-wave (km/s) = 3.67695 3.87587 3.77772
# Velocity P-wave (km/s) = 6.54286 7.17278 6.86505
#
# Compressibility (1/GPa) = 0.01734123
#
# Stress axis : x y z
#
# Youngs Moduli (GPa) = 87.97339 68.16570 111.51787
#
# Poissons Ratio (x) = 0.15502 0.62050
# Poissons Ratio (y) = 0.20007 0.11076
# Poissons Ratio (z) = 0.48950 0.06770
#
# Static dielectric constant tensor:
#      x y z
#    x 1.914680 0.000000 0.000000 
#    y 0.000000 1.919510 0.000000 
#    z 0.000000 0.000000 1.961390 
# 
# From -- ./inp_files/27022.got.cif
#   From: 2010.05.17/outbox.cif.g08.bks.cpg/sg72_14_cif.got.tgz:27022.got - 2010.06.03 17:03:01.
