data_PCOD9528280
_publ_section_title
;
Structure prediction by ZEFSAII (Michael W. Deem and Ramdas Pophale) SiO2 
 PCOD9528280
Probable space group: I B A M
;
_chemical_formula_sum "Si O2"
_cell_formula_units_Z 108
_cell_length_a 29.659057
_cell_length_b 5.127719
_cell_length_c 27.426421
_cell_angle_alpha 90.000000
_cell_angle_beta 90.000000
_cell_angle_gamma 90.000000
_cell_volume 4171.100890
_symmetry_space_group_name_H-M "I B A M"
_symmetry_group_IT_number 72
_symmetry_cell_setting 'orthorhombic'
loop_
_space_group_symop_operation_xyz
x,y,z
-x,-y,z
x,-y,1/2-z
-x,y,1/2-z
-x,-y,-z
x,y,-z
-x,y,1/2+z
x,-y,1/2+z
1/2+x,1/2+y,1/2+z
1/2-x,1/2-y,1/2+z
1/2+x,1/2-y,-z
1/2-x,1/2+y,-z
1/2-x,1/2-y,1/2-z
1/2+x,1/2+y,1/2-z
1/2-x,1/2+y,z
1/2+x,1/2-y,z
loop_
_atom_site_type_symbol
_atom_site_label
_atom_site_fract_x
_atom_site_fract_y
_atom_site_fract_z
Si Si1 0.855306 0.408356 0.338847
Si Si2 0.356645 0.913640 0.055304
Si Si3 0.960298 0.688969 0.924699
Si Si4 0.223043 0.930493 0.427682
Si Si5 0.270897 0.637433 0.809935
Si Si6 0.500000 0.500000 0.161979
Si Si7 0.000000 0.000000 0.000000
Si Si8 0.403853 0.417547 0.195723
O O1 0.838603 0.515405 0.391876
O O2 0.814655 0.315512 0.305083
O O3 0.883491 0.639932 0.316546
O O4 0.884696 0.140984 0.340765
O O5 0.410248 0.915940 0.067503
O O6 0.327735 0.642260 0.056127
O O7 0.351230 0.016589 0.000000
O O8 0.000000 0.500000 0.945865
O O9 0.962466 0.945737 0.957568
O O10 0.978799 0.774849 0.872423
O O11 0.256239 0.700127 0.444937
O O12 0.226924 0.914546 0.368772
O O13 0.232003 0.839559 0.793038
O O14 0.457623 0.398378 0.191505
O O15 0.391538 0.500000 0.250000
#
# Coordination Sequence:
#
# PCOD9528280 Si02
#       8
#    16  16  16  16  16   8   4  16
#     4  11  24  45  69 104 143 178 232 293 342 416
#     4  11  23  41  68 102 143 194 238 284 351 422
#     4  11  22  43  61  95 140 183 231 285 342 408
#     4   9  20  40  60  92 136 182 237 294 338 400
#     4   9  17  34  64  96 131 180 223 272 346 411
#     4  11  25  43  71  96 134 174 224 290 352 412
#     4  10  22  36  62  90 134 192 232 280 318 422
#     4  12  26  47  74 101 134 178 230 291 359 418
#
# _framework density 25.892446
#
# number of rings (size 3 to 8) (size 9 to 14) (size 15 to 20)
#    0.000    1.481    2.222    2.667    0.000    4.148 
#    5.333    3.704    0.000    8.889    0.000    0.000 
#    0.000    0.000    0.000    0.000    0.000    0.000 
#
# Total GULP energy -301054.177772 kJ/mol
# GULP energy per Si atom -5575.077366 kJ/mol
# Density = 2.583351 g / cm^3
# Si number density = 25.892446 Si / 1000 Ang^3
#
#
#
# Elastic Constant Matrix: (Units=GPa)
#
#
# Indices 1 2 3 4 5 6 
#
# 1 133.5136 59.4495 19.1709 0.0000 0.0000 0.0000
# 2 59.4495 120.2994 21.8362 0.0000 0.0000 0.0000
# 3 19.1709 21.8362 109.3364 0.0000 0.0000 0.0000
# 4 0.0000 0.0000 0.0000 21.1976 0.0000 0.0000
# 5 0.0000 0.0000 0.0000 0.0000 -43.3689 0.0000
# 6 0.0000 0.0000 0.0000 0.0000 0.0000 31.1086
#
#
#
# Elastic Compliance Matrix: (Units=1/GPa)
#
#
# Indices 1 2 3 4 5 6 
#
# 1 0.009665 -0.004637 -0.000769 0.000000 0.000000 0.000000
# 2 -0.004637 0.010850 -0.001354 0.000000 0.000000 0.000000
# 3 -0.000769 -0.001354 0.009551 0.000000 0.000000 0.000000
# 4 0.000000 0.000000 0.000000 0.047175 0.000000 0.000000
# 5 0.000000 0.000000 0.000000 0.000000 -0.023058 0.000000
# 6 0.000000 0.000000 0.000000 0.000000 0.000000 0.032145
#
#
# Mechanical properties :
#
#
# Convention : Reuss Voigt Hill
#
# Bulk Modulus (GPa) = 60.43212 62.67364 61.55288
# Shear Modulus (GPa) = 47.45529 19.30032 33.37781
#
# Velocity S-wave (km/s) = 4.28575 2.73317 3.59429
# Velocity P-wave (km/s) = 6.91958 5.84963 6.40698
#
# Compressibility (1/GPa) = 0.01654749
#
# Stress axis : x y z
#
# Youngs Moduli (GPa) = 103.46839 92.16873 104.69850
#
# Poissons Ratio (x) = 0.42735 0.08047
# Poissons Ratio (y) = 0.47974 0.14175
# Poissons Ratio (z) = 0.07953 0.12478
#
# Static dielectric constant tensor:
#      x y z
#    x 2.143470 0.000000 0.000000 
#    y 0.000000 2.156960 0.000000 
#    z 0.000000 0.000000 2.274180 
# 
# From -- ./inp_files/52609.got.cif
#   From: 2010.05.17/outbox.cif.g08.bks.cpg/sg72_27_cif.got.tgz:52609.got - 2010.06.03 17:03:01.
