data_PCOD9528001
_publ_section_title
;
Structure prediction by ZEFSAII (Michael W. Deem and Ramdas Pophale) SiO2 
 PCOD9528001
Probable space group: I B A M
;
_chemical_formula_sum "Si O2"
_cell_formula_units_Z 80
_cell_length_a 9.119710
_cell_length_b 25.769343
_cell_length_c 17.000648
_cell_angle_alpha 90.000000
_cell_angle_beta 90.000000
_cell_angle_gamma 90.000000
_cell_volume 3995.304182
_symmetry_space_group_name_H-M "I B A M"
_symmetry_group_IT_number 72
_symmetry_cell_setting 'orthorhombic'
loop_
_space_group_symop_operation_xyz
x,y,z
-x,-y,z
x,-y,1/2-z
-x,y,1/2-z
-x,-y,-z
x,y,-z
-x,y,1/2+z
x,-y,1/2+z
1/2+x,1/2+y,1/2+z
1/2-x,1/2-y,1/2+z
1/2+x,1/2-y,-z
1/2-x,1/2+y,-z
1/2-x,1/2-y,1/2-z
1/2+x,1/2+y,1/2-z
1/2-x,1/2+y,z
1/2+x,1/2-y,z
loop_
_atom_site_type_symbol
_atom_site_label
_atom_site_fract_x
_atom_site_fract_y
_atom_site_fract_z
Si Si1 0.434919 0.942519 0.330446
Si Si2 0.167812 0.615794 0.411160
Si Si3 0.484014 0.777300 0.907958
Si Si4 0.781039 0.793409 0.184630
Si Si5 0.168247 0.092166 0.747292
O O1 0.500000 0.917262 0.250000
O O2 0.506614 0.910320 0.400296
O O3 0.264858 0.941373 0.309029
O O4 0.500000 0.000000 0.336141
O O5 0.221269 0.607158 0.500000
O O6 0.136838 0.676886 0.399235
O O7 0.268066 0.592381 0.341884
O O8 0.634137 0.795157 0.867565
O O9 0.418010 0.726878 0.866110
O O10 0.508310 0.768486 0.000000
O O11 0.750000 0.750000 0.250000
O O12 0.813668 0.848750 0.222484
O O13 0.000000 0.076768 0.750000
#
# Coordination Sequence:
#
# PCOD9528001 Si02
#       5
#    16  16  16  16  16
#     4   9  19  39  66  89 115 159 210 255 312 378
#     4  10  21  39  61  86 122 160 203 261 313 367
#     4  11  23  38  55  84 124 162 208 257 305 363
#     4  12  22  36  58  86 118 168 207 250 301 364
#     4  11  22  39  61  94 127 160 208 261 314 374
#
# _framework density 20.023506999999999
#
# number of rings (size 3 to 8) (size 9 to 14) (size 15 to 20)
#    0.000    1.400    4.000    2.400    0.000    0.400 
#    0.000   10.000    0.000    1.200    0.000    0.000 
#    0.000    0.000    0.000    0.000    0.000    0.000 
#
# Total GULP energy -223331.735189 kJ/mol
# GULP energy per Si atom -5583.293380 kJ/mol
# Density = 1.997793 g / cm^3
# Si number density = 20.023507 Si / 1000 Ang^3
#
#
#
# Elastic Constant Matrix: (Units=GPa)
#
#
# Indices 1 2 3 4 5 6 
#
# 1 126.5389 14.2091 35.2032 0.0000 0.0000 0.0000
# 2 14.2091 69.0476 19.9557 0.0000 0.0000 0.0000
# 3 35.2032 19.9557 101.4432 0.0000 0.0000 0.0000
# 4 0.0000 0.0000 0.0000 12.7150 0.0000 0.0000
# 5 0.0000 0.0000 0.0000 0.0000 26.7265 0.0000
# 6 0.0000 0.0000 0.0000 0.0000 0.0000 23.3391
#
#
#
# Elastic Compliance Matrix: (Units=1/GPa)
#
#
# Indices 1 2 3 4 5 6 
#
# 1 0.008810 -0.000985 -0.002863 0.000000 0.000000 0.000000
# 2 -0.000985 0.015466 -0.002700 0.000000 0.000000 0.000000
# 3 -0.002863 -0.002700 0.011383 0.000000 0.000000 0.000000
# 4 0.000000 0.000000 0.000000 0.078647 0.000000 0.000000
# 5 0.000000 0.000000 0.000000 0.000000 0.037416 0.000000
# 6 0.000000 0.000000 0.000000 0.000000 0.000000 0.042847
#
#
# Mechanical properties :
#
#
# Convention : Reuss Voigt Hill
#
# Bulk Modulus (GPa) = 44.32624 48.41841 46.37233
# Shear Modulus (GPa) = 23.23558 27.73356 25.48457
#
# Velocity S-wave (km/s) = 3.41018 3.72566 3.57141
# Velocity P-wave (km/s) = 6.13930 6.53764 6.34160
#
# Compressibility (1/GPa) = 0.02256000
#
# Stress axis : x y z
#
# Youngs Moduli (GPa) = 113.50785 64.65783 87.85305
#
# Poissons Ratio (x) = 0.06371 0.25156
# Poissons Ratio (y) = 0.11185 0.23725
# Poissons Ratio (z) = 0.32502 0.17461
#
# Static dielectric constant tensor:
#      x y z
#    x 1.773650 0.000000 0.000000 
#    y 0.000000 1.726200 0.000000 
#    z 0.000000 0.000000 1.705760 
# 
# From -- ./inp_files/28096.got.cif
#   From: 2010.05.17/outbox.cif.g08.bks.cpg/sg72_15_cif.got.tgz:28096.got - 2010.06.03 17:03:01.
