data_PCOD9528668
_publ_section_title
;
Structure prediction by ZEFSAII (Michael W. Deem and Ramdas Pophale) SiO2 
 PCOD9528668
Probable space group: I B A M
;
_chemical_formula_sum "Si O2"
_cell_formula_units_Z 96
_cell_length_a 23.557775
_cell_length_b 8.559736
_cell_length_c 21.738084
_cell_angle_alpha 90.000000
_cell_angle_beta 90.000000
_cell_angle_gamma 90.000000
_cell_volume 4383.448439
_symmetry_space_group_name_H-M "I B A M"
_symmetry_group_IT_number 72
_symmetry_cell_setting 'orthorhombic'
loop_
_space_group_symop_operation_xyz
x,y,z
-x,-y,z
x,-y,1/2-z
-x,y,1/2-z
-x,-y,-z
x,y,-z
-x,y,1/2+z
x,-y,1/2+z
1/2+x,1/2+y,1/2+z
1/2-x,1/2-y,1/2+z
1/2+x,1/2-y,-z
1/2-x,1/2+y,-z
1/2-x,1/2-y,1/2-z
1/2+x,1/2+y,1/2-z
1/2-x,1/2+y,z
1/2+x,1/2-y,z
loop_
_atom_site_type_symbol
_atom_site_label
_atom_site_fract_x
_atom_site_fract_y
_atom_site_fract_z
Si Si1 0.986779 0.677428 0.113086
Si Si2 0.671660 0.198096 0.369012
Si Si3 0.110755 0.846683 0.339464
Si Si4 0.230660 0.011739 0.822766
Si Si5 0.430392 0.173505 0.776222
Si Si6 0.082787 0.116685 0.566463
O O1 0.015844 0.706041 0.180287
O O2 0.022682 0.795598 0.071570
O O3 0.000000 0.500000 0.095898
O O4 0.920165 0.712418 0.119945
O O5 0.717333 0.060724 0.366263
O O6 0.706222 0.346320 0.343478
O O7 0.623189 0.157345 0.320654
O O8 0.634352 0.258492 0.426283
O O9 0.178129 0.866841 0.332162
O O10 0.087007 0.807992 0.271761
O O11 0.089434 0.001245 0.375340
O O12 0.245850 0.000000 0.750000
O O13 0.437283 0.000000 0.750000
O O14 0.087694 0.037683 0.500000
#
# Coordination Sequence:
#
# PCOD9528668 Si02
#       6
#    16  16  16  16  16  16
#     4  11  23  38  63  98 131 169 210 265 329 387
#     4  10  23  37  64  92 125 166 212 253 330 380
#     4  11  23  38  61  94 130 174 213 252 330 389
#     4  11  21  36  57  97 132 167 198 254 314 406
#     4  11  21  37  61  95 139 168 201 258 322 404
#     4  10  25  48  65  84 122 171 231 280 313 371
#
# _framework density 21.900565
#
# number of rings (size 3 to 8) (size 9 to 14) (size 15 to 20)
#    0.000    1.333    3.333    2.000    2.333    1.667 
#    3.000    3.333    0.000    0.000    0.000    0.000 
#    0.000    0.000    0.000    0.000    0.000    0.000 
#
# Total GULP energy -267892.345291 kJ/mol
# GULP energy per Si atom -5581.090527 kJ/mol
# Density = 2.185072 g / cm^3
# Si number density = 21.900565 Si / 1000 Ang^3
#
#
#
# Elastic Constant Matrix: (Units=GPa)
#
#
# Indices 1 2 3 4 5 6 
#
# 1 93.6635 17.9750 4.0969 0.0000 0.0000 0.0000
# 2 17.9750 53.8207 18.7354 0.0000 0.0000 0.0000
# 3 4.0969 18.7354 86.4394 0.0000 0.0000 0.0000
# 4 0.0000 0.0000 0.0000 5.4924 0.0000 0.0000
# 5 0.0000 0.0000 0.0000 0.0000 -0.2305 0.0000
# 6 0.0000 0.0000 0.0000 0.0000 0.0000 36.4830
#
#
#
# Elastic Compliance Matrix: (Units=1/GPa)
#
#
# Indices 1 2 3 4 5 6 
#
# 1 0.011415 -0.003920 0.000309 0.000000 0.000000 0.000000
# 2 -0.003920 0.021443 -0.004462 0.000000 0.000000 0.000000
# 3 0.000309 -0.004462 0.012521 0.000000 0.000000 0.000000
# 4 0.000000 0.000000 0.000000 0.182070 0.000000 0.000000
# 5 0.000000 0.000000 0.000000 0.000000 -4.337751 0.000000
# 6 0.000000 0.000000 0.000000 0.000000 0.000000 0.027410
#
#
# Mechanical properties :
#
#
# Convention : Reuss Voigt Hill
#
# Bulk Modulus (GPa) = 34.20806 35.05980 34.63393
# Shear Modulus (GPa) = -1.23244 21.22340 9.99548
#
# Velocity S-wave (km/s) = -0.75098 3.11638 2.13868
# Velocity P-wave (km/s) = 3.86027 5.38447 4.68477
#
# Compressibility (1/GPa) = 0.02923288
#
# Stress axis : x y z
#
# Youngs Moduli (GPa) = 87.60185 46.63621 79.86426
#
# Poissons Ratio (x) = 0.18281 -0.02464
# Poissons Ratio (y) = 0.34339 0.35634
# Poissons Ratio (z) = -0.02703 0.20808
#
# Static dielectric constant tensor:
#      x y z
#    x 1.837280 0.000000 0.000000 
#    y 0.000000 1.844310 0.000000 
#    z 0.000000 0.000000 1.850070 
# 
# From -- ./inp_files/45640.got.cif
#   From: 2010.05.17/outbox.cif.g08.bks.cpg/sg72_23_cif.got.tgz:45640.got - 2010.06.03 17:03:01.
