data_PCOD9528316
_publ_section_title
;
Structure prediction by ZEFSAII (Michael W. Deem and Ramdas Pophale) SiO2 
 PCOD9528316
Probable space group: I B A M
;
_chemical_formula_sum "Si O2"
_cell_formula_units_Z 112
_cell_length_a 23.376137
_cell_length_b 14.968786
_cell_length_c 14.651317
_cell_angle_alpha 90.000000
_cell_angle_beta 90.000000
_cell_angle_gamma 90.000000
_cell_volume 5126.677381
_symmetry_space_group_name_H-M "I B A M"
_symmetry_group_IT_number 72
_symmetry_cell_setting 'orthorhombic'
loop_
_space_group_symop_operation_xyz
x,y,z
-x,-y,z
x,-y,1/2-z
-x,y,1/2-z
-x,-y,-z
x,y,-z
-x,y,1/2+z
x,-y,1/2+z
1/2+x,1/2+y,1/2+z
1/2-x,1/2-y,1/2+z
1/2+x,1/2-y,-z
1/2-x,1/2+y,-z
1/2-x,1/2-y,1/2-z
1/2+x,1/2+y,1/2-z
1/2-x,1/2+y,z
1/2+x,1/2-y,z
loop_
_atom_site_type_symbol
_atom_site_label
_atom_site_fract_x
_atom_site_fract_y
_atom_site_fract_z
Si Si1 0.584030 0.666911 0.598068
Si Si2 0.047105 0.781257 0.897638
Si Si3 0.098714 0.973578 0.849206
Si Si4 0.223677 0.977290 0.391090
Si Si5 0.180991 0.386290 0.105847
Si Si6 0.767213 0.718264 0.393963
Si Si7 0.372461 0.218203 0.245993
O O1 0.608933 0.697609 0.500000
O O2 0.520799 0.706447 0.608703
O O3 0.580722 0.560428 0.594377
O O4 0.618920 0.697633 0.686148
O O5 0.075131 0.879445 0.882357
O O6 0.073487 0.718166 0.820918
O O7 0.061345 0.751364 0.000000
O O8 0.167783 0.976912 0.849233
O O9 0.076235 0.000000 0.750000
O O10 0.215860 0.987694 0.500000
O O11 0.281734 0.028161 0.367188
O O12 0.233001 0.872965 0.373053
O O13 0.225539 0.303128 0.110056
O O14 0.134709 0.362297 0.182302
O O15 0.161861 0.395617 0.000000
O O16 0.787771 0.711909 0.500000
O O17 0.818031 0.726644 0.320875
#
# Coordination Sequence:
#
# PCOD9528316 Si02
#       7
#    16  16  16  16  16  16  16
#     4  11  24  41  60  86 121 161 207 259 314 373
#     4  11  24  41  60  86 121 161 207 259 314 373
#     4  12  23  35  60  88 124 165 209 247 302 372
#     4  10  22  39  59  90 130 170 209 247 302 373
#     4  10  22  38  58  87 124 164 208 255 304 364
#     4  10  22  38  58  87 124 164 208 255 304 364
#     4  12  22  36  59  82 114 154 202 249 304 355
#
# _framework density 21.846508
#
# number of rings (size 3 to 8) (size 9 to 14) (size 15 to 20)
#    0.000    1.143    1.429    5.143    2.000    4.000 
#    0.000    0.000    0.000    0.000    0.000    8.000 
#    0.000   22.857    0.000    0.000    0.000    0.000 
#
# Total GULP energy -313238.593854 kJ/mol
# GULP energy per Si atom -5593.546319 kJ/mol
# Density = 2.179678 g / cm^3
# Si number density = 21.846508 Si / 1000 Ang^3
#
#
#
# Elastic Constant Matrix: (Units=GPa)
#
#
# Indices 1 2 3 4 5 6 
#
# 1 58.6535 11.7154 47.2722 0.0000 0.0000 0.0000
# 2 11.7154 42.6390 16.7018 0.0000 0.0000 0.0000
# 3 47.2722 16.7018 160.5548 0.0000 0.0000 0.0000
# 4 0.0000 0.0000 0.0000 25.9432 0.0000 0.0000
# 5 0.0000 0.0000 0.0000 0.0000 57.6070 0.0000
# 6 0.0000 0.0000 0.0000 0.0000 0.0000 29.0927
#
#
#
# Elastic Compliance Matrix: (Units=1/GPa)
#
#
# Indices 1 2 3 4 5 6 
#
# 1 0.022933 -0.003811 -0.006356 0.000000 0.000000 0.000000
# 2 -0.003811 0.025082 -0.001487 0.000000 0.000000 0.000000
# 3 -0.006356 -0.001487 0.008254 0.000000 0.000000 0.000000
# 4 0.000000 0.000000 0.000000 0.038546 0.000000 0.000000
# 5 0.000000 0.000000 0.000000 0.000000 0.017359 0.000000
# 6 0.000000 0.000000 0.000000 0.000000 0.000000 0.034373
#
#
# Mechanical properties :
#
#
# Convention : Reuss Voigt Hill
#
# Bulk Modulus (GPa) = 30.33843 45.91402 38.12623
# Shear Modulus (GPa) = 27.64831 34.93911 31.29371
#
# Velocity S-wave (km/s) = 3.56135 4.00346 3.78886
# Velocity P-wave (km/s) = 5.55231 6.51403 6.05230
#
# Compressibility (1/GPa) = 0.03296149
#
# Stress axis : x y z
#
# Youngs Moduli (GPa) = 43.60531 39.86859 121.14758
#
# Poissons Ratio (x) = 0.15196 0.76998
# Poissons Ratio (y) = 0.16620 0.18015
# Poissons Ratio (z) = 0.27714 0.05928
#
# Static dielectric constant tensor:
#      x y z
#    x 1.811740 0.000000 0.000000 
#    y 0.000000 1.792690 0.000000 
#    z 0.000000 0.000000 1.822610 
# 
# From -- ./inp_files/22119.got.cif
#   From: 2010.05.17/outbox.cif.g08.bks.cpg/sg72_12_cif.got.tgz:22119.got - 2010.06.03 17:03:01.
