data_PCOD9528669
_publ_section_title
;
Structure prediction by ZEFSAII (Michael W. Deem and Ramdas Pophale) SiO2 
 PCOD9528669
Probable space group: I B A M
;
_chemical_formula_sum "Si O2"
_cell_formula_units_Z 60
_cell_length_a 5.029647
_cell_length_b 17.754682
_cell_length_c 29.533378
_cell_angle_alpha 90.000000
_cell_angle_beta 90.000000
_cell_angle_gamma 90.000000
_cell_volume 2637.324248
_symmetry_space_group_name_H-M "I B A M"
_symmetry_group_IT_number 72
_symmetry_cell_setting 'orthorhombic'
loop_
_space_group_symop_operation_xyz
x,y,z
-x,-y,z
x,-y,1/2-z
-x,y,1/2-z
-x,-y,-z
x,y,-z
-x,y,1/2+z
x,-y,1/2+z
1/2+x,1/2+y,1/2+z
1/2-x,1/2-y,1/2+z
1/2+x,1/2-y,-z
1/2-x,1/2+y,-z
1/2-x,1/2-y,1/2-z
1/2+x,1/2+y,1/2-z
1/2-x,1/2+y,z
1/2+x,1/2-y,z
loop_
_atom_site_type_symbol
_atom_site_label
_atom_site_fract_x
_atom_site_fract_y
_atom_site_fract_z
Si Si1 0.265456 0.447526 0.567267
Si Si2 0.200147 0.569117 0.166997
Si Si3 0.000000 0.000000 0.750000
Si Si4 0.780424 0.692556 0.500000
Si Si5 0.089218 0.706396 0.300874
O O1 0.500000 0.500000 0.548486
O O2 0.348548 0.430258 0.619399
O O3 0.226272 0.367993 0.541616
O O4 0.000000 0.500000 0.565630
O O5 0.353007 0.554642 0.214141
O O6 0.020635 0.642653 0.167674
O O7 0.000000 0.500000 0.165864
O O8 0.533562 0.751241 0.500000
O O9 0.899332 0.779070 0.307394
O O10 0.000000 0.684712 0.250000
#
# Coordination Sequence:
#
# PCOD9528669 Si02
#       5
#    16  16   4   8  16
#     4  11  24  46  71 104 141 186 232 284 356 428
#     4  11  25  40  66  96 135 181 237 287 337 401
#     4  12  22  40  64  96 136 176 248 288 330 382
#     4  12  26  46  78 110 142 180 228 294 362 428
#     4  10  23  38  57  83 122 169 220 274 337 392
#
# _framework density 22.750332
#
# number of rings (size 3 to 8) (size 9 to 14) (size 15 to 20)
#    0.000    1.067    1.333    4.400    9.333    2.133 
#    0.000    0.000    0.000    0.000    0.000    0.000 
#    0.000    0.000    0.000    0.000    0.000    0.000 
#
# Total GULP energy -167453.740766 kJ/mol
# GULP energy per Si atom -5581.791359 kJ/mol
# Density = 2.269855 g / cm^3
# Si number density = 22.750332 Si / 1000 Ang^3
#
#
#
# Elastic Constant Matrix: (Units=GPa)
#
#
# Indices 1 2 3 4 5 6 
#
# 1 107.1371 40.9290 24.3269 0.0000 0.0000 0.0000
# 2 40.9290 139.2080 47.8003 0.0000 0.0000 0.0000
# 3 24.3269 47.8003 160.6164 0.0000 0.0000 0.0000
# 4 0.0000 0.0000 0.0000 50.0622 0.0000 0.0000
# 5 0.0000 0.0000 0.0000 0.0000 -28.9335 0.0000
# 6 0.0000 0.0000 0.0000 0.0000 0.0000 56.9911
#
#
#
# Elastic Compliance Matrix: (Units=1/GPa)
#
#
# Indices 1 2 3 4 5 6 
#
# 1 0.010596 -0.002856 -0.000755 0.000000 0.000000 0.000000
# 2 -0.002856 0.008771 -0.002178 0.000000 0.000000 0.000000
# 3 -0.000755 -0.002178 0.006988 0.000000 0.000000 0.000000
# 4 0.000000 0.000000 0.000000 0.019975 0.000000 0.000000
# 5 0.000000 0.000000 0.000000 0.000000 -0.034562 0.000000
# 6 0.000000 0.000000 0.000000 0.000000 0.000000 0.017547
#
#
# Mechanical properties :
#
#
# Convention : Reuss Voigt Hill
#
# Bulk Modulus (GPa) = 67.66735 70.34154 69.00444
# Shear Modulus (GPa) = 109.12401 35.21764 72.17082
#
# Velocity S-wave (km/s) = 6.93326 3.93874 5.63843
# Velocity P-wave (km/s) = 9.69027 7.18825 8.53148
#
# Compressibility (1/GPa) = 0.01477818
#
# Stress axis : x y z
#
# Youngs Moduli (GPa) = 94.37154 114.01159 143.09338
#
# Poissons Ratio (x) = 0.32565 0.10802
# Poissons Ratio (y) = 0.26955 0.31161
# Poissons Ratio (z) = 0.07124 0.24828
#
# Static dielectric constant tensor:
#      x y z
#    x 1.900740 0.000000 0.000000 
#    y 0.000000 2.501670 0.000000 
#    z 0.000000 0.000000 1.900490 
# 
# From -- ./inp_files/46468.got.cif
#   From: 2010.05.17/outbox.cif.g08.bks.cpg/sg72_24_cif.got.tgz:46468.got - 2010.06.03 17:03:01.
