data_PCOD9528775
_publ_section_title
;
Structure prediction by ZEFSAII (Michael W. Deem and Ramdas Pophale) SiO2 
 PCOD9528775
Probable space group: I B A M
;
_chemical_formula_sum "Si O2"
_cell_formula_units_Z 116
_cell_length_a 9.343844
_cell_length_b 23.744160
_cell_length_c 26.481381
_cell_angle_alpha 90.000000
_cell_angle_beta 90.000000
_cell_angle_gamma 90.000000
_cell_volume 5875.204921
_symmetry_space_group_name_H-M "I B A M"
_symmetry_group_IT_number 72
_symmetry_cell_setting 'orthorhombic'
loop_
_space_group_symop_operation_xyz
x,y,z
-x,-y,z
x,-y,1/2-z
-x,y,1/2-z
-x,-y,-z
x,y,-z
-x,y,1/2+z
x,-y,1/2+z
1/2+x,1/2+y,1/2+z
1/2-x,1/2-y,1/2+z
1/2+x,1/2-y,-z
1/2-x,1/2+y,-z
1/2-x,1/2-y,1/2-z
1/2+x,1/2+y,1/2-z
1/2-x,1/2+y,z
1/2+x,1/2-y,z
loop_
_atom_site_type_symbol
_atom_site_label
_atom_site_fract_x
_atom_site_fract_y
_atom_site_fract_z
Si Si1 0.960033 0.337911 0.847014
Si Si2 0.379601 0.270749 0.785154
Si Si3 0.000000 0.500000 0.250000
Si Si4 0.362541 0.777097 0.440653
Si Si5 0.741803 0.077341 0.703846
Si Si6 0.946147 0.827701 0.940189
Si Si7 0.991275 0.938576 0.873752
Si Si8 0.761573 0.881370 0.681974
O O1 0.952732 0.281334 0.813408
O O2 0.951242 0.318601 0.904578
O O3 0.822121 0.372640 0.829876
O O4 0.097381 0.374661 0.833208
O O5 0.500000 0.297536 0.750000
O O6 0.250000 0.250000 0.750000
O O7 0.324048 0.318430 0.822052
O O8 0.889285 0.465433 0.214800
O O9 0.385792 0.788190 0.500000
O O10 0.196466 0.790557 0.428808
O O11 0.419028 0.713830 0.431300
O O12 0.879287 0.056153 0.673121
O O13 0.775775 0.100358 0.759689
O O14 0.949075 0.885465 0.908755
O O15 0.942555 0.840695 0.000000
O O16 0.146003 0.922731 0.851566
O O17 0.000000 0.000000 0.899047
#
# Coordination Sequence:
#
# PCOD9528775 Si02
#       8
#    16  16   4  16  16  16  16  16
#     4  12  23  39  62  93 129 170 216 261 330 401
#     4  12  22  36  57  92 130 165 208 259 323 392
#     4  12  24  40  70  88 130 184 234 272 318 380
#     4  10  23  42  69 101 132 166 213 276 342 402
#     4  12  23  43  62  90 129 177 224 271 315 385
#     4  10  23  46  71  98 130 169 217 274 339 403
#     4  12  27  44  65  97 130 178 227 275 329 383
#     4  12  25  41  61  92 133 176 219 264 321 391
#
# _framework density 19.743993
#
# number of rings (size 3 to 8) (size 9 to 14) (size 15 to 20)
#    0.000    0.552    5.517    2.897    3.862    0.828 
#    0.000    0.000    0.000    0.000    0.000    2.897 
#    0.000    0.000    0.000    0.000    0.000    0.000 
#
# Total GULP energy -324091.983402 kJ/mol
# GULP energy per Si atom -5587.792817 kJ/mol
# Density = 1.969905 g / cm^3
# Si number density = 19.743993 Si / 1000 Ang^3
#
#
#
# Elastic Constant Matrix: (Units=GPa)
#
#
# Indices 1 2 3 4 5 6 
#
# 1 88.6410 38.4409 31.8755 0.0000 0.0000 0.0000
# 2 38.4409 112.3297 40.1207 0.0000 0.0000 0.0000
# 3 31.8755 40.1207 87.4471 0.0000 0.0000 0.0000
# 4 0.0000 0.0000 0.0000 25.7947 0.0000 0.0000
# 5 0.0000 0.0000 0.0000 0.0000 21.3477 0.0000
# 6 0.0000 0.0000 0.0000 0.0000 0.0000 34.9057
#
#
#
# Elastic Compliance Matrix: (Units=1/GPa)
#
#
# Indices 1 2 3 4 5 6 
#
# 1 0.014088 -0.003572 -0.003496 0.000000 0.000000 0.000000
# 2 -0.003572 0.011553 -0.003998 0.000000 0.000000 0.000000
# 3 -0.003496 -0.003998 0.014544 0.000000 0.000000 0.000000
# 4 0.000000 0.000000 0.000000 0.038768 0.000000 0.000000
# 5 0.000000 0.000000 0.000000 0.000000 0.046843 0.000000
# 6 0.000000 0.000000 0.000000 0.000000 0.000000 0.028649
#
#
# Mechanical properties :
#
#
# Convention : Reuss Voigt Hill
#
# Bulk Modulus (GPa) = 55.39733 56.58799 55.99266
# Shear Modulus (GPa) = 27.38287 28.27500 27.82893
#
# Velocity S-wave (km/s) = 3.72815 3.78839 3.75839
# Velocity P-wave (km/s) = 6.83014 6.91802 6.87422
#
# Compressibility (1/GPa) = 0.01805141
#
# Stress axis : x y z
#
# Youngs Moduli (GPa) = 70.98281 86.55789 68.75528
#
# Poissons Ratio (x) = 0.30922 0.24038
# Poissons Ratio (y) = 0.25358 0.27491
# Poissons Ratio (z) = 0.24817 0.34609
#
# Static dielectric constant tensor:
#      x y z
#    x 1.746960 0.000000 0.000000 
#    y 0.000000 1.713920 0.000000 
#    z 0.000000 0.000000 1.695150 
# 
# From -- ./inp_files/47610.got.cif
#   From: 2010.05.17/outbox.cif.g08.bks.cpg/sg72_24_cif.got.tgz:47610.got - 2010.06.03 17:03:01.
