data_PCOD9528427
_publ_section_title
;
Structure prediction by ZEFSAII (Michael W. Deem and Ramdas Pophale) SiO2 
 PCOD9528427
Probable space group: I B A M
;
_chemical_formula_sum "Si O2"
_cell_formula_units_Z 112
_cell_length_a 13.205888
_cell_length_b 18.428605
_cell_length_c 21.566897
_cell_angle_alpha 90.000000
_cell_angle_beta 90.000000
_cell_angle_gamma 90.000000
_cell_volume 5248.651475
_symmetry_space_group_name_H-M "I B A M"
_symmetry_group_IT_number 72
_symmetry_cell_setting 'orthorhombic'
loop_
_space_group_symop_operation_xyz
x,y,z
-x,-y,z
x,-y,1/2-z
-x,y,1/2-z
-x,-y,-z
x,y,-z
-x,y,1/2+z
x,-y,1/2+z
1/2+x,1/2+y,1/2+z
1/2-x,1/2-y,1/2+z
1/2+x,1/2-y,-z
1/2-x,1/2+y,-z
1/2-x,1/2-y,1/2-z
1/2+x,1/2+y,1/2-z
1/2-x,1/2+y,z
1/2+x,1/2-y,z
loop_
_atom_site_type_symbol
_atom_site_label
_atom_site_fract_x
_atom_site_fract_y
_atom_site_fract_z
Si Si1 0.420007 0.784369 0.805094
Si Si2 0.372117 0.554504 0.926555
Si Si3 0.498459 0.628709 0.178728
Si Si4 0.736134 0.078881 0.929918
Si Si5 0.708585 0.294050 0.345354
Si Si6 0.016648 0.422799 0.114252
Si Si7 0.178075 0.658241 0.069769
O O1 0.500000 0.785237 0.750000
O O2 0.431050 0.702201 0.829712
O O3 0.299872 0.793666 0.795894
O O4 0.454250 0.853036 0.845299
O O5 0.458390 0.577703 0.877080
O O6 0.688538 0.517415 0.903498
O O7 0.283239 0.614871 0.926883
O O8 0.404519 0.548597 0.000000
O O9 0.500000 0.599482 0.250000
O O10 0.610735 0.661418 0.173904
O O11 0.747342 0.157357 0.900649
O O12 0.617323 0.060729 0.925439
O O13 0.767854 0.082898 0.000000
O O14 0.678031 0.217633 0.375528
O O15 0.000000 0.500000 0.148444
O O16 0.916063 0.396508 0.079108
O O17 0.169136 0.690190 0.000000
#
# Coordination Sequence:
#
# PCOD9528427 Si02
#       7
#    16  16  16  16  16  16  16
#     4  10  23  41  63  92 128 170 220 272 332 399
#     4  10  22  41  64  96 133 178 226 278 339 405
#     4  11  24  43  68  95 127 176 221 274 336 405
#     4  10  22  40  63  92 134 174 219 274 335 404
#     4  11  23  42  62  97 127 171 224 273 332 400
#     4  11  21  37  62  96 132 167 220 270 341 397
#     4  11  21  35  62  96 135 172 217 276 338 401
#
# _framework density 21.338815
#
# number of rings (size 3 to 8) (size 9 to 14) (size 15 to 20)
#    0.000    1.429    4.286    0.857    0.000    6.000 
#    0.000    2.857    0.000    0.000    0.000    0.000 
#    0.000    0.000    0.000    0.000    0.000    0.000 
#
# Total GULP energy -311988.388283 kJ/mol
# GULP energy per Si atom -5571.221219 kJ/mol
# Density = 2.129025 g / cm^3
# Si number density = 21.338815 Si / 1000 Ang^3
#
#
#
# Elastic Constant Matrix: (Units=GPa)
#
#
# Indices 1 2 3 4 5 6 
#
# 1 165.3437 27.9510 46.7229 0.0000 0.0000 0.0000
# 2 27.9510 87.5293 42.1394 0.0000 0.0000 0.0000
# 3 46.7229 42.1394 74.1256 0.0000 0.0000 0.0000
# 4 0.0000 0.0000 0.0000 -3.0250 0.0000 0.0000
# 5 0.0000 0.0000 0.0000 0.0000 24.4377 0.0000
# 6 0.0000 0.0000 0.0000 0.0000 0.0000 36.7946
#
#
#
# Elastic Compliance Matrix: (Units=1/GPa)
#
#
# Indices 1 2 3 4 5 6 
#
# 1 0.007360 -0.000161 -0.004548 0.000000 0.000000 0.000000
# 2 -0.000161 0.015733 -0.008843 0.000000 0.000000 0.000000
# 3 -0.004548 -0.008843 0.021384 0.000000 0.000000 0.000000
# 4 0.000000 0.000000 0.000000 -0.330581 0.000000 0.000000
# 5 0.000000 0.000000 0.000000 0.000000 0.040920 0.000000
# 6 0.000000 0.000000 0.000000 0.000000 0.000000 0.027178
#
#
# Mechanical properties :
#
#
# Convention : Reuss Voigt Hill
#
# Bulk Modulus (GPa) = 57.55470 62.29171 59.92321
# Shear Modulus (GPa) = -27.01099 25.65381 -0.67859
#
# Velocity S-wave (km/s) = -3.56169 3.47106 -0.56453
# Velocity P-wave (km/s) = 3.18060 6.73197 5.26477
#
# Compressibility (1/GPa) = 0.01737477
#
# Stress axis : x y z
#
# Youngs Moduli (GPa) = 135.86287 63.55939 46.76332
#
# Poissons Ratio (x) = 0.01023 0.21268
# Poissons Ratio (y) = 0.02186 0.41352
# Poissons Ratio (z) = 0.61790 0.56204
#
# Static dielectric constant tensor:
#      x y z
#    x 1.823030 0.000000 0.000000 
#    y 0.000000 1.832870 0.000000 
#    z 0.000000 0.000000 1.814440 
# 
# From -- ./inp_files/43518.got.cif
#   From: 2010.05.17/outbox.cif.g08.bks.cpg/sg72_22_cif.got.tgz:43518.got - 2010.06.03 17:03:01.
