data_PCOD9528158
_publ_section_title
;
Structure prediction by ZEFSAII (Michael W. Deem and Ramdas Pophale) SiO2 
 PCOD9528158
Probable space group: I B A M
;
_chemical_formula_sum "Si O2"
_cell_formula_units_Z 112
_cell_length_a 14.407076
_cell_length_b 14.350611
_cell_length_c 26.478697
_cell_angle_alpha 90.000000
_cell_angle_beta 90.000000
_cell_angle_gamma 90.000000
_cell_volume 5474.479696
_symmetry_space_group_name_H-M "I B A M"
_symmetry_group_IT_number 72
_symmetry_cell_setting 'orthorhombic'
loop_
_space_group_symop_operation_xyz
x,y,z
-x,-y,z
x,-y,1/2-z
-x,y,1/2-z
-x,-y,-z
x,y,-z
-x,y,1/2+z
x,-y,1/2+z
1/2+x,1/2+y,1/2+z
1/2-x,1/2-y,1/2+z
1/2+x,1/2-y,-z
1/2-x,1/2+y,-z
1/2-x,1/2-y,1/2-z
1/2+x,1/2+y,1/2-z
1/2-x,1/2+y,z
1/2+x,1/2-y,z
loop_
_atom_site_type_symbol
_atom_site_label
_atom_site_fract_x
_atom_site_fract_y
_atom_site_fract_z
Si Si1 0.602194 0.045229 0.056315
Si Si2 0.002984 0.783227 0.192177
Si Si3 0.627871 0.128844 0.161639
Si Si4 0.410908 0.562459 0.879284
Si Si5 0.745297 0.872286 0.942299
Si Si6 0.205073 0.268489 0.658639
Si Si7 0.251609 0.470879 0.694938
O O1 0.610945 0.116796 0.101984
O O2 0.500000 0.000000 0.059432
O O3 0.678875 0.963443 0.062000
O O4 0.613046 0.085775 0.000000
O O5 0.956625 0.681113 0.187828
O O6 0.946793 0.852365 0.155452
O O7 0.000000 0.815903 0.250000
O O8 0.107093 0.773167 0.173241
O O9 0.715902 0.194539 0.169842
O O10 0.659026 0.028945 0.182244
O O11 0.500000 0.500000 0.891937
O O12 0.349804 0.599651 0.925950
O O13 0.333568 0.509667 0.845182
O O14 0.710648 0.799909 0.900012
O O15 0.740549 0.839635 0.000000
O O16 0.227175 0.362373 0.689764
O O17 0.283882 0.500000 0.750000
#
# Coordination Sequence:
#
# PCOD9528158 Si02
#       7
#    16  16  16  16  16  16  16
#     4  10  21  40  70  98 125 170 220 273 341 402
#     4  12  27  41  66  97 136 178 219 276 330 389
#     4  12  23  42  66  95 135 168 220 281 327 395
#     4  11  24  42  64  98 132 177 228 266 324 403
#     4  10  21  45  69  94 134 172 216 278 334 390
#     4  11  24  44  63 100 132 172 227 272 329 402
#     4  11  24  41  66  92 130 179 220 273 335 391
#
# _framework density 20.458565
#
# number of rings (size 3 to 8) (size 9 to 14) (size 15 to 20)
#    0.000    1.000    5.714    2.571    4.000    2.000 
#    0.000    2.143    0.000    0.000    0.000    0.000 
#    0.000    0.000    0.000    0.000    0.000    0.000 
#
# Total GULP energy -313119.859843 kJ/mol
# GULP energy per Si atom -5591.426069 kJ/mol
# Density = 2.041200 g / cm^3
# Si number density = 20.458565 Si / 1000 Ang^3
#
#
#
# Elastic Constant Matrix: (Units=GPa)
#
#
# Indices 1 2 3 4 5 6 
#
# 1 77.2563 4.3564 6.8128 0.0000 0.0000 0.0000
# 2 4.3564 51.3118 3.7147 0.0000 0.0000 0.0000
# 3 6.8128 3.7147 83.4659 0.0000 0.0000 0.0000
# 4 0.0000 0.0000 0.0000 14.6343 0.0000 0.0000
# 5 0.0000 0.0000 0.0000 0.0000 36.0598 0.0000
# 6 0.0000 0.0000 0.0000 0.0000 0.0000 21.5923
#
#
#
# Elastic Compliance Matrix: (Units=1/GPa)
#
#
# Indices 1 2 3 4 5 6 
#
# 1 0.013093 -0.001038 -0.001022 0.000000 0.000000 0.000000
# 2 -0.001038 0.019634 -0.000789 0.000000 0.000000 0.000000
# 3 -0.001022 -0.000789 0.012100 0.000000 0.000000 0.000000
# 4 0.000000 0.000000 0.000000 0.068333 0.000000 0.000000
# 5 0.000000 0.000000 0.000000 0.000000 0.027732 0.000000
# 6 0.000000 0.000000 0.000000 0.000000 0.000000 0.046313
#
#
# Mechanical properties :
#
#
# Convention : Reuss Voigt Hill
#
# Bulk Modulus (GPa) = 25.55735 26.86688 26.21211
# Shear Modulus (GPa) = 24.27842 27.60061 25.93952
#
# Velocity S-wave (km/s) = 3.44861 3.67699 3.56463
# Velocity P-wave (km/s) = 5.32696 5.58461 5.45731
#
# Compressibility (1/GPa) = 0.03912768
#
# Stress axis : x y z
#
# Youngs Moduli (GPa) = 76.37897 50.93231 82.64789
#
# Poissons Ratio (x) = 0.05285 0.08451
# Poissons Ratio (y) = 0.07925 0.06522
# Poissons Ratio (z) = 0.07810 0.04019
#
# Static dielectric constant tensor:
#      x y z
#    x 1.712120 0.000000 0.000000 
#    y 0.000000 1.733930 0.000000 
#    z 0.000000 0.000000 1.737670 
# 
# From -- ./inp_files/48718.got.cif
#   From: 2010.05.17/outbox.cif.g08.bks.cpg/sg72_25_cif.got.tgz:48718.got - 2010.06.03 17:03:01.
