data_PCOD9528204
_publ_section_title
;
Structure prediction by ZEFSAII (Michael W. Deem and Ramdas Pophale) SiO2 
 PCOD9528204
Probable space group: I B A M
;
_chemical_formula_sum "Si O2"
_cell_formula_units_Z 40
_cell_length_a 19.355724
_cell_length_b 5.038694
_cell_length_c 15.051528
_cell_angle_alpha 90.000000
_cell_angle_beta 90.000000
_cell_angle_gamma 90.000000
_cell_volume 1467.938956
_symmetry_space_group_name_H-M "I B A M"
_symmetry_group_IT_number 72
_symmetry_cell_setting 'orthorhombic'
loop_
_space_group_symop_operation_xyz
x,y,z
-x,-y,z
x,-y,1/2-z
-x,y,1/2-z
-x,-y,-z
x,y,-z
-x,y,1/2+z
x,-y,1/2+z
1/2+x,1/2+y,1/2+z
1/2-x,1/2-y,1/2+z
1/2+x,1/2-y,-z
1/2-x,1/2+y,-z
1/2-x,1/2-y,1/2-z
1/2+x,1/2+y,1/2-z
1/2-x,1/2+y,z
1/2+x,1/2-y,z
loop_
_atom_site_type_symbol
_atom_site_label
_atom_site_fract_x
_atom_site_fract_y
_atom_site_fract_z
Si Si1 0.204589 0.881287 0.647916
Si Si2 0.623902 0.000000 0.750000
Si Si3 0.057489 0.202069 0.899136
O O1 0.239636 0.600171 0.621145
O O2 0.175337 0.754957 0.745541
O O3 0.132254 0.938610 0.600977
O O4 0.575687 0.051323 0.834736
O O5 0.039836 0.268600 0.000000
O O6 0.000000 0.000000 0.863154
#
# Coordination Sequence:
#
# PCOD9528204 Si02
#       3
#    16   8  16
#     4  10  21  41  75 112 157 203 264 335 403 492
#     4   8  20  38  74 105 151 202 262 330 403 476
#     4   9  20  41  72 110 157 209 266 331 404 491
#
# _framework density 27.249089999999999
#
# number of rings (size 3 to 8) (size 9 to 14) (size 15 to 20)
#    2.400    0.400    0.000    1.200    0.000    1.600 
#    0.000    2.000    8.800    8.400    0.000    0.000 
#    0.000    0.000    0.000    1.600    0.000    0.000 
#
# Total GULP energy -111338.541435 kJ/mol
# GULP energy per Si atom -5566.927072 kJ/mol
# Density = 2.718707 g / cm^3
# Si number density = 27.249090 Si / 1000 Ang^3
#
#
#
# Elastic Constant Matrix: (Units=GPa)
#
#
# Indices 1 2 3 4 5 6 
#
# 1 209.2758 110.7070 4.7251 0.0000 0.0000 0.0000
# 2 110.7070 107.6824 15.7187 0.0000 0.0000 0.0000
# 3 4.7251 15.7187 115.1651 0.0000 0.0000 0.0000
# 4 0.0000 0.0000 0.0000 18.8693 0.0000 0.0000
# 5 0.0000 0.0000 0.0000 0.0000 245.0743 0.0000
# 6 0.0000 0.0000 0.0000 0.0000 0.0000 64.9135
#
#
#
# Elastic Compliance Matrix: (Units=1/GPa)
#
#
# Indices 1 2 3 4 5 6 
#
# 1 0.010604 -0.011059 0.001074 0.000000 0.000000 0.000000
# 2 -0.011059 0.021009 -0.002414 0.000000 0.000000 0.000000
# 3 0.001074 -0.002414 0.008969 0.000000 0.000000 0.000000
# 4 0.000000 0.000000 0.000000 0.052996 0.000000 0.000000
# 5 0.000000 0.000000 0.000000 0.000000 0.004080 0.000000
# 6 0.000000 0.000000 0.000000 0.000000 0.000000 0.015405
#
#
# Mechanical properties :
#
#
# Convention : Reuss Voigt Hill
#
# Bulk Modulus (GPa) = 63.35243 77.15833 70.25538
# Shear Modulus (GPa) = 34.93535 85.83625 60.38580
#
# Velocity S-wave (km/s) = 3.58449 5.61863 4.71262
# Velocity P-wave (km/s) = 6.35856 8.39460 7.44650
#
# Compressibility (1/GPa) = 0.01578471
#
# Stress axis : x y z
#
# Youngs Moduli (GPa) = 94.30065 47.59954 111.50077
#
# Poissons Ratio (x) = 0.52641 -0.11979
# Poissons Ratio (y) = 1.04288 0.26913
# Poissons Ratio (z) = -0.10131 0.11489
#
# Static dielectric constant tensor:
#      x y z
#    x 2.124490 0.000000 0.000000 
#    y 0.000000 2.362910 0.000000 
#    z 0.000000 0.000000 2.504850 
# 
# From -- ./inp_files/32127.got.cif
#   From: 2010.05.17/outbox.cif.g08.bks.cpg/sg72_17_cif.got.tgz:32127.got - 2010.06.03 17:03:01.
