data_PCOD9528128
_publ_section_title
;
Structure prediction by ZEFSAII (Michael W. Deem and Ramdas Pophale) SiO2 
 PCOD9528128
Probable space group: I B A M
;
_chemical_formula_sum "Si O2"
_cell_formula_units_Z 112
_cell_length_a 25.478689
_cell_length_b 14.119495
_cell_length_c 15.127035
_cell_angle_alpha 90.000000
_cell_angle_beta 90.000000
_cell_angle_gamma 90.000000
_cell_volume 5441.893690
_symmetry_space_group_name_H-M "I B A M"
_symmetry_group_IT_number 72
_symmetry_cell_setting 'orthorhombic'
loop_
_space_group_symop_operation_xyz
x,y,z
-x,-y,z
x,-y,1/2-z
-x,y,1/2-z
-x,-y,-z
x,y,-z
-x,y,1/2+z
x,-y,1/2+z
1/2+x,1/2+y,1/2+z
1/2-x,1/2-y,1/2+z
1/2+x,1/2-y,-z
1/2-x,1/2+y,-z
1/2-x,1/2-y,1/2-z
1/2+x,1/2+y,1/2-z
1/2-x,1/2+y,z
1/2+x,1/2-y,z
loop_
_atom_site_type_symbol
_atom_site_label
_atom_site_fract_x
_atom_site_fract_y
_atom_site_fract_z
Si Si1 0.187858 0.303126 0.104989
Si Si2 0.841551 0.487210 0.852767
Si Si3 0.703339 0.783765 0.103381
Si Si4 0.548619 0.946513 0.601020
Si Si5 0.989240 0.108064 0.602294
Si Si6 0.088386 0.758847 0.099560
Si Si7 0.580961 0.760167 0.300051
O O1 0.187040 0.417444 0.114257
O O2 0.243438 0.262564 0.137688
O O3 0.141089 0.260023 0.164651
O O4 0.178558 0.282956 0.000000
O O5 0.851604 0.500000 0.750000
O O6 0.811801 0.388575 0.864153
O O7 0.898713 0.491176 0.896923
O O8 0.650620 0.720502 0.109673
O O9 0.713497 0.795898 0.000000
O O10 0.535974 0.923172 0.500000
O O11 0.557404 0.848647 0.648819
O O12 0.500000 0.000000 0.641455
O O13 0.968591 0.110424 0.500000
O O14 0.046210 0.157505 0.599022
O O15 0.950969 0.167424 0.667233
O O16 0.000000 0.000000 0.628542
O O17 0.077019 0.715211 0.196183
O O18 0.083399 0.713906 0.000000
#
# Coordination Sequence:
#
# PCOD9528128 Si02
#       7
#    16  16  16  16  16  16  16
#     4  10  22  42  65  92 123 161 208 257 311 371
#     4  11  22  37  59  90 124 162 204 254 305 367
#     4  10  21  40  65  89 121 164 206 257 313 365
#     4  10  22  39  62  92 126 163 204 253 307 367
#     4  10  22  42  67  95 127 162 205 257 311 371
#     4  10  23  40  61  90 126 166 207 253 306 365
#     4  11  21  39  66  92 125 166 206 255 309 371
#
# _framework density 20.58107
#
# number of rings (size 3 to 8) (size 9 to 14) (size 15 to 20)
#    0.000    1.714    0.000    5.571    2.000    3.714 
#    7.714    0.000    0.000    0.429    0.000    0.000 
#    0.000    0.000    0.000    0.000    0.000    0.000 
#
# Total GULP energy -312453.471690 kJ/mol
# GULP energy per Si atom -5579.526280 kJ/mol
# Density = 2.053423 g / cm^3
# Si number density = 20.581070 Si / 1000 Ang^3
#
#
#
# Elastic Constant Matrix: (Units=GPa)
#
#
# Indices 1 2 3 4 5 6 
#
# 1 131.1401 71.8437 17.5505 0.0000 0.0000 0.0000
# 2 71.8437 85.5380 21.5957 0.0000 0.0000 0.0000
# 3 17.5505 21.5957 126.6657 0.0000 0.0000 0.0000
# 4 0.0000 0.0000 0.0000 7.4699 0.0000 0.0000
# 5 0.0000 0.0000 0.0000 0.0000 -24.4560 0.0000
# 6 0.0000 0.0000 0.0000 0.0000 0.0000 30.9763
#
#
#
# Elastic Compliance Matrix: (Units=1/GPa)
#
#
# Indices 1 2 3 4 5 6 
#
# 1 0.014125 -0.011881 0.000069 0.000000 0.000000 0.000000
# 2 -0.011881 0.022210 -0.002140 0.000000 0.000000 0.000000
# 3 0.000069 -0.002140 0.008250 0.000000 0.000000 0.000000
# 4 0.000000 0.000000 0.000000 0.133871 0.000000 0.000000
# 5 0.000000 0.000000 0.000000 0.000000 -0.040890 0.000000
# 6 0.000000 0.000000 0.000000 0.000000 0.000000 0.032283
#
#
# Mechanical properties :
#
#
# Convention : Reuss Voigt Hill
#
# Bulk Modulus (GPa) = 59.95421 62.81374 61.38397
# Shear Modulus (GPa) = 24.59236 18.28831 21.44034
#
# Velocity S-wave (km/s) = 3.46049 2.98417 3.23112
# Velocity P-wave (km/s) = 6.72016 6.51614 6.61894
#
# Compressibility (1/GPa) = 0.01667940
#
# Stress axis : x y z
#
# Youngs Moduli (GPa) = 70.79548 45.02461 121.20854
#
# Poissons Ratio (x) = 0.53494 -0.00830
# Poissons Ratio (y) = 0.84113 0.25944
# Poissons Ratio (z) = -0.00485 0.09637
#
# Static dielectric constant tensor:
#      x y z
#    x 1.788980 0.000000 0.000000 
#    y 0.000000 1.739360 0.000000 
#    z 0.000000 0.000000 1.785030 
# 
# From -- ./inp_files/25211.got.cif
#   From: 2010.05.17/outbox.cif.g08.bks.cpg/sg72_13_cif.got.tgz:25211.got - 2010.06.03 17:03:01.
