data_PCOD9528501
_publ_section_title
;
Structure prediction by ZEFSAII (Michael W. Deem and Ramdas Pophale) SiO2 
 PCOD9528501
Probable space group: I B A M
;
_chemical_formula_sum "Si O2"
_cell_formula_units_Z 72
_cell_length_a 14.287283
_cell_length_b 13.198300
_cell_length_c 18.555645
_cell_angle_alpha 90.000000
_cell_angle_beta 90.000000
_cell_angle_gamma 90.000000
_cell_volume 3498.998031
_symmetry_space_group_name_H-M "I B A M"
_symmetry_group_IT_number 72
_symmetry_cell_setting 'orthorhombic'
loop_
_space_group_symop_operation_xyz
x,y,z
-x,-y,z
x,-y,1/2-z
-x,y,1/2-z
-x,-y,-z
x,y,-z
-x,y,1/2+z
x,-y,1/2+z
1/2+x,1/2+y,1/2+z
1/2-x,1/2-y,1/2+z
1/2+x,1/2-y,-z
1/2-x,1/2+y,-z
1/2-x,1/2-y,1/2-z
1/2+x,1/2+y,1/2-z
1/2-x,1/2+y,z
1/2+x,1/2-y,z
loop_
_atom_site_type_symbol
_atom_site_label
_atom_site_fract_x
_atom_site_fract_y
_atom_site_fract_z
Si Si1 0.356373 0.581649 0.314766
Si Si2 0.331489 0.797938 0.840257
Si Si3 0.897624 0.510486 0.084745
Si Si4 0.500000 0.724956 0.750000
Si Si5 0.790915 0.914650 0.086504
O O1 0.354203 0.500000 0.250000
O O2 0.265435 0.655070 0.310314
O O3 0.448383 0.650302 0.306932
O O4 0.348348 0.512451 0.385843
O O5 0.362376 0.876620 0.901613
O O6 0.416527 0.789713 0.784129
O O7 0.320438 0.687516 0.874352
O O8 0.815882 0.437357 0.111773
O O9 0.000000 0.500000 0.117907
O O10 0.904327 0.489609 0.000000
O O11 0.794853 0.906005 0.000000
#
# Coordination Sequence:
#
# PCOD9528501 Si02
#       5
#    16  16  16   8  16
#     4  11  24  43  65  90 130 167 207 261 314 369
#     4  11  24  38  67  91 127 161 214 253 322 367
#     4   9  20  39  61  90 125 162 207 261 312 369
#     4  12  25  40  63  92 124 168 211 262 303 376
#     4  10  22  41  65  92 129 166 207 259 314 373
#
# _framework density 20.57732
#
# number of rings (size 3 to 8) (size 9 to 14) (size 15 to 20)
#    0.000    1.556    2.222    1.667    3.111    2.667 
#    0.000    3.333    0.000    0.000    0.000    0.000 
#    0.000    0.000    0.000    0.000    0.000    0.000 
#
# Total GULP energy -200995.726270 kJ/mol
# GULP energy per Si atom -5583.214619 kJ/mol
# Density = 2.053049 g / cm^3
# Si number density = 20.577320 Si / 1000 Ang^3
#
#
#
# Elastic Constant Matrix: (Units=GPa)
#
#
# Indices 1 2 3 4 5 6 
#
# 1 90.8710 22.3569 0.3439 0.0000 0.0000 0.0000
# 2 22.3569 69.3289 -0.6818 0.0000 0.0000 0.0000
# 3 0.3439 -0.6818 32.6981 0.0000 0.0000 0.0000
# 4 0.0000 0.0000 0.0000 20.9631 0.0000 0.0000
# 5 0.0000 0.0000 0.0000 0.0000 24.3152 0.0000
# 6 0.0000 0.0000 0.0000 0.0000 0.0000 25.7591
#
#
#
# Elastic Compliance Matrix: (Units=1/GPa)
#
#
# Indices 1 2 3 4 5 6 
#
# 1 0.011954 -0.003857 -0.000206 0.000000 0.000000 0.000000
# 2 -0.003857 0.015671 0.000367 0.000000 0.000000 0.000000
# 3 -0.000206 0.000367 0.030593 0.000000 0.000000 0.000000
# 4 0.000000 0.000000 0.000000 0.047703 0.000000 0.000000
# 5 0.000000 0.000000 0.000000 0.000000 0.041127 0.000000
# 6 0.000000 0.000000 0.000000 0.000000 0.000000 0.038821
#
#
# Mechanical properties :
#
#
# Convention : Reuss Voigt Hill
#
# Bulk Modulus (GPa) = 19.67471 26.32624 23.00048
# Shear Modulus (GPa) = 23.78654 25.59941 24.69297
#
# Velocity S-wave (km/s) = 3.40363 3.53095 3.46787
# Velocity P-wave (km/s) = 5.00284 5.42633 5.21888
#
# Compressibility (1/GPa) = 0.05082666
#
# Stress axis : x y z
#
# Youngs Moduli (GPa) = 83.65173 63.81046 32.68763
#
# Poissons Ratio (x) = 0.24612 0.00674
# Poissons Ratio (y) = 0.32265 -0.01201
# Poissons Ratio (z) = 0.01725 -0.02344
#
# Static dielectric constant tensor:
#      x y z
#    x 1.773600 0.000000 0.000000 
#    y 0.000000 1.713040 0.000000 
#    z 0.000000 0.000000 1.739520 
# 
# From -- ./inp_files/30318.got.cif
#   From: 2010.05.17/outbox.cif.g08.bks.cpg/sg72_16_cif.got.tgz:30318.got - 2010.06.03 17:03:01.
