data_PCOD9528081
_publ_section_title
;
Structure prediction by ZEFSAII (Michael W. Deem and Ramdas Pophale) SiO2 
 PCOD9528081
Probable space group: I B A M
;
_chemical_formula_sum "Si O2"
_cell_formula_units_Z 96
_cell_length_a 18.426039
_cell_length_b 22.080828
_cell_length_c 11.331689
_cell_angle_alpha 90.000000
_cell_angle_beta 90.000000
_cell_angle_gamma 90.000000
_cell_volume 4610.435892
_symmetry_space_group_name_H-M "I B A M"
_symmetry_group_IT_number 72
_symmetry_cell_setting 'orthorhombic'
loop_
_space_group_symop_operation_xyz
x,y,z
-x,-y,z
x,-y,1/2-z
-x,y,1/2-z
-x,-y,-z
x,y,-z
-x,y,1/2+z
x,-y,1/2+z
1/2+x,1/2+y,1/2+z
1/2-x,1/2-y,1/2+z
1/2+x,1/2-y,-z
1/2-x,1/2+y,-z
1/2-x,1/2-y,1/2-z
1/2+x,1/2+y,1/2-z
1/2-x,1/2+y,z
1/2+x,1/2-y,z
loop_
_atom_site_type_symbol
_atom_site_label
_atom_site_fract_x
_atom_site_fract_y
_atom_site_fract_z
Si Si1 0.082913 0.025309 0.372855
Si Si2 0.368119 0.207665 0.135015
Si Si3 0.452613 0.089889 0.862194
Si Si4 0.780506 0.162253 0.367698
Si Si5 0.581450 0.662491 0.201776
Si Si6 0.794616 0.532179 0.627552
O O1 0.114693 0.006167 0.500000
O O2 0.084423 0.098107 0.364738
O O3 0.114448 0.000000 0.250000
O O4 0.000000 0.000000 0.373985
O O5 0.425837 0.157669 0.174340
O O6 0.288134 0.198039 0.189870
O O7 0.398722 0.275012 0.137520
O O8 0.355206 0.189293 0.000000
O O9 0.500000 0.069493 0.750000
O O10 0.379237 0.050845 0.867836
O O11 0.482159 0.090077 0.000000
O O12 0.794487 0.185835 0.500000
O O13 0.856111 0.161213 0.300500
O O14 0.750974 0.093953 0.373731
O O15 0.500000 0.667081 0.250000
O O16 0.777979 0.500000 0.750000
O O17 0.783292 0.500310 0.500000
#
# Coordination Sequence:
#
# PCOD9528081 Si02
#       6
#    16  16  16  16  16  16
#     4  10  21  40  56  78 119 161 195 242 297 352
#     4   9  19  38  59  82 116 159 201 247 301 363
#     4   9  18  34  57  86 123 157 190 245 307 358
#     4   9  21  40  60  82 117 158 201 251 305 361
#     4  12  22  35  60  92 115 154 198 254 304 366
#     4   9  19  38  60  83 115 159 204 245 296 361
#
# _framework density 20.822326
#
# number of rings (size 3 to 8) (size 9 to 14) (size 15 to 20)
#    0.000    2.333    1.667    3.500    0.000    3.667 
#    0.000    5.833    0.000    3.000    0.000    0.000 
#    0.000    0.000    0.000    0.000    0.000    0.000 
#
# Total GULP energy -267355.215233 kJ/mol
# GULP energy per Si atom -5569.900317 kJ/mol
# Density = 2.077493 g / cm^3
# Si number density = 20.822326 Si / 1000 Ang^3
#
#
#
# Elastic Constant Matrix: (Units=GPa)
#
#
# Indices 1 2 3 4 5 6 
#
# 1 126.3039 15.0724 56.4664 0.0000 0.0000 0.0000
# 2 15.0724 93.4546 33.7802 0.0000 0.0000 0.0000
# 3 56.4664 33.7802 145.8572 0.0000 0.0000 0.0000
# 4 0.0000 0.0000 0.0000 29.6744 0.0000 0.0000
# 5 0.0000 0.0000 0.0000 0.0000 -10.2192 0.0000
# 6 0.0000 0.0000 0.0000 0.0000 0.0000 5.8533
#
#
#
# Elastic Compliance Matrix: (Units=1/GPa)
#
#
# Indices 1 2 3 4 5 6 
#
# 1 0.009579 -0.000223 -0.003657 0.000000 0.000000 0.000000
# 2 -0.000223 0.011683 -0.002619 0.000000 0.000000 0.000000
# 3 -0.003657 -0.002619 0.008878 0.000000 0.000000 0.000000
# 4 0.000000 0.000000 0.000000 0.033699 0.000000 0.000000
# 5 0.000000 0.000000 0.000000 0.000000 -0.097855 0.000000
# 6 0.000000 0.000000 0.000000 0.000000 0.000000 0.170844
#
#
# Mechanical properties :
#
#
# Convention : Reuss Voigt Hill
#
# Bulk Modulus (GPa) = 58.33654 64.02821 61.18237
# Shear Modulus (GPa) = 32.14602 22.41481 27.28042
#
# Velocity S-wave (km/s) = 3.93342 3.28453 3.62353
# Velocity P-wave (km/s) = 6.97898 6.72315 6.85226
#
# Compressibility (1/GPa) = 0.01714191
#
# Stress axis : x y z
#
# Youngs Moduli (GPa) = 104.39727 85.59310 112.63450
#
# Poissons Ratio (x) = 0.01910 0.41186
# Poissons Ratio (y) = 0.02330 0.29504
# Poissons Ratio (z) = 0.38174 0.22420
#
# Static dielectric constant tensor:
#      x y z
#    x 1.781540 0.000000 0.000000 
#    y 0.000000 1.753720 0.000000 
#    z 0.000000 0.000000 1.792710 
# 
# From -- ./inp_files/13888.got.cif
#   From: 2010.05.17/outbox.cif.g08.bks.cpg/sg72_7_cif.got.tgz:13888.got - 2010.06.03 17:03:01.
