data_PCOD9528606
_publ_section_title
;
Structure prediction by ZEFSAII (Michael W. Deem and Ramdas Pophale) SiO2 
 PCOD9528606
Probable space group: I B A M
;
_chemical_formula_sum "Si O2"
_cell_formula_units_Z 56
_cell_length_a 30.111240
_cell_length_b 5.483134
_cell_length_c 14.633699
_cell_angle_alpha 90.000000
_cell_angle_beta 90.000000
_cell_angle_gamma 90.000000
_cell_volume 2416.081710
_symmetry_space_group_name_H-M "I B A M"
_symmetry_group_IT_number 72
_symmetry_cell_setting 'orthorhombic'
loop_
_space_group_symop_operation_xyz
x,y,z
-x,-y,z
x,-y,1/2-z
-x,y,1/2-z
-x,-y,-z
x,y,-z
-x,y,1/2+z
x,-y,1/2+z
1/2+x,1/2+y,1/2+z
1/2-x,1/2-y,1/2+z
1/2+x,1/2-y,-z
1/2-x,1/2+y,-z
1/2-x,1/2-y,1/2-z
1/2+x,1/2+y,1/2-z
1/2-x,1/2+y,z
1/2+x,1/2-y,z
loop_
_atom_site_type_symbol
_atom_site_label
_atom_site_fract_x
_atom_site_fract_y
_atom_site_fract_z
Si Si1 0.129924 0.324361 0.098115
Si Si2 0.454472 0.107808 0.852703
Si Si3 0.911953 0.000000 0.750000
Si Si4 0.273843 0.005561 0.139642
O O1 0.088459 0.507667 0.097524
O O2 0.120561 0.166881 0.189073
O O3 0.175790 0.466696 0.108717
O O4 0.130597 0.189708 0.000000
O O5 0.444806 0.387645 0.827614
O O6 0.500000 0.000000 0.892065
O O7 0.452913 0.000000 0.750000
O O8 0.246337 0.764892 0.109906
O O9 0.273261 0.000000 0.250000
#
# Coordination Sequence:
#
# PCOD9528606 Si02
#       4
#    16  16   8  16
#     4  11  25  41  64  99 137 180 229 288 347 416
#     4   9  20  39  65  94 129 173 224 279 343 414
#     4  10  22  43  68  94 132 178 224 280 349 418
#     4  10  23  42  70  99 132 179 230 287 350 413
#
# _framework density 23.178024000000001
#
# number of rings (size 3 to 8) (size 9 to 14) (size 15 to 20)
#    0.000    2.000    0.000    2.571   10.000   12.000 
#    0.000    1.429    0.000    0.000    0.000    0.000 
#    0.000    0.000    0.000    0.000    0.000    0.000 
#
# Total GULP energy -156160.114142 kJ/mol
# GULP energy per Si atom -5577.146934 kJ/mol
# Density = 2.312527 g / cm^3
# Si number density = 23.178024 Si / 1000 Ang^3
#
#
#
# Elastic Constant Matrix: (Units=GPa)
#
#
# Indices 1 2 3 4 5 6 
#
# 1 224.6756 70.8742 40.5383 0.0000 0.0000 0.0000
# 2 70.8742 92.9293 31.4982 0.0000 0.0000 0.0000
# 3 40.5383 31.4982 113.3229 0.0000 0.0000 0.0000
# 4 0.0000 0.0000 0.0000 -4.8484 0.0000 0.0000
# 5 0.0000 0.0000 0.0000 0.0000 1107.0407 0.0000
# 6 0.0000 0.0000 0.0000 0.0000 0.0000 14.2489
#
#
#
# Elastic Compliance Matrix: (Units=1/GPa)
#
#
# Indices 1 2 3 4 5 6 
#
# 1 0.005954 -0.004216 -0.000958 0.000000 0.000000 0.000000
# 2 -0.004216 0.014866 -0.002624 0.000000 0.000000 0.000000
# 3 -0.000958 -0.002624 0.009896 0.000000 0.000000 0.000000
# 4 0.000000 0.000000 0.000000 -0.206253 0.000000 0.000000
# 5 0.000000 0.000000 0.000000 0.000000 0.000903 0.000000
# 6 0.000000 0.000000 0.000000 0.000000 0.000000 0.070181
#
#
# Mechanical properties :
#
#
# Convention : Reuss Voigt Hill
#
# Bulk Modulus (GPa) = 66.13662 79.63880 72.88771
# Shear Modulus (GPa) = -59.65270 242.48938 91.41834
#
# Velocity S-wave (km/s) = -5.07864 10.23951 6.28709
# Velocity P-wave (km/s) = 2.40708 13.19965 9.17706
#
# Compressibility (1/GPa) = 0.01512022
#
# Stress axis : x y z
#
# Youngs Moduli (GPa) = 167.96475 67.26961 101.04797
#
# Poissons Ratio (x) = 0.28361 0.09680
# Poissons Ratio (y) = 0.70813 0.26512
# Poissons Ratio (z) = 0.16090 0.17650
#
# Static dielectric constant tensor:
#      x y z
#    x 1.838020 0.000000 0.000000 
#    y 0.000000 2.137170 0.000000 
#    z 0.000000 0.000000 2.391790 
# 
# From -- ./inp_files/17522.got.cif
#   From: 2010.05.17/outbox.cif.g08.bks.cpg/sg72_9_cif.got.tgz:17522.got - 2010.06.03 17:03:01.
