data_PCOD9528840
_publ_section_title
;
Structure prediction by ZEFSAII (Michael W. Deem and Ramdas Pophale) SiO2 
 PCOD9528840
Probable space group: I B A M
;
_chemical_formula_sum "Si O2"
_cell_formula_units_Z 60
_cell_length_a 19.718459
_cell_length_b 5.255553
_cell_length_c 26.667544
_cell_angle_alpha 90.000000
_cell_angle_beta 90.000000
_cell_angle_gamma 90.000000
_cell_volume 2763.595089
_symmetry_space_group_name_H-M "I B A M"
_symmetry_group_IT_number 72
_symmetry_cell_setting 'orthorhombic'
loop_
_space_group_symop_operation_xyz
x,y,z
-x,-y,z
x,-y,1/2-z
-x,y,1/2-z
-x,-y,-z
x,y,-z
-x,y,1/2+z
x,-y,1/2+z
1/2+x,1/2+y,1/2+z
1/2-x,1/2-y,1/2+z
1/2+x,1/2-y,-z
1/2-x,1/2+y,-z
1/2-x,1/2-y,1/2-z
1/2+x,1/2+y,1/2-z
1/2-x,1/2+y,z
1/2+x,1/2-y,z
loop_
_atom_site_type_symbol
_atom_site_label
_atom_site_fract_x
_atom_site_fract_y
_atom_site_fract_z
Si Si1 0.289047 0.140425 0.887834
Si Si2 0.077097 0.746795 0.500000
Si Si3 0.835169 0.259801 0.000000
Si Si4 0.433204 0.156232 0.154514
Si Si5 0.500000 0.500000 0.586357
Si Si6 0.500000 0.000000 0.750000
O O1 0.263857 0.421169 0.873378
O O2 0.297337 0.168836 0.948374
O O3 0.360095 0.061290 0.862108
O O4 0.103915 0.462914 0.500000
O O5 0.032224 0.799248 0.548520
O O6 0.135326 0.971104 0.500000
O O7 0.440876 0.414265 0.123602
O O8 0.500000 0.000000 0.136966
O O9 0.450799 0.162381 0.213495
#
# Coordination Sequence:
#
# PCOD9528840 Si02
#       6
#    16   8   8  16   8   4
#     4  12  26  43  67 103 146 189 229 281 347 420
#     4  11  24  35  66 105 137 181 239 277 340 403
#     4  12  22  44  60  97 148 196 225 273 325 434
#     4  10  23  45  72  98 135 177 237 294 355 408
#     4  11  22  37  68 102 136 181 226 297 340 418
#     4   8  24  46  76 102 126 172 246 310 356 412
#
# _framework density 21.710851999999999
#
# number of rings (size 3 to 8) (size 9 to 14) (size 15 to 20)
#    0.800    0.267    2.667    4.000    3.733    1.600 
#    0.000    1.333    0.000    0.000    0.000    0.000 
#    0.000    0.000    0.000    0.000    0.000    0.000 
#
# Total GULP energy -167289.709094 kJ/mol
# GULP energy per Si atom -5576.323636 kJ/mol
# Density = 2.166144 g / cm^3
# Si number density = 21.710852 Si / 1000 Ang^3
#
#
#
# Elastic Constant Matrix: (Units=GPa)
#
#
# Indices 1 2 3 4 5 6 
#
# 1 104.6062 23.8411 25.5992 0.0000 0.0000 0.0000
# 2 23.8411 64.1286 16.8472 0.0000 0.0000 0.0000
# 3 25.5992 16.8472 128.2009 0.0000 0.0000 0.0000
# 4 0.0000 0.0000 0.0000 6.5663 0.0000 0.0000
# 5 0.0000 0.0000 0.0000 0.0000 -0.1404 0.0000
# 6 0.0000 0.0000 0.0000 0.0000 0.0000 48.9334
#
#
#
# Elastic Compliance Matrix: (Units=1/GPa)
#
#
# Indices 1 2 3 4 5 6 
#
# 1 0.010785 -0.003567 -0.001685 0.000000 0.000000 0.000000
# 2 -0.003567 0.017331 -0.001565 0.000000 0.000000 0.000000
# 3 -0.001685 -0.001565 0.008342 0.000000 0.000000 0.000000
# 4 0.000000 0.000000 0.000000 0.152292 0.000000 0.000000
# 5 0.000000 0.000000 0.000000 0.000000 -7.123989 0.000000
# 6 0.000000 0.000000 0.000000 0.000000 0.000000 0.020436
#
#
# Mechanical properties :
#
#
# Convention : Reuss Voigt Hill
#
# Bulk Modulus (GPa) = 43.81294 47.72342 45.76818
# Shear Modulus (GPa) = -0.72531 26.44841 12.86155
#
# Velocity S-wave (km/s) = -0.57862 3.49408 2.43657
# Velocity P-wave (km/s) = 4.44720 6.18928 5.38910
#
# Compressibility (1/GPa) = 0.02282431
#
# Stress axis : x y z
#
# Youngs Moduli (GPa) = 92.72217 57.70026 119.86992
#
# Poissons Ratio (x) = 0.20581 0.20196
# Poissons Ratio (y) = 0.33073 0.18763
# Poissons Ratio (z) = 0.15622 0.09032
#
# Static dielectric constant tensor:
#      x y z
#    x 1.884590 0.000000 0.000000 
#    y 0.000000 1.999890 0.000000 
#    z 0.000000 0.000000 1.780440 
# 
# From -- ./inp_files/48881.got.cif
#   From: 2010.05.17/outbox.cif.g08.bks.cpg/sg72_25_cif.got.tgz:48881.got - 2010.06.03 17:03:01.
