data_PCOD9528432
_publ_section_title
;
Structure prediction by ZEFSAII (Michael W. Deem and Ramdas Pophale) SiO2 
 PCOD9528432
Probable space group: I B A M
;
_chemical_formula_sum "Si O2"
_cell_formula_units_Z 52
_cell_length_a 4.874350
_cell_length_b 22.374495
_cell_length_c 19.173560
_cell_angle_alpha 90.000000
_cell_angle_beta 90.000000
_cell_angle_gamma 90.000000
_cell_volume 2091.089922
_symmetry_space_group_name_H-M "I B A M"
_symmetry_group_IT_number 72
_symmetry_cell_setting 'orthorhombic'
loop_
_space_group_symop_operation_xyz
x,y,z
-x,-y,z
x,-y,1/2-z
-x,y,1/2-z
-x,-y,-z
x,y,-z
-x,y,1/2+z
x,-y,1/2+z
1/2+x,1/2+y,1/2+z
1/2-x,1/2-y,1/2+z
1/2+x,1/2-y,-z
1/2-x,1/2+y,-z
1/2-x,1/2-y,1/2-z
1/2+x,1/2+y,1/2-z
1/2-x,1/2+y,z
1/2+x,1/2-y,z
loop_
_atom_site_type_symbol
_atom_site_label
_atom_site_fract_x
_atom_site_fract_y
_atom_site_fract_z
Si Si1 0.671027 0.208318 0.148154
Si Si2 0.000000 0.500000 0.500000
Si Si3 0.307968 0.708262 0.500000
Si Si4 0.267211 0.960490 0.360847
Si Si5 0.000000 0.872366 0.250000
O O1 0.363113 0.232207 0.151017
O O2 0.778859 0.166827 0.208659
O O3 0.735781 0.178497 0.073181
O O4 0.099520 0.452738 0.562569
O O5 0.618332 0.731611 0.500000
O O6 0.161201 0.909819 0.309098
O O7 0.500000 0.000000 0.324109
O O8 0.000000 0.000000 0.375929
#
# Coordination Sequence:
#
# PCOD9528432 Si02
#       5
#    16   4   8  16   8
#     4  10  22  40  63  96 144 181 233 287 348 430
#     4   8  22  50  70  92 138 182 234 308 362 432
#     4   8  16  35  59  82 123 182 221 272 326 396
#     4  10  24  44  71  96 136 178 237 301 364 431
#     4  12  25  40  70 106 138 186 233 292 386 434
#
# _framework density 24.867415999999999
#
# number of rings (size 3 to 8) (size 9 to 14) (size 15 to 20)
#    0.923    1.231    0.000    1.846    0.000    8.615 
#    0.000    0.000    6.769    0.000    0.000    0.000 
#    0.000    0.000    0.000    0.000    0.000    0.000 
#
# Total GULP energy -144797.817933 kJ/mol
# GULP energy per Si atom -5569.146844 kJ/mol
# Density = 2.481082 g / cm^3
# Si number density = 24.867416 Si / 1000 Ang^3
#
#
#
# Elastic Constant Matrix: (Units=GPa)
#
#
# Indices 1 2 3 4 5 6 
#
# 1 98.1172 19.3085 15.1768 0.0000 0.0000 0.0000
# 2 19.3085 55.5748 66.2885 0.0000 0.0000 0.0000
# 3 15.1768 66.2885 263.1346 0.0000 0.0000 0.0000
# 4 0.0000 0.0000 0.0000 -120.1473 0.0000 0.0000
# 5 0.0000 0.0000 0.0000 0.0000 29.9639 0.0000
# 6 0.0000 0.0000 0.0000 0.0000 0.0000 24.9579
#
#
#
# Elastic Compliance Matrix: (Units=1/GPa)
#
#
# Indices 1 2 3 4 5 6 
#
# 1 0.010980 -0.004374 0.000469 0.000000 0.000000 0.000000
# 2 -0.004374 0.027465 -0.006667 0.000000 0.000000 0.000000
# 3 0.000469 -0.006667 0.005453 0.000000 0.000000 0.000000
# 4 0.000000 0.000000 0.000000 -0.008323 0.000000 0.000000
# 5 0.000000 0.000000 0.000000 0.000000 0.033373 0.000000
# 6 0.000000 0.000000 0.000000 0.000000 0.000000 0.040067
#
#
# Mechanical properties :
#
#
# Convention : Reuss Voigt Hill
#
# Bulk Modulus (GPa) = 43.94763 68.70825 56.32794
# Shear Modulus (GPa) = 36.29905 8.02510 22.16207
#
# Velocity S-wave (km/s) = 3.82475 1.79838 2.98855
# Velocity P-wave (km/s) = 6.10050 5.65703 5.88295
#
# Compressibility (1/GPa) = 0.02275436
#
# Stress axis : x y z
#
# Youngs Moduli (GPa) = 91.07370 36.40955 183.39208
#
# Poissons Ratio (x) = 0.15924 -0.08592
# Poissons Ratio (y) = 0.39833 1.22263
# Poissons Ratio (z) = -0.04267 0.24273
#
# Static dielectric constant tensor:
#      x y z
#    x 1.903080 0.000000 0.000000 
#    y 0.000000 1.993580 0.000000 
#    z 0.000000 0.000000 2.010810 
# 
# From -- ./inp_files/34607.got.cif
#   From: 2010.05.17/outbox.cif.g08.bks.cpg/sg72_18_cif.got.tgz:34607.got - 2010.06.03 17:03:01.
