data_PCOD9528794
_publ_section_title
;
Structure prediction by ZEFSAII (Michael W. Deem and Ramdas Pophale) SiO2 
 PCOD9528794
Probable space group: I B A M
;
_chemical_formula_sum "Si O2"
_cell_formula_units_Z 64
_cell_length_a 10.949689
_cell_length_b 10.477719
_cell_length_c 24.704714
_cell_angle_alpha 90.000000
_cell_angle_beta 90.000000
_cell_angle_gamma 90.000000
_cell_volume 2834.316609
_symmetry_space_group_name_H-M "I B A M"
_symmetry_group_IT_number 72
_symmetry_cell_setting 'orthorhombic'
loop_
_space_group_symop_operation_xyz
x,y,z
-x,-y,z
x,-y,1/2-z
-x,y,1/2-z
-x,-y,-z
x,y,-z
-x,y,1/2+z
x,-y,1/2+z
1/2+x,1/2+y,1/2+z
1/2-x,1/2-y,1/2+z
1/2+x,1/2-y,-z
1/2-x,1/2+y,-z
1/2-x,1/2-y,1/2-z
1/2+x,1/2+y,1/2-z
1/2-x,1/2+y,z
1/2+x,1/2-y,z
loop_
_atom_site_type_symbol
_atom_site_label
_atom_site_fract_x
_atom_site_fract_y
_atom_site_fract_z
Si Si1 0.500000 0.000000 0.334435
Si Si2 0.364215 0.481103 0.666495
Si Si3 0.380165 0.765188 0.892883
Si Si4 0.868629 0.147770 0.938195
Si Si5 0.818888 0.500000 0.750000
O O1 0.424232 0.098280 0.370041
O O2 0.592147 0.070937 0.292501
O O3 0.500000 0.500000 0.686534
O O4 0.348482 0.330285 0.656803
O O5 0.356560 0.537164 0.606159
O O6 0.275491 0.556420 0.706740
O O7 0.256671 0.772953 0.928211
O O8 0.502679 0.715778 0.923541
O O9 0.872072 0.104503 0.000000
#
# Coordination Sequence:
#
# PCOD9528794 Si02
#       5
#     8  16  16  16   8
#     4  11  24  42  67  96 137 178 222 287 342 415
#     4  10  23  43  66  98 135 178 229 281 345 419
#     4  11  24  46  68 101 139 179 236 286 352 416
#     4  11  24  44  71  99 137 182 232 291 353 421
#     4  11  21  44  64  98 135 175 226 278 348 403
#
# _framework density 22.580400000000001
#
# number of rings (size 3 to 8) (size 9 to 14) (size 15 to 20)
#    0.000    1.250    2.500    2.625    0.000    6.500 
#   18.000    1.250    0.000    0.000    0.000    0.000 
#    0.000    0.000    0.000    0.000    0.000    0.000 
#
# Total GULP energy -178186.105612 kJ/mol
# GULP energy per Si atom -5568.315800 kJ/mol
# Density = 2.252901 g / cm^3
# Si number density = 22.580400 Si / 1000 Ang^3
#
#
#
# Elastic Constant Matrix: (Units=GPa)
#
#
# Indices 1 2 3 4 5 6 
#
# 1 168.1338 12.5978 43.2589 0.0000 0.0000 0.0000
# 2 12.5978 53.2009 16.7034 0.0000 0.0000 0.0000
# 3 43.2589 16.7034 129.1383 0.0000 0.0000 0.0000
# 4 0.0000 0.0000 0.0000 -22.2787 0.0000 0.0000
# 5 0.0000 0.0000 0.0000 0.0000 17.3141 0.0000
# 6 0.0000 0.0000 0.0000 0.0000 0.0000 26.1193
#
#
#
# Elastic Compliance Matrix: (Units=1/GPa)
#
#
# Indices 1 2 3 4 5 6 
#
# 1 0.006550 -0.000899 -0.002078 0.000000 0.000000 0.000000
# 2 -0.000899 0.019716 -0.002249 0.000000 0.000000 0.000000
# 3 -0.002078 -0.002249 0.008731 0.000000 0.000000 0.000000
# 4 0.000000 0.000000 0.000000 -0.044886 0.000000 0.000000
# 5 0.000000 0.000000 0.000000 0.000000 0.057756 0.000000
# 6 0.000000 0.000000 0.000000 0.000000 0.000000 0.038286
#
#
# Mechanical properties :
#
#
# Convention : Reuss Voigt Hill
#
# Bulk Modulus (GPa) = 40.74177 55.06593 47.90385
# Shear Modulus (GPa) = 47.71702 22.75847 35.23774
#
# Velocity S-wave (km/s) = 4.60195 3.17817 3.95466
# Velocity P-wave (km/s) = 6.80583 6.15688 6.48948
#
# Compressibility (1/GPa) = 0.02454483
#
# Stress axis : x y z
#
# Youngs Moduli (GPa) = 152.68214 50.72130 114.54028
#
# Poissons Ratio (x) = 0.04558 0.23799
# Poissons Ratio (y) = 0.13720 0.25761
# Poissons Ratio (z) = 0.31724 0.11408
#
# Static dielectric constant tensor:
#      x y z
#    x 1.928390 0.000000 0.000000 
#    y 0.000000 1.917750 0.000000 
#    z 0.000000 0.000000 1.814740 
# 
# From -- ./inp_files/42948.got.cif
#   From: 2010.05.17/outbox.cif.g08.bks.cpg/sg72_22_cif.got.tgz:42948.got - 2010.06.03 17:03:01.
