data_PCOD9528826
_publ_section_title
;
Structure prediction by ZEFSAII (Michael W. Deem and Ramdas Pophale) SiO2 
 PCOD9528826
Probable space group: I B A M
;
_chemical_formula_sum "Si O2"
_cell_formula_units_Z 64
_cell_length_a 21.835408
_cell_length_b 5.220162
_cell_length_c 21.016047
_cell_angle_alpha 90.000000
_cell_angle_beta 90.000000
_cell_angle_gamma 90.000000
_cell_volume 2395.500816
_symmetry_space_group_name_H-M "I B A M"
_symmetry_group_IT_number 72
_symmetry_cell_setting 'orthorhombic'
loop_
_space_group_symop_operation_xyz
x,y,z
-x,-y,z
x,-y,1/2-z
-x,y,1/2-z
-x,-y,-z
x,y,-z
-x,y,1/2+z
x,-y,1/2+z
1/2+x,1/2+y,1/2+z
1/2-x,1/2-y,1/2+z
1/2+x,1/2-y,-z
1/2-x,1/2+y,-z
1/2-x,1/2-y,1/2-z
1/2+x,1/2+y,1/2-z
1/2-x,1/2+y,z
1/2+x,1/2-y,z
loop_
_atom_site_type_symbol
_atom_site_label
_atom_site_fract_x
_atom_site_fract_y
_atom_site_fract_z
Si Si1 0.791101 0.007746 0.641700
Si Si2 0.068673 0.378031 0.928236
Si Si3 0.287350 0.432487 0.000000
Si Si4 0.394179 0.816775 0.309576
Si Si5 0.000000 0.000000 0.150406
O O1 0.739344 0.785217 0.650618
O O2 0.815088 0.993120 0.568594
O O3 0.845847 0.912374 0.685605
O O4 0.108468 0.526760 0.876232
O O5 0.000000 0.500000 0.931164
O O6 0.051733 0.109931 0.896383
O O7 0.092556 0.373697 0.000000
O O8 0.230556 0.633927 0.000000
O O9 0.463012 0.705874 0.309050
O O10 0.383407 0.000000 0.250000
#
# Coordination Sequence:
#
# PCOD9528826 Si02
#       5
#    16  16   8  16   8
#     4  10  23  44  70 103 143 188 241 303 362 437
#     4   9  20  40  66  98 135 178 235 298 360 426
#     4   8  16  36  64  97 135 181 235 294 362 418
#     4  11  26  43  69 105 141 193 239 297 365 432
#     4  10  23  45  68  98 143 187 244 298 363 441
#
# _framework density 26.716750000000001
#
# number of rings (size 3 to 8) (size 9 to 14) (size 15 to 20)
#    0.000    2.250    0.000    0.375    5.250    8.500 
#    0.000    0.000    0.000    0.000    0.000    0.000 
#    0.000    0.000    0.000    0.000    0.000    0.000 
#
# Total GULP energy -179269.601730 kJ/mol
# GULP energy per Si atom -5602.175054 kJ/mol
# Density = 2.665594 g / cm^3
# Si number density = 26.716750 Si / 1000 Ang^3
#
#
#
# Elastic Constant Matrix: (Units=GPa)
#
#
# Indices 1 2 3 4 5 6 
#
# 1 109.5519 36.5367 60.4331 0.0000 0.0000 0.0000
# 2 36.5367 91.8367 23.9395 0.0000 0.0000 0.0000
# 3 60.4331 23.9395 175.3251 0.0000 0.0000 0.0000
# 4 0.0000 0.0000 0.0000 41.6924 0.0000 0.0000
# 5 0.0000 0.0000 0.0000 0.0000 12.3510 0.0000
# 6 0.0000 0.0000 0.0000 0.0000 0.0000 51.1162
#
#
#
# Elastic Compliance Matrix: (Units=1/GPa)
#
#
# Indices 1 2 3 4 5 6 
#
# 1 0.012549 -0.004008 -0.003778 0.000000 0.000000 0.000000
# 2 -0.004008 0.012571 -0.000335 0.000000 0.000000 0.000000
# 3 -0.003778 -0.000335 0.007052 0.000000 0.000000 0.000000
# 4 0.000000 0.000000 0.000000 0.023985 0.000000 0.000000
# 5 0.000000 0.000000 0.000000 0.000000 0.080965 0.000000
# 6 0.000000 0.000000 0.000000 0.000000 0.000000 0.019563
#
#
# Mechanical properties :
#
#
# Convention : Reuss Voigt Hill
#
# Bulk Modulus (GPa) = 62.77686 68.72582 65.75134
# Shear Modulus (GPa) = 28.05262 38.08555 33.06908
#
# Velocity S-wave (km/s) = 3.24389 3.77972 3.52201
# Velocity P-wave (km/s) = 6.13014 6.69538 6.41898
#
# Compressibility (1/GPa) = 0.01592944
#
# Stress axis : x y z
#
# Youngs Moduli (GPa) = 79.68810 79.55047 141.80802
#
# Poissons Ratio (x) = 0.31881 0.53579
# Poissons Ratio (y) = 0.31936 0.04751
# Poissons Ratio (z) = 0.30109 0.02665
#
# Static dielectric constant tensor:
#      x y z
#    x 2.070280 0.000000 0.000000 
#    y 0.000000 2.135620 0.000000 
#    z 0.000000 0.000000 2.072820 
# 
# From -- ./inp_files/45585.got.cif
#   From: 2010.05.17/outbox.cif.g08.bks.cpg/sg72_23_cif.got.tgz:45585.got - 2010.06.03 17:03:01.
