data_PCOD9528625
_publ_section_title
;
Structure prediction by ZEFSAII (Michael W. Deem and Ramdas Pophale) SiO2 
 PCOD9528625
Probable space group: I B A M
;
_chemical_formula_sum "Si O2"
_cell_formula_units_Z 72
_cell_length_a 12.264960
_cell_length_b 8.788477
_cell_length_c 26.254184
_cell_angle_alpha 90.000000
_cell_angle_beta 90.000000
_cell_angle_gamma 90.000000
_cell_volume 2829.946865
_symmetry_space_group_name_H-M "I B A M"
_symmetry_group_IT_number 72
_symmetry_cell_setting 'orthorhombic'
loop_
_space_group_symop_operation_xyz
x,y,z
-x,-y,z
x,-y,1/2-z
-x,y,1/2-z
-x,-y,-z
x,y,-z
-x,y,1/2+z
x,-y,1/2+z
1/2+x,1/2+y,1/2+z
1/2-x,1/2-y,1/2+z
1/2+x,1/2-y,-z
1/2-x,1/2+y,-z
1/2-x,1/2-y,1/2-z
1/2+x,1/2+y,1/2-z
1/2-x,1/2+y,z
1/2+x,1/2-y,z
loop_
_atom_site_type_symbol
_atom_site_label
_atom_site_fract_x
_atom_site_fract_y
_atom_site_fract_z
Si Si1 0.500000 0.246733 0.750000
Si Si2 0.500000 0.500000 0.335423
Si Si3 0.315484 0.000000 0.750000
Si Si4 0.829988 0.052543 0.000000
Si Si5 0.778169 0.115847 0.353185
Si Si6 0.344029 0.090389 0.411901
Si Si7 0.034243 0.259431 0.000000
O O1 0.518276 0.354989 0.701431
O O2 0.602199 0.138257 0.762252
O O3 0.609556 0.526974 0.367187
O O4 0.241403 0.067929 0.794894
O O5 0.752133 0.069846 0.952242
O O6 0.915596 0.188813 0.000000
O O7 0.885794 0.887230 0.000000
O O8 0.665299 0.065554 0.380472
O O9 0.808014 0.284062 0.370687
O O10 0.440942 0.147397 0.448203
#
# Coordination Sequence:
#
# PCOD9528625 Si02
#       7
#     8   8   8   8  16  16   8
#     4  10  22  44  64  90 124 180 224 266 320 372
#     4  11  24  38  68  93 120 178 234 255 310 391
#     4  11  24  45  62  96 144 173 208 281 326 366
#     4  10  22  45  72  97 130 169 217 274 332 398
#     4  12  25  42  67  97 136 176 222 266 320 388
#     4  11  24  41  68 102 130 171 218 273 326 390
#     4  10  22  45  72  97 130 169 217 274 332 398
#
# _framework density 25.442174000000001
#
# number of rings (size 3 to 8) (size 9 to 14) (size 15 to 20)
#    0.000    1.111    2.222    4.000    3.111    2.667 
#    8.000    1.111    0.000    0.000    0.000    0.000 
#    0.000    0.000    0.000    0.000    0.000    0.000 
#
# Total GULP energy -201534.480248 kJ/mol
# GULP energy per Si atom -5598.180007 kJ/mol
# Density = 2.538427 g / cm^3
# Si number density = 25.442174 Si / 1000 Ang^3
#
#
#
# Elastic Constant Matrix: (Units=GPa)
#
#
# Indices 1 2 3 4 5 6 
#
# 1 16.5338 8.6237 5.5582 0.0000 0.0000 0.0000
# 2 8.6237 93.5521 15.9414 0.0000 0.0000 0.0000
# 3 5.5582 15.9414 112.3950 0.0000 0.0000 0.0000
# 4 0.0000 0.0000 0.0000 34.4678 0.0000 0.0000
# 5 0.0000 0.0000 0.0000 0.0000 443.3881 0.0000
# 6 0.0000 0.0000 0.0000 0.0000 0.0000 42.8609
#
#
#
# Elastic Compliance Matrix: (Units=1/GPa)
#
#
# Indices 1 2 3 4 5 6 
#
# 1 0.064158 -0.005507 -0.002392 0.000000 0.000000 0.000000
# 2 -0.005507 0.011427 -0.001348 0.000000 0.000000 0.000000
# 3 -0.002392 -0.001348 0.009207 0.000000 0.000000 0.000000
# 4 0.000000 0.000000 0.000000 0.029013 0.000000 0.000000
# 5 0.000000 0.000000 0.000000 0.000000 0.002255 0.000000
# 6 0.000000 0.000000 0.000000 0.000000 0.000000 0.023331
#
#
# Mechanical properties :
#
#
# Convention : Reuss Voigt Hill
#
# Bulk Modulus (GPa) = 15.08335 31.41416 23.24875
# Shear Modulus (GPa) = 27.78027 116.96720 72.37373
#
# Velocity S-wave (km/s) = 3.30797 6.78775 5.33930
# Velocity P-wave (km/s) = 4.53118 8.59101 6.86794
#
# Compressibility (1/GPa) = 0.06629828
#
# Stress axis : x y z
#
# Youngs Moduli (GPa) = 15.58641 87.51515 108.61640
#
# Poissons Ratio (x) = 0.48191 0.25978
# Poissons Ratio (y) = 0.08583 0.14645
# Poissons Ratio (z) = 0.03728 0.11800
#
# Static dielectric constant tensor:
#      x y z
#    x 2.131270 0.000000 0.000000 
#    y 0.000000 2.035120 0.000000 
#    z 0.000000 0.000000 2.093310 
# 
# From -- ./inp_files/47073.got.cif
#   From: 2010.05.17/outbox.cif.g08.bks.cpg/sg72_24_cif.got.tgz:47073.got - 2010.06.03 17:03:01.
