data_PCOD9528047
_publ_section_title
;
Structure prediction by ZEFSAII (Michael W. Deem and Ramdas Pophale) SiO2 
 PCOD9528047
Probable space group: I B A M
;
_chemical_formula_sum "Si O2"
_cell_formula_units_Z 96
_cell_length_a 24.675768
_cell_length_b 10.163428
_cell_length_c 18.674505
_cell_angle_alpha 90.000000
_cell_angle_beta 90.000000
_cell_angle_gamma 90.000000
_cell_volume 4683.386418
_symmetry_space_group_name_H-M "I B A M"
_symmetry_group_IT_number 72
_symmetry_cell_setting 'orthorhombic'
loop_
_space_group_symop_operation_xyz
x,y,z
-x,-y,z
x,-y,1/2-z
-x,y,1/2-z
-x,-y,-z
x,y,-z
-x,y,1/2+z
x,-y,1/2+z
1/2+x,1/2+y,1/2+z
1/2-x,1/2-y,1/2+z
1/2+x,1/2-y,-z
1/2-x,1/2+y,-z
1/2-x,1/2-y,1/2-z
1/2+x,1/2+y,1/2-z
1/2-x,1/2+y,z
1/2+x,1/2-y,z
loop_
_atom_site_type_symbol
_atom_site_label
_atom_site_fract_x
_atom_site_fract_y
_atom_site_fract_z
Si Si1 0.329449 0.619234 0.173040
Si Si2 0.664690 0.876995 0.415325
Si Si3 0.955436 0.600998 0.913427
Si Si4 0.977566 0.146169 0.914456
Si Si5 0.631827 0.668856 0.173703
Si Si6 0.793444 0.418624 0.182353
O O1 0.331731 0.728564 0.112383
O O2 0.343359 0.471604 0.149524
O O3 0.368508 0.656224 0.239535
O O4 0.267638 0.622990 0.201207
O O5 0.667711 0.880643 0.500000
O O6 0.605397 0.926388 0.389772
O O7 0.707804 0.974482 0.380718
O O8 0.000000 0.500000 0.885120
O O9 0.975614 0.748008 0.898411
O O10 0.954479 0.588270 0.000000
O O11 0.925434 0.179377 0.866289
O O12 0.964408 0.156791 0.000000
O O13 0.000000 0.000000 0.901098
O O14 0.670554 0.793803 0.160679
O O15 0.816227 0.500000 0.250000
#
# Coordination Sequence:
#
# PCOD9528047 Si02
#       6
#    16  16  16  16  16  16
#     4  11  23  41  64  91 128 176 213 266 333 390
#     4  11  24  41  65  96 129 167 215 273 334 396
#     4   9  18  36  59  84 120 164 203 252 323 382
#     4  10  21  39  64  94 131 170 210 264 323 381
#     4  11  22  38  67  96 121 172 227 260 313 403
#     4  12  22  42  69  90 127 175 221 267 333 399
#
# _framework density 20.497987999999999
#
# number of rings (size 3 to 8) (size 9 to 14) (size 15 to 20)
#    0.000    1.333    3.333    3.500    0.000    4.667 
#    0.000    7.500    0.000    0.000    0.000    0.000 
#    0.000    0.000    0.000    0.000    0.000    0.000 
#
# Total GULP energy -268047.806409 kJ/mol
# GULP energy per Si atom -5584.329300 kJ/mol
# Density = 2.045133 g / cm^3
# Si number density = 20.497988 Si / 1000 Ang^3
#
#
#
# Elastic Constant Matrix: (Units=GPa)
#
#
# Indices 1 2 3 4 5 6 
#
# 1 57.8587 -18.8987 19.6207 0.0000 0.0000 0.0000
# 2 -18.8987 63.9527 18.3940 0.0000 0.0000 0.0000
# 3 19.6207 18.3940 78.8929 0.0000 0.0000 0.0000
# 4 0.0000 0.0000 0.0000 24.7684 0.0000 0.0000
# 5 0.0000 0.0000 0.0000 0.0000 -1.4781 0.0000
# 6 0.0000 0.0000 0.0000 0.0000 0.0000 26.5098
#
#
#
# Elastic Compliance Matrix: (Units=1/GPa)
#
#
# Indices 1 2 3 4 5 6 
#
# 1 0.022860 0.008994 -0.007782 0.000000 0.000000 0.000000
# 2 0.008994 0.020299 -0.006969 0.000000 0.000000 0.000000
# 3 -0.007782 -0.006969 0.016236 0.000000 0.000000 0.000000
# 4 0.000000 0.000000 0.000000 0.040374 0.000000 0.000000
# 5 0.000000 0.000000 0.000000 0.000000 -0.676547 0.000000
# 6 0.000000 0.000000 0.000000 0.000000 0.000000 0.037722
#
#
# Mechanical properties :
#
#
# Convention : Reuss Voigt Hill
#
# Bulk Modulus (GPa) = 20.88599 26.54848 23.71724
# Shear Modulus (GPa) = -9.77363 22.06591 6.14614
#
# Velocity S-wave (km/s) = -2.18597 3.28455 1.73347
# Velocity P-wave (km/s) = 1.95963 5.23108 3.94996
#
# Compressibility (1/GPa) = 0.04787898
#
# Stress axis : x y z
#
# Youngs Moduli (GPa) = 43.74408 49.26386 61.59228
#
# Poissons Ratio (x) = -0.44307 0.47933
# Poissons Ratio (y) = -0.39342 0.42927
# Poissons Ratio (z) = 0.34043 0.34334
#
# Static dielectric constant tensor:
#      x y z
#    x 1.729980 0.000000 0.000000 
#    y 0.000000 1.743940 0.000000 
#    z 0.000000 0.000000 1.711040 
# 
# From -- ./inp_files/40686.got.cif
#   From: 2010.05.17/outbox.cif.g08.bks.cpg/sg72_21_cif.got.tgz:40686.got - 2010.06.03 17:03:01.
