data_PCOD9528568
_publ_section_title
;
Structure prediction by ZEFSAII (Michael W. Deem and Ramdas Pophale) SiO2 
 PCOD9528568
Probable space group: I B A M
;
_chemical_formula_sum "Si O2"
_cell_formula_units_Z 116
_cell_length_a 11.394997
_cell_length_b 23.864480
_cell_length_c 19.291258
_cell_angle_alpha 90.000000
_cell_angle_beta 90.000000
_cell_angle_gamma 90.000000
_cell_volume 5245.981324
_symmetry_space_group_name_H-M "I B A M"
_symmetry_group_IT_number 72
_symmetry_cell_setting 'orthorhombic'
loop_
_space_group_symop_operation_xyz
x,y,z
-x,-y,z
x,-y,1/2-z
-x,y,1/2-z
-x,-y,-z
x,y,-z
-x,y,1/2+z
x,-y,1/2+z
1/2+x,1/2+y,1/2+z
1/2-x,1/2-y,1/2+z
1/2+x,1/2-y,-z
1/2-x,1/2+y,-z
1/2-x,1/2-y,1/2-z
1/2+x,1/2+y,1/2-z
1/2-x,1/2+y,z
1/2+x,1/2-y,z
loop_
_atom_site_type_symbol
_atom_site_label
_atom_site_fract_x
_atom_site_fract_y
_atom_site_fract_z
Si Si1 0.239602 0.430159 0.792318
Si Si2 0.137082 0.984373 0.077417
Si Si3 0.500000 0.000000 0.000000
Si Si4 0.161497 0.189252 0.696002
Si Si5 0.244922 0.415056 0.358760
Si Si6 0.904497 0.807409 0.843521
Si Si7 0.970726 0.410685 0.622295
Si Si8 0.339554 0.795502 0.919533
O O1 0.318127 0.447215 0.858553
O O2 0.260762 0.363756 0.783689
O O3 0.268022 0.448281 0.713952
O O4 0.105536 0.437069 0.815398
O O5 0.214086 0.041151 0.083019
O O6 0.153103 0.959715 0.000000
O O7 0.000000 0.000000 0.085752
O O8 0.464030 0.954298 0.939969
O O9 0.138404 0.219599 0.769627
O O10 0.226049 0.214043 0.629509
O O11 0.033234 0.169272 0.672223
O O12 0.320308 0.358493 0.363772
O O13 0.107428 0.402141 0.361573
O O14 0.914416 0.759326 0.900439
O O15 0.908960 0.351948 0.601478
O O16 0.309749 0.798212 0.000000
#
# Coordination Sequence:
#
# PCOD9528568 Si02
#       8
#    16  16   4  16  16  16  16  16
#     4  10  22  42  69  96 134 177 229 285 337 408
#     4  11  25  41  63  97 138 183 226 280 354 420
#     4  12  24  44  66  88 134 184 214 276 330 410
#     4   9  21  42  66  95 125 178 228 276 344 399
#     4  11  24  42  67 102 135 174 235 286 337 398
#     4  10  22  42  67  96 133 173 225 290 335 403
#     4  11  25  42  68  99 135 176 227 278 342 410
#     4  11  24  42  64  98 135 178 226 275 348 412
#
# _framework density 22.112165000000001
#
# number of rings (size 3 to 8) (size 9 to 14) (size 15 to 20)
#    0.000    1.517    0.690    2.897    5.793    3.862 
#    4.966    2.069    0.000    0.000    0.000    0.000 
#    0.000    0.000    0.000    0.000    0.000    0.000 
#
# Total GULP energy -323267.310541 kJ/mol
# GULP energy per Si atom -5573.574320 kJ/mol
# Density = 2.206184 g / cm^3
# Si number density = 22.112165 Si / 1000 Ang^3
#
#
#
# Elastic Constant Matrix: (Units=GPa)
#
#
# Indices 1 2 3 4 5 6 
#
# 1 101.0530 1.3647 17.4517 0.0000 0.0000 0.0000
# 2 1.3647 64.9964 25.4154 0.0000 0.0000 0.0000
# 3 17.4517 25.4154 121.9899 0.0000 0.0000 0.0000
# 4 0.0000 0.0000 0.0000 105.4362 0.0000 0.0000
# 5 0.0000 0.0000 0.0000 0.0000 -13.0186 0.0000
# 6 0.0000 0.0000 0.0000 0.0000 0.0000 24.0982
#
#
#
# Elastic Compliance Matrix: (Units=1/GPa)
#
#
# Indices 1 2 3 4 5 6 
#
# 1 0.010155 0.000386 -0.001533 0.000000 0.000000 0.000000
# 2 0.000386 0.016765 -0.003548 0.000000 0.000000 0.000000
# 3 -0.001533 -0.003548 0.009156 0.000000 0.000000 0.000000
# 4 0.000000 0.000000 0.000000 0.009484 0.000000 0.000000
# 5 0.000000 0.000000 0.000000 0.000000 -0.076813 0.000000
# 6 0.000000 0.000000 0.000000 0.000000 0.000000 0.041497
#
#
# Mechanical properties :
#
#
# Convention : Reuss Voigt Hill
#
# Bulk Modulus (GPa) = 37.47276 41.83367 39.65321
# Shear Modulus (GPa) = 175.25584 39.55697 107.40641
#
# Velocity S-wave (km/s) = 8.91234 4.23416 6.97703
# Velocity P-wave (km/s) = 11.08557 6.54706 9.10367
#
# Compressibility (1/GPa) = 0.02668605
#
# Stress axis : x y z
#
# Youngs Moduli (GPa) = 98.47000 59.64899 109.21849
#
# Poissons Ratio (x) = -0.02304 0.16747
# Poissons Ratio (y) = -0.03804 0.38751
# Poissons Ratio (z) = 0.15098 0.21164
#
# Static dielectric constant tensor:
#      x y z
#    x 1.818940 0.000000 0.000000 
#    y 0.000000 1.831830 0.000000 
#    z 0.000000 0.000000 1.823290 
# 
# From -- ./inp_files/29720.got.cif
#   From: 2010.05.17/outbox.cif.g08.bks.cpg/sg72_15_cif.got.tgz:29720.got - 2010.06.03 17:03:01.
