data_PCOD9528245
_publ_section_title
;
Structure prediction by ZEFSAII (Michael W. Deem and Ramdas Pophale) SiO2 
 PCOD9528245
Probable space group: I B A M
;
_chemical_formula_sum "Si O2"
_cell_formula_units_Z 68
_cell_length_a 20.636297
_cell_length_b 5.152836
_cell_length_c 26.141760
_cell_angle_alpha 90.000000
_cell_angle_beta 90.000000
_cell_angle_gamma 90.000000
_cell_volume 2779.795920
_symmetry_space_group_name_H-M "I B A M"
_symmetry_group_IT_number 72
_symmetry_cell_setting 'orthorhombic'
loop_
_space_group_symop_operation_xyz
x,y,z
-x,-y,z
x,-y,1/2-z
-x,y,1/2-z
-x,-y,-z
x,y,-z
-x,y,1/2+z
x,-y,1/2+z
1/2+x,1/2+y,1/2+z
1/2-x,1/2-y,1/2+z
1/2+x,1/2-y,-z
1/2-x,1/2+y,-z
1/2-x,1/2-y,1/2-z
1/2+x,1/2+y,1/2-z
1/2-x,1/2+y,z
1/2+x,1/2-y,z
loop_
_atom_site_type_symbol
_atom_site_label
_atom_site_fract_x
_atom_site_fract_y
_atom_site_fract_z
Si Si1 0.652116 0.751942 0.000000
Si Si2 0.000000 0.000000 0.250000
Si Si3 0.567455 0.766610 0.500000
Si Si4 0.398311 0.333613 0.827932
Si Si5 0.795572 0.000000 0.250000
Si Si6 0.792582 0.413659 0.110213
Si Si7 0.000000 0.000000 0.089052
O O1 0.625883 0.454267 0.000000
O O2 0.688728 0.840463 0.948420
O O3 0.592112 0.944853 0.000000
O O4 0.954348 0.183203 0.215058
O O5 0.526182 0.715031 0.550480
O O6 0.343564 0.498647 0.798627
O O7 0.355481 0.107593 0.853342
O O8 0.438658 0.441858 0.875500
O O9 0.750000 0.750000 0.250000
O O10 0.759539 0.687470 0.119944
#
# Coordination Sequence:
#
# PCOD9528245 Si02
#       7
#     8   4   8  16   8  16   8
#     4  12  24  46  66 101 147 184 233 284 340 410
#     4   8  20  42  76 100 144 174 236 298 364 418
#     4  11  24  45  68 101 145 185 228 285 343 409
#     4  10  21  43  73 104 139 182 236 291 355 422
#     4  11  24  47  72 101 140 181 230 294 358 415
#     4  12  25  43  69 103 140 186 234 284 345 416
#     4  10  22  44  72 106 142 188 236 286 348 420
#
# _framework density 24.462229000000001
#
# number of rings (size 3 to 8) (size 9 to 14) (size 15 to 20)
#    0.000    1.176    2.353    3.529    0.000    1.882 
#    0.000    0.000    0.000    9.176    0.000    0.000 
#    0.000    0.000    0.000    0.000    0.000    0.000 
#
# Total GULP energy -190117.244861 kJ/mol
# GULP energy per Si atom -5591.683672 kJ/mol
# Density = 2.440655 g / cm^3
# Si number density = 24.462229 Si / 1000 Ang^3
#
#
#
# Elastic Constant Matrix: (Units=GPa)
#
#
# Indices 1 2 3 4 5 6 
#
# 1 149.8625 30.4779 75.1047 0.0000 0.0000 0.0000
# 2 30.4779 52.9735 8.2133 0.0000 0.0000 0.0000
# 3 75.1047 8.2133 158.0842 0.0000 0.0000 0.0000
# 4 0.0000 0.0000 0.0000 9.7339 0.0000 0.0000
# 5 0.0000 0.0000 0.0000 0.0000 62.6402 0.0000
# 6 0.0000 0.0000 0.0000 0.0000 0.0000 16.5676
#
#
#
# Elastic Compliance Matrix: (Units=1/GPa)
#
#
# Indices 1 2 3 4 5 6 
#
# 1 0.009927 -0.005020 -0.004455 0.000000 0.000000 0.000000
# 2 -0.005020 0.021570 0.001264 0.000000 0.000000 0.000000
# 3 -0.004455 0.001264 0.008377 0.000000 0.000000 0.000000
# 4 0.000000 0.000000 0.000000 0.102733 0.000000 0.000000
# 5 0.000000 0.000000 0.000000 0.000000 0.015964 0.000000
# 6 0.000000 0.000000 0.000000 0.000000 0.000000 0.060359
#
#
# Mechanical properties :
#
#
# Convention : Reuss Voigt Hill
#
# Bulk Modulus (GPa) = 42.64250 65.39024 54.01637
# Shear Modulus (GPa) = 20.56189 34.26330 27.41259
#
# Velocity S-wave (km/s) = 2.90238 3.74660 3.35118
# Velocity P-wave (km/s) = 5.35738 6.74575 6.09125
#
# Compressibility (1/GPa) = 0.02345078
#
# Stress axis : x y z
#
# Youngs Moduli (GPa) = 100.73998 46.36119 119.37908
#
# Poissons Ratio (x) = 0.23275 0.53186
# Poissons Ratio (y) = 0.50575 -0.15095
# Poissons Ratio (z) = 0.44882 -0.05862
#
# Static dielectric constant tensor:
#      x y z
#    x 1.977900 0.000000 0.000000 
#    y 0.000000 1.890940 0.000000 
#    z 0.000000 0.000000 1.946590 
# 
# From -- ./inp_files/49301.got.cif
#   From: 2010.05.17/outbox.cif.g08.bks.cpg/sg72_25_cif.got.tgz:49301.got - 2010.06.03 17:03:01.
