data_PCOD9528290
_publ_section_title
;
Structure prediction by ZEFSAII (Michael W. Deem and Ramdas Pophale) SiO2 
 PCOD9528290
Probable space group: I B A M
;
_chemical_formula_sum "Si O2"
_cell_formula_units_Z 112
_cell_length_a 12.648716
_cell_length_b 11.736942
_cell_length_c 30.519155
_cell_angle_alpha 90.000000
_cell_angle_beta 90.000000
_cell_angle_gamma 90.000000
_cell_volume 4530.789704
_symmetry_space_group_name_H-M "I B A M"
_symmetry_group_IT_number 72
_symmetry_cell_setting 'orthorhombic'
loop_
_space_group_symop_operation_xyz
x,y,z
-x,-y,z
x,-y,1/2-z
-x,y,1/2-z
-x,-y,-z
x,y,-z
-x,y,1/2+z
x,-y,1/2+z
1/2+x,1/2+y,1/2+z
1/2-x,1/2-y,1/2+z
1/2+x,1/2-y,-z
1/2-x,1/2+y,-z
1/2-x,1/2-y,1/2-z
1/2+x,1/2+y,1/2-z
1/2-x,1/2+y,z
1/2+x,1/2-y,z
loop_
_atom_site_type_symbol
_atom_site_label
_atom_site_fract_x
_atom_site_fract_y
_atom_site_fract_z
Si Si1 0.586997 0.405164 0.101065
Si Si2 0.643031 0.791050 0.547521
Si Si3 0.104765 0.801968 0.231336
Si Si4 0.762472 0.574968 0.875360
Si Si5 0.411886 0.233368 0.863746
Si Si6 0.573515 0.110596 0.451879
Si Si7 0.822024 0.593639 0.784337
O O1 0.500000 0.500000 0.085823
O O2 0.657044 0.335275 0.066109
O O3 0.676823 0.474298 0.126845
O O4 0.517396 0.309966 0.126484
O O5 0.691097 0.808422 0.500000
O O6 0.681751 0.893132 0.578925
O O7 0.516006 0.792152 0.543946
O O8 0.087235 0.720210 0.188762
O O9 0.139931 0.717373 0.269881
O O10 0.194853 0.892257 0.219996
O O11 0.000000 0.858155 0.250000
O O12 0.690077 0.687175 0.870291
O O13 0.842842 0.567299 0.834952
O O14 0.394436 0.136057 0.901019
O O15 0.631961 0.110625 0.500000
O O16 0.500000 0.000000 0.452944
O O17 0.859705 0.500000 0.750000
#
# Coordination Sequence:
#
# PCOD9528290 Si02
#       7
#    16  16  16  16  16  16  16
#     4   9  20  39  64  89 122 164 217 255 310 379
#     4  10  22  37  58  90 123 161 205 255 316 372
#     4  10  23  40  63  90 123 165 211 262 315 379
#     4  10  22  38  61  89 122 160 197 262 314 368
#     4   9  20  39  60  89 117 160 208 254 310 367
#     4   9  19  36  58  85 118 158 203 248 302 372
#     4  10  24  41  60  94 127 163 212 261 323 378
#
# _framework density 24.719750999999999
#
# number of rings (size 3 to 8) (size 9 to 14) (size 15 to 20)
#    0.000    2.429    0.000    0.000    6.000    6.571 
#    0.000    4.286    0.000    0.000    0.000    0.000 
#    0.000    0.000    0.000    0.000    0.000    0.000 
#
# Total GULP energy -311978.030542 kJ/mol
# GULP energy per Si atom -5571.036260 kJ/mol
# Density = 2.466349 g / cm^3
# Si number density = 24.719751 Si / 1000 Ang^3
#
#
#
# Elastic Constant Matrix: (Units=GPa)
#
#
# Indices 1 2 3 4 5 6 
#
# 1 49.9841 -13.6841 20.0793 0.0000 0.0000 0.0000
# 2 -13.6841 68.0784 32.4331 0.0000 0.0000 0.0000
# 3 20.0793 32.4331 164.1340 0.0000 0.0000 0.0000
# 4 0.0000 0.0000 0.0000 18.1061 0.0000 0.0000
# 5 0.0000 0.0000 0.0000 0.0000 23.9077 0.0000
# 6 0.0000 0.0000 0.0000 0.0000 0.0000 22.0930
#
#
#
# Elastic Compliance Matrix: (Units=1/GPa)
#
#
# Indices 1 2 3 4 5 6 
#
# 1 0.023543 0.006739 -0.004212 0.000000 0.000000 0.000000
# 2 0.006739 0.018144 -0.004410 0.000000 0.000000 0.000000
# 3 -0.004212 -0.004410 0.007479 0.000000 0.000000 0.000000
# 4 0.000000 0.000000 0.000000 0.055230 0.000000 0.000000
# 5 0.000000 0.000000 0.000000 0.000000 0.041827 0.000000
# 6 0.000000 0.000000 0.000000 0.000000 0.000000 0.045263
#
#
# Mechanical properties :
#
#
# Convention : Reuss Voigt Hill
#
# Bulk Modulus (GPa) = 22.02581 39.98369 31.00475
# Shear Modulus (GPa) = 23.76580 29.04591 26.40585
#
# Velocity S-wave (km/s) = 3.10402 3.43156 3.27189
# Velocity P-wave (km/s) = 4.66649 5.64896 5.18106
#
# Compressibility (1/GPa) = 0.04540128
#
# Stress axis : x y z
#
# Youngs Moduli (GPa) = 42.47520 55.11371 133.70430
#
# Poissons Ratio (x) = -0.37140 0.56313
# Poissons Ratio (y) = -0.28623 0.58960
# Poissons Ratio (z) = 0.17889 0.24304
#
# Static dielectric constant tensor:
#      x y z
#    x 2.065210 0.000000 0.000000 
#    y 0.000000 1.951920 0.000000 
#    z 0.000000 0.000000 2.108250 
# 
# From -- ./inp_files/51776.got.cif
#   From: 2010.05.17/outbox.cif.g08.bks.cpg/sg72_26_cif.got.tgz:51776.got - 2010.06.03 17:03:01.
