data_PCOD9528263
_publ_section_title
;
Structure prediction by ZEFSAII (Michael W. Deem and Ramdas Pophale) SiO2 
 PCOD9528263
Probable space group: I B A M
;
_chemical_formula_sum "Si O2"
_cell_formula_units_Z 116
_cell_length_a 9.928405
_cell_length_b 25.392544
_cell_length_c 25.864814
_cell_angle_alpha 90.000000
_cell_angle_beta 90.000000
_cell_angle_gamma 90.000000
_cell_volume 6520.712582
_symmetry_space_group_name_H-M "I B A M"
_symmetry_group_IT_number 72
_symmetry_cell_setting 'orthorhombic'
loop_
_space_group_symop_operation_xyz
x,y,z
-x,-y,z
x,-y,1/2-z
-x,y,1/2-z
-x,-y,-z
x,y,-z
-x,y,1/2+z
x,-y,1/2+z
1/2+x,1/2+y,1/2+z
1/2-x,1/2-y,1/2+z
1/2+x,1/2-y,-z
1/2-x,1/2+y,-z
1/2-x,1/2-y,1/2-z
1/2+x,1/2+y,1/2-z
1/2-x,1/2+y,z
1/2+x,1/2-y,z
loop_
_atom_site_type_symbol
_atom_site_label
_atom_site_fract_x
_atom_site_fract_y
_atom_site_fract_z
Si Si1 0.789243 0.692870 0.938005
Si Si2 0.725654 0.889681 0.122496
Si Si3 0.000000 0.000000 0.250000
Si Si4 0.897443 0.708173 0.438218
Si Si5 0.958146 0.100374 0.304690
Si Si6 0.726381 0.410915 0.372486
Si Si7 0.660310 0.510537 0.439328
Si Si8 0.513510 0.063013 0.190706
O O1 0.683459 0.738831 0.924753
O O2 0.753246 0.640375 0.906971
O O3 0.943213 0.709815 0.926070
O O4 0.781196 0.683477 0.000000
O O5 0.672202 0.841218 0.089225
O O6 0.838581 0.873602 0.164191
O O7 0.793729 0.935170 0.087300
O O8 0.601462 0.913556 0.154157
O O9 0.917684 0.959522 0.214003
O O10 0.885804 0.701453 0.500000
O O11 0.000000 0.125961 0.250000
O O12 0.086222 0.093988 0.341718
O O13 0.726338 0.461890 0.409296
O O14 0.843524 0.418966 0.331066
O O15 0.500000 0.500000 0.435082
O O16 0.695260 0.511201 0.500000
O O17 0.500000 0.080133 0.250000
O O18 0.500000 0.000000 0.189010
#
# Coordination Sequence:
#
# PCOD9528263 Si02
#       8
#    16  16   4  16  16  16  16  16
#     4  10  23  42  65  91 120 158 204 251 302 367
#     4  12  21  40  59  91 122 161 197 250 309 354
#     4   8  20  36  52  90 118 164 196 254 276 346
#     4  10  23  42  65  91 120 158 204 251 302 367
#     4  10  22  34  61  84 119 157 209 243 287 347
#     4  12  21  40  59  91 122 161 197 250 309 354
#     4  11  23  36  55  89 126 163 200 242 298 366
#     4  11  24  36  59  90 126 159 202 245 298 364
#
# _framework density 17.789467999999999
#
# number of rings (size 3 to 8) (size 9 to 14) (size 15 to 20)
#    0.414    0.828    4.138    2.483    1.931    0.000 
#    0.000    0.690    0.000    4.966    0.000    0.000 
#    0.000    0.000    0.000    0.000    0.000    0.000 
#
# Total GULP energy -323826.932217 kJ/mol
# GULP energy per Si atom -5583.222969 kJ/mol
# Density = 1.774898 g / cm^3
# Si number density = 17.789468 Si / 1000 Ang^3
#
#
#
# Elastic Constant Matrix: (Units=GPa)
#
#
# Indices 1 2 3 4 5 6 
#
# 1 75.5507 24.6575 24.7611 0.0000 0.0000 0.0000
# 2 24.6575 91.3657 44.1832 0.0000 0.0000 0.0000
# 3 24.7611 44.1832 77.0619 0.0000 0.0000 0.0000
# 4 0.0000 0.0000 0.0000 19.8519 0.0000 0.0000
# 5 0.0000 0.0000 0.0000 0.0000 -0.0158 0.0000
# 6 0.0000 0.0000 0.0000 0.0000 0.0000 18.5254
#
#
#
# Elastic Compliance Matrix: (Units=1/GPa)
#
#
# Indices 1 2 3 4 5 6 
#
# 1 0.015166 -0.002403 -0.003496 0.000000 -0.000001 0.000000
# 2 -0.002403 0.015524 -0.008129 0.000000 0.000000 0.000000
# 3 -0.003496 -0.008129 0.018760 0.000000 0.000001 0.000000
# 4 0.000000 0.000000 0.000000 0.050373 0.000002 0.000000
# 5 -0.000001 0.000000 0.000001 0.000002-63.403535 -0.000001
# 6 0.000000 0.000000 0.000000 0.000000 -0.000001 0.053980
#
#
# Mechanical properties :
#
#
# Convention : Reuss Voigt Hill
#
# Bulk Modulus (GPa) = 46.73596 47.90909 47.32253
# Shear Modulus (GPa) = -0.07910 17.69743 8.80917
#
# Velocity S-wave (km/s) = -0.21109 3.15751 2.22770
# Velocity P-wave (km/s) = 5.12536 6.34687 5.76854
#
# Compressibility (1/GPa) = 0.02139680
#
# Stress axis : x y z
#
# Youngs Moduli (GPa) = 65.93748 64.41449 53.30368
#
# Poissons Ratio (x) = 0.15476 0.18632
# Poissons Ratio (y) = 0.15842 0.43330
# Poissons Ratio (z) = 0.23049 0.52362
#
# Static dielectric constant tensor:
#      x y z
#    x 1.616110 0.000000 0.000000 
#    y 0.000000 1.578010 0.000000 
#    z 0.000000 0.000000 1.602100 
# 
# From -- ./inp_files/47621.got.cif
#   From: 2010.05.17/outbox.cif.g08.bks.cpg/sg72_24_cif.got.tgz:47621.got - 2010.06.03 17:03:01.
