data_PCOD9528358
_publ_section_title
;
Structure prediction by ZEFSAII (Michael W. Deem and Ramdas Pophale) SiO2 
 PCOD9528358
Probable space group: I B A M
;
_chemical_formula_sum "Si O2"
_cell_formula_units_Z 80
_cell_length_a 14.808438
_cell_length_b 10.701719
_cell_length_c 26.268617
_cell_angle_alpha 90.000000
_cell_angle_beta 90.000000
_cell_angle_gamma 90.000000
_cell_volume 4162.938578
_symmetry_space_group_name_H-M "I B A M"
_symmetry_group_IT_number 72
_symmetry_cell_setting 'orthorhombic'
loop_
_space_group_symop_operation_xyz
x,y,z
-x,-y,z
x,-y,1/2-z
-x,y,1/2-z
-x,-y,-z
x,y,-z
-x,y,1/2+z
x,-y,1/2+z
1/2+x,1/2+y,1/2+z
1/2-x,1/2-y,1/2+z
1/2+x,1/2-y,-z
1/2-x,1/2+y,-z
1/2-x,1/2-y,1/2-z
1/2+x,1/2+y,1/2-z
1/2-x,1/2+y,z
1/2+x,1/2-y,z
loop_
_atom_site_type_symbol
_atom_site_label
_atom_site_fract_x
_atom_site_fract_y
_atom_site_fract_z
Si Si1 0.106596 0.014388 0.647173
Si Si2 0.508402 0.851766 0.057738
Si Si3 0.746470 0.876955 0.282540
Si Si4 0.823715 0.815482 0.559179
Si Si5 0.349739 0.763576 0.126065
O O1 0.150636 0.877328 0.646597
O O2 0.157658 0.096901 0.689489
O O3 0.128268 0.077869 0.592828
O O4 0.000000 0.000000 0.655570
O O5 0.610477 0.804145 0.063362
O O6 0.444758 0.788928 0.099306
O O7 0.500000 0.000000 0.062398
O O8 0.479821 0.816435 0.000000
O O9 0.750000 0.750000 0.250000
O O10 0.674314 0.854962 0.327533
O O11 0.725373 0.000000 0.250000
O O12 0.815286 0.849938 0.500000
O O13 0.727985 0.785213 0.584252
#
# Coordination Sequence:
#
# PCOD9528358 Si02
#       5
#    16  16  16  16  16
#     4  11  23  42  68  95 127 170 218 274 327 390
#     4  10  22  39  60  91 132 172 214 262 318 388
#     4  11  24  45  69  95 125 166 215 272 333 388
#     4  10  23  38  61  95 131 172 215 258 316 387
#     4  11  23  41  66  92 129 170 214 269 327 386
#
# _framework density 19.217195
#
# number of rings (size 3 to 8) (size 9 to 14) (size 15 to 20)
#    0.000    1.400    4.000    0.600    5.600    2.400 
#    0.000    0.000    0.000    0.000    0.000    0.000 
#    0.000    0.000    0.000    0.000    0.000    0.000 
#
# Total GULP energy -223444.160763 kJ/mol
# GULP energy per Si atom -5586.104019 kJ/mol
# Density = 1.917346 g / cm^3
# Si number density = 19.217195 Si / 1000 Ang^3
#
#
#
# Elastic Constant Matrix: (Units=GPa)
#
#
# Indices 1 2 3 4 5 6 
#
# 1 47.4530 4.5098 32.5080 0.0000 0.0000 0.0000
# 2 4.5098 94.0796 49.9597 0.0000 0.0000 0.0000
# 3 32.5080 49.9597 119.3785 0.0000 0.0000 0.0000
# 4 0.0000 0.0000 0.0000 34.8310 0.0000 0.0000
# 5 0.0000 0.0000 0.0000 0.0000 17.9608 0.0000
# 6 0.0000 0.0000 0.0000 0.0000 0.0000 28.9608
#
#
#
# Elastic Compliance Matrix: (Units=1/GPa)
#
#
# Indices 1 2 3 4 5 6 
#
# 1 0.026688 0.003317 -0.008656 0.000000 0.000000 0.000000
# 2 0.003317 0.014079 -0.006795 0.000000 0.000000 0.000000
# 3 -0.008656 -0.006795 0.013578 0.000000 0.000000 0.000000
# 4 0.000000 0.000000 0.000000 0.028710 0.000000 0.000000
# 5 0.000000 0.000000 0.000000 0.000000 0.055677 0.000000
# 6 0.000000 0.000000 0.000000 0.000000 0.000000 0.034529
#
#
# Mechanical properties :
#
#
# Convention : Reuss Voigt Hill
#
# Bulk Modulus (GPa) = 33.24831 48.31845 40.78338
# Shear Modulus (GPa) = 24.09018 27.94607 26.01813
#
# Velocity S-wave (km/s) = 3.54443 3.81756 3.68353
# Velocity P-wave (km/s) = 5.83862 6.68054 6.27372
#
# Compressibility (1/GPa) = 0.03007672
#
# Stress axis : x y z
#
# Youngs Moduli (GPa) = 37.47032 71.02871 73.65119
#
# Poissons Ratio (x) = -0.23561 0.63749
# Poissons Ratio (y) = -0.12429 0.50048
# Poissons Ratio (z) = 0.32433 0.48266
#
# Static dielectric constant tensor:
#      x y z
#    x 1.641250 0.000000 0.000000 
#    y 0.000000 1.660180 0.000000 
#    z 0.000000 0.000000 1.678940 
# 
# From -- ./inp_files/43108.got.cif
#   From: 2010.05.17/outbox.cif.g08.bks.cpg/sg72_22_cif.got.tgz:43108.got - 2010.06.03 17:03:01.
