data_PCOD9528516
_publ_section_title
;
Structure prediction by ZEFSAII (Michael W. Deem and Ramdas Pophale) SiO2 
 PCOD9528516
Probable space group: I B A M
;
_chemical_formula_sum "Si O2"
_cell_formula_units_Z 68
_cell_length_a 15.842149
_cell_length_b 19.966325
_cell_length_c 10.383217
_cell_angle_alpha 90.000000
_cell_angle_beta 90.000000
_cell_angle_gamma 90.000000
_cell_volume 3284.310132
_symmetry_space_group_name_H-M "I B A M"
_symmetry_group_IT_number 72
_symmetry_cell_setting 'orthorhombic'
loop_
_space_group_symop_operation_xyz
x,y,z
-x,-y,z
x,-y,1/2-z
-x,y,1/2-z
-x,-y,-z
x,y,-z
-x,y,1/2+z
x,-y,1/2+z
1/2+x,1/2+y,1/2+z
1/2-x,1/2-y,1/2+z
1/2+x,1/2-y,-z
1/2-x,1/2+y,-z
1/2-x,1/2-y,1/2-z
1/2+x,1/2+y,1/2-z
1/2-x,1/2+y,z
1/2+x,1/2-y,z
loop_
_atom_site_type_symbol
_atom_site_label
_atom_site_fract_x
_atom_site_fract_y
_atom_site_fract_z
Si Si1 0.744096 0.175571 0.500000
Si Si2 0.000000 0.748375 0.750000
Si Si3 0.682075 0.500000 0.250000
Si Si4 0.500000 0.000000 0.000000
Si Si5 0.200741 0.470183 0.000000
Si Si6 0.237607 0.171662 0.500000
Si Si7 0.856247 0.855717 0.236417
Si Si8 0.043471 0.659622 0.000000
O O1 0.769508 0.253481 0.500000
O O2 0.784428 0.147179 0.371276
O O3 0.645298 0.161811 0.500000
O O4 0.073886 0.800096 0.710392
O O5 0.018020 0.700909 0.871949
O O6 0.744254 0.491045 0.374035
O O7 0.623599 0.565661 0.259153
O O8 0.394867 0.995984 0.000000
O O9 0.507694 0.916095 0.000000
O O10 0.197253 0.389089 0.000000
O O11 0.181231 0.163222 0.374155
#
# Coordination Sequence:
#
# PCOD9528516 Si02
#       8
#     8   8   8   4   8   8  16   8
#     4  12  23  44  70  99 125 185 224 277 319 415
#     4  12  26  46  66 106 130 174 222 290 328 404
#     4  10  22  44  66 100 128 176 218 270 322 422
#     4  12  28  46  64  96 140 180 204 298 328 400
#     4  10  24  41  66  95 133 172 227 258 341 393
#     4  10  22  41  67  96 125 179 225 275 316 410
#     4  11  23  41  71  95 136 168 223 273 338 388
#     4  12  29  44  67  97 140 175 235 264 350 392
#
# _framework density 20.704501
#
# number of rings (size 3 to 8) (size 9 to 14) (size 15 to 20)
#    0.000    0.941    2.353    3.529    3.294    5.176 
#    0.000    0.000    0.000    7.059    0.000    0.000 
#    0.000    0.000    0.000    0.000    0.000    0.000 
#
# Total GULP energy -189349.829788 kJ/mol
# GULP energy per Si atom -5569.112641 kJ/mol
# Density = 2.065738 g / cm^3
# Si number density = 20.704501 Si / 1000 Ang^3
#
#
#
# Elastic Constant Matrix: (Units=GPa)
#
#
# Indices 1 2 3 4 5 6 
#
# 1 101.0523 47.5903 41.9183 0.0000 0.0000 0.0000
# 2 47.5903 200.6044 37.7204 0.0000 0.0000 0.0000
# 3 41.9183 37.7204 141.1345 0.0000 0.0000 0.0000
# 4 0.0000 0.0000 0.0000 25.8021 0.0000 0.0000
# 5 0.0000 0.0000 0.0000 0.0000 22.7305 0.0000
# 6 0.0000 0.0000 0.0000 0.0000 0.0000 22.0439
#
#
#
# Elastic Compliance Matrix: (Units=1/GPa)
#
#
# Indices 1 2 3 4 5 6 
#
# 1 0.012247 -0.002339 -0.003012 0.000000 0.000000 0.000000
# 2 -0.002339 0.005695 -0.000827 0.000000 0.000000 0.000000
# 3 -0.003012 -0.000827 0.008201 0.000000 0.000000 0.000000
# 4 0.000000 0.000000 0.000000 0.038757 0.000000 0.000000
# 5 0.000000 0.000000 0.000000 0.000000 0.043994 0.000000
# 6 0.000000 0.000000 0.000000 0.000000 0.000000 0.045364
#
#
# Mechanical properties :
#
#
# Convention : Reuss Voigt Hill
#
# Bulk Modulus (GPa) = 72.53701 77.47213 75.00457
# Shear Modulus (GPa) = 29.20370 35.15276 32.17823
#
# Velocity S-wave (km/s) = 3.75974 4.12495 3.94657
# Velocity P-wave (km/s) = 7.34561 7.75797 7.55461
#
# Compressibility (1/GPa) = 0.01378607
#
# Stress axis : x y z
#
# Youngs Moduli (GPa) = 81.65278 175.57976 121.93195
#
# Poissons Ratio (x) = 0.41068 0.36730
# Poissons Ratio (y) = 0.19098 0.10090
# Poissons Ratio (z) = 0.24597 0.14529
#
# Static dielectric constant tensor:
#      x y z
#    x 1.725240 0.000000 0.000000 
#    y 0.000000 1.775350 0.000000 
#    z 0.000000 0.000000 1.709240 
# 
# From -- ./inp_files/12639.got.cif
#   From: 2010.05.17/outbox.cif.g08.bks.cpg/sg72_7_cif.got.tgz:12639.got - 2010.06.03 17:03:01.
