data_PCOD9528082
_publ_section_title
;
Structure prediction by ZEFSAII (Michael W. Deem and Ramdas Pophale) SiO2 
 PCOD9528082
Probable space group: I B A M
;
_chemical_formula_sum "Si O2"
_cell_formula_units_Z 68
_cell_length_a 28.918732
_cell_length_b 5.320422
_cell_length_c 23.891111
_cell_angle_alpha 90.000000
_cell_angle_beta 90.000000
_cell_angle_gamma 90.000000
_cell_volume 3675.882945
_symmetry_space_group_name_H-M "I B A M"
_symmetry_group_IT_number 72
_symmetry_cell_setting 'orthorhombic'
loop_
_space_group_symop_operation_xyz
x,y,z
-x,-y,z
x,-y,1/2-z
-x,y,1/2-z
-x,-y,-z
x,y,-z
-x,y,1/2+z
x,-y,1/2+z
1/2+x,1/2+y,1/2+z
1/2-x,1/2-y,1/2+z
1/2+x,1/2-y,-z
1/2-x,1/2+y,-z
1/2-x,1/2-y,1/2-z
1/2+x,1/2+y,1/2-z
1/2-x,1/2+y,z
1/2+x,1/2-y,z
loop_
_atom_site_type_symbol
_atom_site_label
_atom_site_fract_x
_atom_site_fract_y
_atom_site_fract_z
Si Si1 0.000000 0.500000 0.000000
Si Si2 0.562654 0.755992 0.904934
Si Si3 0.448221 0.250174 0.225643
Si Si4 0.381981 0.250778 0.567319
Si Si5 0.276480 0.349142 0.568192
O O1 0.023809 0.676864 0.049520
O O2 0.546931 0.749054 0.840845
O O3 0.586364 0.489212 0.917973
O O4 0.598622 0.988674 0.909750
O O5 0.424900 0.500000 0.250000
O O6 0.500000 0.250169 0.250000
O O7 0.425070 0.000000 0.250000
O O8 0.383619 0.223253 0.500000
O O9 0.329491 0.306150 0.584963
O O10 0.276398 0.351275 0.500000
O O11 0.255096 0.614526 0.586149
#
# Coordination Sequence:
#
# PCOD9528082 Si02
#       5
#     4  16  16  16  16
#     4  12  24  38  54  86 116 166 196 224 300 370
#     4  12  24  37  58  82 118 158 197 239 295 348
#     4  10  21  40  58  78 101 146 202 259 285 317
#     4  11  21  38  52  85 126 150 188 236 288 350
#     4   9  17  30  53  78 109 156 189 217 270 348
#
# _framework density 18.498957000000001
#
# number of rings (size 3 to 8) (size 9 to 14) (size 15 to 20)
#    0.000    1.412    2.353    4.235    0.000    7.529 
#    0.000    0.000    0.000    0.000    0.000    0.000 
#    0.000   65.882    0.000    0.000    0.000    0.000 
#
# Total GULP energy -189309.381992 kJ/mol
# GULP energy per Si atom -5567.923000 kJ/mol
# Density = 1.845685 g / cm^3
# Si number density = 18.498957 Si / 1000 Ang^3
#
#
#
# Elastic Constant Matrix: (Units=GPa)
#
#
# Indices 1 2 3 4 5 6 
#
# 1 33.2778 -6.3811 19.1497 0.0000 0.0000 0.0000
# 2 -6.3811 78.6786 3.4207 0.0000 0.0000 0.0000
# 3 19.1497 3.4207 129.7243 0.0000 0.0000 0.0000
# 4 0.0000 0.0000 0.0000 26.2168 0.0000 0.0000
# 5 0.0000 0.0000 0.0000 0.0000 -20.5897 0.0000
# 6 0.0000 0.0000 0.0000 0.0000 0.0000 13.6834
#
#
#
# Elastic Compliance Matrix: (Units=1/GPa)
#
#
# Indices 1 2 3 4 5 6 
#
# 1 0.033504 0.002936 -0.005023 0.000000 0.000000 0.000000
# 2 0.002936 0.012982 -0.000776 0.000000 0.000000 0.000000
# 3 -0.005023 -0.000776 0.008471 0.000000 0.000000 0.000000
# 4 0.000000 0.000000 0.000000 0.038143 0.000000 0.000000
# 5 0.000000 0.000000 0.000000 0.000000 -0.048568 0.000000
# 6 0.000000 0.000000 0.000000 0.000000 0.000000 0.073081
#
#
# Mechanical properties :
#
#
# Convention : Reuss Voigt Hill
#
# Bulk Modulus (GPa) = 20.31298 30.45102 25.38200
# Shear Modulus (GPa) = 35.77852 18.89488 27.33670
#
# Velocity S-wave (km/s) = 4.40259 3.19941 3.84831
# Velocity P-wave (km/s) = 6.07027 5.49044 5.78762
#
# Compressibility (1/GPa) = 0.04922960
#
# Stress axis : x y z
#
# Youngs Moduli (GPa) = 29.84758 77.03120 118.05516
#
# Poissons Ratio (x) = -0.22614 0.59301
# Poissons Ratio (y) = -0.08762 0.09157
# Poissons Ratio (z) = 0.14993 0.05975
#
# Static dielectric constant tensor:
#      x y z
#    x 1.639110 0.000000 0.000000 
#    y 0.000000 1.643440 0.000000 
#    z 0.000000 0.000000 1.607890 
# 
# From -- ./inp_files/34822.got.cif
#   From: 2010.05.17/outbox.cif.g08.bks.cpg/sg72_18_cif.got.tgz:34822.got - 2010.06.03 17:03:01.
