data_PCOD9528624
_publ_section_title
;
Structure prediction by ZEFSAII (Michael W. Deem and Ramdas Pophale) SiO2 
 PCOD9528624
Probable space group: I B A M
;
_chemical_formula_sum "Si O2"
_cell_formula_units_Z 88
_cell_length_a 4.978503
_cell_length_b 27.573649
_cell_length_c 29.189225
_cell_angle_alpha 90.000000
_cell_angle_beta 90.000000
_cell_angle_gamma 90.000000
_cell_volume 4006.965289
_symmetry_space_group_name_H-M "I B A M"
_symmetry_group_IT_number 72
_symmetry_cell_setting 'orthorhombic'
loop_
_space_group_symop_operation_xyz
x,y,z
-x,-y,z
x,-y,1/2-z
-x,y,1/2-z
-x,-y,-z
x,y,-z
-x,y,1/2+z
x,-y,1/2+z
1/2+x,1/2+y,1/2+z
1/2-x,1/2-y,1/2+z
1/2+x,1/2-y,-z
1/2-x,1/2+y,-z
1/2-x,1/2-y,1/2-z
1/2+x,1/2+y,1/2-z
1/2-x,1/2+y,z
1/2+x,1/2-y,z
loop_
_atom_site_type_symbol
_atom_site_label
_atom_site_fract_x
_atom_site_fract_y
_atom_site_fract_z
Si Si1 0.665793 0.066198 0.819855
Si Si2 0.000000 0.500000 0.500000
Si Si3 0.261515 0.935029 0.924102
Si Si4 0.500000 0.500000 0.250000
Si Si5 0.500000 0.713990 0.750000
Si Si6 0.330214 0.633256 0.821594
Si Si7 0.135848 0.785475 0.500000
Si Si8 0.749198 0.633513 0.424827
O O1 0.664213 0.047736 0.872445
O O2 0.383951 0.091609 0.806592
O O3 0.880788 0.108834 0.824422
O O4 0.800027 0.029761 0.783750
O O5 0.805382 0.477023 0.459977
O O6 0.472329 0.892301 0.937358
O O7 0.972452 0.909351 0.926773
O O8 0.750000 0.750000 0.750000
O O9 0.390089 0.677330 0.788686
O O10 0.236175 0.649279 0.871865
O O11 0.354014 0.742383 0.500000
O O12 0.175232 0.821615 0.543070
#
# Coordination Sequence:
#
# PCOD9528624 Si02
#       8
#    16   4  16   4   8  16   8  16
#     4  10  24  43  66  95 130 176 223 266 324 398
#     4  12  24  40  68  96 132 170 216 284 328 360
#     4  10  23  41  65  93 126 172 221 261 316 391
#     4  12  26  42  72 104 140 178 228 294 334 372
#     4  12  25  40  66  99 124 157 218 276 327 400
#     4  10  23  45  65  88 130 175 213 263 332 395
#     4  12  24  37  64 101 126 155 210 265 316 386
#     4  10  22  44  64  86 128 172 207 257 324 389
#
# _framework density 21.961759000000001
#
# number of rings (size 3 to 8) (size 9 to 14) (size 15 to 20)
#    0.000    1.455    0.000    3.818    0.000   10.909 
#    0.000    1.818    0.000    0.000    0.000    0.000 
#    0.000    0.000    0.000    0.000    0.000    0.000 
#
# Total GULP energy -245361.016123 kJ/mol
# GULP energy per Si atom -5576.386730 kJ/mol
# Density = 2.191177 g / cm^3
# Si number density = 21.961759 Si / 1000 Ang^3
#
#
#
# Elastic Constant Matrix: (Units=GPa)
#
#
# Indices 1 2 3 4 5 6 
#
# 1 83.6801 6.6128 32.3956 0.0000 0.0000 0.0000
# 2 6.6128 75.6542 83.3205 0.0000 0.0000 0.0000
# 3 32.3956 83.3205 148.2719 0.0000 0.0000 0.0000
# 4 0.0000 0.0000 0.0000 -20.7416 0.0000 0.0000
# 5 0.0000 0.0000 0.0000 0.0000 25.1491 0.0000
# 6 0.0000 0.0000 0.0000 0.0000 0.0000 -369.5740
#
#
#
# Elastic Compliance Matrix: (Units=1/GPa)
#
#
# Indices 1 2 3 4 5 6 
#
# 1 0.013900 0.005588 -0.006177 0.000000 0.000000 0.000000
# 2 0.005588 0.036929 -0.021973 0.000000 0.000000 0.000000
# 3 -0.006177 -0.021973 0.020442 0.000000 0.000000 0.000000
# 4 0.000000 0.000000 0.000000 -0.048212 0.000000 0.000000
# 5 0.000000 0.000000 0.000000 0.000000 0.039763 0.000000
# 6 0.000000 0.000000 0.000000 0.000000 0.000000 -0.002706
#
#
# Mechanical properties :
#
#
# Convention : Reuss Voigt Hill
#
# Bulk Modulus (GPa) = 38.24564 61.36268 49.80416
# Shear Modulus (GPa) = 43.87651 -60.68150 -8.40249
#
# Velocity S-wave (km/s) = 4.47459 -5.26218 -1.95813
# Velocity P-wave (km/s) = 6.64443 2.98653 4.19697
#
# Compressibility (1/GPa) = 0.02614677
#
# Stress axis : x y z
#
# Youngs Moduli (GPa) = 71.94180 27.07872 48.91951
#
# Poissons Ratio (x) = -0.15132 0.30219
# Poissons Ratio (y) = -0.40203 1.07492
# Poissons Ratio (z) = 0.44441 0.59501
#
# Static dielectric constant tensor:
#      x y z
#    x 1.760730 0.000000 0.000000 
#    y 0.000000 2.389760 0.000000 
#    z 0.000000 0.000000 1.843000 
# 
# From -- ./inp_files/50339.got.cif
#   From: 2010.05.17/outbox.cif.g08.bks.cpg/sg72_26_cif.got.tgz:50339.got - 2010.06.03 17:03:01.
