data_PCOD9528459
_publ_section_title
;
Structure prediction by ZEFSAII (Michael W. Deem and Ramdas Pophale) SiO2 
 PCOD9528459
Probable space group: I B A M
;
_chemical_formula_sum "Si O2"
_cell_formula_units_Z 64
_cell_length_a 5.086460
_cell_length_b 22.264535
_cell_length_c 25.926528
_cell_angle_alpha 90.000000
_cell_angle_beta 90.000000
_cell_angle_gamma 90.000000
_cell_volume 2936.118802
_symmetry_space_group_name_H-M "I B A M"
_symmetry_group_IT_number 72
_symmetry_cell_setting 'orthorhombic'
loop_
_space_group_symop_operation_xyz
x,y,z
-x,-y,z
x,-y,1/2-z
-x,y,1/2-z
-x,-y,-z
x,y,-z
-x,y,1/2+z
x,-y,1/2+z
1/2+x,1/2+y,1/2+z
1/2-x,1/2-y,1/2+z
1/2+x,1/2-y,-z
1/2-x,1/2+y,-z
1/2-x,1/2-y,1/2-z
1/2+x,1/2+y,1/2-z
1/2-x,1/2+y,z
1/2+x,1/2-y,z
loop_
_atom_site_type_symbol
_atom_site_label
_atom_site_fract_x
_atom_site_fract_y
_atom_site_fract_z
Si Si1 0.000000 0.500000 0.673178
Si Si2 0.731392 0.606211 0.609124
Si Si3 0.743107 0.455718 0.000000
Si Si4 0.181917 0.891715 0.799043
Si Si5 0.469522 0.207531 0.162666
O O1 0.137841 0.450857 0.637286
O O2 0.208087 0.540766 0.703366
O O3 0.710849 0.585363 0.550651
O O4 0.477585 0.616379 0.646626
O O5 0.905561 0.666878 0.612294
O O6 0.500000 0.500000 0.000000
O O7 0.000000 0.500000 0.000000
O O8 0.426538 0.846258 0.801419
O O9 0.000000 0.879304 0.750000
O O10 0.201758 0.244346 0.168961
#
# Coordination Sequence:
#
# PCOD9528459 Si02
#       5
#     8  16   8  16  16
#     4  10  22  40  66  98 146 187 232 299 372 448
#     4  11  24  45  71 105 142 187 244 299 374 440
#     4  12  26  44  76 108 142 186 238 305 366 439
#     4  11  25  43  70 108 149 196 243 301 370 442
#     4  11  24  47  75 101 144 190 245 302 353 429
#
# _framework density 21.797483
#
# number of rings (size 3 to 8) (size 9 to 14) (size 15 to 20)
#    0.000    1.000    3.750    2.250    3.500    8.000 
#    0.000    1.250    0.000    0.000    0.000    0.000 
#    0.000    0.000    0.000    0.000    0.000    0.000 
#
# Total GULP energy -178537.326749 kJ/mol
# GULP energy per Si atom -5579.291461 kJ/mol
# Density = 2.174787 g / cm^3
# Si number density = 21.797483 Si / 1000 Ang^3
#
#
#
# Elastic Constant Matrix: (Units=GPa)
#
#
# Indices 1 2 3 4 5 6 
#
# 1 129.6286 32.1310 49.4033 0.0000 0.0000 0.0000
# 2 32.1310 105.9208 39.8743 0.0000 0.0000 0.0000
# 3 49.4033 39.8743 162.2983 0.0000 0.0000 0.0000
# 4 0.0000 0.0000 0.0000 -1.9626 0.0000 0.0000
# 5 0.0000 0.0000 0.0000 0.0000 14.6517 0.0000
# 6 0.0000 0.0000 0.0000 0.0000 0.0000 68.1047
#
#
#
# Elastic Compliance Matrix: (Units=1/GPa)
#
#
# Indices 1 2 3 4 5 6 
#
# 1 0.009055 -0.001883 -0.002294 0.000000 0.000000 0.000000
# 2 -0.001883 0.010795 -0.002079 0.000000 0.000000 0.000000
# 3 -0.002294 -0.002079 0.007370 0.000000 0.000000 0.000000
# 4 0.000000 0.000000 0.000000 -0.509517 0.000000 0.000000
# 5 0.000000 0.000000 0.000000 0.000000 0.068251 0.000000
# 6 0.000000 0.000000 0.000000 0.000000 0.000000 0.014683
#
#
# Mechanical properties :
#
#
# Convention : Reuss Voigt Hill
#
# Bulk Modulus (GPa) = 67.98675 71.18498 69.58586
# Shear Modulus (GPa) = -13.09083 34.58803 10.74860
#
# Velocity S-wave (km/s) = -2.45330 3.98777 2.22302
# Velocity P-wave (km/s) = 4.82006 7.34380 6.21146
#
# Compressibility (1/GPa) = 0.01470875
#
# Stress axis : x y z
#
# Youngs Moduli (GPa) = 110.43190 92.63586 135.67729
#
# Poissons Ratio (x) = 0.17448 0.31120
# Poissons Ratio (y) = 0.20799 0.28205
# Poissons Ratio (z) = 0.25330 0.19258
#
# Static dielectric constant tensor:
#      x y z
#    x 2.023750 0.000000 0.000000 
#    y 0.000000 1.785600 0.000000 
#    z 0.000000 0.000000 1.823980 
# 
# From -- ./inp_files/46551.got.cif
#   From: 2010.05.17/outbox.cif.g08.bks.cpg/sg72_24_cif.got.tgz:46551.got - 2010.06.03 17:03:01.
