data_PCOD9528422
_publ_section_title
;
Structure prediction by ZEFSAII (Michael W. Deem and Ramdas Pophale) SiO2 
 PCOD9528422
Probable space group: I B A M
;
_chemical_formula_sum "Si O2"
_cell_formula_units_Z 64
_cell_length_a 25.231006
_cell_length_b 5.289328
_cell_length_c 18.529475
_cell_angle_alpha 90.000000
_cell_angle_beta 90.000000
_cell_angle_gamma 90.000000
_cell_volume 2472.852318
_symmetry_space_group_name_H-M "I B A M"
_symmetry_group_IT_number 72
_symmetry_cell_setting 'orthorhombic'
loop_
_space_group_symop_operation_xyz
x,y,z
-x,-y,z
x,-y,1/2-z
-x,y,1/2-z
-x,-y,-z
x,y,-z
-x,y,1/2+z
x,-y,1/2+z
1/2+x,1/2+y,1/2+z
1/2-x,1/2-y,1/2+z
1/2+x,1/2-y,-z
1/2-x,1/2+y,-z
1/2-x,1/2-y,1/2-z
1/2+x,1/2+y,1/2-z
1/2-x,1/2+y,z
1/2+x,1/2-y,z
loop_
_atom_site_type_symbol
_atom_site_label
_atom_site_fract_x
_atom_site_fract_y
_atom_site_fract_z
Si Si1 0.535279 0.252275 0.335606
Si Si2 0.380371 0.514597 0.580629
Si Si3 0.635617 0.750671 0.724881
Si Si4 0.724819 0.160857 0.413477
O O1 0.500000 0.500000 0.324075
O O2 0.567268 0.317514 0.408243
O O3 0.582280 0.242015 0.275758
O O4 0.500000 0.000000 0.336318
O O5 0.375632 0.411268 0.500000
O O6 0.379903 0.297469 0.642004
O O7 0.331805 0.706181 0.594423
O O8 0.665271 0.500000 0.750000
O O9 0.664688 0.000000 0.750000
O O10 0.733285 0.133686 0.500000
O O11 0.734533 0.877048 0.385737
#
# Coordination Sequence:
#
# PCOD9528422 Si02
#       4
#    16  16  16  16
#     4  11  24  42  65  90 126 181 227 258 319 408
#     4  10  23  42  68 103 136 168 223 291 334 376
#     4  10  22  40  63  86 122 174 223 257 315 400
#     4   9  19  37  62  92 129 173 215 262 333 408
#
# _framework density 25.881043999999999
#
# number of rings (size 3 to 8) (size 9 to 14) (size 15 to 20)
#    0.000    2.000    0.000    3.000    0.000   18.000 
#    0.000   17.500    0.000   24.750    0.000    0.000 
#    0.000    0.000    0.000    0.000    0.000    0.000 
#
# Total GULP energy -179017.310003 kJ/mol
# GULP energy per Si atom -5594.290938 kJ/mol
# Density = 2.582214 g / cm^3
# Si number density = 25.881044 Si / 1000 Ang^3
#
#
#
# Elastic Constant Matrix: (Units=GPa)
#
#
# Indices 1 2 3 4 5 6 
#
# 1 79.1454 7.7687 4.2881 0.0000 0.0000 0.0000
# 2 7.7687 181.9051 20.8642 0.0000 0.0000 0.0000
# 3 4.2881 20.8642 148.1367 0.0000 0.0000 0.0000
# 4 0.0000 0.0000 0.0000 22.4328 0.0000 0.0000
# 5 0.0000 0.0000 0.0000 0.0000 30.6432 0.0000
# 6 0.0000 0.0000 0.0000 0.0000 0.0000 26.2696
#
#
#
# Elastic Compliance Matrix: (Units=1/GPa)
#
#
# Indices 1 2 3 4 5 6 
#
# 1 0.012701 -0.000508 -0.000296 0.000000 0.000000 0.000000
# 2 -0.000508 0.005608 -0.000775 0.000000 0.000000 0.000000
# 3 -0.000296 -0.000775 0.006868 0.000000 0.000000 0.000000
# 4 0.000000 0.000000 0.000000 0.044578 0.000000 0.000000
# 5 0.000000 0.000000 0.000000 0.000000 0.032634 0.000000
# 6 0.000000 0.000000 0.000000 0.000000 0.000000 0.038067
#
#
# Mechanical properties :
#
#
# Convention : Reuss Voigt Hill
#
# Bulk Modulus (GPa) = 45.41760 52.78102 49.09931
# Shear Modulus (GPa) = 33.12271 40.95354 37.03812
#
# Velocity S-wave (km/s) = 3.58132 3.98222 3.78708
# Velocity P-wave (km/s) = 5.88964 6.44842 6.17535
#
# Compressibility (1/GPa) = 0.02201790
#
# Stress axis : x y z
#
# Youngs Moduli (GPa) = 78.73445 178.31685 145.59720
#
# Poissons Ratio (x) = 0.09067 0.04310
# Poissons Ratio (y) = 0.04003 0.11286
# Poissons Ratio (z) = 0.02331 0.13822
#
# Static dielectric constant tensor:
#      x y z
#    x 2.096760 0.000000 0.000000 
#    y 0.000000 2.161490 0.000000 
#    z 0.000000 0.000000 2.065820 
# 
# From -- ./inp_files/40025.got.cif
#   From: 2010.05.17/outbox.cif.g08.bks.cpg/sg72_21_cif.got.tgz:40025.got - 2010.06.03 17:03:01.
