data_PCOD9528648
_publ_section_title
;
Structure prediction by ZEFSAII (Michael W. Deem and Ramdas Pophale) SiO2 
 PCOD9528648
Probable space group: I B A M
;
_chemical_formula_sum "Si O2"
_cell_formula_units_Z 68
_cell_length_a 9.091109
_cell_length_b 18.568662
_cell_length_c 17.812703
_cell_angle_alpha 90.000000
_cell_angle_beta 90.000000
_cell_angle_gamma 90.000000
_cell_volume 3006.957588
_symmetry_space_group_name_H-M "I B A M"
_symmetry_group_IT_number 72
_symmetry_cell_setting 'orthorhombic'
loop_
_space_group_symop_operation_xyz
x,y,z
-x,-y,z
x,-y,1/2-z
-x,y,1/2-z
-x,-y,-z
x,y,-z
-x,y,1/2+z
x,-y,1/2+z
1/2+x,1/2+y,1/2+z
1/2-x,1/2-y,1/2+z
1/2+x,1/2-y,-z
1/2-x,1/2+y,-z
1/2-x,1/2-y,1/2-z
1/2+x,1/2+y,1/2-z
1/2-x,1/2+y,z
1/2+x,1/2-y,z
loop_
_atom_site_type_symbol
_atom_site_label
_atom_site_fract_x
_atom_site_fract_y
_atom_site_fract_z
Si Si1 0.340853 0.675355 0.914556
Si Si2 0.246486 0.468747 0.626791
Si Si3 0.330336 0.403665 0.777454
Si Si4 0.907256 0.251578 0.820291
Si Si5 0.500000 0.000000 0.500000
O O1 0.358988 0.589344 0.908150
O O2 0.195271 0.697422 0.868790
O O3 0.474217 0.716153 0.876006
O O4 0.324880 0.697351 0.000000
O O5 0.227884 0.433250 0.710236
O O6 0.300316 0.548586 0.649166
O O7 0.116113 0.474057 0.567082
O O8 0.500000 0.414886 0.750000
O O9 0.317029 0.318509 0.790608
O O10 0.000000 0.281719 0.750000
#
# Coordination Sequence:
#
# PCOD9528648 Si02
#       5
#    16  16  16  16   4
#     4  12  25  46  67 105 152 188 234 304 367 439
#     4  11  23  44  69  99 145 181 235 294 353 436
#     4  10  22  45  77 105 125 181 258 299 342 419
#     4  11  24  45  74 104 137 190 249 300 360 427
#     4  12  28  46  58 108 152 194 212 282 392 430
#
# _framework density 22.614218999999999
#
# number of rings (size 3 to 8) (size 9 to 14) (size 15 to 20)
#    0.000    0.941    5.882    2.824    0.000    3.765 
#   12.706    3.529    0.000    0.000    0.000    0.000 
#    0.000    0.000    0.000    0.000    0.000    0.000 
#
# Total GULP energy -189323.500053 kJ/mol
# GULP energy per Si atom -5568.338237 kJ/mol
# Density = 2.256275 g / cm^3
# Si number density = 22.614219 Si / 1000 Ang^3
#
#
#
# Elastic Constant Matrix: (Units=GPa)
#
#
# Indices 1 2 3 4 5 6 
#
# 1 84.7922 27.2910 64.3420 0.0000 0.0000 0.0000
# 2 27.2910 49.0009 36.0603 0.0000 0.0000 0.0000
# 3 64.3420 36.0603 190.3009 0.0000 0.0000 0.0000
# 4 0.0000 0.0000 0.0000 19.7548 0.0000 0.0000
# 5 0.0000 0.0000 0.0000 0.0000 45.3394 0.0000
# 6 0.0000 0.0000 0.0000 0.0000 0.0000 9.9320
#
#
#
# Elastic Compliance Matrix: (Units=1/GPa)
#
#
# Indices 1 2 3 4 5 6 
#
# 1 0.017352 -0.006213 -0.004689 0.000000 0.000000 0.000000
# 2 -0.006213 0.025939 -0.002815 0.000000 0.000000 0.000000
# 3 -0.004689 -0.002815 0.007374 0.000000 0.000000 0.000000
# 4 0.000000 0.000000 0.000000 0.050621 0.000000 0.000000
# 5 0.000000 0.000000 0.000000 0.000000 0.022056 0.000000
# 6 0.000000 0.000000 0.000000 0.000000 0.000000 0.100684
#
#
# Mechanical properties :
#
#
# Convention : Reuss Voigt Hill
#
# Bulk Modulus (GPa) = 43.04643 64.38673 53.71658
# Shear Modulus (GPa) = 19.28987 28.09861 23.69424
#
# Velocity S-wave (km/s) = 2.92378 3.52876 3.24042
# Velocity P-wave (km/s) = 5.52036 6.71837 6.14861
#
# Compressibility (1/GPa) = 0.02323073
#
# Stress axis : x y z
#
# Youngs Moduli (GPa) = 57.63138 38.55133 135.61700
#
# Poissons Ratio (x) = 0.23952 0.63596
# Poissons Ratio (y) = 0.35806 0.38171
# Poissons Ratio (z) = 0.27026 0.10851
#
# Static dielectric constant tensor:
#      x y z
#    x 1.857870 0.000000 0.000000 
#    y 0.000000 1.898470 0.000000 
#    z 0.000000 0.000000 1.849530 
# 
# From -- ./inp_files/27783.got.cif
#   From: 2010.05.17/outbox.cif.g08.bks.cpg/sg72_14_cif.got.tgz:27783.got - 2010.06.03 17:03:01.
