data_PCOD9528738
_publ_section_title
;
Structure prediction by ZEFSAII (Michael W. Deem and Ramdas Pophale) SiO2 
 PCOD9528738
Probable space group: I B A M
;
_chemical_formula_sum "Si O2"
_cell_formula_units_Z 88
_cell_length_a 8.337329
_cell_length_b 20.772830
_cell_length_c 25.804942
_cell_angle_alpha 90.000000
_cell_angle_beta 90.000000
_cell_angle_gamma 90.000000
_cell_volume 4469.155788
_symmetry_space_group_name_H-M "I B A M"
_symmetry_group_IT_number 72
_symmetry_cell_setting 'orthorhombic'
loop_
_space_group_symop_operation_xyz
x,y,z
-x,-y,z
x,-y,1/2-z
-x,y,1/2-z
-x,-y,-z
x,y,-z
-x,y,1/2+z
x,-y,1/2+z
1/2+x,1/2+y,1/2+z
1/2-x,1/2-y,1/2+z
1/2+x,1/2-y,-z
1/2-x,1/2+y,-z
1/2-x,1/2-y,1/2-z
1/2+x,1/2+y,1/2-z
1/2-x,1/2+y,z
1/2+x,1/2-y,z
loop_
_atom_site_type_symbol
_atom_site_label
_atom_site_fract_x
_atom_site_fract_y
_atom_site_fract_z
Si Si1 0.500000 0.500000 0.910193
Si Si2 0.316383 0.671853 0.842685
Si Si3 0.000000 0.500000 0.388414
Si Si4 0.774737 0.070261 0.832529
Si Si5 0.546479 0.191805 0.189221
Si Si6 0.735119 0.092780 0.442050
Si Si7 0.000000 0.095323 0.250000
O O1 0.587448 0.554816 0.875107
O O2 0.361119 0.533953 0.942086
O O3 0.388982 0.743190 0.837185
O O4 0.311893 0.641581 0.900177
O O5 0.413246 0.634903 0.796709
O O6 0.126713 0.671552 0.831396
O O7 0.140725 0.521399 0.350692
O O8 0.069736 0.440650 0.422049
O O9 0.682790 0.138229 0.823270
O O10 0.861608 0.057767 0.778975
O O11 0.500000 0.202213 0.250000
O O12 0.716170 0.119086 0.500000
#
# Coordination Sequence:
#
# PCOD9528738 Si02
#       7
#     8  16   8  16  16  16   8
#     4  10  23  41  66  94 132 173 217 272 332 398
#     4  12  24  41  66  96 128 173 223 268 331 401
#     4  10  23  46  65  92 130 172 226 270 332 404
#     4  11  23  41  64  96 131 174 216 269 328 394
#     4  12  23  41  66  95 134 175 216 262 327 407
#     4  11  23  44  69  95 126 170 223 282 335 395
#     4  12  22  41  62  96 136 171 216 270 334 396
#
# _framework density 19.690519999999999
#
# number of rings (size 3 to 8) (size 9 to 14) (size 15 to 20)
#    0.000    0.727    6.364    2.182    0.000    0.364 
#    3.273    1.818    0.000    0.000    0.000    0.000 
#    0.000    0.000    0.000    0.000    0.000    0.000 
#
# Total GULP energy -245103.570822 kJ/mol
# GULP energy per Si atom -5570.535700 kJ/mol
# Density = 1.964570 g / cm^3
# Si number density = 19.690520 Si / 1000 Ang^3
#
#
#
# Elastic Constant Matrix: (Units=GPa)
#
#
# Indices 1 2 3 4 5 6 
#
# 1 118.7944 30.6572 49.1852 0.0000 0.0000 0.0000
# 2 30.6572 65.1019 73.8659 0.0000 0.0000 0.0000
# 3 49.1852 73.8659 150.7892 0.0000 0.0000 0.0000
# 4 0.0000 0.0000 0.0000 34.5341 0.0000 0.0000
# 5 0.0000 0.0000 0.0000 0.0000 12.7229 0.0000
# 6 0.0000 0.0000 0.0000 0.0000 0.0000 137.6736
#
#
#
# Elastic Compliance Matrix: (Units=1/GPa)
#
#
# Indices 1 2 3 4 5 6 
#
# 1 0.009875 -0.002241 -0.002123 0.000000 0.000000 0.000000
# 2 -0.002241 0.035090 -0.016458 0.000000 0.000000 0.000000
# 3 -0.002123 -0.016458 0.015386 0.000000 0.000000 0.000000
# 4 0.000000 0.000000 0.000000 0.028957 0.000000 0.000000
# 5 0.000000 0.000000 0.000000 0.000000 0.078598 0.000000
# 6 0.000000 0.000000 0.000000 0.000000 0.000000 0.007264
#
#
# Mechanical properties :
#
#
# Convention : Reuss Voigt Hill
#
# Bulk Modulus (GPa) = 53.45781 71.34467 62.40124
# Shear Modulus (GPa) = 22.41643 49.05127 35.73385
#
# Velocity S-wave (km/s) = 3.37773 4.99652 4.26464
# Velocity P-wave (km/s) = 6.51307 8.34258 7.48394
#
# Compressibility (1/GPa) = 0.01870634
#
# Stress axis : x y z
#
# Youngs Moduli (GPa) = 101.26132 28.49854 64.99215
#
# Poissons Ratio (x) = 0.06387 0.13800
# Poissons Ratio (y) = 0.22696 1.06964
# Poissons Ratio (z) = 0.21501 0.46903
#
# Static dielectric constant tensor:
#      x y z
#    x 1.765150 0.000000 0.000000 
#    y 0.000000 1.742360 0.000000 
#    z 0.000000 0.000000 1.723760 
# 
# From -- ./inp_files/42309.got.cif
#   From: 2010.05.17/outbox.cif.g08.bks.cpg/sg72_22_cif.got.tgz:42309.got - 2010.06.03 17:03:01.
