data_PCOD9528074
_publ_section_title
;
Structure prediction by ZEFSAII (Michael W. Deem and Ramdas Pophale) SiO2 
 PCOD9528074
Probable space group: I B A M
;
_chemical_formula_sum "Si O2"
_cell_formula_units_Z 84
_cell_length_a 16.181184
_cell_length_b 19.765244
_cell_length_c 14.501057
_cell_angle_alpha 90.000000
_cell_angle_beta 90.000000
_cell_angle_gamma 90.000000
_cell_volume 4637.801280
_symmetry_space_group_name_H-M "I B A M"
_symmetry_group_IT_number 72
_symmetry_cell_setting 'orthorhombic'
loop_
_space_group_symop_operation_xyz
x,y,z
-x,-y,z
x,-y,1/2-z
-x,y,1/2-z
-x,-y,-z
x,y,-z
-x,y,1/2+z
x,-y,1/2+z
1/2+x,1/2+y,1/2+z
1/2-x,1/2-y,1/2+z
1/2+x,1/2-y,-z
1/2-x,1/2+y,-z
1/2-x,1/2-y,1/2-z
1/2+x,1/2+y,1/2-z
1/2-x,1/2+y,z
1/2+x,1/2-y,z
loop_
_atom_site_type_symbol
_atom_site_label
_atom_site_fract_x
_atom_site_fract_y
_atom_site_fract_z
Si Si1 0.871865 0.237141 0.164777
Si Si2 0.651319 0.072595 0.201642
Si Si3 0.113599 0.866676 0.000000
Si Si4 0.000000 0.000000 0.000000
Si Si5 0.000000 0.332976 0.750000
Si Si6 0.281527 0.048522 0.500000
Si Si7 0.723733 0.663087 0.322636
Si Si8 0.326162 0.580985 0.000000
O O1 0.792511 0.283872 0.140711
O O2 0.843454 0.201959 0.260455
O O3 0.950821 0.284681 0.179832
O O4 0.890238 0.180834 0.089442
O O5 0.570750 0.119246 0.208941
O O6 0.671519 0.061959 0.094819
O O7 0.725729 0.111584 0.255522
O O8 0.639268 0.000000 0.250000
O O9 0.202246 0.902884 0.000000
O O10 0.045074 0.924684 0.000000
O O11 0.091266 0.036838 0.000000
O O12 0.249936 0.971553 0.500000
O O13 0.682227 0.625016 0.407646
#
# Coordination Sequence:
#
# PCOD9528074 Si02
#       8
#    16  16   8   4   8   8  16   8
#     4  10  22  40  62  92 124 165 207 261 305 375
#     4  11  21  42  66  94 127 168 206 271 302 378
#     4  11  22  43  61  90 128 163 206 265 301 382
#     4  10  28  40  58  98 128 154 214 250 318 374
#     4  10  25  40  60  95 132 162 214 252 328 367
#     4  11  22  38  68  92 118 166 215 249 320 364
#     4  10  21  39  67  90 119 167 218 246 312 369
#     4  11  22  42  62  92 124 162 207 261 308 381
#
# _framework density 18.112031000000002
#
# number of rings (size 3 to 8) (size 9 to 14) (size 15 to 20)
#    0.000    1.524    3.810    0.857    2.667    0.762 
#    0.000    3.810    0.000    0.000    0.000    0.000 
#    0.000    0.000    0.000    0.000    0.000    0.000 
#
# Total GULP energy -233984.878003 kJ/mol
# GULP energy per Si atom -5571.068524 kJ/mol
# Density = 1.807081 g / cm^3
# Si number density = 18.112031 Si / 1000 Ang^3
#
#
#
# Elastic Constant Matrix: (Units=GPa)
#
#
# Indices 1 2 3 4 5 6 
#
# 1 77.1836 42.6044 45.9602 0.0000 0.0000 0.0000
# 2 42.6044 128.0574 53.1734 0.0000 0.0000 0.0000
# 3 45.9602 53.1734 102.3148 0.0000 0.0000 0.0000
# 4 0.0000 0.0000 0.0000 17.5148 0.0000 0.0000
# 5 0.0000 0.0000 0.0000 0.0000 1.5416 0.0000
# 6 0.0000 0.0000 0.0000 0.0000 0.0000 22.1250
#
#
#
# Elastic Compliance Matrix: (Units=1/GPa)
#
#
# Indices 1 2 3 4 5 6 
#
# 1 0.018851 -0.003514 -0.006642 0.000000 0.000000 0.000000
# 2 -0.003514 0.010613 -0.003937 0.000000 0.000000 0.000000
# 3 -0.006642 -0.003937 0.014803 0.000000 0.000000 0.000000
# 4 0.000000 0.000000 0.000000 0.057095 0.000000 0.000000
# 5 0.000000 0.000000 0.000000 0.000000 0.648675 0.000000
# 6 0.000000 0.000000 0.000000 0.000000 0.000000 0.045198
#
#
# Mechanical properties :
#
#
# Convention : Reuss Voigt Hill
#
# Bulk Modulus (GPa) = 62.18250 65.67022 63.92636
# Shear Modulus (GPa) = 6.03297 19.29078 12.66187
#
# Velocity S-wave (km/s) = 1.82706 3.26710 2.64689
# Velocity P-wave (km/s) = 6.23358 7.11115 6.68678
#
# Compressibility (1/GPa) = 0.01608170
#
# Stress axis : x y z
#
# Youngs Moduli (GPa) = 53.04898 94.22547 67.55224
#
# Poissons Ratio (x) = 0.33108 0.44866
# Poissons Ratio (y) = 0.18640 0.26596
# Poissons Ratio (z) = 0.35233 0.37098
#
# Static dielectric constant tensor:
#      x y z
#    x 1.601370 0.000000 0.000000 
#    y 0.000000 1.624220 0.000000 
#    z 0.000000 0.000000 1.764720 
# 
# From -- ./inp_files/21758.got.cif
#   From: 2010.05.17/outbox.cif.g08.bks.cpg/sg72_11_cif.got.tgz:21758.got - 2010.06.03 17:03:01.
