data_PCOD9528393
_publ_section_title
;
Structure prediction by ZEFSAII (Michael W. Deem and Ramdas Pophale) SiO2 
 PCOD9528393
Probable space group: I B A M
;
_chemical_formula_sum "Si O2"
_cell_formula_units_Z 80
_cell_length_a 30.351678
_cell_length_b 8.785672
_cell_length_c 16.606902
_cell_angle_alpha 90.000000
_cell_angle_beta 90.000000
_cell_angle_gamma 90.000000
_cell_volume 4428.394620
_symmetry_space_group_name_H-M "I B A M"
_symmetry_group_IT_number 72
_symmetry_cell_setting 'orthorhombic'
loop_
_space_group_symop_operation_xyz
x,y,z
-x,-y,z
x,-y,1/2-z
-x,y,1/2-z
-x,-y,-z
x,y,-z
-x,y,1/2+z
x,-y,1/2+z
1/2+x,1/2+y,1/2+z
1/2-x,1/2-y,1/2+z
1/2+x,1/2-y,-z
1/2-x,1/2+y,-z
1/2-x,1/2-y,1/2-z
1/2+x,1/2+y,1/2-z
1/2-x,1/2+y,z
1/2+x,1/2-y,z
loop_
_atom_site_type_symbol
_atom_site_label
_atom_site_fract_x
_atom_site_fract_y
_atom_site_fract_z
Si Si1 0.207815 0.140268 0.905317
Si Si2 0.702088 0.275694 0.405624
Si Si3 0.604260 0.301055 0.593983
Si Si4 0.880240 0.891556 0.173006
Si Si5 0.948651 0.680214 0.260796
O O1 0.254127 0.199762 0.871075
O O2 0.164300 0.188410 0.857133
O O3 0.207954 0.957242 0.901761
O O4 0.203922 0.184964 0.000000
O O5 0.701417 0.231321 0.500000
O O6 0.652666 0.243133 0.376152
O O7 0.599305 0.266485 0.500000
O O8 0.605093 0.484208 0.606487
O O9 0.567739 0.229825 0.650946
O O10 0.918099 0.775751 0.199437
O O11 0.870562 0.000000 0.250000
O O12 0.942821 0.500000 0.250000
O O13 0.000000 0.717588 0.250000
#
# Coordination Sequence:
#
# PCOD9528393 Si02
#       5
#    16  16  16  16  16
#     4   9  16  29  47  72 103 135 169 208 250 301
#     4   8  15  27  46  71 103 136 169 209 252 294
#     4   9  18  36  58  80 104 138 181 219 251 304
#     4   9  18  33  53  75 102 137 175 216 260 306
#     4  10  22  40  56  75 107 139 167 215 279 324
#
# _framework density 18.065237
#
# number of rings (size 3 to 8) (size 9 to 14) (size 15 to 20)
#    0.000    3.000    0.000    1.800    0.000    5.200 
#    0.000   19.000    0.000    0.000    0.000    0.000 
#    0.000    0.000    0.000    0.000    0.000    0.000 
#
# Total GULP energy -222788.699166 kJ/mol
# GULP energy per Si atom -5569.717479 kJ/mol
# Density = 1.802412 g / cm^3
# Si number density = 18.065237 Si / 1000 Ang^3
#
#
#
# Elastic Constant Matrix: (Units=GPa)
#
#
# Indices 1 2 3 4 5 6 
#
# 1 189.2153 59.7783 70.2664 0.0000 0.0000 0.0000
# 2 59.7783 30.7907 25.7712 0.0000 0.0000 0.0000
# 3 70.2664 25.7712 53.5270 0.0000 0.0000 0.0000
# 4 0.0000 0.0000 0.0000 9.3230 0.0000 0.0000
# 5 0.0000 0.0000 0.0000 0.0000 33.1494 0.0000
# 6 0.0000 0.0000 0.0000 0.0000 0.0000 34.8801
#
#
#
# Elastic Compliance Matrix: (Units=1/GPa)
#
#
# Indices 1 2 3 4 5 6 
#
# 1 0.016570 -0.023389 -0.010491 0.000000 0.000000 0.000000
# 2 -0.023389 0.087413 -0.011382 0.000000 0.000000 0.000000
# 3 -0.010491 -0.011382 0.037934 0.000000 0.000000 0.000000
# 4 0.000000 0.000000 0.000000 0.107262 0.000000 0.000000
# 5 0.000000 0.000000 0.000000 0.000000 0.030166 0.000000
# 6 0.000000 0.000000 0.000000 0.000000 0.000000 0.028670
#
#
# Mechanical properties :
#
#
# Convention : Reuss Voigt Hill
#
# Bulk Modulus (GPa) = 19.45824 65.01832 42.23828
# Shear Modulus (GPa) = 12.02874 23.31832 17.67353
#
# Velocity S-wave (km/s) = 2.58321 3.59665 3.13120
# Velocity P-wave (km/s) = 4.43754 7.30184 6.04188
#
# Compressibility (1/GPa) = 0.05139211
#
# Stress axis : x y z
#
# Youngs Moduli (GPa) = 60.34891 11.43999 26.36126
#
# Poissons Ratio (x) = 0.26757 0.27656
# Poissons Ratio (y) = 1.41151 0.30005
# Poissons Ratio (z) = 0.63314 0.13021
#
# Static dielectric constant tensor:
#      x y z
#    x 1.642160 0.000000 0.000000 
#    y 0.000000 1.611790 0.000000 
#    z 0.000000 0.000000 1.649940 
# 
# From -- ./inp_files/28106.got.cif
#   From: 2010.05.17/outbox.cif.g08.bks.cpg/sg72_15_cif.got.tgz:28106.got - 2010.06.03 17:03:01.
