data_PCOD9528716
_publ_section_title
;
Structure prediction by ZEFSAII (Michael W. Deem and Ramdas Pophale) SiO2 
 PCOD9528716
Probable space group: I B A M
;
_chemical_formula_sum "Si O2"
_cell_formula_units_Z 96
_cell_length_a 9.690419
_cell_length_b 24.734027
_cell_length_c 18.146668
_cell_angle_alpha 90.000000
_cell_angle_beta 90.000000
_cell_angle_gamma 90.000000
_cell_volume 4349.449372
_symmetry_space_group_name_H-M "I B A M"
_symmetry_group_IT_number 72
_symmetry_cell_setting 'orthorhombic'
loop_
_space_group_symop_operation_xyz
x,y,z
-x,-y,z
x,-y,1/2-z
-x,y,1/2-z
-x,-y,-z
x,y,-z
-x,y,1/2+z
x,-y,1/2+z
1/2+x,1/2+y,1/2+z
1/2-x,1/2-y,1/2+z
1/2+x,1/2-y,-z
1/2-x,1/2+y,-z
1/2-x,1/2-y,1/2-z
1/2+x,1/2+y,1/2-z
1/2-x,1/2+y,z
1/2+x,1/2-y,z
loop_
_atom_site_type_symbol
_atom_site_label
_atom_site_fract_x
_atom_site_fract_y
_atom_site_fract_z
Si Si1 0.943028 0.167925 0.417368
Si Si2 0.618666 0.842963 0.189983
Si Si3 0.930952 0.709439 0.915028
Si Si4 0.338413 0.483087 0.832691
Si Si5 0.295573 0.923528 0.417141
Si Si6 0.201938 0.144590 0.675121
O O1 0.008041 0.163500 0.500000
O O2 0.884313 0.228319 0.412716
O O3 0.830086 0.120452 0.413935
O O4 0.053880 0.163487 0.353057
O O5 0.500000 0.840567 0.250000
O O6 0.573950 0.798274 0.130219
O O7 0.606872 0.898803 0.145004
O O8 0.756164 0.841401 0.240277
O O9 0.816088 0.672382 0.876806
O O10 0.952941 0.694450 0.000000
O O11 0.500000 0.500000 0.840841
O O12 0.298317 0.500000 0.750000
O O13 0.257994 0.518482 0.892321
O O14 0.306906 0.419851 0.836596
O O15 0.350027 0.923814 0.500000
#
# Coordination Sequence:
#
# PCOD9528716 Si02
#       6
#    16  16  16  16  16  16
#     4  10  23  40  64  99 136 173 216 270 333 394
#     4  10  23  43  62  94 127 177 222 269 319 387
#     4  10  23  43  65  93 135 182 220 270 330 389
#     4  11  22  41  67  97 133 172 212 270 338 388
#     4  11  23  41  67  99 130 168 215 270 333 395
#     4  11  22  42  67  97 133 169 221 273 334 387
#
# _framework density 22.071760000000001
#
# number of rings (size 3 to 8) (size 9 to 14) (size 15 to 20)
#    0.000    1.500    3.333    1.000    2.333    3.000 
#    6.000    5.833    0.000    5.000    0.000    0.000 
#    0.000    0.000    0.000    0.000    0.000    0.000 
#
# Total GULP energy -268098.110280 kJ/mol
# GULP energy per Si atom -5585.377297 kJ/mol
# Density = 2.202152 g / cm^3
# Si number density = 22.071760 Si / 1000 Ang^3
#
#
#
# Elastic Constant Matrix: (Units=GPa)
#
#
# Indices 1 2 3 4 5 6 
#
# 1 34.9858 20.8127 14.4231 0.0000 0.0000 0.0000
# 2 20.8127 120.9488 32.5457 0.0000 0.0000 0.0000
# 3 14.4231 32.5457 132.0006 0.0000 0.0000 0.0000
# 4 0.0000 0.0000 0.0000 29.0835 0.0000 0.0000
# 5 0.0000 0.0000 0.0000 0.0000 -31.9173 0.0000
# 6 0.0000 0.0000 0.0000 0.0000 0.0000 32.1639
#
#
#
# Elastic Compliance Matrix: (Units=1/GPa)
#
#
# Indices 1 2 3 4 5 6 
#
# 1 0.032496 -0.004966 -0.002326 0.000000 0.000000 0.000000
# 2 -0.004966 0.009614 -0.001828 0.000000 0.000000 0.000000
# 3 -0.002326 -0.001828 0.008281 0.000000 0.000000 0.000000
# 4 0.000000 0.000000 0.000000 0.034384 0.000000 0.000000
# 5 0.000000 0.000000 0.000000 0.000000 -0.031331 0.000000
# 6 0.000000 0.000000 0.000000 0.000000 0.000000 0.031091
#
#
# Mechanical properties :
#
#
# Convention : Reuss Voigt Hill
#
# Bulk Modulus (GPa) = 31.10334 47.05535 39.07934
# Shear Modulus (GPa) = 44.05602 20.54294 32.29948
#
# Velocity S-wave (km/s) = 4.47255 3.05410 3.82957
# Velocity P-wave (km/s) = 6.38703 5.81397 6.10722
#
# Compressibility (1/GPa) = 0.03215089
#
# Stress axis : x y z
#
# Youngs Moduli (GPa) = 30.77284 104.01129 120.76437
#
# Poissons Ratio (x) = 0.51651 0.28094
# Poissons Ratio (y) = 0.15281 0.22074
# Poissons Ratio (z) = 0.07159 0.19012
#
# Static dielectric constant tensor:
#      x y z
#    x 1.889090 0.000000 0.000000 
#    y 0.000000 1.797770 0.000000 
#    z 0.000000 0.000000 1.821310 
# 
# From -- ./inp_files/29468.got.cif
#   From: 2010.05.17/outbox.cif.g08.bks.cpg/sg72_15_cif.got.tgz:29468.got - 2010.06.03 17:03:01.
