data_PCOD9528055
_publ_section_title
;
Structure prediction by ZEFSAII (Michael W. Deem and Ramdas Pophale) SiO2 
 PCOD9528055
Probable space group: I B A M
;
_chemical_formula_sum "Si O2"
_cell_formula_units_Z 112
_cell_length_a 14.803895
_cell_length_b 13.812661
_cell_length_c 24.266420
_cell_angle_alpha 90.000000
_cell_angle_beta 90.000000
_cell_angle_gamma 90.000000
_cell_volume 4962.026272
_symmetry_space_group_name_H-M "I B A M"
_symmetry_group_IT_number 72
_symmetry_cell_setting 'orthorhombic'
loop_
_space_group_symop_operation_xyz
x,y,z
-x,-y,z
x,-y,1/2-z
-x,y,1/2-z
-x,-y,-z
x,y,-z
-x,y,1/2+z
x,-y,1/2+z
1/2+x,1/2+y,1/2+z
1/2-x,1/2-y,1/2+z
1/2+x,1/2-y,-z
1/2-x,1/2+y,-z
1/2-x,1/2-y,1/2-z
1/2+x,1/2+y,1/2-z
1/2-x,1/2+y,z
1/2+x,1/2-y,z
loop_
_atom_site_type_symbol
_atom_site_label
_atom_site_fract_x
_atom_site_fract_y
_atom_site_fract_z
Si Si1 0.170033 0.160208 0.340425
Si Si2 0.444053 0.702130 0.060794
Si Si3 0.728472 0.797912 0.061340
Si Si4 0.930572 0.587680 0.063533
Si Si5 0.720194 0.986352 0.874161
Si Si6 0.523294 0.609701 0.329022
Si Si7 0.291641 0.392422 0.727814
O O1 0.188518 0.233903 0.389493
O O2 0.230222 0.164558 0.284415
O O3 0.068502 0.167816 0.317508
O O4 0.191484 0.053612 0.366105
O O5 0.336146 0.718592 0.061176
O O6 0.479426 0.809931 0.074293
O O7 0.466532 0.623770 0.105816
O O8 0.473254 0.673661 0.000000
O O9 0.718735 0.910845 0.076000
O O10 0.693051 0.776193 0.000000
O O11 0.857370 0.562735 0.110268
O O12 0.000000 0.500000 0.064398
O O13 0.894282 0.593881 0.000000
O O14 0.717834 0.918602 0.819204
O O15 0.500000 0.500000 0.313990
O O16 0.617519 0.643264 0.302583
O O17 0.314743 0.500000 0.750000
#
# Coordination Sequence:
#
# PCOD9528055 Si02
#       7
#    16  16  16  16  16  16  16
#     4  11  24  38  66  95 127 166 210 261 316 381
#     4  10  22  40  59  89 128 163 206 265 321 370
#     4  11  23  40  61  90 126 163 212 264 314 384
#     4  10  22  41  65  87 121 170 217 261 314 380
#     4  11  21  40  64  94 120 167 210 261 318 376
#     4  12  21  39  63  95 129 167 210 256 319 374
#     4  10  21  39  65  92 126 167 210 260 313 382
#
# _framework density 22.571425000000001
#
# number of rings (size 3 to 8) (size 9 to 14) (size 15 to 20)
#    0.000    1.286    5.714    0.857    2.000    2.000 
#    0.000    0.000    0.000    3.857    0.000    0.000 
#    0.000    0.000    0.000    0.000    0.000    0.000 
#
# Total GULP energy -312430.544938 kJ/mol
# GULP energy per Si atom -5579.116874 kJ/mol
# Density = 2.252005 g / cm^3
# Si number density = 22.571425 Si / 1000 Ang^3
#
#
#
# Elastic Constant Matrix: (Units=GPa)
#
#
# Indices 1 2 3 4 5 6 
#
# 1 34.5119 -6.3357 23.2203 0.0000 0.0000 0.0000
# 2 -6.3357 61.7693 42.2059 0.0000 0.0000 0.0000
# 3 23.2203 42.2059 160.8680 0.0000 0.0000 0.0000
# 4 0.0000 0.0000 0.0000 41.7493 0.0000 0.0000
# 5 0.0000 0.0000 0.0000 0.0000 27.6158 0.0000
# 6 0.0000 0.0000 0.0000 0.0000 0.0000 21.9339
#
#
#
# Elastic Compliance Matrix: (Units=1/GPa)
#
#
# Indices 1 2 3 4 5 6 
#
# 1 0.035570 0.008720 -0.007422 0.000000 0.000000 0.000000
# 2 0.008720 0.021863 -0.006995 0.000000 0.000000 0.000000
# 3 -0.007422 -0.006995 0.009123 0.000000 0.000000 0.000000
# 4 0.000000 0.000000 0.000000 0.023952 0.000000 0.000000
# 5 0.000000 0.000000 0.000000 0.000000 0.036211 0.000000
# 6 0.000000 0.000000 0.000000 0.000000 0.000000 0.045592
#
#
# Mechanical properties :
#
#
# Convention : Reuss Voigt Hill
#
# Bulk Modulus (GPa) = 18.12843 41.70334 29.91588
# Shear Modulus (GPa) = 24.74115 31.46370 28.10243
#
# Velocity S-wave (km/s) = 3.31437 3.73763 3.53235
# Velocity P-wave (km/s) = 4.76401 6.09449 5.46985
#
# Compressibility (1/GPa) = 0.05516197
#
# Stress axis : x y z
#
# Youngs Moduli (GPa) = 28.11351 45.73927 109.61587
#
# Poissons Ratio (x) = -0.39884 0.81358
# Poissons Ratio (y) = -0.24515 0.76673
# Poissons Ratio (z) = 0.20866 0.31993
#
# Static dielectric constant tensor:
#      x y z
#    x 1.909480 0.000000 0.000000 
#    y 0.000000 1.907350 0.000000 
#    z 0.000000 0.000000 1.874490 
# 
# From -- ./inp_files/44335.got.cif
#   From: 2010.05.17/outbox.cif.g08.bks.cpg/sg72_23_cif.got.tgz:44335.got - 2010.06.03 17:03:01.
