data_PCOD9528400
_publ_section_title
;
Structure prediction by ZEFSAII (Michael W. Deem and Ramdas Pophale) SiO2 
 PCOD9528400
Probable space group: I B A M
;
_chemical_formula_sum "Si O2"
_cell_formula_units_Z 104
_cell_length_a 9.811945
_cell_length_b 27.698743
_cell_length_c 17.422296
_cell_angle_alpha 90.000000
_cell_angle_beta 90.000000
_cell_angle_gamma 90.000000
_cell_volume 4735.006221
_symmetry_space_group_name_H-M "I B A M"
_symmetry_group_IT_number 72
_symmetry_cell_setting 'orthorhombic'
loop_
_space_group_symop_operation_xyz
x,y,z
-x,-y,z
x,-y,1/2-z
-x,y,1/2-z
-x,-y,-z
x,y,-z
-x,y,1/2+z
x,-y,1/2+z
1/2+x,1/2+y,1/2+z
1/2-x,1/2-y,1/2+z
1/2+x,1/2-y,-z
1/2-x,1/2+y,-z
1/2-x,1/2-y,1/2-z
1/2+x,1/2+y,1/2-z
1/2-x,1/2+y,z
1/2+x,1/2-y,z
loop_
_atom_site_type_symbol
_atom_site_label
_atom_site_fract_x
_atom_site_fract_y
_atom_site_fract_z
Si Si1 0.946431 0.746210 0.000000
Si Si2 0.500000 0.736747 0.750000
Si Si3 0.315877 0.685792 0.500000
Si Si4 0.091024 0.932432 0.587860
Si Si5 0.218315 0.970670 0.912355
Si Si6 0.335894 0.346376 0.314831
Si Si7 0.935337 0.313552 0.859437
Si Si8 0.791506 0.371781 0.650748
O O1 0.025908 0.797469 0.000000
O O2 0.006441 0.717476 0.071920
O O3 0.784209 0.733616 0.000000
O O4 0.577994 0.702343 0.691548
O O5 0.402885 0.773691 0.705877
O O6 0.276141 0.654626 0.575850
O O7 0.124267 0.918183 0.500000
O O8 0.083387 0.889842 0.648248
O O9 0.938902 0.953537 0.584939
O O10 0.200019 0.973678 0.612755
O O11 0.292718 0.929242 0.864251
O O12 0.271197 0.970232 0.000000
O O13 0.205587 0.340325 0.369622
O O14 0.287711 0.358817 0.228648
O O15 0.056756 0.350240 0.839773
#
# Coordination Sequence:
#
# PCOD9528400 Si02
#       8
#     8   8   8  16  16  16  16  16
#     4  10  24  38  60  85 121 171 217 272 304 384
#     4  12  24  42  62  87 127 174 202 264 320 368
#     4  10  22  40  60  92 123 166 228 258 327 380
#     4   9  21  40  63  96 126 160 204 269 324 377
#     4   9  18  40  67  91 127 160 204 265 329 380
#     4  12  24  39  63  91 125 164 211 257 317 377
#     4  11  25  42  58  86 130 167 211 258 313 381
#     4  11  21  40  63  90 121 169 209 257 319 392
#
# _framework density 21.964068000000001
#
# number of rings (size 3 to 8) (size 9 to 14) (size 15 to 20)
#    0.000    1.538    2.308    3.231    5.385    0.615 
#    1.385    2.308    0.000    3.692    0.000    0.000 
#    0.000    0.000    0.000    0.000    0.000    0.000 
#
# Total GULP energy -290433.545621 kJ/mol
# GULP energy per Si atom -5585.260493 kJ/mol
# Density = 2.191408 g / cm^3
# Si number density = 21.964068 Si / 1000 Ang^3
#
#
#
# Elastic Constant Matrix: (Units=GPa)
#
#
# Indices 1 2 3 4 5 6 
#
# 1 53.4532 25.3940 3.6593 0.0000 0.0000 0.0000
# 2 25.3940 74.8464 24.0181 0.0000 0.0000 0.0000
# 3 3.6593 24.0181 38.2628 -0.0001 0.0000 0.0000
# 4 0.0000 0.0000 -0.0001 -10.0123 0.0000 0.0000
# 5 0.0000 0.0000 0.0000 0.0000 21.6187 0.0000
# 6 0.0000 0.0000 0.0000 0.0000 0.0000 27.1987
#
#
#
# Elastic Compliance Matrix: (Units=1/GPa)
#
#
# Indices 1 2 3 4 5 6 
#
# 1 0.022636 -0.008747 0.003326 0.000000 0.000000 0.000000
# 2 -0.008747 0.020111 -0.011787 0.000000 0.000000 0.000000
# 3 0.003326 -0.011787 0.033216 0.000000 0.000000 0.000000
# 4 0.000000 0.000000 0.000000 -0.099877 0.000000 0.000000
# 5 0.000000 0.000000 0.000000 0.000000 0.046256 0.000000
# 6 0.000000 0.000000 0.000000 0.000000 0.000000 0.036767
#
#
# Mechanical properties :
#
#
# Convention : Reuss Voigt Hill
#
# Bulk Modulus (GPa) = 24.06997 30.30058 27.18527
# Shear Modulus (GPa) = 46.56612 15.32709 30.94660
#
# Velocity S-wave (km/s) = 4.60945 2.64450 3.75769
# Velocity P-wave (km/s) = 6.26993 4.81145 5.58847
#
# Compressibility (1/GPa) = 0.04154555
#
# Stress axis : x y z
#
# Youngs Moduli (GPa) = 44.17786 49.72398 30.10589
#
# Poissons Ratio (x) = 0.43494 -0.10013
# Poissons Ratio (y) = 0.38643 0.35487
# Poissons Ratio (z) = -0.14693 0.58612
#
# Static dielectric constant tensor:
#      x y z
#    x 1.812450 0.000000 0.000000 
#    y 0.000000 1.826050 0.000000 
#    z 0.000000 0.000000 1.909120 
# 
# From -- ./inp_files/29674.got.cif
#   From: 2010.05.17/outbox.cif.g08.bks.cpg/sg72_15_cif.got.tgz:29674.got - 2010.06.03 17:03:01.
