data_PCOD9528911
_publ_section_title
;
Structure prediction by ZEFSAII (Michael W. Deem and Ramdas Pophale) SiO2 
 PCOD9528911
Probable space group: I B A M
;
_chemical_formula_sum "Si O2"
_cell_formula_units_Z 96
_cell_length_a 11.603239
_cell_length_b 23.352711
_cell_length_c 17.219458
_cell_angle_alpha 90.000000
_cell_angle_beta 90.000000
_cell_angle_gamma 90.000000
_cell_volume 4665.906375
_symmetry_space_group_name_H-M "I B A M"
_symmetry_group_IT_number 72
_symmetry_cell_setting 'orthorhombic'
loop_
_space_group_symop_operation_xyz
x,y,z
-x,-y,z
x,-y,1/2-z
-x,y,1/2-z
-x,-y,-z
x,y,-z
-x,y,1/2+z
x,-y,1/2+z
1/2+x,1/2+y,1/2+z
1/2-x,1/2-y,1/2+z
1/2+x,1/2-y,-z
1/2-x,1/2+y,-z
1/2-x,1/2-y,1/2-z
1/2+x,1/2+y,1/2-z
1/2-x,1/2+y,z
1/2+x,1/2-y,z
loop_
_atom_site_type_symbol
_atom_site_label
_atom_site_fract_x
_atom_site_fract_y
_atom_site_fract_z
Si Si1 0.951044 0.891874 0.666452
Si Si2 0.186132 0.209971 0.411399
Si Si3 0.604865 0.143924 0.148113
Si Si4 0.774010 0.529512 0.168528
Si Si5 0.653670 0.171997 0.327952
Si Si6 0.314228 0.419504 0.409596
O O1 0.903351 0.837714 0.619124
O O2 0.844873 0.935066 0.679748
O O3 0.000000 0.873728 0.750000
O O4 0.054517 0.921689 0.620129
O O5 0.160922 0.226820 0.500000
O O6 0.310761 0.179739 0.406557
O O7 0.182663 0.264136 0.354649
O O8 0.633658 0.076678 0.142936
O O9 0.640452 0.163222 0.235714
O O10 0.471150 0.156172 0.137075
O O11 0.806342 0.500000 0.250000
O O12 0.748308 0.479328 0.108223
O O13 0.749451 0.129260 0.360647
O O14 0.310755 0.405631 0.500000
#
# Coordination Sequence:
#
# PCOD9528911 Si02
#       6
#    16  16  16  16  16  16
#     4  11  23  40  69  98 129 173 218 269 322 389
#     4  11  25  42  65  96 136 171 212 272 332 390
#     4  10  24  44  71  92 127 175 226 267 320 392
#     4  11  21  43  67  96 131 171 217 267 325 378
#     4  11  24  44  67  99 125 176 222 269 322 391
#     4  12  25  40  65 101 137 169 214 269 332 392
#
# _framework density 20.574781000000002
#
# number of rings (size 3 to 8) (size 9 to 14) (size 15 to 20)
#    0.000    1.000    3.333    3.000    4.667    6.000 
#    0.000    0.833    0.000    0.000    0.000    0.000 
#    0.000    0.000    0.000    0.000    0.000    0.000 
#
# Total GULP energy -268593.758469 kJ/mol
# GULP energy per Si atom -5595.703301 kJ/mol
# Density = 2.052795 g / cm^3
# Si number density = 20.574781 Si / 1000 Ang^3
#
#
#
# Elastic Constant Matrix: (Units=GPa)
#
#
# Indices 1 2 3 4 5 6 
#
# 1 46.0132 5.8576 -13.1556 0.0000 0.0000 0.0000
# 2 5.8576 105.1844 -15.5487 0.0001 0.0000 0.0000
# 3 -13.1556 -15.5487 44.4773 0.0001 0.0000 0.0000
# 4 0.0000 0.0001 0.0001 7.1399 0.0000 0.0000
# 5 0.0000 0.0000 0.0000 0.0000 11.6672 0.0000
# 6 0.0000 0.0000 0.0000 0.0000 0.0000 12.7365
#
#
#
# Elastic Compliance Matrix: (Units=1/GPa)
#
#
# Indices 1 2 3 4 5 6 
#
# 1 0.023750 -0.000300 0.006920 0.000000 0.000000 0.000000
# 2 -0.000300 0.010029 0.003417 0.000000 0.000000 0.000000
# 3 0.006920 0.003417 0.025725 0.000000 0.000000 0.000000
# 4 0.000000 0.000000 0.000000 0.140058 0.000000 0.000001
# 5 0.000000 0.000000 0.000000 0.000000 0.085710 0.000000
# 6 0.000000 0.000000 0.000000 0.000001 0.000000 0.078515
#
#
# Mechanical properties :
#
#
# Convention : Reuss Voigt Hill
#
# Bulk Modulus (GPa) = 12.56620 16.66462 14.61541
# Shear Modulus (GPa) = 13.50484 20.87681 17.19082
#
# Velocity S-wave (km/s) = 2.56477 3.18886 2.89369
# Velocity P-wave (km/s) = 3.85896 4.65570 4.27593
#
# Compressibility (1/GPa) = 0.07957857
#
# Stress axis : x y z
#
# Youngs Moduli (GPa) = 42.10610 99.71121 38.87293
#
# Poissons Ratio (x) = 0.02988 -0.26900
# Poissons Ratio (y) = 0.01262 -0.13284
# Poissons Ratio (z) = -0.29137 -0.34075
#
# Static dielectric constant tensor:
#      x y z
#    x 1.714310 0.000000 0.000000 
#    y 0.000000 1.702910 0.000000 
#    z 0.000000 0.000000 1.719510 
# 
# From -- ./inp_files/29422.got.cif
#   From: 2010.05.17/outbox.cif.g08.bks.cpg/sg72_15_cif.got.tgz:29422.got - 2010.06.03 17:03:01.
