data_PCOD9528544
_publ_section_title
;
Structure prediction by ZEFSAII (Michael W. Deem and Ramdas Pophale) SiO2 
 PCOD9528544
Probable space group: I B A M
;
_chemical_formula_sum "Si O2"
_cell_formula_units_Z 80
_cell_length_a 7.394442
_cell_length_b 25.864935
_cell_length_c 18.798256
_cell_angle_alpha 90.000000
_cell_angle_beta 90.000000
_cell_angle_gamma 90.000000
_cell_volume 3595.293568
_symmetry_space_group_name_H-M "I B A M"
_symmetry_group_IT_number 72
_symmetry_cell_setting 'orthorhombic'
loop_
_space_group_symop_operation_xyz
x,y,z
-x,-y,z
x,-y,1/2-z
-x,y,1/2-z
-x,-y,-z
x,y,-z
-x,y,1/2+z
x,-y,1/2+z
1/2+x,1/2+y,1/2+z
1/2-x,1/2-y,1/2+z
1/2+x,1/2-y,-z
1/2-x,1/2+y,-z
1/2-x,1/2-y,1/2-z
1/2+x,1/2+y,1/2-z
1/2-x,1/2+y,z
1/2+x,1/2-y,z
loop_
_atom_site_type_symbol
_atom_site_label
_atom_site_fract_x
_atom_site_fract_y
_atom_site_fract_z
Si Si1 0.962659 0.167798 0.080844
Si Si2 0.159183 0.413746 0.918500
Si Si3 0.786714 0.009682 0.332342
Si Si4 0.302609 0.693933 0.277584
Si Si5 0.818186 0.628548 0.653584
O O1 0.856741 0.112906 0.082121
O O2 0.839760 0.198160 0.138198
O O3 0.167891 0.160132 0.108108
O O4 0.958098 0.187422 0.000000
O O5 0.178634 0.467808 0.878274
O O6 0.015774 0.375202 0.881396
O O7 0.102953 0.421330 0.000000
O O8 0.743968 0.000000 0.250000
O O9 0.744289 0.069073 0.347243
O O10 0.000000 0.000000 0.343015
O O11 0.500000 0.678620 0.250000
O O12 0.250000 0.750000 0.250000
O O13 0.186426 0.652264 0.233192
#
# Coordination Sequence:
#
# PCOD9528544 Si02
#       5
#    16  16  16  16  16
#     4  10  22  42  64  94 133 170 213 276 336 395
#     4  11  24  40  66  99 134 179 220 267 336 397
#     4  11  23  39  63  94 133 181 225 270 319 395
#     4  10  24  43  69  98 124 172 222 281 344 403
#     4  11  23  41  67  93 132 172 223 275 327 400
#
# _framework density 22.251311999999999
#
# number of rings (size 3 to 8) (size 9 to 14) (size 15 to 20)
#    0.000    1.400    2.000    2.400    8.400    6.000 
#    0.000    5.000    0.000    0.000    0.000    0.000 
#    0.000    0.000    0.000    0.000    0.000    0.000 
#
# Total GULP energy -223347.982611 kJ/mol
# GULP energy per Si atom -5583.699565 kJ/mol
# Density = 2.220067 g / cm^3
# Si number density = 22.251312 Si / 1000 Ang^3
#
#
#
# Elastic Constant Matrix: (Units=GPa)
#
#
# Indices 1 2 3 4 5 6 
#
# 1 117.6417 12.0429 54.5521 0.0000 0.0000 0.0000
# 2 12.0429 54.7564 29.9726 0.0000 0.0000 0.0000
# 3 54.5521 29.9726 184.7197 0.0000 0.0000 0.0000
# 4 0.0000 0.0000 0.0000 26.9471 0.0000 0.0000
# 5 0.0000 0.0000 0.0000 0.0000 26.2835 0.0000
# 6 0.0000 0.0000 0.0000 0.0000 0.0000 23.9131
#
#
#
# Elastic Compliance Matrix: (Units=1/GPa)
#
#
# Indices 1 2 3 4 5 6 
#
# 1 0.009869 -0.000631 -0.002812 0.000000 0.000000 0.000000
# 2 -0.000631 0.020083 -0.003072 0.000000 0.000000 0.000000
# 3 -0.002812 -0.003072 0.006743 0.000000 0.000000 0.000000
# 4 0.000000 0.000000 0.000000 0.037110 0.000000 0.000000
# 5 0.000000 0.000000 0.000000 0.000000 0.038047 0.000000
# 6 0.000000 0.000000 0.000000 0.000000 0.000000 0.041818
#
#
# Mechanical properties :
#
#
# Convention : Reuss Voigt Hill
#
# Bulk Modulus (GPa) = 42.25906 61.13922 51.69914
# Shear Modulus (GPa) = 28.63877 32.79876 30.71877
#
# Velocity S-wave (km/s) = 3.59145 3.84345 3.71959
# Velocity P-wave (km/s) = 6.01922 6.87259 6.46001
#
# Compressibility (1/GPa) = 0.02366356
#
# Stress axis : x y z
#
# Youngs Moduli (GPa) = 101.32702 49.79270 148.31054
#
# Poissons Ratio (x) = 0.03143 0.41707
# Poissons Ratio (y) = 0.06396 0.45565
# Poissons Ratio (z) = 0.28495 0.15298
#
# Static dielectric constant tensor:
#      x y z
#    x 1.861360 0.000000 0.000000 
#    y 0.000000 1.795500 0.000000 
#    z 0.000000 0.000000 1.873760 
# 
# From -- ./inp_files/28104.got.cif
#   From: 2010.05.17/outbox.cif.g08.bks.cpg/sg72_15_cif.got.tgz:28104.got - 2010.06.03 17:03:01.
