data_PCOD9528545
_publ_section_title
;
Structure prediction by ZEFSAII (Michael W. Deem and Ramdas Pophale) SiO2 
 PCOD9528545
Probable space group: I B A M
;
_chemical_formula_sum "Si O2"
_cell_formula_units_Z 64
_cell_length_a 12.636943
_cell_length_b 9.546768
_cell_length_c 24.300646
_cell_angle_alpha 90.000000
_cell_angle_beta 90.000000
_cell_angle_gamma 90.000000
_cell_volume 2931.677637
_symmetry_space_group_name_H-M "I B A M"
_symmetry_group_IT_number 72
_symmetry_cell_setting 'orthorhombic'
loop_
_space_group_symop_operation_xyz
x,y,z
-x,-y,z
x,-y,1/2-z
-x,y,1/2-z
-x,-y,-z
x,y,-z
-x,y,1/2+z
x,-y,1/2+z
1/2+x,1/2+y,1/2+z
1/2-x,1/2-y,1/2+z
1/2+x,1/2-y,-z
1/2-x,1/2+y,-z
1/2-x,1/2-y,1/2-z
1/2+x,1/2+y,1/2-z
1/2-x,1/2+y,z
1/2+x,1/2-y,z
loop_
_atom_site_type_symbol
_atom_site_label
_atom_site_fract_x
_atom_site_fract_y
_atom_site_fract_z
Si Si1 0.646448 0.255367 0.060823
Si Si2 0.157342 0.921320 0.196162
Si Si3 0.686782 0.144779 0.345806
Si Si4 0.000000 0.500000 0.094404
Si Si5 0.500000 0.500000 0.100634
O O1 0.733714 0.287075 0.108235
O O2 0.583334 0.107553 0.065723
O O3 0.560738 0.380577 0.067018
O O4 0.696136 0.261707 0.000000
O O5 0.174072 0.757531 0.202249
O O6 0.082998 0.932230 0.142827
O O7 0.116360 0.000000 0.250000
O O8 0.261174 0.005756 0.178505
O O9 0.575429 0.102174 0.371202
#
# Coordination Sequence:
#
# PCOD9528545 Si02
#       5
#    16  16  16   8   8
#     4  11  24  42  68  97 135 186 232 287 354 412
#     4  11  22  42  69  95 133 181 224 283 354 408
#     4  11  24  44  64 100 141 174 233 291 334 419
#     4  12  23  46  69  98 144 180 227 286 349 408
#     4  10  22  42  64  94 134 168 234 292 332 422
#
# _framework density 21.830504000000001
#
# number of rings (size 3 to 8) (size 9 to 14) (size 15 to 20)
#    0.000    1.000    5.000    1.875    0.000    2.000 
#    0.000    0.625    0.000    0.000    0.000    0.000 
#    0.000    0.000    0.000    0.000    0.000    0.000 
#
# Total GULP energy -178658.820314 kJ/mol
# GULP energy per Si atom -5583.088135 kJ/mol
# Density = 2.178082 g / cm^3
# Si number density = 21.830504 Si / 1000 Ang^3
#
#
#
# Elastic Constant Matrix: (Units=GPa)
#
#
# Indices 1 2 3 4 5 6 
#
# 1 71.9554 20.5288 14.7220 0.0000 0.0000 0.0000
# 2 20.5288 125.5731 23.3180 0.0000 0.0000 0.0000
# 3 14.7220 23.3180 82.0163 0.0000 0.0000 0.0000
# 4 0.0000 0.0000 0.0000 -28.6755 0.0000 0.0000
# 5 0.0000 0.0000 0.0000 0.0000 1.2315 0.0000
# 6 0.0000 0.0000 0.0000 0.0000 0.0000 31.4513
#
#
#
# Elastic Compliance Matrix: (Units=1/GPa)
#
#
# Indices 1 2 3 4 5 6 
#
# 1 0.014910 -0.002049 -0.002094 0.000000 0.000000 0.000000
# 2 -0.002049 0.008689 -0.002103 0.000000 0.000000 0.000000
# 3 -0.002094 -0.002103 0.013166 0.000000 0.000000 0.000000
# 4 0.000000 0.000000 0.000000 -0.034873 0.000000 0.000000
# 5 0.000000 0.000000 0.000000 0.000000 0.811987 0.000000
# 6 0.000000 0.000000 0.000000 0.000000 0.000000 0.031795
#
#
# Mechanical properties :
#
#
# Convention : Reuss Voigt Hill
#
# Bulk Modulus (GPa) = 41.19448 44.07582 42.63515
# Shear Modulus (GPa) = 5.77196 15.53320 10.65258
#
# Velocity S-wave (km/s) = 1.62780 2.67036 2.21140
# Velocity P-wave (km/s) = 4.73752 5.45359 5.10811
#
# Compressibility (1/GPa) = 0.02427509
#
# Stress axis : x y z
#
# Youngs Moduli (GPa) = 67.06714 115.09004 75.95119
#
# Poissons Ratio (x) = 0.23579 0.15904
# Poissons Ratio (y) = 0.13740 0.15969
# Poissons Ratio (z) = 0.14044 0.24199
#
# Static dielectric constant tensor:
#      x y z
#    x 1.799080 0.000000 0.000000 
#    y 0.000000 1.499860 0.000000 
#    z 0.000000 0.000000 1.805090 
# 
# From -- ./inp_files/43957.got.cif
#   From: 2010.05.17/outbox.cif.g08.bks.cpg/sg72_22_cif.got.tgz:43957.got - 2010.06.03 17:03:01.
