data_PCOD9528287
_publ_section_title
;
Structure prediction by ZEFSAII (Michael W. Deem and Ramdas Pophale) SiO2 
 PCOD9528287
Probable space group: I B A M
;
_chemical_formula_sum "Si O2"
_cell_formula_units_Z 64
_cell_length_a 28.066622
_cell_length_b 7.950282
_cell_length_c 14.015298
_cell_angle_alpha 90.000000
_cell_angle_beta 90.000000
_cell_angle_gamma 90.000000
_cell_volume 3127.339394
_symmetry_space_group_name_H-M "I B A M"
_symmetry_group_IT_number 72
_symmetry_cell_setting 'orthorhombic'
loop_
_space_group_symop_operation_xyz
x,y,z
-x,-y,z
x,-y,1/2-z
-x,y,1/2-z
-x,-y,-z
x,y,-z
-x,y,1/2+z
x,-y,1/2+z
1/2+x,1/2+y,1/2+z
1/2-x,1/2-y,1/2+z
1/2+x,1/2-y,-z
1/2-x,1/2+y,-z
1/2-x,1/2-y,1/2-z
1/2+x,1/2+y,1/2-z
1/2-x,1/2+y,z
1/2+x,1/2-y,z
loop_
_atom_site_type_symbol
_atom_site_label
_atom_site_fract_x
_atom_site_fract_y
_atom_site_fract_z
Si Si1 0.266839 0.590028 0.886937
Si Si2 0.994682 0.705174 0.893261
Si Si3 0.311937 0.260662 0.204224
Si Si4 0.420222 0.203314 0.243927
O O1 0.292267 0.415949 0.859123
O O2 0.292248 0.716855 0.812084
O O3 0.212096 0.603019 0.849959
O O4 0.270127 0.623618 0.000000
O O5 0.944925 0.753152 0.843600
O O6 0.000000 0.500000 0.892708
O O7 0.040088 0.759691 0.832075
O O8 0.996904 0.766095 0.000000
O O9 0.368380 0.263490 0.214460
O O10 0.417418 0.000000 0.250000
#
# Coordination Sequence:
#
# PCOD9528287 Si02
#       4
#    16  16  16  16
#     4  10  22  39  56  78 113 151 193 237 278 332
#     4   8  15  30  50  79 112 141 179 226 276 334
#     4  10  22  37  58  83 113 151 189 233 283 337
#     4   9  18  31  53  82 114 144 177 229 282 330
#
# _framework density 20.464680000000001
#
# number of rings (size 3 to 8) (size 9 to 14) (size 15 to 20)
#    0.000    2.750    0.000    2.250    7.000    3.000 
#    0.000    0.000    0.000   12.000    0.000   14.000 
#    0.000    0.000    0.000    0.000    0.000    0.000 
#
# Total GULP energy -178288.840128 kJ/mol
# GULP energy per Si atom -5571.526254 kJ/mol
# Density = 2.041810 g / cm^3
# Si number density = 20.464680 Si / 1000 Ang^3
#
#
#
# Elastic Constant Matrix: (Units=GPa)
#
#
# Indices 1 2 3 4 5 6 
#
# 1 166.4034 16.7125 59.0977 0.0000 0.0000 0.0000
# 2 16.7125 48.3508 20.1580 0.0000 0.0000 0.0000
# 3 59.0977 20.1580 187.1688 0.0000 0.0000 0.0000
# 4 0.0000 0.0000 0.0000 12.8413 0.0000 0.0000
# 5 0.0000 0.0000 0.0000 0.0000 12.0153 0.0000
# 6 0.0000 0.0000 0.0000 0.0000 0.0000 13.2478
#
#
#
# Elastic Compliance Matrix: (Units=1/GPa)
#
#
# Indices 1 2 3 4 5 6 
#
# 1 0.006876 -0.001541 -0.002005 0.000000 0.000000 0.000000
# 2 -0.001541 0.022000 -0.001883 0.000000 0.000000 0.000000
# 3 -0.002005 -0.001883 0.006179 0.000000 0.000000 0.000000
# 4 0.000000 0.000000 0.000000 0.077874 0.000000 0.000000
# 5 0.000000 0.000000 0.000000 0.000000 0.083227 0.000000
# 6 0.000000 0.000000 0.000000 0.000000 0.000000 0.075484
#
#
# Mechanical properties :
#
#
# Convention : Reuss Voigt Hill
#
# Bulk Modulus (GPa) = 41.32746 65.98438 53.65592
# Shear Modulus (GPa) = 17.20794 28.01787 22.61290
#
# Velocity S-wave (km/s) = 2.90290 3.70413 3.32772
# Velocity P-wave (km/s) = 5.61019 7.11387 6.40630
#
# Compressibility (1/GPa) = 0.02419699
#
# Stress axis : x y z
#
# Youngs Moduli (GPa) = 145.42489 45.45510 161.84632
#
# Poissons Ratio (x) = 0.07004 0.32454
# Poissons Ratio (y) = 0.22408 0.30473
# Poissons Ratio (z) = 0.29161 0.08558
#
# Static dielectric constant tensor:
#      x y z
#    x 1.728790 0.000000 0.000000 
#    y 0.000000 1.864170 0.000000 
#    z 0.000000 0.000000 1.703180 
# 
# From -- ./inp_files/26177.got.cif
#   From: 2010.05.17/outbox.cif.g08.bks.cpg/sg72_14_cif.got.tgz:26177.got - 2010.06.03 17:03:01.
