data_PCOD9528388
_publ_section_title
;
Structure prediction by ZEFSAII (Michael W. Deem and Ramdas Pophale) SiO2 
 PCOD9528388
Probable space group: I B A M
;
_chemical_formula_sum "Si O2"
_cell_formula_units_Z 72
_cell_length_a 11.777114
_cell_length_b 19.825297
_cell_length_c 13.775626
_cell_angle_alpha 90.000000
_cell_angle_beta 90.000000
_cell_angle_gamma 90.000000
_cell_volume 3216.399045
_symmetry_space_group_name_H-M "I B A M"
_symmetry_group_IT_number 72
_symmetry_cell_setting 'orthorhombic'
loop_
_space_group_symop_operation_xyz
x,y,z
-x,-y,z
x,-y,1/2-z
-x,y,1/2-z
-x,-y,-z
x,y,-z
-x,y,1/2+z
x,-y,1/2+z
1/2+x,1/2+y,1/2+z
1/2-x,1/2-y,1/2+z
1/2+x,1/2-y,-z
1/2-x,1/2+y,-z
1/2-x,1/2-y,1/2-z
1/2+x,1/2+y,1/2-z
1/2-x,1/2+y,z
1/2+x,1/2-y,z
loop_
_atom_site_type_symbol
_atom_site_label
_atom_site_fract_x
_atom_site_fract_y
_atom_site_fract_z
Si Si1 0.259285 0.115362 0.611436
Si Si2 0.530344 0.213484 0.111360
Si Si3 0.839065 0.614018 0.384687
Si Si4 0.116926 0.156380 0.776838
Si Si5 0.667880 0.000000 0.750000
O O1 0.225431 0.106049 0.500000
O O2 0.381916 0.150929 0.613398
O O3 0.178478 0.164053 0.673293
O O4 0.263889 0.046382 0.672818
O O5 0.409837 0.181274 0.139199
O O6 0.578768 0.274343 0.173498
O O7 0.522653 0.236901 0.000000
O O8 0.846002 0.602361 0.500000
O O9 0.709769 0.622825 0.347903
O O10 0.891551 0.553604 0.320916
O O11 0.000000 0.118119 0.750000
#
# Coordination Sequence:
#
# PCOD9528388 Si02
#       5
#    16  16  16  16   8
#     4  10  23  42  63  93 129 169 216 269 325 383
#     4  10  23  40  63  96 132 168 210 264 328 394
#     4  10  23  43  66  96 132 170 214 269 327 384
#     4  11  25  39  65  94 130 171 218 262 319 390
#     4  10  22  39  69  96 126 172 215 269 320 394
#
# _framework density 22.385282
#
# number of rings (size 3 to 8) (size 9 to 14) (size 15 to 20)
#    0.000    1.778    0.000    2.000    9.333    3.556 
#    0.000   12.222    0.000   10.667    0.000    0.000 
#    0.000    0.000    0.000    0.000    0.000    0.000 
#
# Total GULP energy -201057.146809 kJ/mol
# GULP energy per Si atom -5584.920745 kJ/mol
# Density = 2.233433 g / cm^3
# Si number density = 22.385282 Si / 1000 Ang^3
#
#
#
# Elastic Constant Matrix: (Units=GPa)
#
#
# Indices 1 2 3 4 5 6 
#
# 1 56.6750 -16.7041 2.9817 0.0001 0.0000 0.0000
# 2 -16.7041 79.1322 51.5152 0.0000 0.0000 0.0000
# 3 2.9817 51.5152 165.8987 0.0001 0.0000 -0.0001
# 4 0.0001 0.0000 0.0001 37.2506 0.0000 -0.0001
# 5 0.0000 0.0000 0.0000 0.0000 32.9069 0.0000
# 6 0.0000 0.0000 -0.0001 -0.0001 0.0000 9.6070
#
#
#
# Elastic Compliance Matrix: (Units=1/GPa)
#
#
# Indices 1 2 3 4 5 6 
#
# 1 0.019343 0.005401 -0.002025 0.000000 0.000000 0.000000
# 2 0.005401 0.017347 -0.005484 0.000000 0.000000 0.000000
# 3 -0.002025 -0.005484 0.007767 0.000000 0.000000 0.000000
# 4 0.000000 0.000000 0.000000 0.026845 0.000000 0.000000
# 5 0.000000 0.000000 0.000000 0.000000 0.030389 0.000000
# 6 0.000000 0.000000 0.000000 0.000000 0.000000 0.104091
#
#
# Mechanical properties :
#
#
# Convention : Reuss Voigt Hill
#
# Bulk Modulus (GPa) = 24.84937 41.92128 33.38532
# Shear Modulus (GPa) = 22.38032 33.54711 27.96371
#
# Velocity S-wave (km/s) = 3.16536 3.87541 3.53824
# Velocity P-wave (km/s) = 4.94815 6.22839 5.62481
#
# Compressibility (1/GPa) = 0.04024248
#
# Stress axis : x y z
#
# Youngs Moduli (GPa) = 51.69847 57.64626 128.74999
#
# Poissons Ratio (x) = -0.31137 0.26070
# Poissons Ratio (y) = -0.27924 0.70603
# Poissons Ratio (z) = 0.10468 0.31612
#
# Static dielectric constant tensor:
#      x y z
#    x 1.878330 0.000000 0.000000 
#    y 0.000000 1.836240 0.000000 
#    z 0.000000 0.000000 1.828880 
# 
# From -- ./inp_files/21471.got.cif
#   From: 2010.05.17/outbox.cif.g08.bks.cpg/sg72_11_cif.got.tgz:21471.got - 2010.06.03 17:03:01.
