data_PCOD9528326
_publ_section_title
;
Structure prediction by ZEFSAII (Michael W. Deem and Ramdas Pophale) SiO2 
 PCOD9528326
Probable space group: I B A M
;
_chemical_formula_sum "Si O2"
_cell_formula_units_Z 60
_cell_length_a 8.546393
_cell_length_b 12.674719
_cell_length_c 25.185433
_cell_angle_alpha 90.000000
_cell_angle_beta 90.000000
_cell_angle_gamma 90.000000
_cell_volume 2728.164926
_symmetry_space_group_name_H-M "I B A M"
_symmetry_group_IT_number 72
_symmetry_cell_setting 'orthorhombic'
loop_
_space_group_symop_operation_xyz
x,y,z
-x,-y,z
x,-y,1/2-z
-x,y,1/2-z
-x,-y,-z
x,y,-z
-x,y,1/2+z
x,-y,1/2+z
1/2+x,1/2+y,1/2+z
1/2-x,1/2-y,1/2+z
1/2+x,1/2-y,-z
1/2-x,1/2+y,-z
1/2-x,1/2-y,1/2-z
1/2+x,1/2+y,1/2-z
1/2-x,1/2+y,z
1/2+x,1/2-y,z
loop_
_atom_site_type_symbol
_atom_site_label
_atom_site_fract_x
_atom_site_fract_y
_atom_site_fract_z
Si Si1 0.612941 0.293454 0.888283
Si Si2 0.500000 0.000000 0.250000
Si Si3 0.533494 0.815818 0.500000
Si Si4 0.935097 0.608315 0.648944
Si Si5 0.500000 0.500000 0.090178
Si Si6 0.742811 0.024002 0.500000
O O1 0.570756 0.252503 0.947734
O O2 0.786718 0.336591 0.877783
O O3 0.572960 0.193317 0.852375
O O4 0.498142 0.392347 0.877353
O O5 0.401498 0.070359 0.208808
O O6 0.361765 0.869974 0.500000
O O7 0.641604 0.918427 0.500000
O O8 0.000000 0.500000 0.621598
O O9 0.353187 0.514635 0.051255
#
# Coordination Sequence:
#
# PCOD9528326 Si02
#       6
#    16   4   8  16   8   8
#     4  12  25  42  71 103 151 195 247 305 372 450
#     4   8  24  52  76 110 140 184 260 330 394 438
#     4  11  24  39  65 101 140 203 242 292 357 437
#     4  10  26  48  74 106 142 189 254 317 380 449
#     4  11  24  38  58 101 138 192 246 291 348 435
#     4  10  22  38  60  87 145 191 251 293 337 413
#
# _framework density 21.992805000000001
#
# number of rings (size 3 to 8) (size 9 to 14) (size 15 to 20)
#    0.800    0.533    0.000    4.800   11.200    4.267 
#    0.000    0.667    0.000    1.600    0.000    0.000 
#    0.000    0.000    0.000    0.000    0.000    0.000 
#
# Total GULP energy -167553.806069 kJ/mol
# GULP energy per Si atom -5585.126869 kJ/mol
# Density = 2.194275 g / cm^3
# Si number density = 21.992805 Si / 1000 Ang^3
#
#
#
# Elastic Constant Matrix: (Units=GPa)
#
#
# Indices 1 2 3 4 5 6 
#
# 1 134.5603 70.8556 25.5810 0.0000 0.0000 0.0000
# 2 70.8556 190.5781 30.3436 0.0000 0.0000 0.0000
# 3 25.5810 30.3436 75.8489 0.0000 0.0000 0.0000
# 4 0.0000 0.0000 0.0000 34.6507 0.0000 0.0000
# 5 0.0000 0.0000 0.0000 0.0000 15.2691 0.0000
# 6 0.0000 0.0000 0.0000 0.0000 0.0000 43.5802
#
#
#
# Elastic Compliance Matrix: (Units=1/GPa)
#
#
# Indices 1 2 3 4 5 6 
#
# 1 0.009493 -0.003225 -0.001911 0.000000 0.000000 0.000000
# 2 -0.003225 0.006700 -0.001593 0.000000 0.000000 0.000000
# 3 -0.001911 -0.001593 0.014466 0.000000 0.000000 0.000000
# 4 0.000000 0.000000 0.000000 0.028859 0.000000 0.000000
# 5 0.000000 0.000000 0.000000 0.000000 0.065492 0.000000
# 6 0.000000 0.000000 0.000000 0.000000 0.000000 0.022946
#
#
# Mechanical properties :
#
#
# Convention : Reuss Voigt Hill
#
# Bulk Modulus (GPa) = 58.13761 72.72751 65.43256
# Shear Modulus (GPa) = 29.91355 36.98048 33.44702
#
# Velocity S-wave (km/s) = 3.69202 4.10504 3.90400
# Velocity P-wave (km/s) = 6.68333 7.45714 7.08082
#
# Compressibility (1/GPa) = 0.01720057
#
# Stress axis : x y z
#
# Youngs Moduli (GPa) = 105.33750 149.25679 69.12811
#
# Poissons Ratio (x) = 0.48138 0.13214
# Poissons Ratio (y) = 0.33973 0.11009
# Poissons Ratio (z) = 0.20135 0.23770
#
# Static dielectric constant tensor:
#      x y z
#    x 1.857730 0.000000 0.000000 
#    y 0.000000 1.887280 0.000000 
#    z 0.000000 0.000000 1.842010 
# 
# From -- ./inp_files/50570.got.cif
#   From: 2010.05.17/outbox.cif.g08.bks.cpg/sg72_26_cif.got.tgz:50570.got - 2010.06.03 17:03:01.
