data_PCOD9528484
_publ_section_title
;
Structure prediction by ZEFSAII (Michael W. Deem and Ramdas Pophale) SiO2 
 PCOD9528484
Probable space group: I B A M
;
_chemical_formula_sum "Si O2"
_cell_formula_units_Z 48
_cell_length_a 7.721490
_cell_length_b 16.678361
_cell_length_c 17.040187
_cell_angle_alpha 90.000000
_cell_angle_beta 90.000000
_cell_angle_gamma 90.000000
_cell_volume 2194.465915
_symmetry_space_group_name_H-M "I B A M"
_symmetry_group_IT_number 72
_symmetry_cell_setting 'orthorhombic'
loop_
_space_group_symop_operation_xyz
x,y,z
-x,-y,z
x,-y,1/2-z
-x,y,1/2-z
-x,-y,-z
x,y,-z
-x,y,1/2+z
x,-y,1/2+z
1/2+x,1/2+y,1/2+z
1/2-x,1/2-y,1/2+z
1/2+x,1/2-y,-z
1/2-x,1/2+y,-z
1/2-x,1/2-y,1/2-z
1/2+x,1/2+y,1/2-z
1/2-x,1/2+y,z
1/2+x,1/2-y,z
loop_
_atom_site_type_symbol
_atom_site_label
_atom_site_fract_x
_atom_site_fract_y
_atom_site_fract_z
Si Si1 0.381997 0.876816 0.000000
Si Si2 0.753929 0.940040 0.000000
Si Si3 0.697978 0.651028 0.837913
Si Si4 0.500000 0.775296 0.250000
Si Si5 0.000000 0.000000 0.370228
O O1 0.292682 0.842512 0.078161
O O2 0.592364 0.878985 0.000000
O O3 0.326290 0.970452 0.000000
O O4 0.881263 0.942073 0.925248
O O5 0.550772 0.716968 0.821845
O O6 0.839323 0.670244 0.772217
O O7 0.622998 0.562231 0.827206
#
# Coordination Sequence:
#
# PCOD9528484 Si02
#       5
#     8   8  16   8   8
#     4   9  18  36  63  90 116 159 208 251 300 359
#     4   8  16  32  59  96 124 140 198 278 304 327
#     4  10  22  41  63  87 124 165 205 252 305 362
#     4  10  24  43  58  89 136 164 192 254 314 362
#     4   9  18  37  64  92 120 160 208 252 300 364
#
# _framework density 21.873201999999999
#
# number of rings (size 3 to 8) (size 9 to 14) (size 15 to 20)
#    0.000    2.667    0.000    1.000    0.000    7.333 
#    0.000   10.000    0.000    0.000    0.000    0.000 
#    0.000    1.333    0.000    0.000    0.000    0.000 
#
# Total GULP energy -133949.741188 kJ/mol
# GULP energy per Si atom -5581.239216 kJ/mol
# Density = 2.182342 g / cm^3
# Si number density = 21.873202 Si / 1000 Ang^3
#
#
#
# Elastic Constant Matrix: (Units=GPa)
#
#
# Indices 1 2 3 4 5 6 
#
# 1 119.4818 57.1112 32.5803 0.0000 0.0000 0.0000
# 2 57.1112 98.4892 51.4850 0.0000 0.0000 0.0000
# 3 32.5803 51.4850 73.6660 0.0000 0.0000 0.0000
# 4 0.0000 0.0000 0.0000 12.6850 0.0000 0.0000
# 5 0.0000 0.0000 0.0000 0.0000 2.2259 0.0000
# 6 0.0000 0.0000 0.0000 0.0000 0.0000 34.1429
#
#
#
# Elastic Compliance Matrix: (Units=1/GPa)
#
#
# Indices 1 2 3 4 5 6 
#
# 1 0.011600 -0.006373 -0.000676 0.000000 0.000000 0.000000
# 2 -0.006373 0.019500 -0.010810 0.000000 0.000000 0.000000
# 3 -0.000676 -0.010810 0.021429 0.000000 0.000000 0.000000
# 4 0.000000 0.000000 0.000000 0.078834 0.000000 0.000000
# 5 0.000000 0.000000 0.000000 0.000000 0.449263 0.000000
# 6 0.000000 0.000000 0.000000 0.000000 0.000000 0.029289
#
#
# Mechanical properties :
#
#
# Convention : Reuss Voigt Hill
#
# Bulk Modulus (GPa) = 59.48650 63.77665 61.63158
# Shear Modulus (GPa) = 7.67771 19.84145 13.75958
#
# Velocity S-wave (km/s) = 1.87556 3.01510 2.51083
# Velocity P-wave (km/s) = 5.65203 6.42976 6.05340
#
# Compressibility (1/GPa) = 0.01681054
#
# Stress axis : x y z
#
# Youngs Moduli (GPa) = 86.20576 51.28286 46.66639
#
# Poissons Ratio (x) = 0.32683 0.03156
# Poissons Ratio (y) = 0.54940 0.50445
# Poissons Ratio (z) = 0.05830 0.55435
#
# Static dielectric constant tensor:
#      x y z
#    x 1.860190 0.000000 0.000000 
#    y 0.000000 1.751470 0.000000 
#    z 0.000000 0.000000 1.845350 
# 
# From -- ./inp_files/27345.got.cif
#   From: 2010.05.17/outbox.cif.g08.bks.cpg/sg72_14_cif.got.tgz:27345.got - 2010.06.03 17:03:01.
