data_PCOD9528122
_publ_section_title
;
Structure prediction by ZEFSAII (Michael W. Deem and Ramdas Pophale) SiO2 
 PCOD9528122
Probable space group: I B A M
;
_chemical_formula_sum "Si O2"
_cell_formula_units_Z 64
_cell_length_a 12.156142
_cell_length_b 14.706900
_cell_length_c 15.799694
_cell_angle_alpha 90.000000
_cell_angle_beta 90.000000
_cell_angle_gamma 90.000000
_cell_volume 2824.656097
_symmetry_space_group_name_H-M "I B A M"
_symmetry_group_IT_number 72
_symmetry_cell_setting 'orthorhombic'
loop_
_space_group_symop_operation_xyz
x,y,z
-x,-y,z
x,-y,1/2-z
-x,y,1/2-z
-x,-y,-z
x,y,-z
-x,y,1/2+z
x,-y,1/2+z
1/2+x,1/2+y,1/2+z
1/2-x,1/2-y,1/2+z
1/2+x,1/2-y,-z
1/2-x,1/2+y,-z
1/2-x,1/2-y,1/2-z
1/2+x,1/2+y,1/2-z
1/2-x,1/2+y,z
1/2+x,1/2-y,z
loop_
_atom_site_type_symbol
_atom_site_label
_atom_site_fract_x
_atom_site_fract_y
_atom_site_fract_z
Si Si1 0.745316 0.353184 0.284336
Si Si2 0.547914 0.100669 0.898318
Si Si3 0.570789 0.276963 0.405946
Si Si4 0.066643 0.093220 0.830247
O O1 0.750000 0.250000 0.250000
O O2 0.853819 0.387649 0.330935
O O3 0.658721 0.340366 0.360603
O O4 0.689422 0.410703 0.207147
O O5 0.457781 0.177057 0.872537
O O6 0.500000 0.000000 0.893191
O O7 0.575509 0.116826 0.000000
O O8 0.610437 0.263799 0.500000
O O9 0.455974 0.333643 0.401864
O O10 0.000000 0.134726 0.750000
O O11 0.000000 0.000000 0.847518
#
# Coordination Sequence:
#
# PCOD9528122 Si02
#       4
#    16  16  16  16
#     4  11  21  40  68  92 129 177 223 273 335 396
#     4  10  22  43  67  99 141 178 222 273 331 406
#     4  10  21  40  64  93 132 177 220 272 333 398
#     4   9  19  38  63  93 130 164 213 278 326 389
#
# _framework density 22.657624999999999
#
# number of rings (size 3 to 8) (size 9 to 14) (size 15 to 20)
#    0.000    2.000    2.500    0.750    0.000    0.500 
#   18.000    1.250    0.000    2.250    0.000    0.000 
#    0.000    1.000    0.000    0.000    0.000    0.000 
#
# Total GULP energy -178167.686411 kJ/mol
# GULP energy per Si atom -5567.740200 kJ/mol
# Density = 2.260606 g / cm^3
# Si number density = 22.657625 Si / 1000 Ang^3
#
#
#
# Elastic Constant Matrix: (Units=GPa)
#
#
# Indices 1 2 3 4 5 6 
#
# 1 52.3778 15.8894 18.6591 0.0000 0.0000 0.0000
# 2 15.8894 124.2518 16.2632 0.0000 0.0000 0.0000
# 3 18.6591 16.2632 34.8869 0.0000 0.0000 0.0000
# 4 0.0000 0.0000 0.0000 30.3995 0.0000 0.0000
# 5 0.0000 0.0000 0.0000 0.0000 21.9952 0.0000
# 6 0.0000 0.0000 0.0000 0.0000 0.0000 29.3893
#
#
#
# Elastic Compliance Matrix: (Units=1/GPa)
#
#
# Indices 1 2 3 4 5 6 
#
# 1 0.023835 -0.001469 -0.012063 0.000000 0.000000 0.000000
# 2 -0.001469 0.008662 -0.003252 0.000000 0.000000 0.000000
# 3 -0.012063 -0.003252 0.036632 0.000000 0.000000 0.000000
# 4 0.000000 0.000000 0.000000 0.032895 0.000000 0.000000
# 5 0.000000 0.000000 0.000000 0.000000 0.045464 0.000000
# 6 0.000000 0.000000 0.000000 0.000000 0.000000 0.034026
#
#
# Mechanical properties :
#
#
# Convention : Reuss Voigt Hill
#
# Bulk Modulus (GPa) = 28.12145 34.79331 31.45738
# Shear Modulus (GPa) = 22.03256 27.07045 24.55150
#
# Velocity S-wave (km/s) = 3.12174 3.46028 3.29536
# Velocity P-wave (km/s) = 5.04302 5.59948 5.32852
#
# Compressibility (1/GPa) = 0.03556004
#
# Stress axis : x y z
#
# Youngs Moduli (GPa) = 41.95482 115.45072 27.29849
#
# Poissons Ratio (x) = 0.16961 0.32931
# Poissons Ratio (y) = 0.06164 0.08878
# Poissons Ratio (z) = 0.50611 0.37545
#
# Static dielectric constant tensor:
#      x y z
#    x 1.981200 0.000000 0.000000 
#    y 0.000000 1.880110 0.000000 
#    z 0.000000 0.000000 1.937960 
# 
# From -- ./inp_files/28775.got.cif
#   From: 2010.05.17/outbox.cif.g08.bks.cpg/sg72_15_cif.got.tgz:28775.got - 2010.06.03 17:03:01.
