data_PCOD9528171
_publ_section_title
;
Structure prediction by ZEFSAII (Michael W. Deem and Ramdas Pophale) SiO2 
 PCOD9528171
Probable space group: I B A M
;
_chemical_formula_sum "Si O2"
_cell_formula_units_Z 52
_cell_length_a 22.148834
_cell_length_b 7.439936
_cell_length_c 18.092587
_cell_angle_alpha 90.000000
_cell_angle_beta 90.000000
_cell_angle_gamma 90.000000
_cell_volume 2981.403367
_symmetry_space_group_name_H-M "I B A M"
_symmetry_group_IT_number 72
_symmetry_cell_setting 'orthorhombic'
loop_
_space_group_symop_operation_xyz
x,y,z
-x,-y,z
x,-y,1/2-z
-x,y,1/2-z
-x,-y,-z
x,y,-z
-x,y,1/2+z
x,-y,1/2+z
1/2+x,1/2+y,1/2+z
1/2-x,1/2-y,1/2+z
1/2+x,1/2-y,-z
1/2-x,1/2+y,-z
1/2-x,1/2-y,1/2-z
1/2+x,1/2+y,1/2-z
1/2-x,1/2+y,z
1/2+x,1/2-y,z
loop_
_atom_site_type_symbol
_atom_site_label
_atom_site_fract_x
_atom_site_fract_y
_atom_site_fract_z
Si Si1 0.116154 0.602367 0.177296
Si Si2 0.500000 0.000000 0.750000
Si Si3 0.195549 0.045623 0.335072
Si Si4 0.181274 0.676623 0.412465
O O1 0.142692 0.500000 0.250000
O O2 0.148780 0.790006 0.165247
O O3 0.130872 0.468140 0.110650
O O4 0.045700 0.613848 0.198950
O O5 0.255640 0.104428 0.378563
O O6 0.210003 0.000000 0.250000
O O7 0.169798 0.867997 0.374061
O O8 0.186354 0.695324 0.500000
#
# Coordination Sequence:
#
# PCOD9528171 Si02
#       4
#    16   4  16  16
#     4  10  21  41  64  85 117 158 204 251 291 350
#     4   8  20  44  64  88 104 162 222 246 278 348
#     4  12  21  36  60  90 124 159 197 247 299 365
#     4  12  24  35  56  95 130 155 189 243 312 368
#
# _framework density 17.44145
#
# number of rings (size 3 to 8) (size 9 to 14) (size 15 to 20)
#    0.923    0.000    6.154    2.769    0.000    1.231 
#    0.000    7.692    0.000    1.846    0.000    0.000 
#    0.000    0.000    0.000    0.000    0.000    0.000 
#
# Total GULP energy -145039.617282 kJ/mol
# GULP energy per Si atom -5578.446819 kJ/mol
# Density = 1.740175 g / cm^3
# Si number density = 17.441450 Si / 1000 Ang^3
#
#
#
# Elastic Constant Matrix: (Units=GPa)
#
#
# Indices 1 2 3 4 5 6 
#
# 1 106.9058 43.2237 29.8002 0.0000 0.0000 0.0000
# 2 43.2237 126.9954 49.9859 0.0000 0.0000 0.0000
# 3 29.8002 49.9859 149.5674 0.0000 0.0000 0.0000
# 4 0.0000 0.0000 0.0000 20.0182 0.0000 0.0000
# 5 0.0000 0.0000 0.0000 0.0000 6.4885 0.0000
# 6 0.0000 0.0000 0.0000 0.0000 0.0000 9.7063
#
#
#
# Elastic Compliance Matrix: (Units=1/GPa)
#
#
# Indices 1 2 3 4 5 6 
#
# 1 0.010997 -0.003317 -0.001083 0.000000 0.000000 0.000000
# 2 -0.003317 0.010067 -0.002704 0.000000 0.000000 0.000000
# 3 -0.001083 -0.002704 0.007805 0.000000 0.000000 0.000000
# 4 0.000000 0.000000 0.000000 0.049955 0.000000 0.000000
# 5 0.000000 0.000000 0.000000 0.000000 0.154118 0.000000
# 6 0.000000 0.000000 0.000000 0.000000 0.000000 0.103025
#
#
# Mechanical properties :
#
#
# Convention : Reuss Voigt Hill
#
# Bulk Modulus (GPa) = 68.19712 69.94314 69.07013
# Shear Modulus (GPa) = 14.08206 24.60654 19.34430
#
# Velocity S-wave (km/s) = 2.84454 3.76015 3.33393
# Velocity P-wave (km/s) = 7.06923 7.68377 7.38290
#
# Compressibility (1/GPa) = 0.01466338
#
# Stress axis : x y z
#
# Youngs Moduli (GPa) = 90.93553 99.33092 128.11927
#
# Poissons Ratio (x) = 0.32945 0.13870
# Poissons Ratio (y) = 0.30161 0.34640
# Poissons Ratio (z) = 0.09844 0.26856
#
# Static dielectric constant tensor:
#      x y z
#    x 1.595790 0.000000 0.000000 
#    y 0.000000 1.596750 0.000000 
#    z 0.000000 0.000000 1.595680 
# 
# From -- ./inp_files/33604.got.cif
#   From: 2010.05.17/outbox.cif.g08.bks.cpg/sg72_17_cif.got.tgz:33604.got - 2010.06.03 17:03:01.
