data_PCOD9528859
_publ_section_title
;
Structure prediction by ZEFSAII (Michael W. Deem and Ramdas Pophale) SiO2 
 PCOD9528859
Probable space group: I B A M
;
_chemical_formula_sum "Si O2"
_cell_formula_units_Z 72
_cell_length_a 7.134611
_cell_length_b 14.073079
_cell_length_c 28.778041
_cell_angle_alpha 90.000000
_cell_angle_beta 90.000000
_cell_angle_gamma 90.000000
_cell_volume 2889.486380
_symmetry_space_group_name_H-M "I B A M"
_symmetry_group_IT_number 72
_symmetry_cell_setting 'orthorhombic'
loop_
_space_group_symop_operation_xyz
x,y,z
-x,-y,z
x,-y,1/2-z
-x,y,1/2-z
-x,-y,-z
x,y,-z
-x,y,1/2+z
x,-y,1/2+z
1/2+x,1/2+y,1/2+z
1/2-x,1/2-y,1/2+z
1/2+x,1/2-y,-z
1/2-x,1/2+y,-z
1/2-x,1/2-y,1/2-z
1/2+x,1/2+y,1/2-z
1/2-x,1/2+y,z
1/2+x,1/2-y,z
loop_
_atom_site_type_symbol
_atom_site_label
_atom_site_fract_x
_atom_site_fract_y
_atom_site_fract_z
Si Si1 0.227861 0.429089 0.100487
Si Si2 0.000000 0.187596 0.250000
Si Si3 0.339101 0.646967 0.898125
Si Si4 0.276632 0.076283 0.500000
Si Si5 0.777888 0.690184 0.176864
Si Si6 0.649563 0.357045 0.000000
O O1 0.435579 0.378091 0.104760
O O2 0.254816 0.541246 0.103985
O O3 0.124882 0.387438 0.144766
O O4 0.138675 0.404391 0.050475
O O5 0.890674 0.259610 0.283014
O O6 0.879794 0.137661 0.209275
O O7 0.263386 0.720283 0.859799
O O8 0.301832 0.686813 0.950278
O O9 0.073777 0.125816 0.500000
O O10 0.234671 0.963405 0.500000
#
# Coordination Sequence:
#
# PCOD9528859 Si02
#       6
#    16   8  16   8  16   8
#     4   9  17  32  56  82 108 142 176 209 258 323
#     4  10  24  38  54  74 110 136 180 236 280 284
#     4   9  17  32  56  82 108 142 176 209 258 323
#     4   7  12  25  48  81 112 133 168 213 247 304
#     4  11  20  39  56  78 104 143 176 231 264 318
#     4   7  12  25  48  81 112 133 168 213 247 304
#
# _framework density 24.917923999999999
#
# number of rings (size 3 to 8) (size 9 to 14) (size 15 to 20)
#    0.000    2.889    2.222    2.667    0.000    0.889 
#    0.000    7.778    0.000    0.000    0.000    4.667 
#    0.000    0.000    0.000    0.000    0.000    0.000 
#
# Total GULP energy -200441.437556 kJ/mol
# GULP energy per Si atom -5567.817710 kJ/mol
# Density = 2.486121 g / cm^3
# Si number density = 24.917924 Si / 1000 Ang^3
#
#
#
# Elastic Constant Matrix: (Units=GPa)
#
#
# Indices 1 2 3 4 5 6 
#
# 1 53.2273 15.0592 35.6329 0.0000 0.0000 0.0000
# 2 15.0592 118.7091 57.4081 0.0000 0.0000 0.0000
# 3 35.6329 57.4081 277.1082 0.0000 0.0000 0.0000
# 4 0.0000 0.0000 0.0000 104.2128 0.0000 0.0000
# 5 0.0000 0.0000 0.0000 0.0000 9.9112 0.0000
# 6 0.0000 0.0000 0.0000 0.0000 0.0000 -23.8575
#
#
#
# Elastic Compliance Matrix: (Units=1/GPa)
#
#
# Indices 1 2 3 4 5 6 
#
# 1 0.020793 -0.001494 -0.002364 0.000000 0.000000 0.000000
# 2 -0.001494 0.009469 -0.001770 0.000000 0.000000 0.000000
# 3 -0.002364 -0.001770 0.004279 0.000000 0.000000 0.000000
# 4 0.000000 0.000000 0.000000 0.009596 0.000000 0.000000
# 5 0.000000 0.000000 0.000000 0.000000 0.100896 0.000000
# 6 0.000000 0.000000 0.000000 0.000000 0.000000 -0.041916
#
#
# Mechanical properties :
#
#
# Convention : Reuss Voigt Hill
#
# Bulk Modulus (GPa) = 42.94581 73.91609 58.43095
# Shear Modulus (GPa) = 40.93815 40.78293 40.86054
#
# Velocity S-wave (km/s) = 4.05769 4.04999 4.05384
# Velocity P-wave (km/s) = 6.26302 7.18318 6.73883
#
# Compressibility (1/GPa) = 0.02328516
#
# Stress axis : x y z
#
# Youngs Moduli (GPa) = 48.09352 105.60428 233.68330
#
# Poissons Ratio (x) = 0.15782 0.55245
# Poissons Ratio (y) = 0.07187 0.41352
# Poissons Ratio (z) = 0.11370 0.18687
#
# Static dielectric constant tensor:
#      x y z
#    x 2.284490 0.000000 0.000000 
#    y 0.000000 1.986010 0.000000 
#    z 0.000000 0.000000 2.166670 
# 
# From -- ./inp_files/42121.got.cif
#   From: 2010.05.17/outbox.cif.g08.bks.cpg/sg72_22_cif.got.tgz:42121.got - 2010.06.03 17:03:01.
