data_PCOD9528398
_publ_section_title
;
Structure prediction by ZEFSAII (Michael W. Deem and Ramdas Pophale) SiO2 
 PCOD9528398
Probable space group: I B A M
;
_chemical_formula_sum "Si O2"
_cell_formula_units_Z 64
_cell_length_a 14.495989
_cell_length_b 11.969564
_cell_length_c 18.436199
_cell_angle_alpha 90.000000
_cell_angle_beta 90.000000
_cell_angle_gamma 90.000000
_cell_volume 3198.877205
_symmetry_space_group_name_H-M "I B A M"
_symmetry_group_IT_number 72
_symmetry_cell_setting 'orthorhombic'
loop_
_space_group_symop_operation_xyz
x,y,z
-x,-y,z
x,-y,1/2-z
-x,y,1/2-z
-x,-y,-z
x,y,-z
-x,y,1/2+z
x,-y,1/2+z
1/2+x,1/2+y,1/2+z
1/2-x,1/2-y,1/2+z
1/2+x,1/2-y,-z
1/2-x,1/2+y,-z
1/2-x,1/2-y,1/2-z
1/2+x,1/2+y,1/2-z
1/2-x,1/2+y,z
1/2+x,1/2-y,z
loop_
_atom_site_type_symbol
_atom_site_label
_atom_site_fract_x
_atom_site_fract_y
_atom_site_fract_z
Si Si1 0.106202 0.482235 0.915562
Si Si2 0.072300 0.104390 0.582009
Si Si3 0.216447 0.968317 0.666098
Si Si4 0.895500 0.779164 0.914575
O O1 0.181642 0.541328 0.866425
O O2 0.127468 0.350259 0.910652
O O3 0.000000 0.500000 0.894592
O O4 0.115698 0.517083 0.000000
O O5 0.104643 0.120790 0.500000
O O6 0.158111 0.069190 0.629575
O O7 0.004663 0.205163 0.602445
O O8 0.000000 0.000000 0.583604
O O9 0.218430 0.000000 0.750000
O O10 0.161996 0.857307 0.639608
O O11 0.883265 0.815381 0.000000
#
# Coordination Sequence:
#
# PCOD9528398 Si02
#       4
#    16  16  16  16
#     4  10  22  40  60  82 110 149 199 245 283 332
#     4   8  15  31  54  78 104 137 183 232 272 321
#     4  11  22  35  55  86 119 150 185 228 286 352
#     4   9  19  37  61  86 112 147 192 241 287 330
#
# _framework density 20.007020000000001
#
# number of rings (size 3 to 8) (size 9 to 14) (size 15 to 20)
#    0.000    2.500    0.000    3.750    0.000    8.000 
#    0.000    7.500    0.000    0.000    0.000    0.000 
#    0.000    0.000    0.000    0.000    0.000    0.000 
#
# Total GULP energy -178495.577185 kJ/mol
# GULP energy per Si atom -5577.986787 kJ/mol
# Density = 1.996148 g / cm^3
# Si number density = 20.007020 Si / 1000 Ang^3
#
#
#
# Elastic Constant Matrix: (Units=GPa)
#
#
# Indices 1 2 3 4 5 6 
#
# 1 135.3416 11.4502 89.2759 0.0000 0.0000 0.0000
# 2 11.4502 28.6032 17.2985 0.0000 0.0000 0.0000
# 3 89.2759 17.2985 106.0540 0.0000 0.0000 0.0000
# 4 0.0000 0.0000 0.0000 6.7065 0.0000 0.0000
# 5 0.0000 0.0000 0.0000 0.0000 -103.0516 0.0000
# 6 0.0000 0.0000 0.0000 0.0000 0.0000 19.4370
#
#
#
# Elastic Compliance Matrix: (Units=1/GPa)
#
#
# Indices 1 2 3 4 5 6 
#
# 1 0.016719 0.002018 -0.014403 0.000000 0.000000 0.000000
# 2 0.002018 0.039031 -0.008065 0.000000 0.000000 0.000000
# 3 -0.014403 -0.008065 0.022869 0.000000 0.000000 0.000000
# 4 0.000000 0.000000 0.000000 0.149108 0.000000 0.000000
# 5 0.000000 0.000000 0.000000 0.000000 -0.009704 0.000000
# 6 0.000000 0.000000 0.000000 0.000000 0.000000 0.051448
#
#
# Mechanical properties :
#
#
# Convention : Reuss Voigt Hill
#
# Bulk Modulus (GPa) = 26.51216 56.22754 41.36985
# Shear Modulus (GPa) = 15.48258 -5.25001 5.11629
#
# Velocity S-wave (km/s) = 2.78485 -1.62166 1.60087
# Velocity P-wave (km/s) = 4.86011 4.96574 4.91321
#
# Compressibility (1/GPa) = 0.03771854
#
# Stress axis : x y z
#
# Youngs Moduli (GPa) = 59.81396 25.62071 43.72773
#
# Poissons Ratio (x) = -0.05170 0.62980
# Poissons Ratio (y) = -0.12069 0.35266
# Poissons Ratio (z) = 0.86148 0.20663
#
# Static dielectric constant tensor:
#      x y z
#    x 1.723630 0.000000 0.000000 
#    y 0.000000 1.745810 0.000000 
#    z 0.000000 0.000000 1.679380 
# 
# From -- ./inp_files/21218.got.cif
#   From: 2010.05.17/outbox.cif.g08.bks.cpg/sg72_11_cif.got.tgz:21218.got - 2010.06.03 17:03:01.
