data_PCOD9528762
_publ_section_title
;
Structure prediction by ZEFSAII (Michael W. Deem and Ramdas Pophale) SiO2 
 PCOD9528762
Probable space group: I B A M
;
_chemical_formula_sum "Si O2"
_cell_formula_units_Z 64
_cell_length_a 31.685531
_cell_length_b 5.169785
_cell_length_c 17.767082
_cell_angle_alpha 90.000000
_cell_angle_beta 90.000000
_cell_angle_gamma 90.000000
_cell_volume 2910.379204
_symmetry_space_group_name_H-M "I B A M"
_symmetry_group_IT_number 72
_symmetry_cell_setting 'orthorhombic'
loop_
_space_group_symop_operation_xyz
x,y,z
-x,-y,z
x,-y,1/2-z
-x,y,1/2-z
-x,-y,-z
x,y,-z
-x,y,1/2+z
x,-y,1/2+z
1/2+x,1/2+y,1/2+z
1/2-x,1/2-y,1/2+z
1/2+x,1/2-y,-z
1/2-x,1/2+y,-z
1/2-x,1/2-y,1/2-z
1/2+x,1/2+y,1/2-z
1/2-x,1/2+y,z
1/2+x,1/2-y,z
loop_
_atom_site_type_symbol
_atom_site_label
_atom_site_fract_x
_atom_site_fract_y
_atom_site_fract_z
Si Si1 0.894524 0.653186 0.411734
Si Si2 0.275658 0.892573 0.000000
Si Si3 0.340268 0.656523 0.115609
Si Si4 0.519350 0.249519 0.663714
Si Si5 0.780251 0.000000 0.750000
O O1 0.906945 0.601919 0.500000
O O2 0.874340 0.389091 0.377758
O O3 0.931332 0.735521 0.353051
O O4 0.863443 0.901099 0.415537
O O5 0.304560 0.805969 0.068415
O O6 0.236274 0.693379 0.000000
O O7 0.312702 0.541287 0.182531
O O8 0.500000 0.500000 0.626925
O O9 0.500000 0.249680 0.750000
O O10 0.500000 0.000000 0.626130
O O11 0.750000 0.750000 0.750000
#
# Coordination Sequence:
#
# PCOD9528762 Si02
#       5
#    16   8  16  16   8
#     4  12  24  44  69 100 141 176 229 295 347 414
#     4  12  22  40  68  98 132 176 224 274 332 410
#     4  12  25  44  69 101 137 181 231 281 358 411
#     4  10  23  42  66  96 134 176 233 280 351 419
#     4  12  26  46  66  98 141 182 235 290 344 416
#
# _framework density 21.990261
#
# number of rings (size 3 to 8) (size 9 to 14) (size 15 to 20)
#    0.000    0.500    2.500    6.000    0.000    7.000 
#    0.000    0.000    0.000    0.000    0.000    0.000 
#    0.000    0.000    0.000    0.000    0.000    0.000 
#
# Total GULP energy -178295.611310 kJ/mol
# GULP energy per Si atom -5571.737853 kJ/mol
# Density = 2.194021 g / cm^3
# Si number density = 21.990261 Si / 1000 Ang^3
#
#
#
# Elastic Constant Matrix: (Units=GPa)
#
#
# Indices 1 2 3 4 5 6 
#
# 1 109.8184 40.6591 63.4955 0.0000 0.0000 0.0000
# 2 40.6591 182.9555 12.2176 0.0000 0.0000 0.0000
# 3 63.4955 12.2176 81.0094 0.0000 0.0000 0.0000
# 4 0.0000 0.0000 0.0000 904.1101 0.0000 0.0000
# 5 0.0000 0.0000 0.0000 0.0000 -17.2771 0.0000
# 6 0.0000 0.0000 0.0000 0.0000 0.0000 62.0269
#
#
#
# Elastic Compliance Matrix: (Units=1/GPa)
#
#
# Indices 1 2 3 4 5 6 
#
# 1 0.018276 -0.003137 -0.013852 0.000000 0.000000 0.000000
# 2 -0.003137 0.006060 0.001545 0.000000 0.000000 0.000000
# 3 -0.013852 0.001545 0.022968 0.000000 0.000000 0.000000
# 4 0.000000 0.000000 0.000000 0.001106 0.000000 0.000000
# 5 0.000000 0.000000 0.000000 0.000000 -0.057880 0.000000
# 6 0.000000 0.000000 0.000000 0.000000 0.000000 0.016122
#
#
# Mechanical properties :
#
#
# Convention : Reuss Voigt Hill
#
# Bulk Modulus (GPa) = 60.91424 67.39198 64.15311
# Shear Modulus (GPa) = 116.24529 206.93273 161.58901
#
# Velocity S-wave (km/s) = 7.27853 9.71114 8.58147
# Velocity P-wave (km/s) = 9.91951 12.50818 11.28829
#
# Compressibility (1/GPa) = 0.01641652
#
# Stress axis : x y z
#
# Youngs Moduli (GPa) = 54.71586 165.02400 43.53790
#
# Poissons Ratio (x) = 0.51761 0.60308
# Poissons Ratio (y) = 0.17162 -0.06725
# Poissons Ratio (z) = 0.75792 -0.25489
#
# Static dielectric constant tensor:
#      x y z
#    x 1.822240 0.000000 0.000000 
#    y 0.000000 1.771790 0.000000 
#    z 0.000000 0.000000 1.844210 
# 
# From -- ./inp_files/34136.got.cif
#   From: 2010.05.17/outbox.cif.g08.bks.cpg/sg72_18_cif.got.tgz:34136.got - 2010.06.03 17:03:01.
