data_PCOD9528444
_publ_section_title
;
Structure prediction by ZEFSAII (Michael W. Deem and Ramdas Pophale) SiO2 
 PCOD9528444
Probable space group: I B A M
;
_chemical_formula_sum "Si O2"
_cell_formula_units_Z 96
_cell_length_a 13.284119
_cell_length_b 20.732078
_cell_length_c 15.803625
_cell_angle_alpha 90.000000
_cell_angle_beta 90.000000
_cell_angle_gamma 90.000000
_cell_volume 4352.435134
_symmetry_space_group_name_H-M "I B A M"
_symmetry_group_IT_number 72
_symmetry_cell_setting 'orthorhombic'
loop_
_space_group_symop_operation_xyz
x,y,z
-x,-y,z
x,-y,1/2-z
-x,y,1/2-z
-x,-y,-z
x,y,-z
-x,y,1/2+z
x,-y,1/2+z
1/2+x,1/2+y,1/2+z
1/2-x,1/2-y,1/2+z
1/2+x,1/2-y,-z
1/2-x,1/2+y,-z
1/2-x,1/2-y,1/2-z
1/2+x,1/2+y,1/2-z
1/2-x,1/2+y,z
1/2+x,1/2-y,z
loop_
_atom_site_type_symbol
_atom_site_label
_atom_site_fract_x
_atom_site_fract_y
_atom_site_fract_z
Si Si1 0.401909 0.315891 0.092896
Si Si2 0.066565 0.440934 0.600593
Si Si3 0.738061 0.366511 0.727951
Si Si4 0.274246 0.488820 0.100590
Si Si5 0.431396 0.191160 0.821054
Si Si6 0.439140 0.417786 0.664513
O O1 0.314041 0.319975 0.161007
O O2 0.432913 0.241795 0.103061
O O3 0.487377 0.369679 0.113207
O O4 0.363792 0.329434 0.000000
O O5 0.053029 0.434389 0.500000
O O6 0.183606 0.459703 0.614272
O O7 0.028822 0.376666 0.644536
O O8 0.000000 0.500000 0.631547
O O9 0.746477 0.432251 0.669933
O O10 0.831865 0.332665 0.771943
O O11 0.656151 0.378574 0.800505
O O12 0.383458 0.521896 0.118689
O O13 0.269249 0.470500 0.000000
O O14 0.500000 0.223081 0.750000
O O15 0.500000 0.434304 0.750000
#
# Coordination Sequence:
#
# PCOD9528444 Si02
#       6
#    16  16  16  16  16  16
#     4  11  25  45  65  94 131 176 226 279 337 407
#     4  10  22  40  64  96 132 169 217 276 339 401
#     4  11  23  41  65  96 132 172 225 278 340 405
#     4  11  22  39  65  99 136 176 219 279 347 409
#     4  12  24  42  67  93 130 173 225 275 338 401
#     4  10  22  41  66  97 136 178 230 279 338 406
#
# _framework density 22.056619000000001
#
# number of rings (size 3 to 8) (size 9 to 14) (size 15 to 20)
#    0.000    1.167    1.667    5.000    0.000    6.333 
#    0.000    8.333    0.000    0.000    0.000    0.000 
#    0.000    0.000    0.000    0.000    0.000    0.000 
#
# Total GULP energy -267882.294578 kJ/mol
# GULP energy per Si atom -5580.881137 kJ/mol
# Density = 2.200642 g / cm^3
# Si number density = 22.056619 Si / 1000 Ang^3
#
#
#
# Elastic Constant Matrix: (Units=GPa)
#
#
# Indices 1 2 3 4 5 6 
#
# 1 68.9503 2.6091 8.2211 0.0000 0.0000 0.0000
# 2 2.6091 94.4152 11.8353 0.0001 0.0000 0.0000
# 3 8.2211 11.8353 45.8864 0.0001 0.0000 0.0000
# 4 0.0000 0.0001 0.0001 34.2708 0.0000 0.0000
# 5 0.0000 0.0000 0.0000 0.0000 23.4818 0.0000
# 6 0.0000 0.0000 0.0000 0.0000 0.0000 14.6139
#
#
#
# Elastic Compliance Matrix: (Units=1/GPa)
#
#
# Indices 1 2 3 4 5 6 
#
# 1 0.014820 -0.000079 -0.002635 0.000000 0.000000 0.000000
# 2 -0.000079 0.010946 -0.002809 0.000000 0.000000 0.000000
# 3 -0.002635 -0.002809 0.022990 0.000000 0.000000 0.000000
# 4 0.000000 0.000000 0.000000 0.029179 0.000000 0.000000
# 5 0.000000 0.000000 0.000000 0.000000 0.042586 0.000000
# 6 0.000000 0.000000 0.000000 0.000000 0.000000 0.068428
#
#
# Mechanical properties :
#
#
# Convention : Reuss Voigt Hill
#
# Bulk Modulus (GPa) = 26.51846 28.28697 27.40272
# Shear Modulus (GPa) = 23.52219 26.91239 25.21729
#
# Velocity S-wave (km/s) = 3.26919 3.49685 3.38494
# Velocity P-wave (km/s) = 5.12827 5.39968 5.26572
#
# Compressibility (1/GPa) = 0.03770958
#
# Stress axis : x y z
#
# Youngs Moduli (GPa) = 67.47476 91.35899 43.49806
#
# Poissons Ratio (x) = 0.00724 0.11461
# Poissons Ratio (y) = 0.00535 0.12219
# Poissons Ratio (z) = 0.17778 0.25663
#
# Static dielectric constant tensor:
#      x y z
#    x 1.853610 0.000000 0.000000 
#    y 0.000000 1.890670 0.000000 
#    z 0.000000 0.000000 1.778270 
# 
# From -- ./inp_files/21766.got.cif
#   From: 2010.05.17/outbox.cif.g08.bks.cpg/sg72_11_cif.got.tgz:21766.got - 2010.06.03 17:03:01.
