data_PCOD9528438
_publ_section_title
;
Structure prediction by ZEFSAII (Michael W. Deem and Ramdas Pophale) SiO2 
 PCOD9528438
Probable space group: I B A M
;
_chemical_formula_sum "Si O2"
_cell_formula_units_Z 56
_cell_length_a 10.488645
_cell_length_b 14.117222
_cell_length_c 16.034362
_cell_angle_alpha 90.000000
_cell_angle_beta 90.000000
_cell_angle_gamma 90.000000
_cell_volume 2374.216479
_symmetry_space_group_name_H-M "I B A M"
_symmetry_group_IT_number 72
_symmetry_cell_setting 'orthorhombic'
loop_
_space_group_symop_operation_xyz
x,y,z
-x,-y,z
x,-y,1/2-z
-x,y,1/2-z
-x,-y,-z
x,y,-z
-x,y,1/2+z
x,-y,1/2+z
1/2+x,1/2+y,1/2+z
1/2-x,1/2-y,1/2+z
1/2+x,1/2-y,-z
1/2-x,1/2+y,-z
1/2-x,1/2-y,1/2-z
1/2+x,1/2+y,1/2-z
1/2-x,1/2+y,z
1/2+x,1/2-y,z
loop_
_atom_site_type_symbol
_atom_site_label
_atom_site_fract_x
_atom_site_fract_y
_atom_site_fract_z
Si Si1 0.057749 0.639000 0.657501
Si Si2 0.892386 0.149410 0.678848
Si Si3 0.392945 0.816798 0.500000
Si Si4 0.087358 0.144021 0.000000
Si Si5 0.296184 0.000000 0.250000
O O1 0.131485 0.740287 0.653653
O O2 0.136301 0.542829 0.667392
O O3 0.000000 0.641347 0.750000
O O4 0.955930 0.639081 0.583366
O O5 0.925227 0.098993 0.591367
O O6 0.000000 0.148766 0.750000
O O7 0.779994 0.091075 0.719201
O O8 0.238919 0.821211 0.500000
O O9 0.464683 0.714973 0.500000
#
# Coordination Sequence:
#
# PCOD9528438 Si02
#       5
#    16  16   8   8   8
#     4  10  22  40  64  93 129 173 223 277 332 397
#     4  10  23  43  66  95 135 180 223 276 343 410
#     4  10  22  41  67 100 133 179 226 279 339 403
#     4  10  22  43  70  98 133 177 229 279 339 407
#     4  12  22  38  64  98 136 178 226 278 334 400
#
# _framework density 23.586729999999999
#
# number of rings (size 3 to 8) (size 9 to 14) (size 15 to 20)
#    0.000    1.714    0.000    3.429    0.000   12.571 
#    0.000    7.143    0.000    0.000    0.000    0.000 
#    0.000    0.000    0.000    0.000    0.000    0.000 
#
# Total GULP energy -155909.628107 kJ/mol
# GULP energy per Si atom -5568.201004 kJ/mol
# Density = 2.353305 g / cm^3
# Si number density = 23.586730 Si / 1000 Ang^3
#
#
#
# Elastic Constant Matrix: (Units=GPa)
#
#
# Indices 1 2 3 4 5 6 
#
# 1 100.7118 63.1221 39.3755 0.0000 0.0000 0.0000
# 2 63.1221 102.4263 10.8775 0.0000 0.0000 0.0000
# 3 39.3755 10.8775 184.0194 0.0000 0.0000 0.0000
# 4 0.0000 0.0000 0.0000 -79.2147 0.0000 0.0000
# 5 0.0000 0.0000 0.0000 0.0000 43.2868 0.0000
# 6 0.0000 0.0000 0.0000 0.0000 0.0000 46.3508
#
#
#
# Elastic Compliance Matrix: (Units=1/GPa)
#
#
# Indices 1 2 3 4 5 6 
#
# 1 0.017865 -0.010671 -0.003192 0.000000 0.000000 0.000000
# 2 -0.010671 0.016198 0.001326 0.000000 0.000000 0.000000
# 3 -0.003192 0.001326 0.006039 0.000000 0.000000 0.000000
# 4 0.000000 0.000000 0.000000 -0.012624 0.000000 0.000000
# 5 0.000000 0.000000 0.000000 0.000000 0.023102 0.000000
# 6 0.000000 0.000000 0.000000 0.000000 0.000000 0.021575
#
#
# Mechanical properties :
#
#
# Convention : Reuss Voigt Hill
#
# Bulk Modulus (GPa) = 66.54004 68.21197 67.37600
# Shear Modulus (GPa) = 48.90514 20.33674 34.62094
#
# Velocity S-wave (km/s) = 4.55842 2.93953 3.83536
# Velocity P-wave (km/s) = 7.48182 6.36424 6.94554
#
# Compressibility (1/GPa) = 0.01502854
#
# Stress axis : x y z
#
# Youngs Moduli (GPa) = 55.97417 61.73427 165.59465
#
# Poissons Ratio (x) = 0.65876 0.52857
# Poissons Ratio (y) = 0.59729 -0.21955
# Poissons Ratio (z) = 0.17867 -0.08185
#
# Static dielectric constant tensor:
#      x y z
#    x 1.995990 0.000000 0.000000 
#    y 0.000000 2.015540 0.000000 
#    z 0.000000 0.000000 1.928940 
# 
# From -- ./inp_files/19471.got.cif
#   From: 2010.05.17/outbox.cif.g08.bks.cpg/sg72_10_cif.got.tgz:19471.got - 2010.06.03 17:03:01.
