data_PCOD9528000
_publ_section_title
;
Structure prediction by ZEFSAII (Michael W. Deem and Ramdas Pophale) SiO2 
 PCOD9528000
Probable space group: I B A M
;
_chemical_formula_sum "Si O2"
_cell_formula_units_Z 112
_cell_length_a 24.411773
_cell_length_b 11.223733
_cell_length_c 21.486741
_cell_angle_alpha 90.000000
_cell_angle_beta 90.000000
_cell_angle_gamma 90.000000
_cell_volume 5887.178428
_symmetry_space_group_name_H-M "I B A M"
_symmetry_group_IT_number 72
_symmetry_cell_setting 'orthorhombic'
loop_
_space_group_symop_operation_xyz
x,y,z
-x,-y,z
x,-y,1/2-z
-x,y,1/2-z
-x,-y,-z
x,y,-z
-x,y,1/2+z
x,-y,1/2+z
1/2+x,1/2+y,1/2+z
1/2-x,1/2-y,1/2+z
1/2+x,1/2-y,-z
1/2-x,1/2+y,-z
1/2-x,1/2-y,1/2-z
1/2+x,1/2+y,1/2-z
1/2-x,1/2+y,z
1/2+x,1/2-y,z
loop_
_atom_site_type_symbol
_atom_site_label
_atom_site_fract_x
_atom_site_fract_y
_atom_site_fract_z
Si Si1 0.586327 0.274388 0.857678
Si Si2 0.019174 0.367149 0.389197
Si Si3 0.698373 0.369726 0.574432
Si Si4 0.624862 0.526263 0.821425
Si Si5 0.442694 0.253839 0.774257
Si Si6 0.828885 0.375359 0.573377
Si Si7 0.138174 0.368652 0.428963
O O1 0.532149 0.223316 0.891853
O O2 0.588140 0.414951 0.844034
O O3 0.587809 0.217759 0.788427
O O4 0.639622 0.231448 0.893710
O O5 0.040858 0.354479 0.318421
O O6 0.073920 0.337758 0.427091
O O7 0.000000 0.500000 0.404364
O O8 0.685074 0.390811 0.500000
O O9 0.669961 0.455986 0.624754
O O10 0.763664 0.372744 0.580108
O O11 0.674839 0.240136 0.593773
O O12 0.644727 0.500000 0.750000
O O13 0.589656 0.646679 0.812775
O O14 0.500000 0.308350 0.750000
O O15 0.841864 0.367059 0.500000
O O16 0.851802 0.501261 0.599587
O O17 0.156238 0.383110 0.500000
#
# Coordination Sequence:
#
# PCOD9528000 Si02
#       7
#    16  16  16  16  16  16  16
#     4  10  22  35  57  88 114 152 198 242 299 353
#     4  11  20  36  58  86 120 155 195 246 296 362
#     4  10  22  41  65  87 118 160 206 252 299 357
#     4  10  21  40  61  88 121 160 203 246 301 359
#     4   9  20  37  58  83 117 161 198 242 295 364
#     4  10  22  40  61  87 118 157 202 249 301 362
#     4  10  21  39  61  86 118 158 197 242 306 358
#
# _framework density 19.024393
#
# number of rings (size 3 to 8) (size 9 to 14) (size 15 to 20)
#    0.000    2.000    2.857    0.000    2.000   10.571 
#    0.000    4.286    0.000    1.714    0.000    0.000 
#    0.000    0.000    0.000    0.000    0.000    0.000 
#
# Total GULP energy -311854.156131 kJ/mol
# GULP energy per Si atom -5568.824217 kJ/mol
# Density = 1.898109 g / cm^3
# Si number density = 19.024393 Si / 1000 Ang^3
#
#
#
# Elastic Constant Matrix: (Units=GPa)
#
#
# Indices 1 2 3 4 5 6 
#
# 1 75.7899 21.1198 35.2417 0.0000 0.0000 0.0000
# 2 21.1198 50.6478 19.8410 0.0000 0.0000 0.0000
# 3 35.2417 19.8410 60.2438 0.0000 0.0000 0.0000
# 4 0.0000 0.0000 0.0000 23.9128 0.0000 0.0000
# 5 0.0000 0.0000 0.0000 0.0000 35.8968 0.0000
# 6 0.0000 0.0000 0.0000 0.0000 0.0000 19.7447
#
#
#
# Elastic Compliance Matrix: (Units=1/GPa)
#
#
# Indices 1 2 3 4 5 6 
#
# 1 0.018824 -0.004060 -0.009675 0.000000 0.000000 0.000000
# 2 -0.004060 0.023544 -0.005379 0.000000 0.000000 0.000000
# 3 -0.009675 -0.005379 0.024031 0.000000 0.000000 0.000000
# 4 0.000000 0.000000 0.000000 0.041819 0.000000 0.000000
# 5 0.000000 0.000000 0.000000 0.000000 0.027858 0.000000
# 6 0.000000 0.000000 0.000000 0.000000 0.000000 0.050647
#
#
# Mechanical properties :
#
#
# Convention : Reuss Voigt Hill
#
# Bulk Modulus (GPa) = 35.49692 37.67627 36.58659
# Shear Modulus (GPa) = 21.33645 23.27612 22.30628
#
# Velocity S-wave (km/s) = 3.35256 3.50163 3.42791
# Velocity P-wave (km/s) = 5.80391 6.01629 5.91105
#
# Compressibility (1/GPa) = 0.02817146
#
# Stress axis : x y z
#
# Youngs Moduli (GPa) = 53.12253 42.47299 41.61351
#
# Poissons Ratio (x) = 0.17242 0.40261
# Poissons Ratio (y) = 0.21565 0.22386
# Poissons Ratio (z) = 0.51396 0.22848
#
# Static dielectric constant tensor:
#      x y z
#    x 1.652660 0.000000 0.000000 
#    y 0.000000 1.695710 0.000000 
#    z 0.000000 0.000000 1.702940 
# 
# From -- ./inp_files/40863.got.cif
#   From: 2010.05.17/outbox.cif.g08.bks.cpg/sg72_21_cif.got.tgz:40863.got - 2010.06.03 17:03:01.
