data_PCOD9528161
_publ_section_title
;
Structure prediction by ZEFSAII (Michael W. Deem and Ramdas Pophale) SiO2 
 PCOD9528161
Probable space group: I B A M
;
_chemical_formula_sum "Si O2"
_cell_formula_units_Z 64
_cell_length_a 10.353971
_cell_length_b 13.369498
_cell_length_c 18.626852
_cell_angle_alpha 90.000000
_cell_angle_beta 90.000000
_cell_angle_gamma 90.000000
_cell_volume 2578.466592
_symmetry_space_group_name_H-M "I B A M"
_symmetry_group_IT_number 72
_symmetry_cell_setting 'orthorhombic'
loop_
_space_group_symop_operation_xyz
x,y,z
-x,-y,z
x,-y,1/2-z
-x,y,1/2-z
-x,-y,-z
x,y,-z
-x,y,1/2+z
x,-y,1/2+z
1/2+x,1/2+y,1/2+z
1/2-x,1/2-y,1/2+z
1/2+x,1/2-y,-z
1/2-x,1/2+y,-z
1/2-x,1/2-y,1/2-z
1/2+x,1/2+y,1/2-z
1/2-x,1/2+y,z
1/2+x,1/2-y,z
loop_
_atom_site_type_symbol
_atom_site_label
_atom_site_fract_x
_atom_site_fract_y
_atom_site_fract_z
Si Si1 0.689412 0.959792 0.326144
Si Si2 0.869273 0.211684 0.204230
Si Si3 0.979955 0.299123 0.415448
Si Si4 0.624124 0.572627 0.417685
O O1 0.820390 0.898759 0.310052
O O2 0.595504 0.886718 0.371852
O O3 0.638269 0.000000 0.250000
O O4 0.748685 0.047123 0.373338
O O5 0.750000 0.250000 0.250000
O O6 0.000000 0.217531 0.250000
O O7 0.894411 0.270032 0.130665
O O8 0.997281 0.323291 0.500000
O O9 0.909683 0.190110 0.411741
O O10 0.500000 0.500000 0.401763
O O11 0.654791 0.549884 0.500000
#
# Coordination Sequence:
#
# PCOD9528161 Si02
#       4
#    16  16  16  16
#     4  12  26  42  78 115 166 216 276 337 419 501
#     4  12  25  46  73 111 154 214 274 333 406 488
#     4  11  25  48  80 118 162 213 277 353 421 496
#     4  10  21  40  71 112 155 206 274 340 404 490
#
# _framework density 24.820951999999998
#
# number of rings (size 3 to 8) (size 9 to 14) (size 15 to 20)
#    0.000    0.750    5.000    2.250    0.000    1.000 
#    0.000    2.500    0.000    1.500    0.000    0.000 
#    0.000    0.000    0.000    0.000    0.000    0.000 
#
# Total GULP energy -179040.640086 kJ/mol
# GULP energy per Si atom -5595.020003 kJ/mol
# Density = 2.476446 g / cm^3
# Si number density = 24.820952 Si / 1000 Ang^3
#
#
#
# Elastic Constant Matrix: (Units=GPa)
#
#
# Indices 1 2 3 4 5 6 
#
# 1 133.3319 53.5139 87.8487 0.0000 0.0000 0.0000
# 2 53.5139 120.4053 76.3238 0.0000 0.0000 0.0003
# 3 87.8487 76.3238 204.6769 0.0000 0.0000 0.0002
# 4 0.0000 0.0000 0.0000 49.9208 0.0000 0.0003
# 5 0.0000 0.0000 0.0000 0.0000 21.0366 0.0001
# 6 0.0000 0.0003 0.0002 0.0003 0.0001 1839.9623
#
#
#
# Elastic Compliance Matrix: (Units=1/GPa)
#
#
# Indices 1 2 3 4 5 6 
#
# 1 0.010996 -0.002482 -0.003794 0.000000 0.000000 0.000000
# 2 -0.002482 0.011436 -0.003199 0.000000 0.000000 0.000000
# 3 -0.003794 -0.003199 0.007707 0.000000 0.000000 0.000000
# 4 0.000000 0.000000 0.000000 0.020032 0.000000 0.000000
# 5 0.000000 0.000000 0.000000 0.000000 0.047536 0.000000
# 6 0.000000 0.000000 0.000000 0.000000 0.000000 0.000543
#
#
# Mechanical properties :
#
#
# Convention : Reuss Voigt Hill
#
# Bulk Modulus (GPa) = 89.37516 99.30966 94.34241
# Shear Modulus (GPa) = 41.34568 398.23246 219.78907
#
# Velocity S-wave (km/s) = 4.08580 12.68031 9.42030
# Velocity P-wave (km/s) = 7.63835 15.95257 12.50658
#
# Compressibility (1/GPa) = 0.01118879
#
# Stress axis : x y z
#
# Youngs Moduli (GPa) = 90.94141 87.43948 129.74971
#
# Poissons Ratio (x) = 0.21704 0.49227
# Poissons Ratio (y) = 0.22574 0.41510
# Poissons Ratio (z) = 0.34503 0.27974
#
# Static dielectric constant tensor:
#      x y z
#    x 2.013990 0.000000 0.000000 
#    y 0.000000 2.412800 0.000000 
#    z 0.000000 0.000000 2.133230 
# 
# From -- ./inp_files/28804.got.cif
#   From: 2010.05.17/outbox.cif.g08.bks.cpg/sg72_15_cif.got.tgz:28804.got - 2010.06.03 17:03:01.
