data_PCOD9528626
_publ_section_title
;
Structure prediction by ZEFSAII (Michael W. Deem and Ramdas Pophale) SiO2 
 PCOD9528626
Probable space group: I B A M
;
_chemical_formula_sum "Si O2"
_cell_formula_units_Z 80
_cell_length_a 20.630946
_cell_length_b 9.247815
_cell_length_c 22.907848
_cell_angle_alpha 90.000000
_cell_angle_beta 90.000000
_cell_angle_gamma 90.000000
_cell_volume 4370.615165
_symmetry_space_group_name_H-M "I B A M"
_symmetry_group_IT_number 72
_symmetry_cell_setting 'orthorhombic'
loop_
_space_group_symop_operation_xyz
x,y,z
-x,-y,z
x,-y,1/2-z
-x,y,1/2-z
-x,-y,-z
x,y,-z
-x,y,1/2+z
x,-y,1/2+z
1/2+x,1/2+y,1/2+z
1/2-x,1/2-y,1/2+z
1/2+x,1/2-y,-z
1/2-x,1/2+y,-z
1/2-x,1/2-y,1/2-z
1/2+x,1/2+y,1/2-z
1/2-x,1/2+y,z
1/2+x,1/2-y,z
loop_
_atom_site_type_symbol
_atom_site_label
_atom_site_fract_x
_atom_site_fract_y
_atom_site_fract_z
Si Si1 0.100879 0.500000 0.750000
Si Si2 0.564747 0.905553 0.069635
Si Si3 0.686653 0.115668 0.645906
Si Si4 0.051701 0.896102 0.864884
Si Si5 0.813495 0.043659 0.180177
Si Si6 0.500000 0.756886 0.250000
O O1 0.145857 0.552890 0.800848
O O2 0.056571 0.633834 0.730577
O O3 0.638757 0.932970 0.092953
O O4 0.558017 0.744564 0.095424
O O5 0.500000 0.000000 0.089054
O O6 0.564591 0.910789 0.000000
O O7 0.694618 0.285662 0.663353
O O8 0.756924 0.043874 0.648128
O O9 0.116262 0.983404 0.848013
O O10 0.025008 0.837342 0.803139
O O11 0.000000 0.000000 0.893211
O O12 0.812780 0.000000 0.250000
#
# Coordination Sequence:
#
# PCOD9528626 Si02
#       6
#     8  16  16  16  16   8
#     4  11  20  32  58  82 123 154 200 240 281 360
#     4  10  22  44  65  84 114 155 208 250 290 352
#     4  11  23  36  56  88 117 163 197 238 297 352
#     4  11  23  36  60  92 122 154 194 249 304 353
#     4  11  22  37  53  86 127 160 187 239 297 356
#     4  11  19  34  56  88 122 156 194 240 292 358
#
# _framework density 18.30406
#
# number of rings (size 3 to 8) (size 9 to 14) (size 15 to 20)
#    0.000    1.200    5.000    3.300    0.000    2.000 
#    0.000    4.000    0.000    0.000    0.000    0.000 
#    0.000    0.000    0.000    0.000    0.000    0.000 
#
# Total GULP energy -222704.200050 kJ/mol
# GULP energy per Si atom -5567.605001 kJ/mol
# Density = 1.826240 g / cm^3
# Si number density = 18.304060 Si / 1000 Ang^3
#
#
#
# Elastic Constant Matrix: (Units=GPa)
#
#
# Indices 1 2 3 4 5 6 
#
# 1 145.4639 44.7574 40.3557 0.0000 0.0000 0.0000
# 2 44.7574 53.5554 18.2153 0.0000 0.0000 0.0000
# 3 40.3557 18.2153 70.5541 0.0000 0.0000 0.0000
# 4 0.0000 0.0000 0.0000 45.3474 0.0000 0.0000
# 5 0.0000 0.0000 0.0000 0.0000 9.6129 0.0000
# 6 0.0000 0.0000 0.0000 0.0000 0.0000 33.8289
#
#
#
# Elastic Compliance Matrix: (Units=1/GPa)
#
#
# Indices 1 2 3 4 5 6 
#
# 1 0.010179 -0.007155 -0.003975 0.000000 0.000000 0.000000
# 2 -0.007155 0.025499 -0.002491 0.000000 0.000000 0.000000
# 3 -0.003975 -0.002491 0.017090 0.000000 0.000000 0.000000
# 4 0.000000 0.000000 0.000000 0.022052 0.000000 0.000000
# 5 0.000000 0.000000 0.000000 0.000000 0.104027 0.000000
# 6 0.000000 0.000000 0.000000 0.000000 0.000000 0.029560
#
#
# Mechanical properties :
#
#
# Convention : Reuss Voigt Hill
#
# Bulk Modulus (GPa) = 39.17439 52.91450 46.04444
# Shear Modulus (GPa) = 20.47870 28.84085 24.65978
#
# Velocity S-wave (km/s) = 3.34849 3.97376 3.67444
# Velocity P-wave (km/s) = 6.03310 7.07288 6.57358
#
# Compressibility (1/GPa) = 0.02552688
#
# Stress axis : x y z
#
# Youngs Moduli (GPa) = 98.24456 39.21772 58.51325
#
# Poissons Ratio (x) = 0.28059 0.23258
# Poissons Ratio (y) = 0.70290 0.14575
# Poissons Ratio (z) = 0.39051 0.09768
#
# Static dielectric constant tensor:
#      x y z
#    x 1.696180 0.000000 0.000000 
#    y 0.000000 1.676500 0.000000 
#    z 0.000000 0.000000 1.588250 
# 
# From -- ./inp_files/49323.got.cif
#   From: 2010.05.17/outbox.cif.g08.bks.cpg/sg72_25_cif.got.tgz:49323.got - 2010.06.03 17:03:01.
