data_PCOD9528067
_publ_section_title
;
Structure prediction by ZEFSAII (Michael W. Deem and Ramdas Pophale) SiO2 
 PCOD9528067
Probable space group: I B A M
;
_chemical_formula_sum "Si O2"
_cell_formula_units_Z 96
_cell_length_a 20.585796
_cell_length_b 13.755381
_cell_length_c 15.180989
_cell_angle_alpha 90.000000
_cell_angle_beta 90.000000
_cell_angle_gamma 90.000000
_cell_volume 4298.731842
_symmetry_space_group_name_H-M "I B A M"
_symmetry_group_IT_number 72
_symmetry_cell_setting 'orthorhombic'
loop_
_space_group_symop_operation_xyz
x,y,z
-x,-y,z
x,-y,1/2-z
-x,y,1/2-z
-x,-y,-z
x,y,-z
-x,y,1/2+z
x,-y,1/2+z
1/2+x,1/2+y,1/2+z
1/2-x,1/2-y,1/2+z
1/2+x,1/2-y,-z
1/2-x,1/2+y,-z
1/2-x,1/2-y,1/2-z
1/2+x,1/2+y,1/2-z
1/2-x,1/2+y,z
1/2+x,1/2-y,z
loop_
_atom_site_type_symbol
_atom_site_label
_atom_site_fract_x
_atom_site_fract_y
_atom_site_fract_z
Si Si1 0.661081 0.702180 0.285207
Si Si2 0.112697 0.867668 0.903875
Si Si3 0.480942 0.310281 0.345313
Si Si4 0.323661 0.077902 0.671620
Si Si5 0.293683 0.539746 0.901219
Si Si6 0.032887 0.402961 0.896393
O O1 0.639232 0.686389 0.183794
O O2 0.596793 0.686206 0.347516
O O3 0.686761 0.810895 0.297734
O O4 0.707398 0.619246 0.324224
O O5 0.034528 0.861682 0.904559
O O6 0.140684 0.976131 0.895097
O O7 0.135799 0.830132 0.000000
O O8 0.500000 0.348733 0.250000
O O9 0.493854 0.194673 0.352517
O O10 0.390677 0.084762 0.618094
O O11 0.333391 0.000000 0.750000
O O12 0.264286 0.036514 0.615037
O O13 0.288686 0.581425 0.000000
O O14 0.000000 0.500000 0.861388
O O15 0.018788 0.393455 0.000000
#
# Coordination Sequence:
#
# PCOD9528067 Si02
#       6
#    16  16  16  16  16  16
#     4  10  23  44  67  94 132 179 220 272 341 403
#     4  10  21  39  66 100 134 169 221 275 329 403
#     4   9  20  37  62  94 129 172 213 268 330 392
#     4  11  25  43  66  93 128 173 219 270 331 399
#     4  11  25  44  67  96 131 174 224 278 334 402
#     4  10  22  37  59  90 128 167 211 266 323 387
#
# _framework density 22.332166999999998
#
# number of rings (size 3 to 8) (size 9 to 14) (size 15 to 20)
#    0.000    1.833    0.000    2.500    7.000    7.333 
#    0.000    6.667    0.000    1.000    0.000    0.000 
#    0.000    0.000    0.000    0.000    0.000    0.000 
#
# Total GULP energy -267958.572052 kJ/mol
# GULP energy per Si atom -5582.470251 kJ/mol
# Density = 2.228134 g / cm^3
# Si number density = 22.332167 Si / 1000 Ang^3
#
#
#
# Elastic Constant Matrix: (Units=GPa)
#
#
# Indices 1 2 3 4 5 6 
#
# 1 90.1957 47.2716 24.3321 0.0000 0.0000 0.0000
# 2 47.2716 95.9278 35.5193 0.0000 0.0000 0.0000
# 3 24.3321 35.5193 124.0128 0.0000 0.0000 0.0000
# 4 0.0000 0.0000 0.0000 -4.7481 0.0000 0.0000
# 5 0.0000 0.0000 0.0000 0.0000 33.1898 0.0000
# 6 0.0000 0.0000 0.0000 0.0000 0.0000 28.2404
#
#
#
# Elastic Compliance Matrix: (Units=1/GPa)
#
#
# Indices 1 2 3 4 5 6 
#
# 1 0.015042 -0.007069 -0.000927 0.000000 0.000000 0.000000
# 2 -0.007069 0.014984 -0.002905 0.000000 0.000000 0.000000
# 3 -0.000927 -0.002905 0.009077 0.000000 0.000000 0.000000
# 4 0.000000 0.000000 0.000000 -0.210610 0.000000 0.000000
# 5 0.000000 0.000000 0.000000 0.000000 0.030130 0.000000
# 6 0.000000 0.000000 0.000000 0.000000 0.000000 0.035410
#
#
# Mechanical properties :
#
#
# Convention : Reuss Voigt Hill
#
# Bulk Modulus (GPa) = 57.79622 58.26468 58.03045
# Shear Modulus (GPa) = -63.77636 24.87063 -19.45286
#
# Velocity S-wave (km/s) = -5.34977 3.34079 -2.95459
# Velocity P-wave (km/s) = 3.49623 6.40530 3.79501
#
# Compressibility (1/GPa) = 0.01730217
#
# Stress axis : x y z
#
# Youngs Moduli (GPa) = 66.48041 66.73950 110.16402
#
# Poissons Ratio (x) = 0.47181 0.10207
# Poissons Ratio (y) = 0.46997 0.31997
# Poissons Ratio (z) = 0.06160 0.19384
#
# Static dielectric constant tensor:
#      x y z
#    x 1.873890 0.000000 0.000000 
#    y 0.000000 1.787370 0.000000 
#    z 0.000000 0.000000 1.834960 
# 
# From -- ./inp_files/24104.got.cif
#   From: 2010.05.17/outbox.cif.g08.bks.cpg/sg72_13_cif.got.tgz:24104.got - 2010.06.03 17:03:01.
