data_PCOD9528676
_publ_section_title
;
Structure prediction by ZEFSAII (Michael W. Deem and Ramdas Pophale) SiO2 
 PCOD9528676
Probable space group: I B A M
;
_chemical_formula_sum "Si O2"
_cell_formula_units_Z 72
_cell_length_a 10.715095
_cell_length_b 14.050975
_cell_length_c 24.539814
_cell_angle_alpha 90.000000
_cell_angle_beta 90.000000
_cell_angle_gamma 90.000000
_cell_volume 3694.653831
_symmetry_space_group_name_H-M "I B A M"
_symmetry_group_IT_number 72
_symmetry_cell_setting 'orthorhombic'
loop_
_space_group_symop_operation_xyz
x,y,z
-x,-y,z
x,-y,1/2-z
-x,y,1/2-z
-x,-y,-z
x,y,-z
-x,y,1/2+z
x,-y,1/2+z
1/2+x,1/2+y,1/2+z
1/2-x,1/2-y,1/2+z
1/2+x,1/2-y,-z
1/2-x,1/2+y,-z
1/2-x,1/2-y,1/2-z
1/2+x,1/2+y,1/2-z
1/2-x,1/2+y,z
1/2+x,1/2-y,z
loop_
_atom_site_type_symbol
_atom_site_label
_atom_site_fract_x
_atom_site_fract_y
_atom_site_fract_z
Si Si1 0.385718 0.782004 0.400814
Si Si2 0.343600 0.836223 0.938485
Si Si3 0.875658 0.209571 0.777473
Si Si4 0.643039 0.012116 0.357665
Si Si5 0.695547 0.500000 0.750000
O O1 0.527237 0.781629 0.423470
O O2 0.278420 0.729677 0.434599
O O3 0.381556 0.735316 0.340787
O O4 0.349740 0.892429 0.393127
O O5 0.326854 0.920886 0.894784
O O6 0.357057 0.873655 0.000000
O O7 0.750000 0.250000 0.750000
O O8 0.873825 0.096615 0.766738
O O9 0.000000 0.251560 0.750000
O O10 0.500000 0.000000 0.340019
O O11 0.724149 0.022359 0.303747
#
# Coordination Sequence:
#
# PCOD9528676 Si02
#       5
#    16  16  16  16   8
#     4  11  23  42  66  94 128 170 220 270 328 390
#     4  11  24  44  67  94 128 172 224 278 326 388
#     4  12  25  40  65  96 133 171 212 265 328 399
#     4  10  23  38  65  96 129 167 219 268 327 396
#     4  12  22  40  62  98 133 174 203 276 331 396
#
# _framework density 19.487618000000001
#
# number of rings (size 3 to 8) (size 9 to 14) (size 15 to 20)
#    0.000    0.889    4.444    2.667    3.111    4.889 
#    0.000    1.111    0.000    2.667    0.000    0.000 
#    0.000    0.000    0.000    0.000    0.000    0.000 
#
# Total GULP energy -201119.191022 kJ/mol
# GULP energy per Si atom -5586.644195 kJ/mol
# Density = 1.944326 g / cm^3
# Si number density = 19.487618 Si / 1000 Ang^3
#
#
#
# Elastic Constant Matrix: (Units=GPa)
#
#
# Indices 1 2 3 4 5 6 
#
# 1 88.8413 34.1607 28.4383 0.0000 0.0000 0.0000
# 2 34.1607 85.1257 -3.6268 0.0000 0.0000 0.0000
# 3 28.4383 -3.6268 88.8201 0.0000 0.0000 0.0000
# 4 0.0000 0.0000 0.0000 14.8937 0.0000 0.0000
# 5 0.0000 0.0000 0.0000 0.0000 6.5560 0.0000
# 6 0.0000 0.0000 0.0000 0.0000 0.0000 29.1597
#
#
#
# Elastic Compliance Matrix: (Units=1/GPa)
#
#
# Indices 1 2 3 4 5 6 
#
# 1 0.015372 -0.006389 -0.005183 0.000000 0.000000 0.000000
# 2 -0.006389 0.014424 0.002635 0.000000 0.000000 0.000000
# 3 -0.005183 0.002635 0.013026 0.000000 0.000000 0.000000
# 4 0.000000 0.000000 0.000000 0.067142 0.000000 0.000000
# 5 0.000000 0.000000 0.000000 0.000000 0.152532 0.000000
# 6 0.000000 0.000000 0.000000 0.000000 0.000000 0.034294
#
#
# Mechanical properties :
#
#
# Convention : Reuss Voigt Hill
#
# Bulk Modulus (GPa) = 40.08591 42.30349 41.19470
# Shear Modulus (GPa) = 15.48086 23.70954 19.59520
#
# Velocity S-wave (km/s) = 2.82156 3.49183 3.17443
# Velocity P-wave (km/s) = 5.58834 6.16540 5.88395
#
# Compressibility (1/GPa) = 0.02494642
#
# Stress axis : x y z
#
# Youngs Moduli (GPa) = 65.05408 69.33049 76.77151
#
# Poissons Ratio (x) = 0.44299 0.39788
# Poissons Ratio (y) = 0.41566 -0.20227
# Poissons Ratio (z) = 0.33715 -0.18267
#
# Static dielectric constant tensor:
#      x y z
#    x 1.709130 0.000000 0.000000 
#    y 0.000000 1.693390 0.000000 
#    z 0.000000 0.000000 1.636720 
# 
# From -- ./inp_files/47045.got.cif
#   From: 2010.05.17/outbox.cif.g08.bks.cpg/sg72_24_cif.got.tgz:47045.got - 2010.06.03 17:03:01.
