data_PCOD9528045
_publ_section_title
;
Structure prediction by ZEFSAII (Michael W. Deem and Ramdas Pophale) SiO2 
 PCOD9528045
Probable space group: I B A M
;
_chemical_formula_sum "Si O2"
_cell_formula_units_Z 112
_cell_length_a 24.969423
_cell_length_b 10.904607
_cell_length_c 21.079092
_cell_angle_alpha 90.000000
_cell_angle_beta 90.000000
_cell_angle_gamma 90.000000
_cell_volume 5739.451949
_symmetry_space_group_name_H-M "I B A M"
_symmetry_group_IT_number 72
_symmetry_cell_setting 'orthorhombic'
loop_
_space_group_symop_operation_xyz
x,y,z
-x,-y,z
x,-y,1/2-z
-x,y,1/2-z
-x,-y,-z
x,y,-z
-x,y,1/2+z
x,-y,1/2+z
1/2+x,1/2+y,1/2+z
1/2-x,1/2-y,1/2+z
1/2+x,1/2-y,-z
1/2-x,1/2+y,-z
1/2-x,1/2-y,1/2-z
1/2+x,1/2+y,1/2-z
1/2-x,1/2+y,z
1/2+x,1/2-y,z
loop_
_atom_site_type_symbol
_atom_site_label
_atom_site_fract_x
_atom_site_fract_y
_atom_site_fract_z
Si Si1 0.251672 0.749832 0.636889
Si Si2 0.713420 0.499072 0.424531
Si Si3 0.056199 0.720036 0.924627
Si Si4 0.139595 0.361046 0.678659
Si Si5 0.590859 0.509464 0.923697
Si Si6 0.645452 0.853985 0.682497
Si Si7 0.934643 0.735425 0.075179
O O1 0.257467 0.625621 0.596156
O O2 0.309057 0.775285 0.667972
O O3 0.200327 0.722929 0.680476
O O4 0.239008 0.874291 0.598859
O O5 0.712026 0.502406 0.500000
O O6 0.652042 0.492797 0.400321
O O7 0.097040 0.653490 0.877770
O O8 0.994349 0.682918 0.916838
O O9 0.062520 0.863927 0.906705
O O10 0.069726 0.705815 0.000000
O O11 0.117490 0.334208 0.749247
O O12 0.158565 0.501944 0.678663
O O13 0.563737 0.380473 0.908441
O O14 0.592697 0.512086 0.000000
O O15 0.608559 0.821147 0.622579
O O16 0.920123 0.723605 0.000000
#
# Coordination Sequence:
#
# PCOD9528045 Si02
#       7
#    16  16  16  16  16  16  16
#     4  12  22  42  62  92 127 170 211 252 307 372
#     4  11  22  35  62  98 132 164 205 257 312 368
#     4  10  21  39  64  92 121 157 203 256 312 369
#     4  11  25  43  62  88 122 165 210 254 309 371
#     4   9  17  34  59  90 124 157 195 245 308 369
#     4  11  25  43  62  88 122 165 210 254 309 371
#     4  10  21  39  64  92 121 157 203 256 312 369
#
# _framework density 19.514059
#
# number of rings (size 3 to 8) (size 9 to 14) (size 15 to 20)
#    0.000    1.429    4.286    1.286    0.000    4.571 
#    0.000    5.000    0.000    1.714    0.000    0.000 
#    0.000    0.000    0.000    0.000    0.000    0.000 
#
# Total GULP energy -312351.257276 kJ/mol
# GULP energy per Si atom -5577.701023 kJ/mol
# Density = 1.946964 g / cm^3
# Si number density = 19.514059 Si / 1000 Ang^3
#
#
#
# Elastic Constant Matrix: (Units=GPa)
#
#
# Indices 1 2 3 4 5 6 
#
# 1 62.5026 -1.4722 18.1574 0.0000 0.0000 0.0000
# 2 -1.4722 82.3608 10.8045 0.0000 0.0000 0.0000
# 3 18.1574 10.8045 59.3684 0.0000 0.0000 0.0000
# 4 0.0000 0.0000 0.0000 11.3105 0.0000 0.0000
# 5 0.0000 0.0000 0.0000 0.0000 17.2708 0.0000
# 6 0.0000 0.0000 0.0000 0.0000 0.0000 26.3161
#
#
#
# Elastic Compliance Matrix: (Units=1/GPa)
#
#
# Indices 1 2 3 4 5 6 
#
# 1 0.017647 0.001049 -0.005588 0.000000 0.000000 0.000000
# 2 0.001049 0.012501 -0.002596 0.000000 0.000000 0.000000
# 3 -0.005588 -0.002596 0.019025 0.000000 0.000000 0.000000
# 4 0.000000 0.000000 0.000000 0.088413 0.000000 0.000000
# 5 0.000000 0.000000 0.000000 0.000000 0.057901 0.000000
# 6 0.000000 0.000000 0.000000 0.000000 0.000000 0.038000
#
#
# Mechanical properties :
#
#
# Convention : Reuss Voigt Hill
#
# Bulk Modulus (GPa) = 28.65073 28.80123 28.72598
# Shear Modulus (GPa) = 19.27579 22.76230 21.01905
#
# Velocity S-wave (km/s) = 3.14632 3.41905 3.28552
# Velocity P-wave (km/s) = 5.28328 5.51160 5.39865
#
# Compressibility (1/GPa) = 0.03490313
#
# Stress axis : x y z
#
# Youngs Moduli (GPa) = 56.66552 79.99380 52.56114
#
# Poissons Ratio (x) = -0.08388 0.29372
# Poissons Ratio (y) = -0.05942 0.13644
# Poissons Ratio (z) = 0.31666 0.20764
#
# Static dielectric constant tensor:
#      x y z
#    x 1.701190 0.000000 0.000000 
#    y 0.000000 1.687500 0.000000 
#    z 0.000000 0.000000 1.673470 
# 
# From -- ./inp_files/40367.got.cif
#   From: 2010.05.17/outbox.cif.g08.bks.cpg/sg72_21_cif.got.tgz:40367.got - 2010.06.03 17:03:01.
