data_PCOD9528124
_publ_section_title
;
Structure prediction by ZEFSAII (Michael W. Deem and Ramdas Pophale) SiO2 
 PCOD9528124
Probable space group: I B A M
;
_chemical_formula_sum "Si O2"
_cell_formula_units_Z 112
_cell_length_a 30.705965
_cell_length_b 12.387315
_cell_length_c 14.667831
_cell_angle_alpha 90.000000
_cell_angle_beta 90.000000
_cell_angle_gamma 90.000000
_cell_volume 5579.121630
_symmetry_space_group_name_H-M "I B A M"
_symmetry_group_IT_number 72
_symmetry_cell_setting 'orthorhombic'
loop_
_space_group_symop_operation_xyz
x,y,z
-x,-y,z
x,-y,1/2-z
-x,y,1/2-z
-x,-y,-z
x,y,-z
-x,y,1/2+z
x,-y,1/2+z
1/2+x,1/2+y,1/2+z
1/2-x,1/2-y,1/2+z
1/2+x,1/2-y,-z
1/2-x,1/2+y,-z
1/2-x,1/2-y,1/2-z
1/2+x,1/2+y,1/2-z
1/2-x,1/2+y,z
1/2+x,1/2-y,z
loop_
_atom_site_type_symbol
_atom_site_label
_atom_site_fract_x
_atom_site_fract_y
_atom_site_fract_z
Si Si1 0.648930 0.963965 0.889900
Si Si2 0.391804 0.379019 0.748466
Si Si3 0.579126 0.216057 0.601371
Si Si4 0.709681 0.381870 0.252417
Si Si5 0.490511 0.120898 0.641851
Si Si6 0.108663 0.687447 0.606888
Si Si7 0.269002 0.806186 0.608906
O O1 0.607058 0.888862 0.866794
O O2 0.692463 0.893836 0.867040
O O3 0.639592 0.087559 0.857068
O O4 0.649618 0.973315 0.000000
O O5 0.410820 0.500000 0.750000
O O6 0.412979 0.310186 0.828213
O O7 0.341061 0.391190 0.768909
O O8 0.391215 0.300815 0.660329
O O9 0.595547 0.242259 0.500000
O O10 0.528092 0.192808 0.598775
O O11 0.730292 0.500000 0.250000
O O12 0.723817 0.303242 0.333767
O O13 0.722879 0.340304 0.152238
O O14 0.500000 0.127380 0.750000
O O15 0.441156 0.147926 0.618512
O O16 0.500000 0.000000 0.611490
O O17 0.118305 0.702823 0.500000
O O18 0.268765 0.792828 0.500000
#
# Coordination Sequence:
#
# PCOD9528124 Si02
#       7
#    16  16  16  16  16  16  16
#     4   9  19  35  61  94 125 158 198 247 312 379
#     4  11  25  44  62  85 121 166 221 264 305 367
#     4  11  21  38  63  91 122 163 206 251 308 373
#     4  10  23  41  61  90 124 167 214 266 319 375
#     4  11  21  35  61  98 132 164 199 246 317 387
#     4  11  23  40  64  96 131 163 201 258 322 379
#     4  10  21  40  64  94 128 165 211 262 320 387
#
# _framework density 20.074845
#
# number of rings (size 3 to 8) (size 9 to 14) (size 15 to 20)
#    0.000    1.571    4.286    0.429    0.000    5.143 
#    0.000    5.714    0.000    1.714    0.000    0.000 
#    0.000    0.000    0.000    0.000    0.000    0.000 
#
# Total GULP energy -312105.413129 kJ/mol
# GULP energy per Si atom -5573.310949 kJ/mol
# Density = 2.002915 g / cm^3
# Si number density = 20.074845 Si / 1000 Ang^3
#
#
#
# Elastic Constant Matrix: (Units=GPa)
#
#
# Indices 1 2 3 4 5 6 
#
# 1 15.1473 0.2928 0.8062 0.0000 0.0000 0.0000
# 2 0.2928 145.9192 60.1876 0.0000 0.0000 0.0000
# 3 0.8062 60.1876 113.3981 0.0000 0.0000 0.0000
# 4 0.0000 0.0000 0.0000 14.6052 0.0000 0.0000
# 5 0.0000 0.0000 0.0000 0.0000 17.0656 0.0000
# 6 0.0000 0.0000 0.0000 0.0000 0.0000 331.6915
#
#
#
# Elastic Compliance Matrix: (Units=1/GPa)
#
#
# Indices 1 2 3 4 5 6 
#
# 1 0.066044 0.000078 -0.000511 0.000000 0.000000 0.000000
# 2 0.000078 0.008774 -0.004657 0.000000 0.000000 0.000000
# 3 -0.000511 -0.004657 0.011294 0.000000 0.000000 0.000000
# 4 0.000000 0.000000 0.000000 0.068469 0.000000 0.000000
# 5 0.000000 0.000000 0.000000 0.000000 0.058597 0.000000
# 6 0.000000 0.000000 0.000000 0.000000 0.000000 0.003015
#
#
# Mechanical properties :
#
#
# Convention : Reuss Voigt Hill
#
# Bulk Modulus (GPa) = 13.16978 44.11534 28.64256
# Shear Modulus (GPa) = 19.86618 86.88434 53.37526
#
# Velocity S-wave (km/s) = 3.14921 6.58591 5.16196
# Velocity P-wave (km/s) = 4.44949 8.93618 7.05880
#
# Compressibility (1/GPa) = 0.07593140
#
# Stress axis : x y z
#
# Youngs Moduli (GPa) = 15.14145 113.97260 88.54139
#
# Poissons Ratio (x) = -0.00892 0.04525
# Poissons Ratio (y) = -0.00119 0.41238
# Poissons Ratio (z) = 0.00774 0.53083
#
# Static dielectric constant tensor:
#      x y z
#    x 1.718750 0.000000 0.000000 
#    y 0.000000 1.807610 0.000000 
#    z 0.000000 0.000000 1.737240 
# 
# From -- ./inp_files/26432.got.cif
#   From: 2010.05.17/outbox.cif.g08.bks.cpg/sg72_14_cif.got.tgz:26432.got - 2010.06.03 17:03:01.
