data_PCOD9528773
_publ_section_title
;
Structure prediction by ZEFSAII (Michael W. Deem and Ramdas Pophale) SiO2 
 PCOD9528773
Probable space group: I B A M
;
_chemical_formula_sum "Si O2"
_cell_formula_units_Z 64
_cell_length_a 9.980800
_cell_length_b 11.367722
_cell_length_c 26.873289
_cell_angle_alpha 90.000000
_cell_angle_beta 90.000000
_cell_angle_gamma 90.000000
_cell_volume 3049.015415
_symmetry_space_group_name_H-M "I B A M"
_symmetry_group_IT_number 72
_symmetry_cell_setting 'orthorhombic'
loop_
_space_group_symop_operation_xyz
x,y,z
-x,-y,z
x,-y,1/2-z
-x,y,1/2-z
-x,-y,-z
x,y,-z
-x,y,1/2+z
x,-y,1/2+z
1/2+x,1/2+y,1/2+z
1/2-x,1/2-y,1/2+z
1/2+x,1/2-y,-z
1/2-x,1/2+y,-z
1/2-x,1/2-y,1/2-z
1/2+x,1/2+y,1/2-z
1/2-x,1/2+y,z
1/2+x,1/2-y,z
loop_
_atom_site_type_symbol
_atom_site_label
_atom_site_fract_x
_atom_site_fract_y
_atom_site_fract_z
Si Si1 0.287415 0.537346 0.358110
Si Si2 0.410019 0.882352 0.943034
Si Si3 0.641703 0.161491 0.222730
Si Si4 0.449658 0.686884 0.870502
O O1 0.206918 0.590070 0.404309
O O2 0.213002 0.549351 0.304645
O O3 0.420383 0.615045 0.354365
O O4 0.329481 0.406764 0.374007
O O5 0.475767 0.765398 0.919276
O O6 0.500000 0.000000 0.941727
O O7 0.369564 0.862048 0.000000
O O8 0.500000 0.137150 0.250000
O O9 0.750000 0.250000 0.250000
O O10 0.591544 0.230788 0.174349
#
# Coordination Sequence:
#
# PCOD9528773 Si02
#       4
#    16  16  16  16
#     4  10  23  42  68  95 134 177 223 284 345 408
#     4  10  24  42  67  98 132 175 227 282 343 415
#     4  11  22  41  67  99 137 180 231 281 344 406
#     4  10  23  43  65  98 136 174 225 284 341 413
#
# _framework density 20.990383999999999
#
# number of rings (size 3 to 8) (size 9 to 14) (size 15 to 20)
#    0.000    1.750    2.500    0.000    7.000    3.000 
#    0.000    8.750    0.000    0.000    0.000    0.000 
#    0.000    0.000    0.000    0.000    0.000    0.000 
#
# Total GULP energy -178460.681142 kJ/mol
# GULP energy per Si atom -5576.896286 kJ/mol
# Density = 2.094261 g / cm^3
# Si number density = 20.990384 Si / 1000 Ang^3
#
#
#
# Elastic Constant Matrix: (Units=GPa)
#
#
# Indices 1 2 3 4 5 6 
#
# 1 85.5716 21.1563 50.7472 0.0000 0.0000 0.0000
# 2 21.1563 89.0197 40.2806 0.0000 0.0000 0.0000
# 3 50.7472 40.2806 154.1966 0.0000 0.0000 0.0000
# 4 0.0000 0.0000 0.0000 14.6245 0.0000 0.0000
# 5 0.0000 0.0000 0.0000 0.0000 25.7873 0.0000
# 6 0.0000 0.0000 0.0000 0.0000 0.0000 29.2914
#
#
#
# Elastic Compliance Matrix: (Units=1/GPa)
#
#
# Indices 1 2 3 4 5 6 
#
# 1 0.014690 -0.001478 -0.004448 0.000000 0.000000 0.000000
# 2 -0.001478 0.012888 -0.002880 0.000000 0.000000 0.000000
# 3 -0.004448 -0.002880 0.008702 0.000000 0.000000 0.000000
# 4 0.000000 0.000000 0.000000 0.068378 0.000000 0.000000
# 5 0.000000 0.000000 0.000000 0.000000 0.038779 0.000000
# 6 0.000000 0.000000 0.000000 0.000000 0.000000 0.034140
#
#
# Mechanical properties :
#
#
# Convention : Reuss Voigt Hill
#
# Bulk Modulus (GPa) = 53.57432 61.46179 57.51805
# Shear Modulus (GPa) = 24.82479 28.38090 26.60284
#
# Velocity S-wave (km/s) = 3.44273 3.68107 3.56389
# Velocity P-wave (km/s) = 6.43288 6.88560 6.66308
#
# Compressibility (1/GPa) = 0.01866566
#
# Stress axis : x y z
#
# Youngs Moduli (GPa) = 68.07534 77.59115 114.92162
#
# Poissons Ratio (x) = 0.11470 0.51120
# Poissons Ratio (y) = 0.10064 0.33100
# Poissons Ratio (z) = 0.30282 0.22348
#
# Static dielectric constant tensor:
#      x y z
#    x 1.803150 0.000000 0.000000 
#    y 0.000000 1.913290 0.000000 
#    z 0.000000 0.000000 1.713050 
# 
# From -- ./inp_files/42942.got.cif
#   From: 2010.05.17/outbox.cif.g08.bks.cpg/sg72_22_cif.got.tgz:42942.got - 2010.06.03 17:03:01.
