data_PCOD9528288
_publ_section_title
;
Structure prediction by ZEFSAII (Michael W. Deem and Ramdas Pophale) SiO2 
 PCOD9528288
Probable space group: I B A M
;
_chemical_formula_sum "Si O2"
_cell_formula_units_Z 52
_cell_length_a 13.909620
_cell_length_b 9.798815
_cell_length_c 21.266169
_cell_angle_alpha 90.000000
_cell_angle_beta 90.000000
_cell_angle_gamma 90.000000
_cell_volume 2898.531902
_symmetry_space_group_name_H-M "I B A M"
_symmetry_group_IT_number 72
_symmetry_cell_setting 'orthorhombic'
loop_
_space_group_symop_operation_xyz
x,y,z
-x,-y,z
x,-y,1/2-z
-x,y,1/2-z
-x,-y,-z
x,y,-z
-x,y,1/2+z
x,-y,1/2+z
1/2+x,1/2+y,1/2+z
1/2-x,1/2-y,1/2+z
1/2+x,1/2-y,-z
1/2-x,1/2+y,-z
1/2-x,1/2-y,1/2-z
1/2+x,1/2+y,1/2-z
1/2-x,1/2+y,z
1/2+x,1/2-y,z
loop_
_atom_site_type_symbol
_atom_site_label
_atom_site_fract_x
_atom_site_fract_y
_atom_site_fract_z
Si Si1 0.773883 0.303317 0.607237
Si Si2 0.811913 0.566702 0.687058
Si Si3 0.000000 0.500000 0.250000
Si Si4 0.406141 0.684293 0.000000
Si Si5 0.877168 0.859240 0.500000
O O1 0.804893 0.448593 0.634919
O O2 0.856565 0.244254 0.562237
O O3 0.682874 0.319416 0.561351
O O4 0.742674 0.198882 0.661985
O O5 0.766747 0.500000 0.750000
O O6 0.924223 0.585642 0.707549
O O7 0.389235 0.522133 0.000000
O O8 0.519240 0.709438 0.000000
#
# Coordination Sequence:
#
# PCOD9528288 Si02
#       5
#    16  16   4   8   8
#     4  11  21  40  60  84 117 155 184 240 288 335
#     4  10  22  39  58  85 115 149 193 235 283 339
#     4   8  24  36  60  88 110 148 200 234 282 328
#     4  10  22  37  58  87 116 153 191 234 284 342
#     4  10  22  37  58  87 116 153 191 234 284 342
#
# _framework density 17.940116
#
# number of rings (size 3 to 8) (size 9 to 14) (size 15 to 20)
#    0.923    0.923    3.077    0.923    4.308    0.000 
#    0.000    1.538    0.000    3.692    0.000    0.000 
#    0.000    0.000    0.000    0.000    0.000    0.000 
#
# Total GULP energy -144872.659462 kJ/mol
# GULP energy per Si atom -5572.025364 kJ/mol
# Density = 1.789928 g / cm^3
# Si number density = 17.940116 Si / 1000 Ang^3
#
#
#
# Elastic Constant Matrix: (Units=GPa)
#
#
# Indices 1 2 3 4 5 6 
#
# 1 116.2118 15.4336 30.9614 0.0000 0.0000 0.0000
# 2 15.4336 47.4508 0.2720 0.0000 0.0000 0.0000
# 3 30.9614 0.2720 66.3457 0.0000 0.0000 0.0000
# 4 0.0000 0.0000 0.0000 28.0008 0.0000 0.0000
# 5 0.0000 0.0000 0.0000 0.0000 115.0079 0.0000
# 6 0.0000 0.0000 0.0000 0.0000 0.0000 17.5200
#
#
#
# Elastic Compliance Matrix: (Units=1/GPa)
#
#
# Indices 1 2 3 4 5 6 
#
# 1 0.010328 -0.003332 -0.004806 0.000000 0.000000 0.000000
# 2 -0.003332 0.022150 0.001464 0.000000 0.000000 0.000000
# 3 -0.004806 0.001464 0.017309 0.000000 0.000000 0.000000
# 4 0.000000 0.000000 0.000000 0.035713 0.000000 0.000000
# 5 0.000000 0.000000 0.000000 0.000000 0.008695 0.000000
# 6 0.000000 0.000000 0.000000 0.000000 0.000000 0.057078
#
#
# Mechanical properties :
#
#
# Convention : Reuss Voigt Hill
#
# Bulk Modulus (GPa) = 27.44271 35.92692 31.68482
# Shear Modulus (GPa) = 28.28584 44.32849 36.30716
#
# Velocity S-wave (km/s) = 3.97505 4.97622 4.50354
# Velocity P-wave (km/s) = 6.03308 7.28605 6.68897
#
# Compressibility (1/GPa) = 0.03643955
#
# Stress axis : x y z
#
# Youngs Moduli (GPa) = 96.82539 45.14733 57.77218
#
# Poissons Ratio (x) = 0.15041 0.27765
# Poissons Ratio (y) = 0.32259 -0.08458
# Poissons Ratio (z) = 0.46534 -0.06609
#
# Static dielectric constant tensor:
#      x y z
#    x 1.603350 0.000000 0.000000 
#    y 0.000000 1.591370 0.000000 
#    z 0.000000 0.000000 1.620290 
# 
# From -- ./inp_files/28638.got.cif
#   From: 2010.05.17/outbox.cif.g08.bks.cpg/sg72_15_cif.got.tgz:28638.got - 2010.06.03 17:03:01.
