data_PCOD9528652
_publ_section_title
;
Structure prediction by ZEFSAII (Michael W. Deem and Ramdas Pophale) SiO2 
 PCOD9528652
Probable space group: I B A M
;
_chemical_formula_sum "Si O2"
_cell_formula_units_Z 112
_cell_length_a 13.909770
_cell_length_b 17.687467
_cell_length_c 23.184507
_cell_angle_alpha 90.000000
_cell_angle_beta 90.000000
_cell_angle_gamma 90.000000
_cell_volume 5704.051749
_symmetry_space_group_name_H-M "I B A M"
_symmetry_group_IT_number 72
_symmetry_cell_setting 'orthorhombic'
loop_
_space_group_symop_operation_xyz
x,y,z
-x,-y,z
x,-y,1/2-z
-x,y,1/2-z
-x,-y,-z
x,y,-z
-x,y,1/2+z
x,-y,1/2+z
1/2+x,1/2+y,1/2+z
1/2-x,1/2-y,1/2+z
1/2+x,1/2-y,-z
1/2-x,1/2+y,-z
1/2-x,1/2-y,1/2-z
1/2+x,1/2+y,1/2-z
1/2-x,1/2+y,z
1/2+x,1/2-y,z
loop_
_atom_site_type_symbol
_atom_site_label
_atom_site_fract_x
_atom_site_fract_y
_atom_site_fract_z
Si Si1 0.746908 0.915977 0.243661
Si Si2 0.325645 0.307259 0.641901
Si Si3 0.920885 0.434819 0.157966
Si Si4 0.316802 0.673461 0.349651
Si Si5 0.587263 0.555139 0.933862
Si Si6 0.014145 0.724190 0.184064
Si Si7 0.747178 0.067069 0.564963
O O1 0.794130 0.857861 0.197721
O O2 0.641549 0.928989 0.216775
O O3 0.755899 0.879010 0.306303
O O4 0.792214 0.000000 0.250000
O O5 0.255274 0.237342 0.627661
O O6 0.427615 0.271654 0.657029
O O7 0.312878 0.365106 0.589530
O O8 0.967223 0.352431 0.149203
O O9 0.841565 0.446181 0.107965
O O10 0.000000 0.500000 0.159423
O O11 0.380709 0.624988 0.394136
O O12 0.393274 0.722436 0.314245
O O13 0.500000 0.500000 0.913177
O O14 0.683001 0.504513 0.935138
O O15 0.437013 0.422297 0.000000
O O16 0.000000 0.701334 0.250000
O O17 0.714453 0.082613 0.500000
#
# Coordination Sequence:
#
# PCOD9528652 Si02
#       7
#    16  16  16  16  16  16  16
#     4  11  23  40  61  92 131 175 214 262 319 396
#     4  11  23  40  62  96 131 168 217 268 331 385
#     4  11  26  41  64  98 130 182 224 264 326 399
#     4  12  22  41  65  95 135 167 215 274 328 387
#     4  10  23  44  71  97 127 172 226 277 330 395
#     4  12  24  40  64  96 136 173 208 269 333 392
#     4  10  22  46  69  92 132 174 219 276 330 386
#
# _framework density 19.635165000000001
#
# number of rings (size 3 to 8) (size 9 to 14) (size 15 to 20)
#    0.000    1.000    4.286    3.857    6.000    0.857 
#    0.000    1.429    0.000    0.000    0.000    0.000 
#    0.000    0.000    0.000    0.000    0.000    0.000 
#
# Total GULP energy -312587.114905 kJ/mol
# GULP energy per Si atom -5581.912766 kJ/mol
# Density = 1.959047 g / cm^3
# Si number density = 19.635165 Si / 1000 Ang^3
#
#
#
# Elastic Constant Matrix: (Units=GPa)
#
#
# Indices 1 2 3 4 5 6 
#
# 1 99.3936 22.5831 19.5593 0.0000 0.0000 0.0000
# 2 22.5831 102.6783 29.2083 0.0000 0.0000 0.0000
# 3 19.5593 29.2083 64.0826 0.0000 0.0000 0.0000
# 4 0.0000 0.0000 0.0000 22.4860 0.0000 0.0000
# 5 0.0000 0.0000 0.0000 0.0000 19.1203 0.0000
# 6 0.0000 0.0000 0.0000 0.0000 0.0000 37.4504
#
#
#
# Elastic Compliance Matrix: (Units=1/GPa)
#
#
# Indices 1 2 3 4 5 6 
#
# 1 0.010949 -0.001675 -0.002579 0.000000 0.000000 0.000000
# 2 -0.001675 0.011446 -0.004706 0.000000 0.000000 0.000000
# 3 -0.002579 -0.004706 0.018537 0.000000 0.000000 0.000000
# 4 0.000000 0.000000 0.000000 0.044472 0.000000 0.000000
# 5 0.000000 0.000000 0.000000 0.000000 0.052301 0.000000
# 6 0.000000 0.000000 0.000000 0.000000 0.000000 0.026702
#
#
# Mechanical properties :
#
#
# Convention : Reuss Voigt Hill
#
# Bulk Modulus (GPa) = 43.45241 45.42843 44.44042
# Shear Modulus (GPa) = 26.31636 28.79825 27.55731
#
# Velocity S-wave (km/s) = 3.66494 3.83386 3.75035
# Velocity P-wave (km/s) = 6.33143 6.54099 6.43706
#
# Compressibility (1/GPa) = 0.02301369
#
# Stress axis : x y z
#
# Youngs Moduli (GPa) = 91.33323 87.36569 53.94668
#
# Poissons Ratio (x) = 0.14630 0.13910
# Poissons Ratio (y) = 0.15295 0.25387
# Poissons Ratio (z) = 0.23551 0.41114
#
# Static dielectric constant tensor:
#      x y z
#    x 1.707040 0.000000 0.000000 
#    y 0.000000 1.706910 0.000000 
#    z 0.000000 0.000000 1.701120 
# 
# From -- ./inp_files/44327.got.cif
#   From: 2010.05.17/outbox.cif.g08.bks.cpg/sg72_23_cif.got.tgz:44327.got - 2010.06.03 17:03:01.
