data_PCOD9528401
_publ_section_title
;
Structure prediction by ZEFSAII (Michael W. Deem and Ramdas Pophale) SiO2 
 PCOD9528401
Probable space group: I B A M
;
_chemical_formula_sum "Si O2"
_cell_formula_units_Z 96
_cell_length_a 9.140003
_cell_length_b 23.860087
_cell_length_c 20.921985
_cell_angle_alpha 90.000000
_cell_angle_beta 90.000000
_cell_angle_gamma 90.000000
_cell_volume 4562.692992
_symmetry_space_group_name_H-M "I B A M"
_symmetry_group_IT_number 72
_symmetry_cell_setting 'orthorhombic'
loop_
_space_group_symop_operation_xyz
x,y,z
-x,-y,z
x,-y,1/2-z
-x,y,1/2-z
-x,-y,-z
x,y,-z
-x,y,1/2+z
x,-y,1/2+z
1/2+x,1/2+y,1/2+z
1/2-x,1/2-y,1/2+z
1/2+x,1/2-y,-z
1/2-x,1/2+y,-z
1/2-x,1/2-y,1/2-z
1/2+x,1/2+y,1/2-z
1/2-x,1/2+y,z
1/2+x,1/2-y,z
loop_
_atom_site_type_symbol
_atom_site_label
_atom_site_fract_x
_atom_site_fract_y
_atom_site_fract_z
Si Si1 0.101605 0.410871 0.807741
Si Si2 0.177198 0.716935 0.306839
Si Si3 0.433622 0.370502 0.571333
Si Si4 0.062034 0.243921 0.608775
Si Si5 0.411678 0.872368 0.427282
Si Si6 0.927669 0.939758 0.683567
O O1 0.153676 0.347641 0.790395
O O2 0.252480 0.444497 0.813274
O O3 0.000000 0.431110 0.750000
O O4 0.009236 0.402795 0.873304
O O5 0.250000 0.750000 0.250000
O O6 0.025713 0.745110 0.325936
O O7 0.278580 0.722803 0.370040
O O8 0.463470 0.392375 0.500000
O O9 0.476938 0.305035 0.572726
O O10 0.261729 0.379499 0.585318
O O11 0.528141 0.399581 0.625859
O O12 0.064851 0.304978 0.576884
O O13 0.444219 0.890666 0.500000
O O14 0.000000 0.918415 0.750000
O O15 0.000000 0.000000 0.672554
#
# Coordination Sequence:
#
# PCOD9528401 Si02
#       6
#    16  16  16  16  16  16
#     4  11  23  41  66  96 132 167 212 270 328 389
#     4  11  21  32  54  93 132 176 213 256 321 379
#     4  11  23  41  65  92 129 176 218 271 328 384
#     4  11  20  35  54  89 133 176 214 265 309 388
#     4  10  22  40  60  93 136 178 218 257 317 392
#     4  11  26  47  70  96 123 163 218 280 341 393
#
# _framework density 21.040205
#
# number of rings (size 3 to 8) (size 9 to 14) (size 15 to 20)
#    0.000    1.167    3.333    4.000    2.333    1.000 
#    0.000    5.833    0.000    2.000    0.000    0.000 
#    0.000    0.000    0.000    0.000    0.000    0.000 
#
# Total GULP energy -268329.664321 kJ/mol
# GULP energy per Si atom -5590.201340 kJ/mol
# Density = 2.099232 g / cm^3
# Si number density = 21.040205 Si / 1000 Ang^3
#
#
#
# Elastic Constant Matrix: (Units=GPa)
#
#
# Indices 1 2 3 4 5 6 
#
# 1 145.9484 30.4468 58.9404 0.0000 0.0000 0.0000
# 2 30.4468 46.1898 26.6669 0.0000 0.0000 0.0000
# 3 58.9404 26.6669 111.0613 0.0000 0.0000 0.0000
# 4 0.0000 0.0000 0.0000 -1.8214 0.0000 0.0000
# 5 0.0000 0.0000 0.0000 0.0000 27.0418 0.0000
# 6 0.0000 0.0000 0.0000 0.0000 0.0000 25.3692
#
#
#
# Elastic Compliance Matrix: (Units=1/GPa)
#
#
# Indices 1 2 3 4 5 6 
#
# 1 0.009260 -0.003792 -0.004004 0.000000 0.000000 0.000000
# 2 -0.003792 0.026687 -0.004395 0.000000 0.000000 0.000000
# 3 -0.004004 -0.004395 0.012184 0.000000 0.000000 0.000000
# 4 0.000000 0.000000 0.000000 -0.549026 0.000000 0.000000
# 5 0.000000 0.000000 0.000000 0.000000 0.036980 0.000000
# 6 0.000000 0.000000 0.000000 0.000000 0.000000 0.039418
#
#
# Mechanical properties :
#
#
# Convention : Reuss Voigt Hill
#
# Bulk Modulus (GPa) = 42.10770 59.47864 50.79317
# Shear Modulus (GPa) = -12.74863 22.59430 4.92283
#
# Velocity S-wave (km/s) = -2.46421 3.28054 1.53128
# Velocity P-wave (km/s) = 3.45832 6.53297 5.22684
#
# Compressibility (1/GPa) = 0.02374862
#
# Stress axis : x y z
#
# Youngs Moduli (GPa) = 107.99514 37.47133 82.07442
#
# Poissons Ratio (x) = 0.14210 0.32859
# Poissons Ratio (y) = 0.40955 0.36074
# Poissons Ratio (z) = 0.43236 0.16470
#
# Static dielectric constant tensor:
#      x y z
#    x 1.767570 0.000000 0.000000 
#    y 0.000000 1.753790 0.000000 
#    z 0.000000 0.000000 1.773930 
# 
# From -- ./inp_files/36042.got.cif
#   From: 2010.05.17/outbox.cif.g08.bks.cpg/sg72_19_cif.got.tgz:36042.got - 2010.06.03 17:03:01.
