data_PCOD9528754
_publ_section_title
;
Structure prediction by ZEFSAII (Michael W. Deem and Ramdas Pophale) SiO2 
 PCOD9528754
Probable space group: I B A M
;
_chemical_formula_sum "Si O2"
_cell_formula_units_Z 96
_cell_length_a 22.467974
_cell_length_b 14.235491
_cell_length_c 13.769025
_cell_angle_alpha 90.000000
_cell_angle_beta 90.000000
_cell_angle_gamma 90.000000
_cell_volume 4403.921329
_symmetry_space_group_name_H-M "I B A M"
_symmetry_group_IT_number 72
_symmetry_cell_setting 'orthorhombic'
loop_
_space_group_symop_operation_xyz
x,y,z
-x,-y,z
x,-y,1/2-z
-x,y,1/2-z
-x,-y,-z
x,y,-z
-x,y,1/2+z
x,-y,1/2+z
1/2+x,1/2+y,1/2+z
1/2-x,1/2-y,1/2+z
1/2+x,1/2-y,-z
1/2-x,1/2+y,-z
1/2-x,1/2-y,1/2-z
1/2+x,1/2+y,1/2-z
1/2-x,1/2+y,z
1/2+x,1/2-y,z
loop_
_atom_site_type_symbol
_atom_site_label
_atom_site_fract_x
_atom_site_fract_y
_atom_site_fract_z
Si Si1 0.965794 0.643958 0.382675
Si Si2 0.563830 0.337374 0.276504
Si Si3 0.091065 0.448906 0.118314
Si Si4 0.213614 0.646479 0.382214
Si Si5 0.655826 0.666200 0.386015
Si Si6 0.834514 0.947631 0.384492
O O1 0.964006 0.651545 0.500000
O O2 0.947197 0.742140 0.336613
O O3 0.923149 0.556585 0.354329
O O4 0.032869 0.612215 0.355027
O O5 0.500000 0.378962 0.250000
O O6 0.598204 0.313773 0.177648
O O7 0.606829 0.407441 0.334229
O O8 0.154247 0.408067 0.151589
O O9 0.092256 0.447278 0.000000
O O10 0.214834 0.636831 0.500000
O O11 0.204892 0.756255 0.360432
O O12 0.275787 0.605220 0.347217
O O13 0.642166 0.678089 0.500000
O O14 0.673296 0.558589 0.369785
O O15 0.840152 0.931753 0.500000
#
# Coordination Sequence:
#
# PCOD9528754 Si02
#       6
#    16  16  16  16  16  16
#     4   9  18  35  61  94 130 161 198 250 304 361
#     4  12  25  40  60  88 120 159 206 254 300 354
#     4   8  15  32  61  95 128 162 196 239 303 373
#     4   9  18  37  65  91 119 157 196 239 301 370
#     4  10  23  43  63  86 119 158 199 246 300 358
#     4  10  23  42  64  91 121 153 196 250 304 364
#
# _framework density 21.798753999999999
#
# number of rings (size 3 to 8) (size 9 to 14) (size 15 to 20)
#    0.000    2.333    0.000    3.000    0.000    6.000 
#    0.000   14.167    0.000    0.000    0.000    2.333 
#    0.000    0.000    0.000    0.000    0.000    0.000 
#
# Total GULP energy -268562.269290 kJ/mol
# GULP energy per Si atom -5595.047277 kJ/mol
# Density = 2.174914 g / cm^3
# Si number density = 21.798754 Si / 1000 Ang^3
#
#
#
# Elastic Constant Matrix: (Units=GPa)
#
#
# Indices 1 2 3 4 5 6 
#
# 1 171.5477 95.8539 51.7816 0.0000 0.0000 0.0000
# 2 95.8539 132.2476 59.1391 0.0000 0.0000 0.0000
# 3 51.7816 59.1391 84.3890 0.0000 0.0000 0.0000
# 4 0.0000 0.0000 0.0000 30.7634 0.0000 0.0000
# 5 0.0000 0.0000 0.0000 0.0000 33.0692 0.0000
# 6 0.0000 0.0000 0.0000 0.0000 0.0000 23.2123
#
#
#
# Elastic Compliance Matrix: (Units=1/GPa)
#
#
# Indices 1 2 3 4 5 6 
#
# 1 0.009931 -0.006514 -0.001528 0.000000 0.000000 0.000000
# 2 -0.006514 0.015286 -0.006715 0.000000 0.000000 0.000000
# 3 -0.001528 -0.006715 0.017494 0.000000 0.000000 0.000000
# 4 0.000000 0.000000 0.000000 0.032506 0.000000 0.000000
# 5 0.000000 0.000000 0.000000 0.000000 0.030240 0.000000
# 6 0.000000 0.000000 0.000000 0.000000 0.000000 0.043081
#
#
# Mechanical properties :
#
#
# Convention : Reuss Voigt Hill
#
# Bulk Modulus (GPa) = 75.78771 89.08150 82.43461
# Shear Modulus (GPa) = 27.40474 29.50296 28.45385
#
# Velocity S-wave (km/s) = 3.54951 3.68288 3.61681
# Velocity P-wave (km/s) = 7.18618 7.68368 7.43909
#
# Compressibility (1/GPa) = 0.01319475
#
# Stress axis : x y z
#
# Youngs Moduli (GPa) = 100.69984 65.41897 57.16380
#
# Poissons Ratio (x) = 0.42616 0.08736
# Poissons Ratio (y) = 0.65599 0.38386
# Poissons Ratio (z) = 0.15390 0.43930
#
# Static dielectric constant tensor:
#      x y z
#    x 1.744430 0.000000 0.000000 
#    y 0.000000 1.777080 0.000000 
#    z 0.000000 0.000000 1.845570 
# 
# From -- ./inp_files/24109.got.cif
#   From: 2010.05.17/outbox.cif.g08.bks.cpg/sg72_13_cif.got.tgz:24109.got - 2010.06.03 17:03:01.
