data_PCOD9528391
_publ_section_title
;
Structure prediction by ZEFSAII (Michael W. Deem and Ramdas Pophale) SiO2 
 PCOD9528391
Probable space group: I B A M
;
_chemical_formula_sum "Si O2"
_cell_formula_units_Z 72
_cell_length_a 32.591694
_cell_length_b 13.079797
_cell_length_c 9.709363
_cell_angle_alpha 90.000000
_cell_angle_beta 90.000000
_cell_angle_gamma 90.000000
_cell_volume 4139.030971
_symmetry_space_group_name_H-M "I B A M"
_symmetry_group_IT_number 72
_symmetry_cell_setting 'orthorhombic'
loop_
_space_group_symop_operation_xyz
x,y,z
-x,-y,z
x,-y,1/2-z
-x,y,1/2-z
-x,-y,-z
x,y,-z
-x,y,1/2+z
x,-y,1/2+z
1/2+x,1/2+y,1/2+z
1/2-x,1/2-y,1/2+z
1/2+x,1/2-y,-z
1/2-x,1/2+y,-z
1/2-x,1/2-y,1/2-z
1/2+x,1/2+y,1/2-z
1/2-x,1/2+y,z
1/2+x,1/2-y,z
loop_
_atom_site_type_symbol
_atom_site_label
_atom_site_fract_x
_atom_site_fract_y
_atom_site_fract_z
Si Si1 0.778029 0.707045 0.500000
Si Si2 0.461734 0.393453 0.665534
Si Si3 0.624694 0.694615 0.745014
Si Si4 0.167131 0.094776 0.500000
Si Si5 0.684902 0.356787 0.000000
Si Si6 0.844417 0.596823 0.653651
O O1 0.796010 0.821765 0.500000
O O2 0.730122 0.690139 0.500000
O O3 0.799782 0.649678 0.629127
O O4 0.456135 0.500000 0.750000
O O5 0.500000 0.344870 0.750000
O O6 0.469234 0.406231 0.500000
O O7 0.419503 0.333493 0.686318
O O8 0.659371 0.680017 0.630817
O O9 0.627026 0.811034 0.796512
O O10 0.638486 0.620190 0.869287
O O11 0.184093 0.980431 0.500000
O O12 0.842900 0.500000 0.750000
O O13 0.857285 0.564904 0.500000
#
# Coordination Sequence:
#
# PCOD9528391 Si02
#       6
#     8  16  16   8   8  16
#     4   8  22  38  54  84 115 154 203 244 296 328
#     4  11  23  37  59  89 119 159 194 236 293 354
#     4  11  23  38  57  87 121 153 199 242 293 345
#     4  10  22  40  53  82 124 164 193 243 300 333
#     4  12  22  34  61  86 117 161 196 247 282 361
#     4   9  21  40  60  83 112 155 200 244 291 340
#
# _framework density 17.395375999999999
#
# number of rings (size 3 to 8) (size 9 to 14) (size 15 to 20)
#    0.667    1.111    2.222    3.333    4.667    7.111 
#    0.000    0.000    0.000    0.667    0.000    3.111 
#    0.000    0.000    0.000    0.000    0.000    0.000 
#
# Total GULP energy -200638.949765 kJ/mol
# GULP energy per Si atom -5573.304160 kJ/mol
# Density = 1.735578 g / cm^3
# Si number density = 17.395376 Si / 1000 Ang^3
#
#
#
# Elastic Constant Matrix: (Units=GPa)
#
#
# Indices 1 2 3 4 5 6 
#
# 1 127.1253 32.4612 46.4287 0.0000 0.0000 0.0000
# 2 32.4612 73.5000 35.9089 0.0000 0.0000 0.0000
# 3 46.4287 35.9089 145.1042 0.0000 0.0000 0.0000
# 4 0.0000 0.0000 0.0000 40.0759 0.0000 0.0000
# 5 0.0000 0.0000 0.0000 0.0000 27.4467 0.0000
# 6 0.0000 0.0000 0.0000 0.0000 0.0000 17.3459
#
#
#
# Elastic Compliance Matrix: (Units=1/GPa)
#
#
# Indices 1 2 3 4 5 6 
#
# 1 0.009482 -0.003078 -0.002272 0.000000 0.000000 0.000000
# 2 -0.003078 0.016475 -0.003092 0.000000 0.000000 0.000000
# 3 -0.002272 -0.003092 0.008384 0.000000 0.000000 0.000000
# 4 0.000000 0.000000 0.000000 0.024953 0.000000 0.000000
# 5 0.000000 0.000000 0.000000 0.000000 0.036434 0.000000
# 6 0.000000 0.000000 0.000000 0.000000 0.000000 0.057650
#
#
# Mechanical properties :
#
#
# Convention : Reuss Voigt Hill
#
# Bulk Modulus (GPa) = 57.28444 63.92524 60.60484
# Shear Modulus (GPa) = 28.39581 32.36910 30.38245
#
# Velocity S-wave (km/s) = 4.04465 4.31836 4.18375
# Velocity P-wave (km/s) = 7.40369 7.85446 7.63240
#
# Compressibility (1/GPa) = 0.01745675
#
# Stress axis : x y z
#
# Youngs Moduli (GPa) = 105.46294 60.69620 119.27526
#
# Poissons Ratio (x) = 0.18680 0.27103
# Poissons Ratio (y) = 0.32457 0.36886
# Poissons Ratio (z) = 0.23965 0.18770
#
# Static dielectric constant tensor:
#      x y z
#    x 1.587510 0.000000 0.000000 
#    y 0.000000 1.573950 0.000000 
#    z 0.000000 0.000000 1.551210 
# 
# From -- ./inp_files/8972.got.cif
#   From: 2010.05.17/outbox.cif.g08.bks.cpg/sg72_5_cif.got.tgz:8972.got - 2010.06.03 17:03:01.
