data_PCOD9528264
_publ_section_title
;
Structure prediction by ZEFSAII (Michael W. Deem and Ramdas Pophale) SiO2 
 PCOD9528264
Probable space group: I B A M
;
_chemical_formula_sum "Si O2"
_cell_formula_units_Z 88
_cell_length_a 8.025885
_cell_length_b 19.918385
_cell_length_c 22.230798
_cell_angle_alpha 90.000000
_cell_angle_beta 90.000000
_cell_angle_gamma 90.000000
_cell_volume 3553.874667
_symmetry_space_group_name_H-M "I B A M"
_symmetry_group_IT_number 72
_symmetry_cell_setting 'orthorhombic'
loop_
_space_group_symop_operation_xyz
x,y,z
-x,-y,z
x,-y,1/2-z
-x,y,1/2-z
-x,-y,-z
x,y,-z
-x,y,1/2+z
x,-y,1/2+z
1/2+x,1/2+y,1/2+z
1/2-x,1/2-y,1/2+z
1/2+x,1/2-y,-z
1/2-x,1/2+y,-z
1/2-x,1/2-y,1/2-z
1/2+x,1/2+y,1/2-z
1/2-x,1/2+y,z
1/2+x,1/2-y,z
loop_
_atom_site_type_symbol
_atom_site_label
_atom_site_fract_x
_atom_site_fract_y
_atom_site_fract_z
Si Si1 0.386074 0.399622 0.374475
Si Si2 0.752625 0.233452 0.636493
Si Si3 0.828577 0.572214 0.000000
Si Si4 0.437458 0.845229 0.182997
Si Si5 0.748873 0.534113 0.129242
Si Si6 0.761249 0.775786 0.500000
Si Si7 0.804113 0.371911 0.000000
O O1 0.378924 0.326286 0.346497
O O2 0.569894 0.429138 0.370207
O O3 0.271982 0.458692 0.346568
O O4 0.311977 0.385453 0.441743
O O5 0.578483 0.193776 0.643981
O O6 0.778464 0.296159 0.679505
O O7 0.793793 0.262700 0.569669
O O8 0.787422 0.530817 0.941206
O O9 0.724092 0.643058 0.000000
O O10 0.023023 0.589545 0.000000
O O11 0.500000 0.851224 0.250000
O O12 0.383921 0.917091 0.157722
O O13 0.871216 0.706211 0.500000
#
# Coordination Sequence:
#
# PCOD9528264 Si02
#       7
#    16  16   8  16  16   8   8
#     4  10  23  41  64  96 142 181 233 279 359 426
#     4  11  24  42  68 101 137 182 226 295 354 430
#     4  12  22  35  67  98 142 180 231 282 361 433
#     4  12  26  46  71 100 138 185 242 294 357 418
#     4  11  23  42  66  99 138 188 227 293 352 432
#     4  10  22  34  62 100 139 169 222 284 356 423
#     4  10  22  37  57 100 141 187 220 281 353 441
#
# _framework density 24.761707999999999
#
# number of rings (size 3 to 8) (size 9 to 14) (size 15 to 20)
#    0.000    1.091    1.818    4.909    0.000    6.545 
#    0.000    1.818    0.000    2.182    0.000    0.000 
#    0.000    0.000    0.000    0.000    0.000    0.000 
#
# Total GULP energy -245651.639013 kJ/mol
# GULP energy per Si atom -5582.991796 kJ/mol
# Density = 2.470535 g / cm^3
# Si number density = 24.761708 Si / 1000 Ang^3
#
#
#
# Elastic Constant Matrix: (Units=GPa)
#
#
# Indices 1 2 3 4 5 6 
#
# 1 93.8031 3.5163 23.3361 0.0000 0.0000 0.0000
# 2 3.5163 128.7486 39.8391 0.0000 0.0000 0.0000
# 3 23.3361 39.8391 97.2702 0.0000 0.0000 0.0000
# 4 0.0000 0.0000 0.0000 -9.4611 0.0000 0.0000
# 5 0.0000 0.0000 0.0000 0.0000 17.1211 0.0000
# 6 0.0000 0.0000 0.0000 0.0000 0.0000 42.5102
#
#
#
# Elastic Compliance Matrix: (Units=1/GPa)
#
#
# Indices 1 2 3 4 5 6 
#
# 1 0.011379 0.000611 -0.002980 0.000000 0.000000 0.000000
# 2 0.000611 0.008927 -0.003803 0.000000 0.000000 0.000000
# 3 -0.002980 -0.003803 0.012553 0.000000 0.000000 0.000000
# 4 0.000000 0.000000 0.000000 -0.105696 0.000000 0.000000
# 5 0.000000 0.000000 0.000000 0.000000 0.058407 0.000000
# 6 0.000000 0.000000 0.000000 0.000000 0.000000 0.023524
#
#
# Mechanical properties :
#
#
# Convention : Reuss Voigt Hill
#
# Bulk Modulus (GPa) = 48.74320 50.35609 49.54964
# Shear Modulus (GPa) = 176.82062 26.90940 101.86501
#
# Velocity S-wave (km/s) = 8.45955 3.30014 6.42086
# Velocity P-wave (km/s) = 10.73062 5.90776 8.66164
#
# Compressibility (1/GPa) = 0.02051568
#
# Stress axis : x y z
#
# Youngs Moduli (GPa) = 87.87983 112.01783 79.66050
#
# Poissons Ratio (x) = -0.06849 0.23742
# Poissons Ratio (y) = -0.05374 0.30295
# Poissons Ratio (z) = 0.26192 0.42600
#
# Static dielectric constant tensor:
#      x y z
#    x 2.091120 0.000000 0.000000 
#    y 0.000000 1.991780 0.000000 
#    z 0.000000 0.000000 1.924260 
# 
# From -- ./inp_files/42314.got.cif
#   From: 2010.05.17/outbox.cif.g08.bks.cpg/sg72_22_cif.got.tgz:42314.got - 2010.06.03 17:03:01.
