data_PCOD9528691
_publ_section_title
;
Structure prediction by ZEFSAII (Michael W. Deem and Ramdas Pophale) SiO2 
 PCOD9528691
Probable space group: I B A M
;
_chemical_formula_sum "Si O2"
_cell_formula_units_Z 96
_cell_length_a 17.253936
_cell_length_b 11.104939
_cell_length_c 21.528111
_cell_angle_alpha 90.000000
_cell_angle_beta 90.000000
_cell_angle_gamma 90.000000
_cell_volume 4124.870173
_symmetry_space_group_name_H-M "I B A M"
_symmetry_group_IT_number 72
_symmetry_cell_setting 'orthorhombic'
loop_
_space_group_symop_operation_xyz
x,y,z
-x,-y,z
x,-y,1/2-z
-x,y,1/2-z
-x,-y,-z
x,y,-z
-x,y,1/2+z
x,-y,1/2+z
1/2+x,1/2+y,1/2+z
1/2-x,1/2-y,1/2+z
1/2+x,1/2-y,-z
1/2-x,1/2+y,-z
1/2-x,1/2-y,1/2-z
1/2+x,1/2+y,1/2-z
1/2-x,1/2+y,z
1/2+x,1/2-y,z
loop_
_atom_site_type_symbol
_atom_site_label
_atom_site_fract_x
_atom_site_fract_y
_atom_site_fract_z
Si Si1 0.089295 0.223272 0.930938
Si Si2 0.907984 0.502961 0.433618
Si Si3 0.042682 0.876402 0.841585
Si Si4 0.334060 0.044017 0.320595
Si Si5 0.325022 0.525293 0.871054
Si Si6 0.158931 0.786818 0.735711
O O1 0.114615 0.362113 0.932175
O O2 0.162266 0.135652 0.917612
O O3 0.020878 0.195435 0.881339
O O4 0.058371 0.196861 0.000000
O O5 0.880684 0.556241 0.500000
O O6 0.882632 0.545394 0.365247
O O7 0.000000 0.500000 0.435023
O O8 0.094613 0.809435 0.789116
O O9 0.108771 0.930225 0.886293
O O10 0.000000 0.000000 0.818903
O O11 0.367621 0.175980 0.307287
O O12 0.324484 0.000000 0.250000
O O13 0.253852 0.043907 0.358305
O O14 0.337920 0.592868 0.805019
O O15 0.250000 0.750000 0.750000
#
# Coordination Sequence:
#
# PCOD9528691 Si02
#       6
#    16  16  16  16  16  16
#     4  10  23  43  66  94 132 178 232 281 335 413
#     4  10  24  47  65  87 131 180 222 278 347 418
#     4  10  23  39  63  94 132 174 222 275 351 410
#     4  12  24  40  68  99 133 171 224 283 348 413
#     4  11  22  40  63  95 131 172 214 278 346 406
#     4  12  22  40  63  94 138 173 212 277 344 420
#
# _framework density 23.27346
#
# number of rings (size 3 to 8) (size 9 to 14) (size 15 to 20)
#    0.000    1.167    5.000    0.500    2.333    8.667 
#    0.000    0.000    0.000    1.000    0.000    0.000 
#    0.000    0.000    0.000    0.000    0.000    0.000 
#
# Total GULP energy -267320.510668 kJ/mol
# GULP energy per Si atom -5569.177306 kJ/mol
# Density = 2.322049 g / cm^3
# Si number density = 23.273460 Si / 1000 Ang^3
#
#
#
# Elastic Constant Matrix: (Units=GPa)
#
#
# Indices 1 2 3 4 5 6 
#
# 1 102.5160 16.1838 52.9527 0.0000 0.0000 0.0000
# 2 16.1838 55.8692 7.8221 0.0000 0.0000 0.0000
# 3 52.9527 7.8221 113.7879 0.0000 0.0000 0.0000
# 4 0.0000 0.0000 0.0000 9.8844 0.0000 0.0000
# 5 0.0000 0.0000 0.0000 0.0000 -50.1068 0.0000
# 6 0.0000 0.0000 0.0000 0.0000 0.0000 37.6423
#
#
#
# Elastic Compliance Matrix: (Units=1/GPa)
#
#
# Indices 1 2 3 4 5 6 
#
# 1 0.013328 -0.003021 -0.005995 0.000000 0.000000 0.000000
# 2 -0.003021 0.018758 0.000117 0.000000 0.000000 0.000000
# 3 -0.005995 0.000117 0.011570 0.000000 0.000000 0.000000
# 4 0.000000 0.000000 0.000000 0.101169 0.000000 0.000000
# 5 0.000000 0.000000 0.000000 0.000000 -0.019957 0.000000
# 6 0.000000 0.000000 0.000000 0.000000 0.000000 0.026566
#
#
# Mechanical properties :
#
#
# Convention : Reuss Voigt Hill
#
# Bulk Modulus (GPa) = 38.67454 47.34336 43.00895
# Shear Modulus (GPa) = 28.11330 12.49826 20.30578
#
# Velocity S-wave (km/s) = 3.47934 2.31988 2.95699
# Velocity P-wave (km/s) = 5.72665 5.24997 5.49348
#
# Compressibility (1/GPa) = 0.02585680
#
# Stress axis : x y z
#
# Youngs Moduli (GPa) = 75.03005 53.31095 86.43077
#
# Poissons Ratio (x) = 0.16108 0.51812
# Poissons Ratio (y) = 0.22670 -0.01008
# Poissons Ratio (z) = 0.44978 -0.00622
#
# Static dielectric constant tensor:
#      x y z
#    x 1.957290 0.000000 0.000000 
#    y 0.000000 1.963960 0.000000 
#    z 0.000000 0.000000 2.053570 
# 
# From -- ./inp_files/44811.got.cif
#   From: 2010.05.17/outbox.cif.g08.bks.cpg/sg72_23_cif.got.tgz:44811.got - 2010.06.03 17:03:01.
