data_PCOD9528380
_publ_section_title
;
Structure prediction by ZEFSAII (Michael W. Deem and Ramdas Pophale) SiO2 
 PCOD9528380
Probable space group: I B A M
;
_chemical_formula_sum "Si O2"
_cell_formula_units_Z 88
_cell_length_a 18.672543
_cell_length_b 11.336338
_cell_length_c 19.867573
_cell_angle_alpha 90.000000
_cell_angle_beta 90.000000
_cell_angle_gamma 90.000000
_cell_volume 4205.533259
_symmetry_space_group_name_H-M "I B A M"
_symmetry_group_IT_number 72
_symmetry_cell_setting 'orthorhombic'
loop_
_space_group_symop_operation_xyz
x,y,z
-x,-y,z
x,-y,1/2-z
-x,y,1/2-z
-x,-y,-z
x,y,-z
-x,y,1/2+z
x,-y,1/2+z
1/2+x,1/2+y,1/2+z
1/2-x,1/2-y,1/2+z
1/2+x,1/2-y,-z
1/2-x,1/2+y,-z
1/2-x,1/2-y,1/2-z
1/2+x,1/2+y,1/2-z
1/2-x,1/2+y,z
1/2+x,1/2-y,z
loop_
_atom_site_type_symbol
_atom_site_label
_atom_site_fract_x
_atom_site_fract_y
_atom_site_fract_z
Si Si1 0.000000 0.656612 0.250000
Si Si2 0.608844 0.258141 0.146752
Si Si3 0.519017 0.632110 0.921464
Si Si4 0.390036 0.834630 0.354753
Si Si5 0.678578 0.036110 0.076534
Si Si6 0.240726 0.917783 0.315486
O O1 0.944199 0.733402 0.208073
O O2 0.947847 0.601045 0.306085
O O3 0.557301 0.303840 0.087705
O O4 0.644335 0.139752 0.119574
O O5 0.669948 0.344183 0.172866
O O6 0.500000 0.500000 0.896602
O O7 0.576748 0.710981 0.879840
O O8 0.540198 0.626397 0.000000
O O9 0.312890 0.835791 0.316902
O O10 0.373376 0.922086 0.416703
O O11 0.748584 0.997050 0.117583
O O12 0.691346 0.068582 0.000000
O O13 0.240646 0.000000 0.250000
#
# Coordination Sequence:
#
# PCOD9528380 Si02
#       6
#     8  16  16  16  16  16
#     4  10  22  39  65  94 128 174 213 283 344 406
#     4  11  24  41  68  97 136 173 233 282 348 423
#     4  10  22  41  65  98 135 180 229 284 350 420
#     4   9  22  42  65  96 135 175 231 279 350 416
#     4  10  23  42  66  99 135 181 230 283 351 413
#     4  10  24  44  67  98 137 184 235 289 354 417
#
# _framework density 20.924813
#
# number of rings (size 3 to 8) (size 9 to 14) (size 15 to 20)
#    1.091    0.909    0.000    2.182    0.000   12.364 
#    0.000   10.455    0.000    0.000    0.000    0.000 
#    0.000    0.000    0.000    0.000    0.000    0.000 
#
# Total GULP energy -245189.259939 kJ/mol
# GULP energy per Si atom -5572.483180 kJ/mol
# Density = 2.087719 g / cm^3
# Si number density = 20.924813 Si / 1000 Ang^3
#
#
#
# Elastic Constant Matrix: (Units=GPa)
#
#
# Indices 1 2 3 4 5 6 
#
# 1 110.1482 31.1823 43.0962 0.0000 0.0000 0.0000
# 2 31.1823 94.9365 37.4192 0.0000 0.0000 0.0000
# 3 43.0962 37.4192 116.2300 0.0000 0.0000 0.0000
# 4 0.0000 0.0000 0.0000 0.0161 0.0000 0.0000
# 5 0.0000 0.0000 0.0000 0.0000 61.8523 0.0000
# 6 0.0000 0.0000 0.0000 0.0000 0.0000 43.4965
#
#
#
# Elastic Compliance Matrix: (Units=1/GPa)
#
#
# Indices 1 2 3 4 5 6 
#
# 1 0.011043 -0.002306 -0.003352 0.000000 0.000000 0.000000
# 2 -0.002306 0.012546 -0.003184 0.000000 0.000000 0.000000
# 3 -0.003352 -0.003184 0.010872 0.000000 0.000000 0.000000
# 4 0.000000 0.000000 0.000000 61.921256 0.000000 0.000000
# 5 0.000000 0.000000 0.000000 0.000000 0.016168 0.000000
# 6 0.000000 0.000000 0.000000 0.000000 0.000000 0.022990
#
#
# Mechanical properties :
#
#
# Convention : Reuss Voigt Hill
#
# Bulk Modulus (GPa) = 59.60821 60.52333 60.06577
# Shear Modulus (GPa) = 0.08062 35.04746 17.56404
#
# Velocity S-wave (km/s) = 0.19650 4.09702 2.90036
# Velocity P-wave (km/s) = 5.34791 7.16713 6.32329
#
# Compressibility (1/GPa) = 0.01677621
#
# Stress axis : x y z
#
# Youngs Moduli (GPa) = 90.55486 79.70860 91.98245
#
# Poissons Ratio (x) = 0.18380 0.30835
# Poissons Ratio (y) = 0.20881 0.29287
# Poissons Ratio (z) = 0.30356 0.25379
#
# Static dielectric constant tensor:
#      x y z
#    x 1.827190 0.000000 0.000000 
#    y 0.000000 1.834140 0.000000 
#    z 0.000000 0.000000 1.764610 
# 
# From -- ./inp_files/38879.got.cif
#   From: 2010.05.17/outbox.cif.g08.bks.cpg/sg72_20_cif.got.tgz:38879.got - 2010.06.03 17:03:01.
