data_PCOD9528292
_publ_section_title
;
Structure prediction by ZEFSAII (Michael W. Deem and Ramdas Pophale) SiO2 
 PCOD9528292
Probable space group: I B A M
;
_chemical_formula_sum "Si O2"
_cell_formula_units_Z 56
_cell_length_a 4.789896
_cell_length_b 32.646622
_cell_length_c 13.460352
_cell_angle_alpha 90.000000
_cell_angle_beta 90.000000
_cell_angle_gamma 90.000000
_cell_volume 2104.848062
_symmetry_space_group_name_H-M "I B A M"
_symmetry_group_IT_number 72
_symmetry_cell_setting 'orthorhombic'
loop_
_space_group_symop_operation_xyz
x,y,z
-x,-y,z
x,-y,1/2-z
-x,y,1/2-z
-x,-y,-z
x,y,-z
-x,y,1/2+z
x,-y,1/2+z
1/2+x,1/2+y,1/2+z
1/2-x,1/2-y,1/2+z
1/2+x,1/2-y,-z
1/2-x,1/2+y,-z
1/2-x,1/2-y,1/2-z
1/2+x,1/2+y,1/2-z
1/2-x,1/2+y,z
1/2+x,1/2-y,z
loop_
_atom_site_type_symbol
_atom_site_label
_atom_site_fract_x
_atom_site_fract_y
_atom_site_fract_z
Si Si1 0.000000 0.658175 0.250000
Si Si2 0.397606 0.397495 0.386751
Si Si3 0.115221 0.542911 0.610072
Si Si4 0.312796 0.277069 0.117706
O O1 0.768453 0.634679 0.317861
O O2 0.814728 0.685079 0.174995
O O3 0.465448 0.381598 0.500000
O O4 0.663770 0.423948 0.347130
O O5 0.163692 0.431615 0.398417
O O6 0.231359 0.533152 0.500000
O O7 0.000000 0.500000 0.651431
O O8 0.625978 0.263280 0.140701
O O9 0.288316 0.284177 0.000000
#
# Coordination Sequence:
#
# PCOD9528292 Si02
#       4
#     8  16  16  16
#     4  12  24  40  63  96 140 176 216 284 357 410
#     4  10  22  37  59  94 130 169 218 274 339 405
#     4   9  18  37  63  89 123 168 216 267 328 403
#     4  10  23  43  66  92 126 177 234 280 332 408
#
# _framework density 26.605245
#
# number of rings (size 3 to 8) (size 9 to 14) (size 15 to 20)
#    0.000    2.000    0.000    2.571    0.000    9.143 
#    0.000    9.286    0.000    3.429    0.000    0.000 
#    0.000   18.286    0.000    0.000    0.000    0.000 
#
# Total GULP energy -156614.573280 kJ/mol
# GULP energy per Si atom -5593.377617 kJ/mol
# Density = 2.654469 g / cm^3
# Si number density = 26.605245 Si / 1000 Ang^3
#
#
#
# Elastic Constant Matrix: (Units=GPa)
#
#
# Indices 1 2 3 4 5 6 
#
# 1 143.0437 29.9412 22.3984 0.0000 0.0000 0.0000
# 2 29.9412 135.3684 63.7105 0.0000 0.0000 0.0000
# 3 22.3984 63.7105 146.0789 0.0000 0.0000 0.0000
# 4 0.0000 0.0000 0.0000 -19.9390 0.0000 0.0000
# 5 0.0000 0.0000 0.0000 0.0000 21.3648 0.0000
# 6 0.0000 0.0000 0.0000 0.0000 0.0000 52.5944
#
#
#
# Elastic Compliance Matrix: (Units=1/GPa)
#
#
# Indices 1 2 3 4 5 6 
#
# 1 0.007362 -0.001380 -0.000527 0.000000 0.000000 0.000000
# 2 -0.001380 0.009554 -0.003955 0.000000 0.000000 0.000000
# 3 -0.000527 -0.003955 0.008651 0.000000 0.000000 0.000000
# 4 0.000000 0.000000 0.000000 -0.050153 0.000000 0.000000
# 5 0.000000 0.000000 0.000000 0.000000 0.046806 0.000000
# 6 0.000000 0.000000 0.000000 0.000000 0.000000 0.019013
#
#
# Mechanical properties :
#
#
# Convention : Reuss Voigt Hill
#
# Bulk Modulus (GPa) = 72.23967 72.95460 72.59713
# Shear Modulus (GPa) = 86.84547 31.36677 59.10612
#
# Velocity S-wave (km/s) = 5.71954 3.43734 4.71849
# Velocity P-wave (km/s) = 8.41599 6.57529 7.55193
#
# Compressibility (1/GPa) = 0.01384281
#
# Stress axis : x y z
#
# Youngs Moduli (GPa) = 135.82683 104.66710 115.58807
#
# Poissons Ratio (x) = 0.14449 0.06089
# Poissons Ratio (y) = 0.18751 0.45718
# Poissons Ratio (z) = 0.07155 0.41398
#
# Static dielectric constant tensor:
#      x y z
#    x 2.007200 0.000000 0.000000 
#    y 0.000000 2.093640 0.000000 
#    z 0.000000 0.000000 2.849240 
# 
# From -- ./inp_files/17530.got.cif
#   From: 2010.05.17/outbox.cif.g08.bks.cpg/sg72_9_cif.got.tgz:17530.got - 2010.06.03 17:03:01.
