data_PCOD9528219
_publ_section_title
;
Structure prediction by ZEFSAII (Michael W. Deem and Ramdas Pophale) SiO2 
 PCOD9528219
Probable space group: I B A M
;
_chemical_formula_sum "Si O2"
_cell_formula_units_Z 116
_cell_length_a 27.636702
_cell_length_b 8.245111
_cell_length_c 23.680027
_cell_angle_alpha 90.000000
_cell_angle_beta 90.000000
_cell_angle_gamma 90.000000
_cell_volume 5395.912712
_symmetry_space_group_name_H-M "I B A M"
_symmetry_group_IT_number 72
_symmetry_cell_setting 'orthorhombic'
loop_
_space_group_symop_operation_xyz
x,y,z
-x,-y,z
x,-y,1/2-z
-x,y,1/2-z
-x,-y,-z
x,y,-z
-x,y,1/2+z
x,-y,1/2+z
1/2+x,1/2+y,1/2+z
1/2-x,1/2-y,1/2+z
1/2+x,1/2-y,-z
1/2-x,1/2+y,-z
1/2-x,1/2-y,1/2-z
1/2+x,1/2+y,1/2-z
1/2-x,1/2+y,z
1/2+x,1/2-y,z
loop_
_atom_site_type_symbol
_atom_site_label
_atom_site_fract_x
_atom_site_fract_y
_atom_site_fract_z
Si Si1 0.263412 0.749546 0.682994
Si Si2 0.588193 0.940611 0.434636
Si Si3 0.982047 0.681371 0.161701
Si Si4 0.141761 0.081157 0.332614
Si Si5 0.892096 0.750650 0.225458
Si Si6 0.675525 0.934353 0.352166
Si Si7 0.562751 0.310564 0.408225
Si Si8 0.000000 0.000000 0.000000
O O1 0.250000 0.750000 0.750000
O O2 0.301071 0.603696 0.670896
O O3 0.214602 0.710448 0.649282
O O4 0.293167 0.906893 0.662868
O O5 0.586148 0.887821 0.500000
O O6 0.569424 0.126140 0.430134
O O7 0.553212 0.834239 0.394052
O O8 0.642023 0.940566 0.407693
O O9 0.948309 0.734026 0.212771
O O10 0.000000 0.500000 0.172393
O O11 0.026869 0.793089 0.145462
O O12 0.121728 0.217070 0.289280
O O13 0.114534 0.118135 0.390444
O O14 0.125742 0.909437 0.308454
O O15 0.862981 0.603800 0.197295
O O16 0.535549 0.422144 0.451710
#
# Coordination Sequence:
#
# PCOD9528219 Si02
#       8
#    16  16  16  16  16  16  16   4
#     4  12  23  37  66  97 129 169 216 272 336 410
#     4  10  21  42  67  92 130 171 223 282 331 388
#     4   9  21  39  64  96 128 171 222 268 333 399
#     4  11  23  40  63  95 136 173 217 278 332 407
#     4  10  22  40  61  94 135 173 212 267 342 399
#     4  11  23  41  65  98 130 170 222 271 336 414
#     4  11  22  39  61  96 127 174 225 276 332 388
#     4  12  24  36  66  90 128 176 232 282 322 396
#
# _framework density 21.497754
#
# number of rings (size 3 to 8) (size 9 to 14) (size 15 to 20)
#    0.000    1.379    3.448    2.069    2.897    1.379 
#    0.000    4.138    1.517    0.000    0.000    0.000 
#    0.000    0.000    0.000    0.000    0.000    0.000 
#
# Total GULP energy -323910.494001 kJ/mol
# GULP energy per Si atom -5584.663690 kJ/mol
# Density = 2.144882 g / cm^3
# Si number density = 21.497754 Si / 1000 Ang^3
#
#
#
# Elastic Constant Matrix: (Units=GPa)
#
#
# Indices 1 2 3 4 5 6 
#
# 1 127.5536 7.8142 21.3725 0.0000 0.0000 0.0000
# 2 7.8142 50.8561 -2.4027 0.0000 0.0000 0.0000
# 3 21.3725 -2.4027 62.1982 0.0000 0.0000 0.0000
# 4 0.0000 0.0000 0.0000 -2.2454 0.0000 0.0000
# 5 0.0000 0.0000 0.0000 0.0000 -14.9486 0.0000
# 6 0.0000 0.0000 0.0000 0.0000 0.0000 41.6996
#
#
#
# Elastic Compliance Matrix: (Units=1/GPa)
#
#
# Indices 1 2 3 4 5 6 
#
# 1 0.008422 -0.001433 -0.002949 0.000000 0.000000 0.000000
# 2 -0.001433 0.019943 0.001263 0.000000 0.000000 0.000000
# 3 -0.002949 0.001263 0.017140 0.000000 0.000000 0.000000
# 4 0.000000 0.000000 0.000000 -0.445360 0.000000 0.000000
# 5 0.000000 0.000000 0.000000 0.000000 -0.066896 0.000000
# 6 0.000000 0.000000 0.000000 0.000000 0.000000 0.023981
#
#
# Mechanical properties :
#
#
# Convention : Reuss Voigt Hill
#
# Bulk Modulus (GPa) = 25.46768 32.68622 29.07695
# Shear Modulus (GPa) = -11.80800 19.15604 3.67402
#
# Velocity S-wave (km/s) = -2.34619 2.98832 1.30871
# Velocity P-wave (km/s) = 2.12907 5.21001 3.97977
#
# Compressibility (1/GPa) = 0.03926545
#
# Stress axis : x y z
#
# Youngs Moduli (GPa) = 118.73908 50.14231 58.34360
#
# Poissons Ratio (x) = 0.07187 0.17207
# Poissons Ratio (y) = 0.17020 -0.07368
# Poissons Ratio (z) = 0.35019 -0.06333
#
# Static dielectric constant tensor:
#      x y z
#    x 1.800160 0.000000 0.000000 
#    y 0.000000 1.839690 0.000000 
#    z 0.000000 0.000000 1.753110 
# 
# From -- ./inp_files/42692.got.cif
#   From: 2010.05.17/outbox.cif.g08.bks.cpg/sg72_22_cif.got.tgz:42692.got - 2010.06.03 17:03:01.
