data_PCOD9528989
_publ_section_title
;
Structure prediction by ZEFSAII (Michael W. Deem and Ramdas Pophale) SiO2 
 PCOD9528989
Probable space group: I B A M
;
_chemical_formula_sum "Si O2"
_cell_formula_units_Z 96
_cell_length_a 7.148729
_cell_length_b 26.733828
_cell_length_c 19.168722
_cell_angle_alpha 90.000000
_cell_angle_beta 90.000000
_cell_angle_gamma 90.000000
_cell_volume 3663.389888
_symmetry_space_group_name_H-M "I B A M"
_symmetry_group_IT_number 72
_symmetry_cell_setting 'orthorhombic'
loop_
_space_group_symop_operation_xyz
x,y,z
-x,-y,z
x,-y,1/2-z
-x,y,1/2-z
-x,-y,-z
x,y,-z
-x,y,1/2+z
x,-y,1/2+z
1/2+x,1/2+y,1/2+z
1/2-x,1/2-y,1/2+z
1/2+x,1/2-y,-z
1/2-x,1/2+y,-z
1/2-x,1/2-y,1/2-z
1/2+x,1/2+y,1/2-z
1/2-x,1/2+y,z
1/2+x,1/2-y,z
loop_
_atom_site_type_symbol
_atom_site_label
_atom_site_fract_x
_atom_site_fract_y
_atom_site_fract_z
Si Si1 0.387266 0.334981 0.000000
Si Si2 0.226465 0.493975 0.669761
Si Si3 0.211987 0.685916 0.718313
Si Si4 0.246220 0.714904 0.134725
Si Si5 0.755312 0.400466 0.381242
Si Si6 0.486259 0.231928 0.500000
Si Si7 0.197022 0.603318 0.917579
O O1 0.374012 0.370883 0.934366
O O2 0.546362 0.292086 0.000000
O O3 0.196505 0.301764 0.000000
O O4 0.285891 0.500000 0.750000
O O5 0.297213 0.542243 0.628186
O O6 0.266066 0.442263 0.630669
O O7 0.000000 0.500000 0.670101
O O8 0.321886 0.702389 0.786343
O O9 0.235807 0.724486 0.654458
O O10 0.245074 0.630441 0.690803
O O11 0.000000 0.688679 0.750000
O O12 0.092543 0.724603 0.072631
O O13 0.264652 0.656290 0.111363
O O14 0.969369 0.396923 0.409099
O O15 0.237486 0.597601 0.000000
#
# Coordination Sequence:
#
# PCOD9528989 Si02
#       7
#     8  16  16  16  16   8  16
#     4  12  22  36  58  81 120 157 198 239 291 349
#     4   9  20  30  46  72 107 155 186 228 295 355
#     4  11  21  33  52  76 107 148 188 237 281 344
#     4  11  21  33  52  75 108 148 192 228 293 340
#     4  11  19  32  52  75 112 154 183 236 284 350
#     4  12  22  40  53  82 111 162 192 241 293 347
#     4  11  19  32  50  74 113 152 190 231 292 357
#
# _framework density 26.205237
#
# number of rings (size 3 to 8) (size 9 to 14) (size 15 to 20)
#    0.000    1.167    6.667    1.000    3.500    1.000 
#    0.000    0.000    0.000    0.000    0.000    0.000 
#    0.000   30.000    0.000    0.000    0.000    0.000 
#
# Total GULP energy -267444.979335 kJ/mol
# GULP energy per Si atom -5571.770403 kJ/mol
# Density = 2.614559 g / cm^3
# Si number density = 26.205237 Si / 1000 Ang^3
#
#
#
# Elastic Constant Matrix: (Units=GPa)
#
#
# Indices 1 2 3 4 5 6 
#
# 1 40.9539 -2.1674 18.5611 0.0000 0.0000 0.0000
# 2 -2.1674 232.7991 70.1183 0.0000 0.0000 0.0000
# 3 18.5611 70.1183 166.5626 0.0000 0.0000 0.0000
# 4 0.0000 0.0000 0.0000 42.9037 0.0000 0.0000
# 5 0.0000 0.0000 0.0000 0.0000 -26.4465 0.0000
# 6 0.0000 0.0000 0.0000 0.0000 0.0000 13.7067
#
#
#
# Elastic Compliance Matrix: (Units=1/GPa)
#
#
# Indices 1 2 3 4 5 6 
#
# 1 0.026045 0.001279 -0.003441 0.000000 0.000000 0.000000
# 2 0.001279 0.004982 -0.002240 0.000000 0.000000 0.000000
# 3 -0.003441 -0.002240 0.007330 0.000000 0.000000 0.000000
# 4 0.000000 0.000000 0.000000 0.023308 0.000000 0.000000
# 5 0.000000 0.000000 0.000000 0.000000 -0.037812 0.000000
# 6 0.000000 0.000000 0.000000 0.000000 0.000000 0.072957
#
#
# Mechanical properties :
#
#
# Convention : Reuss Voigt Hill
#
# Bulk Modulus (GPa) = 33.83693 68.14885 50.99289
# Shear Modulus (GPa) = 43.30339 29.61968 36.46154
#
# Velocity S-wave (km/s) = 4.06947 3.36564 3.73417
# Velocity P-wave (km/s) = 5.91786 6.41604 6.17198
#
# Compressibility (1/GPa) = 0.02955351
#
# Stress axis : x y z
#
# Youngs Moduli (GPa) = 38.39547 200.71931 136.42435
#
# Poissons Ratio (x) = -0.25668 0.46939
# Poissons Ratio (y) = -0.04910 0.30557
# Poissons Ratio (z) = 0.13211 0.44958
#
# Static dielectric constant tensor:
#      x y z
#    x 2.177240 0.000000 0.000000 
#    y 0.000000 1.993350 0.000000 
#    z 0.000000 0.000000 2.267780 
# 
# From -- ./inp_files/29497.got.cif
#   From: 2010.05.17/outbox.cif.g08.bks.cpg/sg72_15_cif.got.tgz:29497.got - 2010.06.03 17:03:01.
