data_PCOD9528555
_publ_section_title
;
Structure prediction by ZEFSAII (Michael W. Deem and Ramdas Pophale) SiO2 
 PCOD9528555
Probable space group: I B A M
;
_chemical_formula_sum "Si O2"
_cell_formula_units_Z 116
_cell_length_a 12.846521
_cell_length_b 25.237880
_cell_length_c 17.829873
_cell_angle_alpha 90.000000
_cell_angle_beta 90.000000
_cell_angle_gamma 90.000000
_cell_volume 5780.782799
_symmetry_space_group_name_H-M "I B A M"
_symmetry_group_IT_number 72
_symmetry_cell_setting 'orthorhombic'
loop_
_space_group_symop_operation_xyz
x,y,z
-x,-y,z
x,-y,1/2-z
-x,y,1/2-z
-x,-y,-z
x,y,-z
-x,y,1/2+z
x,-y,1/2+z
1/2+x,1/2+y,1/2+z
1/2-x,1/2-y,1/2+z
1/2+x,1/2-y,-z
1/2-x,1/2+y,-z
1/2-x,1/2-y,1/2-z
1/2+x,1/2+y,1/2-z
1/2-x,1/2+y,z
1/2+x,1/2-y,z
loop_
_atom_site_type_symbol
_atom_site_label
_atom_site_fract_x
_atom_site_fract_y
_atom_site_fract_z
Si Si1 0.989903 0.377039 0.839161
Si Si2 0.366404 0.785074 0.410215
Si Si3 0.342774 0.583289 0.694316
Si Si4 0.681438 0.058410 0.088852
Si Si5 0.954723 0.190568 0.822845
Si Si6 0.843128 0.848766 0.911234
Si Si7 0.000000 0.000000 0.250000
Si Si8 0.778676 0.441712 0.155718
O O1 0.960125 0.322983 0.881709
O O2 0.888997 0.413373 0.851251
O O3 0.000000 0.368371 0.750000
O O4 0.087339 0.408806 0.873514
O O5 0.369823 0.781464 0.500000
O O6 0.383113 0.728876 0.371340
O O7 0.255945 0.812016 0.388710
O O8 0.286780 0.587372 0.614626
O O9 0.392070 0.640248 0.709442
O O10 0.430085 0.538217 0.699184
O O11 0.261404 0.565649 0.758998
O O12 0.700685 0.000383 0.125112
O O13 0.666641 0.054583 0.000000
O O14 0.000000 0.220240 0.750000
O O15 0.051362 0.169161 0.871519
O O16 0.807205 0.908381 0.890447
O O17 0.855676 0.844332 0.000000
#
# Coordination Sequence:
#
# PCOD9528555 Si02
#       8
#    16  16  16  16  16  16   4  16
#     4  11  23  41  70 101 133 181 228 277 341 423
#     4  10  24  44  66  95 138 180 224 288 352 411
#     4  12  24  42  68  97 130 175 230 277 333 404
#     4  12  26  41  66 105 144 178 224 290 351 411
#     4  12  24  41  68 101 128 177 234 285 339 410
#     4  10  22  42  66  94 131 177 226 279 350 419
#     4  12  20  44  70  86 124 184 222 284 330 398
#     4  11  21  43  67  95 135 181 223 275 340 414
#
# _framework density 20.066486999999999
#
# number of rings (size 3 to 8) (size 9 to 14) (size 15 to 20)
#    0.000    0.828    4.828    2.069    0.000    5.517 
#    0.000    1.724    0.000    0.000    0.000    0.000 
#    0.000    0.000    0.000    0.000    0.000    0.000 
#
# Total GULP energy -324002.468803 kJ/mol
# GULP energy per Si atom -5586.249462 kJ/mol
# Density = 2.002081 g / cm^3
# Si number density = 20.066487 Si / 1000 Ang^3
#
#
#
# Elastic Constant Matrix: (Units=GPa)
#
#
# Indices 1 2 3 4 5 6 
#
# 1 54.3756 12.3314 16.6960 0.0000 0.0000 0.0000
# 2 12.3314 80.4097 24.8033 0.0000 0.0000 0.0000
# 3 16.6960 24.8033 99.2026 -0.0001 0.0000 0.0000
# 4 0.0000 0.0000 -0.0001 24.8007 0.0000 0.0000
# 5 0.0000 0.0000 0.0000 0.0000 25.2828 0.0000
# 6 0.0000 0.0000 0.0000 0.0000 0.0000 17.7296
#
#
#
# Elastic Compliance Matrix: (Units=1/GPa)
#
#
# Indices 1 2 3 4 5 6 
#
# 1 0.019736 -0.002169 -0.002779 0.000000 0.000000 0.000000
# 2 -0.002169 0.013714 -0.003064 0.000000 0.000000 0.000000
# 3 -0.002779 -0.003064 0.011314 0.000000 0.000000 0.000000
# 4 0.000000 0.000000 0.000000 0.040321 0.000000 0.000000
# 5 0.000000 0.000000 0.000000 0.000000 0.039553 0.000000
# 6 0.000000 0.000000 0.000000 0.000000 0.000000 0.056403
#
#
# Mechanical properties :
#
#
# Convention : Reuss Voigt Hill
#
# Bulk Modulus (GPa) = 34.79536 37.96103 36.37820
# Shear Modulus (GPa) = 24.19605 25.57312 24.88458
#
# Velocity S-wave (km/s) = 3.47622 3.57377 3.52533
# Velocity P-wave (km/s) = 5.78704 5.99899 5.89397
#
# Compressibility (1/GPa) = 0.02873946
#
# Stress axis : x y z
#
# Youngs Moduli (GPa) = 50.66905 72.91791 88.38490
#
# Poissons Ratio (x) = 0.15819 0.24564
# Poissons Ratio (y) = 0.10992 0.27079
# Poissons Ratio (z) = 0.14082 0.22340
#
# Static dielectric constant tensor:
#      x y z
#    x 1.703640 0.000000 0.000000 
#    y 0.000000 1.733270 0.000000 
#    z 0.000000 0.000000 1.708780 
# 
# From -- ./inp_files/29718.got.cif
#   From: 2010.05.17/outbox.cif.g08.bks.cpg/sg72_15_cif.got.tgz:29718.got - 2010.06.03 17:03:01.
