data_PCOD9528601
_publ_section_title
;
Structure prediction by ZEFSAII (Michael W. Deem and Ramdas Pophale) SiO2 
 PCOD9528601
Probable space group: I B A M
;
_chemical_formula_sum "Si O2"
_cell_formula_units_Z 80
_cell_length_a 29.503172
_cell_length_b 7.465233
_cell_length_c 17.107162
_cell_angle_alpha 90.000000
_cell_angle_beta 90.000000
_cell_angle_gamma 90.000000
_cell_volume 3767.819127
_symmetry_space_group_name_H-M "I B A M"
_symmetry_group_IT_number 72
_symmetry_cell_setting 'orthorhombic'
loop_
_space_group_symop_operation_xyz
x,y,z
-x,-y,z
x,-y,1/2-z
-x,y,1/2-z
-x,-y,-z
x,y,-z
-x,y,1/2+z
x,-y,1/2+z
1/2+x,1/2+y,1/2+z
1/2-x,1/2-y,1/2+z
1/2+x,1/2-y,-z
1/2-x,1/2+y,-z
1/2-x,1/2-y,1/2-z
1/2+x,1/2+y,1/2-z
1/2-x,1/2+y,z
1/2+x,1/2-y,z
loop_
_atom_site_type_symbol
_atom_site_label
_atom_site_fract_x
_atom_site_fract_y
_atom_site_fract_z
Si Si1 0.448008 0.528100 0.408513
Si Si2 0.607999 0.842181 0.141552
Si Si3 0.702077 0.871824 0.912662
Si Si4 0.780457 0.281048 0.326851
Si Si5 0.882196 0.248148 0.676479
O O1 0.500000 0.500000 0.384651
O O2 0.443629 0.481719 0.500000
O O3 0.432879 0.733667 0.396335
O O4 0.414840 0.401510 0.358552
O O5 0.654829 0.773369 0.102691
O O6 0.608906 0.790324 0.232708
O O7 0.608822 0.058793 0.134154
O O8 0.747379 0.760668 0.898981
O O9 0.705202 0.015870 0.843021
O O10 0.700585 0.946570 0.000000
O O11 0.750000 0.250000 0.250000
O O12 0.829288 0.186704 0.327958
#
# Coordination Sequence:
#
# PCOD9528601 Si02
#       5
#    16  16  16  16  16
#     4  11  26  45  67  97 133 175 224 281 345 409
#     4  10  22  43  67  93 130 170 217 279 339 403
#     4  11  23  37  58  92 129 170 219 269 328 397
#     4  11  22  39  61  89 129 173 216 266 325 397
#     4  10  23  42  68  97 128 173 223 275 339 405
#
# _framework density 21.232441999999999
#
# number of rings (size 3 to 8) (size 9 to 14) (size 15 to 20)
#    0.000    1.400    2.000    2.400    2.800    8.800 
#    0.000    4.000    0.000    0.000    0.000    0.000 
#    0.000    0.000    0.000    0.000    0.000    0.000 
#
# Total GULP energy -223254.378016 kJ/mol
# GULP energy per Si atom -5581.359450 kJ/mol
# Density = 2.118412 g / cm^3
# Si number density = 21.232442 Si / 1000 Ang^3
#
#
#
# Elastic Constant Matrix: (Units=GPa)
#
#
# Indices 1 2 3 4 5 6 
#
# 1 164.5622 45.5946 44.1550 0.0000 0.0000 0.0000
# 2 45.5946 64.3080 18.2579 0.0000 0.0000 0.0000
# 3 44.1550 18.2579 89.3410 0.0000 0.0000 0.0000
# 4 0.0000 0.0000 0.0000 26.7683 0.0000 0.0000
# 5 0.0000 0.0000 0.0000 0.0000 22.2738 0.0000
# 6 0.0000 0.0000 0.0000 0.0000 0.0000 29.5620
#
#
#
# Elastic Compliance Matrix: (Units=1/GPa)
#
#
# Indices 1 2 3 4 5 6 
#
# 1 0.008288 -0.005003 -0.003074 0.000000 0.000000 0.000000
# 2 -0.005003 0.019529 -0.001518 0.000000 0.000000 0.000000
# 3 -0.003074 -0.001518 0.013022 0.000000 0.000000 0.000000
# 4 0.000000 0.000000 0.000000 0.037358 0.000000 0.000000
# 5 0.000000 0.000000 0.000000 0.000000 0.044896 0.000000
# 6 0.000000 0.000000 0.000000 0.000000 0.000000 0.033827
#
#
# Mechanical properties :
#
#
# Convention : Reuss Voigt Hill
#
# Bulk Modulus (GPa) = 46.19231 59.35847 52.77539
# Shear Modulus (GPa) = 27.27393 29.73441 28.50417
#
# Velocity S-wave (km/s) = 3.58794 3.74628 3.66796
# Velocity P-wave (km/s) = 6.24237 6.83594 6.54588
#
# Compressibility (1/GPa) = 0.02164863
#
# Stress axis : x y z
#
# Youngs Moduli (GPa) = 120.66112 51.20700 76.79118
#
# Poissons Ratio (x) = 0.25621 0.23602
# Poissons Ratio (y) = 0.60371 0.11658
# Poissons Ratio (z) = 0.37085 0.07774
#
# Static dielectric constant tensor:
#      x y z
#    x 1.894920 0.000000 0.000000 
#    y 0.000000 1.889450 0.000000 
#    z 0.000000 0.000000 1.643840 
# 
# From -- ./inp_files/33789.got.cif
#   From: 2010.05.17/outbox.cif.g08.bks.cpg/sg72_17_cif.got.tgz:33789.got - 2010.06.03 17:03:01.
