data_PCOD9528871
_publ_section_title
;
Structure prediction by ZEFSAII (Michael W. Deem and Ramdas Pophale) SiO2 
 PCOD9528871
Probable space group: I B A M
;
_chemical_formula_sum "Si O2"
_cell_formula_units_Z 80
_cell_length_a 10.595043
_cell_length_b 17.349456
_cell_length_c 21.175309
_cell_angle_alpha 90.000000
_cell_angle_beta 90.000000
_cell_angle_gamma 90.000000
_cell_volume 3892.407870
_symmetry_space_group_name_H-M "I B A M"
_symmetry_group_IT_number 72
_symmetry_cell_setting 'orthorhombic'
loop_
_space_group_symop_operation_xyz
x,y,z
-x,-y,z
x,-y,1/2-z
-x,y,1/2-z
-x,-y,-z
x,y,-z
-x,y,1/2+z
x,-y,1/2+z
1/2+x,1/2+y,1/2+z
1/2-x,1/2-y,1/2+z
1/2+x,1/2-y,-z
1/2-x,1/2+y,-z
1/2-x,1/2-y,1/2-z
1/2+x,1/2+y,1/2-z
1/2-x,1/2+y,z
1/2+x,1/2-y,z
loop_
_atom_site_type_symbol
_atom_site_label
_atom_site_fract_x
_atom_site_fract_y
_atom_site_fract_z
Si Si1 0.676177 0.175830 0.000000
Si Si2 0.605864 0.807466 0.000000
Si Si3 0.766600 0.837438 0.628838
Si Si4 0.752772 0.156613 0.385353
Si Si5 0.501479 0.586698 0.928751
Si Si6 0.650211 0.408371 0.754478
O O1 0.791799 0.237619 0.000000
O O2 0.690228 0.132192 0.067115
O O3 0.539775 0.216004 0.000000
O O4 0.634251 0.850071 0.933296
O O5 0.737245 0.747087 0.631499
O O6 0.910034 0.856035 0.609085
O O7 0.764369 0.875281 0.697338
O O8 0.779474 0.114426 0.319306
O O9 0.864959 0.123107 0.427742
O O10 0.500000 0.500000 0.900873
O O11 0.550282 0.579094 0.000000
O O12 0.646268 0.500000 0.750000
O O13 0.500000 0.382341 0.750000
#
# Coordination Sequence:
#
# PCOD9528871 Si02
#       6
#     8   8  16  16  16  16
#     4  10  24  40  66 101 141 179 227 287 349 411
#     4  10  24  40  66 101 141 179 227 287 349 411
#     4  11  23  37  66 102 141 175 230 292 344 401
#     4  11  23  37  66 102 141 175 230 292 344 401
#     4  11  22  39  67 105 139 182 232 282 341 417
#     4  11  23  42  67  99 139 188 242 290 341 422
#
# _framework density 20.552831000000001
#
# number of rings (size 3 to 8) (size 9 to 14) (size 15 to 20)
#    0.000    1.200    4.000    1.800   11.200    0.000 
#    0.000    1.000    0.000   10.800    0.000    0.000 
#    0.000    0.000    0.000    0.000    0.000    0.000 
#
# Total GULP energy -222777.199713 kJ/mol
# GULP energy per Si atom -5569.429993 kJ/mol
# Density = 2.050605 g / cm^3
# Si number density = 20.552831 Si / 1000 Ang^3
#
#
#
# Elastic Constant Matrix: (Units=GPa)
#
#
# Indices 1 2 3 4 5 6 
#
# 1 80.9778 20.3152 25.6643 0.0000 0.0000 0.0000
# 2 20.3152 92.8715 28.8520 0.0000 0.0000 0.0000
# 3 25.6643 28.8520 196.3983 0.0000 0.0000 0.0000
# 4 0.0000 0.0000 0.0000 66.3764 0.0000 0.0000
# 5 0.0000 0.0000 0.0000 0.0000 -11.0085 0.0000
# 6 0.0000 0.0000 0.0000 0.0000 0.0000 21.7567
#
#
#
# Elastic Compliance Matrix: (Units=1/GPa)
#
#
# Indices 1 2 3 4 5 6 
#
# 1 0.013416 -0.002504 -0.001385 0.000000 0.000000 0.000000
# 2 -0.002504 0.011750 -0.001399 0.000000 0.000000 0.000000
# 3 -0.001385 -0.001399 0.005478 0.000000 0.000000 0.000000
# 4 0.000000 0.000000 0.000000 0.015066 0.000000 0.000000
# 5 0.000000 0.000000 0.000000 0.000000 -0.090839 0.000000
# 6 0.000000 0.000000 0.000000 0.000000 0.000000 0.045963
#
#
# Mechanical properties :
#
#
# Convention : Reuss Voigt Hill
#
# Bulk Modulus (GPa) = 49.83190 57.76785 53.79988
# Shear Modulus (GPa) = 276.23799 35.11931 155.67865
#
# Velocity S-wave (km/s) = 11.60585 4.13817 8.71264
# Velocity P-wave (km/s) = 14.27910 7.14147 11.28922
#
# Compressibility (1/GPa) = 0.02006747
#
# Stress axis : x y z
#
# Youngs Moduli (GPa) = 74.53568 85.10649 182.54118
#
# Poissons Ratio (x) = 0.21314 0.25287
# Poissons Ratio (y) = 0.18667 0.25535
# Poissons Ratio (z) = 0.10325 0.11905
#
# Static dielectric constant tensor:
#      x y z
#    x 1.722950 0.000000 0.000000 
#    y 0.000000 1.767690 0.000000 
#    z 0.000000 0.000000 1.873230 
# 
# From -- ./inp_files/43148.got.cif
#   From: 2010.05.17/outbox.cif.g08.bks.cpg/sg72_22_cif.got.tgz:43148.got - 2010.06.03 17:03:01.
