data_PCOD9528187
_publ_section_title
;
Structure prediction by ZEFSAII (Michael W. Deem and Ramdas Pophale) SiO2 
 PCOD9528187
Probable space group: I B A M
;
_chemical_formula_sum "Si O2"
_cell_formula_units_Z 128
_cell_length_a 11.371926
_cell_length_b 23.311410
_cell_length_c 23.410443
_cell_angle_alpha 90.000000
_cell_angle_beta 90.000000
_cell_angle_gamma 90.000000
_cell_volume 6206.006123
_symmetry_space_group_name_H-M "I B A M"
_symmetry_group_IT_number 72
_symmetry_cell_setting 'orthorhombic'
loop_
_space_group_symop_operation_xyz
x,y,z
-x,-y,z
x,-y,1/2-z
-x,y,1/2-z
-x,-y,-z
x,y,-z
-x,y,1/2+z
x,-y,1/2+z
1/2+x,1/2+y,1/2+z
1/2-x,1/2-y,1/2+z
1/2+x,1/2-y,-z
1/2-x,1/2+y,-z
1/2-x,1/2-y,1/2-z
1/2+x,1/2+y,1/2-z
1/2-x,1/2+y,z
1/2+x,1/2-y,z
loop_
_atom_site_type_symbol
_atom_site_label
_atom_site_fract_x
_atom_site_fract_y
_atom_site_fract_z
Si Si1 0.796980 0.885175 0.655422
Si Si2 0.263712 0.817161 0.736194
Si Si3 0.976173 0.372156 0.934668
Si Si4 0.284865 0.486595 0.684266
Si Si5 0.714123 0.323403 0.933957
Si Si6 0.436925 0.097555 0.189139
Si Si7 0.701463 0.197396 0.065234
Si Si8 0.429124 0.620567 0.160104
O O1 0.724934 0.853182 0.705211
O O2 0.765688 0.853110 0.597811
O O3 0.933582 0.875472 0.669605
O O4 0.773764 0.952704 0.653688
O O5 0.250000 0.750000 0.750000
O O6 0.374566 0.839811 0.698792
O O7 0.148679 0.842420 0.704514
O O8 0.839101 0.355347 0.931361
O O9 0.000795 0.402785 0.873066
O O10 0.062946 0.317512 0.933557
O O11 0.994787 0.397477 0.000000
O O12 0.309844 0.500000 0.750000
O O13 0.166775 0.448937 0.682397
O O14 0.387631 0.445112 0.663367
O O15 0.726152 0.259500 0.908563
O O16 0.613399 0.356163 0.900617
O O17 0.681494 0.317125 0.000000
O O18 0.500000 0.084683 0.250000
O O19 0.741559 0.198350 0.000000
#
# Coordination Sequence:
#
# PCOD9528187 Si02
#       8
#    16  16  16  16  16  16  16  16
#     4  12  24  40  65  91 131 170 211 274 324 386
#     4  11  23  39  56  93 132 167 211 263 335 396
#     4  10  21  42  68  94 132 174 215 273 334 400
#     4  11  23  44  62  93 124 170 222 268 325 391
#     4  10  21  41  67  95 129 171 219 268 326 400
#     4  11  23  42  66  97 133 174 229 280 333 403
#     4  10  24  42  64  96 130 172 218 263 330 400
#     4  11  23  40  65  95 125 168 221 264 329 393
#
# _framework density 20.625181000000001
#
# number of rings (size 3 to 8) (size 9 to 14) (size 15 to 20)
#    0.000    1.250    5.000    2.250    1.750    2.250 
#    0.000    1.250    0.000    3.000    0.000    0.000 
#    0.000    0.000    0.000    0.000    0.000    0.000 
#
# Total GULP energy -357265.796316 kJ/mol
# GULP energy per Si atom -5582.278067 kJ/mol
# Density = 2.057824 g / cm^3
# Si number density = 20.625181 Si / 1000 Ang^3
#
#
#
# Elastic Constant Matrix: (Units=GPa)
#
#
# Indices 1 2 3 4 5 6 
#
# 1 37.8621 -1.5628 9.5346 0.0000 0.0000 0.0000
# 2 -1.5628 112.3714 33.1359 0.0000 0.0000 0.0000
# 3 9.5346 33.1359 118.9508 0.0000 0.0000 0.0000
# 4 0.0000 0.0000 0.0000 60.0233 0.0000 0.0000
# 5 0.0000 0.0000 0.0000 0.0000 23.2328 0.0000
# 6 0.0000 0.0000 0.0000 0.0000 0.0000 6.8828
#
#
#
# Elastic Compliance Matrix: (Units=1/GPa)
#
#
# Indices 1 2 3 4 5 6 
#
# 1 0.027082 0.001108 -0.002479 0.000000 0.000000 0.000000
# 2 0.001108 0.009741 -0.002802 0.000000 0.000000 0.000000
# 3 -0.002479 -0.002802 0.009386 0.000000 0.000000 0.000000
# 4 0.000000 0.000000 0.000000 0.016660 0.000000 0.000000
# 5 0.000000 0.000000 0.000000 0.000000 0.043043 0.000000
# 6 0.000000 0.000000 0.000000 0.000000 0.000000 0.145290
#
#
# Mechanical properties :
#
#
# Convention : Reuss Voigt Hill
#
# Bulk Modulus (GPa) = 26.41244 39.04442 32.72843
# Shear Modulus (GPa) = 18.37092 33.23289 25.80190
#
# Velocity S-wave (km/s) = 2.98770 4.01843 3.54077
# Velocity P-wave (km/s) = 4.97348 6.36411 5.71128
#
# Compressibility (1/GPa) = 0.03786095
#
# Stress axis : x y z
#
# Youngs Moduli (GPa) = 36.92532 102.66102 106.53945
#
# Poissons Ratio (x) = -0.11372 0.26415
# Poissons Ratio (y) = -0.04090 0.29855
# Poissons Ratio (z) = 0.09155 0.28768
#
# Static dielectric constant tensor:
#      x y z
#    x 1.753850 0.000000 0.000000 
#    y 0.000000 1.588980 0.000000 
#    z 0.000000 0.000000 1.806760 
# 
# From -- ./inp_files/43696.got.cif
#   From: 2010.05.17/outbox.cif.g08.bks.cpg/sg72_22_cif.got.tgz:43696.got - 2010.06.03 17:03:01.
