data_PCOD9528633
_publ_section_title
;
Structure prediction by ZEFSAII (Michael W. Deem and Ramdas Pophale) SiO2 
 PCOD9528633
Probable space group: I B A M
;
_chemical_formula_sum "Si O2"
_cell_formula_units_Z 112
_cell_length_a 10.834677
_cell_length_b 17.075945
_cell_length_c 27.116867
_cell_angle_alpha 90.000000
_cell_angle_beta 90.000000
_cell_angle_gamma 90.000000
_cell_volume 5016.955249
_symmetry_space_group_name_H-M "I B A M"
_symmetry_group_IT_number 72
_symmetry_cell_setting 'orthorhombic'
loop_
_space_group_symop_operation_xyz
x,y,z
-x,-y,z
x,-y,1/2-z
-x,y,1/2-z
-x,-y,-z
x,y,-z
-x,y,1/2+z
x,-y,1/2+z
1/2+x,1/2+y,1/2+z
1/2-x,1/2-y,1/2+z
1/2+x,1/2-y,-z
1/2-x,1/2+y,-z
1/2-x,1/2-y,1/2-z
1/2+x,1/2+y,1/2-z
1/2-x,1/2+y,z
1/2+x,1/2-y,z
loop_
_atom_site_type_symbol
_atom_site_label
_atom_site_fract_x
_atom_site_fract_y
_atom_site_fract_z
Si Si1 0.375235 0.780061 0.222478
Si Si2 0.923213 0.329085 0.556970
Si Si3 0.577948 0.432708 0.648984
Si Si4 0.827665 0.452756 0.699731
Si Si5 0.725238 0.458987 0.445803
Si Si6 0.134435 0.577394 0.888549
Si Si7 0.871436 0.810864 0.122361
O O1 0.500000 0.750430 0.250000
O O2 0.250000 0.750000 0.250000
O O3 0.397229 0.873118 0.213813
O O4 0.358911 0.746951 0.167962
O O5 0.967094 0.333105 0.500000
O O6 0.794317 0.376144 0.559146
O O7 0.898036 0.240856 0.574252
O O8 0.016202 0.372073 0.595213
O O9 0.500000 0.500000 0.675316
O O10 0.698313 0.417878 0.680545
O O11 0.628260 0.467436 0.597557
O O12 0.490097 0.362329 0.635628
O O13 0.813771 0.500000 0.750000
O O14 0.870606 0.515926 0.657702
O O15 0.672644 0.467721 0.500000
O O16 0.830227 0.523059 0.435019
O O17 0.249551 0.635722 0.880412
#
# Coordination Sequence:
#
# PCOD9528633 Si02
#       7
#    16  16  16  16  16  16  16
#     4  12  29  50  76 112 149 196 244 308 377 449
#     4  11  27  45  73 105 144 196 243 306 373 438
#     4  11  23  46  68 105 140 190 231 297 361 432
#     4  11  25  47  74 108 138 190 249 297 367 445
#     4  10  22  44  70 101 136 182 244 294 358 430
#     4  11  24  46  71 103 142 188 239 307 362 434
#     4  12  26  46  71 101 149 184 238 297 370 438
#
# _framework density 22.324297000000001
#
# number of rings (size 3 to 8) (size 9 to 14) (size 15 to 20)
#    0.000    0.857    2.857    4.286    8.000    3.714 
#    2.571    0.000    0.000    0.000    0.000    0.000 
#    0.000    0.000    0.000    0.000    0.000    0.000 
#
# Total GULP energy -312979.792994 kJ/mol
# GULP energy per Si atom -5588.924875 kJ/mol
# Density = 2.227349 g / cm^3
# Si number density = 22.324297 Si / 1000 Ang^3
#
#
#
# Elastic Constant Matrix: (Units=GPa)
#
#
# Indices 1 2 3 4 5 6 
#
# 1 96.9880 28.6126 25.0068 0.0000 0.0000 0.0000
# 2 28.6126 109.5052 27.1981 0.0000 0.0000 0.0000
# 3 25.0068 27.1981 102.3015 0.0000 0.0000 0.0000
# 4 0.0000 0.0000 0.0000 -8.1569 0.0000 0.0000
# 5 0.0000 0.0000 0.0000 0.0000 21.4024 0.0000
# 6 0.0000 0.0000 0.0000 0.0000 0.0000 32.0647
#
#
#
# Elastic Compliance Matrix: (Units=1/GPa)
#
#
# Indices 1 2 3 4 5 6 
#
# 1 0.011607 -0.002493 -0.002174 0.000000 0.000000 0.000000
# 2 -0.002493 0.010313 -0.002133 0.000000 0.000000 0.000000
# 3 -0.002174 -0.002133 0.010874 0.000000 0.000000 0.000000
# 4 0.000000 0.000000 0.000000 -0.122596 0.000000 0.000000
# 5 0.000000 0.000000 0.000000 0.000000 0.046724 0.000000
# 6 0.000000 0.000000 0.000000 0.000000 0.000000 0.031187
#
#
# Mechanical properties :
#
#
# Convention : Reuss Voigt Hill
#
# Bulk Modulus (GPa) = 52.09999 52.26998 52.18498
# Shear Modulus (GPa) = 616.89618 24.26052 320.57835
#
# Velocity S-wave (km/s) = 16.64133 3.30014 11.99635
# Velocity P-wave (km/s) = 19.81499 6.16328 14.67344
#
# Compressibility (1/GPa) = 0.01919386
#
# Stress axis : x y z
#
# Youngs Moduli (GPa) = 86.15824 96.96558 91.96658
#
# Poissons Ratio (x) = 0.24170 0.19998
# Poissons Ratio (y) = 0.21476 0.19612
# Poissons Ratio (z) = 0.18735 0.20678
#
# Static dielectric constant tensor:
#      x y z
#    x 1.826000 0.000000 0.000000 
#    y 0.000000 1.870410 0.000000 
#    z 0.000000 0.000000 1.807550 
# 
# From -- ./inp_files/51488.got.cif
#   From: 2010.05.17/outbox.cif.g08.bks.cpg/sg72_26_cif.got.tgz:51488.got - 2010.06.03 17:03:01.
