data_PCOD9528894
_publ_section_title
;
Structure prediction by ZEFSAII (Michael W. Deem and Ramdas Pophale) SiO2 
 PCOD9528894
Probable space group: I B A M
;
_chemical_formula_sum "Si O2"
_cell_formula_units_Z 80
_cell_length_a 23.509159
_cell_length_b 8.656077
_cell_length_c 20.728049
_cell_angle_alpha 90.000000
_cell_angle_beta 90.000000
_cell_angle_gamma 90.000000
_cell_volume 4218.097663
_symmetry_space_group_name_H-M "I B A M"
_symmetry_group_IT_number 72
_symmetry_cell_setting 'orthorhombic'
loop_
_space_group_symop_operation_xyz
x,y,z
-x,-y,z
x,-y,1/2-z
-x,y,1/2-z
-x,-y,-z
x,y,-z
-x,y,1/2+z
x,-y,1/2+z
1/2+x,1/2+y,1/2+z
1/2-x,1/2-y,1/2+z
1/2+x,1/2-y,-z
1/2-x,1/2+y,-z
1/2-x,1/2-y,1/2-z
1/2+x,1/2+y,1/2-z
1/2-x,1/2+y,z
1/2+x,1/2-y,z
loop_
_atom_site_type_symbol
_atom_site_label
_atom_site_fract_x
_atom_site_fract_y
_atom_site_fract_z
Si Si1 0.899257 0.167528 0.123353
Si Si2 0.068159 0.315610 0.246498
Si Si3 0.503030 0.830663 0.428131
Si Si4 0.825526 0.210041 0.000000
Si Si5 0.117445 0.197122 0.112013
Si Si6 0.201330 0.842441 0.500000
O O1 0.896879 0.242911 0.193775
O O2 0.861035 0.239275 0.065820
O O3 0.964011 0.204305 0.104544
O O4 0.887689 0.986255 0.122657
O O5 0.068060 0.500000 0.250000
O O6 0.102255 0.269005 0.181722
O O7 0.000000 0.267345 0.250000
O O8 0.480120 0.851846 0.500000
O O9 0.565861 0.766607 0.429217
O O10 0.500000 0.000000 0.395514
O O11 0.767555 0.304924 0.000000
O O12 0.810848 0.026492 0.000000
O O13 0.172326 0.222194 0.066185
#
# Coordination Sequence:
#
# PCOD9528894 Si02
#       6
#    16  16  16   8  16   8
#     4  11  22  38  60  88 121 158 198 243 296 355
#     4  11  23  37  56  91 129 160 197 237 294 362
#     4  11  21  32  53  88 123 156 192 238 299 358
#     4  10  24  43  64  89 115 152 206 254 297 350
#     4  11  22  38  60  88 121 158 198 243 296 355
#     4  10  24  43  64  89 115 152 206 254 297 350
#
# _framework density 18.965896000000001
#
# number of rings (size 3 to 8) (size 9 to 14) (size 15 to 20)
#    0.000    1.200    4.000    2.400    0.000    4.800 
#    0.000    1.000    0.000    0.000    0.000    0.000 
#    0.000    0.000    0.000    0.000    0.000    0.000 
#
# Total GULP energy -222895.080973 kJ/mol
# GULP energy per Si atom -5572.377024 kJ/mol
# Density = 1.892273 g / cm^3
# Si number density = 18.965896 Si / 1000 Ang^3
#
#
#
# Elastic Constant Matrix: (Units=GPa)
#
#
# Indices 1 2 3 4 5 6 
#
# 1 67.1808 19.4999 36.3815 0.0000 0.0000 0.0000
# 2 19.4999 47.7190 42.1191 0.0000 0.0000 0.0000
# 3 36.3815 42.1191 161.7637 0.0000 0.0000 0.0000
# 4 0.0000 0.0000 0.0000 19.8076 0.0000 0.0000
# 5 0.0000 0.0000 0.0000 0.0000 20.9759 0.0000
# 6 0.0000 0.0000 0.0000 0.0000 0.0000 26.1380
#
#
#
# Elastic Compliance Matrix: (Units=1/GPa)
#
#
# Indices 1 2 3 4 5 6 
#
# 1 0.017774 -0.004849 -0.002735 0.000000 0.000000 0.000000
# 2 -0.004849 0.028532 -0.006338 0.000000 0.000000 0.000000
# 3 -0.002735 -0.006338 0.008447 0.000000 0.000000 0.000000
# 4 0.000000 0.000000 0.000000 0.050486 0.000000 0.000000
# 5 0.000000 0.000000 0.000000 0.000000 0.047674 0.000000
# 6 0.000000 0.000000 0.000000 0.000000 0.000000 0.038258
#
#
# Mechanical properties :
#
#
# Convention : Reuss Voigt Hill
#
# Bulk Modulus (GPa) = 37.16318 52.51829 44.84073
# Shear Modulus (GPa) = 21.93122 25.29517 23.61319
#
# Velocity S-wave (km/s) = 3.40420 3.65597 3.53233
# Velocity P-wave (km/s) = 5.92358 6.75074 6.35064
#
# Compressibility (1/GPa) = 0.02690835
#
# Stress axis : x y z
#
# Youngs Moduli (GPa) = 56.26272 35.04807 118.38110
#
# Poissons Ratio (x) = 0.16996 0.32375
# Poissons Ratio (y) = 0.27283 0.75035
# Poissons Ratio (z) = 0.15387 0.22215
#
# Static dielectric constant tensor:
#      x y z
#    x 1.626730 0.000000 0.000000 
#    y 0.000000 1.642790 0.000000 
#    z 0.000000 0.000000 1.741860 
# 
# From -- ./inp_files/45216.got.cif
#   From: 2010.05.17/outbox.cif.g08.bks.cpg/sg72_23_cif.got.tgz:45216.got - 2010.06.03 17:03:01.
