data_PCOD9528100
_publ_section_title
;
Structure prediction by ZEFSAII (Michael W. Deem and Ramdas Pophale) SiO2 
 PCOD9528100
Probable space group: I B A M
;
_chemical_formula_sum "Si O2"
_cell_formula_units_Z 96
_cell_length_a 22.010097
_cell_length_b 22.373124
_cell_length_c 9.418142
_cell_angle_alpha 90.000000
_cell_angle_beta 90.000000
_cell_angle_gamma 90.000000
_cell_volume 4637.819266
_symmetry_space_group_name_H-M "I B A M"
_symmetry_group_IT_number 72
_symmetry_cell_setting 'orthorhombic'
loop_
_space_group_symop_operation_xyz
x,y,z
-x,-y,z
x,-y,1/2-z
-x,y,1/2-z
-x,-y,-z
x,y,-z
-x,y,1/2+z
x,-y,1/2+z
1/2+x,1/2+y,1/2+z
1/2-x,1/2-y,1/2+z
1/2+x,1/2-y,-z
1/2-x,1/2+y,-z
1/2-x,1/2-y,1/2-z
1/2+x,1/2+y,1/2-z
1/2-x,1/2+y,z
1/2+x,1/2-y,z
loop_
_atom_site_type_symbol
_atom_site_label
_atom_site_fract_x
_atom_site_fract_y
_atom_site_fract_z
Si Si1 0.253224 0.673067 0.340318
Si Si2 0.168739 0.947412 0.162650
Si Si3 0.915835 0.446992 0.000000
Si Si4 0.063068 0.883264 0.328231
Si Si5 0.058817 0.414579 0.000000
Si Si6 0.121181 0.774915 0.834092
Si Si7 0.878813 0.642639 0.732618
O O1 0.236359 0.692479 0.500000
O O2 0.289342 0.610532 0.345542
O O3 0.307261 0.717615 0.290949
O O4 0.191527 0.656689 0.262257
O O5 0.111842 0.928614 0.260501
O O6 0.200494 0.000000 0.250000
O O7 0.152400 0.963609 0.000000
O O8 0.885374 0.414121 0.131763
O O9 0.912373 0.518525 0.000000
O O10 0.986898 0.427283 0.000000
O O11 0.060194 0.885363 0.500000
O O12 0.084476 0.818112 0.270457
O O13 0.000000 0.896153 0.250000
O O14 0.082042 0.376718 0.867361
O O15 0.099351 0.706702 0.826696
O O16 0.116855 0.795288 0.000000
#
# Coordination Sequence:
#
# PCOD9528100 Si02
#       7
#    16  16   8  16   8  16  16
#     4   9  20  40  63  93 131 166 205 264 319 377
#     4  10  21  40  62  91 130 169 214 265 316 371
#     4  11  26  46  61  94 124 172 213 280 324 375
#     4  11  23  40  63  92 127 170 213 261 319 373
#     4  11  26  44  67  86 132 166 219 268 332 383
#     4  10  22  42  63  94 134 164 208 268 323 379
#     4  12  22  43  68  95 121 170 214 254 320 404
#
# _framework density 20.699383000000001
#
# number of rings (size 3 to 8) (size 9 to 14) (size 15 to 20)
#    0.000    1.500    1.667    4.500    1.167    4.333 
#    7.500    1.667    0.000    0.000    0.000    0.000 
#    0.000    0.000    0.000    0.000    0.000    0.000 
#
# Total GULP energy -267809.378844 kJ/mol
# GULP energy per Si atom -5579.362059 kJ/mol
# Density = 2.065227 g / cm^3
# Si number density = 20.699383 Si / 1000 Ang^3
#
#
#
# Elastic Constant Matrix: (Units=GPa)
#
#
# Indices 1 2 3 4 5 6 
#
# 1 47.1872 7.9149 22.4282 0.0000 0.0000 0.0000
# 2 7.9149 98.3882 19.6490 0.0000 0.0000 0.0000
# 3 22.4282 19.6490 133.8871 0.0000 0.0000 0.0000
# 4 0.0000 0.0000 0.0000 36.5679 0.0000 0.0000
# 5 0.0000 0.0000 0.0000 0.0000 13.1010 0.0000
# 6 0.0000 0.0000 0.0000 0.0000 0.0000 12.5246
#
#
#
# Elastic Compliance Matrix: (Units=1/GPa)
#
#
# Indices 1 2 3 4 5 6 
#
# 1 0.023145 -0.001120 -0.003713 0.000000 0.000000 0.000000
# 2 -0.001120 0.010525 -0.001357 0.000000 0.000000 0.000000
# 3 -0.003713 -0.001357 0.008290 0.000000 0.000000 0.000000
# 4 0.000000 0.000000 0.000000 0.027346 0.000000 0.000000
# 5 0.000000 0.000000 0.000000 0.000000 0.076330 0.000000
# 6 0.000000 0.000000 0.000000 0.000000 0.000000 0.079843
#
#
# Mechanical properties :
#
#
# Convention : Reuss Voigt Hill
#
# Bulk Modulus (GPa) = 33.80702 42.16075 37.98388
# Shear Modulus (GPa) = 20.18416 27.73673 23.96044
#
# Velocity S-wave (km/s) = 3.12606 3.66454 3.40596
# Velocity P-wave (km/s) = 5.42195 6.19011 5.81872
#
# Compressibility (1/GPa) = 0.02957966
#
# Stress axis : x y z
#
# Youngs Moduli (GPa) = 43.20634 95.01235 120.62659
#
# Poissons Ratio (x) = 0.10646 0.44785
# Poissons Ratio (y) = 0.04841 0.16368
# Poissons Ratio (z) = 0.16041 0.12892
#
# Static dielectric constant tensor:
#      x y z
#    x 1.746740 0.000000 0.000000 
#    y 0.000000 1.759750 0.000000 
#    z 0.000000 0.000000 1.743830 
# 
# From -- ./inp_files/7007.got.cif
#   From: 2010.05.17/outbox.cif.g08.bks.cpg/sg72_4_cif.got.tgz:7007.got - 2010.06.03 17:03:01.
