data_PCOD9528817
_publ_section_title
;
Structure prediction by ZEFSAII (Michael W. Deem and Ramdas Pophale) SiO2 
 PCOD9528817
Probable space group: I B A M
;
_chemical_formula_sum "Si O2"
_cell_formula_units_Z 68
_cell_length_a 18.597903
_cell_length_b 9.829183
_cell_length_c 15.209434
_cell_angle_alpha 90.000000
_cell_angle_beta 90.000000
_cell_angle_gamma 90.000000
_cell_volume 2780.317874
_symmetry_space_group_name_H-M "I B A M"
_symmetry_group_IT_number 72
_symmetry_cell_setting 'orthorhombic'
loop_
_space_group_symop_operation_xyz
x,y,z
-x,-y,z
x,-y,1/2-z
-x,y,1/2-z
-x,-y,-z
x,y,-z
-x,y,1/2+z
x,-y,1/2+z
1/2+x,1/2+y,1/2+z
1/2-x,1/2-y,1/2+z
1/2+x,1/2-y,-z
1/2-x,1/2+y,-z
1/2-x,1/2-y,1/2-z
1/2+x,1/2+y,1/2-z
1/2-x,1/2+y,z
1/2+x,1/2-y,z
loop_
_atom_site_type_symbol
_atom_site_label
_atom_site_fract_x
_atom_site_fract_y
_atom_site_fract_z
Si Si1 0.000000 0.000000 0.000000
Si Si2 0.256402 0.969419 0.099094
Si Si3 0.505082 0.698555 0.647530
Si Si4 0.332796 0.294202 0.327656
Si Si5 0.115053 0.615201 0.824560
O O1 0.969304 0.099511 0.921841
O O2 0.280910 0.821345 0.132001
O O3 0.202338 0.059019 0.158030
O O4 0.330069 0.057129 0.105244
O O5 0.228843 0.963419 0.000000
O O6 0.500000 0.655474 0.750000
O O7 0.589365 0.708627 0.624944
O O8 0.462192 0.839060 0.642755
O O9 0.350716 0.243182 0.229040
O O10 0.108179 0.500000 0.750000
#
# Coordination Sequence:
#
# PCOD9528817 Si02
#       5
#     4  16  16  16  16
#     4  12  26  40  72 104 148 176 234 282 376 418
#     4  11  23  38  64 101 142 180 236 290 353 423
#     4  10  24  46  73 103 142 186 237 298 365 432
#     4  10  23  44  67  94 140 186 232 287 356 430
#     4   9  21  44  71  99 133 183 236 294 365 429
#
# _framework density 24.457635
#
# number of rings (size 3 to 8) (size 9 to 14) (size 15 to 20)
#    0.000    1.882    0.000    1.765    4.941   12.706 
#    0.000    8.235    0.000    0.000    0.000    0.000 
#    0.000    0.000    0.000    0.000    0.000    0.000 
#
# Total GULP energy -189645.061339 kJ/mol
# GULP energy per Si atom -5577.795922 kJ/mol
# Density = 2.440197 g / cm^3
# Si number density = 24.457635 Si / 1000 Ang^3
#
#
#
# Elastic Constant Matrix: (Units=GPa)
#
#
# Indices 1 2 3 4 5 6 
#
# 1 117.0973 52.8874 14.2314 0.0000 0.0000 0.0000
# 2 52.8874 98.2840 25.9493 0.0000 0.0000 0.0000
# 3 14.2314 25.9493 91.5854 0.0000 0.0000 0.0000
# 4 0.0000 0.0000 0.0000 11.7678 0.0000 0.0000
# 5 0.0000 0.0000 0.0000 0.0000 0.0482 0.0000
# 6 0.0000 0.0000 0.0000 0.0000 0.0000 34.9849
#
#
#
# Elastic Compliance Matrix: (Units=1/GPa)
#
#
# Indices 1 2 3 4 5 6 
#
# 1 0.011282 -0.006061 -0.000036 0.000000 0.000000 0.000000
# 2 -0.006061 0.014254 -0.003097 0.000000 0.000000 0.000000
# 3 -0.000036 -0.003097 0.011802 0.000000 0.000000 0.000000
# 4 0.000000 0.000000 0.000000 0.084978 0.000000 0.000000
# 5 0.000000 0.000000 0.000000 0.000000 20.748995 0.000000
# 6 0.000000 0.000000 0.000000 0.000000 0.000000 0.028584
#
#
# Mechanical properties :
#
#
# Convention : Reuss Voigt Hill
#
# Bulk Modulus (GPa) = 52.77094 54.78921 53.78007
# Shear Modulus (GPa) = 0.23895 23.62009 11.92952
#
# Velocity S-wave (km/s) = 0.31291 3.11103 2.21093
# Velocity P-wave (km/s) = 4.66410 5.94601 5.34363
#
# Compressibility (1/GPa) = 0.01894982
#
# Stress axis : x y z
#
# Youngs Moduli (GPa) = 88.63735 70.15604 84.73334
#
# Poissons Ratio (x) = 0.42525 0.00302
# Poissons Ratio (y) = 0.53727 0.26240
# Poissons Ratio (z) = 0.00316 0.21725
#
# Static dielectric constant tensor:
#      x y z
#    x 2.012560 0.000000 0.000000 
#    y 0.000000 2.060740 0.000000 
#    z 0.000000 0.000000 1.894770 
# 
# From -- ./inp_files/32276.got.cif
#   From: 2010.05.17/outbox.cif.g08.bks.cpg/sg72_17_cif.got.tgz:32276.got - 2010.06.03 17:03:01.
