data_PCOD9528867
_publ_section_title
;
Structure prediction by ZEFSAII (Michael W. Deem and Ramdas Pophale) SiO2 
 PCOD9528867
Probable space group: I B A M
;
_chemical_formula_sum "Si O2"
_cell_formula_units_Z 128
_cell_length_a 10.748288
_cell_length_b 23.315320
_cell_length_c 28.373655
_cell_angle_alpha 90.000000
_cell_angle_beta 90.000000
_cell_angle_gamma 90.000000
_cell_volume 7110.431535
_symmetry_space_group_name_H-M "I B A M"
_symmetry_group_IT_number 72
_symmetry_cell_setting 'orthorhombic'
loop_
_space_group_symop_operation_xyz
x,y,z
-x,-y,z
x,-y,1/2-z
-x,y,1/2-z
-x,-y,-z
x,y,-z
-x,y,1/2+z
x,-y,1/2+z
1/2+x,1/2+y,1/2+z
1/2-x,1/2-y,1/2+z
1/2+x,1/2-y,-z
1/2-x,1/2+y,-z
1/2-x,1/2-y,1/2-z
1/2+x,1/2+y,1/2-z
1/2-x,1/2+y,z
1/2+x,1/2-y,z
loop_
_atom_site_type_symbol
_atom_site_label
_atom_site_fract_x
_atom_site_fract_y
_atom_site_fract_z
Si Si1 0.446637 0.919471 0.198187
Si Si2 0.208100 0.684883 0.298802
Si Si3 0.811096 0.420393 0.141092
Si Si4 0.292988 0.523563 0.947164
Si Si5 0.441472 0.626458 0.656302
Si Si6 0.680854 0.516403 0.803578
Si Si7 0.558796 0.587962 0.946071
Si Si8 0.193850 0.820438 0.307120
O O1 0.500000 0.930545 0.250000
O O2 0.414561 0.852362 0.192811
O O3 0.553591 0.934708 0.161446
O O4 0.315441 0.951816 0.194587
O O5 0.319104 0.661818 0.330697
O O6 0.189775 0.751667 0.308805
O O7 0.250765 0.669588 0.245201
O O8 0.794104 0.442042 0.088246
O O9 0.706555 0.458428 0.167986
O O10 0.778206 0.355066 0.155181
O O11 0.427133 0.554827 0.947367
O O12 0.330695 0.457907 0.935229
O O13 0.242909 0.524076 0.000000
O O14 0.415754 0.561144 0.673920
O O15 0.454495 0.627565 0.599716
O O16 0.556835 0.654162 0.683953
O O17 0.651303 0.500000 0.750000
O O18 0.578440 0.609962 0.000000
#
# Coordination Sequence:
#
# PCOD9528867 Si02
#       8
#    16  16  16  16  16  16  16  16
#     4  11  21  36  55  74 109 160 193 218 266 338
#     4  10  24  39  54  80 113 154 201 232 268 334
#     4  12  20  33  59  83 112 152 185 228 286 337
#     4   9  18  33  54  85 117 146 181 228 288 353
#     4  11  21  37  58  85 115 146 190 241 292 332
#     4  11  22  35  52  83 121 152 182 225 283 351
#     4   9  17  33  57  83 116 148 179 228 295 356
#     4  11  23  37  56  81 113 154 191 238 280 325
#
# _framework density 18.001721
#
# number of rings (size 3 to 8) (size 9 to 14) (size 15 to 20)
#    0.000    1.500    5.000    2.250    1.750    0.500 
#    0.000    1.875    0.000    6.000    0.000    0.000 
#    0.000    0.000    0.000    0.000    0.000    0.000 
#
# Total GULP energy -357156.841498 kJ/mol
# GULP energy per Si atom -5580.575648 kJ/mol
# Density = 1.796075 g / cm^3
# Si number density = 18.001721 Si / 1000 Ang^3
#
#
#
# Elastic Constant Matrix: (Units=GPa)
#
#
# Indices 1 2 3 4 5 6 
#
# 1 85.6262 26.1857 30.4274 0.0000 0.0000 0.0000
# 2 26.1857 81.4124 35.5698 0.0000 0.0000 0.0000
# 3 30.4274 35.5698 97.4411 0.0000 0.0000 0.0000
# 4 0.0000 0.0000 0.0000 18.3487 0.0000 0.0000
# 5 0.0000 0.0000 0.0000 0.0000 26.0195 0.0000
# 6 0.0000 0.0000 0.0000 0.0000 0.0000 23.9892
#
#
#
# Elastic Compliance Matrix: (Units=1/GPa)
#
#
# Indices 1 2 3 4 5 6 
#
# 1 0.013736 -0.003027 -0.003184 0.000000 0.000000 0.000000
# 2 -0.003027 0.015281 -0.004633 0.000000 0.000000 0.000000
# 3 -0.003184 -0.004633 0.012948 0.000000 0.000000 0.000000
# 4 0.000000 0.000000 0.000000 0.054500 0.000000 0.000000
# 5 0.000000 0.000000 0.000000 0.000000 0.038433 0.000000
# 6 0.000000 0.000000 0.000000 0.000000 0.000000 0.041685
#
#
# Mechanical properties :
#
#
# Convention : Reuss Voigt Hill
#
# Bulk Modulus (GPa) = 49.31752 49.87173 49.59462
# Shear Modulus (GPa) = 24.38671 25.15795 24.77233
#
# Velocity S-wave (km/s) = 3.68460 3.74241 3.71362
# Velocity P-wave (km/s) = 6.74961 6.81456 6.78216
#
# Compressibility (1/GPa) = 0.02027677
#
# Stress axis : x y z
#
# Youngs Moduli (GPa) = 72.80217 65.44132 77.23096
#
# Poissons Ratio (x) = 0.19808 0.24593
# Poissons Ratio (y) = 0.22036 0.35781
# Poissons Ratio (z) = 0.23183 0.30319
#
# Static dielectric constant tensor:
#      x y z
#    x 1.630070 0.000000 0.000000 
#    y 0.000000 1.667930 0.000000 
#    z 0.000000 0.000000 1.635630 
# 
# From -- ./inp_files/48353.got.cif
#   From: 2010.05.17/outbox.cif.g08.bks.cpg/sg72_25_cif.got.tgz:48353.got - 2010.06.03 17:03:01.
