data_PCOD9528269
_publ_section_title
;
Structure prediction by ZEFSAII (Michael W. Deem and Ramdas Pophale) SiO2 
 PCOD9528269
Probable space group: I B A M
;
_chemical_formula_sum "Si O2"
_cell_formula_units_Z 96
_cell_length_a 22.808721
_cell_length_b 17.633421
_cell_length_c 14.992674
_cell_angle_alpha 90.000000
_cell_angle_beta 90.000000
_cell_angle_gamma 90.000000
_cell_volume 6029.990212
_symmetry_space_group_name_H-M "I B A M"
_symmetry_group_IT_number 72
_symmetry_cell_setting 'orthorhombic'
loop_
_space_group_symop_operation_xyz
x,y,z
-x,-y,z
x,-y,1/2-z
-x,y,1/2-z
-x,-y,-z
x,y,-z
-x,y,1/2+z
x,-y,1/2+z
1/2+x,1/2+y,1/2+z
1/2-x,1/2-y,1/2+z
1/2+x,1/2-y,-z
1/2-x,1/2+y,-z
1/2-x,1/2-y,1/2-z
1/2+x,1/2+y,1/2-z
1/2-x,1/2+y,z
1/2+x,1/2-y,z
loop_
_atom_site_type_symbol
_atom_site_label
_atom_site_fract_x
_atom_site_fract_y
_atom_site_fract_z
Si Si1 0.751988 0.500000 0.603543
Si Si2 0.614828 0.500000 0.642909
Si Si3 0.230430 0.374778 0.250000
Si Si4 0.432602 0.665350 0.896592
Si Si5 0.067398 0.165350 0.603408
Si Si6 0.347073 0.272572 0.750000
O O1 0.770561 0.500000 0.500000
O O2 0.681001 0.500000 0.606518
O O3 0.771900 0.572398 0.662167
O O4 0.771900 0.427602 0.662168
O O5 0.618795 0.500000 0.750000
O O6 0.582094 0.576156 0.613829
O O7 0.582093 0.423845 0.613828
O O8 0.293140 0.332050 0.250000
O O9 0.181039 0.310464 0.250000
O O10 0.500000 0.677932 0.869507
O O11 0.387443 0.710237 0.835076
O O12 0.425983 0.685830 0.000000
O O13 0.074017 0.185830 0.500000
O O14 0.112557 0.210236 0.664924
#
# Coordination Sequence:
#
# PCOD9528269 Si02
#       6
#    16  16  16  16  16  16
#     4  11  19  35  56  75 104 140 177 217 256 298
#     4  12  19  32  51  75 110 144 182 211 243 298
#     4  10  22  36  51  79 102 138 182 217 251 317
#     4  11  22  34  51  77 107 143 181 211 251 307
#     4  11  22  34  51  77 107 143 181 211 251 307
#     4  11  21  36  52  72 112 140 174 215 263 298
#
# _framework density 15.920424000000001
#
# number of rings (size 3 to 8) (size 9 to 14) (size 15 to 20)
#    0.000    1.000    6.667    2.500    0.000    3.333 
#    0.000    3.333    0.000    0.000    0.000    9.333 
#    0.000   16.000    0.000    0.000    0.000    0.000 
#
# Total GULP energy -268107.501747 kJ/mol
# GULP energy per Si atom -5585.572953 kJ/mol
# Density = 1.588419 g / cm^3
# Si number density = 15.920424 Si / 1000 Ang^3
#
#
#
# Elastic Constant Matrix: (Units=GPa)
#
#
# Indices 1 2 3 4 5 6 
#
# 1 110.9459 69.4867 58.0492 0.0000 0.0000 0.0000
# 2 69.4867 112.3722 63.1318 0.0000 0.0000 0.0000
# 3 58.0492 63.1318 139.1600 0.0000 0.0000 0.0000
# 4 0.0000 0.0000 0.0000 -11.2374 0.0000 0.0000
# 5 0.0000 0.0000 0.0000 0.0000 15.5232 0.0000
# 6 0.0000 0.0000 0.0000 0.0000 0.0000 14.4939
#
#
#
# Elastic Compliance Matrix: (Units=1/GPa)
#
#
# Indices 1 2 3 4 5 6 
#
# 1 0.015506 -0.007991 -0.002843 0.000000 0.000000 0.000000
# 2 -0.007991 0.016061 -0.003953 0.000000 0.000000 0.000000
# 3 -0.002843 -0.003953 0.010165 0.000000 0.000000 0.000000
# 4 0.000000 0.000000 0.000000 -0.088989 0.000000 0.000000
# 5 0.000000 0.000000 0.000000 0.000000 0.064420 0.000000
# 6 0.000000 0.000000 0.000000 0.000000 0.000000 0.068994
#
#
# Mechanical properties :
#
#
# Convention : Reuss Voigt Hill
#
# Bulk Modulus (GPa) = 82.24784 82.64594 82.44689
# Shear Modulus (GPa) = 41.74183 15.20997 28.47590
#
# Velocity S-wave (km/s) = 5.12601 3.09427 4.23382
# Velocity P-wave (km/s) = 9.31711 8.04926 8.70630
#
# Compressibility (1/GPa) = 0.01215837
#
# Stress axis : x y z
#
# Youngs Moduli (GPa) = 64.49250 62.26199 98.37528
#
# Poissons Ratio (x) = 0.49754 0.27966
# Poissons Ratio (y) = 0.51536 0.38888
# Poissons Ratio (z) = 0.18334 0.24612
#
# Static dielectric constant tensor:
#      x y z
#    x 1.511280 0.000000 0.000000 
#    y 0.000000 1.515150 0.000000 
#    z 0.000000 0.000000 1.549040 
# 
# From -- ./inp_files/24417.got.cif
#   From: 2010.05.17/outbox.cif.g08.bks.cpg/sg72_13_cif.got.tgz:24417.got - 2010.06.03 17:03:01.
