data_PCOD9528023
_publ_section_title
;
Structure prediction by ZEFSAII (Michael W. Deem and Ramdas Pophale) SiO2 
 PCOD9528023
Probable space group: I B A M
;
_chemical_formula_sum "Si O2"
_cell_formula_units_Z 112
_cell_length_a 28.779028
_cell_length_b 10.914898
_cell_length_c 14.752850
_cell_angle_alpha 90.000000
_cell_angle_beta 90.000000
_cell_angle_gamma 90.000000
_cell_volume 4634.167531
_symmetry_space_group_name_H-M "I B A M"
_symmetry_group_IT_number 72
_symmetry_cell_setting 'orthorhombic'
loop_
_space_group_symop_operation_xyz
x,y,z
-x,-y,z
x,-y,1/2-z
-x,y,1/2-z
-x,-y,-z
x,y,-z
-x,y,1/2+z
x,-y,1/2+z
1/2+x,1/2+y,1/2+z
1/2-x,1/2-y,1/2+z
1/2+x,1/2-y,-z
1/2-x,1/2+y,-z
1/2-x,1/2-y,1/2-z
1/2+x,1/2+y,1/2-z
1/2-x,1/2+y,z
1/2+x,1/2-y,z
loop_
_atom_site_type_symbol
_atom_site_label
_atom_site_fract_x
_atom_site_fract_y
_atom_site_fract_z
Si Si1 0.441048 0.250136 0.102864
Si Si2 0.290445 0.169753 0.889763
Si Si3 0.161416 0.703942 0.596165
Si Si4 0.118576 0.867105 0.738694
Si Si5 0.531211 0.378242 0.105330
Si Si6 0.760369 0.067667 0.895739
Si Si7 0.113284 0.527573 0.855119
O O1 0.405289 0.316948 0.170410
O O2 0.494239 0.273078 0.129183
O O3 0.427665 0.108889 0.106612
O O4 0.435346 0.297622 0.000000
O O5 0.287859 0.312217 0.858664
O O6 0.339598 0.107906 0.866582
O O7 0.250950 0.069892 0.858197
O O8 0.286667 0.172837 0.000000
O O9 0.160776 0.772508 0.500000
O O10 0.153420 0.780863 0.685266
O O11 0.209130 0.629172 0.600803
O O12 0.121601 0.601219 0.597524
O O13 0.075083 0.881578 0.669586
O O14 0.140289 0.000000 0.750000
O O15 0.500000 0.500000 0.116237
O O16 0.544960 0.368127 0.000000
O O17 0.776883 0.049421 0.000000
O O18 0.106336 0.500000 0.750000
#
# Coordination Sequence:
#
# PCOD9528023 Si02
#       7
#    16  16  16  16  16  16  16
#     4  11  23  39  62  91 120 157 209 258 308 375
#     4   9  17  34  59  85 120 162 209 256 309 374
#     4  10  21  40  64  87 125 170 209 253 312 375
#     4  12  23  38  62  93 125 163 203 256 308 374
#     4  10  21  39  63  90 122 160 200 249 315 377
#     4   8  16  33  57  86 117 162 207 251 308 368
#     4  11  21  40  62  89 119 166 210 261 317 371
#
# _framework density 24.168310000000002
#
# number of rings (size 3 to 8) (size 9 to 14) (size 15 to 20)
#    0.000    1.857    2.857    3.000    0.000    0.571 
#    2.571    4.286    0.000    2.571    0.000    0.000 
#    0.000    0.000    0.000    0.000    0.000    0.000 
#
# Total GULP energy -313071.328491 kJ/mol
# GULP energy per Si atom -5590.559437 kJ/mol
# Density = 2.411330 g / cm^3
# Si number density = 24.168310 Si / 1000 Ang^3
#
#
#
# Elastic Constant Matrix: (Units=GPa)
#
#
# Indices 1 2 3 4 5 6 
#
# 1 33.5177 15.9904 5.3862 0.0000 0.0000 0.0000
# 2 15.9904 101.7269 13.8459 0.0000 0.0000 0.0000
# 3 5.3862 13.8459 106.3025 0.0000 0.0000 0.0000
# 4 0.0000 0.0000 0.0000 -27.5261 0.0000 0.0000
# 5 0.0000 0.0000 0.0000 0.0000 25.3480 0.0000
# 6 0.0000 0.0000 0.0000 0.0000 0.0000 38.1155
#
#
#
# Elastic Compliance Matrix: (Units=1/GPa)
#
#
# Indices 1 2 3 4 5 6 
#
# 1 0.032357 -0.004951 -0.000995 0.000000 0.000000 0.000000
# 2 -0.004951 0.010765 -0.001151 0.000000 0.000000 0.000000
# 3 -0.000995 -0.001151 0.009607 0.000000 0.000000 0.000000
# 4 0.000000 0.000000 0.000000 -0.036329 0.000000 0.000000
# 5 0.000000 0.000000 0.000000 0.000000 0.039451 0.000000
# 6 0.000000 0.000000 0.000000 0.000000 0.000000 0.026236
#
#
# Mechanical properties :
#
#
# Convention : Reuss Voigt Hill
#
# Bulk Modulus (GPa) = 25.94984 34.66581 30.30783
# Shear Modulus (GPa) = 45.81869 20.94245 33.38057
#
# Velocity S-wave (km/s) = 4.35882 2.94687 3.72044
# Velocity P-wave (km/s) = 6.00773 5.09445 5.56984
#
# Compressibility (1/GPa) = 0.03853588
#
# Stress axis : x y z
#
# Youngs Moduli (GPa) = 30.90551 92.89228 104.08566
#
# Poissons Ratio (x) = 0.45989 0.10353
# Poissons Ratio (y) = 0.15301 0.11984
# Poissons Ratio (z) = 0.03074 0.10695
#
# Static dielectric constant tensor:
#      x y z
#    x 1.922330 0.000000 0.000000 
#    y 0.000000 1.994630 0.000000 
#    z 0.000000 0.000000 1.931920 
# 
# From -- ./inp_files/26339.got.cif
#   From: 2010.05.17/outbox.cif.g08.bks.cpg/sg72_14_cif.got.tgz:26339.got - 2010.06.03 17:03:01.
