data_PCOD9528942
_publ_section_title
;
Structure prediction by ZEFSAII (Michael W. Deem and Ramdas Pophale) SiO2 
 PCOD9528942
Probable space group: I B A M
;
_chemical_formula_sum "Si O2"
_cell_formula_units_Z 44
_cell_length_a 4.844024
_cell_length_b 21.671144
_cell_length_c 15.866394
_cell_angle_alpha 90.000000
_cell_angle_beta 90.000000
_cell_angle_gamma 90.000000
_cell_volume 1665.583304
_symmetry_space_group_name_H-M "I B A M"
_symmetry_group_IT_number 72
_symmetry_cell_setting 'orthorhombic'
loop_
_space_group_symop_operation_xyz
x,y,z
-x,-y,z
x,-y,1/2-z
-x,y,1/2-z
-x,-y,-z
x,y,-z
-x,y,1/2+z
x,-y,1/2+z
1/2+x,1/2+y,1/2+z
1/2-x,1/2-y,1/2+z
1/2+x,1/2-y,-z
1/2-x,1/2+y,-z
1/2-x,1/2-y,1/2-z
1/2+x,1/2+y,1/2-z
1/2-x,1/2+y,z
1/2+x,1/2-y,z
loop_
_atom_site_type_symbol
_atom_site_label
_atom_site_fract_x
_atom_site_fract_y
_atom_site_fract_z
Si Si1 0.391652 0.709447 0.099203
Si Si2 0.726132 0.949381 0.500000
Si Si3 0.500000 0.500000 0.250000
Si Si4 0.212192 0.613620 0.325875
O O1 0.076503 0.728820 0.113447
O O2 0.527607 0.659330 0.159484
O O3 0.422389 0.693117 0.000000
O O4 0.646376 0.903105 0.577584
O O5 0.500000 0.000000 0.500000
O O6 0.000000 0.000000 0.500000
O O7 0.314272 0.545787 0.301410
O O8 0.000000 0.630744 0.250000
#
# Coordination Sequence:
#
# PCOD9528942 Si02
#       4
#    16   8   4  16
#     4  10  24  47  75 108 146 196 255 311 377 457
#     4  12  26  48  74 108 152 210 254 305 391 451
#     4  12  26  46  68 114 148 194 254 316 362 476
#     4  12  27  47  75 111 155 199 256 318 381 455
#
# _framework density 26.417171
#
# number of rings (size 3 to 8) (size 9 to 14) (size 15 to 20)
#    0.000    0.727    3.636    2.727    5.091    1.455 
#    0.000    0.000    0.000    0.000    0.000    0.000 
#    0.000    0.000    0.000    0.000    0.000    0.000 
#
# Total GULP energy -122663.261019 kJ/mol
# GULP energy per Si atom -5575.602774 kJ/mol
# Density = 2.635704 g / cm^3
# Si number density = 26.417171 Si / 1000 Ang^3
#
#
#
# Elastic Constant Matrix: (Units=GPa)
#
#
# Indices 1 2 3 4 5 6 
#
# 1 122.2098 3.5467 27.3176 0.0000 0.0000 0.0000
# 2 3.5467 95.7703 34.5424 0.0000 0.0000 0.0000
# 3 27.3176 34.5424 198.9807 0.0000 0.0000 0.0000
# 4 0.0000 0.0000 0.0000 76.2091 0.0000 0.0000
# 5 0.0000 0.0000 0.0000 0.0000 35.6186 0.0000
# 6 0.0000 0.0000 0.0000 0.0000 0.0000 83.6003
#
#
#
# Elastic Compliance Matrix: (Units=1/GPa)
#
#
# Indices 1 2 3 4 5 6 
#
# 1 0.008443 0.000112 -0.001179 0.000000 0.000000 0.000000
# 2 0.000112 0.011141 -0.001949 0.000000 0.000000 0.000000
# 3 -0.001179 -0.001949 0.005526 0.000000 0.000000 0.000000
# 4 0.000000 0.000000 0.000000 0.013122 0.000000 0.000000
# 5 0.000000 0.000000 0.000000 0.000000 0.028075 0.000000
# 6 0.000000 0.000000 0.000000 0.000000 0.000000 0.011962
#
#
# Mechanical properties :
#
#
# Convention : Reuss Voigt Hill
#
# Bulk Modulus (GPa) = 52.41615 60.86380 56.63998
# Shear Modulus (GPa) = 55.15203 62.52255 58.83729
#
# Velocity S-wave (km/s) = 4.57413 4.87019 4.72448
# Velocity P-wave (km/s) = 6.91243 7.39693 7.15878
#
# Compressibility (1/GPa) = 0.01907809
#
# Stress axis : x y z
#
# Youngs Moduli (GPa) = 118.44351 89.76183 180.96816
#
# Poissons Ratio (x) = -0.01009 0.21329
# Poissons Ratio (y) = -0.01332 0.35278
# Poissons Ratio (z) = 0.13960 0.17498
#
# Static dielectric constant tensor:
#      x y z
#    x 2.141330 0.000000 0.000000 
#    y 0.000000 2.603950 0.000000 
#    z 0.000000 0.000000 3.091680 
# 
# From -- ./inp_files/17375.got.cif
#   From: 2010.05.17/outbox.cif.g08.bks.cpg/sg72_9_cif.got.tgz:17375.got - 2010.06.03 17:03:01.
