data_PCOD9528092
_publ_section_title
;
Structure prediction by ZEFSAII (Michael W. Deem and Ramdas Pophale) SiO2 
 PCOD9528092
Probable space group: I B A M
;
_chemical_formula_sum "Si O2"
_cell_formula_units_Z 80
_cell_length_a 18.547483
_cell_length_b 12.705844
_cell_length_c 15.713565
_cell_angle_alpha 90.000000
_cell_angle_beta 90.000000
_cell_angle_gamma 90.000000
_cell_volume 3703.081129
_symmetry_space_group_name_H-M "I B A M"
_symmetry_group_IT_number 72
_symmetry_cell_setting 'orthorhombic'
loop_
_space_group_symop_operation_xyz
x,y,z
-x,-y,z
x,-y,1/2-z
-x,y,1/2-z
-x,-y,-z
x,y,-z
-x,y,1/2+z
x,-y,1/2+z
1/2+x,1/2+y,1/2+z
1/2-x,1/2-y,1/2+z
1/2+x,1/2-y,-z
1/2-x,1/2+y,-z
1/2-x,1/2-y,1/2-z
1/2+x,1/2+y,1/2-z
1/2-x,1/2+y,z
1/2+x,1/2-y,z
loop_
_atom_site_type_symbol
_atom_site_label
_atom_site_fract_x
_atom_site_fract_y
_atom_site_fract_z
Si Si1 0.467610 0.732779 0.655459
Si Si2 0.794811 0.386290 0.600818
Si Si3 0.121193 0.810587 0.402101
Si Si4 0.921889 0.463706 0.151307
Si Si5 0.636592 0.452928 0.395799
O O1 0.500000 0.735691 0.750000
O O2 0.460219 0.731751 0.900733
O O3 0.421129 0.838110 0.642589
O O4 0.421440 0.629540 0.637949
O O5 0.786238 0.370286 0.500000
O O6 0.827875 0.278362 0.638448
O O7 0.854085 0.477279 0.611872
O O8 0.716455 0.418746 0.632763
O O9 0.144372 0.823305 0.500000
O O10 0.122657 0.927846 0.365264
O O11 0.921406 0.500000 0.250000
O O12 0.000000 0.500000 0.116401
O O13 0.632139 0.450436 0.500000
#
# Coordination Sequence:
#
# PCOD9528092 Si02
#       5
#    16  16  16  16  16
#     4  12  23  40  65  91 124 165 213 259 310 381
#     4  10  22  40  64  94 125 165 216 262 316 384
#     4  10  21  40  61  87 125 162 206 261 314 371
#     4  11  21  42  62  89 130 167 204 263 319 364
#     4  10  24  42  62  92 131 166 203 264 325 376
#
# _framework density 21.603632000000001
#
# number of rings (size 3 to 8) (size 9 to 14) (size 15 to 20)
#    0.000    1.400    4.000    1.200    2.800    5.200 
#    3.600    2.000    0.000    0.000    0.000    0.000 
#    0.000    0.000    0.000    0.000    0.000    0.000 
#
# Total GULP energy -223503.492924 kJ/mol
# GULP energy per Si atom -5587.587323 kJ/mol
# Density = 2.155446 g / cm^3
# Si number density = 21.603632 Si / 1000 Ang^3
#
#
#
# Elastic Constant Matrix: (Units=GPa)
#
#
# Indices 1 2 3 4 5 6 
#
# 1 55.1867 20.8132 -10.9840 0.0000 0.0000 0.0000
# 2 20.8132 177.2525 3.1841 0.0000 0.0000 0.0000
# 3 -10.9840 3.1841 12.6141 0.0000 0.0000 0.0000
# 4 0.0000 0.0000 0.0000 61.2297 0.0000 0.0000
# 5 0.0000 0.0000 0.0000 0.0000 -7.1483 0.0000
# 6 0.0000 0.0000 0.0000 0.0000 0.0000 -388.9376
#
#
#
# Elastic Compliance Matrix: (Units=1/GPa)
#
#
# Indices 1 2 3 4 5 6 
#
# 1 0.023546 -0.003147 0.021298 0.000000 0.000000 0.000000
# 2 -0.003147 0.006088 -0.004277 0.000000 0.000000 0.000000
# 3 0.021298 -0.004277 0.098902 0.000000 0.000000 0.000000
# 4 0.000000 0.000000 0.000000 0.016332 0.000000 0.000000
# 5 0.000000 0.000000 0.000000 0.000000 -0.139894 0.000000
# 6 0.000000 0.000000 0.000000 0.000000 0.000000 -0.002571
#
#
# Mechanical properties :
#
#
# Convention : Reuss Voigt Hill
#
# Bulk Modulus (GPa) = 6.39866 30.11996 18.25931
# Shear Modulus (GPa) = 186.90739 -51.50188 67.70276
#
# Velocity S-wave (km/s) = 9.31152 -4.88786 5.60416
# Velocity P-wave (km/s) = 10.88918 4.22878 7.09548
#
# Compressibility (1/GPa) = 0.15628267
#
# Stress axis : x y z
#
# Youngs Moduli (GPa) = 42.46941 164.25535 10.11102
#
# Poissons Ratio (x) = 0.51698 -0.21534
# Poissons Ratio (y) = 0.13367 0.04325
# Poissons Ratio (z) = -0.90451 0.70259
#
# Static dielectric constant tensor:
#      x y z
#    x 1.748850 0.000000 0.000000 
#    y 0.000000 1.791850 0.000000 
#    z 0.000000 0.000000 1.905500 
# 
# From -- ./inp_files/24908.got.cif
#   From: 2010.05.17/outbox.cif.g08.bks.cpg/sg72_13_cif.got.tgz:24908.got - 2010.06.03 17:03:01.
