data_PCOD9528352
_publ_section_title
;
Structure prediction by ZEFSAII (Michael W. Deem and Ramdas Pophale) SiO2 
 PCOD9528352
Probable space group: I B A M
;
_chemical_formula_sum "Si O2"
_cell_formula_units_Z 116
_cell_length_a 24.353444
_cell_length_b 11.285994
_cell_length_c 19.623114
_cell_angle_alpha 90.000000
_cell_angle_beta 90.000000
_cell_angle_gamma 90.000000
_cell_volume 5393.468276
_symmetry_space_group_name_H-M "I B A M"
_symmetry_group_IT_number 72
_symmetry_cell_setting 'orthorhombic'
loop_
_space_group_symop_operation_xyz
x,y,z
-x,-y,z
x,-y,1/2-z
-x,y,1/2-z
-x,-y,-z
x,y,-z
-x,y,1/2+z
x,-y,1/2+z
1/2+x,1/2+y,1/2+z
1/2-x,1/2-y,1/2+z
1/2+x,1/2-y,-z
1/2-x,1/2+y,-z
1/2-x,1/2-y,1/2-z
1/2+x,1/2+y,1/2-z
1/2-x,1/2+y,z
1/2+x,1/2-y,z
loop_
_atom_site_type_symbol
_atom_site_label
_atom_site_fract_x
_atom_site_fract_y
_atom_site_fract_z
Si Si1 0.500000 0.000000 0.250000
Si Si2 0.575447 0.092046 0.131385
Si Si3 0.914380 0.050779 0.317857
Si Si4 0.385907 0.355736 0.922102
Si Si5 0.269337 0.098643 0.196074
Si Si6 0.845505 0.595156 0.420467
Si Si7 0.014601 0.805348 0.575063
Si Si8 0.666462 0.242940 0.198703
O O1 0.540332 0.073076 0.200247
O O2 0.537283 0.172465 0.083868
O O3 0.630877 0.166549 0.146109
O O4 0.597983 0.969082 0.102025
O O5 0.956972 0.115724 0.367402
O O6 0.872691 0.147027 0.287496
O O7 0.940766 0.000000 0.250000
O O8 0.881761 0.957144 0.365304
O O9 0.350871 0.236944 0.910835
O O10 0.449492 0.314434 0.918721
O O11 0.375584 0.397837 0.000000
O O12 0.296222 0.049962 0.127457
O O13 0.319005 0.160734 0.237508
O O14 0.223989 0.196924 0.178443
O O15 0.248172 0.000000 0.250000
O O16 0.836487 0.571099 0.500000
O O17 0.030224 0.850539 0.500000
#
# Coordination Sequence:
#
# PCOD9528352 Si02
#       8
#     4  16  16  16  16  16  16  16
#     4  12  24  36  70 104 138 176 226 272 320 404
#     4  11  22  41  62 100 133 173 214 282 330 391
#     4  11  22  37  59  90 124 157 211 272 321 378
#     4  10  22  40  60  85 124 173 212 253 318 401
#     4  11  21  42  69  92 122 169 219 268 333 404
#     4  11  23  41  65  93 131 171 219 281 338 397
#     4  10  22  39  60  85 124 177 217 252 328 406
#     4  10  23  40  68  93 127 167 213 269 337 394
#
# _framework density 21.507496
#
# number of rings (size 3 to 8) (size 9 to 14) (size 15 to 20)
#    0.000    1.379    1.379    4.138    0.000    6.621 
#    0.000    6.897    0.000    0.000    0.000    0.000 
#    0.000    0.000    0.000    0.000    0.000    0.000 
#
# Total GULP energy -323970.292272 kJ/mol
# GULP energy per Si atom -5585.694694 kJ/mol
# Density = 2.145854 g / cm^3
# Si number density = 21.507496 Si / 1000 Ang^3
#
#
#
# Elastic Constant Matrix: (Units=GPa)
#
#
# Indices 1 2 3 4 5 6 
#
# 1 36.6154 -5.1682 3.7290 0.0000 0.0000 0.0000
# 2 -5.1682 66.9895 12.3544 0.0000 0.0000 0.0000
# 3 3.7290 12.3544 88.2507 0.0000 0.0000 0.0000
# 4 0.0000 0.0000 0.0000 23.8594 0.0000 0.0000
# 5 0.0000 0.0000 0.0000 0.0000 8.4955 0.0000
# 6 0.0000 0.0000 0.0000 0.0000 0.0000 12.2842
#
#
#
# Elastic Compliance Matrix: (Units=1/GPa)
#
#
# Indices 1 2 3 4 5 6 
#
# 1 0.027807 0.002425 -0.001514 0.000000 0.000000 0.000000
# 2 0.002425 0.015535 -0.002277 0.000000 0.000000 0.000000
# 3 -0.001514 -0.002277 0.011714 0.000000 0.000000 0.000000
# 4 0.000000 0.000000 0.000000 0.041912 0.000000 0.000000
# 5 0.000000 0.000000 0.000000 0.000000 0.117710 0.000000
# 6 0.000000 0.000000 0.000000 0.000000 0.000000 0.081405
#
#
# Mechanical properties :
#
#
# Convention : Reuss Voigt Hill
#
# Bulk Modulus (GPa) = 19.11233 23.74289 21.42761
# Shear Modulus (GPa) = 15.80985 20.99051 18.40018
#
# Velocity S-wave (km/s) = 2.71419 3.12743 2.92811
# Velocity P-wave (km/s) = 4.32759 4.90962 4.62777
#
# Compressibility (1/GPa) = 0.05232225
#
# Stress axis : x y z
#
# Youngs Moduli (GPa) = 35.96167 64.37188 85.36692
#
# Poissons Ratio (x) = -0.15608 0.12928
# Poissons Ratio (y) = -0.08719 0.19440
# Poissons Ratio (z) = 0.05446 0.14659
#
# Static dielectric constant tensor:
#      x y z
#    x 1.768560 0.000000 0.000000 
#    y 0.000000 1.826420 0.000000 
#    z 0.000000 0.000000 1.780620 
# 
# From -- ./inp_files/33988.got.cif
#   From: 2010.05.17/outbox.cif.g08.bks.cpg/sg72_17_cif.got.tgz:33988.got - 2010.06.03 17:03:01.
