data_PCOD9528847
_publ_section_title
;
Structure prediction by ZEFSAII (Michael W. Deem and Ramdas Pophale) SiO2 
 PCOD9528847
Probable space group: I B A M
;
_chemical_formula_sum "Si O2"
_cell_formula_units_Z 64
_cell_length_a 17.075577
_cell_length_b 7.771319
_cell_length_c 21.224062
_cell_angle_alpha 90.000000
_cell_angle_beta 90.000000
_cell_angle_gamma 90.000000
_cell_volume 2816.427848
_symmetry_space_group_name_H-M "I B A M"
_symmetry_group_IT_number 72
_symmetry_cell_setting 'orthorhombic'
loop_
_space_group_symop_operation_xyz
x,y,z
-x,-y,z
x,-y,1/2-z
-x,y,1/2-z
-x,-y,-z
x,y,-z
-x,y,1/2+z
x,-y,1/2+z
1/2+x,1/2+y,1/2+z
1/2-x,1/2-y,1/2+z
1/2+x,1/2-y,-z
1/2-x,1/2+y,-z
1/2-x,1/2-y,1/2-z
1/2+x,1/2+y,1/2-z
1/2-x,1/2+y,z
1/2+x,1/2-y,z
loop_
_atom_site_type_symbol
_atom_site_label
_atom_site_fract_x
_atom_site_fract_y
_atom_site_fract_z
Si Si1 0.050419 0.242441 0.187940
Si Si2 0.830194 0.069096 0.617415
Si Si3 0.564321 0.728865 0.931586
Si Si4 0.844769 0.546769 0.115170
O O1 0.116901 0.096365 0.179965
O O2 0.099706 0.416956 0.175671
O O3 0.000000 0.236173 0.250000
O O4 0.995860 0.221086 0.126157
O O5 0.834062 0.260739 0.587558
O O6 0.872309 0.922123 0.577633
O O7 0.740963 0.022471 0.630857
O O8 0.609890 0.909328 0.926411
O O9 0.525996 0.713493 0.000000
#
# Coordination Sequence:
#
# PCOD9528847 Si02
#       4
#    16  16  16  16
#     4  10  25  48  76 106 145 187 245 303 362 429
#     4  10  23  46  73 104 142 188 244 294 362 434
#     4  12  25  44  73 108 143 189 243 305 367 423
#     4  10  23  46  73 104 142 188 244 294 362 434
#
# _framework density 22.72382
#
# number of rings (size 3 to 8) (size 9 to 14) (size 15 to 20)
#    1.500    0.000    2.500    1.500    0.000   10.000 
#    0.000    7.500    0.000    0.000    0.000    0.000 
#    0.000    0.000    0.000    0.000    0.000    0.000 
#
# Total GULP energy -178632.146555 kJ/mol
# GULP energy per Si atom -5582.254580 kJ/mol
# Density = 2.267210 g / cm^3
# Si number density = 22.723820 Si / 1000 Ang^3
#
#
#
# Elastic Constant Matrix: (Units=GPa)
#
#
# Indices 1 2 3 4 5 6 
#
# 1 134.4628 12.1031 56.3663 0.0000 0.0000 0.0000
# 2 12.1031 127.9096 10.2047 0.0000 0.0000 0.0000
# 3 56.3663 10.2047 143.5457 0.0000 0.0000 0.0000
# 4 0.0000 0.0000 0.0000 -10.0112 0.0000 0.0000
# 5 0.0000 0.0000 0.0000 0.0000 11.1989 0.0000
# 6 0.0000 0.0000 0.0000 0.0000 0.0000 43.2722
#
#
#
# Elastic Compliance Matrix: (Units=1/GPa)
#
#
# Indices 1 2 3 4 5 6 
#
# 1 0.008943 -0.000569 -0.003471 0.000000 0.000000 0.000000
# 2 -0.000569 0.007899 -0.000338 0.000000 0.000000 0.000000
# 3 -0.003471 -0.000338 0.008354 0.000000 0.000000 0.000000
# 4 0.000000 0.000000 0.000000 -0.099888 0.000000 0.000000
# 5 0.000000 0.000000 0.000000 0.000000 0.089295 0.000000
# 6 0.000000 0.000000 0.000000 0.000000 0.000000 0.023110
#
#
# Mechanical properties :
#
#
# Convention : Reuss Voigt Hill
#
# Bulk Modulus (GPa) = 60.83263 62.58516 61.70890
# Shear Modulus (GPa) = 96.24823 30.70823 63.47823
#
# Velocity S-wave (km/s) = 6.51518 3.68008 5.29106
# Velocity P-wave (km/s) = 9.13375 6.75713 8.03381
#
# Compressibility (1/GPa) = 0.01643855
#
# Stress axis : x y z
#
# Youngs Moduli (GPa) = 111.81399 126.60060 119.70955
#
# Poissons Ratio (x) = 0.07207 0.41555
# Poissons Ratio (y) = 0.06366 0.04046
# Poissons Ratio (z) = 0.38815 0.04279
#
# Static dielectric constant tensor:
#      x y z
#    x 1.848470 0.000000 0.000000 
#    y 0.000000 1.923120 0.000000 
#    z 0.000000 0.000000 1.821110 
# 
# From -- ./inp_files/39510.got.cif
#   From: 2010.05.17/outbox.cif.g08.bks.cpg/sg72_20_cif.got.tgz:39510.got - 2010.06.03 17:03:01.
