data_PCOD9528816
_publ_section_title
;
Structure prediction by ZEFSAII (Michael W. Deem and Ramdas Pophale) SiO2 
 PCOD9528816
Probable space group: I B A M
;
_chemical_formula_sum "Si O2"
_cell_formula_units_Z 80
_cell_length_a 8.844199
_cell_length_b 17.183450
_cell_length_c 26.165451
_cell_angle_alpha 90.000000
_cell_angle_beta 90.000000
_cell_angle_gamma 90.000000
_cell_volume 3976.464360
_symmetry_space_group_name_H-M "I B A M"
_symmetry_group_IT_number 72
_symmetry_cell_setting 'orthorhombic'
loop_
_space_group_symop_operation_xyz
x,y,z
-x,-y,z
x,-y,1/2-z
-x,y,1/2-z
-x,-y,-z
x,y,-z
-x,y,1/2+z
x,-y,1/2+z
1/2+x,1/2+y,1/2+z
1/2-x,1/2-y,1/2+z
1/2+x,1/2-y,-z
1/2-x,1/2+y,-z
1/2-x,1/2-y,1/2-z
1/2+x,1/2+y,1/2-z
1/2-x,1/2+y,z
1/2+x,1/2-y,z
loop_
_atom_site_type_symbol
_atom_site_label
_atom_site_fract_x
_atom_site_fract_y
_atom_site_fract_z
Si Si1 0.985753 0.714467 0.875815
Si Si2 0.369002 0.056363 0.331491
Si Si3 0.638685 0.451851 0.108782
Si Si4 0.755922 0.201769 0.442080
Si Si5 0.057737 0.861086 0.807106
O O1 0.961582 0.630804 0.851280
O O2 0.830161 0.746041 0.898120
O O3 0.082291 0.706710 0.927256
O O4 0.053497 0.777894 0.836327
O O5 0.221693 0.095955 0.304242
O O6 0.500000 0.000000 0.308487
O O7 0.280081 0.004789 0.374170
O O8 0.500000 0.500000 0.085596
O O9 0.687356 0.384583 0.070564
O O10 0.559933 0.413015 0.159315
O O11 0.785925 0.224269 0.500000
O O12 0.000000 0.851182 0.750000
#
# Coordination Sequence:
#
# PCOD9528816 Si02
#       5
#    16  16  16  16  16
#     4  11  22  42  64  94 130 169 218 271 319 381
#     4  11  21  40  68  92 131 164 209 269 318 370
#     4   9  21  40  62  88 128 169 208 271 327 380
#     4  11  22  40  65  92 125 172 221 268 324 387
#     4  10  23  44  67  88 128 176 212 260 327 388
#
# _framework density 20.118375
#
# number of rings (size 3 to 8) (size 9 to 14) (size 15 to 20)
#    0.000    1.600    4.000    0.600    0.000    4.800 
#    0.000    7.000    0.000    0.000    0.000    0.000 
#    0.000    0.000    0.000    0.000    0.000    0.000 
#
# Total GULP energy -222817.063080 kJ/mol
# GULP energy per Si atom -5570.426577 kJ/mol
# Density = 2.007258 g / cm^3
# Si number density = 20.118375 Si / 1000 Ang^3
#
#
#
# Elastic Constant Matrix: (Units=GPa)
#
#
# Indices 1 2 3 4 5 6 
#
# 1 87.2468 32.2594 24.3526 0.0000 0.0000 0.0000
# 2 32.2594 123.5560 29.0254 0.0000 0.0000 0.0000
# 3 24.3526 29.0254 81.4326 0.0000 0.0000 0.0000
# 4 0.0000 0.0000 0.0000 -3.1225 0.0000 0.0000
# 5 0.0000 0.0000 0.0000 0.0000 -4.0641 0.0000
# 6 0.0000 0.0000 0.0000 0.0000 0.0000 18.6109
#
#
#
# Elastic Compliance Matrix: (Units=1/GPa)
#
#
# Indices 1 2 3 4 5 6 
#
# 1 0.013324 -0.002775 -0.002995 0.000000 0.000000 0.000000
# 2 -0.002775 0.009411 -0.002525 0.000000 0.000000 0.000000
# 3 -0.002995 -0.002525 0.014076 0.000000 0.000000 0.000000
# 4 0.000000 0.000000 0.000000 -0.320252 0.000000 0.000000
# 5 0.000000 0.000000 0.000000 0.000000 -0.246059 0.000000
# 6 0.000000 0.000000 0.000000 0.000000 0.000000 0.053732
#
#
# Mechanical properties :
#
#
# Convention : Reuss Voigt Hill
#
# Bulk Modulus (GPa) = 49.45438 51.50111 50.47775
# Shear Modulus (GPa) = -11.05124 16.05806 2.50341
#
# Velocity S-wave (km/s) = -2.34628 2.82827 1.11671
# Velocity P-wave (km/s) = 4.15873 6.02662 5.17760
#
# Compressibility (1/GPa) = 0.02022066
#
# Stress axis : x y z
#
# Youngs Moduli (GPa) = 75.05310 106.25746 71.04435
#
# Poissons Ratio (x) = 0.29487 0.21281
# Poissons Ratio (y) = 0.20828 0.17936
# Poissons Ratio (z) = 0.22481 0.26825
#
# Static dielectric constant tensor:
#      x y z
#    x 1.746900 0.000000 0.000000 
#    y 0.000000 1.926660 0.000000 
#    z 0.000000 0.000000 1.642270 
# 
# From -- ./inp_files/47142.got.cif
#   From: 2010.05.17/outbox.cif.g08.bks.cpg/sg72_24_cif.got.tgz:47142.got - 2010.06.03 17:03:01.
