data_PCOD9528770
_publ_section_title
;
Structure prediction by ZEFSAII (Michael W. Deem and Ramdas Pophale) SiO2 
 PCOD9528770
Probable space group: I B A M
;
_chemical_formula_sum "Si O2"
_cell_formula_units_Z 116
_cell_length_a 9.169398
_cell_length_b 21.194308
_cell_length_c 24.880973
_cell_angle_alpha 90.000000
_cell_angle_beta 90.000000
_cell_angle_gamma 90.000000
_cell_volume 4835.344541
_symmetry_space_group_name_H-M "I B A M"
_symmetry_group_IT_number 72
_symmetry_cell_setting 'orthorhombic'
loop_
_space_group_symop_operation_xyz
x,y,z
-x,-y,z
x,-y,1/2-z
-x,y,1/2-z
-x,-y,-z
x,y,-z
-x,y,1/2+z
x,-y,1/2+z
1/2+x,1/2+y,1/2+z
1/2-x,1/2-y,1/2+z
1/2+x,1/2-y,-z
1/2-x,1/2+y,-z
1/2-x,1/2-y,1/2-z
1/2+x,1/2+y,1/2-z
1/2-x,1/2+y,z
1/2+x,1/2-y,z
loop_
_atom_site_type_symbol
_atom_site_label
_atom_site_fract_x
_atom_site_fract_y
_atom_site_fract_z
Si Si1 0.427229 0.254888 0.437266
Si Si2 0.485751 0.607881 0.309516
Si Si3 0.046118 0.666086 0.690294
Si Si4 0.210499 0.202197 0.378833
Si Si5 0.221231 0.534906 0.675056
Si Si6 0.241219 0.364002 0.621791
Si Si7 0.828460 0.486876 0.940282
Si Si8 0.500000 0.000000 0.250000
O O1 0.439218 0.265041 0.500000
O O2 0.335033 0.191099 0.424487
O O3 0.584544 0.260241 0.410544
O O4 0.327689 0.308203 0.408675
O O5 0.500000 0.636305 0.250000
O O6 0.387996 0.650104 0.349752
O O7 0.382339 0.547021 0.303601
O O8 0.641339 0.603808 0.338010
O O9 0.168556 0.715231 0.668597
O O10 0.125716 0.597701 0.689380
O O11 0.000000 0.682464 0.750000
O O12 0.898573 0.659261 0.655623
O O13 0.229161 0.525521 0.611128
O O14 0.125072 0.481752 0.705138
O O15 0.195311 0.414674 0.577239
O O16 0.000000 0.500000 0.941754
O O17 0.767296 0.499721 0.000000
#
# Coordination Sequence:
#
# PCOD9528770 Si02
#       8
#    16  16  16  16  16  16  16   4
#     4  11  23  44  68  95 130 172 226 281 333 393
#     4  10  24  42  64  99 141 174 222 285 345 409
#     4  11  21  40  66  95 132 173 214 275 337 405
#     4  10  23  42  67  99 131 167 219 275 331 410
#     4  11  22  39  64  98 131 175 231 275 339 404
#     4  11  22  42  65  95 134 179 227 278 338 410
#     4  11  23  41  62  93 136 177 229 283 336 402
#     4  12  20  36  64  96 128 172 234 286 332 400
#
# _framework density 23.990019
#
# number of rings (size 3 to 8) (size 9 to 14) (size 15 to 20)
#    0.000    1.241    2.759    3.310    1.931    0.552 
#    0.000   24.138    0.000    0.000    0.000    0.000 
#    0.000    0.000    0.000    0.000    0.000    0.000 
#
# Total GULP energy -323198.062655 kJ/mol
# GULP energy per Si atom -5572.380391 kJ/mol
# Density = 2.393542 g / cm^3
# Si number density = 23.990019 Si / 1000 Ang^3
#
#
#
# Elastic Constant Matrix: (Units=GPa)
#
#
# Indices 1 2 3 4 5 6 
#
# 1 214.5663 42.9943 80.5324 0.0000 0.0000 0.0000
# 2 42.9943 46.5483 61.2370 0.0000 0.0000 0.0000
# 3 80.5324 61.2370 164.4754 0.0000 0.0000 0.0000
# 4 0.0000 0.0000 0.0000 19.0222 0.0000 0.0000
# 5 0.0000 0.0000 0.0000 0.0000 10.9462 0.0000
# 6 0.0000 0.0000 0.0000 0.0000 0.0000 38.1863
#
#
#
# Elastic Compliance Matrix: (Units=1/GPa)
#
#
# Indices 1 2 3 4 5 6 
#
# 1 0.005952 -0.003261 -0.001700 0.000000 0.000000 0.000000
# 2 -0.003261 0.043894 -0.014746 0.000000 0.000000 0.000000
# 3 -0.001700 -0.014746 0.012403 0.000000 0.000000 0.000000
# 4 0.000000 0.000000 0.000000 0.052570 0.000000 0.000000
# 5 0.000000 0.000000 0.000000 0.000000 0.091356 0.000000
# 6 0.000000 0.000000 0.000000 0.000000 0.000000 0.026187
#
#
# Mechanical properties :
#
#
# Convention : Reuss Voigt Hill
#
# Bulk Modulus (GPa) = 43.79296 88.34637 66.06967
# Shear Modulus (GPa) = 17.89625 29.68602 23.79114
#
# Velocity S-wave (km/s) = 2.73424 3.52153 3.15256
# Velocity P-wave (km/s) = 5.31624 7.31035 6.39154
#
# Compressibility (1/GPa) = 0.02283472
#
# Stress axis : x y z
#
# Youngs Moduli (GPa) = 168.00724 22.78213 80.62833
#
# Poissons Ratio (x) = 0.07429 0.13709
# Poissons Ratio (y) = 0.54785 1.18894
# Poissons Ratio (z) = 0.28566 0.33594
#
# Static dielectric constant tensor:
#      x y z
#    x 1.848980 0.000000 0.000000 
#    y 0.000000 2.247480 0.000000 
#    z 0.000000 0.000000 1.916590 
# 
# From -- ./inp_files/42717.got.cif
#   From: 2010.05.17/outbox.cif.g08.bks.cpg/sg72_22_cif.got.tgz:42717.got - 2010.06.03 17:03:01.
