data_PCOD9528185
_publ_section_title
;
Structure prediction by ZEFSAII (Michael W. Deem and Ramdas Pophale) SiO2 
 PCOD9528185
Probable space group: I B A M
;
_chemical_formula_sum "Si O2"
_cell_formula_units_Z 104
_cell_length_a 19.521460
_cell_length_b 26.815324
_cell_length_c 9.356464
_cell_angle_alpha 90.000000
_cell_angle_beta 90.000000
_cell_angle_gamma 90.000000
_cell_volume 4897.868208
_symmetry_space_group_name_H-M "I B A M"
_symmetry_group_IT_number 72
_symmetry_cell_setting 'orthorhombic'
loop_
_space_group_symop_operation_xyz
x,y,z
-x,-y,z
x,-y,1/2-z
-x,y,1/2-z
-x,-y,-z
x,y,-z
-x,y,1/2+z
x,-y,1/2+z
1/2+x,1/2+y,1/2+z
1/2-x,1/2-y,1/2+z
1/2+x,1/2-y,-z
1/2-x,1/2+y,-z
1/2-x,1/2-y,1/2-z
1/2+x,1/2+y,1/2-z
1/2-x,1/2+y,z
1/2+x,1/2-y,z
loop_
_atom_site_type_symbol
_atom_site_label
_atom_site_fract_x
_atom_site_fract_y
_atom_site_fract_z
Si Si1 0.072368 0.549718 0.170479
Si Si2 0.672357 0.144199 0.662525
Si Si3 0.254450 0.983776 0.000000
Si Si4 0.678695 0.241483 0.829283
Si Si5 0.432820 0.698094 0.335082
Si Si6 0.220399 0.069895 0.227050
Si Si7 0.431721 0.422218 0.165565
O O1 0.099835 0.500000 0.250000
O O2 0.122536 0.596567 0.181446
O O3 0.000000 0.559597 0.250000
O O4 0.064078 0.539264 0.000000
O O5 0.663133 0.163187 0.500000
O O6 0.656264 0.186459 0.777050
O O7 0.749664 0.122814 0.676637
O O8 0.243890 0.027605 0.119561
O O9 0.255189 0.941123 0.123034
O O10 0.750000 0.250000 0.750000
O O11 0.628591 0.281594 0.759193
O O12 0.682890 0.245165 0.000000
O O13 0.500000 0.714783 0.250000
O O14 0.430574 0.715468 0.500000
O O15 0.433397 0.637958 0.339826
O O16 0.138745 0.065359 0.253087
O O17 0.500000 0.438812 0.250000
O O18 0.429063 0.440582 0.000000
#
# Coordination Sequence:
#
# PCOD9528185 Si02
#       7
#    16  16   8  16  16  16  16
#     4  10  22  40  62  92 127 165 208 256 307 367
#     4  11  25  41  66  93 124 166 206 259 317 375
#     4  10  24  38  63  86 123 164 204 260 312 360
#     4  12  26  43  65  95 129 166 208 263 321 377
#     4  10  21  41  67  94 126 166 210 257 313 377
#     4  11  22  42  60  91 123 161 211 256 309 371
#     4  10  22  39  63  90 122 162 204 252 304 366
#
# _framework density 21.233726000000001
#
# number of rings (size 3 to 8) (size 9 to 14) (size 15 to 20)
#    0.000    1.385    1.538    3.692    4.308    3.692 
#    0.000    3.846    0.000    0.000    0.000    0.000 
#    0.000    0.000    0.000    0.000    0.000    0.000 
#
# Total GULP energy -289595.398425 kJ/mol
# GULP energy per Si atom -5569.142277 kJ/mol
# Density = 2.118540 g / cm^3
# Si number density = 21.233726 Si / 1000 Ang^3
#
#
#
# Elastic Constant Matrix: (Units=GPa)
#
#
# Indices 1 2 3 4 5 6 
#
# 1 93.0358 9.7751 38.8010 0.0000 0.0000 0.0000
# 2 9.7751 46.1254 34.1902 0.0000 0.0000 0.0000
# 3 38.8010 34.1902 215.0910 0.0000 0.0000 0.0000
# 4 0.0000 0.0000 0.0000 -161.8309 0.0000 0.0000
# 5 0.0000 0.0000 0.0000 0.0000 -79.0333 0.0000
# 6 0.0000 0.0000 0.0000 0.0000 0.0000 12.7410
#
#
#
# Elastic Compliance Matrix: (Units=1/GPa)
#
#
# Indices 1 2 3 4 5 6 
#
# 1 0.011666 -0.001034 -0.001940 0.000000 0.000000 0.000000
# 2 -0.001034 0.024667 -0.003734 0.000000 0.000000 0.000000
# 3 -0.001940 -0.003734 0.005593 0.000000 0.000000 0.000000
# 4 0.000000 0.000000 0.000000 -0.006179 0.000000 0.000000
# 5 0.000000 0.000000 0.000000 0.000000 -0.012653 0.000000
# 6 0.000000 0.000000 0.000000 0.000000 0.000000 0.078487
#
#
# Mechanical properties :
#
#
# Convention : Reuss Voigt Hill
#
# Bulk Modulus (GPa) = 35.07694 57.75386 46.41540
# Shear Modulus (GPa) = 40.16015 -27.52558 6.31729
#
# Velocity S-wave (km/s) = 4.35367 -3.60434 1.72672
# Velocity P-wave (km/s) = 6.46745 3.15221 5.08745
#
# Compressibility (1/GPa) = 0.02850876
#
# Stress axis : x y z
#
# Youngs Moduli (GPa) = 85.71651 40.53940 178.80128
#
# Poissons Ratio (x) = 0.04193 0.34690
# Poissons Ratio (y) = 0.08866 0.66773
# Poissons Ratio (z) = 0.16630 0.15139
#
# Static dielectric constant tensor:
#      x y z
#    x 1.737570 0.000000 0.000000 
#    y 0.000000 1.799930 0.000000 
#    z 0.000000 0.000000 1.705660 
# 
# From -- ./inp_files/6178.got.cif
#   From: 2010.05.17/outbox.cif.g08.bks.cpg/sg72_4_cif.got.tgz:6178.got - 2010.06.03 17:03:01.
