data_PCOD9528861
_publ_section_title
;
Structure prediction by ZEFSAII (Michael W. Deem and Ramdas Pophale) SiO2 
 PCOD9528861
Probable space group: I B A M
;
_chemical_formula_sum "Si O2"
_cell_formula_units_Z 56
_cell_length_a 13.795236
_cell_length_b 16.893709
_cell_length_c 9.092165
_cell_angle_alpha 90.000000
_cell_angle_beta 90.000000
_cell_angle_gamma 90.000000
_cell_volume 2118.953625
_symmetry_space_group_name_H-M "I B A M"
_symmetry_group_IT_number 72
_symmetry_cell_setting 'orthorhombic'
loop_
_space_group_symop_operation_xyz
x,y,z
-x,-y,z
x,-y,1/2-z
-x,y,1/2-z
-x,-y,-z
x,y,-z
-x,y,1/2+z
x,-y,1/2+z
1/2+x,1/2+y,1/2+z
1/2-x,1/2-y,1/2+z
1/2+x,1/2-y,-z
1/2-x,1/2+y,-z
1/2-x,1/2-y,1/2-z
1/2+x,1/2+y,1/2-z
1/2-x,1/2+y,z
1/2+x,1/2-y,z
loop_
_atom_site_type_symbol
_atom_site_label
_atom_site_fract_x
_atom_site_fract_y
_atom_site_fract_z
Si Si1 0.387661 0.593056 0.500000
Si Si2 0.000000 0.269954 0.250000
Si Si3 0.500000 0.000000 0.000000
Si Si4 0.765798 0.042521 0.500000
Si Si5 0.000000 0.000000 0.250000
Si Si6 0.630718 0.689631 0.500000
Si Si7 0.136774 0.718810 0.000000
Si Si8 0.359724 0.000000 0.750000
O O1 0.284245 0.550807 0.500000
O O2 0.437331 0.556925 0.644983
O O3 0.380340 0.686458 0.500000
O O4 0.926998 0.221443 0.358444
O O5 0.925169 0.312330 0.139210
O O6 0.428736 0.963284 0.872546
O O7 0.862813 0.094121 0.500000
O O8 0.707623 0.056432 0.649815
O O9 0.746926 0.708081 0.500000
#
# Coordination Sequence:
#
# PCOD9528861 Si02
#       8
#     8   8   4   8   4   8   8   8
#     4  11  24  37  66  97 139 177 218 275 345 419
#     4  10  25  46  73 102 141 183 244 284 361 430
#     4   8  16  38  66  76 124 188 226 286 330 404
#     4  11  24  37  64 102 141 169 232 276 359 417
#     4  10  24  38  62 106 140 178 216 274 346 424
#     4  11  26  47  74 101 142 190 235 304 347 427
#     4  11  24  46  74 102 138 189 231 294 353 424
#     4   9  19  38  61  91 128 176 230 282 346 414
#
# _framework density 26.428138000000001
#
# number of rings (size 3 to 8) (size 9 to 14) (size 15 to 20)
#    0.000    1.714    0.000    2.571   16.000    0.000 
#    0.000    5.714   18.857    0.000    0.000    0.000 
#    0.000    0.000    0.000    0.000    0.000    0.000 
#
# Total GULP energy -156124.317595 kJ/mol
# GULP energy per Si atom -5575.868486 kJ/mol
# Density = 2.636799 g / cm^3
# Si number density = 26.428138 Si / 1000 Ang^3
#
#
#
# Elastic Constant Matrix: (Units=GPa)
#
#
# Indices 1 2 3 4 5 6 
#
# 1 203.9714 32.6044 83.4329 0.0000 0.0000 0.0000
# 2 32.6044 61.1636 10.5115 0.0000 0.0000 0.0000
# 3 83.4329 10.5115 252.7769 0.0000 0.0000 0.0000
# 4 0.0000 0.0000 0.0000 -2.5911 0.0000 0.0000
# 5 0.0000 0.0000 0.0000 0.0000 51.5626 0.0000
# 6 0.0000 0.0000 0.0000 0.0000 0.0000 62.8512
#
#
#
# Elastic Compliance Matrix: (Units=1/GPa)
#
#
# Indices 1 2 3 4 5 6 
#
# 1 0.006156 -0.002953 -0.001909 0.000000 0.000000 0.000000
# 2 -0.002953 0.017884 0.000231 0.000000 0.000000 0.000000
# 3 -0.001909 0.000231 0.004577 0.000000 0.000000 0.000000
# 4 0.000000 0.000000 0.000000 -0.385944 0.000000 0.000000
# 5 0.000000 0.000000 0.000000 0.000000 0.019394 0.000000
# 6 0.000000 0.000000 0.000000 0.000000 0.000000 0.015911
#
#
# Mechanical properties :
#
#
# Convention : Reuss Voigt Hill
#
# Bulk Modulus (GPa) = 51.66889 85.66772 68.66830
# Shear Modulus (GPa) = -16.32337 48.45544 16.06603
#
# Velocity S-wave (km/s) = -2.48795 4.28656 2.46827
# Velocity P-wave (km/s) = 3.36748 7.54885 5.84487
#
# Compressibility (1/GPa) = 0.01935401
#
# Stress axis : x y z
#
# Youngs Moduli (GPa) = 162.45500 55.91538 218.50675
#
# Poissons Ratio (x) = 0.16513 0.41711
# Poissons Ratio (y) = 0.47977 -0.05049
# Poissons Ratio (z) = 0.31011 -0.01292
#
# Static dielectric constant tensor:
#      x y z
#    x 2.118320 0.000000 0.000000 
#    y 0.000000 2.142180 0.000000 
#    z 0.000000 0.000000 2.083170 
# 
# From -- ./inp_files/3300.got.cif
#   From: 2010.05.17/outbox.cif.g08.bks.cpg/sg72_2_cif.got.tgz:3300.got - 2010.06.03 17:03:01.
