data_PCOD9528450
_publ_section_title
;
Structure prediction by ZEFSAII (Michael W. Deem and Ramdas Pophale) SiO2 
 PCOD9528450
Probable space group: I B A M
;
_chemical_formula_sum "Si O2"
_cell_formula_units_Z 72
_cell_length_a 24.226005
_cell_length_b 8.363385
_cell_length_c 14.749492
_cell_angle_alpha 90.000000
_cell_angle_beta 90.000000
_cell_angle_gamma 90.000000
_cell_volume 2988.415324
_symmetry_space_group_name_H-M "I B A M"
_symmetry_group_IT_number 72
_symmetry_cell_setting 'orthorhombic'
loop_
_space_group_symop_operation_xyz
x,y,z
-x,-y,z
x,-y,1/2-z
-x,y,1/2-z
-x,-y,-z
x,y,-z
-x,y,1/2+z
x,-y,1/2+z
1/2+x,1/2+y,1/2+z
1/2-x,1/2-y,1/2+z
1/2+x,1/2-y,-z
1/2-x,1/2+y,-z
1/2-x,1/2-y,1/2-z
1/2+x,1/2+y,1/2-z
1/2-x,1/2+y,z
1/2+x,1/2-y,z
loop_
_atom_site_type_symbol
_atom_site_label
_atom_site_fract_x
_atom_site_fract_y
_atom_site_fract_z
Si Si1 0.500000 0.775869 0.750000
Si Si2 0.311511 0.051800 0.348817
Si Si3 0.922645 0.707439 0.099633
Si Si4 0.577781 0.590505 0.106650
Si Si5 0.300102 0.305188 0.897950
O O1 0.541924 0.862872 0.681645
O O2 0.537943 0.673219 0.820427
O O3 0.358781 0.160035 0.391638
O O4 0.252899 0.139465 0.342616
O O5 0.330830 0.000000 0.250000
O O6 0.303396 0.885411 0.399841
O O7 0.928086 0.899343 0.107132
O O8 0.942291 0.656997 0.000000
O O9 0.640609 0.632013 0.133589
O O10 0.569153 0.641517 0.000000
O O11 0.291825 0.367679 0.000000
#
# Coordination Sequence:
#
# PCOD9528450 Si02
#       5
#     8  16  16  16  16
#     4  12  23  40  67  96 129 172 225 276 317 374
#     4  12  25  42  66  97 130 165 211 265 324 389
#     4  11  23  41  66  96 131 172 217 266 323 384
#     4  10  22  40  65  97 132 173 219 268 323 382
#     4  11  23  42  66  93 128 167 208 258 322 391
#
# _framework density 24.093036000000001
#
# number of rings (size 3 to 8) (size 9 to 14) (size 15 to 20)
#    0.000    0.889    0.000    8.000    0.000    5.333 
#    0.000    5.000    0.000    8.000    0.000    0.000 
#    0.000    0.000    0.000    0.000    0.000    0.000 
#
# Total GULP energy -201620.118902 kJ/mol
# GULP energy per Si atom -5600.558858 kJ/mol
# Density = 2.403820 g / cm^3
# Si number density = 24.093036 Si / 1000 Ang^3
#
#
#
# Elastic Constant Matrix: (Units=GPa)
#
#
# Indices 1 2 3 4 5 6 
#
# 1 161.1482 32.8188 67.8158 0.0000 0.0000 0.0000
# 2 32.8188 28.3322 25.2411 0.0000 0.0000 0.0000
# 3 67.8158 25.2411 149.1469 0.0000 0.0000 0.0000
# 4 0.0000 0.0000 0.0000 27.7091 0.0000 0.0000
# 5 0.0000 0.0000 0.0000 0.0000 14.4902 0.0000
# 6 0.0000 0.0000 0.0000 0.0000 0.0000 44.7317
#
#
#
# Elastic Compliance Matrix: (Units=1/GPa)
#
#
# Indices 1 2 3 4 5 6 
#
# 1 0.008978 -0.007964 -0.002735 0.000000 0.000000 0.000000
# 2 -0.007964 0.048626 -0.004608 0.000000 0.000000 0.000000
# 3 -0.002735 -0.004608 0.008728 0.000000 0.000000 0.000000
# 4 0.000000 0.000000 0.000000 0.036089 0.000000 0.000000
# 5 0.000000 0.000000 0.000000 0.000000 0.069012 0.000000
# 6 0.000000 0.000000 0.000000 0.000000 0.000000 0.022356
#
#
# Mechanical properties :
#
#
# Convention : Reuss Voigt Hill
#
# Bulk Modulus (GPa) = 27.99624 65.59760 46.79692
# Shear Modulus (GPa) = 21.15884 31.56964 26.36424
#
# Velocity S-wave (km/s) = 2.96668 3.62376 3.31156
# Velocity P-wave (km/s) = 4.83531 6.69289 5.83845
#
# Compressibility (1/GPa) = 0.03571908
#
# Stress axis : x y z
#
# Youngs Moduli (GPa) = 111.38248 20.56523 114.57321
#
# Poissons Ratio (x) = 0.16377 0.31330
# Poissons Ratio (y) = 0.88701 0.52798
# Poissons Ratio (z) = 0.30458 0.09477
#
# Static dielectric constant tensor:
#      x y z
#    x 1.900630 0.000000 0.000000 
#    y 0.000000 1.900020 0.000000 
#    z 0.000000 0.000000 1.992040 
# 
# From -- ./inp_files/25721.got.cif
#   From: 2010.05.17/outbox.cif.g08.bks.cpg/sg72_13_cif.got.tgz:25721.got - 2010.06.03 17:03:01.
