data_PCOD9528687
_publ_section_title
;
Structure prediction by ZEFSAII (Michael W. Deem and Ramdas Pophale) SiO2 
 PCOD9528687
Probable space group: I B A M
;
_chemical_formula_sum "Si O2"
_cell_formula_units_Z 92
_cell_length_a 25.229599
_cell_length_b 8.480204
_cell_length_c 19.097695
_cell_angle_alpha 90.000000
_cell_angle_beta 90.000000
_cell_angle_gamma 90.000000
_cell_volume 4085.992836
_symmetry_space_group_name_H-M "I B A M"
_symmetry_group_IT_number 72
_symmetry_cell_setting 'orthorhombic'
loop_
_space_group_symop_operation_xyz
x,y,z
-x,-y,z
x,-y,1/2-z
-x,y,1/2-z
-x,-y,-z
x,y,-z
-x,y,1/2+z
x,-y,1/2+z
1/2+x,1/2+y,1/2+z
1/2-x,1/2-y,1/2+z
1/2+x,1/2-y,-z
1/2-x,1/2+y,-z
1/2-x,1/2-y,1/2-z
1/2+x,1/2+y,1/2-z
1/2-x,1/2+y,z
1/2+x,1/2-y,z
loop_
_atom_site_type_symbol
_atom_site_label
_atom_site_fract_x
_atom_site_fract_y
_atom_site_fract_z
Si Si1 0.617357 0.685629 0.500000
Si Si2 0.711833 0.032781 0.641781
Si Si3 0.925929 0.202919 0.151617
Si Si4 0.164760 0.949312 0.637488
Si Si5 0.430641 0.331752 0.000000
Si Si6 0.000000 0.000000 0.750000
Si Si7 0.658166 0.800627 0.246615
Si Si8 0.353881 0.964239 0.500000
O O1 0.650922 0.657323 0.429716
O O2 0.578245 0.525719 0.500000
O O3 0.607911 0.877820 0.500000
O O4 0.773801 0.008545 0.634110
O O5 0.703648 0.191470 0.687647
O O6 0.682820 0.032675 0.568237
O O7 0.679652 0.913878 0.691959
O O8 0.896156 0.330760 0.201715
O O9 0.875650 0.093544 0.132635
O O10 0.954526 0.220504 0.075823
O O11 0.964925 0.109521 0.201084
O O12 0.152455 0.858392 0.709515
O O13 0.381333 0.207704 0.000000
#
# Coordination Sequence:
#
# PCOD9528687 Si02
#       8
#     8  16  16  16   8   4  16   8
#     4  10  23  39  61  93 134 192 225 271 330 407
#     4  11  25  33  62  94 136 189 225 269 346 425
#     4  11  24  42  67  97 131 175 233 299 354 427
#     4  11  22  39  57  92 140 175 231 282 333 422
#     4  10  24  45  68  99 138 177 229 286 343 419
#     4  12  24  42  76 102 120 178 244 314 384 420
#     4  11  22  37  56  93 130 173 228 278 346 413
#     4  12  21  43  61  96 142 194 230 270 335 419
#
# _framework density 22.515948999999999
#
# number of rings (size 3 to 8) (size 9 to 14) (size 15 to 20)
#    0.000    1.043    5.217    1.043    7.304    0.348 
#    6.261    0.000    0.000    2.087    0.000    6.087 
#    0.000    0.000    0.000    0.000    0.000    0.000 
#
# Total GULP energy -256101.895022 kJ/mol
# GULP energy per Si atom -5567.432500 kJ/mol
# Density = 2.246470 g / cm^3
# Si number density = 22.515949 Si / 1000 Ang^3
#
#
#
# Elastic Constant Matrix: (Units=GPa)
#
#
# Indices 1 2 3 4 5 6 
#
# 1 37.4090 -9.8823 6.8330 0.0000 0.0000 0.0000
# 2 -9.8823 50.3007 8.4289 0.0000 0.0000 0.0000
# 3 6.8330 8.4289 175.1034 0.0000 0.0000 0.0000
# 4 0.0000 0.0000 0.0000 41.4457 0.0000 0.0000
# 5 0.0000 0.0000 0.0000 0.0000 38.9679 0.0000
# 6 0.0000 0.0000 0.0000 0.0000 0.0000 3.3437
#
#
#
# Elastic Compliance Matrix: (Units=1/GPa)
#
#
# Indices 1 2 3 4 5 6 
#
# 1 0.028529 0.005839 -0.001394 0.000000 0.000000 0.000000
# 2 0.005839 0.021237 -0.001250 0.000000 0.000000 0.000000
# 3 -0.001394 -0.001250 0.005825 0.000000 0.000000 0.000000
# 4 0.000000 0.000000 0.000000 0.024128 0.000000 0.000000
# 5 0.000000 0.000000 0.000000 0.000000 0.025662 0.000000
# 6 0.000000 0.000000 0.000000 0.000000 0.000000 0.299066
#
#
# Mechanical properties :
#
#
# Convention : Reuss Voigt Hill
#
# Bulk Modulus (GPa) = 16.13444 30.39691 23.26567
# Shear Modulus (GPa) = 11.94118 33.91370 22.92744
#
# Velocity S-wave (km/s) = 2.30542 3.88520 3.19450
# Velocity P-wave (km/s) = 3.77729 5.80137 4.89509
#
# Compressibility (1/GPa) = 0.06197923
#
# Stress axis : x y z
#
# Youngs Moduli (GPa) = 35.05261 47.08763 171.65922
#
# Poissons Ratio (x) = -0.27492 0.23934
# Poissons Ratio (y) = -0.20465 0.21459
# Poissons Ratio (z) = 0.04887 0.05886
#
# Static dielectric constant tensor:
#      x y z
#    x 1.809760 0.000000 0.000000 
#    y 0.000000 2.133270 0.000000 
#    z 0.000000 0.000000 1.899940 
# 
# From -- ./inp_files/40225.got.cif
#   From: 2010.05.17/outbox.cif.g08.bks.cpg/sg72_21_cif.got.tgz:40225.got - 2010.06.03 17:03:01.
