data_PCOD9528797
_publ_section_title
;
Structure prediction by ZEFSAII (Michael W. Deem and Ramdas Pophale) SiO2 
 PCOD9528797
Probable space group: I B A M
;
_chemical_formula_sum "Si O2"
_cell_formula_units_Z 108
_cell_length_a 11.500159
_cell_length_b 32.581256
_cell_length_c 15.148650
_cell_angle_alpha 90.000000
_cell_angle_beta 90.000000
_cell_angle_gamma 90.000000
_cell_volume 5676.041979
_symmetry_space_group_name_H-M "I B A M"
_symmetry_group_IT_number 72
_symmetry_cell_setting 'orthorhombic'
loop_
_space_group_symop_operation_xyz
x,y,z
-x,-y,z
x,-y,1/2-z
-x,y,1/2-z
-x,-y,-z
x,y,-z
-x,y,1/2+z
x,-y,1/2+z
1/2+x,1/2+y,1/2+z
1/2-x,1/2-y,1/2+z
1/2+x,1/2-y,-z
1/2-x,1/2+y,-z
1/2-x,1/2-y,1/2-z
1/2+x,1/2+y,1/2-z
1/2-x,1/2+y,z
1/2+x,1/2-y,z
loop_
_atom_site_type_symbol
_atom_site_label
_atom_site_fract_x
_atom_site_fract_y
_atom_site_fract_z
Si Si1 0.212333 0.177403 0.227297
Si Si2 0.933904 0.696214 0.605137
Si Si3 0.843221 0.642398 0.099738
Si Si4 0.877979 0.090702 0.698481
Si Si5 0.500000 0.000000 0.750000
Si Si6 0.878765 0.987175 0.101443
Si Si7 0.000000 0.239468 0.250000
Si Si8 0.195754 0.446887 0.833695
O O1 0.314847 0.188488 0.158901
O O2 0.268847 0.163157 0.321208
O O3 0.145047 0.138410 0.186660
O O4 0.117127 0.212473 0.243867
O O5 0.917535 0.704512 0.500000
O O6 0.992972 0.732664 0.661861
O O7 0.023902 0.657889 0.611972
O O8 0.829513 0.593081 0.106865
O O9 0.807541 0.655064 0.000000
O O10 0.873891 0.061447 0.614309
O O11 0.771045 0.072792 0.755036
O O12 0.000000 0.086083 0.750000
O O13 0.421277 0.030662 0.693597
O O14 0.775882 0.015390 0.135701
O O15 0.883781 0.997716 0.000000
O O16 0.000000 0.000000 0.145635
#
# Coordination Sequence:
#
# PCOD9528797 Si02
#       8
#    16  16  16  16   4  16   8  16
#     4  11  24  43  68  98 131 167 219 273 323 398
#     4  11  25  44  70  98 132 173 215 271 327 396
#     4  10  23  43  67  94 130 177 219 270 336 391
#     4  11  21  40  64  88 121 164 215 265 330 378
#     4  12  24  34  60  96 116 176 230 262 324 380
#     4  11  22  37  60  90 124 164 210 266 324 381
#     4  12  24  45  68 102 133 175 216 266 337 406
#     4  11  23  38  62  89 127 167 220 268 319 392
#
# _framework density 19.027342999999998
#
# number of rings (size 3 to 8) (size 9 to 14) (size 15 to 20)
#    0.000    1.037    5.185    0.889    4.148    1.778 
#    0.000    2.963    0.000    0.000    0.000    0.000 
#    0.000    0.000    0.000    0.000    0.000    0.000 
#
# Total GULP energy -301016.941705 kJ/mol
# GULP energy per Si atom -5574.387809 kJ/mol
# Density = 1.898404 g / cm^3
# Si number density = 19.027343 Si / 1000 Ang^3
#
#
#
# Elastic Constant Matrix: (Units=GPa)
#
#
# Indices 1 2 3 4 5 6 
#
# 1 118.2932 48.7387 43.6745 0.0000 0.0000 0.0000
# 2 48.7387 100.3469 34.8623 0.0000 0.0000 0.0000
# 3 43.6745 34.8623 93.3966 0.0000 -0.0002 -0.0003
# 4 0.0000 0.0000 0.0000 18.0925 -0.0001 0.0000
# 5 0.0000 0.0000 -0.0002 -0.0001 17.2146 0.0000
# 6 0.0000 0.0000 -0.0003 0.0000 0.0000 51.1026
#
#
#
# Elastic Compliance Matrix: (Units=1/GPa)
#
#
# Indices 1 2 3 4 5 6 
#
# 1 0.011652 -0.004328 -0.003833 0.000000 0.000000 0.000000
# 2 -0.004328 0.013058 -0.002850 0.000000 0.000000 0.000000
# 3 -0.003833 -0.002850 0.013564 0.000000 0.000000 0.000000
# 4 0.000000 0.000000 0.000000 0.055271 0.000000 0.000000
# 5 0.000000 0.000000 0.000000 0.000000 0.058090 0.000000
# 6 0.000000 0.000000 0.000000 0.000000 0.000000 0.019568
#
#
# Mechanical properties :
#
#
# Convention : Reuss Voigt Hill
#
# Bulk Modulus (GPa) = 61.53656 62.95418 62.24537
# Shear Modulus (GPa) = 25.17082 29.59934 27.38508
#
# Velocity S-wave (km/s) = 3.64108 3.94842 3.79786
# Velocity P-wave (km/s) = 7.07729 7.34470 7.21223
#
# Compressibility (1/GPa) = 0.01625050
#
# Stress axis : x y z
#
# Youngs Moduli (GPa) = 85.82295 76.58375 73.72700
#
# Poissons Ratio (x) = 0.33142 0.28262
# Poissons Ratio (y) = 0.37141 0.21015
# Poissons Ratio (z) = 0.32899 0.21829
#
# Static dielectric constant tensor:
#      x y z
#    x 1.712890 0.000000 0.000000 
#    y 0.000000 1.691650 0.000000 
#    z 0.000000 0.000000 1.616100 
# 
# From -- ./inp_files/20759.got.cif
#   From: 2010.05.17/outbox.cif.g08.bks.cpg/sg72_11_cif.got.tgz:20759.got - 2010.06.03 17:03:01.
