data_PCOD9528822
_publ_section_title
;
Structure prediction by ZEFSAII (Michael W. Deem and Ramdas Pophale) SiO2 
 PCOD9528822
Probable space group: I B A M
;
_chemical_formula_sum "Si O2"
_cell_formula_units_Z 52
_cell_length_a 4.780637
_cell_length_b 25.065084
_cell_length_c 18.930131
_cell_angle_alpha 90.000000
_cell_angle_beta 90.000000
_cell_angle_gamma 90.000000
_cell_volume 2268.342094
_symmetry_space_group_name_H-M "I B A M"
_symmetry_group_IT_number 72
_symmetry_cell_setting 'orthorhombic'
loop_
_space_group_symop_operation_xyz
x,y,z
-x,-y,z
x,-y,1/2-z
-x,y,1/2-z
-x,-y,-z
x,y,-z
-x,y,1/2+z
x,-y,1/2+z
1/2+x,1/2+y,1/2+z
1/2-x,1/2-y,1/2+z
1/2+x,1/2-y,-z
1/2-x,1/2+y,-z
1/2-x,1/2-y,1/2-z
1/2+x,1/2+y,1/2-z
1/2-x,1/2+y,z
1/2+x,1/2-y,z
loop_
_atom_site_type_symbol
_atom_site_label
_atom_site_fract_x
_atom_site_fract_y
_atom_site_fract_z
Si Si1 0.500000 0.000000 0.750000
Si Si2 0.165186 0.948145 0.374408
Si Si3 0.438725 0.786668 0.329543
Si Si4 0.329924 0.882016 0.919738
O O1 0.698295 0.035206 0.700008
O O2 0.428011 0.926883 0.418045
O O3 0.930014 0.902673 0.373512
O O4 0.000000 0.000000 0.402525
O O5 0.500000 0.806767 0.250000
O O6 0.122220 0.767259 0.336931
O O7 0.533252 0.829913 0.385729
O O8 0.235189 0.873346 0.000000
#
# Coordination Sequence:
#
# PCOD9528822 Si02
#       4
#     4  16  16  16
#     4  12  26  48  68 104 130 192 232 296 346 396
#     4  12  26  45  70 100 141 181 237 285 345 413
#     4  10  23  44  69 100 135 177 231 291 345 404
#     4  12  27  44  70 105 141 189 231 283 359 422
#
# _framework density 22.924230000000001
#
# number of rings (size 3 to 8) (size 9 to 14) (size 15 to 20)
#    0.000    0.615    3.077    3.231    2.154    4.923 
#    0.000    0.000    0.000    0.000    0.000    0.000 
#    0.000    0.000    0.000    0.000    0.000    0.000 
#
# Total GULP energy -145554.981894 kJ/mol
# GULP energy per Si atom -5598.268534 kJ/mol
# Density = 2.287205 g / cm^3
# Si number density = 22.924230 Si / 1000 Ang^3
#
#
#
# Elastic Constant Matrix: (Units=GPa)
#
#
# Indices 1 2 3 4 5 6 
#
# 1 112.1821 12.7611 24.8006 0.0000 0.0000 0.0000
# 2 12.7611 65.8959 50.6004 0.0000 0.0000 0.0000
# 3 24.8006 50.6004 121.6513 0.0000 0.0000 0.0000
# 4 0.0000 0.0000 0.0000 38.2283 0.0000 0.0000
# 5 0.0000 0.0000 0.0000 0.0000 17.6859 0.0000
# 6 0.0000 0.0000 0.0000 0.0000 0.0000 33.0632
#
#
#
# Elastic Compliance Matrix: (Units=1/GPa)
#
#
# Indices 1 2 3 4 5 6 
#
# 1 0.009346 -0.000510 -0.001693 0.000000 0.000000 0.000000
# 2 -0.000510 0.022325 -0.009182 0.000000 0.000000 0.000000
# 3 -0.001693 -0.009182 0.012385 0.000000 0.000000 0.000000
# 4 0.000000 0.000000 0.000000 0.026159 0.000000 0.000000
# 5 0.000000 0.000000 0.000000 0.000000 0.056542 0.000000
# 6 0.000000 0.000000 0.000000 0.000000 0.000000 0.030245
#
#
# Mechanical properties :
#
#
# Convention : Reuss Voigt Hill
#
# Bulk Modulus (GPa) = 46.97974 52.89483 49.93729
# Shear Modulus (GPa) = 26.75690 31.89994 29.32842
#
# Velocity S-wave (km/s) = 3.42012 3.73438 3.58070
# Velocity P-wave (km/s) = 6.01118 6.45895 6.23908
#
# Compressibility (1/GPa) = 0.02128577
#
# Stress axis : x y z
#
# Youngs Moduli (GPa) = 106.99272 44.79304 80.74477
#
# Poissons Ratio (x) = 0.02283 0.13674
# Poissons Ratio (y) = 0.05452 0.74140
# Poissons Ratio (z) = 0.18119 0.41129
#
# Static dielectric constant tensor:
#      x y z
#    x 1.831070 0.000000 0.000000 
#    y 0.000000 1.856330 0.000000 
#    z 0.000000 0.000000 1.822300 
# 
# From -- ./inp_files/34588.got.cif
#   From: 2010.05.17/outbox.cif.g08.bks.cpg/sg72_18_cif.got.tgz:34588.got - 2010.06.03 17:03:01.
