data_PCOD9528411
_publ_section_title
;
Structure prediction by ZEFSAII (Michael W. Deem and Ramdas Pophale) SiO2 
 PCOD9528411
Probable space group: I B A M
;
_chemical_formula_sum "Si O2"
_cell_formula_units_Z 96
_cell_length_a 18.763485
_cell_length_b 29.108828
_cell_length_c 8.824075
_cell_angle_alpha 90.000000
_cell_angle_beta 90.000000
_cell_angle_gamma 90.000000
_cell_volume 4819.560264
_symmetry_space_group_name_H-M "I B A M"
_symmetry_group_IT_number 72
_symmetry_cell_setting 'orthorhombic'
loop_
_space_group_symop_operation_xyz
x,y,z
-x,-y,z
x,-y,1/2-z
-x,y,1/2-z
-x,-y,-z
x,y,-z
-x,y,1/2+z
x,-y,1/2+z
1/2+x,1/2+y,1/2+z
1/2-x,1/2-y,1/2+z
1/2+x,1/2-y,-z
1/2-x,1/2+y,-z
1/2-x,1/2-y,1/2-z
1/2+x,1/2+y,1/2-z
1/2-x,1/2+y,z
1/2+x,1/2-y,z
loop_
_atom_site_type_symbol
_atom_site_label
_atom_site_fract_x
_atom_site_fract_y
_atom_site_fract_z
Si Si1 0.423403 0.220961 0.178910
Si Si2 0.670552 0.145410 0.821088
Si Si3 0.281404 0.950872 0.317880
Si Si4 0.565205 0.633026 0.325580
Si Si5 0.176617 0.808607 0.823940
Si Si6 0.376874 0.545852 0.321206
O O1 0.500000 0.233667 0.250000
O O2 0.394498 0.174202 0.253254
O O3 0.359896 0.258883 0.197331
O O4 0.433370 0.215242 0.000000
O O5 0.682274 0.096046 0.741200
O O6 0.740596 0.178541 0.804712
O O7 0.661687 0.137376 0.000000
O O8 0.282673 0.952923 0.500000
O O9 0.199855 0.947452 0.258375
O O10 0.308260 0.000000 0.250000
O O11 0.500000 0.659982 0.250000
O O12 0.553457 0.622773 0.500000
O O13 0.636596 0.660970 0.299432
O O14 0.575312 0.588432 0.223014
O O15 0.159423 0.822117 0.000000
O O16 0.408297 0.500000 0.250000
O O17 0.366879 0.541721 0.500000
#
# Coordination Sequence:
#
# PCOD9528411 Si02
#       6
#    16  16  16  16  16  16
#     4  11  24  42  63  91 126 166 209 256 312 372
#     4  11  22  39  65  95 127 164 206 257 309 365
#     4  11  21  36  60  92 125 162 203 251 307 364
#     4  12  24  37  55  79 112 156 203 252 307 363
#     4  10  22  40  62  89 122 160 206 256 305 361
#     4  11  21  36  55  78 110 149 197 249 305 364
#
# _framework density 19.918828999999999
#
# number of rings (size 3 to 8) (size 9 to 14) (size 15 to 20)
#    0.000    1.000    1.667    7.500    0.000    3.667 
#    0.000    1.667    0.000    0.500    0.000    3.500 
#    0.000    0.000    0.000    0.000    0.000    0.000 
#
# Total GULP energy -268001.930114 kJ/mol
# GULP energy per Si atom -5583.373544 kJ/mol
# Density = 1.987349 g / cm^3
# Si number density = 19.918829 Si / 1000 Ang^3
#
#
#
# Elastic Constant Matrix: (Units=GPa)
#
#
# Indices 1 2 3 4 5 6 
#
# 1 42.7998 43.3540 39.0085 0.0000 0.0000 0.0000
# 2 43.3540 124.4332 72.6037 0.0000 0.0000 0.0000
# 3 39.0085 72.6037 165.6862 0.0000 0.0000 -0.0002
# 4 0.0000 0.0000 0.0000 7.6185 0.0000 0.0000
# 5 0.0000 0.0000 0.0000 0.0000 28.2448 0.0000
# 6 0.0000 0.0000 -0.0002 0.0000 0.0000 -32.7240
#
#
#
# Elastic Compliance Matrix: (Units=1/GPa)
#
#
# Indices 1 2 3 4 5 6 
#
# 1 0.038212 -0.010834 -0.004249 0.000000 0.000000 0.000000
# 2 -0.010834 0.013869 -0.003527 0.000000 0.000000 0.000000
# 3 -0.004249 -0.003527 0.008581 0.000000 0.000000 0.000000
# 4 0.000000 0.000000 0.000000 0.131259 0.000000 0.000000
# 5 0.000000 0.000000 0.000000 0.000000 0.035405 0.000000
# 6 0.000000 0.000000 0.000000 0.000000 0.000000 -0.030559
#
#
# Mechanical properties :
#
#
# Convention : Reuss Voigt Hill
#
# Bulk Modulus (GPa) = 42.65785 71.42795 57.04290
# Shear Modulus (GPa) = 20.67824 12.49139 16.58481
#
# Velocity S-wave (km/s) = 3.22549 2.50694 2.88865
# Velocity P-wave (km/s) = 5.94425 6.65710 6.31075
#
# Compressibility (1/GPa) = 0.02344235
#
# Stress axis : x y z
#
# Youngs Moduli (GPa) = 26.17003 72.10376 116.53420
#
# Poissons Ratio (x) = 0.78119 0.49513
# Poissons Ratio (y) = 0.28353 0.41096
# Poissons Ratio (z) = 0.11119 0.25428
#
# Static dielectric constant tensor:
#      x y z
#    x 1.712610 0.000000 0.000000 
#    y 0.000000 1.634400 0.000000 
#    z 0.000000 0.000000 1.656430 
# 
# From -- ./inp_files/6013.got.cif
#   From: 2010.05.17/outbox.cif.g08.bks.cpg/sg72_4_cif.got.tgz:6013.got - 2010.06.03 17:03:01.
