data_PCOD9528651
_publ_section_title
;
Structure prediction by ZEFSAII (Michael W. Deem and Ramdas Pophale) SiO2 
 PCOD9528651
Probable space group: I B A M
;
_chemical_formula_sum "Si O2"
_cell_formula_units_Z 88
_cell_length_a 12.403705
_cell_length_b 19.246234
_cell_length_c 15.128350
_cell_angle_alpha 90.000000
_cell_angle_beta 90.000000
_cell_angle_gamma 90.000000
_cell_volume 3611.509437
_symmetry_space_group_name_H-M "I B A M"
_symmetry_group_IT_number 72
_symmetry_cell_setting 'orthorhombic'
loop_
_space_group_symop_operation_xyz
x,y,z
-x,-y,z
x,-y,1/2-z
-x,y,1/2-z
-x,-y,-z
x,y,-z
-x,y,1/2+z
x,-y,1/2+z
1/2+x,1/2+y,1/2+z
1/2-x,1/2-y,1/2+z
1/2+x,1/2-y,-z
1/2-x,1/2+y,-z
1/2-x,1/2-y,1/2-z
1/2+x,1/2+y,1/2-z
1/2-x,1/2+y,z
1/2+x,1/2-y,z
loop_
_atom_site_type_symbol
_atom_site_label
_atom_site_fract_x
_atom_site_fract_y
_atom_site_fract_z
Si Si1 0.444822 0.103009 0.500000
Si Si2 0.856269 0.243993 0.500000
Si Si3 0.391526 0.104229 0.303683
Si Si4 0.779531 0.942276 0.166008
Si Si5 0.807496 0.639608 0.500000
Si Si6 0.689988 0.600368 0.895644
Si Si7 0.533962 0.336760 0.160296
O O1 0.385706 0.176743 0.500000
O O2 0.423889 0.070795 0.400822
O O3 0.567998 0.125814 0.500000
O O4 0.731658 0.219446 0.500000
O O5 0.908759 0.210247 0.587527
O O6 0.500000 0.127846 0.250000
O O7 0.326573 0.065115 0.226387
O O8 0.282774 0.143600 0.342103
O O9 0.886936 0.899298 0.192388
O O10 0.808280 0.021650 0.143441
O O11 0.744300 0.900226 0.080836
O O12 0.573242 0.632809 0.883819
O O13 0.713058 0.593102 0.000000
O O14 0.500000 0.297770 0.250000
#
# Coordination Sequence:
#
# PCOD9528651 Si02
#       7
#     8   8  16  16   8  16  16
#     4  12  26  49  70  95 132 187 240 304 349 406
#     4  10  26  45  72  99 131 179 241 303 365 404
#     4  12  26  44  65  96 138 178 235 282 336 418
#     4  11  23  42  67 100 142 183 218 273 353 422
#     4  10  22  46  66  96 136 175 226 296 337 422
#     4  12  24  41  71 103 142 187 226 283 346 423
#     4  11  23  42  67 105 141 174 230 292 351 428
#
# _framework density 24.366543
#
# number of rings (size 3 to 8) (size 9 to 14) (size 15 to 20)
#    0.000    0.727    6.364    1.091    0.000    5.091 
#    0.000    3.636    0.000    0.000    0.000    0.000 
#    0.000    0.000    0.000    0.000    0.000    0.000 
#
# Total GULP energy -245084.129030 kJ/mol
# GULP energy per Si atom -5570.093842 kJ/mol
# Density = 2.431108 g / cm^3
# Si number density = 24.366543 Si / 1000 Ang^3
#
#
#
# Elastic Constant Matrix: (Units=GPa)
#
#
# Indices 1 2 3 4 5 6 
#
# 1 147.2005 27.3304 29.5708 0.0002 0.0000 0.0000
# 2 27.3304 69.6281 26.1538 0.0002 0.0000 0.0000
# 3 29.5708 26.1538 178.3926 0.0001 0.0000 0.0000
# 4 0.0002 0.0002 0.0001 32.5241 0.0000 -0.0001
# 5 0.0000 0.0000 0.0000 0.0000 53.1551 0.0000
# 6 0.0000 0.0000 0.0000 -0.0001 0.0000 13.2100
#
#
#
# Elastic Compliance Matrix: (Units=1/GPa)
#
#
# Indices 1 2 3 4 5 6 
#
# 1 0.007448 -0.002603 -0.000853 0.000000 0.000000 0.000000
# 2 -0.002603 0.016109 -0.001930 0.000000 0.000000 0.000000
# 3 -0.000853 -0.001930 0.006030 0.000000 0.000000 0.000000
# 4 0.000000 0.000000 0.000000 0.030746 0.000000 0.000000
# 5 0.000000 0.000000 0.000000 0.000000 0.018813 0.000000
# 6 0.000000 0.000000 0.000000 0.000000 0.000000 0.075700
#
#
# Mechanical properties :
#
#
# Convention : Reuss Voigt Hill
#
# Bulk Modulus (GPa) = 53.15095 62.37013 57.76054
# Shear Modulus (GPa) = 29.08828 40.58890 34.83859
#
# Velocity S-wave (km/s) = 3.45886 4.08580 3.78533
# Velocity P-wave (km/s) = 6.14915 6.92175 6.54686
#
# Compressibility (1/GPa) = 0.01881434
#
# Stress axis : x y z
#
# Youngs Moduli (GPa) = 134.26189 62.07777 165.83785
#
# Poissons Ratio (x) = 0.16160 0.14146
# Poissons Ratio (y) = 0.34950 0.32010
# Poissons Ratio (z) = 0.11452 0.11982
#
# Static dielectric constant tensor:
#      x y z
#    x 1.988250 0.000000 0.000000 
#    y 0.000000 2.074760 0.000000 
#    z 0.000000 0.000000 2.056540 
# 
# From -- ./inp_files/20351.got.cif
#   From: 2010.05.17/outbox.cif.g08.bks.cpg/sg72_11_cif.got.tgz:20351.got - 2010.06.03 17:03:01.
