data_PCOD9528684
_publ_section_title
;
Structure prediction by ZEFSAII (Michael W. Deem and Ramdas Pophale) SiO2 
 PCOD9528684
Probable space group: I B A M
;
_chemical_formula_sum "Si O2"
_cell_formula_units_Z 112
_cell_length_a 32.275546
_cell_length_b 11.710606
_cell_length_c 14.231713
_cell_angle_alpha 90.000000
_cell_angle_beta 90.000000
_cell_angle_gamma 90.000000
_cell_volume 5379.106520
_symmetry_space_group_name_H-M "I B A M"
_symmetry_group_IT_number 72
_symmetry_cell_setting 'orthorhombic'
loop_
_space_group_symop_operation_xyz
x,y,z
-x,-y,z
x,-y,1/2-z
-x,y,1/2-z
-x,-y,-z
x,y,-z
-x,y,1/2+z
x,-y,1/2+z
1/2+x,1/2+y,1/2+z
1/2-x,1/2-y,1/2+z
1/2+x,1/2-y,-z
1/2-x,1/2+y,-z
1/2-x,1/2-y,1/2-z
1/2+x,1/2+y,1/2-z
1/2-x,1/2+y,z
1/2+x,1/2-y,z
loop_
_atom_site_type_symbol
_atom_site_label
_atom_site_fract_x
_atom_site_fract_y
_atom_site_fract_z
Si Si1 0.854692 0.928456 0.387999
Si Si2 0.454036 0.818276 0.218664
Si Si3 0.380029 0.669490 0.800548
Si Si4 0.306699 0.203741 0.393947
Si Si5 0.716719 0.266178 0.611948
Si Si6 0.332732 0.966413 0.642316
Si Si7 0.428435 0.037463 0.895035
O O1 0.861990 0.910882 0.500000
O O2 0.879925 0.855397 0.311068
O O3 0.808137 0.882772 0.365645
O O4 0.865584 0.056820 0.356932
O O5 0.500000 0.785353 0.250000
O O6 0.425249 0.718602 0.178023
O O7 0.434966 0.868102 0.315202
O O8 0.450860 0.923893 0.145399
O O9 0.345572 0.761056 0.830811
O O10 0.313358 0.248725 0.500000
O O11 0.263405 0.246028 0.351401
O O12 0.304553 0.066956 0.399019
O O13 0.722617 0.270200 0.500000
O O14 0.687947 0.156864 0.631233
O O15 0.336775 0.000000 0.750000
O O16 0.378771 0.977118 0.601236
O O17 0.443203 0.065200 0.000000
#
# Coordination Sequence:
#
# PCOD9528684 Si02
#       7
#    16  16  16  16  16  16  16
#     4  10  23  43  65  90 125 171 223 269 320 385
#     4  11  24  42  64  98 131 160 212 270 327 405
#     4  11  23  42  67  91 123 172 215 267 335 390
#     4  11  23  39  61  92 132 174 224 273 323 386
#     4  10  23  39  59  90 131 178 225 276 320 369
#     4  12  22  37  61  92 131 173 224 269 321 385
#     4  11  21  39  65  95 134 174 208 256 329 399
#
# _framework density 20.821301999999999
#
# number of rings (size 3 to 8) (size 9 to 14) (size 15 to 20)
#    0.000    1.143    2.857    4.286    2.000    5.714 
#    0.000    1.429    0.000    0.857    0.000    0.000 
#    0.000    0.000    0.000    0.000    0.000    0.000 
#
# Total GULP energy -312552.982734 kJ/mol
# GULP energy per Si atom -5581.303263 kJ/mol
# Density = 2.077391 g / cm^3
# Si number density = 20.821302 Si / 1000 Ang^3
#
#
#
# Elastic Constant Matrix: (Units=GPa)
#
#
# Indices 1 2 3 4 5 6 
#
# 1 114.2041 48.0920 -3.6421 0.0000 0.0000 0.0000
# 2 48.0920 95.6354 7.9307 0.0000 0.0000 0.0000
# 3 -3.6421 7.9307 105.1999 0.0000 0.0000 0.0000
# 4 0.0000 0.0000 0.0000 25.3759 0.0000 0.0000
# 5 0.0000 0.0000 0.0000 0.0000 -22.4694 0.0000
# 6 0.0000 0.0000 0.0000 0.0000 0.0000 20.9784
#
#
#
# Elastic Compliance Matrix: (Units=1/GPa)
#
#
# Indices 1 2 3 4 5 6 
#
# 1 0.011178 -0.005689 0.000816 0.000000 0.000000 0.000000
# 2 -0.005689 0.013417 -0.001208 0.000000 0.000000 0.000000
# 3 0.000816 -0.001208 0.009625 0.000000 0.000000 0.000000
# 4 0.000000 0.000000 0.000000 0.039407 0.000000 0.000000
# 5 0.000000 0.000000 0.000000 0.000000 -0.044505 0.000000
# 6 0.000000 0.000000 0.000000 0.000000 0.000000 0.047668
#
#
# Mechanical properties :
#
#
# Convention : Reuss Voigt Hill
#
# Bulk Modulus (GPa) = 45.33576 46.64451 45.99013
# Shear Modulus (GPa) = 51.91812 22.28757 37.10285
#
# Velocity S-wave (km/s) = 4.99892 3.27528 4.22591
# Velocity P-wave (km/s) = 7.42563 6.06252 6.77843
#
# Compressibility (1/GPa) = 0.02205764
#
# Stress axis : x y z
#
# Youngs Moduli (GPa) = 89.46325 74.53117 103.89552
#
# Poissons Ratio (x) = 0.42398 -0.08476
# Poissons Ratio (y) = 0.50892 0.12555
# Poissons Ratio (z) = -0.07299 0.09006
#
# Static dielectric constant tensor:
#      x y z
#    x 1.781390 0.000000 0.000000 
#    y 0.000000 1.779140 0.000000 
#    z 0.000000 0.000000 1.805620 
# 
# From -- ./inp_files/26412.got.cif
#   From: 2010.05.17/outbox.cif.g08.bks.cpg/sg72_14_cif.got.tgz:26412.got - 2010.06.03 17:03:01.
