data_PCOD9528284
_publ_section_title
;
Structure prediction by ZEFSAII (Michael W. Deem and Ramdas Pophale) SiO2 
 PCOD9528284
Probable space group: I B A M
;
_chemical_formula_sum "Si O2"
_cell_formula_units_Z 128
_cell_length_a 22.718403
_cell_length_b 19.408555
_cell_length_c 17.303690
_cell_angle_alpha 90.000000
_cell_angle_beta 90.000000
_cell_angle_gamma 90.000000
_cell_volume 7629.739809
_symmetry_space_group_name_H-M "I B A M"
_symmetry_group_IT_number 72
_symmetry_cell_setting 'orthorhombic'
loop_
_space_group_symop_operation_xyz
x,y,z
-x,-y,z
x,-y,1/2-z
-x,y,1/2-z
-x,-y,-z
x,y,-z
-x,y,1/2+z
x,-y,1/2+z
1/2+x,1/2+y,1/2+z
1/2-x,1/2-y,1/2+z
1/2+x,1/2-y,-z
1/2-x,1/2+y,-z
1/2-x,1/2-y,1/2-z
1/2+x,1/2+y,1/2-z
1/2-x,1/2+y,z
1/2+x,1/2-y,z
loop_
_atom_site_type_symbol
_atom_site_label
_atom_site_fract_x
_atom_site_fract_y
_atom_site_fract_z
Si Si1 0.832623 0.257187 0.148624
Si Si2 0.659351 0.784775 0.672713
Si Si3 0.722347 0.653515 0.360798
Si Si4 0.771378 0.873176 0.323662
Si Si5 0.110206 0.501288 0.092699
Si Si6 0.568343 0.152152 0.410122
Si Si7 0.043416 0.375543 0.825832
Si Si8 0.748485 0.496064 0.912389
O O1 0.824172 0.266690 0.239736
O O2 0.782052 0.306408 0.114177
O O3 0.818501 0.177578 0.136251
O O4 0.895679 0.286082 0.127231
O O5 0.671664 0.712111 0.629327
O O6 0.708170 0.841564 0.649201
O O7 0.595955 0.820004 0.678576
O O8 0.725535 0.633170 0.269376
O O9 0.722879 0.580634 0.403273
O O10 0.777921 0.950414 0.351911
O O11 0.090747 0.577590 0.118109
O O12 0.074888 0.445823 0.144464
O O13 0.180752 0.501759 0.101280
O O14 0.096890 0.491510 0.000000
O O15 0.580716 0.154468 0.500000
O O16 0.500106 0.151782 0.391727
O O17 0.000000 0.381807 0.750000
O O18 0.738712 0.520050 0.000000
#
# Coordination Sequence:
#
# PCOD9528284 Si02
#       8
#    16  16  16  16  16  16  16  16
#     4   9  17  33  52  73  95 135 175 219 263 306
#     4   9  18  35  51  75 101 131 175 224 262 303
#     4   9  18  33  55  73 101 135 172 215 273 319
#     4   9  18  33  54  74 103 131 168 220 272 309
#     4  10  22  37  47  67 111 151 178 211 254 309
#     4  11  22  35  49  69 105 147 182 210 253 312
#     4  12  22  35  53  75 102 142 186 225 253 299
#     4  11  20  32  51  79 107 140 173 209 263 325
#
# _framework density 16.776456
#
# number of rings (size 3 to 8) (size 9 to 14) (size 15 to 20)
#    0.000    2.000    3.750    2.625    0.000    2.500 
#    2.250    3.125    0.000    0.000    0.000    0.875 
#    0.000    2.000    0.000    0.000    0.000    0.000 
#
# Total GULP energy -356350.654588 kJ/mol
# GULP energy per Si atom -5567.978978 kJ/mol
# Density = 1.673827 g / cm^3
# Si number density = 16.776456 Si / 1000 Ang^3
#
#
#
# Elastic Constant Matrix: (Units=GPa)
#
#
# Indices 1 2 3 4 5 6 
#
# 1 52.2725 26.0687 7.6918 0.0000 0.0000 0.0000
# 2 26.0687 62.6049 12.3111 0.0000 0.0000 0.0000
# 3 7.6918 12.3111 17.0992 0.0000 0.0000 0.0000
# 4 0.0000 0.0000 0.0000 -4.7572 0.0000 0.0000
# 5 0.0000 0.0000 0.0000 0.0000 14.6657 0.0000
# 6 0.0000 0.0000 0.0000 0.0000 0.0000 25.4251
#
#
#
# Elastic Compliance Matrix: (Units=1/GPa)
#
#
# Indices 1 2 3 4 5 6 
#
# 1 0.024409 -0.009325 -0.004266 0.000000 0.000000 0.000000
# 2 -0.009325 0.022170 -0.011767 0.000000 0.000000 0.000000
# 3 -0.004266 -0.011767 0.068874 0.000000 0.000000 0.000000
# 4 0.000000 0.000000 0.000000 -0.210207 0.000000 0.000000
# 5 0.000000 0.000000 0.000000 0.000000 0.068186 0.000000
# 6 0.000000 0.000000 0.000000 0.000000 0.000000 0.039331
#
#
# Mechanical properties :
#
#
# Convention : Reuss Voigt Hill
#
# Bulk Modulus (GPa) = 15.44746 24.90219 20.17482
# Shear Modulus (GPa) = 58.78330 12.79372 35.78851
#
# Velocity S-wave (km/s) = 5.92581 2.76452 4.62373
# Velocity P-wave (km/s) = 7.48653 5.00658 6.36844
#
# Compressibility (1/GPa) = 0.06473558
#
# Stress axis : x y z
#
# Youngs Moduli (GPa) = 40.96909 45.10574 14.51936
#
# Poissons Ratio (x) = 0.42060 0.06194
# Poissons Ratio (y) = 0.38203 0.17086
# Poissons Ratio (z) = 0.17478 0.53078
#
# Static dielectric constant tensor:
#      x y z
#    x 1.582400 0.000000 0.000000 
#    y 0.000000 1.589980 0.000000 
#    z 0.000000 0.000000 1.600290 
# 
# From -- ./inp_files/39373.got.cif
#   From: 2010.05.17/outbox.cif.g08.bks.cpg/sg72_20_cif.got.tgz:39373.got - 2010.06.03 17:03:01.
