data_PCOD9528913
_publ_section_title
;
Structure prediction by ZEFSAII (Michael W. Deem and Ramdas Pophale) SiO2 
 PCOD9528913
Probable space group: I B A M
;
_chemical_formula_sum "Si O2"
_cell_formula_units_Z 96
_cell_length_a 13.222920
_cell_length_b 15.794571
_cell_length_c 21.781198
_cell_angle_alpha 90.000000
_cell_angle_beta 90.000000
_cell_angle_gamma 90.000000
_cell_volume 4549.010799
_symmetry_space_group_name_H-M "I B A M"
_symmetry_group_IT_number 72
_symmetry_cell_setting 'orthorhombic'
loop_
_space_group_symop_operation_xyz
x,y,z
-x,-y,z
x,-y,1/2-z
-x,y,1/2-z
-x,-y,-z
x,y,-z
-x,y,1/2+z
x,-y,1/2+z
1/2+x,1/2+y,1/2+z
1/2-x,1/2-y,1/2+z
1/2+x,1/2-y,-z
1/2-x,1/2+y,-z
1/2-x,1/2-y,1/2-z
1/2+x,1/2+y,1/2-z
1/2-x,1/2+y,z
1/2+x,1/2-y,z
loop_
_atom_site_type_symbol
_atom_site_label
_atom_site_fract_x
_atom_site_fract_y
_atom_site_fract_z
Si Si1 0.313370 0.319025 0.289732
Si Si2 0.775922 0.549057 0.883536
Si Si3 0.779865 0.289937 0.000000
Si Si4 0.947088 0.803725 0.000000
Si Si5 0.569637 0.800137 0.374753
Si Si6 0.814293 0.000000 0.750000
Si Si7 0.862252 0.375947 0.117829
Si Si8 0.156166 0.899469 0.000000
O O1 0.250000 0.250000 0.250000
O O2 0.400156 0.268972 0.324943
O O3 0.360083 0.406538 0.263054
O O4 0.227129 0.351739 0.336126
O O5 0.835855 0.636890 0.881488
O O6 0.741979 0.525405 0.814134
O O7 0.851607 0.473353 0.901038
O O8 0.689999 0.554601 0.936587
O O9 0.839679 0.319502 0.940962
O O10 0.779762 0.188488 0.000000
O O11 0.669731 0.333722 0.000000
O O12 0.951892 0.747025 0.938783
O O13 0.038189 0.871521 0.000000
O O14 0.471208 0.852915 0.356128
#
# Coordination Sequence:
#
# PCOD9528913 Si02
#       8
#    16  16   8   8  16   8  16   8
#     4  11  23  43  68  98 140 195 240 309 374 442
#     4  11  23  44  68 105 147 188 241 316 374 446
#     4  12  21  42  65 102 141 179 239 297 364 452
#     4  12  24  38  70 108 132 182 248 294 364 476
#     4  12  22  41  71 104 140 184 242 303 380 449
#     4  10  24  44  73 101 148 198 254 298 384 458
#     4  11  24  40  68 102 134 183 240 301 369 443
#     4  12  23  42  73 102 143 193 237 300 387 444
#
# _framework density 21.103489
#
# number of rings (size 3 to 8) (size 9 to 14) (size 15 to 20)
#    0.000    0.667    6.667    1.000    0.000    0.667 
#    0.000    5.000    0.000    7.000    0.000    0.000 
#    0.000    0.000    0.000    0.000    0.000    0.000 
#
# Total GULP energy -267669.940033 kJ/mol
# GULP energy per Si atom -5576.457084 kJ/mol
# Density = 2.105546 g / cm^3
# Si number density = 21.103489 Si / 1000 Ang^3
#
#
#
# Elastic Constant Matrix: (Units=GPa)
#
#
# Indices 1 2 3 4 5 6 
#
# 1 94.7382 22.1259 28.7007 0.0000 0.0000 0.0000
# 2 22.1259 130.3927 42.4111 0.0000 -0.0001 0.0000
# 3 28.7007 42.4111 97.7899 0.0000 -0.0001 0.0000
# 4 0.0000 0.0000 0.0000 27.2310 -0.0001 0.0000
# 5 0.0000 -0.0001 -0.0001 -0.0001-2934.2218 0.0001
# 6 0.0000 0.0000 0.0000 0.0000 0.0001 22.3096
#
#
#
# Elastic Compliance Matrix: (Units=1/GPa)
#
#
# Indices 1 2 3 4 5 6 
#
# 1 0.011699 -0.001011 -0.002995 0.000000 0.000000 0.000000
# 2 -0.001011 0.009016 -0.003613 0.000000 0.000000 0.000000
# 3 -0.002995 -0.003613 0.012672 0.000000 0.000000 0.000000
# 4 0.000000 0.000000 0.000000 0.036723 0.000000 0.000000
# 5 0.000000 0.000000 0.000000 0.000000 -0.000341 0.000000
# 6 0.000000 0.000000 0.000000 0.000000 0.000000 0.044824
#
#
# Mechanical properties :
#
#
# Convention : Reuss Voigt Hill
#
# Bulk Modulus (GPa) = 55.10258 56.59958 55.85108
# Shear Modulus (GPa) = 36.79683 -561.62403 -262.41360
#
# Velocity S-wave (km/s) = 4.18022 -16.33114 -11.16315
# Velocity P-wave (km/s) = 7.03323 18.13092 11.81659
#
# Compressibility (1/GPa) = 0.01814797
#
# Stress axis : x y z
#
# Youngs Moduli (GPa) = 85.47835 110.91392 78.91290
#
# Poissons Ratio (x) = 0.11213 0.23635
# Poissons Ratio (y) = 0.08642 0.28515
# Poissons Ratio (z) = 0.25602 0.40079
#
# Static dielectric constant tensor:
#      x y z
#    x 1.779100 0.000000 0.000000 
#    y 0.000000 1.818120 0.000000 
#    z 0.000000 0.000000 1.766810 
# 
# From -- ./inp_files/38096.got.cif
#   From: 2010.05.17/outbox.cif.g08.bks.cpg/sg72_20_cif.got.tgz:38096.got - 2010.06.03 17:03:01.
