data_PCOD9528735
_publ_section_title
;
Structure prediction by ZEFSAII (Michael W. Deem and Ramdas Pophale) SiO2 
 PCOD9528735
Probable space group: I B A M
;
_chemical_formula_sum "Si O2"
_cell_formula_units_Z 80
_cell_length_a 21.790692
_cell_length_b 9.370259
_cell_length_c 17.103269
_cell_angle_alpha 90.000000
_cell_angle_beta 90.000000
_cell_angle_gamma 90.000000
_cell_volume 3492.221195
_symmetry_space_group_name_H-M "I B A M"
_symmetry_group_IT_number 72
_symmetry_cell_setting 'orthorhombic'
loop_
_space_group_symop_operation_xyz
x,y,z
-x,-y,z
x,-y,1/2-z
-x,y,1/2-z
-x,-y,-z
x,y,-z
-x,y,1/2+z
x,-y,1/2+z
1/2+x,1/2+y,1/2+z
1/2-x,1/2-y,1/2+z
1/2+x,1/2-y,-z
1/2-x,1/2+y,-z
1/2-x,1/2-y,1/2-z
1/2+x,1/2+y,1/2-z
1/2-x,1/2+y,z
1/2+x,1/2-y,z
loop_
_atom_site_type_symbol
_atom_site_label
_atom_site_fract_x
_atom_site_fract_y
_atom_site_fract_z
Si Si1 0.868431 0.321597 0.591092
Si Si2 0.065601 0.852641 0.211533
Si Si3 0.234262 0.800677 0.839881
Si Si4 0.855949 0.583142 0.321774
Si Si5 0.129220 0.995237 0.907090
O O1 0.877789 0.338650 0.500000
O O2 0.796460 0.323357 0.613732
O O3 0.893855 0.462878 0.633237
O O4 0.887004 0.160039 0.611582
O O5 0.104596 0.709308 0.216803
O O6 0.072368 0.896280 0.120400
O O7 0.000000 0.830578 0.250000
O O8 0.089929 0.000000 0.250000
O O9 0.250000 0.750000 0.750000
O O10 0.194809 0.665520 0.871674
O O11 0.187981 0.932843 0.858252
O O12 0.825008 0.500000 0.250000
O O13 0.141495 0.985527 0.000000
#
# Coordination Sequence:
#
# PCOD9528735 Si02
#       5
#    16  16  16  16  16
#     4  11  23  38  60  98 146 189 222 263 328 404
#     4  10  23  44  70  97 123 166 229 291 352 415
#     4  11  22  36  61  99 144 186 229 266 316 386
#     4  11  22  38  62  95 135 173 222 280 330 390
#     4  10  23  41  65  98 142 184 227 278 336 403
#
# _framework density 22.908055999999998
#
# number of rings (size 3 to 8) (size 9 to 14) (size 15 to 20)
#    0.000    1.400    2.000    3.000    2.800    6.000 
#    0.000    3.000    0.000    1.200    0.000   18.200 
#    0.000    0.000    0.000    0.000    0.000    0.000 
#
# Total GULP energy -222969.641453 kJ/mol
# GULP energy per Si atom -5574.241036 kJ/mol
# Density = 2.285592 g / cm^3
# Si number density = 22.908056 Si / 1000 Ang^3
#
#
#
# Elastic Constant Matrix: (Units=GPa)
#
#
# Indices 1 2 3 4 5 6 
#
# 1 67.9764 30.2038 3.3532 0.0000 0.0000 0.0000
# 2 30.2038 170.8174 45.7692 0.0000 0.0000 0.0000
# 3 3.3532 45.7692 73.1884 0.0000 0.0000 0.0000
# 4 0.0000 0.0000 0.0000 37.3853 0.0000 0.0000
# 5 0.0000 0.0000 0.0000 0.0000 20.9417 0.0000
# 6 0.0000 0.0000 0.0000 0.0000 0.0000 24.9533
#
#
#
# Elastic Compliance Matrix: (Units=1/GPa)
#
#
# Indices 1 2 3 4 5 6 
#
# 1 0.016060 -0.003174 0.001249 0.000000 0.000000 0.000000
# 2 -0.003174 0.007660 -0.004645 0.000000 0.000000 0.000000
# 3 0.001249 -0.004645 0.016511 0.000000 0.000000 0.000000
# 4 0.000000 0.000000 0.000000 0.026748 0.000000 0.000000
# 5 0.000000 0.000000 0.000000 0.000000 0.047752 0.000000
# 6 0.000000 0.000000 0.000000 0.000000 0.000000 0.040075
#
#
# Mechanical properties :
#
#
# Convention : Reuss Voigt Hill
#
# Bulk Modulus (GPa) = 36.91278 52.29273 44.60275
# Shear Modulus (GPa) = 28.25243 32.16647 30.20945
#
# Velocity S-wave (km/s) = 3.51564 3.75127 3.63537
# Velocity P-wave (km/s) = 5.71210 6.45287 6.09375
#
# Compressibility (1/GPa) = 0.02709089
#
# Stress axis : x y z
#
# Youngs Moduli (GPa) = 62.26711 130.54727 60.56628
#
# Poissons Ratio (x) = 0.41442 -0.07567
# Poissons Ratio (y) = 0.19766 0.28132
# Poissons Ratio (z) = -0.07780 0.60637
#
# Static dielectric constant tensor:
#      x y z
#    x 1.875320 0.000000 0.000000 
#    y 0.000000 1.929400 0.000000 
#    z 0.000000 0.000000 1.937210 
# 
# From -- ./inp_files/34173.got.cif
#   From: 2010.05.17/outbox.cif.g08.bks.cpg/sg72_18_cif.got.tgz:34173.got - 2010.06.03 17:03:01.
